data_PCOD8325574
_publ_section_title
;
Structure prediction by ZEFSAII (Michael W. Deem and Ramdas Pophale) SiO2 
 PCOD8325574
Probable space group: P 63/M
;
_chemical_formula_sum "Si O2"
_cell_formula_units_Z 78
_cell_length_a 23.707815
_cell_length_b 23.707815
_cell_length_c 8.268723
_cell_angle_alpha 90.000000
_cell_angle_beta 90.000000
_cell_angle_gamma 120.000000
_cell_volume 4024.872565
_symmetry_space_group_name_H-M "P 63/M"
_symmetry_group_IT_number 176
_symmetry_cell_setting 'hexagonal'
loop_
_space_group_symop_operation_xyz
x,y,z
x-y,x,1/2+z
-y,x-y,z
-x,-y,1/2+z
-x+y,-x,z
y,-x+y,1/2+z
-x,-y,-z
-x+y,-x,1/2-z
y,-x+y,-z
x,y,1/2-z
x-y,x,-z
-y,x-y,1/2-z
loop_
_atom_site_type_symbol
_atom_site_label
_atom_site_fract_x
_atom_site_fract_y
_atom_site_fract_z
Si Si1 0.083049 0.814130 0.437622
Si Si2 0.598285 0.897874 0.936271
Si Si3 0.251088 0.498867 0.568087
Si Si4 0.415557 0.702327 0.250000
Si Si5 0.405851 0.305063 0.066341
Si Si6 0.564871 0.003799 0.936166
Si Si7 0.204476 0.938951 0.559938
O O1 0.087459 0.828828 0.250000
O O2 0.102043 0.758838 0.467513
O O3 0.131837 0.882704 0.519967
O O4 0.009800 0.790164 0.503606
O O5 0.620344 0.913166 0.750000
O O6 0.532570 0.829130 0.954711
O O7 0.580866 0.950273 0.012819
O O8 0.263375 0.531545 0.750000
O O9 0.263575 0.546378 0.418787
O O10 0.177729 0.441474 0.555978
O O11 0.375522 0.741132 0.250000
O O12 0.400340 0.323723 0.250000
O O13 0.334748 0.259605 0.985933
O O14 0.446956 0.372507 0.968866
O O15 0.552595 0.988279 0.750000
O O16 0.500000 0.000000 0.000000
O O17 0.213478 0.941007 0.750000
#
# Coordination Sequence:
#
# PCOD8325574 Si02
#       7
#    12  12  12   6  12  12  12
#     4  11  22  35  61  94 122 164 207 250 306 366
#     4  10  21  38  59  88 122 159 202 246 310 370
#     4  10  22  41  67  91 119 162 203 257 316 374
#     4  10  26  46  62  90 116 150 220 262 320 372
#     4  10  20  37  60  87 121 159 200 245 310 369
#     4  11  24  39  57  85 123 162 200 248 306 373
#     4  10  21  38  59  89 129 162 200 256 305 362
#
# _framework density 19.379494999999999
#
# number of rings (size 3 to 8) (size 9 to 14) (size 15 to 20)
#    0.154    1.538    3.077    0.923    2.154    4.308 
#    0.000    3.077    0.000    0.308    0.000    0.000 
#    0.000    0.000    0.000    0.000    0.000    0.000 
#
# Total GULP energy -966885.017209 kJ/mol
# GULP energy per Si atom -12395.961759 kJ/mol
# Density = 1.933539 g / cm^3
# Si number density = 19.379495 Si / 1000 Ang^3
#
#
#
# Elastic Constant Matrix: (Units=GPa)
#
#
# Indices 1 2 3 4 5 6 
#
# 1 106.4235 37.3553 27.1333 0.0000 0.0000 0.0000
# 2 37.3553 106.4235 27.1333 0.0000 0.0000 0.0000
# 3 27.1333 27.1333 61.7228 0.0000 0.0000 0.0000
# 4 0.0000 0.0000 0.0000 29.9987 0.0000 0.0000
# 5 0.0000 0.0000 0.0000 0.0000 29.9987 0.0000
# 6 0.0000 0.0000 0.0000 0.0000 0.0000 34.5341
#
#
#
# Elastic Compliance Matrix: (Units=1/GPa)
#
#
# Indices 1 2 3 4 5 6 
#
# 1 0.011409 -0.003070 -0.003666 0.000000 0.000000 0.000000
# 2 -0.003070 0.011409 -0.003666 0.000000 0.000000 0.000000
# 3 -0.003666 -0.003666 0.019424 0.000000 0.000000 0.000000
# 4 0.000000 0.000000 0.000000 0.033335 0.000000 0.000000
# 5 0.000000 0.000000 0.000000 0.000000 0.033335 0.000000
# 6 0.000000 0.000000 0.000000 0.000000 0.000000 0.028957
#
#
# Mechanical properties :
#
#
# Convention : Reuss Voigt Hill
#
# Bulk Modulus (GPa) = 46.64403 50.86817 48.75610
# Shear Modulus (GPa) = 30.15378 31.10282 30.62830
#
# Velocity S-wave (km/s) = 3.94885 4.01051 3.97980
# Velocity P-wave (km/s) = 6.70166 6.91021 6.80673
#
# Compressibility (1/GPa) = 0.02143897
#
# Stress axis : x y z
#
# Youngs Moduli (GPa) = 87.65355 87.65355 51.48184
#
# Poissons Ratio (x) = 0.26909 0.18872
# Poissons Ratio (y) = 0.26909 0.18872
# Poissons Ratio (z) = 0.32131 0.32131
#
# Static dielectric constant tensor:
#      x y z
#    x 3.639310 0.000000 0.000000 
#    y 0.000000 3.639310 0.000000 
#    z 0.000000 0.000000 3.550270 
# 
# 
# High freq. dielectric constant tensor:
#      x y z
#    x 1.749400 0.000000 0.000000 
#    y 0.000000 1.749400 0.000000 
#    z 0.000000 0.000000 1.753600 
# 
# From -- ./inp_files/1318.got.cif
#   From: 2010.06.25/outbox.cif.g09.slc.cpg/sg176_1_cif.got.tgz:1318.got - 2010.06.28 12:15:01.
