data_PCOD8325924
_publ_section_title
;
Structure prediction by ZEFSAII (Michael W. Deem and Ramdas Pophale) SiO2 
 PCOD8325924
Probable space group: P 61 2 2
;
_chemical_formula_sum "Si O2"
_cell_formula_units_Z 60
_cell_length_a 14.785773
_cell_length_b 14.785773
_cell_length_c 13.824873
_cell_angle_alpha 90.000000
_cell_angle_beta 90.000000
_cell_angle_gamma 120.000000
_cell_volume 2617.458779
_symmetry_space_group_name_H-M "P 61 2 2"
_symmetry_group_IT_number 178
_symmetry_cell_setting 'hexagonal'
loop_
_space_group_symop_operation_xyz
x,y,z
x-y,x,1/6+z
-y,x-y,1/3+z
-x,-y,1/2+z
-x+y,-x,2/3+z
y,-x+y,5/6+z
x-y,-y,-z
-x,-x+y,2/3-z
y,x,1/3-z
-y,-x,5/6-z
-x+y,y,1/2-z
x,x-y,1/6-z
loop_
_atom_site_type_symbol
_atom_site_label
_atom_site_fract_x
_atom_site_fract_y
_atom_site_fract_z
Si Si1 0.993544 0.856033 0.985229
Si Si2 0.713630 0.071568 0.913990
Si Si3 0.711223 0.239962 0.309030
Si Si4 0.080296 0.572830 0.749824
Si Si5 0.322925 0.341312 0.377048
O O1 0.907281 0.877343 0.928654
O O2 0.093925 0.906076 0.916667
O O3 0.963960 0.734996 0.988564
O O4 0.823517 0.176484 0.916667
O O5 0.622899 0.099458 0.922901
O O6 0.690293 0.999242 0.821712
O O7 0.714042 0.000000 0.000000
O O8 0.714886 0.285115 0.416667
O O9 0.606195 0.212390 0.250000
O O10 0.807286 0.327448 0.251955
O O11 0.727417 0.140426 0.312473
O O12 0.000000 0.564661 0.833334
O O13 0.034330 0.589161 0.650110
#
# Coordination Sequence:
#
# PCOD8325924 Si02
#       5
#    12  12  12  12  12
#     4  10  23  43  72 104 141 188 244 315 376 447
#     4  11  28  49  70 104 148 195 252 306 377 455
#     4  12  26  43  73 110 148 188 245 304 373 452
#     4  11  24  44  73 105 145 187 239 301 366 456
#     4  12  25  46  73 106 141 197 243 310 383 447
#
# _framework density 22.922996999999999
#
# number of rings (size 3 to 8) (size 9 to 14) (size 15 to 20)
#    0.000    0.800    2.000    4.200   11.200    1.600 
#    0.000    5.000    0.000    0.000    0.000    0.000 
#    0.000    0.000    0.000    0.000    0.000    0.000 
#
# Total GULP energy -743393.987796 kJ/mol
# GULP energy per Si atom -12389.899797 kJ/mol
# Density = 2.287082 g / cm^3
# Si number density = 22.922997 Si / 1000 Ang^3
#
#
#
# Elastic Constant Matrix: (Units=GPa)
#
#
# Indices 1 2 3 4 5 6 
#
# 1 223.7868 -63.3145 34.6126 0.0000 0.0000 0.0000
# 2 -63.3145 223.7868 34.6126 0.0000 0.0000 0.0000
# 3 34.6126 34.6126 126.7710 0.0000 0.0000 0.0000
# 4 0.0000 0.0000 0.0000 31.0326 0.0000 0.0000
# 5 0.0000 0.0000 0.0000 0.0000 31.0326 0.0000
# 6 0.0000 0.0000 0.0000 0.0000 0.0000 143.5507
#
#
#
# Elastic Compliance Matrix: (Units=1/GPa)
#
#
# Indices 1 2 3 4 5 6 
#
# 1 0.005273 0.001790 -0.001929 0.000000 0.000000 0.000000
# 2 0.001790 0.005273 -0.001929 0.000000 0.000000 0.000000
# 3 -0.001929 -0.001929 0.008941 0.000000 0.000000 0.000000
# 4 0.000000 0.000000 0.000000 0.032224 0.000000 0.000000
# 5 0.000000 0.000000 0.000000 0.000000 0.032224 0.000000
# 6 0.000000 0.000000 0.000000 0.000000 0.000000 0.006966
#
#
# Mechanical properties :
#
#
# Convention : Reuss Voigt Hill
#
# Bulk Modulus (GPa) = 65.12889 65.12956 65.12922
# Shear Modulus (GPa) = 49.92285 79.01875 64.47080
#
# Velocity S-wave (km/s) = 4.67181 5.87760 5.30905
# Velocity P-wave (km/s) = 7.58780 8.63340 8.12743
#
# Compressibility (1/GPa) = 0.01535417
#
# Stress axis : x y z
#
# Youngs Moduli (GPa) = 189.63349 189.63349 111.83966
#
# Poissons Ratio (x) = -0.33949 0.21569
# Poissons Ratio (y) = -0.33949 0.21569
# Poissons Ratio (z) = 0.36572 0.36572
#
# Static dielectric constant tensor:
#      x y z
#    x 4.243700 0.000000 0.000000 
#    y 0.000000 4.243700 0.000000 
#    z 0.000000 0.000000 4.367300 
# 
# 
# High freq. dielectric constant tensor:
#      x y z
#    x 1.908540 0.000000 0.000000 
#    y 0.000000 1.908540 0.000000 
#    z 0.000000 0.000000 1.910370 
# 
# From -- ./inp_files/5700.got.cif
#   From: 2010.03.12/outbox.cif.g09.slc.cpg/sg178_3_cif.got.tgz:5700.got - 2010.04.02 07:02:38.
