data_PCOD8325695
_publ_section_title
;
Structure prediction by ZEFSAII (Michael W. Deem and Ramdas Pophale) SiO2 
 PCOD8325695
Probable space group: P 63/M
;
_chemical_formula_sum "Si O2"
_cell_formula_units_Z 64
_cell_length_a 16.088627
_cell_length_b 16.088627
_cell_length_c 17.741037
_cell_angle_alpha 90.000000
_cell_angle_beta 90.000000
_cell_angle_gamma 120.000000
_cell_volume 3976.926820
_symmetry_space_group_name_H-M "P 63/M"
_symmetry_group_IT_number 176
_symmetry_cell_setting 'hexagonal'
loop_
_space_group_symop_operation_xyz
x,y,z
x-y,x,1/2+z
-y,x-y,z
-x,-y,1/2+z
-x+y,-x,z
y,-x+y,1/2+z
-x,-y,-z
-x+y,-x,1/2-z
y,-x+y,-z
x,y,1/2-z
x-y,x,-z
-y,x-y,1/2-z
loop_
_atom_site_type_symbol
_atom_site_label
_atom_site_fract_x
_atom_site_fract_y
_atom_site_fract_z
Si Si1 0.142197 0.665031 0.163340
Si Si2 0.757842 0.718760 0.916053
Si Si3 0.235734 0.955042 0.418116
Si Si4 0.000000 0.000000 0.088667
Si Si5 0.901222 0.798613 0.162131
Si Si6 0.856085 0.524368 0.663486
O O1 0.111599 0.664502 0.250000
O O2 0.252976 0.744984 0.152032
O O3 0.129356 0.563369 0.139315
O O4 0.075379 0.685737 0.108872
O O5 0.867867 0.741549 0.913540
O O6 0.737695 0.784807 0.858284
O O7 0.730189 0.735899 0.998276
O O8 0.309834 0.923129 0.389573
O O9 0.250604 0.042339 0.364747
O O10 0.965839 0.894802 0.116726
O O11 0.000000 0.000000 0.000000
O O12 0.906076 0.819279 0.250000
O O13 0.886569 0.554379 0.750000
#
# Coordination Sequence:
#
# PCOD8325695 Si02
#       6
#    12  12  12   4  12  12
#     4   9  18  33  53  75  98 124 158 202 252 302
#     4  11  21  33  49  70 101 136 167 203 245 292
#     4  11  21  33  49  70 101 136 167 203 245 292
#     4  12  22  32  46  66 100 140 172 204 244 281
#     4  12  22  32  48  70  98 136 176 206 236 284
#     4   9  18  33  53  75  98 124 158 202 252 302
#
# _framework density 16.092828000000001
#
# number of rings (size 3 to 8) (size 9 to 14) (size 15 to 20)
#    0.000    1.500    3.750    3.188    0.000    3.750 
#    0.000    0.000    0.000    0.000    0.000    0.000 
#    1.875    0.000    2.250    0.000    0.000    0.000 
#
# Total GULP energy -793661.180014 kJ/mol
# GULP energy per Si atom -12400.955938 kJ/mol
# Density = 1.605620 g / cm^3
# Si number density = 16.092828 Si / 1000 Ang^3
#
#
#
# Elastic Constant Matrix: (Units=GPa)
#
#
# Indices 1 2 3 4 5 6 
#
# 1 96.3196 52.0196 44.8675 0.0000 0.0000 0.0000
# 2 52.0196 96.3196 44.8675 0.0000 0.0000 0.0000
# 3 44.8675 44.8675 112.5767 0.0000 0.0000 0.0000
# 4 0.0000 0.0000 0.0000 21.6653 0.0000 0.0000
# 5 0.0000 0.0000 0.0000 0.0000 21.6653 0.0000
# 6 0.0000 0.0000 0.0000 0.0000 0.0000 22.1500
#
#
#
# Elastic Compliance Matrix: (Units=1/GPa)
#
#
# Indices 1 2 3 4 5 6 
#
# 1 0.015728 -0.006845 -0.003540 0.000000 0.000000 0.000000
# 2 -0.006845 0.015728 -0.003540 0.000000 0.000000 0.000000
# 3 -0.003540 -0.003540 0.011705 0.000000 0.000000 0.000000
# 4 0.000000 0.000000 0.000000 0.046157 0.000000 0.000000
# 5 0.000000 0.000000 0.000000 0.000000 0.046157 0.000000
# 6 0.000000 0.000000 0.000000 0.000000 0.000000 0.045147
#
#
# Mechanical properties :
#
#
# Convention : Reuss Voigt Hill
#
# Bulk Modulus (GPa) = 65.31895 65.41390 65.36643
# Shear Modulus (GPa) = 23.41086 23.99354 23.70220
#
# Velocity S-wave (km/s) = 3.81824 3.86547 3.84193
# Velocity P-wave (km/s) = 7.75342 7.78836 7.77091
#
# Compressibility (1/GPa) = 0.01530949
#
# Stress axis : x y z
#
# Youngs Moduli (GPa) = 63.58026 63.58026 85.43489
#
# Poissons Ratio (x) = 0.43522 0.30247
# Poissons Ratio (y) = 0.43522 0.30247
# Poissons Ratio (z) = 0.22509 0.22509
#
# Static dielectric constant tensor:
#      x y z
#    x 3.001210 0.000000 0.000000 
#    y 0.000000 3.001210 0.000000 
#    z 0.000000 0.000000 3.008960 
# 
# 
# High freq. dielectric constant tensor:
#      x y z
#    x 1.611410 0.000000 0.000000 
#    y 0.000000 1.611410 0.000000 
#    z 0.000000 0.000000 1.622270 
# 
# From -- ./inp_files/3325.got.cif
#   From: 2010.06.25/outbox.cif.g09.slc.cpg/sg176_2_cif.got.tgz:3325.got - 2010.06.28 12:15:01.
