data_PCOD8325460
_publ_section_title
;
Structure prediction by ZEFSAII (Michael W. Deem and Ramdas Pophale) SiO2 
 PCOD8325460
Probable space group: P 63/M
;
_chemical_formula_sum "Si O2"
_cell_formula_units_Z 84
_cell_length_a 24.414026
_cell_length_b 24.414026
_cell_length_c 9.491299
_cell_angle_alpha 90.000000
_cell_angle_beta 90.000000
_cell_angle_gamma 120.000000
_cell_volume 4899.311943
_symmetry_space_group_name_H-M "P 63/M"
_symmetry_group_IT_number 176
_symmetry_cell_setting 'hexagonal'
loop_
_space_group_symop_operation_xyz
x,y,z
x-y,x,1/2+z
-y,x-y,z
-x,-y,1/2+z
-x+y,-x,z
y,-x+y,1/2+z
-x,-y,-z
-x+y,-x,1/2-z
y,-x+y,-z
x,y,1/2-z
x-y,x,-z
-y,x-y,1/2-z
loop_
_atom_site_type_symbol
_atom_site_label
_atom_site_fract_x
_atom_site_fract_y
_atom_site_fract_z
Si Si1 0.562586 0.046857 0.917053
Si Si2 0.943934 0.633146 0.916747
Si Si3 0.388146 0.809899 0.417473
Si Si4 0.752910 0.280854 0.917785
Si Si5 0.007774 0.228495 0.413375
Si Si6 0.146949 0.256175 0.413239
Si Si7 0.795522 0.187885 0.582668
O O1 0.549484 0.038887 0.750000
O O2 0.616613 0.029776 0.962146
O O3 0.585682 0.118323 0.966883
O O4 0.500000 0.000000 0.000000
O O5 0.938438 0.632988 0.750000
O O6 0.873316 0.606307 0.978721
O O7 0.987909 0.705851 0.966585
O O8 0.386663 0.807570 0.250000
O O9 0.433158 0.784652 0.479436
O O10 0.317982 0.763203 0.476790
O O11 0.750488 0.282942 0.750000
O O12 0.795859 0.250986 0.968610
O O13 0.989798 0.217339 0.250000
O O14 0.954398 0.169712 0.499298
O O15 0.073322 0.230139 0.441868
O O16 0.159372 0.250442 0.250000
O O17 0.187433 0.329063 0.466684
O O18 0.791930 0.182947 0.750000
#
# Coordination Sequence:
#
# PCOD8325460 Si02
#       7
#    12  12  12  12  12  12  12
#     4  10  19  31  46  66  93 126 159 193 239 294
#     4   8  14  28  46  61  85 126 163 187 228 291
#     4   9  16  24  38  63  92 120 153 194 242 285
#     4   9  14  22  37  60  90 120 151 195 242 283
#     4   9  18  32  51  73  98 130 165 195 233 287
#     4   9  18  31  49  75 100 126 160 198 240 282
#     4   8  13  24  42  60  83 120 159 192 233 284
#
# _framework density 17.145264000000001
#
# number of rings (size 3 to 8) (size 9 to 14) (size 15 to 20)
#    0.000    3.143    1.429    2.000    0.000    2.857 
#    0.000    2.143    0.000    1.143    0.000    1.000 
#    0.000    0.000    0.000    0.000    0.000    0.000 
#
# Total GULP energy -1040924.778517 kJ/mol
# GULP energy per Si atom -12391.961649 kJ/mol
# Density = 1.710624 g / cm^3
# Si number density = 17.145264 Si / 1000 Ang^3
#
#
#
# Elastic Constant Matrix: (Units=GPa)
#
#
# Indices 1 2 3 4 5 6 
#
# 1 112.6463 62.2110 36.1180 0.0000 0.0000 0.0000
# 2 62.2110 112.6463 36.1180 0.0000 0.0000 0.0000
# 3 36.1180 36.1180 28.0252 0.0000 0.0000 0.0000
# 4 0.0000 0.0000 0.0000 17.9319 0.0000 0.0000
# 5 0.0000 0.0000 0.0000 0.0000 17.9319 0.0000
# 6 0.0000 0.0000 0.0000 0.0000 0.0000 25.2177
#
#
#
# Elastic Compliance Matrix: (Units=1/GPa)
#
#
# Indices 1 2 3 4 5 6 
#
# 1 0.016029 -0.003798 -0.015762 0.000000 0.000000 0.000000
# 2 -0.003798 0.016029 -0.015762 0.000000 0.000000 0.000000
# 3 -0.015762 -0.015762 0.076311 0.000000 0.000000 0.000000
# 4 0.000000 0.000000 0.000000 0.055766 0.000000 0.000000
# 5 0.000000 0.000000 0.000000 0.000000 0.055766 0.000000
# 6 0.000000 0.000000 0.000000 0.000000 0.000000 0.039655
#
#
# Mechanical properties :
#
#
# Convention : Reuss Voigt Hill
#
# Bulk Modulus (GPa) = 26.50975 58.02351 42.26663
# Shear Modulus (GPa) = 14.58675 20.14103 17.36389
#
# Velocity S-wave (km/s) = 2.91997 3.43115 3.18583
# Velocity P-wave (km/s) = 5.18302 7.04364 6.18371
#
# Compressibility (1/GPa) = 0.03772197
#
# Stress axis : x y z
#
# Youngs Moduli (GPa) = 62.38693 62.38693 13.10435
#
# Poissons Ratio (x) = 0.23697 0.20656
# Poissons Ratio (y) = 0.23697 0.20656
# Poissons Ratio (z) = 0.98337 0.98337
#
# Static dielectric constant tensor:
#      x y z
#    x 3.310190 0.000000 0.000000 
#    y 0.000000 3.310190 0.000000 
#    z 0.000000 0.000000 2.567200 
# 
# 
# High freq. dielectric constant tensor:
#      x y z
#    x 1.664390 0.000000 0.000000 
#    y 0.000000 1.664390 0.000000 
#    z 0.000000 0.000000 1.593640 
# 
# From -- ./inp_files/2036.got.cif
#   From: 2010.06.25/outbox.cif.g09.slc.cpg/sg176_2_cif.got.tgz:2036.got - 2010.06.28 12:15:01.
