data_PCOD8325839
_publ_section_title
;
Structure prediction by ZEFSAII (Michael W. Deem and Ramdas Pophale) SiO2 
 PCOD8325839
Probable space group: P 61 2 2
;
_chemical_formula_sum "Si O2"
_cell_formula_units_Z 48
_cell_length_a 11.312066
_cell_length_b 11.312066
_cell_length_c 23.474122
_cell_angle_alpha 90.000000
_cell_angle_beta 90.000000
_cell_angle_gamma 120.000000
_cell_volume 2601.380316
_symmetry_space_group_name_H-M "P 61 2 2"
_symmetry_group_IT_number 178
_symmetry_cell_setting 'hexagonal'
loop_
_space_group_symop_operation_xyz
x,y,z
x-y,x,1/6+z
-y,x-y,1/3+z
-x,-y,1/2+z
-x+y,-x,2/3+z
y,-x+y,5/6+z
x-y,-y,-z
-x,-x+y,2/3-z
y,x,1/3-z
-y,-x,5/6-z
-x+y,y,1/2-z
x,x-y,1/6-z
loop_
_atom_site_type_symbol
_atom_site_label
_atom_site_fract_x
_atom_site_fract_y
_atom_site_fract_z
Si Si1 0.400967 0.400967 0.166667
Si Si2 0.645328 0.691415 0.452125
Si Si3 0.591113 0.408888 0.416667
Si Si4 0.325142 0.616524 0.144102
Si Si5 0.208017 0.230843 0.069570
O O1 0.416335 0.547794 0.157726
O O2 0.335697 0.305357 0.112066
O O3 0.652074 0.571247 0.418805
O O4 0.493599 0.656698 0.472267
O O5 0.711642 0.817261 0.408922
O O6 0.741950 0.735899 0.505912
O O7 0.629975 0.356505 0.359954
O O8 0.377914 0.688957 0.083334
O O9 0.137539 0.068769 0.083334
#
# Coordination Sequence:
#
# PCOD8325839 Si02
#       5
#     6  12   6  12  12
#     4  10  20  36  62  88 116 152 210 252 296 360
#     4  11  23  36  60  95 115 159 207 249 301 372
#     4  12  24  38  62  88 134 162 194 262 308 368
#     4  11  22  41  62  90 123 162 205 254 309 371
#     4  11  18  37  62  88 115 149 204 255 297 346
#
# _framework density 18.451743
#
# number of rings (size 3 to 8) (size 9 to 14) (size 15 to 20)
#    0.000    1.000    6.250    4.500    0.000    0.000 
#    0.000    0.000    5.500    0.000    0.000    0.000 
#    0.000    0.000    0.000    0.000    0.000    0.000 
#
# Total GULP energy -595070.366180 kJ/mol
# GULP energy per Si atom -12397.299295 kJ/mol
# Density = 1.840975 g / cm^3
# Si number density = 18.451743 Si / 1000 Ang^3
#
#
#
# Elastic Constant Matrix: (Units=GPa)
#
#
# Indices 1 2 3 4 5 6 
#
# 1 108.0590 59.4885 26.5065 0.0000 0.0000 0.0000
# 2 59.4885 108.0590 26.5065 0.0000 0.0000 0.0000
# 3 26.5065 26.5065 74.1381 0.0000 0.0000 0.0000
# 4 0.0000 0.0000 0.0000 9.3817 0.0000 0.0000
# 5 0.0000 0.0000 0.0000 0.0000 9.3817 0.0000
# 6 0.0000 0.0000 0.0000 0.0000 0.0000 24.2853
#
#
#
# Elastic Compliance Matrix: (Units=1/GPa)
#
#
# Indices 1 2 3 4 5 6 
#
# 1 0.013659 -0.006929 -0.002406 0.000000 0.000000 0.000000
# 2 -0.006929 0.013659 -0.002406 0.000000 0.000000 0.000000
# 3 -0.002406 -0.002406 0.015209 0.000000 0.000000 0.000000
# 4 0.000000 0.000000 0.000000 0.106590 0.000000 0.000000
# 5 0.000000 0.000000 0.000000 0.000000 0.106590 0.000000
# 6 0.000000 0.000000 0.000000 0.000000 0.000000 0.041177
#
#
# Mechanical properties :
#
#
# Convention : Reuss Voigt Hill
#
# Bulk Modulus (GPa) = 52.50996 57.25103 54.88049
# Shear Modulus (GPa) = 15.30383 20.46007 17.88195
#
# Velocity S-wave (km/s) = 2.88305 3.33354 3.11645
# Velocity P-wave (km/s) = 6.29305 6.77580 6.53888
#
# Compressibility (1/GPa) = 0.01904401
#
# Stress axis : x y z
#
# Youngs Moduli (GPa) = 73.21084 73.21084 65.75130
#
# Poissons Ratio (x) = 0.50731 0.15820
# Poissons Ratio (y) = 0.50731 0.15820
# Poissons Ratio (z) = 0.17615 0.17615
#
# Static dielectric constant tensor:
#      x y z
#    x 3.542510 0.000000 0.000000 
#    y 0.000000 3.542510 0.000000 
#    z 0.000000 0.000000 3.481520 
# 
# 
# High freq. dielectric constant tensor:
#      x y z
#    x 1.708160 0.000000 0.000000 
#    y 0.000000 1.708160 0.000000 
#    z 0.000000 0.000000 1.728190 
# 
# From -- ./inp_files/7336.got.cif
#   From: 2010.03.12/outbox.cif.g09.slc.cpg/sg178_4_cif.got.tgz:7336.got - 2010.04.02 07:02:38.
