data_PCOD8325160
_publ_section_title
;
Structure prediction by ZEFSAII (Michael W. Deem and Ramdas Pophale) SiO2 
 PCOD8325160
Probable space group: P 6/M
;
_chemical_formula_sum "Si O2"
_cell_formula_units_Z 36
_cell_length_a 14.772037
_cell_length_b 14.772037
_cell_length_c 11.432522
_cell_angle_alpha 90.000000
_cell_angle_beta 90.000000
_cell_angle_gamma 120.000000
_cell_volume 2160.495923
_symmetry_space_group_name_H-M "P 6/M"
_symmetry_group_IT_number 175
_symmetry_cell_setting 'hexagonal'
loop_
_space_group_symop_operation_xyz
x,y,z
x-y,x,z
-y,x-y,z
-x,-y,z
-x+y,-x,z
y,-x+y,z
-x,-y,-z
-x+y,-x,-z
y,-x+y,-z
x,y,-z
x-y,x,-z
-y,x-y,-z
loop_
_atom_site_type_symbol
_atom_site_label
_atom_site_fract_x
_atom_site_fract_y
_atom_site_fract_z
Si Si1 0.454066 0.882034 0.750296
Si Si2 0.106765 0.249634 0.000000
Si Si3 0.578907 0.201957 0.500000
Si Si4 0.453375 0.238906 0.871845
O O1 0.470005 0.869053 0.613675
O O2 0.520580 0.848129 0.829514
O O3 0.331534 0.823493 0.779012
O O4 0.500000 0.000000 0.784209
O O5 0.168518 0.185207 0.000000
O O6 0.140532 0.326439 0.114841
O O7 0.705502 0.255447 0.500000
O O8 0.504592 0.280436 0.000000
#
# Coordination Sequence:
#
# PCOD8325160 Si02
#       4
#    12   6   6  12
#     4  12  21  36  58  78 108 143 176 216 265 310
#     4  10  21  36  52  74 104 138 177 216 260 302
#     4  10  19  38  54  74 106 146 174 220 261 310
#     4  10  22  34  53  81 109 139 173 213 253 323
#
# _framework density 16.662839999999999
#
# number of rings (size 3 to 8) (size 9 to 14) (size 15 to 20)
#    1.333    0.000    3.333    4.333    0.000    1.333 
#    0.000    0.000    0.000    0.000    0.000    0.000 
#    0.000    0.000    0.000   14.333    0.000    0.000 
#
# Total GULP energy -446109.159058 kJ/mol
# GULP energy per Si atom -12391.921085 kJ/mol
# Density = 1.662491 g / cm^3
# Si number density = 16.662840 Si / 1000 Ang^3
#
#
#
# Elastic Constant Matrix: (Units=GPa)
#
#
# Indices 1 2 3 4 5 6 
#
# 1 70.9987 9.2453 16.6894 0.0000 0.0000 0.0000
# 2 9.2453 70.9987 16.6894 0.0000 0.0000 0.0000
# 3 16.6894 16.6894 75.4931 0.0000 0.0000 0.0000
# 4 0.0000 0.0000 0.0000 -33.2739 0.0000 0.0000
# 5 0.0000 0.0000 0.0000 0.0000 -33.2739 0.0000
# 6 0.0000 0.0000 0.0000 0.0000 0.0000 30.8767
#
#
#
# Elastic Compliance Matrix: (Units=1/GPa)
#
#
# Indices 1 2 3 4 5 6 
#
# 1 0.014959 -0.001235 -0.003034 0.000000 0.000000 0.000000
# 2 -0.001235 0.014959 -0.003034 0.000000 0.000000 0.000000
# 3 -0.003034 -0.003034 0.014588 0.000000 0.000000 0.000000
# 4 0.000000 0.000000 0.000000 -0.030054 0.000000 0.000000
# 5 0.000000 0.000000 0.000000 0.000000 -0.030054 0.000000
# 6 0.000000 0.000000 0.000000 0.000000 0.000000 0.032387
#
#
# Mechanical properties :
#
#
# Convention : Reuss Voigt Hill
#
# Bulk Modulus (GPa) = 33.44508 33.63765 33.54136
# Shear Modulus (GPa) = 120.89900 4.52355 62.71128
#
# Velocity S-wave (km/s) = 8.52723 1.64944 6.14143
# Velocity P-wave (km/s) = 10.81973 4.88452 8.39420
#
# Compressibility (1/GPa) = 0.02989977
#
# Stress axis : x y z
#
# Youngs Moduli (GPa) = 66.85056 66.85056 68.55082
#
# Poissons Ratio (x) = 0.08254 0.20798
# Poissons Ratio (y) = 0.08254 0.20798
# Poissons Ratio (z) = 0.20282 0.20282
#
# Static dielectric constant tensor:
#      x y z
#    x 4.290010 0.000000 0.000000 
#    y 0.000000 4.290010 0.000000 
#    z 0.000000 0.000000 2.988060 
# 
# 
# High freq. dielectric constant tensor:
#      x y z
#    x 1.636760 0.000000 0.000000 
#    y 0.000000 1.636760 0.000000 
#    z 0.000000 0.000000 1.636490 
# 
# From -- ./inp_files/1543.got.cif
#   From: 2010.03.12/outbox.cif.g09.slc.cpg/sg175_1_cif.got.tgz:1543.got - 2010.04.02 06:55:29.
