data_PCOD8325105
_publ_section_title
;
Structure prediction by ZEFSAII (Michael W. Deem and Ramdas Pophale) SiO2 
 PCOD8325105
Probable space group: P 6/M
;
_chemical_formula_sum "Si O2"
_cell_formula_units_Z 74
_cell_length_a 12.270783
_cell_length_b 12.270783
_cell_length_c 28.312460
_cell_angle_alpha 90.000000
_cell_angle_beta 90.000000
_cell_angle_gamma 120.000000
_cell_volume 3691.924316
_symmetry_space_group_name_H-M "P 6/M"
_symmetry_group_IT_number 175
_symmetry_cell_setting 'hexagonal'
loop_
_space_group_symop_operation_xyz
x,y,z
x-y,x,z
-y,x-y,z
-x,-y,z
-x+y,-x,z
y,-x+y,z
-x,-y,-z
-x+y,-x,-z
y,-x+y,-z
x,y,-z
x-y,x,-z
-y,x-y,-z
loop_
_atom_site_type_symbol
_atom_site_label
_atom_site_fract_x
_atom_site_fract_y
_atom_site_fract_z
Si Si1 0.727754 0.767254 0.549838
Si Si2 0.666667 0.333334 0.234506
Si Si3 0.926406 0.209957 0.000000
Si Si4 0.568070 0.646235 0.742124
Si Si5 0.738877 0.751494 0.830629
Si Si6 0.562546 0.922148 0.911584
Si Si7 0.666668 0.333334 0.876788
Si Si8 0.235718 0.960032 0.347732
O O1 0.766105 0.910508 0.549500
O O2 0.652138 0.702772 0.500000
O O3 0.660219 0.709597 0.600213
O O4 0.529953 0.303446 0.252462
O O5 0.666668 0.333334 0.178935
O O6 0.899562 0.264540 0.953290
O O7 0.063655 0.230709 0.000000
O O8 0.500000 0.500000 0.752681
O O9 0.684173 0.710982 0.778182
O O10 0.620332 0.674559 0.689291
O O11 0.758869 0.888225 0.839096
O O12 0.644526 0.652912 0.869056
O O13 0.461673 0.784696 0.893893
O O14 0.500000 0.000000 0.932143
O O15 0.241226 0.092322 0.340516
#
# Coordination Sequence:
#
# PCOD8325105 Si02
#       8
#    12   4   6  12  12  12   4  12
#     4   8  13  22  40  68 103 142 183 229 285 350
#     4  12  24  42  64  88 118 157 198 243 300 358
#     4  12  26  46  68  94 127 164 204 248 302 364
#     4  12  24  39  59  83 113 151 197 246 297 358
#     4  12  24  41  63  90 122 157 197 243 298 361
#     4  12  25  43  67  96 127 162 204 251 301 359
#     4  12  24  43  70  96 123 160 202 255 312 364
#     4  10  19  32  51  79 114 150 189 237 295 357
#
# _framework density 20.043748000000001
#
# number of rings (size 3 to 8) (size 9 to 14) (size 15 to 20)
#    0.000    0.973    0.000   10.054    0.000    2.595 
#    0.000    3.243    0.000    0.486    0.000    1.135 
#    0.000    0.000    0.000    0.000    0.000    0.000 
#
# Total GULP energy -917333.648177 kJ/mol
# GULP energy per Si atom -12396.400651 kJ/mol
# Density = 1.999813 g / cm^3
# Si number density = 20.043748 Si / 1000 Ang^3
#
#
#
# Elastic Constant Matrix: (Units=GPa)
#
#
# Indices 1 2 3 4 5 6 
#
# 1 88.7196 19.5741 18.0361 0.0000 0.0000 0.0001
# 2 19.5741 88.7195 18.0358 0.0000 0.0000 -0.0002
# 3 18.0361 18.0358 116.2260 0.0000 0.0000 0.0002
# 4 0.0000 0.0000 0.0000 36.8216 0.0001 0.0000
# 5 0.0000 0.0000 0.0000 0.0001 36.8213 0.0000
# 6 0.0001 -0.0002 0.0002 0.0000 0.0000 34.5725
#
#
#
# Elastic Compliance Matrix: (Units=1/GPa)
#
#
# Indices 1 2 3 4 5 6 
#
# 1 0.012100 -0.002362 -0.001511 0.000000 0.000000 0.000000
# 2 -0.002362 0.012100 -0.001511 0.000000 0.000000 0.000000
# 3 -0.001511 -0.001511 0.009073 0.000000 0.000000 0.000000
# 4 0.000000 0.000000 0.000000 0.027158 0.000000 0.000000
# 5 0.000000 0.000000 0.000000 0.000000 0.027158 0.000000
# 6 0.000000 0.000000 0.000000 0.000000 0.000000 0.028925
#
#
# Mechanical properties :
#
#
# Convention : Reuss Voigt Hill
#
# Bulk Modulus (GPa) = 44.43733 44.99524 44.71628
# Shear Modulus (GPa) = 37.09645 37.51102 37.30373
#
# Velocity S-wave (km/s) = 4.30673 4.33073 4.31875
# Velocity P-wave (km/s) = 6.85192 6.89233 6.87216
#
# Compressibility (1/GPa) = 0.02250360
#
# Stress axis : x y z
#
# Youngs Moduli (GPa) = 82.64552 82.64548 110.21840
#
# Poissons Ratio (x) = 0.19524 0.16655
# Poissons Ratio (y) = 0.19524 0.16654
# Poissons Ratio (z) = 0.12488 0.12488
#
# Static dielectric constant tensor:
#      x y z
#    x 3.520430 -0.000010 0.000000 
#    y -0.000010 3.520430 0.000000 
#    z 0.000000 0.000000 4.259640 
# 
# 
# High freq. dielectric constant tensor:
#      x y z
#    x 1.776510 0.000000 0.000000 
#    y 0.000000 1.776510 0.000000 
#    z 0.000000 0.000000 1.804410 
# 
# From -- ./inp_files/3400.got.cif
#   From: 2010.03.12/outbox.cif.g09.slc.cpg/sg175_2_cif.got.tgz:3400.got - 2010.04.02 06:55:29.
