data_PCOD8325680
_publ_section_title
;
Structure prediction by ZEFSAII (Michael W. Deem and Ramdas Pophale) SiO2 
 PCOD8325680
Probable space group: P 63/M
;
_chemical_formula_sum "Si O2"
_cell_formula_units_Z 34
_cell_length_a 11.815590
_cell_length_b 11.815590
_cell_length_c 12.696107
_cell_angle_alpha 90.000000
_cell_angle_beta 90.000000
_cell_angle_gamma 120.000000
_cell_volume 1535.012904
_symmetry_space_group_name_H-M "P 63/M"
_symmetry_group_IT_number 176
_symmetry_cell_setting 'hexagonal'
loop_
_space_group_symop_operation_xyz
x,y,z
x-y,x,1/2+z
-y,x-y,z
-x,-y,1/2+z
-x+y,-x,z
y,-x+y,1/2+z
-x,-y,-z
-x+y,-x,1/2-z
y,-x+y,-z
x,y,1/2-z
x-y,x,-z
-y,x-y,1/2-z
loop_
_atom_site_type_symbol
_atom_site_label
_atom_site_fract_x
_atom_site_fract_y
_atom_site_fract_z
Si Si1 0.000000 0.000000 0.619577
Si Si2 0.388211 0.369446 0.448108
Si Si3 0.677531 0.194799 0.250000
Si Si4 0.825753 0.125736 0.636396
O O1 0.935523 0.084847 0.656417
O O2 0.000000 0.000000 0.500000
O O3 0.500000 0.500000 0.500000
O O4 0.442039 0.312832 0.357926
O O5 0.314378 0.269846 0.542872
O O6 0.278726 0.390752 0.392070
O O7 0.800756 0.342872 0.250000
O O8 0.753142 0.103948 0.750000
#
# Coordination Sequence:
#
# PCOD8325680 Si02
#       4
#     4  12   6  12
#     4  12  22  44  73 112 140 173 233 316 379 416
#     4  12  25  45  71 103 140 189 237 287 354 421
#     4  10  24  46  68  98 140 190 234 282 342 426
#     4  12  25  44  73 107 143 181 236 302 363 425
#
# _framework density 22.149650000000001
#
# number of rings (size 3 to 8) (size 9 to 14) (size 15 to 20)
#    0.353    0.000    5.294    3.176    2.471    0.000 
#    5.294    0.000    0.000    0.000    0.000    0.000 
#    0.000    0.000    0.000    0.000    0.000    0.000 
#
# Total GULP energy -421294.598682 kJ/mol
# GULP energy per Si atom -12391.017608 kJ/mol
# Density = 2.209924 g / cm^3
# Si number density = 22.149650 Si / 1000 Ang^3
#
#
#
# Elastic Constant Matrix: (Units=GPa)
#
#
# Indices 1 2 3 4 5 6 
#
# 1 81.4073 8.7856 27.3210 0.0000 0.0000 0.0000
# 2 8.7856 81.4073 27.3210 0.0000 0.0000 0.0000
# 3 27.3210 27.3210 221.6816 0.0000 0.0000 0.0000
# 4 0.0000 0.0000 0.0000 5.4741 0.0000 0.0000
# 5 0.0000 0.0000 0.0000 0.0000 5.4741 0.0000
# 6 0.0000 0.0000 0.0000 0.0000 0.0000 36.3109
#
#
#
# Elastic Compliance Matrix: (Units=1/GPa)
#
#
# Indices 1 2 3 4 5 6 
#
# 1 0.012876 -0.000894 -0.001477 0.000000 0.000000 0.000000
# 2 -0.000894 0.012876 -0.001477 0.000000 0.000000 0.000000
# 3 -0.001477 -0.001477 0.004875 0.000000 0.000000 0.000000
# 4 0.000000 0.000000 0.000000 0.182677 0.000000 0.000000
# 5 0.000000 0.000000 0.000000 0.000000 0.182677 0.000000
# 6 0.000000 0.000000 0.000000 0.000000 0.000000 0.027540
#
#
# Mechanical properties :
#
#
# Convention : Reuss Voigt Hill
#
# Bulk Modulus (GPa) = 43.60697 56.81679 50.21188
# Shear Modulus (GPa) = 11.39315 30.85641 21.12478
#
# Velocity S-wave (km/s) = 2.27044 3.73646 3.09160
# Velocity P-wave (km/s) = 5.15784 6.65747 5.95505
#
# Compressibility (1/GPa) = 0.02293211
#
# Stress axis : x y z
#
# Youngs Moduli (GPa) = 77.66394 77.66394 205.12961
#
# Poissons Ratio (x) = 0.06943 0.30292
# Poissons Ratio (y) = 0.06943 0.30292
# Poissons Ratio (z) = 0.11469 0.11469
#
# Static dielectric constant tensor:
#      x y z
#    x 3.811980 0.000000 0.000000 
#    y 0.000000 3.811980 0.000000 
#    z 0.000000 0.000000 4.592230 
# 
# 
# High freq. dielectric constant tensor:
#      x y z
#    x 1.856480 0.000000 0.000000 
#    y 0.000000 1.856480 0.000000 
#    z 0.000000 0.000000 1.918110 
# 
# From -- ./inp_files/2339.got.cif
#   From: 2010.06.25/outbox.cif.g09.slc.cpg/sg176_2_cif.got.tgz:2339.got - 2010.06.28 12:15:01.
