data_PCOD8325757
_publ_section_title
;
Structure prediction by ZEFSAII (Michael W. Deem and Ramdas Pophale) SiO2 
 PCOD8325757
Probable space group: P 61 2 2
;
_chemical_formula_sum "Si O2"
_cell_formula_units_Z 84
_cell_length_a 20.737140
_cell_length_b 20.737140
_cell_length_c 12.535974
_cell_angle_alpha 90.000000
_cell_angle_beta 90.000000
_cell_angle_gamma 120.000000
_cell_volume 4668.597507
_symmetry_space_group_name_H-M "P 61 2 2"
_symmetry_group_IT_number 178
_symmetry_cell_setting 'hexagonal'
loop_
_space_group_symop_operation_xyz
x,y,z
x-y,x,1/6+z
-y,x-y,1/3+z
-x,-y,1/2+z
-x+y,-x,2/3+z
y,-x+y,5/6+z
x-y,-y,-z
-x,-x+y,2/3-z
y,x,1/3-z
-y,-x,5/6-z
-x+y,y,1/2-z
x,x-y,1/6-z
loop_
_atom_site_type_symbol
_atom_site_label
_atom_site_fract_x
_atom_site_fract_y
_atom_site_fract_z
Si Si1 0.564294 0.293390 0.962192
Si Si2 0.212877 0.273107 0.979086
Si Si3 0.261942 0.103929 0.196388
Si Si4 0.646026 0.483412 0.479266
Si Si5 0.369754 0.984675 0.121603
Si Si6 0.586983 0.870931 0.756494
Si Si7 0.804167 0.203652 0.042011
O O1 0.638027 0.361974 0.916667
O O2 0.546500 0.213919 0.916645
O O3 0.495175 0.306481 0.945220
O O4 0.581582 0.290791 0.083334
O O5 0.227120 0.208931 0.934479
O O6 0.201615 0.320704 0.887296
O O7 0.139544 0.232126 0.051078
O O8 0.281209 0.330367 0.053367
O O9 0.352079 0.144143 0.198470
O O10 0.235114 0.117557 0.083334
O O11 0.588124 0.411877 0.416667
O O12 0.608674 0.533009 0.506563
O O13 0.719816 0.530744 0.411360
O O14 0.402032 0.050588 0.211549
O O15 0.398263 0.000000 0.000000
O O16 0.598803 0.862423 0.885746
O O17 0.794617 0.205384 0.916667
#
# Coordination Sequence:
#
# PCOD8325757 Si02
#       7
#    12  12  12  12  12  12  12
#     4  11  22  36  54  76 102 137 180 221 263 320
#     4   9  18  29  48  79 103 131 173 212 259 318
#     4  10  16  28  49  76 106 131 162 209 264 315
#     4  10  22  37  53  77 108 140 177 222 275 330
#     4  10  18  34  56  78 107 137 169 222 282 326
#     4   9  19  33  53  80 103 133 179 224 268 322
#     4   9  19  37  56  74 105 143 182 228 271 317
#
# _framework density 17.992554999999999
#
# number of rings (size 3 to 8) (size 9 to 14) (size 15 to 20)
#    0.000    2.286    0.000    4.714    0.000    3.429 
#    0.000   12.857    0.000    0.000    0.000    5.000 
#    0.000    0.000    0.000    0.000    0.000    0.000 
#
# Total GULP energy -1040711.747609 kJ/mol
# GULP energy per Si atom -12389.425567 kJ/mol
# Density = 1.795160 g / cm^3
# Si number density = 17.992555 Si / 1000 Ang^3
#
#
#
# Elastic Constant Matrix: (Units=GPa)
#
#
# Indices 1 2 3 4 5 6 
#
# 1 90.5604 37.2636 50.5234 0.0000 0.0000 0.0000
# 2 37.2636 90.5604 50.5234 0.0000 0.0000 0.0000
# 3 50.5234 50.5234 143.8084 0.0000 0.0000 0.0000
# 4 0.0000 0.0000 0.0000 13.9905 0.0000 0.0000
# 5 0.0000 0.0000 0.0000 0.0000 13.9905 0.0000
# 6 0.0000 0.0000 0.0000 0.0000 0.0000 26.6484
#
#
#
# Elastic Compliance Matrix: (Units=1/GPa)
#
#
# Indices 1 2 3 4 5 6 
#
# 1 0.014797 -0.003966 -0.003805 0.000000 0.000000 0.000000
# 2 -0.003966 0.014797 -0.003805 0.000000 0.000000 0.000000
# 3 -0.003805 -0.003805 0.009628 0.000000 0.000000 0.000000
# 4 0.000000 0.000000 0.000000 0.071477 0.000000 0.000000
# 5 0.000000 0.000000 0.000000 0.000000 0.071477 0.000000
# 6 0.000000 0.000000 0.000000 0.000000 0.000000 0.037526
#
#
# Mechanical properties :
#
#
# Convention : Reuss Voigt Hill
#
# Bulk Modulus (GPa) = 62.23159 66.83889 64.53524
# Shear Modulus (GPa) = 20.14420 23.36715 21.75567
#
# Velocity S-wave (km/s) = 3.34965 3.60767 3.48105
# Velocity P-wave (km/s) = 7.04434 7.38800 7.21821
#
# Compressibility (1/GPa) = 0.01606901
#
# Stress axis : x y z
#
# Youngs Moduli (GPa) = 67.58058 67.58058 103.86889
#
# Poissons Ratio (x) = 0.26800 0.39526
# Poissons Ratio (y) = 0.26800 0.39526
# Poissons Ratio (z) = 0.25717 0.25717
#
# Static dielectric constant tensor:
#      x y z
#    x 3.387090 0.000000 0.000000 
#    y 0.000000 3.387090 0.000000 
#    z 0.000000 0.000000 -1.164570 
# 
# 
# High freq. dielectric constant tensor:
#      x y z
#    x 1.690550 0.000000 0.000000 
#    y 0.000000 1.690550 0.000000 
#    z 0.000000 0.000000 1.687820 
# 
# From -- ./inp_files/4796.got.cif
#   From: 2010.03.12/outbox.cif.g09.slc.cpg/sg178_3_cif.got.tgz:4796.got - 2010.04.02 07:02:38.
