data_PCOD8325162
_publ_section_title
;
Structure prediction by ZEFSAII (Michael W. Deem and Ramdas Pophale) SiO2 
 PCOD8325162
Probable space group: P 6/M
;
_chemical_formula_sum "Si O2"
_cell_formula_units_Z 72
_cell_length_a 23.586866
_cell_length_b 23.586866
_cell_length_c 9.399169
_cell_angle_alpha 90.000000
_cell_angle_beta 90.000000
_cell_angle_gamma 120.000000
_cell_volume 4528.564624
_symmetry_space_group_name_H-M "P 6/M"
_symmetry_group_IT_number 175
_symmetry_cell_setting 'hexagonal'
loop_
_space_group_symop_operation_xyz
x,y,z
x-y,x,z
-y,x-y,z
-x,-y,z
-x+y,-x,z
y,-x+y,z
-x,-y,-z
-x+y,-x,-z
y,-x+y,-z
x,y,-z
x-y,x,-z
-y,x-y,-z
loop_
_atom_site_type_symbol
_atom_site_label
_atom_site_fract_x
_atom_site_fract_y
_atom_site_fract_z
Si Si1 0.369178 0.851680 0.835179
Si Si2 0.939794 0.305980 0.333394
Si Si3 0.736324 0.254715 0.343283
Si Si4 0.708114 0.071916 0.165060
Si Si5 0.363300 0.185584 0.656733
Si Si6 0.516696 0.136049 0.333775
O O1 0.322035 0.779519 0.770012
O O2 0.339397 0.898669 0.808811
O O3 0.439232 0.885098 0.757226
O O4 0.378539 0.842790 0.000000
O O5 0.957412 0.315193 0.500000
O O6 0.888608 0.229894 0.298120
O O7 0.910406 0.352051 0.287799
O O8 0.002981 0.324813 0.241415
O O9 0.706591 0.253177 0.500000
O O10 0.776063 0.216923 0.352590
O O11 0.787879 0.328948 0.297960
O O12 0.780250 0.119420 0.229529
O O13 0.717067 0.063079 0.000000
O O14 0.334997 0.186545 0.500000
O O15 0.525630 0.127287 0.500000
#
# Coordination Sequence:
#
# PCOD8325162 Si02
#       6
#    12  12  12  12  12  12
#     4  10  20  31  43  62  88 115 144 183 232 283
#     4   9  18  32  50  70  89 115 153 190 224 265
#     4   8  15  30  48  61  75 102 142 183 225 273
#     4  10  20  31  45  68  95 122 149 178 222 277
#     4   8  15  30  50  67  85 111 145 184 218 254
#     4   9  18  32  48  64  82 109 148 192 235 276
#
# _framework density 15.899077999999999
#
# number of rings (size 3 to 8) (size 9 to 14) (size 15 to 20)
#    0.000    3.000    0.000    3.000    0.000    4.667 
#    1.000    6.667    0.000    0.000    0.000    0.000 
#    0.000    0.000    0.000    0.500    0.000    9.667 
#
# Total GULP energy -892537.036043 kJ/mol
# GULP energy per Si atom -12396.347723 kJ/mol
# Density = 1.586289 g / cm^3
# Si number density = 15.899078 Si / 1000 Ang^3
#
#
#
# Elastic Constant Matrix: (Units=GPa)
#
#
# Indices 1 2 3 4 5 6 
#
# 1 70.4883 43.5588 57.1911 0.0000 0.0000 0.0000
# 2 43.5588 70.4883 57.1911 0.0000 0.0000 0.0000
# 3 57.1911 57.1911 102.6189 0.0000 0.0000 0.0000
# 4 0.0000 0.0000 0.0000 20.9393 0.0000 0.0000
# 5 0.0000 0.0000 0.0000 0.0000 20.9393 0.0000
# 6 0.0000 0.0000 0.0000 0.0000 0.0000 13.4648
#
#
#
# Elastic Compliance Matrix: (Units=1/GPa)
#
#
# Indices 1 2 3 4 5 6 
#
# 1 0.028507 -0.008627 -0.011080 0.000000 0.000000 0.000000
# 2 -0.008627 0.028507 -0.011080 0.000000 0.000000 0.000000
# 3 -0.011080 -0.011080 0.022095 0.000000 0.000000 0.000000
# 4 0.000000 0.000000 0.000000 0.047757 0.000000 0.000000
# 5 0.000000 0.000000 0.000000 0.000000 0.047757 0.000000
# 6 0.000000 0.000000 0.000000 0.000000 0.000000 0.074268
#
#
# Mechanical properties :
#
#
# Convention : Reuss Voigt Hill
#
# Bulk Modulus (GPa) = 57.02296 62.16417 59.59356
# Shear Modulus (GPa) = 15.80731 16.77898 16.29314
#
# Velocity S-wave (km/s) = 3.15656 3.25213 3.20470
# Velocity P-wave (km/s) = 7.01631 7.29972 7.15942
#
# Compressibility (1/GPa) = 0.01753680
#
# Stress axis : x y z
#
# Youngs Moduli (GPa) = 35.07873 35.07873 45.25982
#
# Poissons Ratio (x) = 0.30261 0.50147
# Poissons Ratio (y) = 0.30261 0.50147
# Poissons Ratio (z) = 0.38866 0.38866
#
# Static dielectric constant tensor:
#      x y z
#    x 2.893430 0.000000 0.000000 
#    y 0.000000 2.893430 0.000000 
#    z 0.000000 0.000000 3.085900 
# 
# 
# High freq. dielectric constant tensor:
#      x y z
#    x 1.585020 0.000000 0.000000 
#    y 0.000000 1.585020 0.000000 
#    z 0.000000 0.000000 1.614030 
# 
# From -- ./inp_files/1148.got.cif
#   From: 2010.03.12/outbox.cif.g09.slc.cpg/sg175_1_cif.got.tgz:1148.got - 2010.04.02 06:55:29.
