data_PCOD8325748
_publ_section_title
;
Structure prediction by ZEFSAII (Michael W. Deem and Ramdas Pophale) SiO2 
 PCOD8325748
Probable space group: P 6 2 2
;
_chemical_formula_sum "Si O2"
_cell_formula_units_Z 60
_cell_length_a 14.246377
_cell_length_b 14.246377
_cell_length_c 13.277078
_cell_angle_alpha 90.000000
_cell_angle_beta 90.000000
_cell_angle_gamma 120.000000
_cell_volume 2333.683760
_symmetry_space_group_name_H-M "P 6 2 2"
_symmetry_group_IT_number 177
_symmetry_cell_setting 'hexagonal'
loop_
_space_group_symop_operation_xyz
x,y,z
x-y,x,z
-y,x-y,z
-x,-y,z
-x+y,-x,z
y,-x+y,z
x-y,-y,-z
-x,-x+y,-z
y,x,-z
-y,-x,-z
-x+y,y,-z
x,x-y,-z
loop_
_atom_site_type_symbol
_atom_site_label
_atom_site_fract_x
_atom_site_fract_y
_atom_site_fract_z
Si Si1 0.769325 0.830479 0.825936
Si Si2 0.498169 0.840948 0.433419
Si Si3 0.248570 0.457692 0.116661
Si Si4 0.548308 0.128085 0.772787
Si Si5 0.250749 0.065163 0.406850
O O1 0.850651 0.795951 0.873633
O O2 0.648357 0.743587 0.856484
O O3 0.785405 0.841774 0.706594
O O4 0.453110 0.906220 0.500000
O O5 0.469131 0.734566 0.500000
O O6 0.431522 0.815321 0.328369
O O7 0.625878 0.909624 0.411638
O O8 0.368802 0.555242 0.135537
O O9 0.159007 0.456876 0.195524
O O10 0.229329 0.458657 0.000000
O O11 0.500000 0.000000 0.765086
O O12 0.233144 0.169277 0.447901
#
# Coordination Sequence:
#
# PCOD8325748 Si02
#       5
#    12  12  12  12  12
#     4  12  26  47  73 107 146 197 253 312 370 436
#     4  11  25  41  66 102 149 191 236 297 362 445
#     4  12  28  51  77 108 149 191 250 325 387 450
#     4  12  27  47  78 112 149 199 254 305 383 463
#     4  11  23  39  65  98 141 188 234 291 354 432
#
# _framework density 25.710424
#
# number of rings (size 3 to 8) (size 9 to 14) (size 15 to 20)
#    0.000    0.400    4.000    3.800    5.600    4.000 
#    0.000    0.000    0.000    1.200    0.000    0.000 
#    0.000    0.000    0.000    0.000    0.000    0.000 
#
# Total GULP energy -743802.093237 kJ/mol
# GULP energy per Si atom -12396.701554 kJ/mol
# Density = 2.565191 g / cm^3
# Si number density = 25.710424 Si / 1000 Ang^3
#
#
#
# Elastic Constant Matrix: (Units=GPa)
#
#
# Indices 1 2 3 4 5 6 
#
# 1 92.6755 18.7794 27.1092 0.0000 0.0000 0.0000
# 2 18.7794 92.6755 27.1092 0.0000 0.0000 0.0000
# 3 27.1092 27.1092 133.6349 0.0000 0.0000 0.0000
# 4 0.0000 0.0000 0.0000 29.0814 0.0000 0.0000
# 5 0.0000 0.0000 0.0000 0.0000 29.0814 0.0000
# 6 0.0000 0.0000 0.0000 0.0000 0.0000 36.9481
#
#
#
# Elastic Compliance Matrix: (Units=1/GPa)
#
#
# Indices 1 2 3 4 5 6 
#
# 1 0.011744 -0.001789 -0.002019 0.000000 0.000000 0.000000
# 2 -0.001789 0.011744 -0.002019 0.000000 0.000000 0.000000
# 3 -0.002019 -0.002019 0.008302 0.000000 0.000000 0.000000
# 4 0.000000 0.000000 0.000000 0.034386 0.000000 0.000000
# 5 0.000000 0.000000 0.000000 0.000000 0.034386 0.000000
# 6 0.000000 0.000000 0.000000 0.000000 0.000000 0.027065
#
#
# Mechanical properties :
#
#
# Convention : Reuss Voigt Hill
#
# Bulk Modulus (GPa) = 49.66722 51.66462 50.66592
# Shear Modulus (GPa) = 34.24804 35.42139 34.83471
#
# Velocity S-wave (km/s) = 3.65371 3.71577 3.68487
# Velocity P-wave (km/s) = 6.09585 6.20868 6.15252
#
# Compressibility (1/GPa) = 0.02013400
#
# Stress axis : x y z
#
# Youngs Moduli (GPa) = 85.15315 85.15315 120.44734
#
# Poissons Ratio (x) = 0.15234 0.24323
# Poissons Ratio (y) = 0.15234 0.24323
# Poissons Ratio (z) = 0.17196 0.17196
#
# Static dielectric constant tensor:
#      x y z
#    x 4.931870 0.000000 0.000000 
#    y 0.000000 4.931870 0.000000 
#    z 0.000000 0.000000 4.600990 
# 
# 
# High freq. dielectric constant tensor:
#      x y z
#    x 2.042020 0.000000 0.000000 
#    y 0.000000 2.042020 0.000000 
#    z 0.000000 0.000000 2.050000 
# 
# From -- ./inp_files/2417.got.cif
#   From: 2010.03.12/outbox.cif.g09.slc.cpg/sg177_2_cif.got.tgz:2417.got - 2010.04.02 07:00:27.
