data_PCOD8325854
_publ_section_title
;
Structure prediction by ZEFSAII (Michael W. Deem and Ramdas Pophale) SiO2 
 PCOD8325854
Probable space group: P 61 2 2
;
_chemical_formula_sum "Si O2"
_cell_formula_units_Z 42
_cell_length_a 14.850778
_cell_length_b 14.850778
_cell_length_c 10.632326
_cell_angle_alpha 90.000000
_cell_angle_beta 90.000000
_cell_angle_gamma 120.000000
_cell_volume 2030.754049
_symmetry_space_group_name_H-M "P 61 2 2"
_symmetry_group_IT_number 178
_symmetry_cell_setting 'hexagonal'
loop_
_space_group_symop_operation_xyz
x,y,z
x-y,x,1/6+z
-y,x-y,1/3+z
-x,-y,1/2+z
-x+y,-x,2/3+z
y,-x+y,5/6+z
x-y,-y,-z
-x,-x+y,2/3-z
y,x,1/3-z
-y,-x,5/6-z
-x+y,y,1/2-z
x,x-y,1/6-z
loop_
_atom_site_type_symbol
_atom_site_label
_atom_site_fract_x
_atom_site_fract_y
_atom_site_fract_z
Si Si1 0.447048 0.556221 0.282022
Si Si2 0.125217 0.497480 0.475987
Si Si3 0.163534 0.000000 0.500000
Si Si4 0.777863 0.618098 0.107377
O O1 0.414671 0.585330 0.416667
O O2 0.452549 0.451272 0.303029
O O3 0.369632 0.539508 0.165199
O O4 0.557282 0.654516 0.246850
O O5 0.174804 0.587402 0.583334
O O6 0.157182 0.412338 0.511776
O O7 0.187262 0.924661 0.585974
O O8 0.064535 0.935466 0.416667
O O9 0.801030 0.602059 0.250000
#
# Coordination Sequence:
#
# PCOD8325854 Si02
#       4
#    12  12   6  12
#     4  10  22  38  64  97 146 169 222 282 332 417
#     4  10  20  39  65  97 135 179 221 275 335 409
#     4  10  24  42  72  98 122 176 254 304 344 412
#     4  11  22  41  72  96 129 193 233 275 348 417
#
# _framework density 20.681972999999999
#
# number of rings (size 3 to 8) (size 9 to 14) (size 15 to 20)
#    0.000    1.714    2.857    1.714   12.000    1.143 
#    5.143    2.857    0.000    0.000    0.000    0.000 
#    0.000    0.000    0.000    0.000    0.000    0.000 
#
# Total GULP energy -520362.029368 kJ/mol
# GULP energy per Si atom -12389.572128 kJ/mol
# Density = 2.063490 g / cm^3
# Si number density = 20.681973 Si / 1000 Ang^3
#
#
#
# Elastic Constant Matrix: (Units=GPa)
#
#
# Indices 1 2 3 4 5 6 
#
# 1 121.7614 64.6536 49.8609 0.0000 0.0000 0.0000
# 2 64.6536 121.7614 49.8609 0.0000 0.0000 0.0000
# 3 49.8609 49.8609 200.0577 0.0000 0.0000 0.0000
# 4 0.0000 0.0000 0.0000 27.0754 0.0000 0.0000
# 5 0.0000 0.0000 0.0000 0.0000 27.0754 0.0000
# 6 0.0000 0.0000 0.0000 0.0000 0.0000 28.5539
#
#
#
# Elastic Compliance Matrix: (Units=1/GPa)
#
#
# Indices 1 2 3 4 5 6 
#
# 1 0.011850 -0.005661 -0.001543 0.000000 0.000000 0.000000
# 2 -0.005661 0.011850 -0.001543 0.000000 0.000000 0.000000
# 3 -0.001543 -0.001543 0.005768 0.000000 0.000000 0.000000
# 4 0.000000 0.000000 0.000000 0.036934 0.000000 0.000000
# 5 0.000000 0.000000 0.000000 0.000000 0.036934 0.000000
# 6 0.000000 0.000000 0.000000 0.000000 0.000000 0.035021
#
#
# Mechanical properties :
#
#
# Convention : Reuss Voigt Hill
#
# Bulk Modulus (GPa) = 83.49947 85.81460 84.65703
# Shear Modulus (GPa) = 31.28109 35.15460 33.21784
#
# Velocity S-wave (km/s) = 3.89328 4.12730 4.01200
# Velocity P-wave (km/s) = 7.78915 8.01844 7.90463
#
# Compressibility (1/GPa) = 0.01197612
#
# Stress axis : x y z
#
# Youngs Moduli (GPa) = 84.38697 84.38697 173.38480
#
# Poissons Ratio (x) = 0.47768 0.26747
# Poissons Ratio (y) = 0.47768 0.26747
# Poissons Ratio (z) = 0.13018 0.13018
#
# Static dielectric constant tensor:
#      x y z
#    x 3.607440 0.000000 0.000000 
#    y 0.000000 3.607440 0.000000 
#    z 0.000000 0.000000 4.639850 
# 
# 
# High freq. dielectric constant tensor:
#      x y z
#    x 1.792720 0.000000 0.000000 
#    y 0.000000 1.792720 0.000000 
#    z 0.000000 0.000000 1.822920 
# 
# From -- ./inp_files/3924.got.cif
#   From: 2010.03.12/outbox.cif.g09.slc.cpg/sg178_2_cif.got.tgz:3924.got - 2010.04.02 07:02:38.
