data_PCOD8325275
_publ_section_title
;
Structure prediction by ZEFSAII (Michael W. Deem and Ramdas Pophale) SiO2 
 PCOD8325275
Probable space group: P 6/M
;
_chemical_formula_sum "Si O2"
_cell_formula_units_Z 40
_cell_length_a 16.404785
_cell_length_b 16.404785
_cell_length_c 8.868569
_cell_angle_alpha 90.000000
_cell_angle_beta 90.000000
_cell_angle_gamma 120.000000
_cell_volume 2066.927611
_symmetry_space_group_name_H-M "P 6/M"
_symmetry_group_IT_number 175
_symmetry_cell_setting 'hexagonal'
loop_
_space_group_symop_operation_xyz
x,y,z
x-y,x,z
-y,x-y,z
-x,-y,z
-x+y,-x,z
y,-x+y,z
-x,-y,-z
-x+y,-x,-z
y,-x+y,-z
x,y,-z
x-y,x,-z
-y,x-y,-z
loop_
_atom_site_type_symbol
_atom_site_label
_atom_site_fract_x
_atom_site_fract_y
_atom_site_fract_z
Si Si1 0.617450 0.694677 0.326432
Si Si2 0.333333 0.666667 0.677756
Si Si3 0.128882 0.732112 0.673824
Si Si4 0.432831 0.579672 0.822003
O O1 0.585525 0.678004 0.500000
O O2 0.633459 0.795926 0.269839
O O3 0.714328 0.691732 0.305761
O O4 0.537180 0.605645 0.231204
O O5 0.333334 0.666668 0.500000
O O6 0.423202 0.663777 0.743473
O O7 0.148714 0.719150 0.500000
O O8 0.132548 0.651549 0.768627
O O9 0.430085 0.585568 0.000000
#
# Coordination Sequence:
#
# PCOD8325275 Si02
#       4
#    12   4  12  12
#     4  10  21  37  57  79 107 147 189 227 271 327
#     4  12  22  35  55  78 112 155 187 219 262 323
#     4  10  21  37  57  79 107 147 189 227 271 327
#     4  12  23  35  54  83 114 146 182 227 273 317
#
# _framework density 19.352395999999999
#
# number of rings (size 3 to 8) (size 9 to 14) (size 15 to 20)
#    0.000    1.200    3.000    4.500    0.000    4.800 
#    0.000    0.000    0.000    0.600    0.000    4.200 
#    0.000    0.000    0.000    5.400    0.000    6.000 
#
# Total GULP energy -495832.398155 kJ/mol
# GULP energy per Si atom -12395.809954 kJ/mol
# Density = 1.930835 g / cm^3
# Si number density = 19.352396 Si / 1000 Ang^3
#
#
#
# Elastic Constant Matrix: (Units=GPa)
#
#
# Indices 1 2 3 4 5 6 
#
# 1 102.1294 59.5058 37.7555 0.0000 0.0000 0.0000
# 2 59.5058 102.1290 37.7554 0.0000 0.0000 -0.0001
# 3 37.7555 37.7554 107.4570 0.0000 0.0000 -0.0002
# 4 0.0000 0.0000 0.0000 10.1419 0.0000 0.0000
# 5 0.0000 0.0000 0.0000 0.0000 10.1420 0.0000
# 6 0.0000 -0.0001 -0.0002 0.0000 0.0000 21.3116
#
#
#
# Elastic Compliance Matrix: (Units=1/GPa)
#
#
# Indices 1 2 3 4 5 6 
#
# 1 0.015431 -0.008030 -0.002601 0.000000 0.000000 0.000000
# 2 -0.008030 0.015432 -0.002601 0.000000 0.000000 0.000000
# 3 -0.002601 -0.002601 0.011134 0.000000 0.000000 0.000000
# 4 0.000000 0.000000 0.000000 0.098600 0.000000 0.000000
# 5 0.000000 0.000000 0.000000 0.000000 0.098600 0.000000
# 6 0.000000 0.000000 0.000000 0.000000 0.000000 0.046923
#
#
# Mechanical properties :
#
#
# Convention : Reuss Voigt Hill
#
# Bulk Modulus (GPa) = 64.37301 64.63876 64.50588
# Shear Modulus (GPa) = 15.73516 20.09902 17.91709
#
# Velocity S-wave (km/s) = 2.85456 3.22620 3.04605
# Velocity P-wave (km/s) = 6.64834 6.88122 6.76579
#
# Compressibility (1/GPa) = 0.01553446
#
# Stress axis : x y z
#
# Youngs Moduli (GPa) = 64.80262 64.80244 89.81882
#
# Poissons Ratio (x) = 0.52035 0.23359
# Poissons Ratio (y) = 0.52035 0.23358
# Poissons Ratio (z) = 0.16853 0.16853
#
# Static dielectric constant tensor:
#      x y z
#    x 3.735300 0.000000 0.000000 
#    y 0.000000 3.735300 0.000000 
#    z 0.000000 0.000000 3.379520 
# 
# 
# High freq. dielectric constant tensor:
#      x y z
#    x 1.744090 0.000000 0.000000 
#    y 0.000000 1.744090 0.000000 
#    z 0.000000 0.000000 1.744100 
# 
# From -- ./inp_files/429.got.cif
#   From: 2010.03.12/outbox.cif.g09.slc.cpg/sg175_1_cif.got.tgz:429.got - 2010.04.02 06:55:29.
