data_PCOD8325344
_publ_section_title
;
Structure prediction by ZEFSAII (Michael W. Deem and Ramdas Pophale) SiO2 
 PCOD8325344
Probable space group: P 6/M
;
_chemical_formula_sum "Si O2"
_cell_formula_units_Z 66
_cell_length_a 20.339558
_cell_length_b 20.339558
_cell_length_c 8.058808
_cell_angle_alpha 90.000000
_cell_angle_beta 90.000000
_cell_angle_gamma 120.000000
_cell_volume 2887.250483
_symmetry_space_group_name_H-M "P 6/M"
_symmetry_group_IT_number 175
_symmetry_cell_setting 'hexagonal'
loop_
_space_group_symop_operation_xyz
x,y,z
x-y,x,z
-y,x-y,z
-x,-y,z
-x+y,-x,z
y,-x+y,z
-x,-y,-z
-x+y,-x,-z
y,-x+y,-z
x,y,-z
x-y,x,-z
-y,x-y,-z
loop_
_atom_site_type_symbol
_atom_site_label
_atom_site_fract_x
_atom_site_fract_y
_atom_site_fract_z
Si Si1 0.199824 0.341710 0.190648
Si Si2 0.306943 0.869360 0.692208
Si Si3 0.966159 0.364622 0.687962
Si Si4 0.667500 0.416513 0.000000
Si Si5 0.916484 0.088646 0.197183
Si Si6 0.602093 0.442929 0.309285
O O1 0.178989 0.407679 0.210117
O O2 0.275494 0.363897 0.290437
O O3 0.132902 0.260070 0.256025
O O4 0.217678 0.335843 0.000000
O O5 0.285678 0.868661 0.500000
O O6 0.362005 0.834535 0.714205
O O7 0.349348 0.953075 0.779187
O O8 0.991928 0.382783 0.500000
O O9 0.924908 0.412768 0.732743
O O10 0.590956 0.333142 0.000000
O O11 0.665921 0.455581 0.173231
O O12 0.002695 0.131530 0.267558
O O13 0.918147 0.086095 0.000000
O O14 0.633461 0.450977 0.500000
#
# Coordination Sequence:
#
# PCOD8325344 Si02
#       6
#    12  12  12   6  12  12
#     4  11  23  35  56  88 127 155 196 250 307 368
#     4  10  22  41  63  87 117 158 205 253 306 365
#     4  10  22  41  63  87 117 158 205 253 306 365
#     4  10  26  42  61  92 134 160 204 254 304 372
#     4   9  17  31  51  78 114 156 198 241 292 352
#     4  10  23  42  66  91 122 162 208 258 312 370
#
# _framework density 22.859117000000001
#
# number of rings (size 3 to 8) (size 9 to 14) (size 15 to 20)
#    0.182    1.818    0.000    2.364    5.091    5.818 
#    0.000    0.909    0.000    0.000    0.000    0.000 
#    0.000    8.727    0.000    0.000    0.000    0.000 
#
# Total GULP energy -817963.205102 kJ/mol
# GULP energy per Si atom -12393.381895 kJ/mol
# Density = 2.280709 g / cm^3
# Si number density = 22.859117 Si / 1000 Ang^3
#
#
#
# Elastic Constant Matrix: (Units=GPa)
#
#
# Indices 1 2 3 4 5 6 
#
# 1 62.6079 -21.6085 3.1000 0.0000 0.0000 0.0000
# 2 -21.6085 62.6079 3.1000 0.0000 0.0000 0.0000
# 3 3.1000 3.1000 50.0702 0.0000 0.0000 0.0000
# 4 0.0000 0.0000 0.0000 12.0743 0.0000 0.0000
# 5 0.0000 0.0000 0.0000 0.0000 12.0743 0.0000
# 6 0.0000 0.0000 0.0000 0.0000 0.0000 42.1082
#
#
#
# Elastic Compliance Matrix: (Units=1/GPa)
#
#
# Indices 1 2 3 4 5 6 
#
# 1 0.018248 0.006373 -0.001524 0.000000 0.000000 0.000000
# 2 0.006373 0.018248 -0.001524 0.000000 0.000000 0.000000
# 3 -0.001524 -0.001524 0.020161 0.000000 0.000000 0.000000
# 4 0.000000 0.000000 0.000000 0.082820 0.000000 0.000000
# 5 0.000000 0.000000 0.000000 0.000000 0.082820 0.000000
# 6 0.000000 0.000000 0.000000 0.000000 0.000000 0.023748
#
#
# Mechanical properties :
#
#
# Convention : Reuss Voigt Hill
#
# Bulk Modulus (GPa) = 15.79644 16.05213 15.92429
# Shear Modulus (GPa) = 19.19403 25.96432 22.57918
#
# Velocity S-wave (km/s) = 2.90084 3.37388 3.14626
# Velocity P-wave (km/s) = 4.25972 4.71327 4.49222
#
# Compressibility (1/GPa) = 0.06330539
#
# Stress axis : x y z
#
# Youngs Moduli (GPa) = 54.80159 54.80159 49.60140
#
# Poissons Ratio (x) = -0.34928 0.07561
# Poissons Ratio (y) = -0.34928 0.07561
# Poissons Ratio (z) = 0.08354 0.08354
#
# Static dielectric constant tensor:
#      x y z
#    x 4.099320 0.000000 0.000000 
#    y 0.000000 4.099320 0.000000 
#    z 0.000000 0.000000 3.798830 
# 
# 
# High freq. dielectric constant tensor:
#      x y z
#    x 1.908120 0.000000 0.000000 
#    y 0.000000 1.908120 0.000000 
#    z 0.000000 0.000000 1.874220 
# 
# From -- ./inp_files/982.got.cif
#   From: 2010.03.12/outbox.cif.g09.slc.cpg/sg175_1_cif.got.tgz:982.got - 2010.04.02 06:55:29.
