data_PCOD8325341
_publ_section_title
;
Structure prediction by ZEFSAII (Michael W. Deem and Ramdas Pophale) SiO2 
 PCOD8325341
Probable space group: P 6/M
;
_chemical_formula_sum "Si O2"
_cell_formula_units_Z 60
_cell_length_a 14.251888
_cell_length_b 14.251888
_cell_length_c 15.350992
_cell_angle_alpha 90.000000
_cell_angle_beta 90.000000
_cell_angle_gamma 120.000000
_cell_volume 2700.299143
_symmetry_space_group_name_H-M "P 6/M"
_symmetry_group_IT_number 175
_symmetry_cell_setting 'hexagonal'
loop_
_space_group_symop_operation_xyz
x,y,z
x-y,x,z
-y,x-y,z
-x,-y,z
-x+y,-x,z
y,-x+y,z
-x,-y,-z
-x+y,-x,-z
y,-x+y,-z
x,y,-z
x-y,x,-z
-y,x-y,-z
loop_
_atom_site_type_symbol
_atom_site_label
_atom_site_fract_x
_atom_site_fract_y
_atom_site_fract_z
Si Si1 0.320472 0.541201 0.250000
Si Si2 0.560724 0.936397 0.401519
Si Si3 0.217992 0.209241 0.146674
Si Si4 0.790759 0.008751 0.353326
Si Si5 0.063603 0.624327 0.098481
O O1 0.434628 0.655505 0.250000
O O2 0.309139 0.473291 0.336622
O O3 0.309139 0.473291 0.163378
O O4 0.526380 0.893198 0.500000
O O5 0.690082 0.014386 0.395271
O O6 0.500000 0.000000 0.370996
O O7 0.210910 0.099306 0.113373
O O8 0.226889 0.217557 0.250000
O O9 0.324304 0.309918 0.104729
O O10 0.789090 0.900694 0.386627
O O11 0.000000 0.500000 0.129004
O O12 0.106802 0.633181 0.000000
#
# Coordination Sequence:
#
# PCOD8325341 Si02
#       5
#    12  12  12  12  12
#     4  10  25  42  68  92 127 175 220 275 332 387
#     4  11  25  42  66  97 133 173 220 272 334 399
#     4  10  22  40  68  98 134 175 222 275 332 396
#     4  10  22  40  68  98 134 175 222 275 332 396
#     4  11  25  42  66  97 133 173 220 272 334 399
#
# _framework density 22.219761999999999
#
# number of rings (size 3 to 8) (size 9 to 14) (size 15 to 20)
#    0.400    1.200    2.000    1.000    5.600    4.800 
#    0.000    0.000    0.000    2.400    0.000    0.000 
#    0.000    0.000    0.000    0.000    0.000    0.000 
#
# Total GULP energy -744170.654751 kJ/mol
# GULP energy per Si atom -12402.844246 kJ/mol
# Density = 2.216919 g / cm^3
# Si number density = 22.219762 Si / 1000 Ang^3
#
#
#
# Elastic Constant Matrix: (Units=GPa)
#
#
# Indices 1 2 3 4 5 6 
#
# 1 126.1229 40.7430 14.6501 0.0000 0.0000 0.0000
# 2 40.7430 126.1229 14.6501 0.0000 0.0000 0.0000
# 3 14.6501 14.6501 89.7379 0.0000 0.0000 0.0000
# 4 0.0000 0.0000 0.0000 7.5893 0.0000 0.0000
# 5 0.0000 0.0000 0.0000 0.0000 7.5893 0.0000
# 6 0.0000 0.0000 0.0000 0.0000 0.0000 42.6900
#
#
#
# Elastic Compliance Matrix: (Units=1/GPa)
#
#
# Indices 1 2 3 4 5 6 
#
# 1 0.008941 -0.002771 -0.001007 0.000000 0.000000 0.000000
# 2 -0.002771 0.008941 -0.001007 0.000000 0.000000 0.000000
# 3 -0.001007 -0.001007 0.011472 0.000000 0.000000 0.000000
# 4 0.000000 0.000000 0.000000 0.131765 0.000000 0.000000
# 5 0.000000 0.000000 0.000000 0.000000 0.131765 0.000000
# 6 0.000000 0.000000 0.000000 0.000000 0.000000 0.023425
#
#
# Mechanical properties :
#
#
# Convention : Reuss Voigt Hill
#
# Bulk Modulus (GPa) = 50.54869 53.56334 52.05602
# Shear Modulus (GPa) = 15.03871 29.70307 22.37089
#
# Velocity S-wave (km/s) = 2.60439 3.66018 3.17646
# Velocity P-wave (km/s) = 5.64293 6.48236 6.07716
#
# Compressibility (1/GPa) = 0.01978291
#
# Stress axis : x y z
#
# Youngs Moduli (GPa) = 111.84401 111.84401 87.16545
#
# Poissons Ratio (x) = 0.30996 0.08780
# Poissons Ratio (y) = 0.30996 0.08780
# Poissons Ratio (z) = 0.11265 0.11265
#
# Static dielectric constant tensor:
#      x y z
#    x 4.023690 0.000000 0.000000 
#    y 0.000000 4.023690 0.000000 
#    z 0.000000 0.000000 3.777130 
# 
# 
# High freq. dielectric constant tensor:
#      x y z
#    x 1.873570 0.000000 0.000000 
#    y 0.000000 1.873570 0.000000 
#    z 0.000000 0.000000 1.869350 
# 
# From -- ./inp_files/2366.got.cif
#   From: 2010.03.12/outbox.cif.g09.slc.cpg/sg175_2_cif.got.tgz:2366.got - 2010.04.02 06:55:29.
