data_PCOD8325808
_publ_section_title
;
Structure prediction by ZEFSAII (Michael W. Deem and Ramdas Pophale) SiO2 
 PCOD8325808
Probable space group: P 61 2 2
;
_chemical_formula_sum "Si O2"
_cell_formula_units_Z 54
_cell_length_a 10.636170
_cell_length_b 10.636170
_cell_length_c 28.567509
_cell_angle_alpha 90.000000
_cell_angle_beta 90.000000
_cell_angle_gamma 120.000000
_cell_volume 2798.810824
_symmetry_space_group_name_H-M "P 61 2 2"
_symmetry_group_IT_number 178
_symmetry_cell_setting 'hexagonal'
loop_
_space_group_symop_operation_xyz
x,y,z
x-y,x,1/6+z
-y,x-y,1/3+z
-x,-y,1/2+z
-x+y,-x,2/3+z
y,-x+y,5/6+z
x-y,-y,-z
-x,-x+y,2/3-z
y,x,1/3-z
-y,-x,5/6-z
-x+y,y,1/2-z
x,x-y,1/6-z
loop_
_atom_site_type_symbol
_atom_site_label
_atom_site_fract_x
_atom_site_fract_y
_atom_site_fract_z
Si Si1 0.172869 0.172869 0.166667
Si Si2 0.325969 0.773543 0.613653
Si Si3 0.252488 0.304862 0.987976
Si Si4 0.530297 0.225350 0.205539
Si Si5 0.998179 0.361760 0.257016
O O1 0.292176 0.218081 0.123487
O O2 0.019513 0.150026 0.147976
O O3 0.252517 0.626259 0.583334
O O4 0.205253 0.819088 0.626381
O O5 0.368123 0.725319 0.660925
O O6 0.467530 0.898280 0.586631
O O7 0.407333 0.350190 0.965225
O O8 0.270740 0.343755 0.043027
O O9 0.624804 0.249608 0.250000
O O10 0.468544 0.335277 0.208978
#
# Coordination Sequence:
#
# PCOD8325808 Si02
#       5
#     6  12  12  12  12
#     4  10  20  36  58  84 114 148 200 234 286 344
#     4  11  21  34  56  90 119 146 193 237 287 344
#     4  10  20  33  56  85 110 147 189 238 283 333
#     4  10  19  35  56  84 115 150 189 238 281 334
#     4  10  19  35  58  85 115 147 190 239 286 336
#
# _framework density 19.29391
#
# number of rings (size 3 to 8) (size 9 to 14) (size 15 to 20)
#    0.000    1.778    2.222    5.333    0.000    0.000 
#    0.000    0.000    0.000    5.333    0.000   14.000 
#    0.000    0.000    0.000    0.000    0.000    0.000 
#
# Total GULP energy -669182.168493 kJ/mol
# GULP energy per Si atom -12392.262379 kJ/mol
# Density = 1.925000 g / cm^3
# Si number density = 19.293910 Si / 1000 Ang^3
#
#
#
# Elastic Constant Matrix: (Units=GPa)
#
#
# Indices 1 2 3 4 5 6 
#
# 1 94.3083 42.5037 42.4571 0.0000 0.0000 0.0000
# 2 42.5037 94.3083 42.4571 0.0000 0.0000 0.0000
# 3 42.4571 42.4571 89.8999 0.0000 0.0000 0.0000
# 4 0.0000 0.0000 0.0000 -25.9866 0.0000 0.0000
# 5 0.0000 0.0000 0.0000 0.0000 -25.9866 0.0000
# 6 0.0000 0.0000 0.0000 0.0000 0.0000 25.9023
#
#
#
# Elastic Compliance Matrix: (Units=1/GPa)
#
#
# Indices 1 2 3 4 5 6 
#
# 1 0.014822 -0.004482 -0.004883 0.000000 0.000000 0.000000
# 2 -0.004482 0.014822 -0.004883 0.000000 0.000000 0.000000
# 3 -0.004883 -0.004883 0.015736 0.000000 0.000000 0.000000
# 4 0.000000 0.000000 0.000000 -0.038481 0.000000 0.000000
# 5 0.000000 0.000000 0.000000 0.000000 -0.038481 0.000000
# 6 0.000000 0.000000 0.000000 0.000000 0.000000 0.038607
#
#
# Mechanical properties :
#
#
# Convention : Reuss Voigt Hill
#
# Bulk Modulus (GPa) = 59.23133 59.26137 59.24635
# Shear Modulus (GPa) = 121.51357 4.85907 63.18632
#
# Velocity S-wave (km/s) = 7.94462 1.58868 5.72891
# Velocity P-wave (km/s) = 10.72017 5.84354 8.63334
#
# Compressibility (1/GPa) = 0.01688296
#
# Stress axis : x y z
#
# Youngs Moduli (GPa) = 67.46835 67.46835 63.54839
#
# Poissons Ratio (x) = 0.30236 0.31033
# Poissons Ratio (y) = 0.30236 0.31033
# Poissons Ratio (z) = 0.32947 0.32947
#
# Static dielectric constant tensor:
#      x y z
#    x 3.525400 0.000000 0.000000 
#    y 0.000000 3.525400 0.000000 
#    z 0.000000 0.000000 3.638950 
# 
# 
# High freq. dielectric constant tensor:
#      x y z
#    x 1.729160 0.000000 0.000000 
#    y 0.000000 1.729160 0.000000 
#    z 0.000000 0.000000 1.775120 
# 
# From -- ./inp_files/9361.got.cif
#   From: 2010.03.12/outbox.cif.g09.slc.cpg/sg178_5_cif.got.tgz:9361.got - 2010.04.02 07:02:38.
