data_PCOD8325922
_publ_section_title
;
Structure prediction by ZEFSAII (Michael W. Deem and Ramdas Pophale) SiO2 
 PCOD8325922
Probable space group: P 61 2 2
;
_chemical_formula_sum "Si O2"
_cell_formula_units_Z 42
_cell_length_a 10.261326
_cell_length_b 10.261326
_cell_length_c 21.006545
_cell_angle_alpha 90.000000
_cell_angle_beta 90.000000
_cell_angle_gamma 120.000000
_cell_volume 1915.544436
_symmetry_space_group_name_H-M "P 61 2 2"
_symmetry_group_IT_number 178
_symmetry_cell_setting 'hexagonal'
loop_
_space_group_symop_operation_xyz
x,y,z
x-y,x,1/6+z
-y,x-y,1/3+z
-x,-y,1/2+z
-x+y,-x,2/3+z
y,-x+y,5/6+z
x-y,-y,-z
-x,-x+y,2/3-z
y,x,1/3-z
-y,-x,5/6-z
-x+y,y,1/2-z
x,x-y,1/6-z
loop_
_atom_site_type_symbol
_atom_site_label
_atom_site_fract_x
_atom_site_fract_y
_atom_site_fract_z
Si Si1 0.878721 0.274586 0.284013
Si Si2 0.278441 0.721560 0.416667
Si Si3 0.266563 0.065993 0.817299
Si Si4 0.134410 0.829131 0.512506
O O1 0.756354 0.326980 0.287001
O O2 0.839481 0.110973 0.307493
O O3 0.000000 0.388679 0.333334
O O4 0.923377 0.294181 0.209510
O O5 0.157313 0.712843 0.468798
O O6 0.358210 0.136303 0.751908
O O7 0.174425 0.152106 0.831475
O O8 0.267763 0.000000 0.500000
#
# Coordination Sequence:
#
# PCOD8325922 Si02
#       4
#    12   6  12  12
#     4  11  25  45  65 101 141 184 232 287 371 418
#     4  12  26  40  68 102 144 188 218 298 372 428
#     4  10  23  42  71  97 133 182 239 293 342 426
#     4  11  20  41  71 103 128 173 247 299 341 409
#
# _framework density 21.925882000000001
#
# number of rings (size 3 to 8) (size 9 to 14) (size 15 to 20)
#    0.000    1.143    2.857    2.571    0.000   10.286 
#    5.143    0.000    0.000    0.000    0.000    0.000 
#    0.000    0.000    0.000    0.000    0.000    0.000 
#
# Total GULP energy -520336.900458 kJ/mol
# GULP energy per Si atom -12388.973820 kJ/mol
# Density = 2.187598 g / cm^3
# Si number density = 21.925882 Si / 1000 Ang^3
#
#
#
# Elastic Constant Matrix: (Units=GPa)
#
#
# Indices 1 2 3 4 5 6 
#
# 1 82.0467 37.3951 46.8943 0.0000 0.0000 0.0000
# 2 37.3951 82.0467 46.8943 0.0000 0.0000 0.0000
# 3 46.8943 46.8943 162.2840 0.0000 0.0000 0.0000
# 4 0.0000 0.0000 0.0000 22.9360 0.0000 0.0000
# 5 0.0000 0.0000 0.0000 0.0000 22.9360 0.0000
# 6 0.0000 0.0000 0.0000 0.0000 0.0000 22.3258
#
#
#
# Elastic Compliance Matrix: (Units=1/GPa)
#
#
# Indices 1 2 3 4 5 6 
#
# 1 0.016613 -0.005783 -0.003129 0.000000 0.000000 0.000000
# 2 -0.005783 0.016613 -0.003129 0.000000 0.000000 0.000000
# 3 -0.003129 -0.003129 0.007971 0.000000 0.000000 0.000000
# 4 0.000000 0.000000 0.000000 0.043600 0.000000 0.000000
# 5 0.000000 0.000000 0.000000 0.000000 0.043600 0.000000
# 6 0.000000 0.000000 0.000000 0.000000 0.000000 0.044791
#
#
# Mechanical properties :
#
#
# Convention : Reuss Voigt Hill
#
# Bulk Modulus (GPa) = 58.43777 65.41609 61.92693
# Shear Modulus (GPa) = 24.63374 26.65248 25.64311
#
# Velocity S-wave (km/s) = 3.35550 3.49029 3.42356
# Velocity P-wave (km/s) = 6.45932 6.79284 6.62818
#
# Compressibility (1/GPa) = 0.01711222
#
# Stress axis : x y z
#
# Youngs Moduli (GPa) = 60.19543 60.19543 125.46156
#
# Poissons Ratio (x) = 0.34811 0.39261
# Poissons Ratio (y) = 0.34811 0.39261
# Poissons Ratio (z) = 0.18837 0.18837
#
# Static dielectric constant tensor:
#      x y z
#    x 3.728210 0.000000 0.000000 
#    y 0.000000 3.728210 0.000000 
#    z 0.000000 0.000000 4.785710 
# 
# 
# High freq. dielectric constant tensor:
#      x y z
#    x 1.843120 0.000000 0.000000 
#    y 0.000000 1.843120 0.000000 
#    z 0.000000 0.000000 1.891690 
# 
# From -- ./inp_files/7166.got.cif
#   From: 2010.03.12/outbox.cif.g09.slc.cpg/sg178_4_cif.got.tgz:7166.got - 2010.04.02 07:02:38.
