data_PCOD8325886
_publ_section_title
;
Structure prediction by ZEFSAII (Michael W. Deem and Ramdas Pophale) SiO2 
 PCOD8325886
Probable space group: P 61 2 2
;
_chemical_formula_sum "Si O2"
_cell_formula_units_Z 60
_cell_length_a 11.465905
_cell_length_b 11.465905
_cell_length_c 25.607263
_cell_angle_alpha 90.000000
_cell_angle_beta 90.000000
_cell_angle_gamma 120.000000
_cell_volume 2915.482721
_symmetry_space_group_name_H-M "P 61 2 2"
_symmetry_group_IT_number 178
_symmetry_cell_setting 'hexagonal'
loop_
_space_group_symop_operation_xyz
x,y,z
x-y,x,1/6+z
-y,x-y,1/3+z
-x,-y,1/2+z
-x+y,-x,2/3+z
y,-x+y,5/6+z
x-y,-y,-z
-x,-x+y,2/3-z
y,x,1/3-z
-y,-x,5/6-z
-x+y,y,1/2-z
x,x-y,1/6-z
loop_
_atom_site_type_symbol
_atom_site_label
_atom_site_fract_x
_atom_site_fract_y
_atom_site_fract_z
Si Si1 0.627650 0.767679 0.187067
Si Si2 0.962680 0.962680 0.666667
Si Si3 0.974209 0.793509 0.575846
Si Si4 0.147810 0.639539 0.882471
Si Si5 0.522544 0.261272 0.583334
Si Si6 0.138910 0.437080 0.400582
O O1 0.751653 0.751653 0.166667
O O2 0.514952 0.627620 0.212575
O O3 0.568679 0.795099 0.134777
O O4 0.677435 0.887009 0.231223
O O5 0.942743 0.835884 0.632223
O O6 0.088237 0.991780 0.701196
O O7 0.845673 0.643875 0.569518
O O8 0.280574 0.719427 0.916667
O O9 0.175974 0.713915 0.827101
O O10 0.022532 0.643762 0.908858
O O11 0.617348 0.198723 0.593032
#
# Coordination Sequence:
#
# PCOD8325886 Si02
#       6
#    12   6  12  12   6  12
#     4  11  22  44  70  94 133 177 228 272 343 415
#     4  10  24  40  60  98 138 164 214 276 348 394
#     4  11  24  40  65 101 131 172 223 279 340 407
#     4  10  21  43  70  90 126 183 226 264 342 417
#     4  10  22  46  66  92 132 184 216 272 338 404
#     4  10  22  42  64  94 133 172 219 280 336 398
#
# _framework density 20.579782000000002
#
# number of rings (size 3 to 8) (size 9 to 14) (size 15 to 20)
#    0.000    1.600    5.000    1.200    8.400    0.000 
#   16.200    0.000    0.000    0.000    0.000    0.000 
#    0.000    0.000    0.000    0.000    0.000    0.000 
#
# Total GULP energy -743379.839290 kJ/mol
# GULP energy per Si atom -12389.663988 kJ/mol
# Density = 2.053294 g / cm^3
# Si number density = 20.579782 Si / 1000 Ang^3
#
#
#
# Elastic Constant Matrix: (Units=GPa)
#
#
# Indices 1 2 3 4 5 6 
#
# 1 121.7202 37.3916 45.0960 0.0000 0.0000 0.0000
# 2 37.3916 121.7202 45.0960 0.0000 0.0000 0.0000
# 3 45.0960 45.0960 68.3140 0.0000 0.0000 0.0000
# 4 0.0000 0.0000 0.0000 31.6782 0.0000 0.0000
# 5 0.0000 0.0000 0.0000 0.0000 31.6782 0.0000
# 6 0.0000 0.0000 0.0000 0.0000 0.0000 42.1643
#
#
#
# Elastic Compliance Matrix: (Units=1/GPa)
#
#
# Indices 1 2 3 4 5 6 
#
# 1 0.010951 -0.000908 -0.006630 0.000000 0.000000 0.000000
# 2 -0.000908 0.010951 -0.006630 0.000000 0.000000 0.000000
# 3 -0.006630 -0.006630 0.023391 0.000000 0.000000 0.000000
# 4 0.000000 0.000000 0.000000 0.031567 0.000000 0.000000
# 5 0.000000 0.000000 0.000000 0.000000 0.031567 0.000000
# 6 0.000000 0.000000 0.000000 0.000000 0.000000 0.023717
#
#
# Mechanical properties :
#
#
# Convention : Reuss Voigt Hill
#
# Bulk Modulus (GPa) = 58.96767 62.99128 60.97948
# Shear Modulus (GPa) = 30.09685 33.38222 31.73954
#
# Velocity S-wave (km/s) = 3.82834 4.03188 3.93143
# Velocity P-wave (km/s) = 6.94673 7.23530 7.09248
#
# Compressibility (1/GPa) = 0.01695844
#
# Stress axis : x y z
#
# Youngs Moduli (GPa) = 91.31920 91.31920 42.75148
#
# Poissons Ratio (x) = 0.08290 0.28342
# Poissons Ratio (y) = 0.08290 0.28342
# Poissons Ratio (z) = 0.60541 0.60541
#
# Static dielectric constant tensor:
#      x y z
#    x 3.737440 0.000000 0.000000 
#    y 0.000000 3.737440 0.000000 
#    z 0.000000 0.000000 3.677800 
# 
# 
# High freq. dielectric constant tensor:
#      x y z
#    x 1.806460 0.000000 0.000000 
#    y 0.000000 1.806460 0.000000 
#    z 0.000000 0.000000 1.790000 
# 
# From -- ./inp_files/8847.got.cif
#   From: 2010.03.12/outbox.cif.g09.slc.cpg/sg178_5_cif.got.tgz:8847.got - 2010.04.02 07:02:38.
