data_PCOD8325345
_publ_section_title
;
Structure prediction by ZEFSAII (Michael W. Deem and Ramdas Pophale) SiO2 
 PCOD8325345
Probable space group: P 6/M
;
_chemical_formula_sum "Si O2"
_cell_formula_units_Z 76
_cell_length_a 18.114438
_cell_length_b 18.114438
_cell_length_c 13.960866
_cell_angle_alpha 90.000000
_cell_angle_beta 90.000000
_cell_angle_gamma 120.000000
_cell_volume 3967.278782
_symmetry_space_group_name_H-M "P 6/M"
_symmetry_group_IT_number 175
_symmetry_cell_setting 'hexagonal'
loop_
_space_group_symop_operation_xyz
x,y,z
x-y,x,z
-y,x-y,z
-x,-y,z
-x+y,-x,z
y,-x+y,z
-x,-y,-z
-x+y,-x,-z
y,-x+y,-z
x,y,-z
x-y,x,-z
-y,x-y,-z
loop_
_atom_site_type_symbol
_atom_site_label
_atom_site_fract_x
_atom_site_fract_y
_atom_site_fract_z
Si Si1 0.870049 0.478675 0.606996
Si Si2 0.200541 0.499664 0.209104
Si Si3 0.738174 0.633401 0.206004
Si Si4 0.431091 0.405506 0.111101
Si Si5 0.333334 0.666668 0.112553
Si Si6 0.803880 0.931908 0.110897
Si Si7 0.360380 0.413791 0.607462
O O1 0.832258 0.466415 0.500000
O O2 0.799833 0.475359 0.679812
O O3 0.889738 0.403534 0.631841
O O4 0.954973 0.569483 0.615293
O O5 0.245620 0.444737 0.196236
O O6 0.104823 0.443996 0.172446
O O7 0.247578 0.585317 0.148156
O O8 0.663071 0.612493 0.131600
O O9 0.820861 0.721851 0.178082
O O10 0.713449 0.639885 0.315747
O O11 0.500000 0.500000 0.145103
O O12 0.441056 0.391688 0.000000
O O13 0.333334 0.666668 0.000000
O O14 0.844828 0.873531 0.134979
O O15 0.775748 0.922081 0.000000
O O16 0.321347 0.395123 0.500000
#
# Coordination Sequence:
#
# PCOD8325345 Si02
#       7
#    12  12  12  12   4  12  12
#     4   9  18  36  62  87 114 154 201 247 296 347
#     4  12  24  39  60  86 120 158 199 252 300 358
#     4  12  23  35  59  91 122 150 192 249 309 361
#     4  11  23  39  58  79 111 159 207 245 289 352
#     4  12  27  42  55  80 121 171 210 243 295 353
#     4  10  22  41  64  89 118 155 200 253 312 372
#     4   9  18  35  60  86 117 155 194 238 291 352
#
# _framework density 19.156707999999998
#
# number of rings (size 3 to 8) (size 9 to 14) (size 15 to 20)
#    0.000    1.421    1.579    5.842    0.000    6.316 
#    0.000    0.789    0.000    0.000    0.000    0.000 
#    0.000    1.263    0.000    0.000    0.000    0.000 
#
# Total GULP energy -942726.154507 kJ/mol
# GULP energy per Si atom -12404.291507 kJ/mol
# Density = 1.911311 g / cm^3
# Si number density = 19.156708 Si / 1000 Ang^3
#
#
#
# Elastic Constant Matrix: (Units=GPa)
#
#
# Indices 1 2 3 4 5 6 
#
# 1 79.8068 16.5434 40.8647 0.0000 0.0000 -0.0002
# 2 16.5434 79.8085 40.8653 0.0000 0.0000 -0.0005
# 3 40.8647 40.8653 120.4053 0.0000 0.0000 -0.0002
# 4 0.0000 0.0000 0.0000 27.0060 -0.0001 0.0000
# 5 0.0000 0.0000 0.0000 -0.0001 27.0064 0.0000
# 6 -0.0002 -0.0005 -0.0002 0.0000 0.0000 31.6323
#
#
#
# Elastic Compliance Matrix: (Units=1/GPa)
#
#
# Indices 1 2 3 4 5 6 
#
# 1 0.015191 -0.000616 -0.004947 0.000000 0.000000 0.000000
# 2 -0.000616 0.015191 -0.004947 0.000000 0.000000 0.000000
# 3 -0.004947 -0.004947 0.011663 0.000000 0.000000 0.000000
# 4 0.000000 0.000000 0.000000 0.037029 0.000000 0.000000
# 5 0.000000 0.000000 0.000000 0.000000 0.037028 0.000000
# 6 0.000000 0.000000 0.000000 0.000000 0.000000 0.031613
#
#
# Mechanical properties :
#
#
# Convention : Reuss Voigt Hill
#
# Bulk Modulus (GPa) = 47.56016 52.95192 50.25604
# Shear Modulus (GPa) = 28.45085 29.24542 28.84813
#
# Velocity S-wave (km/s) = 3.85796 3.91146 3.88481
# Velocity P-wave (km/s) = 6.68775 6.93548 6.81274
#
# Compressibility (1/GPa) = 0.02102600
#
# Stress axis : x y z
#
# Youngs Moduli (GPa) = 65.82923 65.83049 85.74155
#
# Poissons Ratio (x) = 0.04055 0.42413
# Poissons Ratio (y) = 0.04055 0.42413
# Poissons Ratio (z) = 0.32563 0.32563
#
# Static dielectric constant tensor:
#      x y z
#    x 3.601020 -0.000030 0.000000 
#    y -0.000030 3.601040 0.000000 
#    z 0.000000 0.000000 3.685860 
# 
# 
# High freq. dielectric constant tensor:
#      x y z
#    x 1.739570 0.000000 0.000000 
#    y 0.000000 1.739570 0.000000 
#    z 0.000000 0.000000 1.754190 
# 
# From -- ./inp_files/2530.got.cif
#   From: 2010.03.12/outbox.cif.g09.slc.cpg/sg175_2_cif.got.tgz:2530.got - 2010.04.02 06:55:29.
