data_PCOD8325182
_publ_section_title
;
Structure prediction by ZEFSAII (Michael W. Deem and Ramdas Pophale) SiO2 
 PCOD8325182
Probable space group: P 6/M
;
_chemical_formula_sum "Si O2"
_cell_formula_units_Z 90
_cell_length_a 25.430595
_cell_length_b 25.430595
_cell_length_c 10.080698
_cell_angle_alpha 90.000000
_cell_angle_beta 90.000000
_cell_angle_gamma 120.000000
_cell_volume 5645.914264
_symmetry_space_group_name_H-M "P 6/M"
_symmetry_group_IT_number 175
_symmetry_cell_setting 'hexagonal'
loop_
_space_group_symop_operation_xyz
x,y,z
x-y,x,z
-y,x-y,z
-x,-y,z
-x+y,-x,z
y,-x+y,z
-x,-y,-z
-x+y,-x,-z
y,-x+y,-z
x,y,-z
x-y,x,-z
-y,x-y,-z
loop_
_atom_site_type_symbol
_atom_site_label
_atom_site_fract_x
_atom_site_fract_y
_atom_site_fract_z
Si Si1 0.677830 0.160538 0.353025
Si Si2 0.515815 0.232313 0.259852
Si Si3 0.984567 0.323718 0.153328
Si Si4 0.410782 0.710588 0.000000
Si Si5 0.615339 0.852802 0.155772
Si Si6 0.469398 0.039806 0.846788
Si Si7 0.884616 0.626781 0.155471
Si Si8 0.547976 0.140776 0.650117
O O1 0.680157 0.135475 0.500000
O O2 0.719335 0.233234 0.358528
O O3 0.700756 0.134090 0.238236
O O4 0.609976 0.142641 0.315670
O O5 0.546550 0.266772 0.125851
O O6 0.448016 0.178074 0.231626
O O7 0.555011 0.206908 0.331614
O O8 0.046194 0.324347 0.201633
O O9 0.921963 0.268076 0.214492
O O10 0.993759 0.390846 0.181009
O O11 0.977784 0.309506 0.000000
O O12 0.363274 0.735808 0.000000
O O13 0.649690 0.813693 0.181526
O O14 0.602620 0.854025 0.000000
O O15 0.497600 0.098140 0.754509
O O16 0.500000 0.000000 0.806598
O O17 0.483437 0.060272 0.000000
O O18 0.884120 0.610719 0.000000
O O19 0.527281 0.117616 0.500000
#
# Coordination Sequence:
#
# PCOD8325182 Si02
#       8
#    12  12  12   6  12  12  12  12
#     4  10  22  36  49  64  91 123 152 191 242 291
#     4  11  19  35  50  66  90 117 151 194 240 294
#     4   9  16  29  47  73  98 117 148 191 233 279
#     4  10  22  32  46  76  93 107 149 210 252 284
#     4   9  16  28  49  74  93 118 146 186 234 270
#     4  10  20  33  51  71  92 120 152 193 243 284
#     4   9  18  32  53  73  92 119 155 191 229 278
#     4  11  23  35  49  67  90 123 154 192 242 292
#
# _framework density 15.940731
#
# number of rings (size 3 to 8) (size 9 to 14) (size 15 to 20)
#    0.133    2.000    2.000    2.000    1.867    1.867 
#    0.800    0.667    0.000    0.000    0.000    0.000 
#    0.000    0.000    0.000    0.400    0.000   12.800 
#
# Total GULP energy -1115156.276376 kJ/mol
# GULP energy per Si atom -12390.625293 kJ/mol
# Density = 1.590445 g / cm^3
# Si number density = 15.940731 Si / 1000 Ang^3
#
#
#
# Elastic Constant Matrix: (Units=GPa)
#
#
# Indices 1 2 3 4 5 6 
#
# 1 81.1056 35.6043 17.8597 0.0000 0.0000 0.0000
# 2 35.6043 81.1056 17.8597 0.0000 0.0000 0.0000
# 3 17.8597 17.8597 43.7490 0.0000 0.0000 0.0000
# 4 0.0000 0.0000 0.0000 -1.3183 0.0000 0.0000
# 5 0.0000 0.0000 0.0000 0.0000 -1.3183 0.0000
# 6 0.0000 0.0000 0.0000 0.0000 0.0000 22.7506
#
#
#
# Elastic Compliance Matrix: (Units=1/GPa)
#
#
# Indices 1 2 3 4 5 6 
#
# 1 0.015885 -0.006093 -0.003997 0.000000 0.000000 0.000000
# 2 -0.006093 0.015885 -0.003997 0.000000 0.000000 0.000000
# 3 -0.003997 -0.003997 0.026121 0.000000 0.000000 0.000000
# 4 0.000000 0.000000 0.000000 -0.758570 0.000000 0.000000
# 5 0.000000 0.000000 0.000000 0.000000 -0.758570 0.000000
# 6 0.000000 0.000000 0.000000 0.000000 0.000000 0.043955
#
#
# Mechanical properties :
#
#
# Convention : Reuss Voigt Hill
#
# Bulk Modulus (GPa) = 33.65242 38.73417 36.19330
# Shear Modulus (GPa) = -3.63052 12.99858 4.68403
#
# Velocity S-wave (km/s) = -1.51078 2.85867 1.71604
# Velocity P-wave (km/s) = 4.25600 5.93697 5.16533
#
# Compressibility (1/GPa) = 0.02971554
#
# Stress axis : x y z
#
# Youngs Moduli (GPa) = 62.95439 62.95439 38.28294
#
# Poissons Ratio (x) = 0.38357 0.15303
# Poissons Ratio (y) = 0.38357 0.15303
# Poissons Ratio (z) = 0.25164 0.25164
#
# Static dielectric constant tensor:
#      x y z
#    x 3.189550 0.000000 0.000000 
#    y 0.000000 3.189550 0.000000 
#    z 0.000000 0.000000 2.894820 
# 
# 
# High freq. dielectric constant tensor:
#      x y z
#    x 1.592270 0.000000 0.000000 
#    y 0.000000 1.592270 0.000000 
#    z 0.000000 0.000000 1.601740 
# 
# From -- ./inp_files/1474.got.cif
#   From: 2010.03.12/outbox.cif.g09.slc.cpg/sg175_1_cif.got.tgz:1474.got - 2010.04.02 06:55:29.
