data_PCOD8325451
_publ_section_title
;
Structure prediction by ZEFSAII (Michael W. Deem and Ramdas Pophale) SiO2 
 PCOD8325451
Probable space group: P 63/M
;
_chemical_formula_sum "Si O2"
_cell_formula_units_Z 96
_cell_length_a 27.842714
_cell_length_b 27.842714
_cell_length_c 9.732705
_cell_angle_alpha 90.000000
_cell_angle_beta 90.000000
_cell_angle_gamma 120.000000
_cell_volume 6534.123285
_symmetry_space_group_name_H-M "P 63/M"
_symmetry_group_IT_number 176
_symmetry_cell_setting 'hexagonal'
loop_
_space_group_symop_operation_xyz
x,y,z
x-y,x,1/2+z
-y,x-y,z
-x,-y,1/2+z
-x+y,-x,z
y,-x+y,1/2+z
-x,-y,-z
-x+y,-x,1/2-z
y,-x+y,-z
x,y,1/2-z
x-y,x,-z
-y,x-y,1/2-z
loop_
_atom_site_type_symbol
_atom_site_label
_atom_site_fract_x
_atom_site_fract_y
_atom_site_fract_z
Si Si1 0.671850 0.791200 0.590571
Si Si2 0.543349 0.728911 0.594389
Si Si3 0.297014 0.297014 0.087350
Si Si4 0.728911 0.543349 0.594389
Si Si5 0.328150 0.119350 0.909429
Si Si6 0.404385 0.000000 0.586798
Si Si7 0.398631 0.888365 0.909894
Si Si8 0.601369 0.489734 0.590106
O O1 0.683060 0.808746 0.750000
O O2 0.607230 0.748167 0.562977
O O3 0.704765 0.759772 0.542459
O O4 0.693111 0.846555 0.500000
O O5 0.537150 0.743357 0.750000
O O6 0.521227 0.760614 0.500000
O O7 0.505712 0.664300 0.564887
O O8 0.303274 0.303274 0.250000
O O9 0.240228 0.295235 0.042459
O O10 0.350682 0.350682 0.022771
O O11 0.743357 0.537150 0.750000
O O12 0.748167 0.607230 0.562977
O O13 0.664300 0.505712 0.564887
O O14 0.316940 0.125686 0.750000
O O15 0.400085 1.000000 0.750000
O O16 0.460128 0.053552 0.535596
O O17 0.406576 0.946448 0.535596
O O18 0.414996 0.892166 0.750000
O O19 0.435859 0.871719 1.000000
O O20 0.585004 0.477169 0.750000
#
# Coordination Sequence:
#
# PCOD8325451 Si02
#       8
#    12  12  12  12  12  12  12  12
#     4   9  16  27  44  64  85 113 148 179 207 243
#     4   9  17  29  45  63  82 105 135 172 211 252
#     4   9  14  25  46  64  84 120 155 175 200 251
#     4   9  17  29  45  63  82 105 135 172 211 252
#     4   9  16  27  44  64  85 113 148 179 207 243
#     4   9  15  27  44  62  86 116 146 171 201 251
#     4  10  19  30  45  64  86 112 140 172 212 257
#     4  10  19  30  45  64  86 112 140 172 212 257
#
# _framework density 14.692100999999999
#
# number of rings (size 3 to 8) (size 9 to 14) (size 15 to 20)
#    0.000    2.750    2.500    0.375    0.000    1.000 
#    0.000    0.625    0.000    2.000    0.000    0.000 
#    0.000    0.000    0.000    0.375    0.000    4.500 
#
# Total GULP energy -1190249.859111 kJ/mol
# GULP energy per Si atom -12398.436032 kJ/mol
# Density = 1.465866 g / cm^3
# Si number density = 14.692101 Si / 1000 Ang^3
#
#
#
# Elastic Constant Matrix: (Units=GPa)
#
#
# Indices 1 2 3 4 5 6 
#
# 1 91.1418 55.1945 47.6238 0.0000 0.0000 0.0000
# 2 55.1945 91.1418 47.6238 0.0000 0.0000 0.0000
# 3 47.6238 47.6238 54.5906 0.0000 0.0000 0.0000
# 4 0.0000 0.0000 0.0000 21.6627 0.0000 0.0000
# 5 0.0000 0.0000 0.0000 0.0000 21.6627 0.0000
# 6 0.0000 0.0000 0.0000 0.0000 0.0000 17.9736
#
#
#
# Elastic Compliance Matrix: (Units=1/GPa)
#
#
# Indices 1 2 3 4 5 6 
#
# 1 0.021815 -0.006003 -0.013794 0.000000 0.000000 0.000000
# 2 -0.006003 0.021815 -0.013794 0.000000 0.000000 0.000000
# 3 -0.013794 -0.013794 0.042385 0.000000 0.000000 0.000000
# 4 0.000000 0.000000 0.000000 0.046162 0.000000 0.000000
# 5 0.000000 0.000000 0.000000 0.000000 0.046162 0.000000
# 6 0.000000 0.000000 0.000000 0.000000 0.000000 0.055637
#
#
# Mechanical properties :
#
#
# Convention : Reuss Voigt Hill
#
# Bulk Modulus (GPa) = 53.09768 59.75093 56.42431
# Shear Modulus (GPa) = 16.26347 18.02195 17.14271
#
# Velocity S-wave (km/s) = 3.33070 3.50614 3.41955
# Velocity P-wave (km/s) = 7.14214 7.55961 7.35384
#
# Compressibility (1/GPa) = 0.01883321
#
# Stress axis : x y z
#
# Youngs Moduli (GPa) = 45.83967 45.83967 23.59304
#
# Poissons Ratio (x) = 0.27519 0.32544
# Poissons Ratio (y) = 0.27519 0.32544
# Poissons Ratio (z) = 0.63231 0.63231
#
# Static dielectric constant tensor:
#      x y z
#    x 2.799340 0.000000 0.000000 
#    y 0.000000 2.799340 0.000000 
#    z 0.000000 0.000000 2.677740 
# 
# 
# High freq. dielectric constant tensor:
#      x y z
#    x 1.547230 0.000000 0.000000 
#    y 0.000000 1.547230 0.000000 
#    z 0.000000 0.000000 1.541910 
# 
# From -- ./inp_files/2201.got.cif
#   From: 2010.06.25/outbox.cif.g09.slc.cpg/sg176_2_cif.got.tgz:2201.got - 2010.06.28 12:15:01.
