data_PCOD8325217
_publ_section_title
;
Structure prediction by ZEFSAII (Michael W. Deem and Ramdas Pophale) SiO2 
 PCOD8325217
Probable space group: P 6/M
;
_chemical_formula_sum "Si O2"
_cell_formula_units_Z 74
_cell_length_a 13.408968
_cell_length_b 13.408968
_cell_length_c 25.622886
_cell_angle_alpha 90.000000
_cell_angle_beta 90.000000
_cell_angle_gamma 120.000000
_cell_volume 3989.784003
_symmetry_space_group_name_H-M "P 6/M"
_symmetry_group_IT_number 175
_symmetry_cell_setting 'hexagonal'
loop_
_space_group_symop_operation_xyz
x,y,z
x-y,x,z
-y,x-y,z
-x,-y,z
-x+y,-x,z
y,-x+y,z
-x,-y,-z
-x+y,-x,-z
y,-x+y,-z
x,y,-z
x-y,x,-z
-y,x-y,-z
loop_
_atom_site_type_symbol
_atom_site_label
_atom_site_fract_x
_atom_site_fract_y
_atom_site_fract_z
Si Si1 0.987696 0.224865 0.751387
Si Si2 0.666667 0.333334 0.438661
Si Si3 0.610466 0.625572 0.663595
Si Si4 0.242491 0.026735 0.127666
Si Si5 0.777175 0.579834 0.599960
Si Si6 0.333334 0.666668 0.937972
Si Si7 0.152899 0.882545 0.500000
Si Si8 0.367275 0.459740 0.941019
O O1 0.977658 0.248274 0.811867
O O2 0.101671 0.220771 0.736080
O O3 0.988739 0.329049 0.720073
O O4 0.666667 0.333334 0.500000
O O5 0.769533 0.316522 0.418197
O O6 0.500000 0.500000 0.668269
O O7 0.704319 0.634806 0.622178
O O8 0.572167 0.715634 0.644995
O O9 0.219513 0.129004 0.112713
O O10 0.348236 0.040613 0.094451
O O11 0.852985 0.651318 0.551043
O O12 0.345958 0.559662 0.917438
O O13 0.333334 0.666668 0.000000
O O14 0.016619 0.818164 0.500000
O O15 0.500000 0.500000 0.940868
O O16 0.318066 0.429034 0.000000
#
# Coordination Sequence:
#
# PCOD8325217 Si02
#       8
#    12   4  12  12  12   4   6  12
#     4  10  21  39  63  89 115 150 195 245 296 354
#     4  12  24  39  63  94 119 157 204 237 280 353
#     4  12  24  39  62  87 118 155 194 239 291 345
#     4  10  21  37  58  85 118 153 195 246 300 357
#     4  12  24  39  61  88 119 154 192 238 286 346
#     4   9  18  33  54  82 116 157 204 249 294 352
#     4  12  25  40  60  88 120 151 188 234 294 342
#     4  10  20  35  57  84 117 158 202 248 300 359
#
# _framework density 18.547370000000001
#
# number of rings (size 3 to 8) (size 9 to 14) (size 15 to 20)
#    0.000    1.135    5.676    1.378    0.000    3.892 
#    0.000    2.432    0.000    0.973    0.000    0.000 
#    0.000    0.000    0.000    0.000    0.000    0.000 
#
# Total GULP energy -917866.497400 kJ/mol
# GULP energy per Si atom -12403.601316 kJ/mol
# Density = 1.850516 g / cm^3
# Si number density = 18.547370 Si / 1000 Ang^3
#
#
#
# Elastic Constant Matrix: (Units=GPa)
#
#
# Indices 1 2 3 4 5 6 
#
# 1 102.4297 27.7682 44.4378 0.0000 0.0000 0.0004
# 2 27.7682 102.4287 44.4380 0.0000 0.0000 -0.0001
# 3 44.4378 44.4380 76.9269 0.0000 0.0000 -0.0001
# 4 0.0000 0.0000 0.0000 32.6398 0.0000 0.0000
# 5 0.0000 0.0000 0.0000 0.0000 32.6399 0.0000
# 6 0.0004 -0.0001 -0.0001 0.0000 0.0000 37.3302
#
#
#
# Elastic Compliance Matrix: (Units=1/GPa)
#
#
# Indices 1 2 3 4 5 6 
#
# 1 0.013037 -0.000356 -0.007325 0.000000 0.000000 0.000000
# 2 -0.000356 0.013038 -0.007326 0.000000 0.000000 0.000000
# 3 -0.007325 -0.007326 0.021463 0.000000 0.000000 0.000000
# 4 0.000000 0.000000 0.000000 0.030637 0.000000 0.000000
# 5 0.000000 0.000000 0.000000 0.000000 0.030637 0.000000
# 6 0.000000 0.000000 0.000000 0.000000 0.000000 0.026788
#
#
# Mechanical properties :
#
#
# Convention : Reuss Voigt Hill
#
# Bulk Modulus (GPa) = 57.06726 57.23035 57.14880
# Shear Modulus (GPa) = 29.16201 31.53141 30.34671
#
# Velocity S-wave (km/s) = 3.96952 4.12764 4.04935
# Velocity P-wave (km/s) = 7.20032 7.32392 7.26239
#
# Compressibility (1/GPa) = 0.01752318
#
# Stress axis : x y z
#
# Youngs Moduli (GPa) = 76.70236 76.70107 46.59256
#
# Poissons Ratio (x) = 0.02733 0.34131
# Poissons Ratio (y) = 0.02733 0.34132
# Poissons Ratio (z) = 0.56187 0.56188
#
# Static dielectric constant tensor:
#      x y z
#    x 3.369700 -0.000020 0.000000 
#    y -0.000020 3.369570 0.000000 
#    z 0.000000 0.000000 3.378580 
# 
# 
# High freq. dielectric constant tensor:
#      x y z
#    x 1.730220 0.000000 0.000000 
#    y 0.000000 1.730210 0.000000 
#    z 0.000000 0.000000 1.712710 
# 
# From -- ./inp_files/3397.got.cif
#   From: 2010.03.12/outbox.cif.g09.slc.cpg/sg175_2_cif.got.tgz:3397.got - 2010.04.02 06:55:29.
