data_PCOD8325603
_publ_section_title
;
Structure prediction by ZEFSAII (Michael W. Deem and Ramdas Pophale) SiO2 
 PCOD8325603
Probable space group: P 63/M
;
_chemical_formula_sum "Si O2"
_cell_formula_units_Z 84
_cell_length_a 17.507363
_cell_length_b 17.507363
_cell_length_c 16.826994
_cell_angle_alpha 90.000000
_cell_angle_beta 90.000000
_cell_angle_gamma 120.000000
_cell_volume 4466.616282
_symmetry_space_group_name_H-M "P 63/M"
_symmetry_group_IT_number 176
_symmetry_cell_setting 'hexagonal'
loop_
_space_group_symop_operation_xyz
x,y,z
x-y,x,1/2+z
-y,x-y,z
-x,-y,1/2+z
-x+y,-x,z
y,-x+y,1/2+z
-x,-y,-z
-x+y,-x,1/2-z
y,-x+y,-z
x,y,1/2-z
x-y,x,-z
-y,x-y,1/2-z
loop_
_atom_site_type_symbol
_atom_site_label
_atom_site_fract_x
_atom_site_fract_y
_atom_site_fract_z
Si Si1 0.485042 0.183071 0.583474
Si Si2 0.163698 0.177933 0.024039
Si Si3 0.636003 0.895076 0.556388
Si Si4 0.459538 0.641629 0.161600
Si Si5 0.022812 0.573074 0.837937
Si Si6 0.804958 0.091058 0.340211
Si Si7 0.603028 0.000177 0.339567
O O1 0.445765 0.180489 0.495464
O O2 0.480991 0.258270 0.633252
O O3 0.585181 0.201282 0.595315
O O4 0.415787 0.086329 0.613659
O O5 0.197046 0.172452 0.112235
O O6 0.164407 0.099296 0.972413
O O7 0.234693 0.274614 0.991644
O O8 0.665587 0.854341 0.626101
O O9 0.596140 0.949566 0.596254
O O10 0.418429 0.636476 0.250000
O O11 0.527366 0.608150 0.168750
O O12 0.064836 0.609512 0.750000
O O13 0.046092 0.498830 0.869618
O O14 0.834144 0.089813 0.250000
O O15 0.704892 0.068300 0.346167
O O16 0.570922 0.968456 0.250000
#
# Coordination Sequence:
#
# PCOD8325603 Si02
#       7
#    12  12  12  12  12  12  12
#     4  11  21  34  54  83 117 154 192 240 294 351
#     4  10  22  41  62  87 116 151 189 243 308 364
#     4  11  23  35  58  86 118 152 194 251 294 357
#     4  10  21  35  55  81 116 155 193 237 290 351
#     4   9  20  36  54  79 111 153 192 235 292 346
#     4  10  21  39  61  86 116 153 197 244 297 361
#     4   9  18  35  57  79 109 151 195 236 288 351
#
# _framework density 18.806183000000001
#
# number of rings (size 3 to 8) (size 9 to 14) (size 15 to 20)
#    0.000    2.000    1.429    3.000    4.000    3.429 
#    0.000    3.571    0.000    0.571    0.000    2.000 
#    0.000    0.000    0.000    0.000    0.000    0.000 
#
# Total GULP energy -1040775.262759 kJ/mol
# GULP energy per Si atom -12390.181700 kJ/mol
# Density = 1.876338 g / cm^3
# Si number density = 18.806183 Si / 1000 Ang^3
#
#
#
# Elastic Constant Matrix: (Units=GPa)
#
#
# Indices 1 2 3 4 5 6 
#
# 1 68.5335 42.5742 46.4679 0.0000 0.0000 0.0000
# 2 42.5742 68.5335 46.4679 0.0000 0.0000 0.0000
# 3 46.4679 46.4679 99.0115 0.0000 0.0000 0.0000
# 4 0.0000 0.0000 0.0000 27.5097 0.0000 0.0000
# 5 0.0000 0.0000 0.0000 0.0000 27.5097 0.0000
# 6 0.0000 0.0000 0.0000 0.0000 0.0000 12.9797
#
#
#
# Elastic Compliance Matrix: (Units=1/GPa)
#
#
# Indices 1 2 3 4 5 6 
#
# 1 0.026669 -0.011853 -0.006954 0.000000 0.000000 0.000000
# 2 -0.011853 0.026669 -0.006954 0.000000 0.000000 0.000000
# 3 -0.006954 -0.006954 0.016627 0.000000 0.000000 0.000000
# 4 0.000000 0.000000 0.000000 0.036351 0.000000 0.000000
# 5 0.000000 0.000000 0.000000 0.000000 0.036351 0.000000
# 6 0.000000 0.000000 0.000000 0.000000 0.000000 0.077044
#
#
# Mechanical properties :
#
#
# Convention : Reuss Voigt Hill
#
# Bulk Modulus (GPa) = 54.21432 56.34427 55.27930
# Shear Modulus (GPa) = 18.02586 20.30438 19.16512
#
# Velocity S-wave (km/s) = 3.09934 3.28939 3.19578
# Velocity P-wave (km/s) = 6.45743 6.66726 6.56318
#
# Compressibility (1/GPa) = 0.01844531
#
# Stress axis : x y z
#
# Youngs Moduli (GPa) = 37.49633 37.49633 60.14357
#
# Poissons Ratio (x) = 0.44443 0.41822
# Poissons Ratio (y) = 0.44443 0.41822
# Poissons Ratio (z) = 0.26074 0.26074
#
# Static dielectric constant tensor:
#      x y z
#    x 3.538430 0.000000 0.000000 
#    y 0.000000 3.538430 0.000000 
#    z 0.000000 0.000000 3.637930 
# 
# 
# High freq. dielectric constant tensor:
#      x y z
#    x 1.729080 0.000000 0.000000 
#    y 0.000000 1.729080 0.000000 
#    z 0.000000 0.000000 1.725100 
# 
# From -- ./inp_files/2918.got.cif
#   From: 2010.06.25/outbox.cif.g09.slc.cpg/sg176_2_cif.got.tgz:2918.got - 2010.06.28 12:15:01.
