data_PCOD8325018
_publ_section_title
;
Structure prediction by ZEFSAII (Michael W. Deem and Ramdas Pophale) SiO2 
 PCOD8325018
Probable space group: P 6/M
;
_chemical_formula_sum "Si O2"
_cell_formula_units_Z 90
_cell_length_a 25.860086
_cell_length_b 25.860086
_cell_length_c 8.923241
_cell_angle_alpha 90.000000
_cell_angle_beta 90.000000
_cell_angle_gamma 120.000000
_cell_volume 5167.889083
_symmetry_space_group_name_H-M "P 6/M"
_symmetry_group_IT_number 175
_symmetry_cell_setting 'hexagonal'
loop_
_space_group_symop_operation_xyz
x,y,z
x-y,x,z
-y,x-y,z
-x,-y,z
-x+y,-x,z
y,-x+y,z
-x,-y,-z
-x+y,-x,-z
y,-x+y,-z
x,y,-z
x-y,x,-z
-y,x-y,-z
loop_
_atom_site_type_symbol
_atom_site_label
_atom_site_fract_x
_atom_site_fract_y
_atom_site_fract_z
Si Si1 0.667174 0.994582 0.672310
Si Si2 0.519980 0.092908 0.827660
Si Si3 0.795632 0.020969 0.327464
Si Si4 0.871934 0.246715 0.177496
Si Si5 0.034356 0.440797 0.828085
Si Si6 0.591446 0.281974 0.500000
Si Si7 0.182789 0.689028 0.334755
Si Si8 0.742081 0.889706 0.680122
O O1 0.651237 0.975855 0.500000
O O2 0.737829 0.027350 0.698339
O O3 0.647584 0.042100 0.722862
O O4 0.633097 0.935449 0.773858
O O5 0.577302 0.085540 0.790084
O O6 0.522168 0.144569 0.727817
O O7 0.461906 0.030307 0.793030
O O8 0.520728 0.110607 0.000000
O O9 0.810212 0.020363 0.500000
O O10 0.852061 0.079761 0.257471
O O11 0.783629 0.957752 0.259639
O O12 0.820934 0.261764 0.230672
O O13 0.861590 0.185929 0.253472
O O14 0.869179 0.239371 0.000000
O O15 0.039464 0.426139 0.000000
O O16 0.646274 0.266994 0.500000
O O17 0.549279 0.251159 0.352944
O O18 0.157447 0.690730 0.500000
O O19 0.735924 0.887726 0.500000
#
# Coordination Sequence:
#
# PCOD8325018 Si02
#       8
#    12  12  12  12  12   6  12  12
#     4  10  18  29  47  73 107 142 180 209 252 305
#     4   9  17  29  45  72 106 138 169 203 257 313
#     4   8  16  30  51  75 101 142 177 225 259 306
#     4  11  20  31  49  79 109 134 167 212 261 320
#     4   9  17  28  43  66 107 148 170 203 253 311
#     4   8  20  42  60  75  92 124 166 222 274 321
#     4  10  19  31  58  79  93 122 172 216 259 311
#     4   9  17  33  54  76 108 141 188 218 261 307
#
# _framework density 17.415234000000002
#
# number of rings (size 3 to 8) (size 9 to 14) (size 15 to 20)
#    0.533    2.133    1.333    3.600    0.000    0.533 
#    0.000    6.000    0.000    5.067    0.000    1.867 
#    0.000    0.000    0.000    4.800    0.000    5.333 
#
# Total GULP energy -1115140.983024 kJ/mol
# GULP energy per Si atom -12390.455367 kJ/mol
# Density = 1.737560 g / cm^3
# Si number density = 17.415234 Si / 1000 Ang^3
#
#
#
# Elastic Constant Matrix: (Units=GPa)
#
#
# Indices 1 2 3 4 5 6 
#
# 1 98.7434 51.3078 30.6387 0.0000 0.0000 0.0000
# 2 51.3078 98.7434 30.6387 0.0000 0.0000 0.0000
# 3 30.6387 30.6387 63.8715 0.0000 0.0000 0.0000
# 4 0.0000 0.0000 0.0000 12.1297 0.0000 0.0000
# 5 0.0000 0.0000 0.0000 0.0000 12.1297 0.0000
# 6 0.0000 0.0000 0.0000 0.0000 0.0000 23.7178
#
#
#
# Elastic Compliance Matrix: (Units=1/GPa)
#
#
# Indices 1 2 3 4 5 6 
#
# 1 0.014685 -0.006397 -0.003976 0.000000 0.000000 0.000000
# 2 -0.006397 0.014685 -0.003976 0.000000 0.000000 0.000000
# 3 -0.003976 -0.003976 0.019471 0.000000 0.000000 0.000000
# 4 0.000000 0.000000 0.000000 0.082442 0.000000 0.000000
# 5 0.000000 0.000000 0.000000 0.000000 0.082442 0.000000
# 6 0.000000 0.000000 0.000000 0.000000 0.000000 0.042162
#
#
# Mechanical properties :
#
#
# Convention : Reuss Voigt Hill
#
# Bulk Modulus (GPa) = 49.64292 54.05875 51.85084
# Shear Modulus (GPa) = 17.16462 19.51368 18.33915
#
# Velocity S-wave (km/s) = 3.14285 3.35101 3.24860
# Velocity P-wave (km/s) = 6.46044 6.78829 6.62639
#
# Compressibility (1/GPa) = 0.02014386
#
# Stress axis : x y z
#
# Youngs Moduli (GPa) = 68.09869 68.09869 51.35940
#
# Poissons Ratio (x) = 0.43560 0.20419
# Poissons Ratio (y) = 0.43560 0.20419
# Poissons Ratio (z) = 0.27074 0.27074
#
# Static dielectric constant tensor:
#      x y z
#    x 4.074950 0.000000 0.000000 
#    y 0.000000 4.074950 0.000000 
#    z 0.000000 0.000000 3.045570 
# 
# 
# High freq. dielectric constant tensor:
#      x y z
#    x 1.655580 0.000000 0.000000 
#    y 0.000000 1.655580 0.000000 
#    z 0.000000 0.000000 1.655510 
# 
# From -- ./inp_files/1461.got.cif
#   From: 2010.03.12/outbox.cif.g09.slc.cpg/sg175_1_cif.got.tgz:1461.got - 2010.04.02 06:55:29.
