data_PCOD8325059
_publ_section_title
;
Structure prediction by ZEFSAII (Michael W. Deem and Ramdas Pophale) SiO2 
 PCOD8325059
Probable space group: P 6/M
;
_chemical_formula_sum "Si O2"
_cell_formula_units_Z 66
_cell_length_a 16.834263
_cell_length_b 16.834263
_cell_length_c 18.459765
_cell_angle_alpha 90.000000
_cell_angle_beta 90.000000
_cell_angle_gamma 120.000000
_cell_volume 4530.488323
_symmetry_space_group_name_H-M "P 6/M"
_symmetry_group_IT_number 175
_symmetry_cell_setting 'hexagonal'
loop_
_space_group_symop_operation_xyz
x,y,z
x-y,x,z
-y,x-y,z
-x,-y,z
-x+y,-x,z
y,-x+y,z
-x,-y,-z
-x+y,-x,-z
y,-x+y,-z
x,y,-z
x-y,x,-z
-y,x-y,-z
loop_
_atom_site_type_symbol
_atom_site_label
_atom_site_fract_x
_atom_site_fract_y
_atom_site_fract_z
Si Si1 0.476904 0.162643 0.584069
Si Si2 0.183225 0.990150 0.233836
Si Si3 0.142635 0.495986 0.584275
Si Si4 0.196438 0.177313 0.500000
Si Si5 0.990227 0.809720 0.923573
Si Si6 0.300236 0.997841 0.366276
O O1 0.454623 0.137331 0.500000
O O2 0.555109 0.141245 0.610640
O O3 0.512691 0.268875 0.598390
O O4 0.382633 0.102245 0.627224
O O5 0.224938 0.987839 0.153803
O O6 0.252904 0.985387 0.289399
O O7 0.081851 0.904194 0.245771
O O8 0.115894 0.476158 0.500000
O O9 0.068414 0.411501 0.630819
O O10 0.101331 0.175551 0.500000
O O11 0.254867 0.225767 0.429089
O O12 0.907409 0.828386 0.924108
O O13 0.987514 0.756862 0.000000
#
# Coordination Sequence:
#
# PCOD8325059 Si02
#       6
#    12  12  12   6  12  12
#     4  10  19  32  48  65  82 104 136 177 220 259
#     4  10  19  29  41  58  82 113 146 179 211 246
#     4  10  19  32  48  65  82 104 136 177 220 259
#     4  12  23  34  43  54  76 112 152 182 203 230
#     4   8  13  22  37  56  77 102 134 171 210 250
#     4  12  21  31  45  60  84 112 142 174 209 246
#
# _framework density 14.567966999999999
#
# number of rings (size 3 to 8) (size 9 to 14) (size 15 to 20)
#    0.000    1.818    1.818    4.636    0.000    5.091 
#    0.000    1.818    0.000    0.000    0.000    0.000 
#    0.000    2.909    0.000    0.727    0.000    9.091 
#
# Total GULP energy -817931.766924 kJ/mol
# GULP energy per Si atom -12392.905559 kJ/mol
# Density = 1.453481 g / cm^3
# Si number density = 14.567967 Si / 1000 Ang^3
#
#
#
# Elastic Constant Matrix: (Units=GPa)
#
#
# Indices 1 2 3 4 5 6 
#
# 1 52.3177 1.8482 22.2251 0.0000 0.0000 0.0000
# 2 1.8482 52.3177 22.2251 0.0000 0.0000 0.0000
# 3 22.2251 22.2251 105.0365 0.0000 0.0000 0.0000
# 4 0.0000 0.0000 0.0000 10.8258 0.0000 0.0000
# 5 0.0000 0.0000 0.0000 0.0000 10.8258 0.0000
# 6 0.0000 0.0000 0.0000 0.0000 0.0000 25.2348
#
#
#
# Elastic Compliance Matrix: (Units=1/GPa)
#
#
# Indices 1 2 3 4 5 6 
#
# 1 0.021078 0.001264 -0.004727 0.000000 0.000000 0.000000
# 2 0.001264 0.021078 -0.004727 0.000000 0.000000 0.000000
# 3 -0.004727 -0.004727 0.011521 0.000000 0.000000 0.000000
# 4 0.000000 0.000000 0.000000 0.092372 0.000000 0.000000
# 5 0.000000 0.000000 0.000000 0.000000 0.092372 0.000000
# 6 0.000000 0.000000 0.000000 0.000000 0.000000 0.039628
#
#
# Mechanical properties :
#
#
# Convention : Reuss Voigt Hill
#
# Bulk Modulus (GPa) = 26.81377 33.58540 30.19958
# Shear Modulus (GPa) = 16.29402 20.26885 18.28143
#
# Velocity S-wave (km/s) = 3.34800 3.73410 3.54631
# Velocity P-wave (km/s) = 5.77853 6.45722 6.12728
#
# Compressibility (1/GPa) = 0.03729427
#
# Stress axis : x y z
#
# Youngs Moduli (GPa) = 47.44391 47.44391 86.79790
#
# Poissons Ratio (x) = -0.05995 0.41031
# Poissons Ratio (y) = -0.05995 0.41031
# Poissons Ratio (z) = 0.22428 0.22428
#
# Static dielectric constant tensor:
#      x y z
#    x 2.798500 0.000000 0.000000 
#    y 0.000000 2.798500 0.000000 
#    z 0.000000 0.000000 3.160950 
# 
# 
# High freq. dielectric constant tensor:
#      x y z
#    x 1.549530 0.000000 0.000000 
#    y 0.000000 1.549530 0.000000 
#    z 0.000000 0.000000 1.533620 
# 
# From -- ./inp_files/3119.got.cif
#   From: 2010.03.12/outbox.cif.g09.slc.cpg/sg175_2_cif.got.tgz:3119.got - 2010.04.02 06:55:29.
