data_PCOD8325492
_publ_section_title
;
Structure prediction by ZEFSAII (Michael W. Deem and Ramdas Pophale) SiO2 
 PCOD8325492
Probable space group: P 63/M
;
_chemical_formula_sum "Si O2"
_cell_formula_units_Z 78
_cell_length_a 24.236667
_cell_length_b 24.236667
_cell_length_c 8.706539
_cell_angle_alpha 90.000000
_cell_angle_beta 90.000000
_cell_angle_gamma 120.000000
_cell_volume 4429.166161
_symmetry_space_group_name_H-M "P 63/M"
_symmetry_group_IT_number 176
_symmetry_cell_setting 'hexagonal'
loop_
_space_group_symop_operation_xyz
x,y,z
x-y,x,1/2+z
-y,x-y,z
-x,-y,1/2+z
-x+y,-x,z
y,-x+y,1/2+z
-x,-y,-z
-x+y,-x,1/2-z
y,-x+y,-z
x,y,1/2-z
x-y,x,-z
-y,x-y,1/2-z
loop_
_atom_site_type_symbol
_atom_site_label
_atom_site_fract_x
_atom_site_fract_y
_atom_site_fract_z
Si Si1 0.155326 0.661291 0.081687
Si Si2 0.723431 0.811844 0.431888
Si Si3 0.127282 0.766936 0.427314
Si Si4 0.138558 0.095981 0.433252
Si Si5 0.335485 0.597482 0.250000
Si Si6 0.430838 0.463065 0.929379
Si Si7 0.000592 0.672508 0.570472
O O1 0.121468 0.642759 0.250000
O O2 0.168169 0.731826 0.038270
O O3 0.223370 0.663679 0.096092
O O4 0.108139 0.607591 0.963426
O O5 0.737759 0.816001 0.250000
O O6 0.674014 0.834354 0.477212
O O7 0.789793 0.852388 0.519725
O O8 0.685237 0.739264 0.493837
O O9 0.106918 0.760847 0.250000
O O10 0.065731 0.735711 0.532953
O O11 0.133621 0.089284 0.250000
O O12 0.091020 0.119387 0.492120
O O13 0.397261 0.668545 0.250000
O O14 0.439202 0.461091 0.750000
O O15 0.390008 0.390734 0.998328
O O16 0.500000 0.500000 0.000000
O O17 0.992658 0.662388 0.750000
#
# Coordination Sequence:
#
# PCOD8325492 Si02
#       7
#    12  12  12  12   6  12  12
#     4   8  16  32  51  77 103 140 177 216 273 315
#     4  10  20  35  53  81 107 136 174 220 270 325
#     4   9  17  31  51  71 100 135 167 209 262 318
#     4  12  25  41  59  80 107 142 183 230 279 330
#     4   8  16  32  54  88 104 138 186 234 262 330
#     4  10  19  33  52  78 109 144 183 223 272 325
#     4   9  19  34  50  73 103 137 172 212 258 316
#
# _framework density 17.610537000000001
#
# number of rings (size 3 to 8) (size 9 to 14) (size 15 to 20)
#    0.615    1.846    0.000    2.923    0.000    4.308 
#    2.769    0.000    0.000    0.923    0.000    0.000 
#    0.000    0.000    0.000    0.000    0.000    0.000 
#
# Total GULP energy -966428.643015 kJ/mol
# GULP energy per Si atom -12390.110808 kJ/mol
# Density = 1.757046 g / cm^3
# Si number density = 17.610537 Si / 1000 Ang^3
#
#
#
# Elastic Constant Matrix: (Units=GPa)
#
#
# Indices 1 2 3 4 5 6 
#
# 1 136.2437 87.2836 27.5381 0.0000 0.0000 0.0000
# 2 87.2836 136.2437 27.5381 0.0000 0.0000 0.0000
# 3 27.5381 27.5381 42.9317 0.0000 0.0000 0.0000
# 4 0.0000 0.0000 0.0000 22.0806 0.0000 0.0000
# 5 0.0000 0.0000 0.0000 0.0000 22.0806 0.0000
# 6 0.0000 0.0000 0.0000 0.0000 0.0000 24.4801
#
#
#
# Elastic Compliance Matrix: (Units=1/GPa)
#
#
# Indices 1 2 3 4 5 6 
#
# 1 0.012869 -0.007556 -0.003408 0.000000 0.000000 0.000000
# 2 -0.007556 0.012869 -0.003408 0.000000 0.000000 0.000000
# 3 -0.003408 -0.003408 0.027665 0.000000 0.000000 0.000000
# 4 0.000000 0.000000 0.000000 0.045289 0.000000 0.000000
# 5 0.000000 0.000000 0.000000 0.000000 0.045289 0.000000
# 6 0.000000 0.000000 0.000000 0.000000 0.000000 0.040850
#
#
# Mechanical properties :
#
#
# Convention : Reuss Voigt Hill
#
# Bulk Modulus (GPa) = 40.55303 66.68210 53.61757
# Shear Modulus (GPa) = 22.54340 25.26556 23.90448
#
# Velocity S-wave (km/s) = 3.58174 3.79183 3.68828
# Velocity P-wave (km/s) = 6.33900 7.55763 6.97498
#
# Compressibility (1/GPa) = 0.02465907
#
# Stress axis : x y z
#
# Youngs Moduli (GPa) = 77.70518 77.70518 36.14644
#
# Poissons Ratio (x) = 0.58711 0.12320
# Poissons Ratio (y) = 0.58711 0.12320
# Poissons Ratio (z) = 0.26484 0.26484
#
# Static dielectric constant tensor:
#      x y z
#    x 3.413650 0.000000 0.000000 
#    y 0.000000 3.413650 0.000000 
#    z 0.000000 0.000000 3.168070 
# 
# 
# High freq. dielectric constant tensor:
#      x y z
#    x 1.681840 0.000000 0.000000 
#    y 0.000000 1.681840 0.000000 
#    z 0.000000 0.000000 1.665040 
# 
# From -- ./inp_files/1336.got.cif
#   From: 2010.06.25/outbox.cif.g09.slc.cpg/sg176_1_cif.got.tgz:1336.got - 2010.06.28 12:15:01.
