data_PCOD8325260
_publ_section_title
;
Structure prediction by ZEFSAII (Michael W. Deem and Ramdas Pophale) SiO2 
 PCOD8325260
Probable space group: P 6/M
;
_chemical_formula_sum "Si O2"
_cell_formula_units_Z 66
_cell_length_a 20.605103
_cell_length_b 20.605103
_cell_length_c 10.497945
_cell_angle_alpha 90.000000
_cell_angle_beta 90.000000
_cell_angle_gamma 120.000000
_cell_volume 3859.975111
_symmetry_space_group_name_H-M "P 6/M"
_symmetry_group_IT_number 175
_symmetry_cell_setting 'hexagonal'
loop_
_space_group_symop_operation_xyz
x,y,z
x-y,x,z
-y,x-y,z
-x,-y,z
-x+y,-x,z
y,-x+y,z
-x,-y,-z
-x+y,-x,-z
y,-x+y,-z
x,y,-z
x-y,x,-z
-y,x-y,-z
loop_
_atom_site_type_symbol
_atom_site_label
_atom_site_fract_x
_atom_site_fract_y
_atom_site_fract_z
Si Si1 0.079747 0.769717 0.147958
Si Si2 0.572210 0.305577 0.000000
Si Si3 0.705566 0.180782 0.760078
Si Si4 0.563831 0.851984 0.358526
Si Si5 0.462013 0.545571 0.644085
Si Si6 0.688374 0.776111 0.854892
O O1 0.106433 0.727242 0.243422
O O2 0.134545 0.859010 0.166225
O O3 0.996168 0.749010 0.188723
O O4 0.083751 0.747402 0.000000
O O5 0.608284 0.250569 0.000000
O O6 0.518196 0.287310 0.119266
O O7 0.761922 0.238263 0.654805
O O8 0.620490 0.136081 0.719053
O O9 0.729858 0.118693 0.780502
O O10 0.601623 0.873856 0.500000
O O11 0.501813 0.875466 0.347857
O O12 0.500000 0.500000 0.704975
O O13 0.491464 0.567097 0.500000
O O14 0.667141 0.753610 0.000000
#
# Coordination Sequence:
#
# PCOD8325260 Si02
#       6
#    12   6  12  12  12  12
#     4   9  18  33  54  77 105 134 171 211 259 309
#     4  10  22  34  49  72 104 136 178 227 272 310
#     4  11  19  35  53  73 102 137 177 220 268 320
#     4  10  21  35  53  77 102 135 177 217 263 316
#     4  10  21  36  52  72 102 137 173 220 274 323
#     4   9  17  31  52  78 102 135 168 213 255 314
#
# _framework density 17.098555999999999
#
# number of rings (size 3 to 8) (size 9 to 14) (size 15 to 20)
#    0.182    2.000    0.909    2.727    1.273    0.000 
#    2.727    4.091    0.000    0.364    0.000    2.545 
#    0.000    0.000    0.000    6.545    0.000    5.091 
#
# Total GULP energy -817946.094241 kJ/mol
# GULP energy per Si atom -12393.122640 kJ/mol
# Density = 1.705964 g / cm^3
# Si number density = 17.098556 Si / 1000 Ang^3
#
#
#
# Elastic Constant Matrix: (Units=GPa)
#
#
# Indices 1 2 3 4 5 6 
#
# 1 101.5228 54.4344 43.2511 0.0000 0.0000 0.0000
# 2 54.4344 101.5228 43.2511 0.0000 0.0000 0.0000
# 3 43.2511 43.2511 79.3763 0.0000 0.0000 0.0000
# 4 0.0000 0.0000 0.0000 12.7515 0.0000 0.0000
# 5 0.0000 0.0000 0.0000 0.0000 12.7515 0.0000
# 6 0.0000 0.0000 0.0000 0.0000 0.0000 23.5442
#
#
#
# Elastic Compliance Matrix: (Units=1/GPa)
#
#
# Indices 1 2 3 4 5 6 
#
# 1 0.015213 -0.006024 -0.005007 0.000000 0.000000 0.000000
# 2 -0.006024 0.015213 -0.005007 0.000000 0.000000 0.000000
# 3 -0.005007 -0.005007 0.018055 0.000000 0.000000 0.000000
# 4 0.000000 0.000000 0.000000 0.078422 0.000000 0.000000
# 5 0.000000 0.000000 0.000000 0.000000 0.078422 0.000000
# 6 0.000000 0.000000 0.000000 0.000000 0.000000 0.042473
#
#
# Mechanical properties :
#
#
# Convention : Reuss Voigt Hill
#
# Bulk Modulus (GPa) = 60.95735 62.69942 61.82838
# Shear Modulus (GPa) = 17.52280 19.24178 18.38229
#
# Velocity S-wave (km/s) = 3.20474 3.35826 3.28240
# Velocity P-wave (km/s) = 7.03006 7.19626 7.11365
#
# Compressibility (1/GPa) = 0.01640491
#
# Stress axis : x y z
#
# Youngs Moduli (GPa) = 65.73353 65.73353 55.38690
#
# Poissons Ratio (x) = 0.39596 0.27733
# Poissons Ratio (y) = 0.39596 0.27733
# Poissons Ratio (z) = 0.32913 0.32913
#
# Static dielectric constant tensor:
#      x y z
#    x 3.318310 0.000000 0.000000 
#    y 0.000000 3.318310 0.000000 
#    z 0.000000 0.000000 3.298540 
# 
# 
# High freq. dielectric constant tensor:
#      x y z
#    x 1.656100 0.000000 0.000000 
#    y 0.000000 1.656100 0.000000 
#    z 0.000000 0.000000 1.657050 
# 
# From -- ./inp_files/1014.got.cif
#   From: 2010.03.12/outbox.cif.g09.slc.cpg/sg175_1_cif.got.tgz:1014.got - 2010.04.02 06:55:29.
