data_PCOD8325130
_publ_section_title
;
Structure prediction by ZEFSAII (Michael W. Deem and Ramdas Pophale) SiO2 
 PCOD8325130
Probable space group: P 6/M
;
_chemical_formula_sum "Si O2"
_cell_formula_units_Z 60
_cell_length_a 20.957658
_cell_length_b 20.957658
_cell_length_c 7.695112
_cell_angle_alpha 90.000000
_cell_angle_beta 90.000000
_cell_angle_gamma 120.000000
_cell_volume 2927.056294
_symmetry_space_group_name_H-M "P 6/M"
_symmetry_group_IT_number 175
_symmetry_cell_setting 'hexagonal'
loop_
_space_group_symop_operation_xyz
x,y,z
x-y,x,z
-y,x-y,z
-x,-y,z
-x+y,-x,z
y,-x+y,z
-x,-y,-z
-x+y,-x,-z
y,-x+y,-z
x,y,-z
x-y,x,-z
-y,x-y,-z
loop_
_atom_site_type_symbol
_atom_site_label
_atom_site_fract_x
_atom_site_fract_y
_atom_site_fract_z
Si Si1 0.666242 0.576839 0.298423
Si Si2 0.675888 0.846116 0.303225
Si Si3 0.476724 0.821371 0.000000
Si Si4 0.315685 0.926602 0.191396
Si Si5 0.927033 0.090587 0.708094
Si Si6 0.672411 0.189107 0.000000
O O1 0.662413 0.552361 0.500000
O O2 0.749681 0.622518 0.222530
O O3 0.622271 0.622063 0.285426
O O4 0.632848 0.506536 0.171219
O O5 0.685335 0.872486 0.500000
O O6 0.648627 0.759777 0.298127
O O7 0.754863 0.890700 0.211358
O O8 0.492596 0.753678 0.000000
O O9 0.388606 0.786469 0.000000
O O10 0.301385 0.949227 0.000000
O O11 0.338094 0.862771 0.169066
O O12 0.924028 0.088918 0.500000
O O13 0.008644 0.126639 0.781852
#
# Coordination Sequence:
#
# PCOD8325130 Si02
#       6
#    12  12   6  12  12   6
#     4  11  22  38  66  95 130 172 207 261 315 373
#     4  10  19  33  54  85 123 163 214 263 311 371
#     4  12  22  49  67  96 129 161 216 250 317 387
#     4  10  20  37  59  93 123 163 208 257 317 364
#     4   9  16  26  42  69 110 159 211 265 314 362
#     4  10  24  41  73  90 125 173 196 266 313 373
#
# _framework density 20.498408999999999
#
# number of rings (size 3 to 8) (size 9 to 14) (size 15 to 20)
#    0.600    1.200    3.000    2.200    0.000    5.600 
#    0.000    4.000    0.000    0.000    0.000    0.000 
#    0.000    3.200    0.000    0.000    0.000    0.000 
#
# Total GULP energy -743434.119678 kJ/mol
# GULP energy per Si atom -12390.568661 kJ/mol
# Density = 2.045175 g / cm^3
# Si number density = 20.498409 Si / 1000 Ang^3
#
#
#
# Elastic Constant Matrix: (Units=GPa)
#
#
# Indices 1 2 3 4 5 6 
#
# 1 101.5295 22.4750 23.6774 0.0000 0.0000 0.0000
# 2 22.4750 101.5295 23.6774 0.0000 0.0000 0.0000
# 3 23.6774 23.6774 68.9832 0.0000 0.0000 0.0000
# 4 0.0000 0.0000 0.0000 21.3860 0.0000 0.0000
# 5 0.0000 0.0000 0.0000 0.0000 21.3860 0.0000
# 6 0.0000 0.0000 0.0000 0.0000 0.0000 39.5273
#
#
#
# Elastic Compliance Matrix: (Units=1/GPa)
#
#
# Indices 1 2 3 4 5 6 
#
# 1 0.010965 -0.001684 -0.003185 0.000000 0.000000 0.000000
# 2 -0.001684 0.010965 -0.003185 0.000000 0.000000 0.000000
# 3 -0.003185 -0.003185 0.016683 0.000000 0.000000 0.000000
# 4 0.000000 0.000000 0.000000 0.046760 0.000000 0.000000
# 5 0.000000 0.000000 0.000000 0.000000 0.046760 0.000000
# 6 0.000000 0.000000 0.000000 0.000000 0.000000 0.025299
#
#
# Mechanical properties :
#
#
# Convention : Reuss Voigt Hill
#
# Bulk Modulus (GPa) = 44.43937 45.74464 45.09200
# Shear Modulus (GPa) = 27.61780 29.94069 28.77924
#
# Velocity S-wave (km/s) = 3.67456 3.82597 3.75103
# Velocity P-wave (km/s) = 6.30315 6.47163 6.38795
#
# Compressibility (1/GPa) = 0.02250257
#
# Stress axis : x y z
#
# Youngs Moduli (GPa) = 91.19856 91.19856 59.94127
#
# Poissons Ratio (x) = 0.15362 0.19094
# Poissons Ratio (y) = 0.15362 0.19094
# Poissons Ratio (z) = 0.29051 0.29051
#
# Static dielectric constant tensor:
#      x y z
#    x 3.625660 0.000000 0.000000 
#    y 0.000000 3.625660 0.000000 
#    z 0.000000 0.000000 3.339040 
# 
# 
# High freq. dielectric constant tensor:
#      x y z
#    x 1.796860 0.000000 0.000000 
#    y 0.000000 1.796860 0.000000 
#    z 0.000000 0.000000 1.777550 
# 
# From -- ./inp_files/937.got.cif
#   From: 2010.03.12/outbox.cif.g09.slc.cpg/sg175_1_cif.got.tgz:937.got - 2010.04.02 06:55:29.
