data_PCOD8325273
_publ_section_title
;
Structure prediction by ZEFSAII (Michael W. Deem and Ramdas Pophale) SiO2 
 PCOD8325273
Probable space group: P 6/M
;
_chemical_formula_sum "Si O2"
_cell_formula_units_Z 60
_cell_length_a 13.192158
_cell_length_b 13.192158
_cell_length_c 18.056043
_cell_angle_alpha 90.000000
_cell_angle_beta 90.000000
_cell_angle_gamma 120.000000
_cell_volume 2721.353128
_symmetry_space_group_name_H-M "P 6/M"
_symmetry_group_IT_number 175
_symmetry_cell_setting 'hexagonal'
loop_
_space_group_symop_operation_xyz
x,y,z
x-y,x,z
-y,x-y,z
-x,-y,z
-x+y,-x,z
y,-x+y,z
-x,-y,-z
-x+y,-x,-z
y,-x+y,-z
x,y,-z
x-y,x,-z
-y,x-y,-z
loop_
_atom_site_type_symbol
_atom_site_label
_atom_site_fract_x
_atom_site_fract_y
_atom_site_fract_z
Si Si1 0.868729 0.469269 0.582105
Si Si2 0.256856 0.446084 0.332302
Si Si3 0.515054 0.251997 0.167092
Si Si4 0.781064 0.754129 0.583062
Si Si5 0.130033 0.860112 0.087732
O O1 0.813802 0.440743 0.500000
O O2 0.856585 0.576503 0.617294
O O3 0.794143 0.362992 0.638604
O O4 0.000000 0.500000 0.578789
O O5 0.235134 0.451981 0.246274
O O6 0.287602 0.345265 0.353673
O O7 0.605284 0.200843 0.157799
O O8 0.407651 0.196235 0.109739
O O9 0.786325 0.873530 0.596285
O O10 0.733379 0.701833 0.500000
O O11 0.995055 0.794460 0.117459
O O12 0.128314 0.861749 0.000000
#
# Coordination Sequence:
#
# PCOD8325273 Si02
#       5
#    12  12  12  12  12
#     4  11  22  34  53  79 107 148 201 257 314 366
#     4  12  21  39  56  80 116 156 200 255 313 367
#     4  10  23  45  63  95 139 184 223 265 330 398
#     4  10  21  37  56  79 110 151 202 262 326 390
#     4  10  23  45  75 108 139 174 218 273 332 394
#
# _framework density 22.047857
#
# number of rings (size 3 to 8) (size 9 to 14) (size 15 to 20)
#    0.400    1.000    2.000    3.800    0.000    9.600 
#    0.000    2.000    0.000    2.400    0.000    0.000 
#    0.000    0.000    0.000    0.000    0.000    0.000 
#
# Total GULP energy -743304.869489 kJ/mol
# GULP energy per Si atom -12388.414491 kJ/mol
# Density = 2.199767 g / cm^3
# Si number density = 22.047857 Si / 1000 Ang^3
#
#
#
# Elastic Constant Matrix: (Units=GPa)
#
#
# Indices 1 2 3 4 5 6 
#
# 1 90.2361 24.8544 18.8434 0.0000 0.0000 0.0000
# 2 24.8544 90.2361 18.8434 0.0000 0.0000 0.0000
# 3 18.8434 18.8434 54.3914 0.0000 0.0000 0.0000
# 4 0.0000 0.0000 0.0000 18.8025 0.0000 0.0000
# 5 0.0000 0.0000 0.0000 0.0000 18.8025 0.0000
# 6 0.0000 0.0000 0.0000 0.0000 0.0000 32.6908
#
#
#
# Elastic Compliance Matrix: (Units=1/GPa)
#
#
# Indices 1 2 3 4 5 6 
#
# 1 0.012548 -0.002747 -0.003395 0.000000 0.000000 0.000000
# 2 -0.002747 0.012548 -0.003395 0.000000 0.000000 0.000000
# 3 -0.003395 -0.003395 0.020738 0.000000 0.000000 0.000000
# 4 0.000000 0.000000 0.000000 0.053184 0.000000 0.000000
# 5 0.000000 0.000000 0.000000 0.000000 0.053184 0.000000
# 6 0.000000 0.000000 0.000000 0.000000 0.000000 0.030590
#
#
# Mechanical properties :
#
#
# Convention : Reuss Voigt Hill
#
# Bulk Modulus (GPa) = 37.37235 39.99398 38.68317
# Shear Modulus (GPa) = 23.72071 25.54733 24.63402
#
# Velocity S-wave (km/s) = 3.28361 3.40769 3.34623
# Velocity P-wave (km/s) = 5.60031 5.80191 5.70200
#
# Compressibility (1/GPa) = 0.02675775
#
# Stress axis : x y z
#
# Youngs Moduli (GPa) = 79.69574 79.69574 48.22105
#
# Poissons Ratio (x) = 0.21893 0.16373
# Poissons Ratio (y) = 0.21893 0.16373
# Poissons Ratio (z) = 0.27059 0.27059
#
# Static dielectric constant tensor:
#      x y z
#    x 4.474300 0.000000 0.000000 
#    y 0.000000 4.474300 0.000000 
#    z 0.000000 0.000000 3.613890 
# 
# 
# High freq. dielectric constant tensor:
#      x y z
#    x 1.887610 0.000000 0.000000 
#    y 0.000000 1.887610 0.000000 
#    z 0.000000 0.000000 1.830230 
# 
# From -- ./inp_files/2362.got.cif
#   From: 2010.03.12/outbox.cif.g09.slc.cpg/sg175_2_cif.got.tgz:2362.got - 2010.04.02 06:55:29.
