data_PCOD8325480
_publ_section_title
;
Structure prediction by ZEFSAII (Michael W. Deem and Ramdas Pophale) SiO2 
 PCOD8325480
Probable space group: P 63/M
;
_chemical_formula_sum "Si O2"
_cell_formula_units_Z 76
_cell_length_a 17.839492
_cell_length_b 17.839492
_cell_length_c 14.231652
_cell_angle_alpha 90.000000
_cell_angle_beta 90.000000
_cell_angle_gamma 120.000000
_cell_volume 3922.391270
_symmetry_space_group_name_H-M "P 63/M"
_symmetry_group_IT_number 176
_symmetry_cell_setting 'hexagonal'
loop_
_space_group_symop_operation_xyz
x,y,z
x-y,x,1/2+z
-y,x-y,z
-x,-y,1/2+z
-x+y,-x,z
y,-x+y,1/2+z
-x,-y,-z
-x+y,-x,1/2-z
y,-x+y,-z
x,y,1/2-z
x-y,x,-z
-y,x-y,1/2-z
loop_
_atom_site_type_symbol
_atom_site_label
_atom_site_fract_x
_atom_site_fract_y
_atom_site_fract_z
Si Si1 0.333334 0.666668 0.858396
Si Si2 0.456702 0.463694 0.640898
Si Si3 0.865948 0.406551 0.524119
Si Si4 0.706611 0.711731 0.354709
Si Si5 0.850430 0.662366 0.356910
Si Si6 0.765956 0.496618 0.027823
Si Si7 0.148682 0.954965 0.506444
O O1 0.333334 0.666668 0.750000
O O2 0.295451 0.568559 0.891910
O O3 0.458508 0.488095 0.750000
O O4 0.553253 0.490114 0.606738
O O5 0.426534 0.519182 0.579990
O O6 0.392166 0.360916 0.622867
O O7 0.810358 0.302205 0.538692
O O8 0.808082 0.452311 0.533827
O O9 0.714171 0.749409 0.250000
O O10 0.761129 0.662800 0.362071
O O11 0.741163 0.792134 0.424886
O O12 0.873194 0.650516 0.250000
O O13 0.839177 0.584427 0.423534
O O14 0.928101 0.753040 0.396147
O O15 0.049410 0.888513 0.480600
#
# Coordination Sequence:
#
# PCOD8325480 Si02
#       7
#     4  12  12  12  12  12  12
#     4   9  18  27  45  78 109 140 178 222 279 336
#     4  10  20  37  58  82 112 153 195 235 278 331
#     4  10  21  35  57  84 115 150 193 234 281 338
#     4   9  18  34  56  78 105 145 185 225 277 338
#     4  10  19  32  52  77 106 142 183 226 283 339
#     4  10  19  33  52  78 114 147 182 232 285 331
#     4  10  21  36  55  79 107 141 183 235 289 346
#
# _framework density 19.375934999999998
#
# number of rings (size 3 to 8) (size 9 to 14) (size 15 to 20)
#    0.000    2.211    1.579    1.895    0.000    3.789 
#    0.000    0.789    0.000    2.842    0.000    0.000 
#    0.000    0.000    0.000    0.000    0.000    0.000 
#
# Total GULP energy -942264.569821 kJ/mol
# GULP energy per Si atom -12398.218024 kJ/mol
# Density = 1.933183 g / cm^3
# Si number density = 19.375935 Si / 1000 Ang^3
#
#
#
# Elastic Constant Matrix: (Units=GPa)
#
#
# Indices 1 2 3 4 5 6 
#
# 1 53.0765 36.1764 15.9736 0.0000 0.0000 0.0060
# 2 36.1764 53.0753 15.9742 0.0000 0.0000 -0.0078
# 3 15.9736 15.9742 60.2296 0.0000 0.0000 0.0004
# 4 0.0000 0.0000 0.0000 19.6871 0.0000 0.0000
# 5 0.0000 0.0000 0.0000 0.0000 19.6871 0.0000
# 6 0.0060 -0.0078 0.0004 0.0000 0.0000 8.4574
#
#
#
# Elastic Compliance Matrix: (Units=1/GPa)
#
#
# Indices 1 2 3 4 5 6 
#
# 1 0.035776 -0.023397 -0.003283 0.000000 0.000000 -0.000047
# 2 -0.023397 0.035777 -0.003284 0.000000 0.000000 0.000050
# 3 -0.003283 -0.003284 0.018345 0.000000 0.000000 -0.000002
# 4 0.000000 0.000000 0.000000 0.050795 0.000000 0.000000
# 5 0.000000 0.000000 0.000000 0.000000 0.050795 0.000000
# 6 -0.000047 0.000050 -0.000002 0.000000 0.000000 0.118239
#
#
# Mechanical properties :
#
#
# Convention : Reuss Voigt Hill
#
# Bulk Modulus (GPa) = 33.36602 33.62551 33.49577
# Shear Modulus (GPa) = 13.17025 16.11679 14.64352
#
# Velocity S-wave (km/s) = 2.60998 2.88721 2.75209
# Velocity P-wave (km/s) = 5.13229 5.33916 5.23674
#
# Compressibility (1/GPa) = 0.02997061
#
# Stress axis : x y z
#
# Youngs Moduli (GPa) = 27.95179 27.95095 54.51171
#
# Poissons Ratio (x) = 0.65397 0.17895
# Poissons Ratio (y) = 0.65399 0.17900
# Poissons Ratio (z) = 0.09176 0.09178
#
# Static dielectric constant tensor:
#      x y z
#    x 3.660480 0.000020 0.000000 
#    y 0.000020 3.660540 0.000000 
#    z 0.000000 0.000000 3.339200 
# 
# 
# High freq. dielectric constant tensor:
#      x y z
#    x 1.754020 0.000000 0.000000 
#    y 0.000000 1.754020 0.000000 
#    z 0.000000 0.000000 1.730970 
# 
# From -- ./inp_files/2843.got.cif
#   From: 2010.06.25/outbox.cif.g09.slc.cpg/sg176_2_cif.got.tgz:2843.got - 2010.06.28 12:15:01.
