data_PCOD8325020
_publ_section_title
;
Structure prediction by ZEFSAII (Michael W. Deem and Ramdas Pophale) SiO2 
 PCOD8325020
Probable space group: P 6/M
;
_chemical_formula_sum "Si O2"
_cell_formula_units_Z 72
_cell_length_a 23.369525
_cell_length_b 23.369525
_cell_length_c 8.522356
_cell_angle_alpha 90.000000
_cell_angle_beta 90.000000
_cell_angle_gamma 120.000000
_cell_volume 4030.789085
_symmetry_space_group_name_H-M "P 6/M"
_symmetry_group_IT_number 175
_symmetry_cell_setting 'hexagonal'
loop_
_space_group_symop_operation_xyz
x,y,z
x-y,x,z
-y,x-y,z
-x,-y,z
-x+y,-x,z
y,-x+y,z
-x,-y,-z
-x+y,-x,-z
y,-x+y,-z
x,y,-z
x-y,x,-z
-y,x-y,-z
loop_
_atom_site_type_symbol
_atom_site_label
_atom_site_fract_x
_atom_site_fract_y
_atom_site_fract_z
Si Si1 0.596458 0.871748 0.828963
Si Si2 0.331409 0.790092 0.315872
Si Si3 0.544474 0.207803 0.186881
Si Si4 0.812434 0.078775 0.683484
Si Si5 0.139961 0.403312 0.173438
Si Si6 0.261040 0.060938 0.187146
O O1 0.526410 0.852592 0.746592
O O2 0.595532 0.803402 0.846127
O O3 0.665969 0.921962 0.744665
O O4 0.597608 0.901433 0.000000
O O5 0.341039 0.790261 0.500000
O O6 0.399767 0.809187 0.231246
O O7 0.276614 0.717047 0.262994
O O8 0.315059 0.847132 0.269288
O O9 0.539856 0.213964 0.000000
O O10 0.824882 0.090916 0.500000
O O11 0.751312 0.088600 0.734615
O O12 0.879962 0.127381 0.772768
O O13 0.794046 0.004808 0.729128
O O14 0.111438 0.403376 0.000000
O O15 0.258577 0.052270 0.000000
#
# Coordination Sequence:
#
# PCOD8325020 Si02
#       6
#    12  12  12  12  12  12
#     4   7  14  28  48  69  90 120 166 210 244 287
#     4  11  20  29  42  66  96 127 166 218 270 314
#     4  10  18  30  45  63  90 129 171 213 261 318
#     4  11  21  34  54  84 113 136 164 207 251 287
#     4   9  17  32  50  69  94 131 171 207 250 306
#     4  10  19  35  57  81 107 139 172 203 240 294
#
# _framework density 17.862507000000001
#
# number of rings (size 3 to 8) (size 9 to 14) (size 15 to 20)
#    0.000    2.333    0.000    6.833    0.000    0.000 
#    0.000    2.500    0.000    1.333    0.000    9.333 
#    0.000    0.000    0.000    0.000    0.000    0.000 
#
# Total GULP energy -892175.619056 kJ/mol
# GULP energy per Si atom -12391.328042 kJ/mol
# Density = 1.782185 g / cm^3
# Si number density = 17.862507 Si / 1000 Ang^3
#
#
#
# Elastic Constant Matrix: (Units=GPa)
#
#
# Indices 1 2 3 4 5 6 
#
# 1 79.7666 35.8319 4.2490 0.0000 0.0000 0.0000
# 2 35.8319 79.7666 4.2490 0.0000 0.0000 0.0000
# 3 4.2490 4.2490 55.3272 0.0000 0.0000 0.0000
# 4 0.0000 0.0000 0.0000 21.7043 0.0000 0.0000
# 5 0.0000 0.0000 0.0000 0.0000 21.7043 0.0000
# 6 0.0000 0.0000 0.0000 0.0000 0.0000 21.9674
#
#
#
# Elastic Compliance Matrix: (Units=1/GPa)
#
#
# Indices 1 2 3 4 5 6 
#
# 1 0.015730 -0.007031 -0.000668 0.000000 0.000000 0.000000
# 2 -0.007031 0.015730 -0.000668 0.000000 0.000000 0.000000
# 3 -0.000668 -0.000668 0.018177 0.000000 0.000000 0.000000
# 4 0.000000 0.000000 0.000000 0.046074 0.000000 0.000000
# 5 0.000000 0.000000 0.000000 0.000000 0.046074 0.000000
# 6 0.000000 0.000000 0.000000 0.000000 0.000000 0.045522
#
#
# Mechanical properties :
#
#
# Convention : Reuss Voigt Hill
#
# Bulk Modulus (GPa) = 30.39153 33.72448 32.05801
# Shear Modulus (GPa) = 23.25481 24.44388 23.84935
#
# Velocity S-wave (km/s) = 3.61207 3.70326 3.65795
# Velocity P-wave (km/s) = 5.86917 6.09972 5.98555
#
# Compressibility (1/GPa) = 0.03290391
#
# Stress axis : x y z
#
# Youngs Moduli (GPa) = 63.57119 63.57119 55.01488
#
# Poissons Ratio (x) = 0.44695 0.03676
# Poissons Ratio (y) = 0.44695 0.03676
# Poissons Ratio (z) = 0.04247 0.04247
#
# Static dielectric constant tensor:
#      x y z
#    x 3.311300 0.000000 0.000000 
#    y 0.000000 3.311300 0.000000 
#    z 0.000000 0.000000 3.248470 
# 
# 
# High freq. dielectric constant tensor:
#      x y z
#    x 1.672010 0.000000 0.000000 
#    y 0.000000 1.672010 0.000000 
#    z 0.000000 0.000000 1.689150 
# 
# From -- ./inp_files/1220.got.cif
#   From: 2010.03.12/outbox.cif.g09.slc.cpg/sg175_1_cif.got.tgz:1220.got - 2010.04.02 06:55:29.
