data_PCOD8325521
_publ_section_title
;
Structure prediction by ZEFSAII (Michael W. Deem and Ramdas Pophale) SiO2 
 PCOD8325521
Probable space group: P 63/M
;
_chemical_formula_sum "Si O2"
_cell_formula_units_Z 78
_cell_length_a 23.827257
_cell_length_b 23.827257
_cell_length_c 8.072767
_cell_angle_alpha 90.000000
_cell_angle_beta 90.000000
_cell_angle_gamma 120.000000
_cell_volume 3969.183230
_symmetry_space_group_name_H-M "P 63/M"
_symmetry_group_IT_number 176
_symmetry_cell_setting 'hexagonal'
loop_
_space_group_symop_operation_xyz
x,y,z
x-y,x,1/2+z
-y,x-y,z
-x,-y,1/2+z
-x+y,-x,z
y,-x+y,1/2+z
-x,-y,-z
-x+y,-x,1/2-z
y,-x+y,-z
x,y,1/2-z
x-y,x,-z
-y,x-y,1/2-z
loop_
_atom_site_type_symbol
_atom_site_label
_atom_site_fract_x
_atom_site_fract_y
_atom_site_fract_z
Si Si1 0.082710 0.812473 0.555090
Si Si2 0.593862 0.893705 0.944761
Si Si3 0.242491 0.494743 0.560772
Si Si4 0.414576 0.694983 0.250000
Si Si5 0.400363 0.306615 0.061686
Si Si6 0.562046 0.998353 0.938091
Si Si7 0.202962 0.942605 0.553509
O O1 0.091972 0.814153 0.750000
O O2 0.095266 0.756702 0.477168
O O3 0.135517 0.883123 0.483353
O O4 0.010773 0.798264 0.510470
O O5 0.605199 0.905497 0.750000
O O6 0.534107 0.822834 0.982833
O O7 0.574563 0.944123 0.025918
O O8 0.255460 0.523814 0.750000
O O9 0.252882 0.546676 0.421061
O O10 0.170440 0.435296 0.547457
O O11 0.380875 0.739673 0.250000
O O12 0.397543 0.326031 0.250000
O O13 0.328199 0.262922 0.987704
O O14 0.440922 0.373178 0.960172
O O15 0.547520 0.978522 0.750000
O O16 0.500000 0.000000 0.000000
O O17 0.202059 0.941112 0.750000
#
# Coordination Sequence:
#
# PCOD8325521 Si02
#       7
#    12  12  12   6  12  12  12
#     4  10  19  36  59  86 124 160 197 250 299 359
#     4   9  18  36  59  84 115 156 200 234 299 374
#     4  10  21  42  68  88 118 164 200 253 317 368
#     4  10  26  46  60  90 122 142 218 270 306 370
#     4  10  20  36  59  87 118 154 199 240 301 369
#     4  11  23  38  56  83 121 158 194 242 300 364
#     4  10  20  35  58  89 124 157 197 251 299 359
#
# _framework density 19.651399000000001
#
# number of rings (size 3 to 8) (size 9 to 14) (size 15 to 20)
#    0.154    1.846    3.077    0.462    1.077    2.462 
#    4.154    3.077    0.000    0.308    0.000    0.000 
#    0.000    0.000    0.000    0.000    0.000    0.000 
#
# Total GULP energy -966878.393371 kJ/mol
# GULP energy per Si atom -12395.876838 kJ/mol
# Density = 1.960667 g / cm^3
# Si number density = 19.651399 Si / 1000 Ang^3
#
#
#
# Elastic Constant Matrix: (Units=GPa)
#
#
# Indices 1 2 3 4 5 6 
#
# 1 112.2317 43.9932 20.8839 0.0000 0.0000 0.0000
# 2 43.9932 112.2317 20.8839 0.0000 0.0000 0.0000
# 3 20.8839 20.8839 52.1481 0.0000 0.0000 0.0000
# 4 0.0000 0.0000 0.0000 26.9762 0.0000 0.0000
# 5 0.0000 0.0000 0.0000 0.0000 26.9762 0.0000
# 6 0.0000 0.0000 0.0000 0.0000 0.0000 34.1193
#
#
#
# Elastic Compliance Matrix: (Units=1/GPa)
#
#
# Indices 1 2 3 4 5 6 
#
# 1 0.010912 -0.003743 -0.002871 0.000000 0.000000 0.000000
# 2 -0.003743 0.010912 -0.002871 0.000000 0.000000 0.000000
# 3 -0.002871 -0.002871 0.021476 0.000000 0.000000 0.000000
# 4 0.000000 0.000000 0.000000 0.037070 0.000000 0.000000
# 5 0.000000 0.000000 0.000000 0.000000 0.037070 0.000000
# 6 0.000000 0.000000 0.000000 0.000000 0.000000 0.029309
#
#
# Mechanical properties :
#
#
# Convention : Reuss Voigt Hill
#
# Bulk Modulus (GPa) = 41.10260 49.79264 45.44762
# Shear Modulus (GPa) = 28.76439 30.33768 29.55104
#
# Velocity S-wave (km/s) = 3.83003 3.93338 3.88204
# Velocity P-wave (km/s) = 6.36554 6.78392 6.57806
#
# Compressibility (1/GPa) = 0.02432936
#
# Stress axis : x y z
#
# Youngs Moduli (GPa) = 91.64627 91.64627 46.56468
#
# Poissons Ratio (x) = 0.34303 0.13368
# Poissons Ratio (y) = 0.34303 0.13368
# Poissons Ratio (z) = 0.26310 0.26310
#
# Static dielectric constant tensor:
#      x y z
#    x 3.831030 0.000000 0.000000 
#    y 0.000000 3.831030 0.000000 
#    z 0.000000 0.000000 3.364420 
# 
# 
# High freq. dielectric constant tensor:
#      x y z
#    x 1.761390 0.000000 0.000000 
#    y 0.000000 1.761390 0.000000 
#    z 0.000000 0.000000 1.747960 
# 
# From -- ./inp_files/1319.got.cif
#   From: 2010.06.25/outbox.cif.g09.slc.cpg/sg176_1_cif.got.tgz:1319.got - 2010.06.28 12:15:01.
