data_PCOD8325888
_publ_section_title
;
Structure prediction by ZEFSAII (Michael W. Deem and Ramdas Pophale) SiO2 
 PCOD8325888
Probable space group: P 61 2 2
;
_chemical_formula_sum "Si O2"
_cell_formula_units_Z 42
_cell_length_a 10.827071
_cell_length_b 10.827071
_cell_length_c 21.848561
_cell_angle_alpha 90.000000
_cell_angle_beta 90.000000
_cell_angle_gamma 120.000000
_cell_volume 2218.070980
_symmetry_space_group_name_H-M "P 61 2 2"
_symmetry_group_IT_number 178
_symmetry_cell_setting 'hexagonal'
loop_
_space_group_symop_operation_xyz
x,y,z
x-y,x,1/6+z
-y,x-y,1/3+z
-x,-y,1/2+z
-x+y,-x,2/3+z
y,-x+y,5/6+z
x-y,-y,-z
-x,-x+y,2/3-z
y,x,1/3-z
-y,-x,5/6-z
-x+y,y,1/2-z
x,x-y,1/6-z
loop_
_atom_site_type_symbol
_atom_site_label
_atom_site_fract_x
_atom_site_fract_y
_atom_site_fract_z
Si Si1 0.462296 0.702319 0.472825
Si Si2 0.339314 0.958519 0.256304
Si Si3 0.327252 0.904623 0.619100
Si Si4 0.495420 0.000000 0.500000
O O1 0.348885 0.651116 0.416667
O O2 0.607294 0.709970 0.449330
O O3 0.393096 0.587164 0.527093
O O4 0.506890 0.857860 0.497382
O O5 0.451643 0.903285 0.250000
O O6 0.326537 0.987552 0.327729
O O7 0.189091 0.838844 0.230938
O O8 0.409764 0.996677 0.560163
#
# Coordination Sequence:
#
# PCOD8325888 Si02
#       4
#    12  12  12   6
#     4   9  22  36  58  86 117 149 193 242 303 335
#     4   9  20  37  59  80 121 147 187 242 298 337
#     4  10  22  36  58  88 117 152 190 249 294 347
#     4  12  22  32  62  88 112 150 208 236 282 362
#
# _framework density 18.935373999999999
#
# number of rings (size 3 to 8) (size 9 to 14) (size 15 to 20)
#    0.000    2.857    0.000    2.571   20.000    0.000 
#    0.000    0.000    0.000    5.143    0.000    0.000 
#    0.000    0.000    0.000    0.000    0.000    0.000 
#
# Total GULP energy -520710.895575 kJ/mol
# GULP energy per Si atom -12397.878466 kJ/mol
# Density = 1.889228 g / cm^3
# Si number density = 18.935374 Si / 1000 Ang^3
#
#
#
# Elastic Constant Matrix: (Units=GPa)
#
#
# Indices 1 2 3 4 5 6 
#
# 1 62.7130 39.4844 48.4412 0.0000 0.0000 0.0000
# 2 39.4844 62.7130 48.4412 0.0000 0.0000 0.0000
# 3 48.4412 48.4412 143.5808 0.0000 0.0000 0.0000
# 4 0.0000 0.0000 0.0000 19.2207 0.0000 0.0000
# 5 0.0000 0.0000 0.0000 0.0000 19.2207 0.0000
# 6 0.0000 0.0000 0.0000 0.0000 0.0000 11.6143
#
#
#
# Elastic Compliance Matrix: (Units=1/GPa)
#
#
# Indices 1 2 3 4 5 6 
#
# 1 0.028718 -0.014332 -0.004854 0.000000 0.000000 0.000000
# 2 -0.014332 0.028718 -0.004854 0.000000 0.000000 0.000000
# 3 -0.004854 -0.004854 0.010240 0.000000 0.000000 0.000000
# 4 0.000000 0.000000 0.000000 0.052027 0.000000 0.000000
# 5 0.000000 0.000000 0.000000 0.000000 0.052027 0.000000
# 6 0.000000 0.000000 0.000000 0.000000 0.000000 0.086101
#
#
# Mechanical properties :
#
#
# Convention : Reuss Voigt Hill
#
# Bulk Modulus (GPa) = 51.02646 60.19335 55.60991
# Shear Modulus (GPa) = 16.00293 18.85381 17.42837
#
# Velocity S-wave (km/s) = 2.91027 3.15888 3.03712
# Velocity P-wave (km/s) = 6.18863 6.72031 6.45994
#
# Compressibility (1/GPa) = 0.01959768
#
# Stress axis : x y z
#
# Youngs Moduli (GPa) = 34.82101 34.82101 97.65887
#
# Poissons Ratio (x) = 0.49906 0.47400
# Poissons Ratio (y) = 0.49906 0.47400
# Poissons Ratio (z) = 0.16901 0.16901
#
# Static dielectric constant tensor:
#      x y z
#    x 3.181570 0.000000 0.000000 
#    y 0.000000 3.181570 0.000000 
#    z 0.000000 0.000000 3.689140 
# 
# 
# High freq. dielectric constant tensor:
#      x y z
#    x 1.711750 0.000000 0.000000 
#    y 0.000000 1.711750 0.000000 
#    z 0.000000 0.000000 1.757900 
# 
# From -- ./inp_files/7171.got.cif
#   From: 2010.03.12/outbox.cif.g09.slc.cpg/sg178_4_cif.got.tgz:7171.got - 2010.04.02 07:02:38.
