data_PCOD8325804
_publ_section_title
;
Structure prediction by ZEFSAII (Michael W. Deem and Ramdas Pophale) SiO2 
 PCOD8325804
Probable space group: P 61 2 2
;
_chemical_formula_sum "Si O2"
_cell_formula_units_Z 54
_cell_length_a 15.987068
_cell_length_b 15.987068
_cell_length_c 13.187286
_cell_angle_alpha 90.000000
_cell_angle_beta 90.000000
_cell_angle_gamma 120.000000
_cell_volume 2918.930142
_symmetry_space_group_name_H-M "P 61 2 2"
_symmetry_group_IT_number 178
_symmetry_cell_setting 'hexagonal'
loop_
_space_group_symop_operation_xyz
x,y,z
x-y,x,1/6+z
-y,x-y,1/3+z
-x,-y,1/2+z
-x+y,-x,2/3+z
y,-x+y,5/6+z
x-y,-y,-z
-x,-x+y,2/3-z
y,x,1/3-z
-y,-x,5/6-z
-x+y,y,1/2-z
x,x-y,1/6-z
loop_
_atom_site_type_symbol
_atom_site_label
_atom_site_fract_x
_atom_site_fract_y
_atom_site_fract_z
Si Si1 0.966425 0.707117 0.137641
Si Si2 0.898662 0.543066 0.294055
Si Si3 0.611832 0.825175 0.850464
Si Si4 0.073037 0.146074 0.750000
Si Si5 0.655348 0.244258 0.635386
O O1 0.915914 0.604341 0.193044
O O2 0.900171 0.689412 0.038664
O O3 0.969636 0.788365 0.210535
O O4 0.078776 0.742198 0.113004
O O5 0.849352 0.577994 0.377119
O O6 0.831290 0.431842 0.267754
O O7 0.000000 0.557060 0.333334
O O8 0.520794 0.741144 0.792753
O O9 0.074794 0.074794 0.666667
O O10 0.621008 0.242016 0.750000
O O11 0.696291 0.348146 0.583334
#
# Coordination Sequence:
#
# PCOD8325804 Si02
#       5
#    12  12  12   6  12
#     4  11  18  33  57  89 119 143 184 255 306 348
#     4  10  19  34  57  85 116 150 195 252 298 349
#     4  11  21  35  57  88 122 152 194 244 307 356
#     4  12  20  32  60  92 122 148 188 252 318 360
#     4  12  22  38  58  82 123 166 204 247 296 357
#
# _framework density 18.499929000000002
#
# number of rings (size 3 to 8) (size 9 to 14) (size 15 to 20)
#    0.000    0.889    8.889    0.667    0.000    0.000 
#    8.000    0.000    0.000    1.333    2.889    0.000 
#    0.000    0.000    0.000    0.000    0.000    0.000 
#
# Total GULP energy -669580.776322 kJ/mol
# GULP energy per Si atom -12399.644006 kJ/mol
# Density = 1.845782 g / cm^3
# Si number density = 18.499929 Si / 1000 Ang^3
#
#
#
# Elastic Constant Matrix: (Units=GPa)
#
#
# Indices 1 2 3 4 5 6 
#
# 1 120.1032 63.3012 27.7375 0.0000 0.0000 0.0000
# 2 63.3012 120.1032 27.7375 0.0000 0.0000 0.0000
# 3 27.7375 27.7375 31.1759 0.0000 0.0000 0.0000
# 4 0.0000 0.0000 0.0000 27.8626 0.0000 0.0000
# 5 0.0000 0.0000 0.0000 0.0000 27.8626 0.0000
# 6 0.0000 0.0000 0.0000 0.0000 0.0000 28.4010
#
#
#
# Elastic Compliance Matrix: (Units=1/GPa)
#
#
# Indices 1 2 3 4 5 6 
#
# 1 0.012533 -0.005072 -0.006637 0.000000 0.000000 0.000000
# 2 -0.005072 0.012533 -0.006637 0.000000 0.000000 0.000000
# 3 -0.006637 -0.006637 0.043886 0.000000 0.000000 0.000000
# 4 0.000000 0.000000 0.000000 0.035890 0.000000 0.000000
# 5 0.000000 0.000000 0.000000 0.000000 0.035890 0.000000
# 6 0.000000 0.000000 0.000000 0.000000 0.000000 0.035210
#
#
# Mechanical properties :
#
#
# Convention : Reuss Voigt Hill
#
# Bulk Modulus (GPa) = 31.00052 56.54828 43.77440
# Shear Modulus (GPa) = 22.38250 26.99899 24.69075
#
# Velocity S-wave (km/s) = 3.48209 3.82437 3.65724
# Velocity P-wave (km/s) = 5.74109 7.08055 6.44571
#
# Compressibility (1/GPa) = 0.03225752
#
# Stress axis : x y z
#
# Youngs Moduli (GPa) = 79.79241 79.79241 22.78607
#
# Poissons Ratio (x) = 0.40475 0.15124
# Poissons Ratio (y) = 0.40475 0.15124
# Poissons Ratio (z) = 0.52960 0.52960
#
# Static dielectric constant tensor:
#      x y z
#    x 3.554840 0.000000 0.000000 
#    y 0.000000 3.554840 0.000000 
#    z 0.000000 0.000000 3.370000 
# 
# 
# High freq. dielectric constant tensor:
#      x y z
#    x 1.724450 0.000000 0.000000 
#    y 0.000000 1.724450 0.000000 
#    z 0.000000 0.000000 1.666710 
# 
# From -- ./inp_files/5575.got.cif
#   From: 2010.03.12/outbox.cif.g09.slc.cpg/sg178_3_cif.got.tgz:5575.got - 2010.04.02 07:02:38.
