data_PCOD8325487
_publ_section_title
;
Structure prediction by ZEFSAII (Michael W. Deem and Ramdas Pophale) SiO2 
 PCOD8325487
Probable space group: P 63/M
;
_chemical_formula_sum "Si O2"
_cell_formula_units_Z 72
_cell_length_a 22.940191
_cell_length_b 22.940191
_cell_length_c 8.836691
_cell_angle_alpha 90.000000
_cell_angle_beta 90.000000
_cell_angle_gamma 120.000000
_cell_volume 4027.303501
_symmetry_space_group_name_H-M "P 63/M"
_symmetry_group_IT_number 176
_symmetry_cell_setting 'hexagonal'
loop_
_space_group_symop_operation_xyz
x,y,z
x-y,x,1/2+z
-y,x-y,z
-x,-y,1/2+z
-x+y,-x,z
y,-x+y,1/2+z
-x,-y,-z
-x+y,-x,1/2-z
y,-x+y,-z
x,y,1/2-z
x-y,x,-z
-y,x-y,1/2-z
loop_
_atom_site_type_symbol
_atom_site_label
_atom_site_fract_x
_atom_site_fract_y
_atom_site_fract_z
Si Si1 0.384647 0.132095 0.425380
Si Si2 0.467940 0.064362 0.076293
Si Si3 0.256590 0.997417 0.428480
Si Si4 0.127874 0.119923 0.928091
Si Si5 0.075616 0.471451 0.925781
Si Si6 0.607815 0.740023 0.071285
O O1 0.374370 0.142818 0.250000
O O2 0.449091 0.122327 0.449609
O O3 0.398100 0.197089 0.516667
O O4 0.318726 0.066417 0.492124
O O5 0.454291 0.039104 0.250000
O O6 0.546157 0.093777 0.034315
O O7 0.420025 0.000600 0.974170
O O8 0.264733 0.997427 0.250000
O O9 0.187960 0.993997 0.476605
O O10 0.256491 0.931905 0.495429
O O11 0.127026 0.104026 0.750000
O O12 0.063985 0.126639 0.968516
O O13 0.083421 0.462247 0.750000
O O14 0.127933 0.456502 0.013852
O O15 0.608570 0.740668 0.250000
#
# Coordination Sequence:
#
# PCOD8325487 Si02
#       6
#    12  12  12  12  12  12
#     4  10  19  35  55  78 109 145 179 219 267 319
#     4   9  18  34  56  79 110 142 173 219 270 315
#     4   9  19  35  54  74 104 139 172 213 270 319
#     4  11  22  37  54  72  93 126 170 219 266 319
#     4  10  19  32  54  83 108 140 181 218 261 319
#     4  11  21  35  53  79 113 147 178 221 270 316
#
# _framework density 17.877967999999999
#
# number of rings (size 3 to 8) (size 9 to 14) (size 15 to 20)
#    0.000    2.000    1.667    2.667    0.000    1.333 
#    0.000    3.333    0.000    0.667    0.000    2.333 
#    0.000    0.000    0.000    0.000    0.000    0.000 
#
# Total GULP energy -892920.228394 kJ/mol
# GULP energy per Si atom -12401.669839 kJ/mol
# Density = 1.783728 g / cm^3
# Si number density = 17.877968 Si / 1000 Ang^3
#
#
#
# Elastic Constant Matrix: (Units=GPa)
#
#
# Indices 1 2 3 4 5 6 
#
# 1 117.6363 65.4205 34.8285 0.0000 0.0000 0.0000
# 2 65.4205 117.6363 34.8285 0.0000 0.0000 0.0000
# 3 34.8285 34.8285 53.1750 0.0000 0.0000 0.0000
# 4 0.0000 0.0000 0.0000 23.9805 0.0000 0.0000
# 5 0.0000 0.0000 0.0000 0.0000 23.9805 0.0000
# 6 0.0000 0.0000 0.0000 0.0000 0.0000 26.1079
#
#
#
# Elastic Compliance Matrix: (Units=1/GPa)
#
#
# Indices 1 2 3 4 5 6 
#
# 1 0.013214 -0.005938 -0.004766 0.000000 0.000000 0.000000
# 2 -0.005938 0.013214 -0.004766 0.000000 0.000000 0.000000
# 3 -0.004766 -0.004766 0.025049 0.000000 0.000000 0.000000
# 4 0.000000 0.000000 0.000000 0.041701 0.000000 0.000000
# 5 0.000000 0.000000 0.000000 0.000000 0.041701 0.000000
# 6 0.000000 0.000000 0.000000 0.000000 0.000000 0.038303
#
#
# Mechanical properties :
#
#
# Convention : Reuss Voigt Hill
#
# Bulk Modulus (GPa) = 48.68988 62.06697 55.37842
# Shear Modulus (GPa) = 23.70067 25.03843 24.36955
#
# Velocity S-wave (km/s) = 3.64495 3.74641 3.69603
# Velocity P-wave (km/s) = 6.70880 7.31481 7.01835
#
# Compressibility (1/GPa) = 0.02053815
#
# Stress axis : x y z
#
# Youngs Moduli (GPa) = 75.67854 75.67854 39.92200
#
# Poissons Ratio (x) = 0.44934 0.19026
# Poissons Ratio (y) = 0.44934 0.19026
# Poissons Ratio (z) = 0.36067 0.36067
#
# Static dielectric constant tensor:
#      x y z
#    x 3.380970 0.000000 0.000000 
#    y 0.000000 3.380970 0.000000 
#    z 0.000000 0.000000 3.273330 
# 
# 
# High freq. dielectric constant tensor:
#      x y z
#    x 1.688520 0.000000 0.000000 
#    y 0.000000 1.688520 0.000000 
#    z 0.000000 0.000000 1.683340 
# 
# From -- ./inp_files/1204.got.cif
#   From: 2010.06.25/outbox.cif.g09.slc.cpg/sg176_1_cif.got.tgz:1204.got - 2010.06.28 12:15:01.
