data_PCOD8325845
_publ_section_title
;
Structure prediction by ZEFSAII (Michael W. Deem and Ramdas Pophale) SiO2 
 PCOD8325845
Probable space group: P 61 2 2
;
_chemical_formula_sum "Si O2"
_cell_formula_units_Z 60
_cell_length_a 15.324266
_cell_length_b 15.324266
_cell_length_c 14.245447
_cell_angle_alpha 90.000000
_cell_angle_beta 90.000000
_cell_angle_gamma 120.000000
_cell_volume 2897.117282
_symmetry_space_group_name_H-M "P 61 2 2"
_symmetry_group_IT_number 178
_symmetry_cell_setting 'hexagonal'
loop_
_space_group_symop_operation_xyz
x,y,z
x-y,x,1/6+z
-y,x-y,1/3+z
-x,-y,1/2+z
-x+y,-x,2/3+z
y,-x+y,5/6+z
x-y,-y,-z
-x,-x+y,2/3-z
y,x,1/3-z
-y,-x,5/6-z
-x+y,y,1/2-z
x,x-y,1/6-z
loop_
_atom_site_type_symbol
_atom_site_label
_atom_site_fract_x
_atom_site_fract_y
_atom_site_fract_z
Si Si1 0.544529 0.863990 0.548368
Si Si2 0.944597 0.652558 0.973329
Si Si3 0.816643 0.500251 0.121162
Si Si4 0.131834 0.118766 0.314156
Si Si5 0.525248 0.637527 0.163757
O O1 0.499649 0.749825 0.583334
O O2 0.590696 0.873052 0.445758
O O3 0.458798 0.894069 0.547330
O O4 0.629513 0.938948 0.620188
O O5 0.931028 0.748512 0.992083
O O6 0.913011 0.580924 0.063511
O O7 0.772018 0.386009 0.083334
O O8 0.852446 0.497054 0.224798
O O9 0.735440 0.538358 0.114942
O O10 0.083174 0.099067 0.419197
O O11 0.089112 0.178223 0.250000
O O12 0.624651 0.624651 0.166667
#
# Coordination Sequence:
#
# PCOD8325845 Si02
#       5
#    12  12  12  12  12
#     4  11  20  36  62  96 126 154 212 275 318 378
#     4  11  21  38  64  96 123 163 213 267 328 378
#     4  11  23  43  65  88 131 174 208 264 329 386
#     4  10  20  37  63  94 129 168 208 274 337 385
#     4  11  23  42  62  89 129 170 215 259 317 388
#
# _framework density 20.710242000000001
#
# number of rings (size 3 to 8) (size 9 to 14) (size 15 to 20)
#    0.000    1.200    4.000    4.800    0.000    3.200 
#    0.000    2.000   30.800    0.000    0.000    0.000 
#    0.000    0.000    0.000    0.000    0.000    0.000 
#
# Total GULP energy -743779.437325 kJ/mol
# GULP energy per Si atom -12396.323955 kJ/mol
# Density = 2.066310 g / cm^3
# Si number density = 20.710242 Si / 1000 Ang^3
#
#
#
# Elastic Constant Matrix: (Units=GPa)
#
#
# Indices 1 2 3 4 5 6 
#
# 1 82.7475 17.6317 21.4330 0.0000 0.0000 0.0000
# 2 17.6317 82.7475 21.4330 0.0000 0.0000 0.0000
# 3 21.4330 21.4330 63.8480 0.0000 0.0000 0.0000
# 4 0.0000 0.0000 0.0000 20.5502 0.0000 0.0000
# 5 0.0000 0.0000 0.0000 0.0000 20.5502 0.0000
# 6 0.0000 0.0000 0.0000 0.0000 0.0000 32.5579
#
#
#
# Elastic Compliance Matrix: (Units=1/GPa)
#
#
# Indices 1 2 3 4 5 6 
#
# 1 0.013493 -0.001864 -0.003904 0.000000 0.000000 0.000000
# 2 -0.001864 0.013493 -0.003904 0.000000 0.000000 0.000000
# 3 -0.003904 -0.003904 0.018283 0.000000 0.000000 0.000000
# 4 0.000000 0.000000 0.000000 0.048661 0.000000 0.000000
# 5 0.000000 0.000000 0.000000 0.000000 0.048661 0.000000
# 6 0.000000 0.000000 0.000000 0.000000 0.000000 0.030715
#
#
# Mechanical properties :
#
#
# Convention : Reuss Voigt Hill
#
# Bulk Modulus (GPa) = 38.57059 38.92648 38.74854
# Shear Modulus (GPa) = 24.83954 25.98803 25.41378
#
# Velocity S-wave (km/s) = 3.46697 3.54621 3.50682
# Velocity P-wave (km/s) = 5.88989 5.96692 5.92853
#
# Compressibility (1/GPa) = 0.02592649
#
# Stress axis : x y z
#
# Youngs Moduli (GPa) = 74.11096 74.11096 54.69528
#
# Poissons Ratio (x) = 0.13814 0.21352
# Poissons Ratio (y) = 0.13814 0.21352
# Poissons Ratio (z) = 0.28931 0.28931
#
# Static dielectric constant tensor:
#      x y z
#    x 3.760060 0.000000 0.000000 
#    y 0.000000 3.760060 0.000000 
#    z 0.000000 0.000000 5.063110 
# 
# 
# High freq. dielectric constant tensor:
#      x y z
#    x 1.803980 0.000000 0.000000 
#    y 0.000000 1.803980 0.000000 
#    z 0.000000 0.000000 1.804040 
# 
# From -- ./inp_files/5688.got.cif
#   From: 2010.03.12/outbox.cif.g09.slc.cpg/sg178_3_cif.got.tgz:5688.got - 2010.04.02 07:02:38.
