data_PCOD8325743
_publ_section_title
;
Structure prediction by ZEFSAII (Michael W. Deem and Ramdas Pophale) SiO2 
 PCOD8325743
Probable space group: P 6 2 2
;
_chemical_formula_sum "Si O2"
_cell_formula_units_Z 48
_cell_length_a 17.051567
_cell_length_b 17.051567
_cell_length_c 8.128691
_cell_angle_alpha 90.000000
_cell_angle_beta 90.000000
_cell_angle_gamma 120.000000
_cell_volume 2046.820878
_symmetry_space_group_name_H-M "P 6 2 2"
_symmetry_group_IT_number 177
_symmetry_cell_setting 'hexagonal'
loop_
_space_group_symop_operation_xyz
x,y,z
x-y,x,z
-y,x-y,z
-x,-y,z
-x+y,-x,z
y,-x+y,z
x-y,-y,-z
-x,-x+y,-z
y,x,-z
-y,-x,-z
-x+y,y,-z
x,x-y,-z
loop_
_atom_site_type_symbol
_atom_site_label
_atom_site_fract_x
_atom_site_fract_y
_atom_site_fract_z
Si Si1 0.682790 0.889366 0.347729
Si Si2 0.522585 0.311446 0.649872
Si Si3 0.260863 0.319518 0.841692
Si Si4 0.472447 0.833625 0.843646
O O1 0.726685 0.863343 0.500000
O O2 0.580267 0.860581 0.393856
O O3 0.685958 0.835940 0.182696
O O4 0.730957 0.996154 0.314982
O O5 0.565130 0.282565 0.500000
O O6 0.577299 0.419231 0.683718
O O7 0.528082 0.261298 0.818777
O O8 0.340928 0.424351 0.846375
O O9 0.267122 0.267122 0.000000
O O10 0.418655 0.837310 0.000000
#
# Coordination Sequence:
#
# PCOD8325743 Si02
#       4
#    12  12  12  12
#     4  10  22  41  64  89 121 163 209 263 329 398
#     4  10  21  37  56  81 119 169 221 268 318 379
#     4  11  23  40  64  94 127 165 213 271 338 406
#     4  11  22  36  58  88 126 173 221 274 329 385
#
# _framework density 23.450998999999999
#
# number of rings (size 3 to 8) (size 9 to 14) (size 15 to 20)
#    0.000    1.500    0.000    5.000    0.000    7.500 
#    0.000    2.500    0.000   18.500    0.000    3.500 
#    0.000    0.000    0.000    0.000    0.000    0.000 
#
# Total GULP energy -594812.499021 kJ/mol
# GULP energy per Si atom -12391.927063 kJ/mol
# Density = 2.339762 g / cm^3
# Si number density = 23.450999 Si / 1000 Ang^3
#
#
#
# Elastic Constant Matrix: (Units=GPa)
#
#
# Indices 1 2 3 4 5 6 
#
# 1 83.9753 25.6152 3.8938 0.0000 0.0000 0.0000
# 2 25.6152 83.9753 3.8938 0.0000 0.0000 0.0000
# 3 3.8938 3.8938 55.5161 0.0000 0.0000 0.0000
# 4 0.0000 0.0000 0.0000 31.3810 0.0000 0.0000
# 5 0.0000 0.0000 0.0000 0.0000 31.3810 0.0000
# 6 0.0000 0.0000 0.0000 0.0000 0.0000 29.1801
#
#
#
# Elastic Compliance Matrix: (Units=1/GPa)
#
#
# Indices 1 2 3 4 5 6 
#
# 1 0.013153 -0.003982 -0.000643 0.000000 0.000000 0.000000
# 2 -0.003982 0.013153 -0.000643 0.000000 0.000000 0.000000
# 3 -0.000643 -0.000643 0.018103 0.000000 0.000000 0.000000
# 4 0.000000 0.000000 0.000000 0.031866 0.000000 0.000000
# 5 0.000000 0.000000 0.000000 0.000000 0.031866 0.000000
# 6 0.000000 0.000000 0.000000 0.000000 0.000000 0.034270
#
#
# Mechanical properties :
#
#
# Convention : Reuss Voigt Hill
#
# Bulk Modulus (GPa) = 29.52345 32.25247 30.88796
# Shear Modulus (GPa) = 30.44342 31.05934 30.75138
#
# Velocity S-wave (km/s) = 3.60692 3.64323 3.62512
# Velocity P-wave (km/s) = 5.47387 5.61075 5.54273
#
# Compressibility (1/GPa) = 0.03387138
#
# Stress axis : x y z
#
# Youngs Moduli (GPa) = 76.02954 76.02954 55.23937
#
# Poissons Ratio (x) = 0.30277 0.03553
# Poissons Ratio (y) = 0.30277 0.03553
# Poissons Ratio (z) = 0.04890 0.04890
#
# Static dielectric constant tensor:
#      x y z
#    x 4.057870 0.000000 0.000000 
#    y 0.000000 4.057870 0.000000 
#    z 0.000000 0.000000 4.415170 
# 
# 
# High freq. dielectric constant tensor:
#      x y z
#    x 1.906040 0.000000 0.000000 
#    y 0.000000 1.906040 0.000000 
#    z 0.000000 0.000000 1.945630 
# 
# From -- ./inp_files/1106.got.cif
#   From: 2010.03.12/outbox.cif.g09.slc.cpg/sg177_1_cif.got.tgz:1106.got - 2010.04.02 07:00:27.
