data_PCOD8325519
_publ_section_title
;
Structure prediction by ZEFSAII (Michael W. Deem and Ramdas Pophale) SiO2 
 PCOD8325519
Probable space group: P 63/M
;
_chemical_formula_sum "Si O2"
_cell_formula_units_Z 76
_cell_length_a 17.368818
_cell_length_b 17.368818
_cell_length_c 15.951620
_cell_angle_alpha 90.000000
_cell_angle_beta 90.000000
_cell_angle_gamma 120.000000
_cell_volume 4167.503333
_symmetry_space_group_name_H-M "P 63/M"
_symmetry_group_IT_number 176
_symmetry_cell_setting 'hexagonal'
loop_
_space_group_symop_operation_xyz
x,y,z
x-y,x,1/2+z
-y,x-y,z
-x,-y,1/2+z
-x+y,-x,z
y,-x+y,1/2+z
-x,-y,-z
-x+y,-x,1/2-z
y,-x+y,-z
x,y,1/2-z
x-y,x,-z
-y,x-y,1/2-z
loop_
_atom_site_type_symbol
_atom_site_label
_atom_site_fract_x
_atom_site_fract_y
_atom_site_fract_z
Si Si1 0.987793 0.457781 0.908586
Si Si2 0.124112 0.200980 0.986084
Si Si3 0.455335 0.213099 0.750000
Si Si4 0.333334 0.666668 0.649590
Si Si5 0.895724 0.700042 0.158184
Si Si6 0.831210 0.509759 0.150913
Si Si7 0.742653 0.659285 0.612435
Si Si8 0.876580 0.451194 0.750000
O O1 0.940427 0.352600 0.924888
O O2 0.934048 0.478811 0.836725
O O3 0.086419 0.501906 0.872507
O O4 0.000000 0.500000 0.000000
O O5 0.120544 0.230935 0.892467
O O6 0.155708 0.129724 0.975243
O O7 0.188616 0.288469 0.038500
O O8 0.391859 0.171537 0.668995
O O9 0.499551 0.318904 0.750000
O O10 0.532607 0.187625 0.750000
O O11 0.333334 0.666668 0.750000
O O12 0.314204 0.741942 0.613456
O O13 0.858024 0.698215 0.250000
O O14 0.843243 0.602237 0.115109
O O15 0.999727 0.730469 0.166346
O O16 0.825932 0.512970 0.250000
#
# Coordination Sequence:
#
# PCOD8325519 Si02
#       8
#    12  12   6   4  12  12  12   6
#     4  10  20  36  59  82 112 150 194 238 284 341
#     4  10  21  37  57  82 115 148 187 235 294 340
#     4  10  19  36  58  82 116 150 192 240 289 340
#     4   9  18  30  51  78 111 148 167 223 288 336
#     4   9  17  34  58  78 101 146 192 228 273 342
#     4   9  17  33  53  74 106 143 185 218 278 342
#     4   9  19  36  58  77 110 154 189 225 288 344
#     4  10  21  36  58  86 114 154 194 244 297 344
#
# _framework density 18.236338
#
# number of rings (size 3 to 8) (size 9 to 14) (size 15 to 20)
#    0.000    2.526    1.579    0.316    0.000    5.053 
#    1.421    1.579    1.737    0.000    0.000    0.000 
#    0.000    0.000    0.000    0.000    0.000    0.000 
#
# Total GULP energy -941849.739790 kJ/mol
# GULP energy per Si atom -12392.759734 kJ/mol
# Density = 1.819483 g / cm^3
# Si number density = 18.236338 Si / 1000 Ang^3
#
#
#
# Elastic Constant Matrix: (Units=GPa)
#
#
# Indices 1 2 3 4 5 6 
#
# 1 111.4140 55.6567 45.7555 0.0000 0.0000 0.0002
# 2 55.6567 111.4123 45.7555 0.0000 0.0000 -0.0001
# 3 45.7555 45.7555 84.3126 0.0000 0.0000 0.0000
# 4 0.0000 0.0000 0.0000 12.5499 0.0001 0.0000
# 5 0.0000 0.0000 0.0000 0.0001 12.5500 0.0000
# 6 0.0002 -0.0001 0.0000 0.0000 0.0000 27.8779
#
#
#
# Elastic Compliance Matrix: (Units=1/GPa)
#
#
# Indices 1 2 3 4 5 6 
#
# 1 0.013226 -0.004709 -0.004622 0.000000 0.000000 0.000000
# 2 -0.004709 0.013226 -0.004622 0.000000 0.000000 0.000000
# 3 -0.004622 -0.004622 0.016877 0.000000 0.000000 0.000000
# 4 0.000000 0.000000 0.000000 0.079682 -0.000001 0.000000
# 5 0.000000 0.000000 0.000000 -0.000001 0.079681 0.000000
# 6 0.000000 0.000000 0.000000 0.000000 0.000000 0.035871
#
#
# Mechanical properties :
#
#
# Convention : Reuss Voigt Hill
#
# Bulk Modulus (GPa) = 64.83764 66.83047 65.83405
# Shear Modulus (GPa) = 18.40863 21.26032 19.83448
#
# Velocity S-wave (km/s) = 3.18063 3.41812 3.30151
# Velocity P-wave (km/s) = 7.00855 7.23218 7.12124
#
# Compressibility (1/GPa) = 0.01542314
#
# Stress axis : x y z
#
# Youngs Moduli (GPa) = 75.60805 75.60656 59.25052
#
# Poissons Ratio (x) = 0.35603 0.27387
# Poissons Ratio (y) = 0.35603 0.27387
# Poissons Ratio (z) = 0.34947 0.34948
#
# Static dielectric constant tensor:
#      x y z
#    x 3.422200 0.000000 0.000000 
#    y 0.000000 3.422210 0.000000 
#    z 0.000000 0.000000 3.233720 
# 
# 
# High freq. dielectric constant tensor:
#      x y z
#    x 1.707140 0.000000 0.000000 
#    y 0.000000 1.707140 0.000000 
#    z 0.000000 0.000000 1.694040 
# 
# From -- ./inp_files/2893.got.cif
#   From: 2010.06.25/outbox.cif.g09.slc.cpg/sg176_2_cif.got.tgz:2893.got - 2010.06.28 12:15:01.
