data_PCOD8325306
_publ_section_title
;
Structure prediction by ZEFSAII (Michael W. Deem and Ramdas Pophale) SiO2 
 PCOD8325306
Probable space group: P 6/M
;
_chemical_formula_sum "Si O2"
_cell_formula_units_Z 60
_cell_length_a 13.990072
_cell_length_b 13.990072
_cell_length_c 14.475963
_cell_angle_alpha 90.000000
_cell_angle_beta 90.000000
_cell_angle_gamma 120.000000
_cell_volume 2453.680409
_symmetry_space_group_name_H-M "P 6/M"
_symmetry_group_IT_number 175
_symmetry_cell_setting 'hexagonal'
loop_
_space_group_symop_operation_xyz
x,y,z
x-y,x,z
-y,x-y,z
-x,-y,z
-x+y,-x,z
y,-x+y,z
-x,-y,-z
-x+y,-x,-z
y,-x+y,-z
x,y,-z
x-y,x,-z
-y,x-y,-z
loop_
_atom_site_type_symbol
_atom_site_label
_atom_site_fract_x
_atom_site_fract_y
_atom_site_fract_z
Si Si1 0.220291 0.753107 0.396833
Si Si2 0.581860 0.129288 0.713466
Si Si3 0.825482 0.764353 0.642102
Si Si4 0.487432 0.106610 0.100012
Si Si5 0.052202 0.813107 0.859708
O O1 0.270433 0.783224 0.500000
O O2 0.295016 0.842887 0.316093
O O3 0.198008 0.633277 0.367671
O O4 0.099682 0.741270 0.392589
O O5 0.566888 0.175360 0.813322
O O6 0.500000 0.000000 0.709842
O O7 0.792875 0.849394 0.599984
O O8 0.824796 0.772538 0.751242
O O9 0.361034 0.075500 0.115073
O O10 0.500000 0.000000 0.094235
O O11 0.526554 0.168839 0.000000
O O12 0.931490 0.783465 0.900021
#
# Coordination Sequence:
#
# PCOD8325306 Si02
#       5
#    12  12  12  12  12
#     4  12  25  42  67 101 133 176 236 292 357 431
#     4  11  25  45  70  95 136 178 223 292 364 427
#     4  10  21  38  63  98 139 185 229 283 349 428
#     4  10  23  42  68 100 137 187 243 297 359 432
#     4  10  21  40  70 108 151 196 243 298 363 440
#
# _framework density 24.453061000000002
#
# number of rings (size 3 to 8) (size 9 to 14) (size 15 to 20)
#    0.000    1.400    2.000    2.600    8.400    6.400 
#    0.000    3.000    0.000    3.200    0.000    0.000 
#    0.000    0.000    0.000    0.000    0.000    0.000 
#
# Total GULP energy -743288.715973 kJ/mol
# GULP energy per Si atom -12388.145266 kJ/mol
# Density = 2.439741 g / cm^3
# Si number density = 24.453061 Si / 1000 Ang^3
#
#
#
# Elastic Constant Matrix: (Units=GPa)
#
#
# Indices 1 2 3 4 5 6 
#
# 1 88.1172 10.4376 38.6509 0.0000 0.0000 0.0000
# 2 10.4376 88.1172 38.6509 0.0000 0.0000 0.0000
# 3 38.6509 38.6509 155.0455 0.0000 0.0000 0.0000
# 4 0.0000 0.0000 0.0000 6.3806 0.0000 0.0000
# 5 0.0000 0.0000 0.0000 0.0000 6.3806 0.0000
# 6 0.0000 0.0000 0.0000 0.0000 0.0000 38.8398
#
#
#
# Elastic Compliance Matrix: (Units=1/GPa)
#
#
# Indices 1 2 3 4 5 6 
#
# 1 0.012743 -0.000130 -0.003144 0.000000 0.000000 0.000000
# 2 -0.000130 0.012743 -0.003144 0.000000 0.000000 0.000000
# 3 -0.003144 -0.003144 0.008017 0.000000 0.000000 0.000000
# 4 0.000000 0.000000 0.000000 0.156724 0.000000 0.000000
# 5 0.000000 0.000000 0.000000 0.000000 0.156724 0.000000
# 6 0.000000 0.000000 0.000000 0.000000 0.000000 0.025747
#
#
# Mechanical properties :
#
#
# Convention : Reuss Voigt Hill
#
# Bulk Modulus (GPa) = 48.38837 56.30651 52.34744
# Shear Modulus (GPa) = 12.74127 26.55624 19.64876
#
# Velocity S-wave (km/s) = 2.28513 3.29904 2.83773
# Velocity P-wave (km/s) = 5.17626 6.13090 5.67369
#
# Compressibility (1/GPa) = 0.02066612
#
# Stress axis : x y z
#
# Youngs Moduli (GPa) = 78.47378 78.47378 124.72951
#
# Poissons Ratio (x) = 0.01022 0.39218
# Poissons Ratio (y) = 0.01022 0.39218
# Poissons Ratio (z) = 0.24674 0.24674
#
# Static dielectric constant tensor:
#      x y z
#    x 4.459950 0.000000 0.000000 
#    y 0.000000 4.459950 0.000000 
#    z 0.000000 0.000000 4.869780 
# 
# 
# High freq. dielectric constant tensor:
#      x y z
#    x 1.968370 0.000000 0.000000 
#    y 0.000000 1.968370 0.000000 
#    z 0.000000 0.000000 1.976630 
# 
# From -- ./inp_files/2354.got.cif
#   From: 2010.03.12/outbox.cif.g09.slc.cpg/sg175_2_cif.got.tgz:2354.got - 2010.04.02 06:55:29.
