data_PCOD8325163
_publ_section_title
;
Structure prediction by ZEFSAII (Michael W. Deem and Ramdas Pophale) SiO2 
 PCOD8325163
Probable space group: P 6/M
;
_chemical_formula_sum "Si O2"
_cell_formula_units_Z 66
_cell_length_a 21.739381
_cell_length_b 21.739381
_cell_length_c 7.589315
_cell_angle_alpha 90.000000
_cell_angle_beta 90.000000
_cell_angle_gamma 120.000000
_cell_volume 3106.186719
_symmetry_space_group_name_H-M "P 6/M"
_symmetry_group_IT_number 175
_symmetry_cell_setting 'hexagonal'
loop_
_space_group_symop_operation_xyz
x,y,z
x-y,x,z
-y,x-y,z
-x,-y,z
-x+y,-x,z
y,-x+y,z
-x,-y,-z
-x+y,-x,-z
y,-x+y,-z
x,y,-z
x-y,x,-z
-y,x-y,-z
loop_
_atom_site_type_symbol
_atom_site_label
_atom_site_fract_x
_atom_site_fract_y
_atom_site_fract_z
Si Si1 0.859576 0.352809 0.805498
Si Si2 0.362625 0.009752 0.696564
Si Si3 0.169498 0.113667 0.000000
Si Si4 0.609171 0.108058 0.794665
Si Si5 0.567387 0.769671 0.795095
Si Si6 0.282956 0.201878 0.702486
O O1 0.874239 0.425297 0.709386
O O2 0.802644 0.280642 0.708168
O O3 0.928191 0.343297 0.824024
O O4 0.831856 0.355978 0.000000
O O5 0.366151 0.038801 0.500000
O O6 0.392571 0.955738 0.688487
O O7 0.281894 0.974844 0.768238
O O8 0.106879 0.134297 0.000000
O O9 0.219438 0.145677 0.826773
O O10 0.687193 0.173479 0.765922
O O11 0.592161 0.086585 0.000000
O O12 0.645334 0.803169 0.707676
O O13 0.582470 0.789413 0.000000
O O14 0.255379 0.188556 0.500000
#
# Coordination Sequence:
#
# PCOD8325163 Si02
#       6
#    12  12   6  12  12  12
#     4  10  20  31  53  83 114 157 208 255 306 371
#     4  10  21  34  54  85 118 151 196 252 311 369
#     4  12  29  50  76 102 133 171 203 249 305 391
#     4   9  18  34  50  75 113 159 199 249 308 366
#     4   9  18  35  57  82 123 168 214 266 320 374
#     4  10  23  42  68 101 131 165 208 262 320 374
#
# _framework density 21.247917000000001
#
# number of rings (size 3 to 8) (size 9 to 14) (size 15 to 20)
#    0.000    2.182    0.909    1.182    5.091    4.364 
#    1.091    0.000    0.000    1.091    0.000    0.000 
#    0.000    0.000    0.000    0.000    0.000    0.000 
#
# Total GULP energy -817629.426739 kJ/mol
# GULP energy per Si atom -12388.324648 kJ/mol
# Density = 2.119956 g / cm^3
# Si number density = 21.247917 Si / 1000 Ang^3
#
#
#
# Elastic Constant Matrix: (Units=GPa)
#
#
# Indices 1 2 3 4 5 6 
#
# 1 95.1143 48.8211 20.1871 0.0000 0.0000 0.0000
# 2 48.8211 95.1143 20.1871 0.0000 0.0000 0.0000
# 3 20.1871 20.1871 62.5108 0.0000 0.0000 0.0000
# 4 0.0000 0.0000 0.0000 3.9263 0.0000 0.0000
# 5 0.0000 0.0000 0.0000 0.0000 3.9263 0.0000
# 6 0.0000 0.0000 0.0000 0.0000 0.0000 23.1466
#
#
#
# Elastic Compliance Matrix: (Units=1/GPa)
#
#
# Indices 1 2 3 4 5 6 
#
# 1 0.014621 -0.006981 -0.002467 0.000000 0.000000 0.000000
# 2 -0.006981 0.014621 -0.002467 0.000000 0.000000 0.000000
# 3 -0.002467 -0.002467 0.017591 0.000000 0.000000 0.000000
# 4 0.000000 0.000000 0.000000 0.254690 0.000000 0.000000
# 5 0.000000 0.000000 0.000000 0.000000 0.254690 0.000000
# 6 0.000000 0.000000 0.000000 0.000000 0.000000 0.043203
#
#
# Mechanical properties :
#
#
# Convention : Reuss Voigt Hill
#
# Bulk Modulus (GPa) = 43.47559 47.90334 45.68947
# Shear Modulus (GPa) = 7.92503 17.10279 12.51391
#
# Velocity S-wave (km/s) = 1.93336 2.84018 2.42946
# Velocity P-wave (km/s) = 5.04870 5.77490 5.42397
#
# Compressibility (1/GPa) = 0.02300141
#
# Stress axis : x y z
#
# Youngs Moduli (GPa) = 68.39700 68.39700 56.84827
#
# Poissons Ratio (x) = 0.47747 0.14025
# Poissons Ratio (y) = 0.47747 0.14025
# Poissons Ratio (z) = 0.16874 0.16874
#
# Static dielectric constant tensor:
#      x y z
#    x 4.056160 0.000000 0.000000 
#    y 0.000000 4.056160 0.000000 
#    z 0.000000 0.000000 3.859560 
# 
# 
# High freq. dielectric constant tensor:
#      x y z
#    x 1.827980 0.000000 0.000000 
#    y 0.000000 1.827980 0.000000 
#    z 0.000000 0.000000 1.818950 
# 
# From -- ./inp_files/984.got.cif
#   From: 2010.03.12/outbox.cif.g09.slc.cpg/sg175_1_cif.got.tgz:984.got - 2010.04.02 06:55:29.
