data_PCOD8325778
_publ_section_title
;
Structure prediction by ZEFSAII (Michael W. Deem and Ramdas Pophale) SiO2 
 PCOD8325778
Probable space group: P 61 2 2
;
_chemical_formula_sum "Si O2"
_cell_formula_units_Z 48
_cell_length_a 15.675807
_cell_length_b 15.675807
_cell_length_c 9.243209
_cell_angle_alpha 90.000000
_cell_angle_beta 90.000000
_cell_angle_gamma 120.000000
_cell_volume 1967.040131
_symmetry_space_group_name_H-M "P 61 2 2"
_symmetry_group_IT_number 178
_symmetry_cell_setting 'hexagonal'
loop_
_space_group_symop_operation_xyz
x,y,z
x-y,x,1/6+z
-y,x-y,1/3+z
-x,-y,1/2+z
-x+y,-x,2/3+z
y,-x+y,5/6+z
x-y,-y,-z
-x,-x+y,2/3-z
y,x,1/3-z
-y,-x,5/6-z
-x+y,y,1/2-z
x,x-y,1/6-z
loop_
_atom_site_type_symbol
_atom_site_label
_atom_site_fract_x
_atom_site_fract_y
_atom_site_fract_z
Si Si1 0.502698 0.855565 0.922710
Si Si2 0.017381 0.848710 0.544693
Si Si3 0.044777 0.666373 0.525441
Si Si4 0.665265 0.469814 0.540324
O O1 0.497471 0.778679 0.802047
O O2 0.554486 0.959472 0.839585
O O3 0.572950 0.872598 0.063347
O O4 0.389978 0.817857 0.973577
O O5 0.091029 0.908972 0.416667
O O6 0.001468 0.739308 0.543045
O O7 0.910369 0.840484 0.524229
O O8 0.093183 0.662670 0.675862
O O9 0.610687 0.389314 0.416667
#
# Coordination Sequence:
#
# PCOD8325778 Si02
#       4
#    12  12  12  12
#     4  10  20  34  54  82 113 149 195 250 303 358
#     4  10  18  29  51  86 113 138 181 235 287 349
#     4  10  18  33  56  83 109 145 198 248 296 360
#     4  10  19  34  53  80 114 148 194 251 300 361
#
# _framework density 24.402145000000001
#
# number of rings (size 3 to 8) (size 9 to 14) (size 15 to 20)
#    0.000    2.000    0.000    9.000    0.000    0.000 
#    0.000   15.000    0.000    0.000    0.000  224.000 
#    0.000    0.000    0.000    0.000    0.000    0.000 
#
# Total GULP energy -594716.819899 kJ/mol
# GULP energy per Si atom -12389.933748 kJ/mol
# Density = 2.434660 g / cm^3
# Si number density = 24.402145 Si / 1000 Ang^3
#
#
#
# Elastic Constant Matrix: (Units=GPa)
#
#
# Indices 1 2 3 4 5 6 
#
# 1 135.1071 54.3195 54.4917 0.0000 0.0000 0.0000
# 2 54.3195 135.1071 54.4917 0.0000 0.0000 0.0000
# 3 54.4917 54.4917 45.0979 0.0000 0.0000 0.0000
# 4 0.0000 0.0000 0.0000 18.8501 0.0000 0.0000
# 5 0.0000 0.0000 0.0000 0.0000 18.8501 0.0000
# 6 0.0000 0.0000 0.0000 0.0000 0.0000 40.3938
#
#
#
# Elastic Compliance Matrix: (Units=1/GPa)
#
#
# Indices 1 2 3 4 5 6 
#
# 1 0.014848 0.002470 -0.020926 0.000000 0.000000 0.000000
# 2 0.002470 0.014848 -0.020926 0.000000 0.000000 0.000000
# 3 -0.020926 -0.020926 0.072743 0.000000 0.000000 0.000000
# 4 0.000000 0.000000 0.000000 0.053050 0.000000 0.000000
# 5 0.000000 0.000000 0.000000 0.000000 0.053050 0.000000
# 6 0.000000 0.000000 0.000000 0.000000 0.000000 0.024756
#
#
# Mechanical properties :
#
#
# Convention : Reuss Voigt Hill
#
# Bulk Modulus (GPa) = 42.23548 71.32418 56.77983
# Shear Modulus (GPa) = 15.62742 25.75274 20.69008
#
# Velocity S-wave (km/s) = 2.53338 3.25214 2.91500
# Velocity P-wave (km/s) = 5.08950 6.58741 5.88630
#
# Compressibility (1/GPa) = 0.02367678
#
# Stress axis : x y z
#
# Youngs Moduli (GPa) = 67.34813 67.34813 13.74707
#
# Poissons Ratio (x) = -0.16636 0.28767
# Poissons Ratio (y) = -0.16636 0.28767
# Poissons Ratio (z) = 1.40930 1.40930
#
# Static dielectric constant tensor:
#      x y z
#    x 4.556920 0.000000 0.000000 
#    y 0.000000 4.556920 0.000000 
#    z 0.000000 0.000000 4.161620 
# 
# 
# High freq. dielectric constant tensor:
#      x y z
#    x 1.971300 0.000000 0.000000 
#    y 0.000000 1.971300 0.000000 
#    z 0.000000 0.000000 1.919380 
# 
# From -- ./inp_files/4102.got.cif
#   From: 2010.03.12/outbox.cif.g09.slc.cpg/sg178_3_cif.got.tgz:4102.got - 2010.04.02 07:02:38.
