data_PCOD8325923
_publ_section_title
;
Structure prediction by ZEFSAII (Michael W. Deem and Ramdas Pophale) SiO2 
 PCOD8325923
Probable space group: P 61 2 2
;
_chemical_formula_sum "Si O2"
_cell_formula_units_Z 42
_cell_length_a 11.947036
_cell_length_b 11.947036
_cell_length_c 15.587792
_cell_angle_alpha 90.000000
_cell_angle_beta 90.000000
_cell_angle_gamma 120.000000
_cell_volume 1926.795301
_symmetry_space_group_name_H-M "P 61 2 2"
_symmetry_group_IT_number 178
_symmetry_cell_setting 'hexagonal'
loop_
_space_group_symop_operation_xyz
x,y,z
x-y,x,1/6+z
-y,x-y,1/3+z
-x,-y,1/2+z
-x+y,-x,2/3+z
y,-x+y,5/6+z
x-y,-y,-z
-x,-x+y,2/3-z
y,x,1/3-z
-y,-x,5/6-z
-x+y,y,1/2-z
x,x-y,1/6-z
loop_
_atom_site_type_symbol
_atom_site_label
_atom_site_fract_x
_atom_site_fract_y
_atom_site_fract_z
Si Si1 0.520148 0.601402 0.333946
Si Si2 0.116982 0.000000 0.500000
Si Si3 0.881129 0.651487 0.077678
Si Si4 0.054134 0.694008 0.922622
O O1 0.426300 0.573701 0.416667
O O2 0.554347 0.739425 0.294051
O O3 0.641480 0.586104 0.364668
O O4 0.446306 0.487729 0.265279
O O5 0.132036 0.878208 0.522828
O O6 0.027375 0.972626 0.416667
O O7 0.978268 0.722840 0.998008
O O8 0.204284 0.795717 0.916667
O O9 0.000000 0.708903 0.833334
#
# Coordination Sequence:
#
# PCOD8325923 Si02
#       4
#    12   6  12  12
#     4  10  23  43  69 102 145 190 242 303 364 438
#     4  12  26  42  72 106 144 190 236 302 382 432
#     4  11  23  46  69 104 145 183 250 306 351 456
#     4  11  25  44  70  99 139 187 235 292 365 429
#
# _framework density 21.797854000000001
#
# number of rings (size 3 to 8) (size 9 to 14) (size 15 to 20)
#    0.000    1.143    2.857    3.429    2.000    4.571 
#    0.000    2.857    0.000    0.000    0.000    0.000 
#    0.000    0.000    0.000    0.000    0.000    0.000 
#
# Total GULP energy -520561.729330 kJ/mol
# GULP energy per Si atom -12394.326889 kJ/mol
# Density = 2.174824 g / cm^3
# Si number density = 21.797854 Si / 1000 Ang^3
#
#
#
# Elastic Constant Matrix: (Units=GPa)
#
#
# Indices 1 2 3 4 5 6 
#
# 1 120.7086 52.2149 54.6037 0.0000 0.0000 0.0000
# 2 52.2149 120.7086 54.6037 0.0000 0.0000 0.0000
# 3 54.6037 54.6037 129.5720 0.0000 0.0000 0.0000
# 4 0.0000 0.0000 0.0000 38.4184 0.0000 0.0000
# 5 0.0000 0.0000 0.0000 0.0000 38.4184 0.0000
# 6 0.0000 0.0000 0.0000 0.0000 0.0000 34.2469
#
#
#
# Elastic Compliance Matrix: (Units=1/GPa)
#
#
# Indices 1 2 3 4 5 6 
#
# 1 0.011240 -0.003360 -0.003321 0.000000 0.000000 0.000000
# 2 -0.003360 0.011240 -0.003321 0.000000 0.000000 0.000000
# 3 -0.003321 -0.003321 0.010517 0.000000 0.000000 0.000000
# 4 0.000000 0.000000 0.000000 0.026029 0.000000 0.000000
# 5 0.000000 0.000000 0.000000 0.000000 0.026029 0.000000
# 6 0.000000 0.000000 0.000000 0.000000 0.000000 0.029200
#
#
# Mechanical properties :
#
#
# Convention : Reuss Voigt Hill
#
# Bulk Modulus (GPa) = 76.96093 77.09262 77.02678
# Shear Modulus (GPa) = 36.07793 36.18787 36.13290
#
# Velocity S-wave (km/s) = 4.07272 4.07892 4.07582
# Velocity P-wave (km/s) = 7.58284 7.59127 7.58705
#
# Compressibility (1/GPa) = 0.01299361
#
# Stress axis : x y z
#
# Youngs Moduli (GPa) = 88.96801 88.96801 95.08779
#
# Poissons Ratio (x) = 0.29892 0.31577
# Poissons Ratio (y) = 0.29892 0.31577
# Poissons Ratio (z) = 0.29545 0.29545
#
# Static dielectric constant tensor:
#      x y z
#    x 3.959230 0.000000 0.000000 
#    y 0.000000 3.959230 0.000000 
#    z 0.000000 0.000000 4.251640 
# 
# 
# High freq. dielectric constant tensor:
#      x y z
#    x 1.849560 0.000000 0.000000 
#    y 0.000000 1.849560 0.000000 
#    z 0.000000 0.000000 1.875340 
# 
# From -- ./inp_files/6483.got.cif
#   From: 2010.03.12/outbox.cif.g09.slc.cpg/sg178_4_cif.got.tgz:6483.got - 2010.04.02 07:02:38.
