data_PCOD8325952
_publ_section_title
;
Structure prediction by ZEFSAII (Michael W. Deem and Ramdas Pophale) SiO2 
 PCOD8325952
Probable space group: P 61 2 2
;
_chemical_formula_sum "Si O2"
_cell_formula_units_Z 96
_cell_length_a 16.718184
_cell_length_b 16.718184
_cell_length_c 21.556597
_cell_angle_alpha 90.000000
_cell_angle_beta 90.000000
_cell_angle_gamma 120.000000
_cell_volume 5217.819313
_symmetry_space_group_name_H-M "P 61 2 2"
_symmetry_group_IT_number 178
_symmetry_cell_setting 'hexagonal'
loop_
_space_group_symop_operation_xyz
x,y,z
x-y,x,1/6+z
-y,x-y,1/3+z
-x,-y,1/2+z
-x+y,-x,2/3+z
y,-x+y,5/6+z
x-y,-y,-z
-x,-x+y,2/3-z
y,x,1/3-z
-y,-x,5/6-z
-x+y,y,1/2-z
x,x-y,1/6-z
loop_
_atom_site_type_symbol
_atom_site_label
_atom_site_fract_x
_atom_site_fract_y
_atom_site_fract_z
Si Si1 0.353890 0.691210 0.155547
Si Si2 0.783118 0.948510 0.300577
Si Si3 0.384798 0.390994 0.594394
Si Si4 0.215047 0.688589 0.244111
Si Si5 0.413922 0.320825 0.401259
Si Si6 0.797719 0.014368 0.926925
Si Si7 0.029078 0.877486 0.766739
Si Si8 0.093521 0.532545 0.672605
O O1 0.339090 0.669545 0.083334
O O2 0.254269 0.653590 0.187780
O O3 0.415120 0.654640 0.191032
O O4 0.411563 0.798379 0.168280
O O5 0.695564 0.951822 0.272750
O O6 0.787012 0.858460 0.279708
O O7 0.781954 0.960771 0.375692
O O8 0.872785 0.032247 0.271365
O O9 0.387200 0.387200 0.666667
O O10 0.357926 0.464434 0.569459
O O11 0.314641 0.287097 0.570537
O O12 0.490076 0.428069 0.573676
O O13 0.254635 0.797583 0.240577
O O14 0.442760 0.388622 0.460725
O O15 0.454740 0.393064 0.343478
O O16 0.894120 0.105881 0.916667
O O17 0.793838 0.000000 0.000000
O O18 0.000000 0.822136 0.833334
O O19 0.953867 0.907734 0.750000
#
# Coordination Sequence:
#
# PCOD8325952 Si02
#       8
#    12  12  12  12  12  12  12  12
#     4   9  17  33  58  77 101 146 186 232 282 337
#     4  11  19  34  59  75 114 154 192 236 298 334
#     4  11  22  34  53  81 118 151 179 230 292 354
#     4   9  18  34  52  79 109 134 191 231 270 354
#     4   9  19  35  54  78 102 149 188 232 274 343
#     4  11  24  34  49  84 122 154 189 231 285 359
#     4   9  20  35  53  82 109 149 200 243 284 345
#     4   9  20  35  53  77 113 139 191 228 284 348
#
# _framework density 18.398491
#
# number of rings (size 3 to 8) (size 9 to 14) (size 15 to 20)
#    0.000    2.250    1.250    3.375    3.500    2.500 
#    2.250    0.625    0.000    0.000    6.500    0.000 
#    0.000    0.000    0.000    0.000    0.000    0.000 
#
# Total GULP energy -1189369.400495 kJ/mol
# GULP energy per Si atom -12389.264588 kJ/mol
# Density = 1.835662 g / cm^3
# Si number density = 18.398491 Si / 1000 Ang^3
#
#
#
# Elastic Constant Matrix: (Units=GPa)
#
#
# Indices 1 2 3 4 5 6 
#
# 1 72.3998 30.4988 21.4942 0.0000 0.0000 0.0000
# 2 30.4988 72.3998 21.4942 0.0000 0.0000 0.0000
# 3 21.4942 21.4942 87.3961 0.0000 0.0000 0.0000
# 4 0.0000 0.0000 0.0000 24.5587 0.0000 0.0000
# 5 0.0000 0.0000 0.0000 0.0000 24.5587 0.0000
# 6 0.0000 0.0000 0.0000 0.0000 0.0000 20.9505
#
#
#
# Elastic Compliance Matrix: (Units=1/GPa)
#
#
# Indices 1 2 3 4 5 6 
#
# 1 0.017348 -0.006517 -0.002664 0.000000 0.000000 0.000000
# 2 -0.006517 0.017348 -0.002664 0.000000 0.000000 0.000000
# 3 -0.002664 -0.002664 0.012752 0.000000 0.000000 0.000000
# 4 0.000000 0.000000 0.000000 0.040719 0.000000 0.000000
# 5 0.000000 0.000000 0.000000 0.000000 0.040719 0.000000
# 6 0.000000 0.000000 0.000000 0.000000 0.000000 0.047732
#
#
# Mechanical properties :
#
#
# Convention : Reuss Voigt Hill
#
# Bulk Modulus (GPa) = 42.08840 42.13001 42.10920
# Shear Modulus (GPa) = 24.01211 24.59414 24.30313
#
# Velocity S-wave (km/s) = 3.61655 3.66012 3.63840
# Velocity P-wave (km/s) = 6.35334 6.38830 6.37084
#
# Compressibility (1/GPa) = 0.02375952
#
# Stress axis : x y z
#
# Youngs Moduli (GPa) = 57.64199 57.64199 78.41637
#
# Poissons Ratio (x) = 0.37567 0.20889
# Poissons Ratio (y) = 0.37567 0.20889
# Poissons Ratio (z) = 0.15355 0.15355
#
# Static dielectric constant tensor:
#      x y z
#    x 3.426360 0.000000 0.000000 
#    y 0.000000 3.426360 0.000000 
#    z 0.000000 0.000000 3.551230 
# 
# 
# High freq. dielectric constant tensor:
#      x y z
#    x 1.698240 0.000000 0.000000 
#    y 0.000000 1.698240 0.000000 
#    z 0.000000 0.000000 1.722380 
# 
# From -- ./inp_files/7761.got.cif
#   From: 2010.03.12/outbox.cif.g09.slc.cpg/sg178_4_cif.got.tgz:7761.got - 2010.04.02 07:02:38.
