data_PCOD8325241
_publ_section_title
;
Structure prediction by ZEFSAII (Michael W. Deem and Ramdas Pophale) SiO2 
 PCOD8325241
Probable space group: P 6/M
;
_chemical_formula_sum "Si O2"
_cell_formula_units_Z 46
_cell_length_a 18.105958
_cell_length_b 18.105958
_cell_length_c 7.491589
_cell_angle_alpha 90.000000
_cell_angle_beta 90.000000
_cell_angle_gamma 120.000000
_cell_volume 2126.902551
_symmetry_space_group_name_H-M "P 6/M"
_symmetry_group_IT_number 175
_symmetry_cell_setting 'hexagonal'
loop_
_space_group_symop_operation_xyz
x,y,z
x-y,x,z
-y,x-y,z
-x,-y,z
-x+y,-x,z
y,-x+y,z
-x,-y,-z
-x+y,-x,-z
y,-x+y,-z
x,y,-z
x-y,x,-z
-y,x-y,-z
loop_
_atom_site_type_symbol
_atom_site_label
_atom_site_fract_x
_atom_site_fract_y
_atom_site_fract_z
Si Si1 0.556202 0.594080 0.210770
Si Si2 0.333335 0.666667 0.708342
Si Si3 0.084049 0.751613 0.211908
Si Si4 0.852487 0.806683 0.500000
Si Si5 0.521317 0.735730 0.795561
O O1 0.500000 0.500000 0.296440
O O2 0.654310 0.634944 0.262020
O O3 0.523358 0.655463 0.293630
O O4 0.542511 0.586132 0.000000
O O5 0.333334 0.666668 0.500000
O O6 0.428954 0.726800 0.777450
O O7 0.057700 0.810978 0.319782
O O8 0.175594 0.769780 0.285686
O O9 0.082711 0.768421 0.000000
O O10 0.839609 0.887476 0.500000
O O11 0.545658 0.739082 0.000000
#
# Coordination Sequence:
#
# PCOD8325241 Si02
#       5
#    12   4  12   6  12
#     4   9  17  33  59  90 121 159 209 259 310 372
#     4  12  25  35  52  87 133 173 211 258 301 365
#     4  10  22  42  69  97 126 167 217 268 322 383
#     4  12  27  46  69  96 130 166 208 264 330 400
#     4  10  20  37  60  83 118 165 210 257 313 370
#
# _framework density 21.627694999999999
#
# number of rings (size 3 to 8) (size 9 to 14) (size 15 to 20)
#    0.000    1.826    0.000    4.043    1.826    7.304 
#    2.348    0.652    0.000    1.565    0.000    0.000 
#    0.000    0.000    0.000    0.000    0.000    0.000 
#
# Total GULP energy -570363.823317 kJ/mol
# GULP energy per Si atom -12399.213550 kJ/mol
# Density = 2.157847 g / cm^3
# Si number density = 21.627695 Si / 1000 Ang^3
#
#
#
# Elastic Constant Matrix: (Units=GPa)
#
#
# Indices 1 2 3 4 5 6 
#
# 1 163.9331 65.1425 34.1966 0.0000 0.0000 0.0018
# 2 65.1425 163.9349 34.1963 0.0000 0.0000 0.0009
# 3 34.1966 34.1963 61.9254 0.0000 0.0000 -0.0001
# 4 0.0000 0.0000 0.0000 7.5004 0.0003 0.0000
# 5 0.0000 0.0000 0.0000 0.0003 7.4998 0.0000
# 6 0.0018 0.0009 -0.0001 0.0000 0.0000 49.3963
#
#
#
# Elastic Compliance Matrix: (Units=1/GPa)
#
#
# Indices 1 2 3 4 5 6 
#
# 1 0.007675 -0.002448 -0.002887 0.000000 0.000000 0.000000
# 2 -0.002448 0.007675 -0.002886 0.000000 0.000000 0.000000
# 3 -0.002887 -0.002886 0.019336 0.000000 0.000000 0.000000
# 4 0.000000 0.000000 0.000000 0.133327 -0.000006 0.000000
# 5 0.000000 0.000000 0.000000 -0.000006 0.133337 0.000000
# 6 0.000000 0.000000 0.000000 0.000000 0.000000 0.020244
#
#
# Mechanical properties :
#
#
# Convention : Reuss Voigt Hill
#
# Bulk Modulus (GPa) = 54.81069 72.98492 63.89781
# Shear Modulus (GPa) = 14.52994 29.96316 22.24655
#
# Velocity S-wave (km/s) = 2.59476 3.72614 3.21068
# Velocity P-wave (km/s) = 5.86301 7.23405 6.58431
#
# Compressibility (1/GPa) = 0.01824462
#
# Stress axis : x y z
#
# Youngs Moduli (GPa) = 130.29657 130.29849 51.71577
#
# Poissons Ratio (x) = 0.31892 0.14928
# Poissons Ratio (y) = 0.31891 0.14928
# Poissons Ratio (z) = 0.37611 0.37611
#
# Static dielectric constant tensor:
#      x y z
#    x 4.042640 -0.000010 0.000000 
#    y -0.000010 4.042630 0.000000 
#    z 0.000000 0.000000 3.585540 
# 
# 
# High freq. dielectric constant tensor:
#      x y z
#    x 1.858040 0.000000 0.000000 
#    y 0.000000 1.858040 0.000000 
#    z 0.000000 0.000000 1.831260 
# 
# From -- ./inp_files/543.got.cif
#   From: 2010.03.12/outbox.cif.g09.slc.cpg/sg175_1_cif.got.tgz:543.got - 2010.04.02 06:55:29.
