data_PCOD8325933
_publ_section_title
;
Structure prediction by ZEFSAII (Michael W. Deem and Ramdas Pophale) SiO2 
 PCOD8325933
Probable space group: P 61 2 2
;
_chemical_formula_sum "Si O2"
_cell_formula_units_Z 54
_cell_length_a 12.412211
_cell_length_b 12.412211
_cell_length_c 18.134569
_cell_angle_alpha 90.000000
_cell_angle_beta 90.000000
_cell_angle_gamma 120.000000
_cell_volume 2419.558737
_symmetry_space_group_name_H-M "P 61 2 2"
_symmetry_group_IT_number 178
_symmetry_cell_setting 'hexagonal'
loop_
_space_group_symop_operation_xyz
x,y,z
x-y,x,1/6+z
-y,x-y,1/3+z
-x,-y,1/2+z
-x+y,-x,2/3+z
y,-x+y,5/6+z
x-y,-y,-z
-x,-x+y,2/3-z
y,x,1/3-z
-y,-x,5/6-z
-x+y,y,1/2-z
x,x-y,1/6-z
loop_
_atom_site_type_symbol
_atom_site_label
_atom_site_fract_x
_atom_site_fract_y
_atom_site_fract_z
Si Si1 0.029946 0.727744 0.098448
Si Si2 0.446861 0.553140 0.916667
Si Si3 0.698116 0.253193 0.995347
Si Si4 0.219692 0.915950 0.570440
Si Si5 0.147499 0.740244 0.838620
O O1 0.017473 0.715430 0.187274
O O2 0.985029 0.591044 0.068142
O O3 0.926719 0.764118 0.075973
O O4 0.162508 0.820268 0.062044
O O5 0.395866 0.599468 0.848751
O O6 0.752767 0.247234 0.916667
O O7 0.715222 0.164559 0.051893
O O8 0.556210 0.223254 0.995165
O O9 0.234011 0.000000 0.500000
O O10 0.186441 0.813560 0.916667
O O11 0.000000 0.644202 0.833334
#
# Coordination Sequence:
#
# PCOD8325933 Si02
#       5
#    12   6  12  12  12
#     4  11  26  42  73  99 147 183 246 296 362 430
#     4  10  24  42  70 106 136 182 236 302 370 418
#     4  11  25  42  71 106 143 179 239 300 377 434
#     4  11  23  47  71 104 134 186 243 309 353 427
#     4  12  28  45  68 103 150 197 237 290 366 447
#
# _framework density 22.31812
#
# number of rings (size 3 to 8) (size 9 to 14) (size 15 to 20)
#    0.000    0.889    1.111    5.333   14.000    0.000 
#    0.000    6.667    0.000    0.000    0.000    0.000 
#    0.000    0.000    0.000    0.000    0.000    0.000 
#
# Total GULP energy -669126.335424 kJ/mol
# GULP energy per Si atom -12391.228434 kJ/mol
# Density = 2.226732 g / cm^3
# Si number density = 22.318120 Si / 1000 Ang^3
#
#
#
# Elastic Constant Matrix: (Units=GPa)
#
#
# Indices 1 2 3 4 5 6 
#
# 1 93.4353 39.1708 14.4828 0.0000 0.0000 0.0000
# 2 39.1708 93.4353 14.4828 0.0000 0.0000 0.0000
# 3 14.4828 14.4828 90.5578 0.0000 0.0000 0.0000
# 4 0.0000 0.0000 0.0000 38.0860 0.0000 0.0000
# 5 0.0000 0.0000 0.0000 0.0000 38.0860 0.0000
# 6 0.0000 0.0000 0.0000 0.0000 0.0000 27.1322
#
#
#
# Elastic Compliance Matrix: (Units=1/GPa)
#
#
# Indices 1 2 3 4 5 6 
#
# 1 0.013121 -0.005307 -0.001250 0.000000 0.000000 0.000000
# 2 -0.005307 0.013121 -0.001250 0.000000 0.000000 0.000000
# 3 -0.001250 -0.001250 0.011442 0.000000 0.000000 0.000000
# 4 0.000000 0.000000 0.000000 0.026256 0.000000 0.000000
# 5 0.000000 0.000000 0.000000 0.000000 0.026256 0.000000
# 6 0.000000 0.000000 0.000000 0.000000 0.000000 0.036857
#
#
# Mechanical properties :
#
#
# Convention : Reuss Voigt Hill
#
# Bulk Modulus (GPa) = 45.30664 45.96678 45.63671
# Shear Modulus (GPa) = 33.32794 34.61365 33.97079
#
# Velocity S-wave (km/s) = 3.86853 3.94245 3.90566
# Velocity P-wave (km/s) = 6.34811 6.43154 6.38996
#
# Compressibility (1/GPa) = 0.02207182
#
# Stress axis : x y z
#
# Youngs Moduli (GPa) = 76.21260 76.21260 87.39431
#
# Poissons Ratio (x) = 0.40447 0.10922
# Poissons Ratio (y) = 0.40447 0.10922
# Poissons Ratio (z) = 0.09524 0.09524
#
# Static dielectric constant tensor:
#      x y z
#    x 4.048580 0.000000 0.000000 
#    y 0.000000 4.048580 0.000000 
#    z 0.000000 0.000000 3.647490 
# 
# 
# High freq. dielectric constant tensor:
#      x y z
#    x 1.880050 0.000000 0.000000 
#    y 0.000000 1.880050 0.000000 
#    z 0.000000 0.000000 1.895110 
# 
# From -- ./inp_files/7404.got.cif
#   From: 2010.03.12/outbox.cif.g09.slc.cpg/sg178_4_cif.got.tgz:7404.got - 2010.04.02 07:02:38.
