data_PCOD8325471
_publ_section_title
;
Structure prediction by ZEFSAII (Michael W. Deem and Ramdas Pophale) SiO2 
 PCOD8325471
Probable space group: P 63/M
;
_chemical_formula_sum "Si O2"
_cell_formula_units_Z 72
_cell_length_a 23.498673
_cell_length_b 23.498673
_cell_length_c 8.981274
_cell_angle_alpha 90.000000
_cell_angle_beta 90.000000
_cell_angle_gamma 120.000000
_cell_volume 4294.921726
_symmetry_space_group_name_H-M "P 63/M"
_symmetry_group_IT_number 176
_symmetry_cell_setting 'hexagonal'
loop_
_space_group_symop_operation_xyz
x,y,z
x-y,x,1/2+z
-y,x-y,z
-x,-y,1/2+z
-x+y,-x,z
y,-x+y,1/2+z
-x,-y,-z
-x+y,-x,1/2-z
y,-x+y,-z
x,y,1/2-z
x-y,x,-z
-y,x-y,1/2-z
loop_
_atom_site_type_symbol
_atom_site_label
_atom_site_fract_x
_atom_site_fract_y
_atom_site_fract_z
Si Si1 0.801013 0.066646 0.076627
Si Si2 0.191884 0.257667 0.920109
Si Si3 0.849540 0.257209 0.421148
Si Si4 0.935763 0.404912 0.421317
Si Si5 0.403370 0.264204 0.574194
Si Si6 0.398108 0.929605 0.922501
O O1 0.785707 0.066625 0.250000
O O2 0.877158 0.118032 0.042794
O O3 0.754156 0.086538 0.989279
O O4 0.786624 0.995349 0.026035
O O5 0.198018 0.240482 0.750000
O O6 0.242107 0.334073 0.953662
O O7 0.826892 0.239777 0.250000
O O8 0.875236 0.333049 0.458574
O O9 0.787271 0.213090 0.524131
O O10 0.958309 0.408920 0.250000
O O11 0.911513 0.456695 0.452883
O O12 0.996489 0.418666 0.525118
O O13 0.400242 0.265461 0.750000
O O14 0.457406 0.335337 0.515076
O O15 0.379359 0.924104 0.750000
#
# Coordination Sequence:
#
# PCOD8325471 Si02
#       6
#    12  12  12  12  12  12
#     4  10  20  33  50  72  97 126 159 196 238 283
#     4   9  18  31  48  72 100 126 153 192 239 284
#     4   9  18  33  50  70  97 125 157 197 239 283
#     4   9  18  32  51  74  99 127 157 194 239 284
#     4  11  21  32  48  70  97 129 162 197 238 281
#     4  10  19  31  49  73 100 129 160 194 235 283
#
# _framework density 16.763985000000002
#
# number of rings (size 3 to 8) (size 9 to 14) (size 15 to 20)
#    0.000    2.333    0.000    4.500    0.000    6.000 
#    0.000    0.000    0.000    1.000    0.000    2.333 
#    0.000    0.000    0.000    0.000    0.000    0.000 
#
# Total GULP energy -893029.251094 kJ/mol
# GULP energy per Si atom -12403.184043 kJ/mol
# Density = 1.672583 g / cm^3
# Si number density = 16.763985 Si / 1000 Ang^3
#
#
#
# Elastic Constant Matrix: (Units=GPa)
#
#
# Indices 1 2 3 4 5 6 
#
# 1 105.0951 57.7276 58.9494 0.0000 0.0000 0.0000
# 2 57.7276 105.0951 58.9494 0.0000 0.0000 0.0000
# 3 58.9494 58.9494 111.4097 0.0000 0.0000 0.0000
# 4 0.0000 0.0000 0.0000 28.6841 0.0000 0.0000
# 5 0.0000 0.0000 0.0000 0.0000 28.6841 0.0000
# 6 0.0000 0.0000 0.0000 0.0000 0.0000 23.6838
#
#
#
# Elastic Compliance Matrix: (Units=1/GPa)
#
#
# Indices 1 2 3 4 5 6 
#
# 1 0.015534 -0.005578 -0.005268 0.000000 0.000000 0.000000
# 2 -0.005578 0.015534 -0.005268 0.000000 0.000000 0.000000
# 3 -0.005268 -0.005268 0.014551 0.000000 0.000000 0.000000
# 4 0.000000 0.000000 0.000000 0.034863 0.000000 0.000000
# 5 0.000000 0.000000 0.000000 0.000000 0.034863 0.000000
# 6 0.000000 0.000000 0.000000 0.000000 0.000000 0.042223
#
#
# Mechanical properties :
#
#
# Convention : Reuss Voigt Hill
#
# Bulk Modulus (GPa) = 74.67720 74.76143 74.71931
# Shear Modulus (GPa) = 25.73899 25.94195 25.84047
#
# Velocity S-wave (km/s) = 3.92264 3.93807 3.93036
# Velocity P-wave (km/s) = 8.07211 8.08524 8.07868
#
# Compressibility (1/GPa) = 0.01339097
#
# Stress axis : x y z
#
# Youngs Moduli (GPa) = 64.37550 64.37550 68.72480
#
# Poissons Ratio (x) = 0.35906 0.36205
# Poissons Ratio (y) = 0.35906 0.36205
# Poissons Ratio (z) = 0.33913 0.33913
#
# Static dielectric constant tensor:
#      x y z
#    x 3.068680 0.000000 0.000000 
#    y 0.000000 3.068680 0.000000 
#    z 0.000000 0.000000 3.174640 
# 
# 
# High freq. dielectric constant tensor:
#      x y z
#    x 1.634580 0.000000 0.000000 
#    y 0.000000 1.634580 0.000000 
#    z 0.000000 0.000000 1.654260 
# 
# From -- ./inp_files/1155.got.cif
#   From: 2010.06.25/outbox.cif.g09.slc.cpg/sg176_1_cif.got.tgz:1155.got - 2010.06.28 12:15:01.
