data_PCOD8325143
_publ_section_title
;
Structure prediction by ZEFSAII (Michael W. Deem and Ramdas Pophale) SiO2 
 PCOD8325143
Probable space group: P 6/M
;
_chemical_formula_sum "Si O2"
_cell_formula_units_Z 54
_cell_length_a 11.344903
_cell_length_b 11.344903
_cell_length_c 23.398863
_cell_angle_alpha 90.000000
_cell_angle_beta 90.000000
_cell_angle_gamma 120.000000
_cell_volume 2608.116342
_symmetry_space_group_name_H-M "P 6/M"
_symmetry_group_IT_number 175
_symmetry_cell_setting 'hexagonal'
loop_
_space_group_symop_operation_xyz
x,y,z
x-y,x,z
-y,x-y,z
-x,-y,z
-x+y,-x,z
y,-x+y,z
-x,-y,-z
-x+y,-x,-z
y,-x+y,-z
x,y,-z
x-y,x,-z
-y,x-y,-z
loop_
_atom_site_type_symbol
_atom_site_label
_atom_site_fract_x
_atom_site_fract_y
_atom_site_fract_z
Si Si1 0.203723 0.702657 0.564215
Si Si2 0.092000 0.781002 0.668372
Si Si3 0.778567 0.686873 0.876409
Si Si4 0.089961 0.782935 0.000000
Si Si5 0.505570 0.195701 0.772721
O O1 0.186811 0.552165 0.573200
O O2 0.158990 0.714985 0.500000
O O3 0.110462 0.728113 0.607343
O O4 0.119684 0.700247 0.717477
O O5 0.940639 0.751526 0.674883
O O6 0.748414 0.809386 0.867890
O O7 0.726844 0.613759 0.939453
O O8 0.694850 0.571962 0.830283
O O9 0.941740 0.759811 0.000000
O O10 0.645345 0.189301 0.771585
#
# Coordination Sequence:
#
# PCOD8325143 Si02
#       5
#    12  12  12   6  12
#     4   8  18  39  63  93 119 148 196 239 274 314
#     4  12  25  40  60  86 118 152 187 232 287 346
#     4  10  19  34  58  86 117 148 184 231 280 334
#     4   8  15  28  50  82 114 148 185 222 270 326
#     4  10  24  42  57  83 107 147 192 238 286 336
#
# _framework density 20.704597
#
# number of rings (size 3 to 8) (size 9 to 14) (size 15 to 20)
#    0.889    1.333    0.000    3.222    0.000    8.889 
#    0.000    5.556    0.000    5.333    0.000    0.000 
#    0.000    0.000    0.000    0.000    0.000    0.000 
#
# Total GULP energy -669125.054530 kJ/mol
# GULP energy per Si atom -12391.204714 kJ/mol
# Density = 2.065747 g / cm^3
# Si number density = 20.704597 Si / 1000 Ang^3
#
#
#
# Elastic Constant Matrix: (Units=GPa)
#
#
# Indices 1 2 3 4 5 6 
#
# 1 49.4893 -20.1402 15.7197 0.0000 0.0000 0.0000
# 2 -20.1402 49.4893 15.7197 0.0000 0.0000 0.0000
# 3 15.7197 15.7197 144.6511 0.0000 0.0000 0.0000
# 4 0.0000 0.0000 0.0000 1.8001 0.0000 0.0000
# 5 0.0000 0.0000 0.0000 0.0000 1.8001 0.0000
# 6 0.0000 0.0000 0.0000 0.0000 0.0000 34.8148
#
#
#
# Elastic Compliance Matrix: (Units=1/GPa)
#
#
# Indices 1 2 3 4 5 6 
#
# 1 0.026462 0.012100 -0.004191 0.000000 0.000000 0.000000
# 2 0.012100 0.026462 -0.004191 0.000000 0.000000 0.000000
# 3 -0.004191 -0.004191 0.007824 0.000000 0.000000 0.000000
# 4 0.000000 0.000000 0.000000 0.555538 0.000000 0.000000
# 5 0.000000 0.000000 0.000000 0.000000 0.555538 0.000000
# 6 0.000000 0.000000 0.000000 0.000000 0.000000 0.028723
#
#
# Mechanical properties :
#
#
# Convention : Reuss Voigt Hill
#
# Bulk Modulus (GPa) = 14.66604 29.58093 22.12349
# Shear Modulus (GPa) = 4.11239 23.17167 13.64203
#
# Velocity S-wave (km/s) = 1.41086 3.34901 2.56967
# Velocity P-wave (km/s) = 3.12296 5.41042 4.41732
#
# Compressibility (1/GPa) = 0.06818471
#
# Stress axis : x y z
#
# Youngs Moduli (GPa) = 37.79052 37.79052 127.81174
#
# Poissons Ratio (x) = -0.45726 0.53561
# Poissons Ratio (y) = -0.45726 0.53561
# Poissons Ratio (z) = 0.15837 0.15837
#
# Static dielectric constant tensor:
#      x y z
#    x 3.498250 0.000000 0.000000 
#    y 0.000000 3.498250 0.000000 
#    z 0.000000 0.000000 4.116280 
# 
# 
# High freq. dielectric constant tensor:
#      x y z
#    x 1.792400 0.000000 0.000000 
#    y 0.000000 1.792400 0.000000 
#    z 0.000000 0.000000 1.831980 
# 
# From -- ./inp_files/3063.got.cif
#   From: 2010.03.12/outbox.cif.g09.slc.cpg/sg175_2_cif.got.tgz:3063.got - 2010.04.02 06:55:29.
