data_PCOD8325862
_publ_section_title
;
Structure prediction by ZEFSAII (Michael W. Deem and Ramdas Pophale) SiO2 
 PCOD8325862
Probable space group: P 61 2 2
;
_chemical_formula_sum "Si O2"
_cell_formula_units_Z 42
_cell_length_a 21.514710
_cell_length_b 21.514710
_cell_length_c 5.041855
_cell_angle_alpha 90.000000
_cell_angle_beta 90.000000
_cell_angle_gamma 120.000000
_cell_volume 2021.119426
_symmetry_space_group_name_H-M "P 61 2 2"
_symmetry_group_IT_number 178
_symmetry_cell_setting 'hexagonal'
loop_
_space_group_symop_operation_xyz
x,y,z
x-y,x,1/6+z
-y,x-y,1/3+z
-x,-y,1/2+z
-x+y,-x,2/3+z
y,-x+y,5/6+z
x-y,-y,-z
-x,-x+y,2/3-z
y,x,1/3-z
-y,-x,5/6-z
-x+y,y,1/2-z
x,x-y,1/6-z
loop_
_atom_site_type_symbol
_atom_site_label
_atom_site_fract_x
_atom_site_fract_y
_atom_site_fract_z
Si Si1 0.253781 0.126891 0.083334
Si Si2 0.746693 0.373347 0.583334
Si Si3 0.291082 0.339822 0.412192
Si Si4 0.528367 0.806843 0.841165
Si Si5 0.080691 0.161382 0.750000
O O1 0.301221 0.093118 0.171991
O O2 0.207833 0.126892 0.333942
O O3 0.696159 0.392317 0.750000
O O4 0.795198 0.346705 0.736906
O O5 0.301470 0.301470 0.666667
O O6 0.314340 0.421750 0.480217
O O7 0.338030 0.338030 0.166667
O O8 0.532472 0.766236 0.583334
O O9 0.554614 0.777307 0.083334
O O10 0.111322 0.111322 0.666667
#
# Coordination Sequence:
#
# PCOD8325862 Si02
#       5
#     6   6  12  12   6
#     4  12  24  43  62  90 114 164 214 268 312 374
#     4  10  20  40  69 102 136 170 224 278 324 374
#     4  12  25  42  64  94 131 172 218 269 331 396
#     4  11  23  41  66 100 135 172 222 274 330 384
#     4  12  26  43  61  84 116 152 202 260 330 396
#
# _framework density 20.780560999999999
#
# number of rings (size 3 to 8) (size 9 to 14) (size 15 to 20)
#    0.000    0.571    2.857    6.857    2.000    1.143 
#    0.000    1.429    0.000    0.000    0.000    0.000 
#    0.000    0.000    0.000    0.000    0.000    0.000 
#
# Total GULP energy -520814.329677 kJ/mol
# GULP energy per Si atom -12400.341183 kJ/mol
# Density = 2.073326 g / cm^3
# Si number density = 20.780561 Si / 1000 Ang^3
#
#
#
# Elastic Constant Matrix: (Units=GPa)
#
#
# Indices 1 2 3 4 5 6 
#
# 1 128.3056 82.2001 47.2959 0.0000 0.0000 0.0000
# 2 82.2001 128.3056 47.2959 0.0000 0.0000 0.0000
# 3 47.2959 47.2959 142.9574 0.0000 0.0000 0.0000
# 4 0.0000 0.0000 0.0000 36.9952 0.0000 0.0000
# 5 0.0000 0.0000 0.0000 0.0000 36.9952 0.0000
# 6 0.0000 0.0000 0.0000 0.0000 0.0000 23.0528
#
#
#
# Elastic Compliance Matrix: (Units=1/GPa)
#
#
# Indices 1 2 3 4 5 6 
#
# 1 0.013635 -0.008055 -0.001846 0.000000 0.000000 0.000000
# 2 -0.008055 0.013635 -0.001846 0.000000 0.000000 0.000000
# 3 -0.001846 -0.001846 0.008217 0.000000 0.000000 0.000000
# 4 0.000000 0.000000 0.000000 0.027031 0.000000 0.000000
# 5 0.000000 0.000000 0.000000 0.000000 0.027031 0.000000
# 6 0.000000 0.000000 0.000000 0.000000 0.000000 0.043379
#
#
# Mechanical properties :
#
#
# Convention : Reuss Voigt Hill
#
# Bulk Modulus (GPa) = 83.38691 83.68357 83.53524
# Shear Modulus (GPa) = 31.16877 34.26041 32.71459
#
# Velocity S-wave (km/s) = 3.87706 4.06479 3.97203
# Velocity P-wave (km/s) = 7.76251 7.89858 7.83084
#
# Compressibility (1/GPa) = 0.01199229
#
# Stress axis : x y z
#
# Youngs Moduli (GPa) = 73.34229 73.34229 121.70481
#
# Poissons Ratio (x) = 0.59075 0.22468
# Poissons Ratio (y) = 0.59075 0.22468
# Poissons Ratio (z) = 0.13540 0.13540
#
# Static dielectric constant tensor:
#      x y z
#    x 4.116550 0.000000 0.000000 
#    y 0.000000 4.116550 0.000000 
#    z 0.000000 0.000000 3.175750 
# 
# 
# High freq. dielectric constant tensor:
#      x y z
#    x 1.813150 0.000000 0.000000 
#    y 0.000000 1.813150 0.000000 
#    z 0.000000 0.000000 1.826020 
# 
# From -- ./inp_files/841.got.cif
#   From: 2010.03.12/outbox.cif.g09.slc.cpg/sg178_1_cif.got.tgz:841.got - 2010.04.02 07:02:38.
