data_PCOD8325591
_publ_section_title
;
Structure prediction by ZEFSAII (Michael W. Deem and Ramdas Pophale) SiO2 
 PCOD8325591
Probable space group: P 63/M
;
_chemical_formula_sum "Si O2"
_cell_formula_units_Z 72
_cell_length_a 15.241219
_cell_length_b 15.241219
_cell_length_c 18.421800
_cell_angle_alpha 90.000000
_cell_angle_beta 90.000000
_cell_angle_gamma 120.000000
_cell_volume 3705.971726
_symmetry_space_group_name_H-M "P 63/M"
_symmetry_group_IT_number 176
_symmetry_cell_setting 'hexagonal'
loop_
_space_group_symop_operation_xyz
x,y,z
x-y,x,1/2+z
-y,x-y,z
-x,-y,1/2+z
-x+y,-x,z
y,-x+y,1/2+z
-x,-y,-z
-x+y,-x,1/2-z
y,-x+y,-z
x,y,1/2-z
x-y,x,-z
-y,x-y,1/2-z
loop_
_atom_site_type_symbol
_atom_site_label
_atom_site_fract_x
_atom_site_fract_y
_atom_site_fract_z
Si Si1 0.548586 0.319739 0.452837
Si Si2 0.179810 0.456266 0.396278
Si Si3 0.228291 0.162947 0.579966
Si Si4 0.779508 0.842500 0.587785
Si Si5 0.325093 0.914833 0.834612
Si Si6 0.483934 0.875655 0.333482
O O1 0.573184 0.227566 0.455844
O O2 0.477314 0.310942 0.519841
O O3 0.494341 0.312808 0.377432
O O4 0.118785 0.336244 0.378698
O O5 0.134634 0.509696 0.345838
O O6 0.298691 0.504363 0.381074
O O7 0.158252 0.206963 0.607655
O O8 0.255933 0.184245 0.495196
O O9 0.162100 0.043907 0.597391
O O10 0.699941 0.763683 0.643716
O O11 0.318002 0.889394 0.750000
O O12 0.431667 0.011769 0.856041
O O13 0.496266 0.854509 0.250000
#
# Coordination Sequence:
#
# PCOD8325591 Si02
#       6
#    12  12  12  12  12  12
#     4  10  22  41  63  88 119 160 214 258 312 370
#     4  12  20  40  66 100 125 164 212 259 321 384
#     4  10  21  36  69  95 126 166 211 265 320 379
#     4  10  20  40  60  97 128 161 211 265 321 374
#     4  11  24  41  60  86 128 170 209 264 318 369
#     4  11  24  40  62  95 133 166 199 258 329 386
#
# _framework density 19.428103
#
# number of rings (size 3 to 8) (size 9 to 14) (size 15 to 20)
#    0.333    1.000    5.000    1.167    0.000    4.000 
#    0.000    4.167    0.000    0.000    0.000    0.000 
#    0.000    0.000    0.000    0.000    0.000    0.000 
#
# Total GULP energy -892948.135462 kJ/mol
# GULP energy per Si atom -12402.057437 kJ/mol
# Density = 1.938388 g / cm^3
# Si number density = 19.428103 Si / 1000 Ang^3
#
#
#
# Elastic Constant Matrix: (Units=GPa)
#
#
# Indices 1 2 3 4 5 6 
#
# 1 104.0964 37.5679 30.6045 0.0000 0.0000 0.0000
# 2 37.5679 104.0964 30.6045 0.0000 0.0000 0.0000
# 3 30.6045 30.6045 70.0306 0.0000 0.0000 0.0000
# 4 0.0000 0.0000 0.0000 21.5179 0.0000 0.0000
# 5 0.0000 0.0000 0.0000 0.0000 21.5179 0.0000
# 6 0.0000 0.0000 0.0000 0.0000 0.0000 33.2642
#
#
#
# Elastic Compliance Matrix: (Units=1/GPa)
#
#
# Indices 1 2 3 4 5 6 
#
# 1 0.011867 -0.003165 -0.003803 0.000000 0.000000 0.000000
# 2 -0.003165 0.011867 -0.003803 0.000000 0.000000 0.000000
# 3 -0.003803 -0.003803 0.017603 0.000000 0.000000 0.000000
# 4 0.000000 0.000000 0.000000 0.046473 0.000000 0.000000
# 5 0.000000 0.000000 0.000000 0.000000 0.046473 0.000000
# 6 0.000000 0.000000 0.000000 0.000000 0.000000 0.030062
#
#
# Mechanical properties :
#
#
# Convention : Reuss Voigt Hill
#
# Bulk Modulus (GPa) = 50.51591 52.86411 51.69001
# Shear Modulus (GPa) = 25.97614 27.22310 26.59962
#
# Velocity S-wave (km/s) = 3.66052 3.74735 3.70419
# Velocity P-wave (km/s) = 6.62750 6.78179 6.70509
#
# Compressibility (1/GPa) = 0.01979575
#
# Stress axis : x y z
#
# Youngs Moduli (GPa) = 84.26999 84.26999 56.80734
#
# Poissons Ratio (x) = 0.26668 0.21604
# Poissons Ratio (y) = 0.26668 0.21604
# Poissons Ratio (z) = 0.32047 0.32047
#
# Static dielectric constant tensor:
#      x y z
#    x 3.512840 0.000000 0.000000 
#    y 0.000000 3.512840 0.000000 
#    z 0.000000 0.000000 3.330640 
# 
# 
# High freq. dielectric constant tensor:
#      x y z
#    x 1.759600 0.000000 0.000000 
#    y 0.000000 1.759600 0.000000 
#    z 0.000000 0.000000 1.742220 
# 
# From -- ./inp_files/3376.got.cif
#   From: 2010.06.25/outbox.cif.g09.slc.cpg/sg176_2_cif.got.tgz:3376.got - 2010.06.28 12:15:01.
