data_PCOD8325814
_publ_section_title
;
Structure prediction by ZEFSAII (Michael W. Deem and Ramdas Pophale) SiO2 
 PCOD8325814
Probable space group: P 61 2 2
;
_chemical_formula_sum "Si O2"
_cell_formula_units_Z 42
_cell_length_a 12.163027
_cell_length_b 12.163027
_cell_length_c 17.989732
_cell_angle_alpha 90.000000
_cell_angle_beta 90.000000
_cell_angle_gamma 120.000000
_cell_volume 2304.828773
_symmetry_space_group_name_H-M "P 61 2 2"
_symmetry_group_IT_number 178
_symmetry_cell_setting 'hexagonal'
loop_
_space_group_symop_operation_xyz
x,y,z
x-y,x,1/6+z
-y,x-y,1/3+z
-x,-y,1/2+z
-x+y,-x,2/3+z
y,-x+y,5/6+z
x-y,-y,-z
-x,-x+y,2/3-z
y,x,1/3-z
-y,-x,5/6-z
-x+y,y,1/2-z
x,x-y,1/6-z
loop_
_atom_site_type_symbol
_atom_site_label
_atom_site_fract_x
_atom_site_fract_y
_atom_site_fract_z
Si Si1 0.324056 0.888222 0.645404
Si Si2 0.708132 0.354066 0.583334
Si Si3 0.516036 0.940821 0.426315
Si Si4 0.075298 0.411146 0.562729
O O1 0.371023 0.795247 0.678740
O O2 0.194950 0.806200 0.599094
O O3 0.424065 0.986855 0.587385
O O4 0.310964 0.965440 0.716048
O O5 0.621753 0.414801 0.604108
O O6 0.610660 0.966992 0.357062
O O7 0.601169 0.000000 0.500000
O O8 0.112373 0.556187 0.583334
#
# Coordination Sequence:
#
# PCOD8325814 Si02
#       4
#    12   6  12  12
#     4  10  19  36  53  75 115 153 180 224 286 327
#     4  10  20  36  50  76 122 142 182 226 276 340
#     4  10  21  30  50  80 107 149 185 220 280 330
#     4   9  19  36  52  78 113 151 182 225 282 332
#
# _framework density 18.222612000000002
#
# number of rings (size 3 to 8) (size 9 to 14) (size 15 to 20)
#    0.000    2.286    4.286    0.000   12.000    0.000 
#    0.000    0.000    0.000    0.000    0.000    0.000 
#   68.571    0.000    0.000    0.000    0.000    0.000 
#
# Total GULP energy -520499.383522 kJ/mol
# GULP energy per Si atom -12392.842465 kJ/mol
# Density = 1.818114 g / cm^3
# Si number density = 18.222612 Si / 1000 Ang^3
#
#
#
# Elastic Constant Matrix: (Units=GPa)
#
#
# Indices 1 2 3 4 5 6 
#
# 1 98.1293 34.3061 23.1809 0.0000 0.0000 0.0000
# 2 34.3061 98.1293 23.1809 0.0000 0.0000 0.0000
# 3 23.1809 23.1809 75.1106 0.0000 0.0000 0.0000
# 4 0.0000 0.0000 0.0000 19.6342 0.0000 0.0000
# 5 0.0000 0.0000 0.0000 0.0000 19.6342 0.0000
# 6 0.0000 0.0000 0.0000 0.0000 0.0000 31.9116
#
#
#
# Elastic Compliance Matrix: (Units=1/GPa)
#
#
# Indices 1 2 3 4 5 6 
#
# 1 0.012067 -0.003601 -0.002613 0.000000 0.000000 0.000000
# 2 -0.003601 0.012067 -0.002613 0.000000 0.000000 0.000000
# 3 -0.002613 -0.002613 0.014926 0.000000 0.000000 0.000000
# 4 0.000000 0.000000 0.000000 0.050931 0.000000 0.000000
# 5 0.000000 0.000000 0.000000 0.000000 0.050931 0.000000
# 6 0.000000 0.000000 0.000000 0.000000 0.000000 0.031337
#
#
# Mechanical properties :
#
#
# Convention : Reuss Voigt Hill
#
# Bulk Modulus (GPa) = 46.71433 48.07833 47.39633
# Shear Modulus (GPa) = 25.37445 26.94942 26.16193
#
# Velocity S-wave (km/s) = 3.73563 3.84982 3.79315
# Velocity P-wave (km/s) = 6.65564 6.79725 6.72682
#
# Compressibility (1/GPa) = 0.02140671
#
# Stress axis : x y z
#
# Youngs Moduli (GPa) = 82.87145 82.87145 66.99566
#
# Poissons Ratio (x) = 0.29846 0.17504
# Poissons Ratio (y) = 0.29846 0.17504
# Poissons Ratio (z) = 0.21651 0.21651
#
# Static dielectric constant tensor:
#      x y z
#    x 3.289910 0.000000 0.000000 
#    y 0.000000 3.289910 0.000000 
#    z 0.000000 0.000000 3.638660 
# 
# 
# High freq. dielectric constant tensor:
#      x y z
#    x 1.676210 0.000000 0.000000 
#    y 0.000000 1.676210 0.000000 
#    z 0.000000 0.000000 1.719740 
# 
# From -- ./inp_files/6372.got.cif
#   From: 2010.03.12/outbox.cif.g09.slc.cpg/sg178_4_cif.got.tgz:6372.got - 2010.04.02 07:02:38.
