data_PCOD8325647
_publ_section_title
;
Structure prediction by ZEFSAII (Michael W. Deem and Ramdas Pophale) SiO2 
 PCOD8325647
Probable space group: P 63/M
;
_chemical_formula_sum "Si O2"
_cell_formula_units_Z 66
_cell_length_a 20.791083
_cell_length_b 20.791083
_cell_length_c 7.890378
_cell_angle_alpha 90.000000
_cell_angle_beta 90.000000
_cell_angle_gamma 120.000000
_cell_volume 2953.810740
_symmetry_space_group_name_H-M "P 63/M"
_symmetry_group_IT_number 176
_symmetry_cell_setting 'hexagonal'
loop_
_space_group_symop_operation_xyz
x,y,z
x-y,x,1/2+z
-y,x-y,z
-x,-y,1/2+z
-x+y,-x,z
y,-x+y,1/2+z
-x,-y,-z
-x+y,-x,1/2-z
y,-x+y,-z
x,y,1/2-z
x-y,x,-z
-y,x-y,1/2-z
loop_
_atom_site_type_symbol
_atom_site_label
_atom_site_fract_x
_atom_site_fract_y
_atom_site_fract_z
Si Si1 0.382208 0.427557 0.442241
Si Si2 0.483603 0.256998 0.560568
Si Si3 0.755382 0.715249 0.951855
Si Si4 0.732543 0.305759 0.250000
Si Si5 0.512472 0.414267 0.944396
Si Si6 0.317755 0.190713 0.445313
O O1 0.363170 0.433332 0.250000
O O2 0.304004 0.367231 0.524339
O O3 0.418496 0.510198 0.523908
O O4 0.438105 0.395230 0.454396
O O5 0.498949 0.236444 0.750000
O O6 0.521084 0.231088 0.416772
O O7 0.526276 0.345939 0.540708
O O8 0.395317 0.222121 0.544152
O O9 0.759554 0.717777 0.750000
O O10 0.730420 0.773374 0.016875
O O11 0.834441 0.732807 0.027830
O O12 0.748930 0.390563 0.250000
O O13 0.500782 0.430318 0.750000
O O14 0.336707 0.211737 0.250000
#
# Coordination Sequence:
#
# PCOD8325647 Si02
#       6
#    12  12  12   6  12  12
#     4   9  17  32  53  82 121 159 203 259 318 379
#     4  11  22  40  68  92 127 173 222 282 341 395
#     4  10  22  39  62  93 130 171 215 273 335 401
#     4  10  26  46  62  90 126 172 236 282 326 388
#     4   9  18  30  52  87 120 160 207 259 321 379
#     4  11  23  41  66  97 134 171 218 272 334 405
#
# _framework density 22.344017000000001
#
# number of rings (size 3 to 8) (size 9 to 14) (size 15 to 20)
#    0.182    1.818    2.727    0.545    1.273    4.364 
#    0.000    1.818    0.000    0.364    0.000    0.000 
#    0.000    0.000    0.000    0.000    0.000    0.000 
#
# Total GULP energy -817903.300320 kJ/mol
# GULP energy per Si atom -12392.474247 kJ/mol
# Density = 2.229316 g / cm^3
# Si number density = 22.344017 Si / 1000 Ang^3
#
#
#
# Elastic Constant Matrix: (Units=GPa)
#
#
# Indices 1 2 3 4 5 6 
#
# 1 89.0275 36.6734 19.8990 0.0000 0.0000 0.0000
# 2 36.6734 89.0275 19.8990 0.0000 0.0000 0.0000
# 3 19.8990 19.8990 80.7190 0.0000 0.0000 0.0000
# 4 0.0000 0.0000 0.0000 20.9922 0.0000 0.0000
# 5 0.0000 0.0000 0.0000 0.0000 20.9922 0.0000
# 6 0.0000 0.0000 0.0000 0.0000 0.0000 26.1771
#
#
#
# Elastic Compliance Matrix: (Units=1/GPa)
#
#
# Indices 1 2 3 4 5 6 
#
# 1 0.013865 -0.005236 -0.002127 0.000000 0.000000 0.000000
# 2 -0.005236 0.013865 -0.002127 0.000000 0.000000 0.000000
# 3 -0.002127 -0.002127 0.013437 0.000000 0.000000 0.000000
# 4 0.000000 0.000000 0.000000 0.047637 0.000000 0.000000
# 5 0.000000 0.000000 0.000000 0.000000 0.047637 0.000000
# 6 0.000000 0.000000 0.000000 0.000000 0.000000 0.038201
#
#
# Mechanical properties :
#
#
# Convention : Reuss Voigt Hill
#
# Bulk Modulus (GPa) = 45.07268 45.74633 45.40951
# Shear Modulus (GPa) = 24.87339 25.78580 25.32960
#
# Velocity S-wave (km/s) = 3.34009 3.40080 3.37058
# Velocity P-wave (km/s) = 5.92375 5.99488 5.95942
#
# Compressibility (1/GPa) = 0.02218639
#
# Stress axis : x y z
#
# Youngs Moduli (GPa) = 72.12513 72.12513 74.41879
#
# Poissons Ratio (x) = 0.37764 0.15830
# Poissons Ratio (y) = 0.37764 0.15830
# Poissons Ratio (z) = 0.15343 0.15343
#
# Static dielectric constant tensor:
#      x y z
#    x 3.999980 0.000000 0.000000 
#    y 0.000000 3.999980 0.000000 
#    z 0.000000 0.000000 3.831440 
# 
# 
# High freq. dielectric constant tensor:
#      x y z
#    x 1.864780 0.000000 0.000000 
#    y 0.000000 1.864780 0.000000 
#    z 0.000000 0.000000 1.868660 
# 
# From -- ./inp_files/988.got.cif
#   From: 2010.06.25/outbox.cif.g09.slc.cpg/sg176_1_cif.got.tgz:988.got - 2010.06.28 12:15:01.
