data_PCOD8325725
_publ_section_title
;
Structure prediction by ZEFSAII (Michael W. Deem and Ramdas Pophale) SiO2 
 PCOD8325725
Probable space group: P 63/M
;
_chemical_formula_sum "Si O2"
_cell_formula_units_Z 72
_cell_length_a 22.715759
_cell_length_b 22.715759
_cell_length_c 9.890886
_cell_angle_alpha 90.000000
_cell_angle_beta 90.000000
_cell_angle_gamma 120.000000
_cell_volume 4419.980292
_symmetry_space_group_name_H-M "P 63/M"
_symmetry_group_IT_number 176
_symmetry_cell_setting 'hexagonal'
loop_
_space_group_symop_operation_xyz
x,y,z
x-y,x,1/2+z
-y,x-y,z
-x,-y,1/2+z
-x+y,-x,z
y,-x+y,1/2+z
-x,-y,-z
-x+y,-x,1/2-z
y,-x+y,-z
x,y,1/2-z
x-y,x,-z
-y,x-y,1/2-z
loop_
_atom_site_type_symbol
_atom_site_label
_atom_site_fract_x
_atom_site_fract_y
_atom_site_fract_z
Si Si1 0.333909 0.530590 0.905796
Si Si2 0.469410 0.666091 0.594204
Si Si3 0.062025 0.260746 0.093063
Si Si4 0.260746 0.062025 0.906937
Si Si5 0.413603 0.136946 0.899541
Si Si6 0.863054 0.586397 0.600459
O O1 0.335695 0.512295 0.750000
O O2 0.271733 0.543465 0.934668
O O3 0.401870 0.598130 0.949349
O O4 0.328423 0.468146 0.993275
O O5 0.487705 0.664305 0.750000
O O6 0.531854 0.671577 0.506725
O O7 0.041719 0.244864 0.250000
O O8 0.125058 0.250116 0.059066
O O9 0.080127 0.337647 0.058027
O O10 1.000000 0.209131 1.000000
O O11 0.244864 0.041719 0.750000
O O12 0.337647 0.080127 0.941973
O O13 0.431183 0.121064 0.750000
O O14 0.416399 0.208200 0.895998
O O15 0.878936 0.568817 0.750000
#
# Coordination Sequence:
#
# PCOD8325725 Si02
#       6
#    12  12  12  12  12  12
#     4   9  16  25  38  58  85 116 150 189 232 275
#     4   9  16  25  38  58  85 116 150 189 232 275
#     4   9  18  32  50  73  98 120 144 177 215 254
#     4   9  18  32  50  73  98 120 144 177 215 254
#     4   8  15  28  43  60  85 115 146 182 222 261
#     4   8  15  28  43  60  85 115 146 182 222 261
#
# _framework density 16.289664999999999
#
# number of rings (size 3 to 8) (size 9 to 14) (size 15 to 20)
#    0.000    3.333    0.000    2.333    0.000    4.000 
#    0.000    3.333    0.000    3.333    0.000    0.000 
#    0.000    0.000    0.000    0.000    0.000    0.000 
#
# Total GULP energy -892498.438501 kJ/mol
# GULP energy per Si atom -12395.811646 kJ/mol
# Density = 1.625259 g / cm^3
# Si number density = 16.289665 Si / 1000 Ang^3
#
#
#
# Elastic Constant Matrix: (Units=GPa)
#
#
# Indices 1 2 3 4 5 6 
#
# 1 79.6959 41.0119 60.4118 0.0000 0.0000 0.0000
# 2 41.0119 79.6959 60.4118 0.0000 0.0000 0.0000
# 3 60.4118 60.4118 93.5531 0.0000 0.0000 0.0000
# 4 0.0000 0.0000 0.0000 29.7242 0.0000 0.0000
# 5 0.0000 0.0000 0.0000 0.0000 29.7242 0.0000
# 6 0.0000 0.0000 0.0000 0.0000 0.0000 19.3420
#
#
#
# Elastic Compliance Matrix: (Units=1/GPa)
#
#
# Indices 1 2 3 4 5 6 
#
# 1 0.024639 -0.001212 -0.015128 0.000000 0.000000 0.000000
# 2 -0.001212 0.024639 -0.015128 0.000000 0.000000 0.000000
# 3 -0.015128 -0.015128 0.030227 0.000000 0.000000 0.000000
# 4 0.000000 0.000000 0.000000 0.033643 0.000000 0.000000
# 5 0.000000 0.000000 0.000000 0.000000 0.033643 0.000000
# 6 0.000000 0.000000 0.000000 0.000000 0.000000 0.051701
#
#
# Mechanical properties :
#
#
# Convention : Reuss Voigt Hill
#
# Bulk Modulus (GPa) = 60.35381 64.06844 62.21112
# Shear Modulus (GPa) = 18.73023 21.83203 20.28113
#
# Velocity S-wave (km/s) = 3.39458 3.66490 3.53233
# Velocity P-wave (km/s) = 7.24535 7.57131 7.41012
#
# Compressibility (1/GPa) = 0.01656896
#
# Stress axis : x y z
#
# Youngs Moduli (GPa) = 40.58667 40.58667 33.08335
#
# Poissons Ratio (x) = 0.04918 0.50048
# Poissons Ratio (y) = 0.04918 0.50048
# Poissons Ratio (z) = 0.61399 0.61399
#
# Static dielectric constant tensor:
#      x y z
#    x 2.911710 0.000000 0.000000 
#    y 0.000000 2.911710 0.000000 
#    z 0.000000 0.000000 3.231240 
# 
# 
# High freq. dielectric constant tensor:
#      x y z
#    x 1.603690 0.000000 0.000000 
#    y 0.000000 1.603690 0.000000 
#    z 0.000000 0.000000 1.631190 
# 
# From -- ./inp_files/1171.got.cif
#   From: 2010.06.25/outbox.cif.g09.slc.cpg/sg176_1_cif.got.tgz:1171.got - 2010.06.28 12:15:01.
