data_PCOD8325320
_publ_section_title
;
Structure prediction by ZEFSAII (Michael W. Deem and Ramdas Pophale) SiO2 
 PCOD8325320
Probable space group: P 6/M
;
_chemical_formula_sum "Si O2"
_cell_formula_units_Z 52
_cell_length_a 15.312988
_cell_length_b 15.312988
_cell_length_c 12.396034
_cell_angle_alpha 90.000000
_cell_angle_beta 90.000000
_cell_angle_gamma 120.000000
_cell_volume 2517.290141
_symmetry_space_group_name_H-M "P 6/M"
_symmetry_group_IT_number 175
_symmetry_cell_setting 'hexagonal'
loop_
_space_group_symop_operation_xyz
x,y,z
x-y,x,z
-y,x-y,z
-x,-y,z
-x+y,-x,z
y,-x+y,z
-x,-y,-z
-x+y,-x,-z
y,-x+y,-z
x,y,-z
x-y,x,-z
-y,x-y,-z
loop_
_atom_site_type_symbol
_atom_site_label
_atom_site_fract_x
_atom_site_fract_y
_atom_site_fract_z
Si Si1 0.000000 0.500000 0.712399
Si Si2 0.821001 0.788755 0.872050
Si Si3 0.838653 0.537776 0.625622
Si Si4 0.666667 0.333335 0.374490
Si Si5 0.575563 0.861631 0.794583
Si Si6 0.745934 0.284607 0.000000
O O1 0.048301 0.442498 0.644683
O O2 0.088643 0.593406 0.777607
O O3 0.806285 0.878821 0.828608
O O4 0.731640 0.685502 0.823934
O O5 0.816850 0.784382 0.000000
O O6 0.826099 0.557340 0.500000
O O7 0.772467 0.422228 0.665787
O O8 0.791388 0.593265 0.695564
O O9 0.666667 0.333334 0.500000
O O10 0.530866 0.785107 0.894594
O O11 0.780488 0.403940 0.000000
#
# Coordination Sequence:
#
# PCOD8325320 Si02
#       6
#     6  12  12   4  12   6
#     4  12  25  37  66  94 132 171 223 264 324 394
#     4  10  21  40  64  89 119 159 209 265 319 376
#     4  11  23  40  63  91 126 167 216 268 322 383
#     4   9  18  36  60  79 116 157 198 258 310 362
#     4  12  23  42  60  94 130 172 210 269 325 388
#     4  10  24  39  60  86 127 178 218 254 310 395
#
# _framework density 20.657135
#
# number of rings (size 3 to 8) (size 9 to 14) (size 15 to 20)
#    0.231    0.923    3.462    3.346    0.000    2.308 
#    0.000    0.000    0.000    0.000    0.000    0.000 
#    0.000    3.692    0.000    0.000    0.000    0.000 
#
# Total GULP energy -644238.838669 kJ/mol
# GULP energy per Si atom -12389.208436 kJ/mol
# Density = 2.061012 g / cm^3
# Si number density = 20.657135 Si / 1000 Ang^3
#
#
#
# Elastic Constant Matrix: (Units=GPa)
#
#
# Indices 1 2 3 4 5 6 
#
# 1 83.7372 -1.6109 21.3716 0.0000 0.0000 0.0001
# 2 -1.6109 83.7378 21.3718 0.0000 0.0000 0.0001
# 3 21.3716 21.3718 92.1467 0.0000 0.0000 -0.0001
# 4 0.0000 0.0000 0.0000 24.0988 0.0001 0.0000
# 5 0.0000 0.0000 0.0000 0.0001 24.0988 0.0000
# 6 0.0001 0.0001 -0.0001 0.0000 0.0000 42.6744
#
#
#
# Elastic Compliance Matrix: (Units=1/GPa)
#
#
# Indices 1 2 3 4 5 6 
#
# 1 0.012782 0.001066 -0.003212 0.000000 0.000000 0.000000
# 2 0.001066 0.012782 -0.003212 0.000000 0.000000 0.000000
# 3 -0.003212 -0.003212 0.012342 0.000000 0.000000 0.000000
# 4 0.000000 0.000000 0.000000 0.041496 0.000000 0.000000
# 5 0.000000 0.000000 0.000000 0.000000 0.041496 0.000000
# 6 0.000000 0.000000 0.000000 0.000000 0.000000 0.023433
#
#
# Mechanical properties :
#
#
# Convention : Reuss Voigt Hill
#
# Bulk Modulus (GPa) = 36.77709 37.98742 37.38225
# Shear Modulus (GPa) = 30.46720 32.74036 31.60378
#
# Velocity S-wave (km/s) = 3.84461 3.98545 3.91566
# Velocity P-wave (km/s) = 6.12783 6.29348 6.21120
#
# Compressibility (1/GPa) = 0.02719084
#
# Stress axis : x y z
#
# Youngs Moduli (GPa) = 78.23294 78.23343 81.02366
#
# Poissons Ratio (x) = -0.08337 0.26023
# Poissons Ratio (y) = -0.08337 0.26023
# Poissons Ratio (z) = 0.25127 0.25127
#
# Static dielectric constant tensor:
#      x y z
#    x 3.678250 0.000000 0.000000 
#    y 0.000000 3.678250 0.000000 
#    z 0.000000 0.000000 3.568600 
# 
# 
# High freq. dielectric constant tensor:
#      x y z
#    x 1.807820 0.000000 0.000000 
#    y 0.000000 1.807820 0.000000 
#    z 0.000000 0.000000 1.788780 
# 
# From -- ./inp_files/2342.got.cif
#   From: 2010.03.12/outbox.cif.g09.slc.cpg/sg175_2_cif.got.tgz:2342.got - 2010.04.02 06:55:29.
