data_PCOD8325572
_publ_section_title
;
Structure prediction by ZEFSAII (Michael W. Deem and Ramdas Pophale) SiO2 
 PCOD8325572
Probable space group: P 63/M
;
_chemical_formula_sum "Si O2"
_cell_formula_units_Z 72
_cell_length_a 16.611500
_cell_length_b 16.611500
_cell_length_c 15.380168
_cell_angle_alpha 90.000000
_cell_angle_beta 90.000000
_cell_angle_gamma 120.000000
_cell_volume 3675.440632
_symmetry_space_group_name_H-M "P 63/M"
_symmetry_group_IT_number 176
_symmetry_cell_setting 'hexagonal'
loop_
_space_group_symop_operation_xyz
x,y,z
x-y,x,1/2+z
-y,x-y,z
-x,-y,1/2+z
-x+y,-x,z
y,-x+y,1/2+z
-x,-y,-z
-x+y,-x,1/2-z
y,-x+y,-z
x,y,1/2-z
x-y,x,-z
-y,x-y,1/2-z
loop_
_atom_site_type_symbol
_atom_site_label
_atom_site_fract_x
_atom_site_fract_y
_atom_site_fract_z
Si Si1 0.695986 0.007366 0.925622
Si Si2 0.336550 0.856929 0.979280
Si Si3 0.159688 0.154580 0.653358
Si Si4 0.363122 0.012716 0.847538
Si Si5 0.812196 0.004653 0.089863
Si Si6 0.328890 0.476795 0.498758
O O1 0.754532 0.018663 0.838619
O O2 0.676464 0.092032 0.937102
O O3 0.766962 0.008424 0.999103
O O4 0.597984 0.912556 0.927487
O O5 0.342825 0.916022 0.893177
O O6 0.251942 0.752620 0.984255
O O7 0.430165 0.854466 0.986441
O O8 0.123265 0.115656 0.750000
O O9 0.160740 0.075661 0.594099
O O10 0.099466 0.193168 0.607397
O O11 0.402902 0.019082 0.750000
O O12 0.266019 0.012509 0.838282
O O13 0.435597 0.102750 0.904092
#
# Coordination Sequence:
#
# PCOD8325572 Si02
#       6
#    12  12  12  12  12  12
#     4  10  20  37  54  72 101 141 179 210 258 332
#     4  10  20  37  60  82 108 143 184 226 277 338
#     4  12  21  31  49  77 105 135 177 227 268 311
#     4  10  20  38  58  80 111 149 185 227 279 333
#     4  10  21  34  49  69 104 143 176 212 265 320
#     4  10  20  37  60  82 108 143 184 226 277 338
#
# _framework density 19.589487999999999
#
# number of rings (size 3 to 8) (size 9 to 14) (size 15 to 20)
#    0.000    2.000    0.000    9.167    0.000    0.000 
#    0.000    6.667    0.000    0.000    0.000    0.000 
#    0.000    0.000    0.000    0.000    0.000    0.000 
#
# Total GULP energy -892023.736386 kJ/mol
# GULP energy per Si atom -12389.218561 kJ/mol
# Density = 1.954490 g / cm^3
# Si number density = 19.589488 Si / 1000 Ang^3
#
#
#
# Elastic Constant Matrix: (Units=GPa)
#
#
# Indices 1 2 3 4 5 6 
#
# 1 95.7206 33.8580 19.3432 0.0000 0.0000 0.0000
# 2 33.8580 95.7206 19.3432 0.0000 0.0000 0.0000
# 3 19.3432 19.3432 55.2685 0.0000 0.0000 0.0000
# 4 0.0000 0.0000 0.0000 5.8443 0.0000 0.0000
# 5 0.0000 0.0000 0.0000 0.0000 5.8443 0.0000
# 6 0.0000 0.0000 0.0000 0.0000 0.0000 30.9313
#
#
#
# Elastic Compliance Matrix: (Units=1/GPa)
#
#
# Indices 1 2 3 4 5 6 
#
# 1 0.012391 -0.003774 -0.003016 0.000000 0.000000 0.000000
# 2 -0.003774 0.012391 -0.003016 0.000000 0.000000 0.000000
# 3 -0.003016 -0.003016 0.020205 0.000000 0.000000 0.000000
# 4 0.000000 0.000000 0.000000 0.171107 0.000000 0.000000
# 5 0.000000 0.000000 0.000000 0.000000 0.171107 0.000000
# 6 0.000000 0.000000 0.000000 0.000000 0.000000 0.032330
#
#
# Mechanical properties :
#
#
# Convention : Reuss Voigt Hill
#
# Bulk Modulus (GPa) = 39.40753 43.53314 41.47034
# Shear Modulus (GPa) = 11.17067 20.13501 15.65284
#
# Velocity S-wave (km/s) = 2.39056 3.20948 2.82980
# Velocity P-wave (km/s) = 5.27068 6.00044 5.64736
#
# Compressibility (1/GPa) = 0.02537586
#
# Stress axis : x y z
#
# Youngs Moduli (GPa) = 80.70163 80.70163 49.49345
#
# Poissons Ratio (x) = 0.30453 0.14928
# Poissons Ratio (y) = 0.30453 0.14928
# Poissons Ratio (z) = 0.24340 0.24340
#
# Static dielectric constant tensor:
#      x y z
#    x 3.725940 0.000000 0.000000 
#    y 0.000000 3.725940 0.000000 
#    z 0.000000 0.000000 3.458200 
# 
# 
# High freq. dielectric constant tensor:
#      x y z
#    x 1.771700 0.000000 0.000000 
#    y 0.000000 1.771700 0.000000 
#    z 0.000000 0.000000 1.734550 
# 
# From -- ./inp_files/3364.got.cif
#   From: 2010.06.25/outbox.cif.g09.slc.cpg/sg176_2_cif.got.tgz:3364.got - 2010.06.28 12:15:01.
