data_PCOD8325609
_publ_section_title
;
Structure prediction by ZEFSAII (Michael W. Deem and Ramdas Pophale) SiO2 
 PCOD8325609
Probable space group: P 63/M
;
_chemical_formula_sum "Si O2"
_cell_formula_units_Z 52
_cell_length_a 19.184411
_cell_length_b 19.184411
_cell_length_c 8.730896
_cell_angle_alpha 90.000000
_cell_angle_beta 90.000000
_cell_angle_gamma 120.000000
_cell_volume 2782.828143
_symmetry_space_group_name_H-M "P 63/M"
_symmetry_group_IT_number 176
_symmetry_cell_setting 'hexagonal'
loop_
_space_group_symop_operation_xyz
x,y,z
x-y,x,1/2+z
-y,x-y,z
-x,-y,1/2+z
-x+y,-x,z
y,-x+y,1/2+z
-x,-y,-z
-x+y,-x,1/2-z
y,-x+y,-z
x,y,1/2-z
x-y,x,-z
-y,x-y,1/2-z
loop_
_atom_site_type_symbol
_atom_site_label
_atom_site_fract_x
_atom_site_fract_y
_atom_site_fract_z
Si Si1 0.173472 0.833150 0.072114
Si Si2 0.717733 0.004746 0.075083
Si Si3 0.666668 0.333334 0.568887
Si Si4 0.503201 0.215076 0.430400
Si Si5 0.413137 0.463686 0.428033
O O1 0.182881 0.818452 0.250000
O O2 0.079139 0.792033 0.030924
O O3 0.214740 0.792995 0.973962
O O4 0.216024 0.927298 0.034073
O O5 0.745195 0.028156 0.250000
O O6 0.631912 0.998123 0.046516
O O7 0.666667 0.333334 0.750000
O O8 0.575926 0.293211 0.507465
O O9 0.514595 0.221648 0.250000
O O10 0.503111 0.135960 0.488818
O O11 0.500000 0.500000 0.500000
O O12 0.419490 0.485854 0.250000
#
# Coordination Sequence:
#
# PCOD8325609 Si02
#       5
#    12  12   4  12  12
#     4  10  21  38  60  87 116 149 190 232 283 342
#     4   9  20  37  57  83 115 147 187 234 281 340
#     4  12  25  41  58  78 109 149 193 240 286 338
#     4  11  23  39  57  80 111 147 190 235 287 340
#     4  10  21  37  56  81 112 147 190 236 284 337
#
# _framework density 18.686025999999998
#
# number of rings (size 3 to 8) (size 9 to 14) (size 15 to 20)
#    0.000    1.846    0.000    5.538    3.231    5.538 
#    0.000    0.000    0.000    0.462    0.000    0.000 
#    0.000    0.000    0.000    0.000    0.000    0.000 
#
# Total GULP energy -645073.074988 kJ/mol
# GULP energy per Si atom -12405.251442 kJ/mol
# Density = 1.864350 g / cm^3
# Si number density = 18.686026 Si / 1000 Ang^3
#
#
#
# Elastic Constant Matrix: (Units=GPa)
#
#
# Indices 1 2 3 4 5 6 
#
# 1 95.6071 47.6945 47.9920 0.0000 0.0000 0.0003
# 2 47.6945 95.6093 47.9926 0.0000 0.0000 -0.0002
# 3 47.9920 47.9926 134.1797 0.0000 0.0000 0.0001
# 4 0.0000 0.0000 0.0000 33.6756 0.0001 0.0000
# 5 0.0000 0.0000 0.0000 0.0001 33.6754 0.0000
# 6 0.0003 -0.0002 0.0001 0.0000 0.0000 23.9567
#
#
#
# Elastic Compliance Matrix: (Units=1/GPa)
#
#
# Indices 1 2 3 4 5 6 
#
# 1 0.015024 -0.005847 -0.003282 0.000000 0.000000 0.000000
# 2 -0.005847 0.015024 -0.003282 0.000000 0.000000 0.000000
# 3 -0.003282 -0.003282 0.009801 0.000000 0.000000 0.000000
# 4 0.000000 0.000000 0.000000 0.029695 0.000000 0.000000
# 5 0.000000 0.000000 0.000000 0.000000 0.029695 0.000000
# 6 0.000000 0.000000 0.000000 0.000000 0.000000 0.041742
#
#
# Mechanical properties :
#
#
# Convention : Reuss Voigt Hill
#
# Bulk Modulus (GPa) = 66.55560 68.08381 67.31971
# Shear Modulus (GPa) = 29.27195 30.37601 29.82398
#
# Velocity S-wave (km/s) = 3.96222 4.03625 3.99940
# Velocity P-wave (km/s) = 7.52512 7.63128 7.57839
#
# Compressibility (1/GPa) = 0.01502503
#
# Stress axis : x y z
#
# Youngs Moduli (GPa) = 66.56035 66.56187 102.03427
#
# Poissons Ratio (x) = 0.38919 0.33490
# Poissons Ratio (y) = 0.38918 0.33490
# Poissons Ratio (z) = 0.21847 0.21847
#
# Static dielectric constant tensor:
#      x y z
#    x 3.364970 0.000000 0.000000 
#    y 0.000000 3.364950 0.000000 
#    z 0.000000 0.000000 3.479410 
# 
# 
# High freq. dielectric constant tensor:
#      x y z
#    x 1.719260 0.000000 0.000000 
#    y 0.000000 1.719260 0.000000 
#    z 0.000000 0.000000 1.739020 
# 
# From -- ./inp_files/683.got.cif
#   From: 2010.06.25/outbox.cif.g09.slc.cpg/sg176_1_cif.got.tgz:683.got - 2010.06.28 12:15:01.
