data_PCOD8325875
_publ_section_title
;
Structure prediction by ZEFSAII (Michael W. Deem and Ramdas Pophale) SiO2 
 PCOD8325875
Probable space group: P 61 2 2
;
_chemical_formula_sum "Si O2"
_cell_formula_units_Z 90
_cell_length_a 17.107679
_cell_length_b 17.107679
_cell_length_c 18.794870
_cell_angle_alpha 90.000000
_cell_angle_beta 90.000000
_cell_angle_gamma 120.000000
_cell_volume 4763.784899
_symmetry_space_group_name_H-M "P 61 2 2"
_symmetry_group_IT_number 178
_symmetry_cell_setting 'hexagonal'
loop_
_space_group_symop_operation_xyz
x,y,z
x-y,x,1/6+z
-y,x-y,1/3+z
-x,-y,1/2+z
-x+y,-x,2/3+z
y,-x+y,5/6+z
x-y,-y,-z
-x,-x+y,2/3-z
y,x,1/3-z
-y,-x,5/6-z
-x+y,y,1/2-z
x,x-y,1/6-z
loop_
_atom_site_type_symbol
_atom_site_label
_atom_site_fract_x
_atom_site_fract_y
_atom_site_fract_z
Si Si1 0.091242 0.182484 0.250000
Si Si2 0.493791 0.965616 0.078007
Si Si3 0.865618 0.103072 0.569960
Si Si4 0.285876 0.533285 0.934460
Si Si5 0.689005 0.088222 0.637096
Si Si6 0.145793 0.424034 0.697320
Si Si7 0.511971 0.125552 0.319408
Si Si8 0.981061 0.681965 0.559905
O O1 0.140155 0.122255 0.259689
O O2 0.110431 0.246251 0.317902
O O3 0.389450 0.939032 0.078872
O O4 0.508606 0.882019 0.097900
O O5 0.537633 0.039690 0.139563
O O6 0.534832 0.000000 0.000000
O O7 0.773950 0.094996 0.597124
O O8 0.950587 0.193907 0.599686
O O9 0.376905 0.623096 0.916667
O O10 0.255192 0.474619 0.863503
O O11 0.296336 0.477531 0.998154
O O12 0.210440 0.557137 0.960303
O O13 0.661884 0.016027 0.700247
O O14 0.193757 0.387513 0.750000
O O15 0.057843 0.337252 0.666722
O O16 0.573686 0.147371 0.250000
O O17 0.412158 0.104814 0.297291
#
# Coordination Sequence:
#
# PCOD8325875 Si02
#       8
#     6  12  12  12  12  12  12  12
#     4  10  24  36  64  94 128 154 194 262 314 390
#     4  11  23  38  62  92 125 167 208 263 315 371
#     4  11  21  41  62  93 120 159 204 252 320 378
#     4  11  22  39  62  88 121 173 206 252 323 373
#     4  11  21  38  63  90 119 163 212 248 304 389
#     4  10  22  40  64  89 124 162 215 262 307 378
#     4  11  22  40  61  90 127 164 218 268 308 373
#     4  10  21  38  68  87 118 164 210 254 312 377
#
# _framework density 18.89254
#
# number of rings (size 3 to 8) (size 9 to 14) (size 15 to 20)
#    0.000    1.333    5.333    0.800    1.867    0.533 
#    2.400    0.000    7.333    0.000    0.000    0.000 
#    0.000    0.000    0.000    0.000    0.000    0.000 
#
# Total GULP energy -1115921.262075 kJ/mol
# GULP energy per Si atom -12399.125134 kJ/mol
# Density = 1.884954 g / cm^3
# Si number density = 18.892540 Si / 1000 Ang^3
#
#
#
# Elastic Constant Matrix: (Units=GPa)
#
#
# Indices 1 2 3 4 5 6 
#
# 1 101.6993 57.9345 39.6053 0.0000 0.0000 0.0000
# 2 57.9345 101.6993 39.6053 0.0000 0.0000 0.0000
# 3 39.6053 39.6053 107.1228 0.0000 0.0000 0.0000
# 4 0.0000 0.0000 0.0000 21.2982 0.0000 0.0000
# 5 0.0000 0.0000 0.0000 0.0000 21.2982 0.0000
# 6 0.0000 0.0000 0.0000 0.0000 0.0000 21.8824
#
#
#
# Elastic Compliance Matrix: (Units=1/GPa)
#
#
# Indices 1 2 3 4 5 6 
#
# 1 0.015261 -0.007589 -0.002836 0.000000 0.000000 0.000000
# 2 -0.007589 0.015261 -0.002836 0.000000 0.000000 0.000000
# 3 -0.002836 -0.002836 0.011432 0.000000 0.000000 0.000000
# 4 0.000000 0.000000 0.000000 0.046952 0.000000 0.000000
# 5 0.000000 0.000000 0.000000 0.000000 0.046952 0.000000
# 6 0.000000 0.000000 0.000000 0.000000 0.000000 0.045699
#
#
# Mechanical properties :
#
#
# Convention : Reuss Voigt Hill
#
# Bulk Modulus (GPa) = 64.80726 64.97905 64.89316
# Shear Modulus (GPa) = 23.44957 24.45420 23.95188
#
# Velocity S-wave (km/s) = 3.52690 3.60166 3.56447
# Velocity P-wave (km/s) = 7.13883 7.19476 7.16685
#
# Compressibility (1/GPa) = 0.01543037
#
# Stress axis : x y z
#
# Youngs Moduli (GPa) = 65.52830 65.52830 87.47060
#
# Poissons Ratio (x) = 0.49728 0.24810
# Poissons Ratio (y) = 0.49728 0.24810
# Poissons Ratio (z) = 0.18586 0.18586
#
# Static dielectric constant tensor:
#      x y z
#    x 3.451650 0.000000 0.000000 
#    y 0.000000 3.451650 0.000000 
#    z 0.000000 0.000000 3.679370 
# 
# 
# High freq. dielectric constant tensor:
#      x y z
#    x 1.728760 0.000000 0.000000 
#    y 0.000000 1.728760 0.000000 
#    z 0.000000 0.000000 1.741210 
# 
# From -- ./inp_files/6997.got.cif
#   From: 2010.03.12/outbox.cif.g09.slc.cpg/sg178_4_cif.got.tgz:6997.got - 2010.04.02 07:02:38.
