data_PCOD8325956
_publ_section_title
;
Structure prediction by ZEFSAII (Michael W. Deem and Ramdas Pophale) SiO2 
 PCOD8325956
Probable space group: P 61 2 2
;
_chemical_formula_sum "Si O2"
_cell_formula_units_Z 48
_cell_length_a 11.866491
_cell_length_b 11.866491
_cell_length_c 19.408738
_cell_angle_alpha 90.000000
_cell_angle_beta 90.000000
_cell_angle_gamma 120.000000
_cell_volume 2366.859932
_symmetry_space_group_name_H-M "P 61 2 2"
_symmetry_group_IT_number 178
_symmetry_cell_setting 'hexagonal'
loop_
_space_group_symop_operation_xyz
x,y,z
x-y,x,1/6+z
-y,x-y,1/3+z
-x,-y,1/2+z
-x+y,-x,2/3+z
y,-x+y,5/6+z
x-y,-y,-z
-x,-x+y,2/3-z
y,x,1/3-z
-y,-x,5/6-z
-x+y,y,1/2-z
x,x-y,1/6-z
loop_
_atom_site_type_symbol
_atom_site_label
_atom_site_fract_x
_atom_site_fract_y
_atom_site_fract_z
Si Si1 0.741486 0.528425 0.550834
Si Si2 0.650331 0.249270 0.485191
Si Si3 0.648204 0.613168 0.426809
Si Si4 0.850235 0.632447 0.328045
O O1 0.702220 0.396154 0.510758
O O2 0.658397 0.498740 0.621271
O O3 0.715001 0.623149 0.501807
O O4 0.883136 0.588436 0.584647
O O5 0.735373 0.264628 0.416667
O O6 0.498028 0.174768 0.466207
O O7 0.538112 0.461889 0.416667
O O8 0.759924 0.673644 0.368895
O O9 0.800947 0.601893 0.250000
O O10 0.000000 0.744561 0.333334
#
# Coordination Sequence:
#
# PCOD8325956 Si02
#       4
#    12  12  12  12
#     4  11  22  37  61  91 132 173 213 273 334 394
#     4  11  20  36  59  94 128 172 207 269 337 396
#     4  12  21  39  63  90 135 173 221 273 338 396
#     4  12  23  36  58  95 138 169 217 274 332 402
#
# _framework density 20.280033
#
# number of rings (size 3 to 8) (size 9 to 14) (size 15 to 20)
#    0.000    0.500   10.000    1.500    0.000    2.000 
#    0.000    0.000    0.000    0.000    0.000   28.000 
#    0.000    0.000    0.000    0.000    0.000    0.000 
#
# Total GULP energy -594734.536511 kJ/mol
# GULP energy per Si atom -12390.302844 kJ/mol
# Density = 2.023388 g / cm^3
# Si number density = 20.280033 Si / 1000 Ang^3
#
#
#
# Elastic Constant Matrix: (Units=GPa)
#
#
# Indices 1 2 3 4 5 6 
#
# 1 62.1616 18.4967 1.5261 0.0000 0.0000 0.0000
# 2 18.4967 62.1616 1.5261 0.0000 0.0000 0.0000
# 3 1.5261 1.5261 95.7090 0.0000 0.0000 0.0000
# 4 0.0000 0.0000 0.0000 21.8770 0.0000 0.0000
# 5 0.0000 0.0000 0.0000 0.0000 21.8770 0.0000
# 6 0.0000 0.0000 0.0000 0.0000 0.0000 21.8324
#
#
#
# Elastic Compliance Matrix: (Units=1/GPa)
#
#
# Indices 1 2 3 4 5 6 
#
# 1 0.017654 -0.005248 -0.000198 0.000000 0.000000 0.000000
# 2 -0.005248 0.017654 -0.000198 0.000000 0.000000 0.000000
# 3 -0.000198 -0.000198 0.010455 0.000000 0.000000 0.000000
# 4 0.000000 0.000000 0.000000 0.045710 0.000000 0.000000
# 5 0.000000 0.000000 0.000000 0.000000 0.045710 0.000000
# 6 0.000000 0.000000 0.000000 0.000000 0.000000 0.045803
#
#
# Mechanical properties :
#
#
# Convention : Reuss Voigt Hill
#
# Bulk Modulus (GPa) = 29.00709 29.23668 29.12188
# Shear Modulus (GPa) = 24.29962 26.34948 25.32455
#
# Velocity S-wave (km/s) = 3.46526 3.60847 3.53759
# Velocity P-wave (km/s) = 5.50864 5.63996 5.57468
#
# Compressibility (1/GPa) = 0.03447434
#
# Stress axis : x y z
#
# Youngs Moduli (GPa) = 56.64571 56.64571 95.65126
#
# Poissons Ratio (x) = 0.29728 0.01892
# Poissons Ratio (y) = 0.29728 0.01892
# Poissons Ratio (z) = 0.01121 0.01121
#
# Static dielectric constant tensor:
#      x y z
#    x 3.470370 0.000000 0.000000 
#    y 0.000000 3.470370 0.000000 
#    z 0.000000 0.000000 4.125030 
# 
# 
# High freq. dielectric constant tensor:
#      x y z
#    x 1.761490 0.000000 0.000000 
#    y 0.000000 1.761490 0.000000 
#    z 0.000000 0.000000 1.815390 
# 
# From -- ./inp_files/7252.got.cif
#   From: 2010.03.12/outbox.cif.g09.slc.cpg/sg178_4_cif.got.tgz:7252.got - 2010.04.02 07:02:38.
