data_PCOD8325901
_publ_section_title
;
Structure prediction by ZEFSAII (Michael W. Deem and Ramdas Pophale) SiO2 
 PCOD8325901
Probable space group: P 61 2 2
;
_chemical_formula_sum "Si O2"
_cell_formula_units_Z 60
_cell_length_a 15.440122
_cell_length_b 15.440122
_cell_length_c 14.254546
_cell_angle_alpha 90.000000
_cell_angle_beta 90.000000
_cell_angle_gamma 120.000000
_cell_volume 2942.967572
_symmetry_space_group_name_H-M "P 61 2 2"
_symmetry_group_IT_number 178
_symmetry_cell_setting 'hexagonal'
loop_
_space_group_symop_operation_xyz
x,y,z
x-y,x,1/6+z
-y,x-y,1/3+z
-x,-y,1/2+z
-x+y,-x,2/3+z
y,-x+y,5/6+z
x-y,-y,-z
-x,-x+y,2/3-z
y,x,1/3-z
-y,-x,5/6-z
-x+y,y,1/2-z
x,x-y,1/6-z
loop_
_atom_site_type_symbol
_atom_site_label
_atom_site_fract_x
_atom_site_fract_y
_atom_site_fract_z
Si Si1 0.000000 0.372332 0.333334
Si Si2 0.265753 0.732224 0.589232
Si Si3 0.008750 0.704612 0.162547
Si Si4 0.618408 0.809204 0.083334
Si Si5 0.875244 0.648325 0.980629
Si Si6 0.084194 0.554981 0.192717
O O1 0.080965 0.345946 0.376476
O O2 0.033700 0.451012 0.248019
O O3 0.235259 0.617630 0.583334
O O4 0.230141 0.774810 0.504461
O O5 0.206759 0.737740 0.679359
O O6 0.384308 0.801561 0.603498
O O7 0.105889 0.816087 0.158757
O O8 0.032410 0.621975 0.205981
O O9 0.927235 0.695634 0.238378
O O10 0.962321 0.681884 0.058048
O O11 0.080973 0.540487 0.083334
#
# Coordination Sequence:
#
# PCOD8325901 Si02
#       6
#     6  12  12   6  12  12
#     4  12  24  40  70  90 130 192 204 282 346 390
#     4  10  24  37  61  96 136 176 218 266 315 392
#     4  10  22  44  64  98 124 173 229 285 328 412
#     4  10  22  40  70  90 132 176 224 286 340 386
#     4  10  24  41  66  93 132 170 223 274 339 410
#     4  11  23  39  61  94 136 169 230 260 322 413
#
# _framework density 20.387584
#
# number of rings (size 3 to 8) (size 9 to 14) (size 15 to 20)
#    0.000    1.600    2.000    1.200    9.800    8.800 
#    0.000    0.000    0.000    4.800    0.000    0.000 
#    0.000    0.000    0.000    0.000    0.000    0.000 
#
# Total GULP energy -743310.207769 kJ/mol
# GULP energy per Si atom -12388.503463 kJ/mol
# Density = 2.034118 g / cm^3
# Si number density = 20.387584 Si / 1000 Ang^3
#
#
#
# Elastic Constant Matrix: (Units=GPa)
#
#
# Indices 1 2 3 4 5 6 
#
# 1 111.9555 59.0882 50.9950 0.0000 0.0000 0.0000
# 2 59.0882 111.9555 50.9950 0.0000 0.0000 0.0000
# 3 50.9950 50.9950 88.3050 0.0000 0.0000 0.0000
# 4 0.0000 0.0000 0.0000 45.2676 0.0000 0.0000
# 5 0.0000 0.0000 0.0000 0.0000 45.2676 0.0000
# 6 0.0000 0.0000 0.0000 0.0000 0.0000 26.4337
#
#
#
# Elastic Compliance Matrix: (Units=1/GPa)
#
#
# Indices 1 2 3 4 5 6 
#
# 1 0.013916 -0.004999 -0.005149 0.000000 0.000000 0.000000
# 2 -0.004999 0.013916 -0.005149 0.000000 0.000000 0.000000
# 3 -0.005149 -0.005149 0.017272 0.000000 0.000000 0.000000
# 4 0.000000 0.000000 0.000000 0.022091 0.000000 0.000000
# 5 0.000000 0.000000 0.000000 0.000000 0.022091 0.000000
# 6 0.000000 0.000000 0.000000 0.000000 0.000000 0.037831
#
#
# Mechanical properties :
#
#
# Convention : Reuss Voigt Hill
#
# Bulk Modulus (GPa) = 68.92726 70.48583 69.70654
# Shear Modulus (GPa) = 30.76008 33.46964 32.11486
#
# Velocity S-wave (km/s) = 3.88850 4.05615 3.97321
# Velocity P-wave (km/s) = 7.35135 7.52226 7.43730
#
# Compressibility (1/GPa) = 0.01450805
#
# Stress axis : x y z
#
# Youngs Moduli (GPa) = 71.85914 71.85914 57.89768
#
# Poissons Ratio (x) = 0.35923 0.29814
# Poissons Ratio (y) = 0.35923 0.29814
# Poissons Ratio (z) = 0.37003 0.37003
#
# Static dielectric constant tensor:
#      x y z
#    x 3.873990 0.000000 0.000000 
#    y 0.000000 3.873990 0.000000 
#    z 0.000000 0.000000 3.948570 
# 
# 
# High freq. dielectric constant tensor:
#      x y z
#    x 1.789010 0.000000 0.000000 
#    y 0.000000 1.789010 0.000000 
#    z 0.000000 0.000000 1.805220 
# 
# From -- ./inp_files/5735.got.cif
#   From: 2010.03.12/outbox.cif.g09.slc.cpg/sg178_3_cif.got.tgz:5735.got - 2010.04.02 07:02:38.
