data_PCOD8325761
_publ_section_title
;
Structure prediction by ZEFSAII (Michael W. Deem and Ramdas Pophale) SiO2 
 PCOD8325761
Probable space group: P 61 2 2
;
_chemical_formula_sum "Si O2"
_cell_formula_units_Z 60
_cell_length_a 16.295096
_cell_length_b 16.295096
_cell_length_c 18.274739
_cell_angle_alpha 90.000000
_cell_angle_beta 90.000000
_cell_angle_gamma 120.000000
_cell_volume 4202.383296
_symmetry_space_group_name_H-M "P 61 2 2"
_symmetry_group_IT_number 178
_symmetry_cell_setting 'hexagonal'
loop_
_space_group_symop_operation_xyz
x,y,z
x-y,x,1/6+z
-y,x-y,1/3+z
-x,-y,1/2+z
-x+y,-x,2/3+z
y,-x+y,5/6+z
x-y,-y,-z
-x,-x+y,2/3-z
y,x,1/3-z
-y,-x,5/6-z
-x+y,y,1/2-z
x,x-y,1/6-z
loop_
_atom_site_type_symbol
_atom_site_label
_atom_site_fract_x
_atom_site_fract_y
_atom_site_fract_z
Si Si1 0.318642 0.458164 0.715984
Si Si2 0.576440 0.938612 0.896040
Si Si3 0.141067 0.653142 0.784856
Si Si4 0.616475 0.557424 0.769848
Si Si5 0.480463 0.323429 0.917799
O O1 0.227594 0.455187 0.750000
O O2 0.300569 0.428362 0.630335
O O3 0.336989 0.382358 0.759639
O O4 0.408275 0.562587 0.723287
O O5 0.481664 0.943076 0.894170
O O6 0.584756 0.895875 0.819059
O O7 0.127140 0.674548 0.868955
O O8 0.233706 0.739205 0.750905
O O9 0.049290 0.640411 0.740885
O O10 0.676065 0.576908 0.843964
O O11 0.583017 0.416984 0.916667
#
# Coordination Sequence:
#
# PCOD8325761 Si02
#       5
#    12  12  12  12  12
#     4   9  16  29  43  54  75 108 137 163 193 229
#     4   8  17  28  38  56  79 101 130 165 203 230
#     4   9  16  27  41  58  77 106 140 160 186 234
#     4   8  16  28  39  53  81 108 126 160 204 228
#     4  10  17  26  40  59  80 104 134 167 194 225
#
# _framework density 14.277613000000001
#
# number of rings (size 3 to 8) (size 9 to 14) (size 15 to 20)
#    0.000    3.200    0.000    3.600    0.000    1.600 
#    0.000    5.000    0.000    0.000    0.000    0.000 
#    0.000    0.000    0.000   93.600    0.000    0.000 
#
# Total GULP energy -743571.866447 kJ/mol
# GULP energy per Si atom -12392.864441 kJ/mol
# Density = 1.424512 g / cm^3
# Si number density = 14.277613 Si / 1000 Ang^3
#
#
#
# Elastic Constant Matrix: (Units=GPa)
#
#
# Indices 1 2 3 4 5 6 
#
# 1 68.0959 27.1031 49.2007 0.0000 0.0000 0.0000
# 2 27.1031 68.0959 49.2007 0.0000 0.0000 0.0000
# 3 49.2007 49.2007 121.4823 0.0000 0.0000 0.0000
# 4 0.0000 0.0000 0.0000 19.0482 0.0000 0.0000
# 5 0.0000 0.0000 0.0000 0.0000 19.0482 0.0000
# 6 0.0000 0.0000 0.0000 0.0000 0.0000 20.4964
#
#
#
# Elastic Compliance Matrix: (Units=1/GPa)
#
#
# Indices 1 2 3 4 5 6 
#
# 1 0.021231 -0.003163 -0.007318 0.000000 0.000000 0.000000
# 2 -0.003163 0.021231 -0.007318 0.000000 0.000000 0.000000
# 3 -0.007318 -0.007318 0.014159 0.000000 0.000000 0.000000
# 4 0.000000 0.000000 0.000000 0.052498 0.000000 0.000000
# 5 0.000000 0.000000 0.000000 0.000000 0.052498 0.000000
# 6 0.000000 0.000000 0.000000 0.000000 0.000000 0.048789
#
#
# Mechanical properties :
#
#
# Convention : Reuss Voigt Hill
#
# Bulk Modulus (GPa) = 47.56321 56.52034 52.04178
# Shear Modulus (GPa) = 19.76185 20.52986 20.14586
#
# Velocity S-wave (km/s) = 3.72441 3.79609 3.76042
# Velocity P-wave (km/s) = 7.20280 7.67374 7.44200
#
# Compressibility (1/GPa) = 0.02102465
#
# Stress axis : x y z
#
# Youngs Moduli (GPa) = 47.10020 47.10020 70.62656
#
# Poissons Ratio (x) = 0.14899 0.51682
# Poissons Ratio (y) = 0.14899 0.51682
# Poissons Ratio (z) = 0.34466 0.34466
#
# Static dielectric constant tensor:
#      x y z
#    x 2.604770 0.000000 0.000000 
#    y 0.000000 2.604770 0.000000 
#    z 0.000000 0.000000 3.299470 
# 
# 
# High freq. dielectric constant tensor:
#      x y z
#    x 1.516930 0.000000 0.000000 
#    y 0.000000 1.516930 0.000000 
#    z 0.000000 0.000000 1.559130 
# 
# From -- ./inp_files/5808.got.cif
#   From: 2010.03.12/outbox.cif.g09.slc.cpg/sg178_3_cif.got.tgz:5808.got - 2010.04.02 07:02:38.
