data_PCOD8325224
_publ_section_title
;
Structure prediction by ZEFSAII (Michael W. Deem and Ramdas Pophale) SiO2 
 PCOD8325224
Probable space group: P 6/M
;
_chemical_formula_sum "Si O2"
_cell_formula_units_Z 84
_cell_length_a 18.243510
_cell_length_b 18.243510
_cell_length_c 14.926980
_cell_angle_alpha 90.000000
_cell_angle_beta 90.000000
_cell_angle_gamma 120.000000
_cell_volume 4302.485157
_symmetry_space_group_name_H-M "P 6/M"
_symmetry_group_IT_number 175
_symmetry_cell_setting 'hexagonal'
loop_
_space_group_symop_operation_xyz
x,y,z
x-y,x,z
-y,x-y,z
-x,-y,z
-x+y,-x,z
y,-x+y,z
-x,-y,-z
-x+y,-x,-z
y,-x+y,-z
x,y,-z
x-y,x,-z
-y,x-y,-z
loop_
_atom_site_type_symbol
_atom_site_label
_atom_site_fract_x
_atom_site_fract_y
_atom_site_fract_z
Si Si1 0.371715 0.272444 0.100592
Si Si2 0.750348 0.100992 0.398016
Si Si3 0.174422 0.493277 0.738191
Si Si4 0.086717 0.733875 0.602654
Si Si5 0.841013 0.344706 0.735095
Si Si6 0.453788 0.051015 0.900419
Si Si7 0.129083 0.940065 0.106676
O O1 0.451698 0.295361 0.163294
O O2 0.359242 0.353112 0.097249
O O3 0.285060 0.193593 0.139652
O O4 0.391001 0.252401 0.000000
O O5 0.730601 0.113519 0.500000
O O6 0.688646 0.115286 0.335007
O O7 0.847483 0.168227 0.373505
O O8 0.729393 0.005202 0.381140
O O9 0.152158 0.565800 0.723093
O O10 0.273057 0.528693 0.720176
O O11 0.097244 0.712938 0.500000
O O12 0.100125 0.669091 0.664428
O O13 0.871600 0.343398 0.836005
O O14 0.500000 0.000000 0.864893
O O15 0.488805 0.086517 0.000000
O O16 0.034788 0.875520 0.143041
O O17 0.130868 0.943148 0.000000
#
# Coordination Sequence:
#
# PCOD8325224 Si02
#       7
#    12  12  12  12  12  12  12
#     4  10  21  35  53  78 108 144 188 232 276 330
#     4   9  19  37  60  87 116 146 181 228 282 338
#     4  11  23  38  55  79 112 146 190 234 284 335
#     4   9  19  36  61  90 118 148 186 231 284 341
#     4  11  23  37  57  80 111 150 190 238 288 338
#     4  10  20  36  56  77 104 143 190 240 285 329
#     4   9  18  33  54  79 107 139 177 224 280 339
#
# _framework density 19.523600999999999
#
# number of rings (size 3 to 8) (size 9 to 14) (size 15 to 20)
#    0.000    2.143    1.429    1.286    2.000    1.714 
#    0.000    1.429    0.000    3.714    0.000    2.000 
#    0.000    0.000    0.000    0.000    0.000    0.000 
#
# Total GULP energy -1041356.236373 kJ/mol
# GULP energy per Si atom -12397.098052 kJ/mol
# Density = 1.947916 g / cm^3
# Si number density = 19.523601 Si / 1000 Ang^3
#
#
#
# Elastic Constant Matrix: (Units=GPa)
#
#
# Indices 1 2 3 4 5 6 
#
# 1 111.4247 56.2130 40.2873 0.0000 0.0000 0.0000
# 2 56.2130 111.4247 40.2873 0.0000 0.0000 0.0000
# 3 40.2873 40.2873 79.5026 0.0000 0.0000 0.0000
# 4 0.0000 0.0000 0.0000 23.7663 0.0000 0.0000
# 5 0.0000 0.0000 0.0000 0.0000 23.7663 0.0000
# 6 0.0000 0.0000 0.0000 0.0000 0.0000 27.6059
#
#
#
# Elastic Compliance Matrix: (Units=1/GPa)
#
#
# Indices 1 2 3 4 5 6 
#
# 1 0.012999 -0.005113 -0.003996 0.000000 0.000000 0.000000
# 2 -0.005113 0.012999 -0.003996 0.000000 0.000000 0.000000
# 3 -0.003996 -0.003996 0.016628 0.000000 0.000000 0.000000
# 4 0.000000 0.000000 0.000000 0.042076 0.000000 0.000000
# 5 0.000000 0.000000 0.000000 0.000000 0.042076 0.000000
# 6 0.000000 0.000000 0.000000 0.000000 0.000000 0.036224
#
#
# Mechanical properties :
#
#
# Convention : Reuss Voigt Hill
#
# Bulk Modulus (GPa) = 60.91774 63.99192 62.45483
# Shear Modulus (GPa) = 25.68241 26.06534 25.87387
#
# Velocity S-wave (km/s) = 3.63085 3.65782 3.64436
# Velocity P-wave (km/s) = 6.98908 7.11951 7.05460
#
# Compressibility (1/GPa) = 0.01641558
#
# Stress axis : x y z
#
# Youngs Moduli (GPa) = 76.92878 76.92878 60.13864
#
# Poissons Ratio (x) = 0.39334 0.24032
# Poissons Ratio (y) = 0.39334 0.24032
# Poissons Ratio (z) = 0.30742 0.30742
#
# Static dielectric constant tensor:
#      x y z
#    x 3.561000 0.000000 0.000000 
#    y 0.000000 3.561000 0.000000 
#    z 0.000000 0.000000 3.602980 
# 
# 
# High freq. dielectric constant tensor:
#      x y z
#    x 1.755910 0.000000 0.000000 
#    y 0.000000 1.755910 0.000000 
#    z 0.000000 0.000000 1.753420 
# 
# From -- ./inp_files/2624.got.cif
#   From: 2010.03.12/outbox.cif.g09.slc.cpg/sg175_2_cif.got.tgz:2624.got - 2010.04.02 06:55:29.
