data_PCOD8325239
_publ_section_title
;
Structure prediction by ZEFSAII (Michael W. Deem and Ramdas Pophale) SiO2 
 PCOD8325239
Probable space group: P 6/M
;
_chemical_formula_sum "Si O2"
_cell_formula_units_Z 48
_cell_length_a 18.698237
_cell_length_b 18.698237
_cell_length_c 8.486951
_cell_angle_alpha 90.000000
_cell_angle_beta 90.000000
_cell_angle_gamma 120.000000
_cell_volume 2569.707232
_symmetry_space_group_name_H-M "P 6/M"
_symmetry_group_IT_number 175
_symmetry_cell_setting 'hexagonal'
loop_
_space_group_symop_operation_xyz
x,y,z
x-y,x,z
-y,x-y,z
-x,-y,z
-x+y,-x,z
y,-x+y,z
-x,-y,-z
-x+y,-x,-z
y,-x+y,-z
x,y,-z
x-y,x,-z
-y,x-y,-z
loop_
_atom_site_type_symbol
_atom_site_label
_atom_site_fract_x
_atom_site_fract_y
_atom_site_fract_z
Si Si1 0.330093 0.093773 0.817314
Si Si2 0.080025 0.325153 0.684498
Si Si3 0.828654 0.333118 0.312435
Si Si4 0.665006 0.174708 0.313926
O O1 0.308092 0.153590 0.719258
O O2 0.418395 0.105402 0.766056
O O3 0.260765 0.000044 0.780764
O O4 0.329805 0.113192 0.000000
O O5 0.060159 0.313670 0.500000
O O6 0.106023 0.418140 0.740595
O O7 0.839120 0.333041 0.500000
O O8 0.736683 0.264692 0.258207
O O9 0.845036 0.421338 0.246495
O O10 0.660194 0.175866 0.500000
#
# Coordination Sequence:
#
# PCOD8325239 Si02
#       4
#    12  12  12  12
#     4  11  22  36  53  78 108 137 167 210 265 318
#     4  10  20  37  58  79 101 134 176 216 255 307
#     4   9  16  30  50  74 103 141 185 226 260 298
#     4   8  15  27  49  75 100 134 183 228 256 287
#
# _framework density 18.679171
#
# number of rings (size 3 to 8) (size 9 to 14) (size 15 to 20)
#    0.000    2.500    0.000    5.000    0.000    3.000 
#    0.000   11.250    0.000    0.500    0.000    3.500 
#    0.000    0.000    0.000    0.000    0.000    0.000 
#
# Total GULP energy -595138.993108 kJ/mol
# GULP energy per Si atom -12398.729023 kJ/mol
# Density = 1.863666 g / cm^3
# Si number density = 18.679171 Si / 1000 Ang^3
#
#
#
# Elastic Constant Matrix: (Units=GPa)
#
#
# Indices 1 2 3 4 5 6 
#
# 1 87.6688 51.8172 9.4778 0.0000 0.0000 0.0000
# 2 51.8172 87.6688 9.4778 0.0000 0.0000 0.0000
# 3 9.4778 9.4778 45.2480 0.0000 0.0000 0.0000
# 4 0.0000 0.0000 0.0000 14.7633 0.0000 0.0000
# 5 0.0000 0.0000 0.0000 0.0000 14.7633 0.0000
# 6 0.0000 0.0000 0.0000 0.0000 0.0000 17.9258
#
#
#
# Elastic Compliance Matrix: (Units=1/GPa)
#
#
# Indices 1 2 3 4 5 6 
#
# 1 0.017636 -0.010257 -0.001546 0.000000 0.000000 0.000000
# 2 -0.010257 0.017636 -0.001546 0.000000 0.000000 0.000000
# 3 -0.001546 -0.001546 0.022748 0.000000 0.000000 0.000000
# 4 0.000000 0.000000 0.000000 0.067735 0.000000 0.000000
# 5 0.000000 0.000000 0.000000 0.000000 0.067735 0.000000
# 6 0.000000 0.000000 0.000000 0.000000 0.000000 0.055786
#
#
# Mechanical properties :
#
#
# Convention : Reuss Voigt Hill
#
# Bulk Modulus (GPa) = 31.92470 40.23680 36.08075
# Shear Modulus (GPa) = 17.45725 19.47799 18.46762
#
# Velocity S-wave (km/s) = 3.06041 3.23269 3.14773
# Velocity P-wave (km/s) = 5.44209 5.95999 5.70692
#
# Compressibility (1/GPa) = 0.03132371
#
# Stress axis : x y z
#
# Youngs Moduli (GPa) = 56.70210 56.70210 43.95996
#
# Poissons Ratio (x) = 0.58158 0.06795
# Poissons Ratio (y) = 0.58158 0.06795
# Poissons Ratio (z) = 0.08764 0.08764
#
# Static dielectric constant tensor:
#      x y z
#    x 3.413310 0.000000 0.000000 
#    y 0.000000 3.413310 0.000000 
#    z 0.000000 0.000000 3.136630 
# 
# 
# High freq. dielectric constant tensor:
#      x y z
#    x 1.716160 0.000000 0.000000 
#    y 0.000000 1.716160 0.000000 
#    z 0.000000 0.000000 1.701180 
# 
# From -- ./inp_files/508.got.cif
#   From: 2010.03.12/outbox.cif.g09.slc.cpg/sg175_1_cif.got.tgz:508.got - 2010.04.02 06:55:29.
