data_PCOD8325133
_publ_section_title
;
Structure prediction by ZEFSAII (Michael W. Deem and Ramdas Pophale) SiO2 
 PCOD8325133
Probable space group: P 6/M
;
_chemical_formula_sum "Si O2"
_cell_formula_units_Z 72
_cell_length_a 20.972340
_cell_length_b 20.972340
_cell_length_c 11.426475
_cell_angle_alpha 90.000000
_cell_angle_beta 90.000000
_cell_angle_gamma 120.000000
_cell_volume 4352.479007
_symmetry_space_group_name_H-M "P 6/M"
_symmetry_group_IT_number 175
_symmetry_cell_setting 'hexagonal'
loop_
_space_group_symop_operation_xyz
x,y,z
x-y,x,z
-y,x-y,z
-x,-y,z
-x+y,-x,z
y,-x+y,z
-x,-y,-z
-x+y,-x,-z
y,-x+y,-z
x,y,-z
x-y,x,-z
-y,x-y,-z
loop_
_atom_site_type_symbol
_atom_site_label
_atom_site_fract_x
_atom_site_fract_y
_atom_site_fract_z
Si Si1 0.331537 0.813346 0.500000
Si Si2 0.698779 0.155473 0.749618
Si Si3 0.844528 0.301221 0.749618
Si Si4 0.694850 0.776717 0.133467
Si Si5 0.331537 0.518191 0.500000
Si Si6 0.694850 0.918133 0.866533
Si Si7 0.083888 0.541944 0.862232
O O1 0.319784 0.852135 0.612288
O O2 0.412921 0.825843 0.500000
O O3 0.273886 0.726114 0.500000
O O4 0.760444 0.239556 0.782543
O O5 0.728857 0.100668 0.779216
O O6 0.625955 0.130927 0.823214
O O7 0.852135 0.319785 0.612289
O O8 0.899332 0.271143 0.779216
O O9 0.869073 0.374045 0.823216
O O10 0.726737 0.863369 0.154512
O O11 0.760555 0.760554 0.160553
O O12 0.666102 0.754722 0.000000
O O13 0.666102 0.911381 0.000000
O O14 0.000000 0.500000 0.810309
O O15 0.078420 0.539209 0.000000
#
# Coordination Sequence:
#
# PCOD8325133 Si02
#       7
#     6  12  12  12   6  12  12
#     4  10  19  34  52  68  93 130 171 209 251 299
#     4  10  20  34  51  71  97 127 169 210 249 295
#     4  10  20  34  51  71  97 127 169 210 249 295
#     4   9  17  31  52  75  99 128 161 199 243 293
#     4  10  19  34  52  68  93 130 171 209 251 299
#     4   9  17  31  52  75  99 128 161 199 243 293
#     4  11  22  35  51  71  99 132 165 207 261 309
#
# _framework density 16.542297000000001
#
# number of rings (size 3 to 8) (size 9 to 14) (size 15 to 20)
#    0.000    2.167    1.667    2.167    0.000    4.667 
#    1.000    4.167    0.000    0.333    0.000    2.333 
#    0.000    0.000    0.000    0.000    0.000   19.667 
#
# Total GULP energy -892691.182517 kJ/mol
# GULP energy per Si atom -12398.488646 kJ/mol
# Density = 1.650465 g / cm^3
# Si number density = 16.542297 Si / 1000 Ang^3
#
#
#
# Elastic Constant Matrix: (Units=GPa)
#
#
# Indices 1 2 3 4 5 6 
#
# 1 116.9523 78.7716 50.3332 0.0000 0.0000 0.0000
# 2 78.7716 116.9523 50.3332 0.0000 0.0000 0.0000
# 3 50.3332 50.3332 85.2059 0.0000 0.0000 0.0000
# 4 0.0000 0.0000 0.0000 11.8382 0.0000 0.0000
# 5 0.0000 0.0000 0.0000 0.0000 11.8382 0.0000
# 6 0.0000 0.0000 0.0000 0.0000 0.0000 19.0903
#
#
#
# Elastic Compliance Matrix: (Units=1/GPa)
#
#
# Indices 1 2 3 4 5 6 
#
# 1 0.016765 -0.009426 -0.004335 0.000000 0.000000 0.000000
# 2 -0.009426 0.016765 -0.004335 0.000000 0.000000 0.000000
# 3 -0.004335 -0.004335 0.016858 0.000000 0.000000 0.000000
# 4 0.000000 0.000000 0.000000 0.084472 0.000000 0.000000
# 5 0.000000 0.000000 0.000000 0.000000 0.084472 0.000000
# 6 0.000000 0.000000 0.000000 0.000000 0.000000 0.052383
#
#
# Mechanical properties :
#
#
# Convention : Reuss Voigt Hill
#
# Bulk Modulus (GPa) = 70.44759 75.33183 72.88971
# Shear Modulus (GPa) = 15.99278 17.86483 16.92881
#
# Velocity S-wave (km/s) = 3.11268 3.28982 3.20248
# Velocity P-wave (km/s) = 7.45635 7.75038 7.60479
#
# Compressibility (1/GPa) = 0.01419495
#
# Stress axis : x y z
#
# Youngs Moduli (GPa) = 59.64749 59.64749 59.31809
#
# Poissons Ratio (x) = 0.56225 0.25716
# Poissons Ratio (y) = 0.56225 0.25716
# Poissons Ratio (z) = 0.25859 0.25859
#
# Static dielectric constant tensor:
#      x y z
#    x 3.179670 0.000000 0.000000 
#    y 0.000000 3.179670 0.000000 
#    z 0.000000 0.000000 3.200290 
# 
# 
# High freq. dielectric constant tensor:
#      x y z
#    x 1.631870 0.000000 0.000000 
#    y 0.000000 1.631870 0.000000 
#    z 0.000000 0.000000 1.635060 
# 
# From -- ./inp_files/1955.got.cif
#   From: 2010.03.12/outbox.cif.g09.slc.cpg/sg175_1_cif.got.tgz:1955.got - 2010.04.02 06:55:29.
