data_PCOD8325859
_publ_section_title
;
Structure prediction by ZEFSAII (Michael W. Deem and Ramdas Pophale) SiO2 
 PCOD8325859
Probable space group: P 61 2 2
;
_chemical_formula_sum "Si O2"
_cell_formula_units_Z 60
_cell_length_a 15.747011
_cell_length_b 15.747011
_cell_length_c 12.794554
_cell_angle_alpha 90.000000
_cell_angle_beta 90.000000
_cell_angle_gamma 120.000000
_cell_volume 2747.590746
_symmetry_space_group_name_H-M "P 61 2 2"
_symmetry_group_IT_number 178
_symmetry_cell_setting 'hexagonal'
loop_
_space_group_symop_operation_xyz
x,y,z
x-y,x,1/6+z
-y,x-y,1/3+z
-x,-y,1/2+z
-x+y,-x,2/3+z
y,-x+y,5/6+z
x-y,-y,-z
-x,-x+y,2/3-z
y,x,1/3-z
-y,-x,5/6-z
-x+y,y,1/2-z
x,x-y,1/6-z
loop_
_atom_site_type_symbol
_atom_site_label
_atom_site_fract_x
_atom_site_fract_y
_atom_site_fract_z
Si Si1 0.663936 0.456655 0.508894
Si Si2 0.845634 0.933288 0.237532
Si Si3 0.129966 0.475015 0.041438
Si Si4 0.370894 0.476565 0.691842
Si Si5 0.287558 0.351563 0.888577
O O1 0.625810 0.374191 0.416667
O O2 0.758466 0.478126 0.579519
O O3 0.582648 0.412986 0.596378
O O4 0.680566 0.559918 0.467933
O O5 0.880574 0.920981 0.353617
O O6 0.848664 0.848664 0.166667
O O7 0.735645 0.913871 0.243931
O O8 0.087353 0.543677 0.083334
O O9 0.052178 0.364011 0.073952
O O10 0.152658 0.472993 0.917438
O O11 0.463242 0.463242 0.666667
O O12 0.295741 0.390984 0.769979
#
# Coordination Sequence:
#
# PCOD8325859 Si02
#       5
#    12  12  12  12  12
#     4  10  22  36  58  87 124 161 205 265 316 385
#     4  10  22  38  64  96 128 162 202 271 330 388
#     4  11  23  36  61  88 124 170 208 261 314 396
#     4   9  20  38  59  84 121 162 206 264 317 374
#     4  10  20  40  62  92 120 160 218 262 323 373
#
# _framework density 21.837313999999999
#
# number of rings (size 3 to 8) (size 9 to 14) (size 15 to 20)
#    0.000    2.000    0.000    4.200    2.800   12.800 
#    0.000    0.000    0.000   40.800    0.000    0.000 
#    0.000    0.000    0.000    0.000    0.000    0.000 
#
# Total GULP energy -743372.979797 kJ/mol
# GULP energy per Si atom -12389.549663 kJ/mol
# Density = 2.178761 g / cm^3
# Si number density = 21.837314 Si / 1000 Ang^3
#
#
#
# Elastic Constant Matrix: (Units=GPa)
#
#
# Indices 1 2 3 4 5 6 
#
# 1 107.6228 33.5327 -0.2363 0.0000 0.0000 0.0000
# 2 33.5327 107.6228 -0.2363 0.0000 0.0000 0.0000
# 3 -0.2363 -0.2363 36.1550 0.0000 0.0000 0.0000
# 4 0.0000 0.0000 0.0000 18.2689 0.0000 0.0000
# 5 0.0000 0.0000 0.0000 0.0000 18.2689 0.0000
# 6 0.0000 0.0000 0.0000 0.0000 0.0000 37.0450
#
#
#
# Elastic Compliance Matrix: (Units=1/GPa)
#
#
# Indices 1 2 3 4 5 6 
#
# 1 0.010291 -0.003206 0.000046 0.000000 0.000000 0.000000
# 2 -0.003206 0.010291 0.000046 0.000000 0.000000 0.000000
# 3 0.000046 0.000046 0.027659 0.000000 0.000000 0.000000
# 4 0.000000 0.000000 0.000000 0.054738 0.000000 0.000000
# 5 0.000000 0.000000 0.000000 0.000000 0.054738 0.000000
# 6 0.000000 0.000000 0.000000 0.000000 0.000000 0.026994
#
#
# Mechanical properties :
#
#
# Convention : Reuss Voigt Hill
#
# Bulk Modulus (GPa) = 23.80183 35.28010 29.54096
# Shear Modulus (GPa) = 24.39711 29.27262 26.83486
#
# Velocity S-wave (km/s) = 3.34611 3.66524 3.50930
# Velocity P-wave (km/s) = 5.08448 5.83977 5.47516
#
# Compressibility (1/GPa) = 0.04201358
#
# Stress axis : x y z
#
# Youngs Moduli (GPa) = 97.17406 97.17406 36.15420
#
# Poissons Ratio (x) = 0.31157 -0.00167
# Poissons Ratio (y) = 0.31157 -0.00167
# Poissons Ratio (z) = -0.00450 -0.00450
#
# Static dielectric constant tensor:
#      x y z
#    x 4.078620 0.000000 0.000000 
#    y 0.000000 4.078620 0.000000 
#    z 0.000000 0.000000 4.389630 
# 
# 
# High freq. dielectric constant tensor:
#      x y z
#    x 1.864760 0.000000 0.000000 
#    y 0.000000 1.864760 0.000000 
#    z 0.000000 0.000000 1.831030 
# 
# From -- ./inp_files/5679.got.cif
#   From: 2010.03.12/outbox.cif.g09.slc.cpg/sg178_3_cif.got.tgz:5679.got - 2010.04.02 07:02:38.
