data_PCOD8325418
_publ_section_title
;
Structure prediction by ZEFSAII (Michael W. Deem and Ramdas Pophale) SiO2 
 PCOD8325418
Probable space group: P 63/M
;
_chemical_formula_sum "Si O2"
_cell_formula_units_Z 60
_cell_length_a 16.938394
_cell_length_b 16.938394
_cell_length_c 12.829363
_cell_angle_alpha 90.000000
_cell_angle_beta 90.000000
_cell_angle_gamma 120.000000
_cell_volume 3187.720141
_symmetry_space_group_name_H-M "P 63/M"
_symmetry_group_IT_number 176
_symmetry_cell_setting 'hexagonal'
loop_
_space_group_symop_operation_xyz
x,y,z
x-y,x,1/2+z
-y,x-y,z
-x,-y,1/2+z
-x+y,-x,z
y,-x+y,1/2+z
-x,-y,-z
-x+y,-x,1/2-z
y,-x+y,-z
x,y,1/2-z
x-y,x,-z
-y,x-y,1/2-z
loop_
_atom_site_type_symbol
_atom_site_label
_atom_site_fract_x
_atom_site_fract_y
_atom_site_fract_z
Si Si1 0.704206 0.755540 0.626965
Si Si2 0.580782 0.443533 0.439374
Si Si3 0.250784 0.776801 0.630617
Si Si4 0.449646 0.041729 0.868915
Si Si5 0.895609 0.908430 0.625765
O O1 0.713305 0.763291 0.750000
O O2 0.628251 0.781227 0.589932
O O3 0.670589 0.651250 0.594024
O O4 0.802388 0.827068 0.576088
O O5 0.674543 0.505329 0.378650
O O6 0.548688 0.336651 0.436278
O O7 0.506601 0.459471 0.380779
O O8 0.596173 0.475024 0.559632
O O9 0.283518 0.800503 0.750000
O O10 0.468626 0.075633 0.750000
O O11 0.887325 0.901473 0.750000
O O12 0.988146 0.905019 0.592222
#
# Coordination Sequence:
#
# PCOD8325418 Si02
#       5
#    12  12  12  12  12
#     4   8  14  26  46  71  97 131 170 212 257 299
#     4  10  19  32  53  79 101 133 172 217 270 317
#     4  10  18  29  50  78 103 125 168 223 265 305
#     4   9  18  33  53  74 105 142 172 207 263 330
#     4   7  11  20  40  67  94 126 167 211 246 283
#
# _framework density 18.822230000000001
#
# number of rings (size 3 to 8) (size 9 to 14) (size 15 to 20)
#    0.400    2.800    0.000    3.400    0.000    0.000 
#    0.000    1.000   13.200    0.000    0.000    1.400 
#    0.000    0.000    0.000    0.000    0.000    2.200 
#
# Total GULP energy -743372.422726 kJ/mol
# GULP energy per Si atom -12389.540379 kJ/mol
# Density = 1.877939 g / cm^3
# Si number density = 18.822230 Si / 1000 Ang^3
#
#
#
# Elastic Constant Matrix: (Units=GPa)
#
#
# Indices 1 2 3 4 5 6 
#
# 1 103.7025 56.8570 40.5009 0.0000 0.0000 0.0000
# 2 56.8570 103.7025 40.5009 0.0000 0.0000 0.0000
# 3 40.5009 40.5009 51.8142 0.0000 0.0000 0.0000
# 4 0.0000 0.0000 0.0000 21.7600 0.0000 0.0000
# 5 0.0000 0.0000 0.0000 0.0000 21.7600 0.0000
# 6 0.0000 0.0000 0.0000 0.0000 0.0000 23.4227
#
#
#
# Elastic Compliance Matrix: (Units=1/GPa)
#
#
# Indices 1 2 3 4 5 6 
#
# 1 0.015815 -0.005532 -0.008038 0.000000 0.000000 0.000000
# 2 -0.005532 0.015815 -0.008038 0.000000 0.000000 0.000000
# 3 -0.008038 -0.008038 0.031866 0.000000 0.000000 0.000000
# 4 0.000000 0.000000 0.000000 0.045956 0.000000 0.000000
# 5 0.000000 0.000000 0.000000 0.000000 0.045956 0.000000
# 6 0.000000 0.000000 0.000000 0.000000 0.000000 0.042694
#
#
# Mechanical properties :
#
#
# Convention : Reuss Voigt Hill
#
# Bulk Modulus (GPa) = 49.30911 59.43744 54.37327
# Shear Modulus (GPa) = 20.15502 21.47925 20.81713
#
# Velocity S-wave (km/s) = 3.27587 3.38178 3.32925
# Velocity P-wave (km/s) = 6.36888 6.84802 6.61279
#
# Compressibility (1/GPa) = 0.02028023
#
# Stress axis : x y z
#
# Youngs Moduli (GPa) = 63.23071 63.23071 31.38158
#
# Poissons Ratio (x) = 0.34977 0.25225
# Poissons Ratio (y) = 0.34977 0.25225
# Poissons Ratio (z) = 0.50826 0.50826
#
# Static dielectric constant tensor:
#      x y z
#    x 3.638570 0.000000 0.000000 
#    y 0.000000 3.638570 0.000000 
#    z 0.000000 0.000000 3.293240 
# 
# 
# High freq. dielectric constant tensor:
#      x y z
#    x 1.722170 0.000000 0.000000 
#    y 0.000000 1.722170 0.000000 
#    z 0.000000 0.000000 1.713580 
# 
# From -- ./inp_files/2733.got.cif
#   From: 2010.06.25/outbox.cif.g09.slc.cpg/sg176_2_cif.got.tgz:2733.got - 2010.06.28 12:15:01.
