data_PCOD8325036
_publ_section_title
;
Structure prediction by ZEFSAII (Michael W. Deem and Ramdas Pophale) SiO2 
 PCOD8325036
Probable space group: P 6/M
;
_chemical_formula_sum "Si O2"
_cell_formula_units_Z 90
_cell_length_a 26.536189
_cell_length_b 26.536189
_cell_length_c 8.761813
_cell_angle_alpha 90.000000
_cell_angle_beta 90.000000
_cell_angle_gamma 120.000000
_cell_volume 5343.203502
_symmetry_space_group_name_H-M "P 6/M"
_symmetry_group_IT_number 175
_symmetry_cell_setting 'hexagonal'
loop_
_space_group_symop_operation_xyz
x,y,z
x-y,x,z
-y,x-y,z
-x,-y,z
-x+y,-x,z
y,-x+y,z
-x,-y,-z
-x+y,-x,-z
y,-x+y,-z
x,y,-z
x-y,x,-z
-y,x-y,-z
loop_
_atom_site_type_symbol
_atom_site_label
_atom_site_fract_x
_atom_site_fract_y
_atom_site_fract_z
Si Si1 0.228289 0.669825 0.820644
Si Si2 0.138328 0.068329 0.000000
Si Si3 0.842480 0.566389 0.327749
Si Si4 0.875964 0.748698 0.832375
Si Si5 0.249005 0.936270 0.319068
Si Si6 0.561471 0.337821 0.682737
Si Si7 0.439178 0.161664 0.326817
Si Si8 0.932507 0.247614 0.320010
O O1 0.207018 0.604845 0.764078
O O2 0.287352 0.712359 0.731203
O O3 0.176759 0.683200 0.782043
O O4 0.240651 0.675652 0.000000
O O5 0.098080 0.097331 0.000000
O O6 0.180732 0.089277 0.149566
O O7 0.860061 0.563022 0.500000
O O8 0.896836 0.622054 0.247999
O O9 0.823439 0.503265 0.255035
O O10 0.789360 0.578414 0.319469
O O11 0.917007 0.732133 0.738459
O O12 0.814493 0.725916 0.753175
O O13 0.865041 0.719383 0.000000
O O14 0.244651 0.928942 0.500000
O O15 0.292340 0.001798 0.267265
O O16 0.566056 0.343244 0.500000
O O17 0.456027 0.154854 0.500000
O O18 0.382400 0.103631 0.266991
O O19 0.926202 0.237730 0.500000
#
# Coordination Sequence:
#
# PCOD8325036 Si02
#       8
#    12   6  12  12  12  12  12  12
#     4  11  21  32  48  74 103 130 169 217 256 298
#     4  10  21  36  52  70 100 142 184 218 254 310
#     4   8  15  29  49  71  97 125 162 205 247 301
#     4  10  21  32  49  73 108 132 165 209 260 312
#     4  10  18  32  54  79 103 130 165 211 262 305
#     4  10  19  33  51  70  98 137 170 204 254 312
#     4   9  17  32  49  70  99 134 168 203 252 314
#     4  10  19  32  54  78 103 133 167 209 258 310
#
# _framework density 16.843827000000001
#
# number of rings (size 3 to 8) (size 9 to 14) (size 15 to 20)
#    0.400    1.867    1.333    3.933    0.000    0.533 
#    0.000    0.667    0.000    0.800    0.000    5.600 
#    0.000    6.400    0.000    0.000    0.000    0.000 
#
# Total GULP energy -1115501.656119 kJ/mol
# GULP energy per Si atom -12394.462846 kJ/mol
# Density = 1.680549 g / cm^3
# Si number density = 16.843827 Si / 1000 Ang^3
#
#
#
# Elastic Constant Matrix: (Units=GPa)
#
#
# Indices 1 2 3 4 5 6 
#
# 1 119.9225 75.8145 27.9861 0.0000 0.0000 0.0000
# 2 75.8145 119.9225 27.9861 0.0000 0.0000 0.0000
# 3 27.9861 27.9861 41.0772 0.0000 0.0000 0.0000
# 4 0.0000 0.0000 0.0000 17.7176 0.0000 0.0000
# 5 0.0000 0.0000 0.0000 0.0000 17.7176 0.0000
# 6 0.0000 0.0000 0.0000 0.0000 0.0000 22.0540
#
#
#
# Elastic Compliance Matrix: (Units=1/GPa)
#
#
# Indices 1 2 3 4 5 6 
#
# 1 0.014508 -0.008163 -0.004323 0.000000 0.000000 0.000000
# 2 -0.008163 0.014508 -0.004323 0.000000 0.000000 0.000000
# 3 -0.004323 -0.004323 0.030235 0.000000 0.000000 0.000000
# 4 0.000000 0.000000 0.000000 0.056441 0.000000 0.000000
# 5 0.000000 0.000000 0.000000 0.000000 0.056441 0.000000
# 6 0.000000 0.000000 0.000000 0.000000 0.000000 0.045343
#
#
# Mechanical properties :
#
#
# Convention : Reuss Voigt Hill
#
# Bulk Modulus (GPa) = 39.01176 60.49952 49.75564
# Shear Modulus (GPa) = 19.25744 21.44018 20.34881
#
# Velocity S-wave (km/s) = 3.38493 3.57162 3.47953
# Velocity P-wave (km/s) = 6.20388 7.28042 6.76360
#
# Compressibility (1/GPa) = 0.02563329
#
# Stress axis : x y z
#
# Youngs Moduli (GPa) = 68.92575 68.92575 33.07440
#
# Poissons Ratio (x) = 0.56266 0.14298
# Poissons Ratio (y) = 0.56266 0.14298
# Poissons Ratio (z) = 0.29796 0.29796
#
# Static dielectric constant tensor:
#      x y z
#    x 3.269730 0.000000 0.000000 
#    y 0.000000 3.269730 0.000000 
#    z 0.000000 0.000000 3.020620 
# 
# 
# High freq. dielectric constant tensor:
#      x y z
#    x 1.644030 0.000000 0.000000 
#    y 0.000000 1.644030 0.000000 
#    z 0.000000 0.000000 1.632760 
# 
# From -- ./inp_files/1450.got.cif
#   From: 2010.03.12/outbox.cif.g09.slc.cpg/sg175_1_cif.got.tgz:1450.got - 2010.04.02 06:55:29.
