data_PCOD8325175
_publ_section_title
;
Structure prediction by ZEFSAII (Michael W. Deem and Ramdas Pophale) SiO2 
 PCOD8325175
Probable space group: P 6/M
;
_chemical_formula_sum "Si O2"
_cell_formula_units_Z 40
_cell_length_a 19.004212
_cell_length_b 19.004212
_cell_length_c 8.557314
_cell_angle_alpha 90.000000
_cell_angle_beta 90.000000
_cell_angle_gamma 120.000000
_cell_volume 2676.503606
_symmetry_space_group_name_H-M "P 6/M"
_symmetry_group_IT_number 175
_symmetry_cell_setting 'hexagonal'
loop_
_space_group_symop_operation_xyz
x,y,z
x-y,x,z
-y,x-y,z
-x,-y,z
-x+y,-x,z
y,-x+y,z
-x,-y,-z
-x+y,-x,-z
y,-x+y,-z
x,y,-z
x-y,x,-z
-y,x-y,-z
loop_
_atom_site_type_symbol
_atom_site_label
_atom_site_fract_x
_atom_site_fract_y
_atom_site_fract_z
Si Si1 0.765224 0.258130 0.816369
Si Si2 0.613764 0.091445 0.816947
Si Si3 0.333335 0.666668 0.685000
Si Si4 0.377556 0.453388 0.682891
O O1 0.702828 0.164857 0.770730
O O2 0.736227 0.317817 0.749230
O O3 0.853546 0.288741 0.739662
O O4 0.775599 0.270311 0.000000
O O5 0.545737 0.100352 0.722859
O O6 0.609712 0.007416 0.770454
O O7 0.596568 0.092929 0.000000
O O8 0.333334 0.666668 0.500000
O O9 0.376611 0.438654 0.500000
#
# Coordination Sequence:
#
# PCOD8325175 Si02
#       4
#    12  12   4  12
#     4  11  21  33  48  63  86 118 151 185 224 269
#     4  10  20  33  48  62  85 116 149 184 223 270
#     4  12  22  29  43  66  88 110 148 195 229 260
#     4  11  21  31  46  65  89 113 144 188 227 265
#
# _framework density 14.94487
#
# number of rings (size 3 to 8) (size 9 to 14) (size 15 to 20)
#    0.000    1.200    3.000    7.200    0.000    3.600 
#    0.000    0.000    0.000    0.000    0.000    0.000 
#    0.000    0.000    0.000    0.900    0.000   17.400 
#
# Total GULP energy -496047.264562 kJ/mol
# GULP energy per Si atom -12401.181614 kJ/mol
# Density = 1.491085 g / cm^3
# Si number density = 14.944870 Si / 1000 Ang^3
#
#
#
# Elastic Constant Matrix: (Units=GPa)
#
#
# Indices 1 2 3 4 5 6 
#
# 1 74.6641 28.4969 10.5322 0.0000 0.0000 0.0004
# 2 28.4969 74.6652 10.5325 0.0000 0.0000 0.0003
# 3 10.5322 10.5325 53.8165 0.0000 0.0000 0.0000
# 4 0.0000 0.0000 0.0000 11.6674 -0.0008 0.0000
# 5 0.0000 0.0000 0.0000 -0.0008 11.6672 0.0000
# 6 0.0004 0.0003 0.0000 0.0000 0.0000 23.0841
#
#
#
# Elastic Compliance Matrix: (Units=1/GPa)
#
#
# Indices 1 2 3 4 5 6 
#
# 1 0.015879 -0.005782 -0.001976 0.000000 0.000000 0.000000
# 2 -0.005782 0.015878 -0.001976 0.000000 0.000000 0.000000
# 3 -0.001976 -0.001976 0.019355 0.000000 0.000000 0.000000
# 4 0.000000 0.000000 0.000000 0.085709 0.000006 0.000000
# 5 0.000000 0.000000 0.000000 0.000006 0.085710 0.000000
# 6 0.000000 0.000000 0.000000 0.000000 0.000000 0.043320
#
#
# Mechanical properties :
#
#
# Convention : Reuss Voigt Hill
#
# Bulk Modulus (GPa) = 31.60067 33.58544 32.59305
# Shear Modulus (GPa) = 16.89949 19.52268 18.21108
#
# Velocity S-wave (km/s) = 3.36637 3.61822 3.49456
# Velocity P-wave (km/s) = 6.02500 6.32274 6.17566
#
# Compressibility (1/GPa) = 0.03164490
#
# Stress axis : x y z
#
# Youngs Moduli (GPa) = 62.97746 62.97827 51.66588
#
# Poissons Ratio (x) = 0.36411 0.10209
# Poissons Ratio (y) = 0.36411 0.10210
# Poissons Ratio (z) = 0.12445 0.12445
#
# Static dielectric constant tensor:
#      x y z
#    x 2.902920 -0.000010 0.000000 
#    y -0.000010 2.902930 0.000000 
#    z 0.000000 0.000000 3.006750 
# 
# 
# High freq. dielectric constant tensor:
#      x y z
#    x 1.545720 0.000000 0.000000 
#    y 0.000000 1.545720 0.000000 
#    z 0.000000 0.000000 1.593510 
# 
# From -- ./inp_files/424.got.cif
#   From: 2010.03.12/outbox.cif.g09.slc.cpg/sg175_1_cif.got.tgz:424.got - 2010.04.02 06:55:29.
