data_PCOD8325978
_publ_section_title
;
Structure prediction by ZEFSAII (Michael W. Deem and Ramdas Pophale) SiO2 
 PCOD8325978
Probable space group: P 61 2 2
;
_chemical_formula_sum "Si O2"
_cell_formula_units_Z 72
_cell_length_a 15.067001
_cell_length_b 15.067001
_cell_length_c 17.508282
_cell_angle_alpha 90.000000
_cell_angle_beta 90.000000
_cell_angle_gamma 120.000000
_cell_volume 3442.134204
_symmetry_space_group_name_H-M "P 61 2 2"
_symmetry_group_IT_number 178
_symmetry_cell_setting 'hexagonal'
loop_
_space_group_symop_operation_xyz
x,y,z
x-y,x,1/6+z
-y,x-y,1/3+z
-x,-y,1/2+z
-x+y,-x,2/3+z
y,-x+y,5/6+z
x-y,-y,-z
-x,-x+y,2/3-z
y,x,1/3-z
-y,-x,5/6-z
-x+y,y,1/2-z
x,x-y,1/6-z
loop_
_atom_site_type_symbol
_atom_site_label
_atom_site_fract_x
_atom_site_fract_y
_atom_site_fract_z
Si Si1 0.588732 0.019355 0.804214
Si Si2 0.093099 0.783235 0.058457
Si Si3 0.919449 0.959725 0.083334
Si Si4 0.884547 0.755207 0.043578
Si Si5 0.440954 0.220477 0.083334
Si Si6 0.418031 0.209570 0.499770
Si Si7 0.536961 0.437491 0.717426
O O1 0.518962 0.037924 0.750000
O O2 0.668244 0.134986 0.829159
O O3 0.636572 0.969839 0.749907
O O4 0.528281 0.941967 0.872362
O O5 0.155661 0.851187 0.130175
O O6 0.008011 0.815396 0.040401
O O7 0.169566 0.801618 0.989429
O O8 0.978890 0.978890 0.166667
O O9 0.850242 0.838616 0.064215
O O10 0.826772 0.672342 0.107602
O O11 0.509828 0.167958 0.068091
O O12 0.368439 0.184220 0.583334
O O13 0.502677 0.174101 0.489611
O O14 0.512737 0.512737 0.666667
#
# Coordination Sequence:
#
# PCOD8325978 Si02
#       7
#    12  12   6  12   6  12  12
#     4  11  23  47  72 100 146 188 233 303 367 425
#     4  11  25  46  69 102 138 196 240 292 362 433
#     4  12  26  43  66 106 142 188 240 295 352 424
#     4  11  25  45  71 102 144 188 233 298 363 429
#     4  12  30  47  74 102 146 196 246 305 352 452
#     4  11  25  45  75 109 140 184 239 300 370 439
#     4  12  26  49  74 109 145 190 247 306 369 440
#
# _framework density 20.917255999999998
#
# number of rings (size 3 to 8) (size 9 to 14) (size 15 to 20)
#    0.000    0.667    6.667    0.000    4.667    1.333 
#    3.000    0.000    0.000    0.000    0.000    0.000 
#    0.000    0.000    0.000    0.000    0.000    0.000 
#
# Total GULP energy -891958.179828 kJ/mol
# GULP energy per Si atom -12388.308053 kJ/mol
# Density = 2.086965 g / cm^3
# Si number density = 20.917256 Si / 1000 Ang^3
#
#
#
# Elastic Constant Matrix: (Units=GPa)
#
#
# Indices 1 2 3 4 5 6 
#
# 1 101.2652 36.4057 48.9047 0.0000 0.0000 0.0000
# 2 36.4057 101.2652 48.9047 0.0000 0.0000 0.0000
# 3 48.9047 48.9047 173.3751 0.0000 0.0000 0.0000
# 4 0.0000 0.0000 0.0000 36.2106 0.0000 0.0000
# 5 0.0000 0.0000 0.0000 0.0000 36.2106 0.0000
# 6 0.0000 0.0000 0.0000 0.0000 0.0000 32.4297
#
#
#
# Elastic Compliance Matrix: (Units=1/GPa)
#
#
# Indices 1 2 3 4 5 6 
#
# 1 0.012251 -0.003167 -0.002562 0.000000 0.000000 0.000000
# 2 -0.003167 0.012251 -0.002562 0.000000 0.000000 0.000000
# 3 -0.002562 -0.002562 0.007213 0.000000 0.000000 0.000000
# 4 0.000000 0.000000 0.000000 0.027616 0.000000 0.000000
# 5 0.000000 0.000000 0.000000 0.000000 0.027616 0.000000
# 6 0.000000 0.000000 0.000000 0.000000 0.000000 0.030836
#
#
# Mechanical properties :
#
#
# Convention : Reuss Voigt Hill
#
# Bulk Modulus (GPa) = 66.08452 71.59284 68.83868
# Shear Modulus (GPa) = 35.86507 37.08287 36.47397
#
# Velocity S-wave (km/s) = 4.14528 4.21507 4.18032
# Velocity P-wave (km/s) = 7.38736 7.61512 7.50211
#
# Compressibility (1/GPa) = 0.01513214
#
# Stress axis : x y z
#
# Youngs Moduli (GPa) = 81.62553 81.62553 138.63037
#
# Poissons Ratio (x) = 0.25850 0.35523
# Poissons Ratio (y) = 0.25850 0.35523
# Poissons Ratio (z) = 0.20916 0.20916
#
# Static dielectric constant tensor:
#      x y z
#    x 3.931560 0.000000 0.000000 
#    y 0.000000 3.931560 0.000000 
#    z 0.000000 0.000000 4.098650 
# 
# 
# High freq. dielectric constant tensor:
#      x y z
#    x 1.819520 0.000000 0.000000 
#    y 0.000000 1.819520 0.000000 
#    z 0.000000 0.000000 1.842940 
# 
# From -- ./inp_files/6826.got.cif
#   From: 2010.03.12/outbox.cif.g09.slc.cpg/sg178_4_cif.got.tgz:6826.got - 2010.04.02 07:02:38.
