data_PCOD8325190
_publ_section_title
;
Structure prediction by ZEFSAII (Michael W. Deem and Ramdas Pophale) SiO2 
 PCOD8325190
Probable space group: P 6/M
;
_chemical_formula_sum "Si O2"
_cell_formula_units_Z 84
_cell_length_a 17.676559
_cell_length_b 17.676559
_cell_length_c 17.825583
_cell_angle_alpha 90.000000
_cell_angle_beta 90.000000
_cell_angle_gamma 120.000000
_cell_volume 4823.583809
_symmetry_space_group_name_H-M "P 6/M"
_symmetry_group_IT_number 175
_symmetry_cell_setting 'hexagonal'
loop_
_space_group_symop_operation_xyz
x,y,z
x-y,x,z
-y,x-y,z
-x,-y,z
-x+y,-x,z
y,-x+y,z
-x,-y,-z
-x+y,-x,-z
y,-x+y,-z
x,y,-z
x-y,x,-z
-y,x-y,-z
loop_
_atom_site_type_symbol
_atom_site_label
_atom_site_fract_x
_atom_site_fract_y
_atom_site_fract_z
Si Si1 0.184805 0.017710 0.912771
Si Si2 0.845176 0.353172 0.911652
Si Si3 0.587950 0.999843 0.309538
Si Si4 0.666656 0.506335 0.414784
Si Si5 0.486161 0.313375 0.089312
Si Si6 0.000281 0.337059 0.152109
Si Si7 0.160143 0.493286 0.585305
O O1 0.097016 0.928379 0.893137
O O2 0.265165 0.028799 0.862247
O O3 0.209975 0.020000 0.000000
O O4 0.839165 0.434969 0.878618
O O5 0.765062 0.263950 0.879209
O O6 0.937210 0.363352 0.890655
O O7 0.836705 0.353491 0.000000
O O8 0.650080 0.083427 0.358690
O O9 0.500000 0.000000 0.284406
O O10 0.566385 0.916780 0.359325
O O11 0.643353 0.998137 0.239619
O O12 0.666805 0.537076 0.500000
O O13 0.758620 0.517301 0.391987
O O14 0.594153 0.405526 0.405356
O O15 0.394806 0.297469 0.120220
O O16 0.483173 0.312725 0.000000
O O17 0.129424 0.462548 0.500000
#
# Coordination Sequence:
#
# PCOD8325190 Si02
#       7
#    12  12  12  12  12  12  12
#     4  10  21  38  59  80 100 124 158 204 257 306
#     4  10  20  34  51  70  94 127 168 212 254 294
#     4  10  21  34  47  68 102 138 164 192 237 288
#     4   9  17  31  52  75  97 124 161 202 240 280
#     4  10  20  34  51  70  94 127 168 212 254 294
#     4  12  22  33  50  74 102 132 166 201 242 294
#     4   9  17  31  52  75  97 124 161 202 240 280
#
# _framework density 17.414437
#
# number of rings (size 3 to 8) (size 9 to 14) (size 15 to 20)
#    0.000    2.000    0.000    4.571    0.000   10.286 
#    0.000    0.000    0.000    3.429    0.000    0.000 
#    0.000    0.000    0.000    0.000    0.000   15.143 
#
# Total GULP energy -1041835.293465 kJ/mol
# GULP energy per Si atom -12402.801113 kJ/mol
# Density = 1.737480 g / cm^3
# Si number density = 17.414437 Si / 1000 Ang^3
#
#
#
# Elastic Constant Matrix: (Units=GPa)
#
#
# Indices 1 2 3 4 5 6 
#
# 1 87.8310 23.7314 39.0839 0.0000 0.0000 0.0000
# 2 23.7314 87.8310 39.0839 0.0000 0.0000 0.0000
# 3 39.0839 39.0839 67.7079 0.0000 0.0000 0.0000
# 4 0.0000 0.0000 0.0000 16.7319 0.0000 0.0000
# 5 0.0000 0.0000 0.0000 0.0000 16.7319 0.0000
# 6 0.0000 0.0000 0.0000 0.0000 0.0000 32.0498
#
#
#
# Elastic Compliance Matrix: (Units=1/GPa)
#
#
# Indices 1 2 3 4 5 6 
#
# 1 0.015326 -0.000275 -0.008688 0.000000 0.000000 0.000000
# 2 -0.000275 0.015326 -0.008688 0.000000 0.000000 0.000000
# 3 -0.008688 -0.008688 0.024800 0.000000 0.000000 0.000000
# 4 0.000000 0.000000 0.000000 0.059766 0.000000 0.000000
# 5 0.000000 0.000000 0.000000 0.000000 0.059766 0.000000
# 6 0.000000 0.000000 0.000000 0.000000 0.000000 0.031201
#
#
# Mechanical properties :
#
#
# Convention : Reuss Voigt Hill
#
# Bulk Modulus (GPa) = 49.62958 49.68538 49.65748
# Shear Modulus (GPa) = 20.14472 22.53407 21.33940
#
# Velocity S-wave (km/s) = 3.40484 3.60111 3.50435
# Velocity P-wave (km/s) = 6.63462 6.77375 6.70455
#
# Compressibility (1/GPa) = 0.02014927
#
# Stress axis : x y z
#
# Youngs Moduli (GPa) = 65.24901 65.24901 40.32310
#
# Poissons Ratio (x) = 0.01793 0.35033
# Poissons Ratio (y) = 0.01793 0.35033
# Poissons Ratio (z) = 0.56689 0.56689
#
# Static dielectric constant tensor:
#      x y z
#    x 3.308530 0.000000 0.000000 
#    y 0.000000 3.308530 0.000000 
#    z 0.000000 0.000000 3.100940 
# 
# 
# High freq. dielectric constant tensor:
#      x y z
#    x 1.676140 0.000000 0.000000 
#    y 0.000000 1.676140 0.000000 
#    z 0.000000 0.000000 1.654210 
# 
# From -- ./inp_files/2636.got.cif
#   From: 2010.03.12/outbox.cif.g09.slc.cpg/sg175_2_cif.got.tgz:2636.got - 2010.04.02 06:55:29.
