data_PCOD8325992
_publ_section_title
;
Structure prediction by ZEFSAII (Michael W. Deem and Ramdas Pophale) SiO2 
 PCOD8325992
Probable space group: P 61 2 2
;
_chemical_formula_sum "Si O2"
_cell_formula_units_Z 54
_cell_length_a 13.575062
_cell_length_b 13.575062
_cell_length_c 14.725033
_cell_angle_alpha 90.000000
_cell_angle_beta 90.000000
_cell_angle_gamma 120.000000
_cell_volume 2350.014554
_symmetry_space_group_name_H-M "P 61 2 2"
_symmetry_group_IT_number 178
_symmetry_cell_setting 'hexagonal'
loop_
_space_group_symop_operation_xyz
x,y,z
x-y,x,1/6+z
-y,x-y,1/3+z
-x,-y,1/2+z
-x+y,-x,2/3+z
y,-x+y,5/6+z
x-y,-y,-z
-x,-x+y,2/3-z
y,x,1/3-z
-y,-x,5/6-z
-x+y,y,1/2-z
x,x-y,1/6-z
loop_
_atom_site_type_symbol
_atom_site_label
_atom_site_fract_x
_atom_site_fract_y
_atom_site_fract_z
Si Si1 0.835286 0.218885 0.256913
Si Si2 0.860762 0.860762 0.666667
Si Si3 0.518356 0.759178 0.083334
Si Si4 0.926379 0.471602 0.979092
Si Si5 0.455086 0.322448 0.756617
Si Si6 0.557269 0.278635 0.083334
O O1 0.896791 0.154569 0.297296
O O2 0.930694 0.343292 0.219281
O O3 0.754934 0.143182 0.175111
O O4 0.756977 0.233050 0.329884
O O5 0.903914 0.951957 0.583334
O O6 0.435177 0.801085 0.125665
O O7 0.596698 0.752392 0.164122
O O8 0.011250 0.447095 0.920624
O O9 0.961505 0.480753 0.083334
O O10 0.587281 0.360132 0.753754
#
# Coordination Sequence:
#
# PCOD8325992 Si02
#       6
#    12   6   6  12  12   6
#     4  12  25  45  73 112 146 193 257 298 376 455
#     4  12  30  54  86 106 136 190 264 342 390 436
#     4  12  24  40  62 100 150 204 238 282 358 434
#     4  12  25  44  68 105 157 201 240 302 367 450
#     4  12  26  42  70 104 156 195 243 302 367 445
#     4  12  22  40  68 114 152 200 232 296 366 450
#
# _framework density 22.978583
#
# number of rings (size 3 to 8) (size 9 to 14) (size 15 to 20)
#    0.000    0.000    5.556    5.333    3.111    0.000 
#    0.000    0.000    9.778    0.000    0.000    0.000 
#    0.000    0.000    0.000    0.000    0.000    0.000 
#
# Total GULP energy -669592.664318 kJ/mol
# GULP energy per Si atom -12399.864154 kJ/mol
# Density = 2.292628 g / cm^3
# Si number density = 22.978583 Si / 1000 Ang^3
#
#
#
# Elastic Constant Matrix: (Units=GPa)
#
#
# Indices 1 2 3 4 5 6 
#
# 1 68.0276 42.1167 26.8014 0.0000 0.0000 0.0000
# 2 42.1167 68.0276 26.8014 0.0000 0.0000 0.0000
# 3 26.8014 26.8014 151.1857 0.0000 0.0000 0.0000
# 4 0.0000 0.0000 0.0000 40.8348 0.0000 0.0000
# 5 0.0000 0.0000 0.0000 0.0000 40.8348 0.0000
# 6 0.0000 0.0000 0.0000 0.0000 0.0000 12.9554
#
#
#
# Elastic Compliance Matrix: (Units=1/GPa)
#
#
# Indices 1 2 3 4 5 6 
#
# 1 0.024265 -0.014329 -0.001761 0.000000 0.000000 0.000000
# 2 -0.014329 0.024265 -0.001761 0.000000 0.000000 0.000000
# 3 -0.001761 -0.001761 0.007239 0.000000 0.000000 0.000000
# 4 0.000000 0.000000 0.000000 0.024489 0.000000 0.000000
# 5 0.000000 0.000000 0.000000 0.000000 0.024489 0.000000
# 6 0.000000 0.000000 0.000000 0.000000 0.000000 0.077188
#
#
# Mechanical properties :
#
#
# Convention : Reuss Voigt Hill
#
# Bulk Modulus (GPa) = 49.83658 53.18666 51.51162
# Shear Modulus (GPa) = 22.28894 31.69309 26.99102
#
# Velocity S-wave (km/s) = 3.11784 3.71785 3.43099
# Velocity P-wave (km/s) = 5.89038 6.45184 6.17750
#
# Compressibility (1/GPa) = 0.02006558
#
# Stress axis : x y z
#
# Youngs Moduli (GPa) = 41.21155 41.21155 138.14253
#
# Poissons Ratio (x) = 0.59051 0.24333
# Poissons Ratio (y) = 0.59051 0.24333
# Poissons Ratio (z) = 0.07259 0.07259
#
# Static dielectric constant tensor:
#      x y z
#    x 4.049970 0.000000 0.000000 
#    y 0.000000 4.049970 0.000000 
#    z 0.000000 0.000000 4.779100 
# 
# 
# High freq. dielectric constant tensor:
#      x y z
#    x 1.885280 0.000000 0.000000 
#    y 0.000000 1.885280 0.000000 
#    z 0.000000 0.000000 1.945310 
# 
# From -- ./inp_files/5624.got.cif
#   From: 2010.03.12/outbox.cif.g09.slc.cpg/sg178_3_cif.got.tgz:5624.got - 2010.04.02 07:02:38.
