data_PCOD8325177
_publ_section_title
;
Structure prediction by ZEFSAII (Michael W. Deem and Ramdas Pophale) SiO2 
 PCOD8325177
Probable space group: P 6/M
;
_chemical_formula_sum "Si O2"
_cell_formula_units_Z 72
_cell_length_a 22.741542
_cell_length_b 22.741542
_cell_length_c 9.066831
_cell_angle_alpha 90.000000
_cell_angle_beta 90.000000
_cell_angle_gamma 120.000000
_cell_volume 4060.934365
_symmetry_space_group_name_H-M "P 6/M"
_symmetry_group_IT_number 175
_symmetry_cell_setting 'hexagonal'
loop_
_space_group_symop_operation_xyz
x,y,z
x-y,x,z
-y,x-y,z
-x,-y,z
-x+y,-x,z
y,-x+y,z
-x,-y,-z
-x+y,-x,-z
y,-x+y,-z
x,y,-z
x-y,x,-z
-y,x-y,-z
loop_
_atom_site_type_symbol
_atom_site_label
_atom_site_fract_x
_atom_site_fract_y
_atom_site_fract_z
Si Si1 0.392120 0.928190 0.334290
Si Si2 0.103045 0.720859 0.831462
Si Si3 0.906677 0.843438 0.828868
Si Si4 0.286807 0.943122 0.831483
Si Si5 0.487730 0.088545 0.665746
Si Si6 0.143003 0.293554 0.325118
O O1 0.364538 0.903931 0.500000
O O2 0.328605 0.907118 0.226114
O O3 0.436828 0.894154 0.282020
O O4 0.439539 0.008397 0.332630
O O5 0.122404 0.665207 0.774595
O O6 0.144307 0.787685 0.733813
O O7 0.023506 0.692984 0.813807
O O8 0.126491 0.738102 0.000000
O O9 0.880395 0.894741 0.788524
O O10 0.864143 0.776468 0.732076
O O11 0.894043 0.822202 0.000000
O O12 0.219833 0.919799 0.735292
O O13 0.266184 0.921299 0.000000
O O14 0.491340 0.116012 0.500000
O O15 0.142917 0.293999 0.500000
#
# Coordination Sequence:
#
# PCOD8325177 Si02
#       6
#    12  12  12  12  12  12
#     4   8  14  26  45  69  97 126 153 182 219 266
#     4  10  20  33  49  69  95 127 162 201 244 292
#     4  10  21  38  58  76  94 120 160 212 270 330
#     4  10  20  33  49  69  95 127 162 201 244 292
#     4   8  14  26  45  69  97 126 153 182 219 266
#     4  12  24  35  49  69  96 130 166 206 256 312
#
# _framework density 17.72991
#
# number of rings (size 3 to 8) (size 9 to 14) (size 15 to 20)
#    0.000    2.333    0.000    4.667    0.000    8.000 
#    0.000    3.333    0.000    1.000    0.000    0.000 
#    1.667    0.000    3.000    0.000    3.000    0.000 
#
# Total GULP energy -892725.802103 kJ/mol
# GULP energy per Si atom -12398.969474 kJ/mol
# Density = 1.768956 g / cm^3
# Si number density = 17.729910 Si / 1000 Ang^3
#
#
#
# Elastic Constant Matrix: (Units=GPa)
#
#
# Indices 1 2 3 4 5 6 
#
# 1 46.0527 3.2860 23.4035 0.0000 0.0000 0.0000
# 2 3.2860 46.0527 23.4035 0.0000 0.0000 0.0000
# 3 23.4035 23.4035 101.4154 0.0000 0.0000 0.0000
# 4 0.0000 0.0000 0.0000 25.9533 0.0000 0.0000
# 5 0.0000 0.0000 0.0000 0.0000 25.9533 0.0000
# 6 0.0000 0.0000 0.0000 0.0000 0.0000 21.3834
#
#
#
# Elastic Compliance Matrix: (Units=1/GPa)
#
#
# Indices 1 2 3 4 5 6 
#
# 1 0.024666 0.001283 -0.005988 0.000000 0.000000 0.000000
# 2 0.001283 0.024666 -0.005988 0.000000 0.000000 0.000000
# 3 -0.005988 -0.005988 0.012624 0.000000 0.000000 0.000000
# 4 0.000000 0.000000 0.000000 0.038531 0.000000 0.000000
# 5 0.000000 0.000000 0.000000 0.000000 0.038531 0.000000
# 6 0.000000 0.000000 0.000000 0.000000 0.000000 0.046765
#
#
# Mechanical properties :
#
#
# Convention : Reuss Voigt Hill
#
# Bulk Modulus (GPa) = 24.64911 32.63409 28.64160
# Shear Modulus (GPa) = 22.65596 24.21985 23.43791
#
# Velocity S-wave (km/s) = 3.57856 3.70001 3.63980
# Velocity P-wave (km/s) = 5.56844 6.05802 5.81839
#
# Compressibility (1/GPa) = 0.04056942
#
# Stress axis : x y z
#
# Youngs Moduli (GPa) = 40.54185 40.54185 79.21271
#
# Poissons Ratio (x) = -0.05202 0.47434
# Poissons Ratio (y) = -0.05202 0.47434
# Poissons Ratio (z) = 0.24277 0.24277
#
# Static dielectric constant tensor:
#      x y z
#    x 3.280300 0.000000 0.000000 
#    y 0.000000 3.280300 0.000000 
#    z 0.000000 0.000000 3.375790 
# 
# 
# High freq. dielectric constant tensor:
#      x y z
#    x 1.665120 0.000000 0.000000 
#    y 0.000000 1.665120 0.000000 
#    z 0.000000 0.000000 1.688340 
# 
# From -- ./inp_files/1228.got.cif
#   From: 2010.03.12/outbox.cif.g09.slc.cpg/sg175_1_cif.got.tgz:1228.got - 2010.04.02 06:55:29.
