data_PCOD8325067
_publ_section_title
;
Structure prediction by ZEFSAII (Michael W. Deem and Ramdas Pophale) SiO2 
 PCOD8325067
Probable space group: P 6/M
;
_chemical_formula_sum "Si O2"
_cell_formula_units_Z 76
_cell_length_a 19.364813
_cell_length_b 19.364813
_cell_length_c 13.578534
_cell_angle_alpha 90.000000
_cell_angle_beta 90.000000
_cell_angle_gamma 120.000000
_cell_volume 4409.711028
_symmetry_space_group_name_H-M "P 6/M"
_symmetry_group_IT_number 175
_symmetry_cell_setting 'hexagonal'
loop_
_space_group_symop_operation_xyz
x,y,z
x-y,x,z
-y,x-y,z
-x,-y,z
-x+y,-x,z
y,-x+y,z
-x,-y,-z
-x+y,-x,-z
y,-x+y,-z
x,y,-z
x-y,x,-z
-y,x-y,-z
loop_
_atom_site_type_symbol
_atom_site_label
_atom_site_fract_x
_atom_site_fract_y
_atom_site_fract_z
Si Si1 0.605781 0.166036 0.725490
Si Si2 0.334897 0.890583 0.112588
Si Si3 0.059292 0.635394 0.783058
Si Si4 0.108601 0.175000 0.117267
Si Si5 0.967687 0.561207 0.606608
Si Si6 0.333334 0.666668 0.377142
Si Si7 0.848397 0.201838 0.887001
O O1 0.657249 0.176624 0.824098
O O2 0.518019 0.107150 0.766694
O O3 0.633507 0.122205 0.647150
O O4 0.617841 0.244959 0.670050
O O5 0.243035 0.867063 0.124508
O O6 0.393587 0.982764 0.144542
O O7 0.355070 0.882377 0.000000
O O8 0.125571 0.721326 0.820129
O O9 0.022533 0.636805 0.676368
O O10 0.142858 0.121720 0.161591
O O11 0.165653 0.264355 0.152267
O O12 0.103374 0.170903 0.000000
O O13 0.966664 0.596440 0.500000
O O14 0.000000 0.500000 0.599959
O O15 0.333334 0.666668 0.500000
O O16 0.867624 0.230472 0.000000
#
# Coordination Sequence:
#
# PCOD8325067 Si02
#       7
#    12  12  12  12  12   4  12
#     4  10  21  35  51  75 100 127 172 216 254 308
#     4  10  20  34  52  73 102 141 177 210 251 301
#     4  10  19  32  52  74  99 130 169 211 249 301
#     4   9  16  26  41  62  89 121 156 192 231 279
#     4   8  15  30  51  72  92 117 153 199 247 295
#     4  12  24  39  58  77 103 135 168 219 289 341
#     4  10  19  30  45  69 100 131 166 205 245 290
#
# _framework density 17.234690000000001
#
# number of rings (size 3 to 8) (size 9 to 14) (size 15 to 20)
#    0.000    2.368    0.000    4.421    0.000    5.684 
#    0.000    0.789    0.000    0.947    0.000    0.000 
#    0.000    0.000    0.000    0.316    0.000   13.421 
#
# Total GULP energy -941491.764330 kJ/mol
# GULP energy per Si atom -12388.049531 kJ/mol
# Density = 1.719546 g / cm^3
# Si number density = 17.234690 Si / 1000 Ang^3
#
#
#
# Elastic Constant Matrix: (Units=GPa)
#
#
# Indices 1 2 3 4 5 6 
#
# 1 71.1143 16.4054 37.6493 0.0000 0.0000 -0.0001
# 2 16.4054 71.1148 37.6496 0.0000 0.0000 0.0000
# 3 37.6493 37.6496 117.9893 0.0000 0.0000 0.0001
# 4 0.0000 0.0000 0.0000 15.8453 -0.0001 0.0000
# 5 0.0000 0.0000 0.0000 -0.0001 15.8452 0.0000
# 6 -0.0001 0.0000 0.0001 0.0000 0.0000 27.3543
#
#
#
# Elastic Compliance Matrix: (Units=1/GPa)
#
#
# Indices 1 2 3 4 5 6 
#
# 1 0.017014 -0.001264 -0.005026 0.000000 0.000000 0.000000
# 2 -0.001264 0.017014 -0.005026 0.000000 0.000000 0.000000
# 3 -0.005026 -0.005026 0.011683 0.000000 0.000000 0.000000
# 4 0.000000 0.000000 0.000000 0.063110 0.000000 0.000000
# 5 0.000000 0.000000 0.000000 0.000000 0.063111 0.000000
# 6 0.000000 0.000000 0.000000 0.000000 0.000000 0.036557
#
#
# Mechanical properties :
#
#
# Convention : Reuss Voigt Hill
#
# Bulk Modulus (GPa) = 43.32807 49.29188 46.30998
# Shear Modulus (GPa) = 20.93684 23.04323 21.99003
#
# Velocity S-wave (km/s) = 3.48919 3.66050 3.57587
# Velocity P-wave (km/s) = 6.43640 6.82116 6.63157
#
# Compressibility (1/GPa) = 0.02307972
#
# Stress axis : x y z
#
# Youngs Moduli (GPa) = 58.77440 58.77473 85.59716
#
# Poissons Ratio (x) = 0.07431 0.43018
# Poissons Ratio (y) = 0.07431 0.43018
# Poissons Ratio (z) = 0.29538 0.29538
#
# Static dielectric constant tensor:
#      x y z
#    x 3.186970 0.000000 0.000000 
#    y 0.000000 3.186960 0.000000 
#    z 0.000000 0.000000 3.389980 
# 
# 
# High freq. dielectric constant tensor:
#      x y z
#    x 1.659750 0.000000 0.000000 
#    y 0.000000 1.659750 0.000000 
#    z 0.000000 0.000000 1.646780 
# 
# From -- ./inp_files/2563.got.cif
#   From: 2010.03.12/outbox.cif.g09.slc.cpg/sg175_2_cif.got.tgz:2563.got - 2010.04.02 06:55:29.
