data_PCOD8325199
_publ_section_title
;
Structure prediction by ZEFSAII (Michael W. Deem and Ramdas Pophale) SiO2 
 PCOD8325199
Probable space group: P 6/M
;
_chemical_formula_sum "Si O2"
_cell_formula_units_Z 66
_cell_length_a 21.198636
_cell_length_b 21.198636
_cell_length_c 8.173460
_cell_angle_alpha 90.000000
_cell_angle_beta 90.000000
_cell_angle_gamma 120.000000
_cell_volume 3180.917524
_symmetry_space_group_name_H-M "P 6/M"
_symmetry_group_IT_number 175
_symmetry_cell_setting 'hexagonal'
loop_
_space_group_symop_operation_xyz
x,y,z
x-y,x,z
-y,x-y,z
-x,-y,z
-x+y,-x,z
y,-x+y,z
-x,-y,-z
-x+y,-x,-z
y,-x+y,-z
x,y,-z
x-y,x,-z
-y,x-y,-z
loop_
_atom_site_type_symbol
_atom_site_label
_atom_site_fract_x
_atom_site_fract_y
_atom_site_fract_z
Si Si1 0.250269 0.659034 0.000000
Si Si2 0.450504 0.330981 0.813983
Si Si3 0.379999 0.412377 0.315122
Si Si4 0.166328 0.599916 0.317069
Si Si5 0.300205 0.202804 0.188673
Si Si6 0.226354 0.286858 0.687244
O O1 0.265009 0.590813 0.000000
O O2 0.210228 0.656055 0.170216
O O3 0.425615 0.391385 0.805934
O O4 0.523230 0.358921 0.705631
O O5 0.383859 0.254066 0.747354
O O6 0.470632 0.324589 0.000000
O O7 0.388664 0.390527 0.500000
O O8 0.412284 0.498115 0.302459
O O9 0.294588 0.365896 0.266278
O O10 0.198755 0.630251 0.500000
O O11 0.274436 0.118197 0.210903
O O12 0.245163 0.223046 0.278857
O O13 0.298420 0.220977 0.000000
O O14 0.204247 0.283687 0.500000
#
# Coordination Sequence:
#
# PCOD8325199 Si02
#       6
#     6  12  12  12  12  12
#     4  10  26  46  57  76 106 142 198 254 298 350
#     4  10  20  34  56  89 123 155 193 241 299 358
#     4   9  20  35  54  88 121 151 194 242 297 359
#     4  11  22  39  63  86 113 155 200 248 308 364
#     4  10  21  37  57  87 123 157 195 241 296 350
#     4  10  20  37  59  86 120 156 198 242 291 349
#
# _framework density 20.748732
#
# number of rings (size 3 to 8) (size 9 to 14) (size 15 to 20)
#    0.182    1.818    0.909    2.182    1.273    7.273 
#    0.000    1.818    0.000    0.364    0.000    2.545 
#    0.000    0.000    0.000    0.000    0.000    0.000 
#
# Total GULP energy -818105.354987 kJ/mol
# GULP energy per Si atom -12395.535682 kJ/mol
# Density = 2.070151 g / cm^3
# Si number density = 20.748732 Si / 1000 Ang^3
#
#
#
# Elastic Constant Matrix: (Units=GPa)
#
#
# Indices 1 2 3 4 5 6 
#
# 1 56.9024 5.2202 4.2491 0.0000 0.0000 0.0000
# 2 5.2202 56.9024 4.2491 0.0000 0.0000 0.0000
# 3 4.2491 4.2491 84.5814 0.0000 0.0000 0.0000
# 4 0.0000 0.0000 0.0000 24.2453 0.0000 0.0000
# 5 0.0000 0.0000 0.0000 0.0000 24.2453 0.0000
# 6 0.0000 0.0000 0.0000 0.0000 0.0000 25.8411
#
#
#
# Elastic Compliance Matrix: (Units=1/GPa)
#
#
# Indices 1 2 3 4 5 6 
#
# 1 0.017779 -0.001570 -0.000814 0.000000 0.000000 0.000000
# 2 -0.001570 0.017779 -0.000814 0.000000 0.000000 0.000000
# 3 -0.000814 -0.000814 0.011905 0.000000 0.000000 0.000000
# 4 0.000000 0.000000 0.000000 0.041245 0.000000 0.000000
# 5 0.000000 0.000000 0.000000 0.000000 0.041245 0.000000
# 6 0.000000 0.000000 0.000000 0.000000 0.000000 0.038698
#
#
# Mechanical properties :
#
#
# Convention : Reuss Voigt Hill
#
# Bulk Modulus (GPa) = 24.35173 25.09145 24.72159
# Shear Modulus (GPa) = 26.49198 27.17753 26.83476
#
# Velocity S-wave (km/s) = 3.57711 3.62310 3.60018
# Velocity P-wave (km/s) = 5.36870 5.44258 5.40577
#
# Compressibility (1/GPa) = 0.04106485
#
# Stress axis : x y z
#
# Youngs Moduli (GPa) = 56.24675 56.24675 84.00013
#
# Poissons Ratio (x) = 0.08832 0.06840
# Poissons Ratio (y) = 0.08832 0.06840
# Poissons Ratio (z) = 0.04580 0.04580
#
# Static dielectric constant tensor:
#      x y z
#    x 3.489880 0.000000 0.000000 
#    y 0.000000 3.489880 0.000000 
#    z 0.000000 0.000000 3.798710 
# 
# 
# High freq. dielectric constant tensor:
#      x y z
#    x 1.794060 0.000000 0.000000 
#    y 0.000000 1.794060 0.000000 
#    z 0.000000 0.000000 1.817920 
# 
# From -- ./inp_files/1019.got.cif
#   From: 2010.03.12/outbox.cif.g09.slc.cpg/sg175_1_cif.got.tgz:1019.got - 2010.04.02 06:55:29.
