data_PCOD8325155
_publ_section_title
;
Structure prediction by ZEFSAII (Michael W. Deem and Ramdas Pophale) SiO2 
 PCOD8325155
Probable space group: P 6/M
;
_chemical_formula_sum "Si O2"
_cell_formula_units_Z 46
_cell_length_a 17.858126
_cell_length_b 17.858126
_cell_length_c 7.813754
_cell_angle_alpha 90.000000
_cell_angle_beta 90.000000
_cell_angle_gamma 120.000000
_cell_volume 2158.053125
_symmetry_space_group_name_H-M "P 6/M"
_symmetry_group_IT_number 175
_symmetry_cell_setting 'hexagonal'
loop_
_space_group_symop_operation_xyz
x,y,z
x-y,x,z
-y,x-y,z
-x,-y,z
-x+y,-x,z
y,-x+y,z
-x,-y,-z
-x+y,-x,-z
y,-x+y,-z
x,y,-z
x-y,x,-z
-y,x-y,-z
loop_
_atom_site_type_symbol
_atom_site_label
_atom_site_fract_x
_atom_site_fract_y
_atom_site_fract_z
Si Si1 0.430808 0.024406 0.196511
Si Si2 0.804034 0.850464 0.000000
Si Si3 0.666668 0.333334 0.204301
Si Si4 0.475534 0.216165 0.803429
Si Si5 0.083949 0.324190 0.688616
O O1 0.472759 0.126152 0.217162
O O2 0.500000 0.000000 0.270211
O O3 0.342981 0.975330 0.301243
O O4 0.408843 0.994442 0.000000
O O5 0.885565 0.836841 0.000000
O O6 0.748853 0.807056 0.169331
O O7 0.720828 0.431902 0.270751
O O8 0.666667 0.333334 0.000000
O O9 0.397991 0.214369 0.699987
O O10 0.464625 0.235431 0.000000
O O11 0.070177 0.281554 0.500000
#
# Coordination Sequence:
#
# PCOD8325155 Si02
#       5
#    12   6   4  12  12
#     4  10  20  37  64  95 130 174 222 271 323 379
#     4  12  27  50  75 100 128 164 212 272 342 412
#     4   9  18  33  61  95 130 178 224 268 316 371
#     4  10  19  36  61  91 129 170 217 266 318 379
#     4  12  25  42  68 100 135 174 219 271 327 392
#
# _framework density 21.315508999999999
#
# number of rings (size 3 to 8) (size 9 to 14) (size 15 to 20)
#    0.000    1.304    2.609    3.261    0.000    8.870 
#    0.000    3.913    0.000    1.565    0.000    0.000 
#    0.000    0.000    0.000    0.000    0.000    0.000 
#
# Total GULP energy -570552.528886 kJ/mol
# GULP energy per Si atom -12403.315845 kJ/mol
# Density = 2.126699 g / cm^3
# Si number density = 21.315509 Si / 1000 Ang^3
#
#
#
# Elastic Constant Matrix: (Units=GPa)
#
#
# Indices 1 2 3 4 5 6 
#
# 1 132.0780 51.2353 50.9533 0.0000 0.0000 -0.0001
# 2 51.2353 132.0796 50.9532 0.0000 0.0000 0.0005
# 3 50.9533 50.9532 130.5877 0.0000 0.0000 0.0000
# 4 0.0000 0.0000 0.0000 5.9515 0.0000 0.0000
# 5 0.0000 0.0000 0.0000 0.0000 5.9520 0.0000
# 6 -0.0001 0.0005 0.0000 0.0000 0.0000 40.4215
#
#
#
# Elastic Compliance Matrix: (Units=1/GPa)
#
#
# Indices 1 2 3 4 5 6 
#
# 1 0.009668 -0.002702 -0.002718 0.000000 0.000000 0.000000
# 2 -0.002702 0.009668 -0.002718 0.000000 0.000000 0.000000
# 3 -0.002718 -0.002718 0.009779 0.000000 0.000000 0.000000
# 4 0.000000 0.000000 0.000000 0.168026 0.000000 0.000000
# 5 0.000000 0.000000 0.000000 0.000000 0.168010 0.000000
# 6 0.000000 0.000000 0.000000 0.000000 0.000000 0.024739
#
#
# Mechanical properties :
#
#
# Convention : Reuss Voigt Hill
#
# Bulk Modulus (GPa) = 77.88921 77.89211 77.89066
# Shear Modulus (GPa) = 12.18190 26.57189 19.37689
#
# Velocity S-wave (km/s) = 2.39321 3.53455 3.01832
# Velocity P-wave (km/s) = 6.65260 7.29926 6.98342
#
# Compressibility (1/GPa) = 0.01283875
#
# Stress axis : x y z
#
# Youngs Moduli (GPa) = 103.43479 103.43634 102.26209
#
# Poissons Ratio (x) = 0.27946 0.27796
# Poissons Ratio (y) = 0.27945 0.27795
# Poissons Ratio (z) = 0.28115 0.28114
#
# Static dielectric constant tensor:
#      x y z
#    x 3.924910 0.000010 0.000000 
#    y 0.000010 3.924900 0.000000 
#    z 0.000000 0.000000 3.732220 
# 
# 
# High freq. dielectric constant tensor:
#      x y z
#    x 1.843000 0.000000 0.000000 
#    y 0.000000 1.843000 0.000000 
#    z 0.000000 0.000000 1.818630 
# 
# From -- ./inp_files/546.got.cif
#   From: 2010.03.12/outbox.cif.g09.slc.cpg/sg175_1_cif.got.tgz:546.got - 2010.04.02 06:55:29.
