data_PCOD8325543
_publ_section_title
;
Structure prediction by ZEFSAII (Michael W. Deem and Ramdas Pophale) SiO2 
 PCOD8325543
Probable space group: P 63/M
;
_chemical_formula_sum "Si O2"
_cell_formula_units_Z 84
_cell_length_a 18.075074
_cell_length_b 18.075074
_cell_length_c 14.845982
_cell_angle_alpha 90.000000
_cell_angle_beta 90.000000
_cell_angle_gamma 120.000000
_cell_volume 4200.487816
_symmetry_space_group_name_H-M "P 63/M"
_symmetry_group_IT_number 176
_symmetry_cell_setting 'hexagonal'
loop_
_space_group_symop_operation_xyz
x,y,z
x-y,x,1/2+z
-y,x-y,z
-x,-y,1/2+z
-x+y,-x,z
y,-x+y,1/2+z
-x,-y,-z
-x+y,-x,1/2-z
y,-x+y,-z
x,y,1/2-z
x-y,x,-z
-y,x-y,1/2-z
loop_
_atom_site_type_symbol
_atom_site_label
_atom_site_fract_x
_atom_site_fract_y
_atom_site_fract_z
Si Si1 0.138644 0.325860 0.647210
Si Si2 0.970043 0.323285 0.648120
Si Si3 0.553021 0.890166 0.852213
Si Si4 0.308389 0.174434 0.649925
Si Si5 0.423914 0.513853 0.024715
Si Si6 0.643758 0.091334 0.851753
Si Si7 0.926854 0.811116 0.496614
O O1 0.122138 0.294461 0.750000
O O2 0.235438 0.401444 0.633559
O O3 0.125376 0.247150 0.587216
O O4 0.068323 0.353686 0.619713
O O5 0.968552 0.353735 0.750000
O O6 0.914540 0.221419 0.639609
O O7 0.924955 0.358730 0.583629
O O8 0.514429 0.874412 0.750000
O O9 0.615765 0.991542 0.868548
O O10 0.480469 0.859466 0.931264
O O11 0.278895 0.183690 0.750000
O O12 0.402560 0.254834 0.631168
O O13 0.244088 0.177348 0.578207
O O14 0.468460 0.600627 0.083875
O O15 0.500000 0.500000 0.000000
O O16 0.620004 0.101917 0.750000
O O17 0.879764 0.859338 0.535037
#
# Coordination Sequence:
#
# PCOD8325543 Si02
#       7
#    12  12  12  12  12  12  12
#     4  10  21  37  57  81 114 153 199 250 301 353
#     4  10  20  36  58  87 115 146 193 251 295 340
#     4   9  18  33  53  82 115 153 193 232 289 355
#     4  10  21  38  60  85 115 155 202 248 302 360
#     4  10  20  33  54  85 116 143 180 232 290 348
#     4   9  18  33  56  83 113 147 185 236 294 355
#     4  12  24  36  54  77 116 159 211 263 315 364
#
# _framework density 19.997676999999999
#
# number of rings (size 3 to 8) (size 9 to 14) (size 15 to 20)
#    0.000    2.000    1.429    2.286    4.000    2.286 
#    0.000    0.000    0.000    2.286    0.000    2.000 
#    0.000    0.000    0.000    0.000    0.000    0.000 
#
# Total GULP energy -1041005.454346 kJ/mol
# GULP energy per Si atom -12392.922076 kJ/mol
# Density = 1.995216 g / cm^3
# Si number density = 19.997677 Si / 1000 Ang^3
#
#
#
# Elastic Constant Matrix: (Units=GPa)
#
#
# Indices 1 2 3 4 5 6 
#
# 1 76.3102 22.3828 49.9238 0.0000 0.0000 0.0000
# 2 22.3828 76.3102 49.9238 0.0000 0.0000 0.0000
# 3 49.9238 49.9238 131.6787 0.0000 0.0000 0.0000
# 4 0.0000 0.0000 0.0000 22.7560 0.0000 0.0000
# 5 0.0000 0.0000 0.0000 0.0000 22.7560 0.0000
# 6 0.0000 0.0000 0.0000 0.0000 0.0000 26.9637
#
#
#
# Elastic Compliance Matrix: (Units=1/GPa)
#
#
# Indices 1 2 3 4 5 6 
#
# 1 0.017490 -0.001053 -0.006232 0.000000 0.000000 0.000000
# 2 -0.001053 0.017490 -0.006232 0.000000 0.000000 0.000000
# 3 -0.006232 -0.006232 0.012320 0.000000 0.000000 0.000000
# 4 0.000000 0.000000 0.000000 0.043944 0.000000 0.000000
# 5 0.000000 0.000000 0.000000 0.000000 0.043944 0.000000
# 6 0.000000 0.000000 0.000000 0.000000 0.000000 0.037087
#
#
# Mechanical properties :
#
#
# Convention : Reuss Voigt Hill
#
# Bulk Modulus (GPa) = 49.34241 58.75112 54.04677
# Shear Modulus (GPa) = 24.26412 25.29972 24.78192
#
# Velocity S-wave (km/s) = 3.48709 3.56073 3.52410
# Velocity P-wave (km/s) = 6.39849 6.80792 6.60638
#
# Compressibility (1/GPa) = 0.02026654
#
# Stress axis : x y z
#
# Youngs Moduli (GPa) = 57.17438 57.17438 81.17072
#
# Poissons Ratio (x) = 0.06021 0.50585
# Poissons Ratio (y) = 0.06021 0.50585
# Poissons Ratio (z) = 0.35631 0.35631
#
# Static dielectric constant tensor:
#      x y z
#    x 3.563250 0.000000 0.000000 
#    y 0.000000 3.563250 0.000000 
#    z 0.000000 0.000000 4.288400 
# 
# 
# High freq. dielectric constant tensor:
#      x y z
#    x 1.753270 0.000000 0.000000 
#    y 0.000000 1.753270 0.000000 
#    z 0.000000 0.000000 1.804220 
# 
# From -- ./inp_files/2935.got.cif
#   From: 2010.06.25/outbox.cif.g09.slc.cpg/sg176_2_cif.got.tgz:2935.got - 2010.06.28 12:15:01.
