data_PCOD8325518
_publ_section_title
;
Structure prediction by ZEFSAII (Michael W. Deem and Ramdas Pophale) SiO2 
 PCOD8325518
Probable space group: P 63/M
;
_chemical_formula_sum "Si O2"
_cell_formula_units_Z 52
_cell_length_a 14.333023
_cell_length_b 14.333023
_cell_length_c 14.970986
_cell_angle_alpha 90.000000
_cell_angle_beta 90.000000
_cell_angle_gamma 120.000000
_cell_volume 2663.524105
_symmetry_space_group_name_H-M "P 63/M"
_symmetry_group_IT_number 176
_symmetry_cell_setting 'hexagonal'
loop_
_space_group_symop_operation_xyz
x,y,z
x-y,x,1/2+z
-y,x-y,z
-x,-y,1/2+z
-x+y,-x,z
y,-x+y,1/2+z
-x,-y,-z
-x+y,-x,1/2-z
y,-x+y,-z
x,y,1/2-z
x-y,x,-z
-y,x-y,1/2-z
loop_
_atom_site_type_symbol
_atom_site_label
_atom_site_fract_x
_atom_site_fract_y
_atom_site_fract_z
Si Si1 0.424000 0.905611 0.935005
Si Si2 0.240554 0.130327 0.349815
Si Si3 0.183166 0.750158 0.972359
Si Si4 0.313501 0.369630 0.348284
Si Si5 0.000000 0.000000 0.895384
O O1 0.309671 0.829498 0.981523
O O2 0.483732 0.838072 0.913681
O O3 0.403153 0.962718 0.850384
O O4 0.500000 0.000000 0.000000
O O5 0.280592 0.123915 0.250000
O O6 0.317919 0.120326 0.422624
O O7 0.241169 0.241888 0.362807
O O8 0.118957 0.033799 0.361199
O O9 0.143460 0.717404 0.074059
O O10 0.291473 0.402458 0.250000
O O11 0.000000 0.000000 0.000000
#
# Coordination Sequence:
#
# PCOD8325518 Si02
#       5
#    12  12  12  12   4
#     4   9  19  34  55  80 109 144 188 235 278 332
#     4  10  21  35  53  79 110 144 186 229 272 328
#     4  10  19  36  57  80 110 149 187 231 284 332
#     4   9  19  36  55  78 109 143 182 230 281 337
#     4  12  22  35  55  81 115 152 182 221 274 339
#
# _framework density 19.523005999999999
#
# number of rings (size 3 to 8) (size 9 to 14) (size 15 to 20)
#    0.000    2.308    0.000    2.538    0.000    4.615 
#    0.000    4.615    0.000    2.769    0.000    0.000 
#    0.000    0.000    0.000    0.000    0.000    0.000 
#
# Total GULP energy -644486.847360 kJ/mol
# GULP energy per Si atom -12393.977834 kJ/mol
# Density = 1.947857 g / cm^3
# Si number density = 19.523006 Si / 1000 Ang^3
#
#
#
# Elastic Constant Matrix: (Units=GPa)
#
#
# Indices 1 2 3 4 5 6 
#
# 1 110.8965 45.6122 38.6313 0.0000 0.0000 0.0000
# 2 45.6122 110.8965 38.6313 0.0000 0.0000 0.0000
# 3 38.6313 38.6313 101.1765 0.0000 0.0000 0.0000
# 4 0.0000 0.0000 0.0000 16.4076 0.0000 0.0000
# 5 0.0000 0.0000 0.0000 0.0000 16.4076 0.0000
# 6 0.0000 0.0000 0.0000 0.0000 0.0000 32.6421
#
#
#
# Elastic Compliance Matrix: (Units=1/GPa)
#
#
# Indices 1 2 3 4 5 6 
#
# 1 0.011596 -0.003722 -0.003006 0.000000 0.000000 0.000000
# 2 -0.003722 0.011596 -0.003006 0.000000 0.000000 0.000000
# 3 -0.003006 -0.003006 0.012179 0.000000 0.000000 0.000000
# 4 0.000000 0.000000 0.000000 0.060947 0.000000 0.000000
# 5 0.000000 0.000000 0.000000 0.000000 0.060947 0.000000
# 6 0.000000 0.000000 0.000000 0.000000 0.000000 0.030635
#
#
# Mechanical properties :
#
#
# Convention : Reuss Voigt Hill
#
# Bulk Modulus (GPa) = 62.88764 63.19098 63.03931
# Shear Modulus (GPa) = 23.51058 26.43111 24.97084
#
# Velocity S-wave (km/s) = 3.47400 3.68345 3.58026
# Velocity P-wave (km/s) = 6.95511 7.10832 7.03213
#
# Compressibility (1/GPa) = 0.01590138
#
# Stress axis : x y z
#
# Youngs Moduli (GPa) = 86.23985 86.23985 82.10564
#
# Poissons Ratio (x) = 0.32099 0.24683
# Poissons Ratio (y) = 0.32099 0.24683
# Poissons Ratio (z) = 0.25926 0.25926
#
# Static dielectric constant tensor:
#      x y z
#    x 3.984140 0.000000 0.000000 
#    y 0.000000 3.984140 0.000000 
#    z 0.000000 0.000000 3.515760 
# 
# 
# High freq. dielectric constant tensor:
#      x y z
#    x 1.759930 0.000000 0.000000 
#    y 0.000000 1.759930 0.000000 
#    z 0.000000 0.000000 1.748980 
# 
# From -- ./inp_files/2570.got.cif
#   From: 2010.06.25/outbox.cif.g09.slc.cpg/sg176_2_cif.got.tgz:2570.got - 2010.06.28 12:15:01.
