data_PCOD8325506
_publ_section_title
;
Structure prediction by ZEFSAII (Michael W. Deem and Ramdas Pophale) SiO2 
 PCOD8325506
Probable space group: P 63/M
;
_chemical_formula_sum "Si O2"
_cell_formula_units_Z 66
_cell_length_a 16.770631
_cell_length_b 16.770631
_cell_length_c 14.495881
_cell_angle_alpha 90.000000
_cell_angle_beta 90.000000
_cell_angle_gamma 120.000000
_cell_volume 3530.807607
_symmetry_space_group_name_H-M "P 63/M"
_symmetry_group_IT_number 176
_symmetry_cell_setting 'hexagonal'
loop_
_space_group_symop_operation_xyz
x,y,z
x-y,x,1/2+z
-y,x-y,z
-x,-y,1/2+z
-x+y,-x,z
y,-x+y,1/2+z
-x,-y,-z
-x+y,-x,1/2-z
y,-x+y,-z
x,y,1/2-z
x-y,x,-z
-y,x-y,1/2-z
loop_
_atom_site_type_symbol
_atom_site_label
_atom_site_fract_x
_atom_site_fract_y
_atom_site_fract_z
Si Si1 0.086866 0.895561 0.031401
Si Si2 0.212107 0.832257 0.561071
Si Si3 0.379455 0.878366 0.438909
Si Si4 0.571238 0.346271 0.750000
Si Si5 0.987883 0.274166 0.647339
Si Si6 0.433709 0.077055 0.014019
O O1 0.036365 0.830249 0.120268
O O2 0.167426 0.875594 0.005290
O O3 0.006239 0.868575 0.953209
O O4 0.294114 0.828964 0.507683
O O5 0.246722 0.901060 0.648539
O O6 0.138579 0.726407 0.585281
O O7 0.351261 0.833519 0.338829
O O8 0.460922 0.865902 0.481626
O O9 0.413025 0.986442 0.430053
O O10 0.570831 0.248948 0.750000
O O11 0.950546 0.271785 0.750000
O O12 0.943367 0.314369 0.576702
#
# Coordination Sequence:
#
# PCOD8325506 Si02
#       6
#    12  12  12   6  12  12
#     4   9  17  32  54  76 105 148 184 220 277 337
#     4   9  18  35  54  74 112 147 186 222 278 336
#     4  10  19  35  54  82 109 147 183 222 280 338
#     4  10  22  34  52  86 120 136 170 240 292 322
#     4   9  18  33  55  80 107 143 186 229 275 326
#     4   9  19  34  57  77 109 150 184 221 273 342
#
# _framework density 18.692606999999999
#
# number of rings (size 3 to 8) (size 9 to 14) (size 15 to 20)
#    0.182    2.545    0.000    2.364    1.273    0.000 
#    9.273    3.636    0.000    0.000    0.000    0.000 
#    0.000    0.000    0.000    0.000    0.000    0.000 
#
# Total GULP energy -817616.921867 kJ/mol
# GULP energy per Si atom -12388.135180 kJ/mol
# Density = 1.865006 g / cm^3
# Si number density = 18.692607 Si / 1000 Ang^3
#
#
#
# Elastic Constant Matrix: (Units=GPa)
#
#
# Indices 1 2 3 4 5 6 
#
# 1 84.3156 18.3639 18.7029 0.0000 0.0000 0.0000
# 2 18.3639 84.3156 18.7029 0.0000 0.0000 0.0000
# 3 18.7029 18.7029 72.5380 0.0000 0.0000 0.0000
# 4 0.0000 0.0000 0.0000 15.5523 0.0000 0.0000
# 5 0.0000 0.0000 0.0000 0.0000 15.5523 0.0000
# 6 0.0000 0.0000 0.0000 0.0000 0.0000 32.9758
#
#
#
# Elastic Compliance Matrix: (Units=1/GPa)
#
#
# Indices 1 2 3 4 5 6 
#
# 1 0.012956 -0.002207 -0.002771 0.000000 0.000000 0.000000
# 2 -0.002207 0.012956 -0.002771 0.000000 0.000000 0.000000
# 3 -0.002771 -0.002771 0.015215 0.000000 0.000000 0.000000
# 4 0.000000 0.000000 0.000000 0.064299 0.000000 0.000000
# 5 0.000000 0.000000 0.000000 0.000000 0.064299 0.000000
# 6 0.000000 0.000000 0.000000 0.000000 0.000000 0.030325
#
#
# Mechanical properties :
#
#
# Convention : Reuss Voigt Hill
#
# Bulk Modulus (GPa) = 39.02172 39.18984 39.10578
# Shear Modulus (GPa) = 22.31227 25.17604 23.74416
#
# Velocity S-wave (km/s) = 3.45866 3.67392 3.56791
# Velocity P-wave (km/s) = 6.07211 6.24563 6.15948
#
# Compressibility (1/GPa) = 0.02562676
#
# Stress axis : x y z
#
# Youngs Moduli (GPa) = 77.18651 77.18651 65.72461
#
# Poissons Ratio (x) = 0.17035 0.18215
# Poissons Ratio (y) = 0.17035 0.18215
# Poissons Ratio (z) = 0.21391 0.21391
#
# Static dielectric constant tensor:
#      x y z
#    x 3.744910 0.000000 0.000000 
#    y 0.000000 3.744910 0.000000 
#    z 0.000000 0.000000 2.935120 
# 
# 
# High freq. dielectric constant tensor:
#      x y z
#    x 1.739290 0.000000 0.000000 
#    y 0.000000 1.739290 0.000000 
#    z 0.000000 0.000000 1.666960 
# 
# From -- ./inp_files/2815.got.cif
#   From: 2010.06.25/outbox.cif.g09.slc.cpg/sg176_2_cif.got.tgz:2815.got - 2010.06.28 12:15:01.
