data_PCOD8325893
_publ_section_title
;
Structure prediction by ZEFSAII (Michael W. Deem and Ramdas Pophale) SiO2 
 PCOD8325893
Probable space group: P 61 2 2
;
_chemical_formula_sum "Si O2"
_cell_formula_units_Z 36
_cell_length_a 8.714212
_cell_length_b 8.714212
_cell_length_c 27.452476
_cell_angle_alpha 90.000000
_cell_angle_beta 90.000000
_cell_angle_gamma 120.000000
_cell_volume 1805.379035
_symmetry_space_group_name_H-M "P 61 2 2"
_symmetry_group_IT_number 178
_symmetry_cell_setting 'hexagonal'
loop_
_space_group_symop_operation_xyz
x,y,z
x-y,x,1/6+z
-y,x-y,1/3+z
-x,-y,1/2+z
-x+y,-x,2/3+z
y,-x+y,5/6+z
x-y,-y,-z
-x,-x+y,2/3-z
y,x,1/3-z
-y,-x,5/6-z
-x+y,y,1/2-z
x,x-y,1/6-z
loop_
_atom_site_type_symbol
_atom_site_label
_atom_site_fract_x
_atom_site_fract_y
_atom_site_fract_z
Si Si1 0.861891 0.784247 0.429438
Si Si2 0.415240 0.864030 0.610881
Si Si3 0.615024 0.832680 0.360034
O O1 0.893067 0.621571 0.413901
O O2 0.689855 0.759063 0.401506
O O3 0.821886 0.771358 0.487520
O O4 0.030313 0.969688 0.416667
O O5 0.459240 0.729620 0.583334
O O6 0.334604 0.789893 0.664944
O O7 0.592980 0.051689 0.614954
#
# Coordination Sequence:
#
# PCOD8325893 Si02
#       3
#    12  12  12
#     4  10  22  41  63  93 128 173 218 277 340 404
#     4  10  22  39  63  92 128 170 219 274 343 403
#     4  10  22  41  66  92 134 170 227 279 338 414
#
# _framework density 19.940408999999999
#
# number of rings (size 3 to 8) (size 9 to 14) (size 15 to 20)
#    2.000    0.000    0.000    4.000    0.000    0.000 
#    6.000    0.000    0.000    0.000    0.000    0.000 
#    0.000    0.000    0.000    0.000    0.000    0.000 
#
# Total GULP energy -446143.047764 kJ/mol
# GULP energy per Si atom -12392.862438 kJ/mol
# Density = 1.989502 g / cm^3
# Si number density = 19.940409 Si / 1000 Ang^3
#
#
#
# Elastic Constant Matrix: (Units=GPa)
#
#
# Indices 1 2 3 4 5 6 
#
# 1 102.0916 18.2736 19.6192 0.0000 0.0000 0.0000
# 2 18.2736 102.0916 19.6192 0.0000 0.0000 0.0000
# 3 19.6192 19.6192 61.9880 0.0000 0.0000 0.0000
# 4 0.0000 0.0000 0.0000 40.7258 0.0000 0.0000
# 5 0.0000 0.0000 0.0000 0.0000 40.7258 0.0000
# 6 0.0000 0.0000 0.0000 0.0000 0.0000 41.9090
#
#
#
# Elastic Compliance Matrix: (Units=1/GPa)
#
#
# Indices 1 2 3 4 5 6 
#
# 1 0.010597 -0.001333 -0.002932 0.000000 0.000000 0.000000
# 2 -0.001333 0.010597 -0.002932 0.000000 0.000000 0.000000
# 3 -0.002932 -0.002932 0.017988 0.000000 0.000000 0.000000
# 4 0.000000 0.000000 0.000000 0.024554 0.000000 0.000000
# 5 0.000000 0.000000 0.000000 0.000000 0.024554 0.000000
# 6 0.000000 0.000000 0.000000 0.000000 0.000000 0.023861
#
#
# Mechanical properties :
#
#
# Convention : Reuss Voigt Hill
#
# Bulk Modulus (GPa) = 40.34244 42.35503 41.34873
# Shear Modulus (GPa) = 37.08920 38.58273 37.83596
#
# Velocity S-wave (km/s) = 4.31745 4.40352 4.36070
# Velocity P-wave (km/s) = 6.71783 6.86597 6.79231
#
# Compressibility (1/GPa) = 0.02478779
#
# Stress axis : x y z
#
# Youngs Moduli (GPa) = 94.36417 94.36417 55.59229
#
# Poissons Ratio (x) = 0.12582 0.16300
# Poissons Ratio (y) = 0.12582 0.16300
# Poissons Ratio (z) = 0.27668 0.27668
#
# Static dielectric constant tensor:
#      x y z
#    x 3.391380 0.000000 0.000000 
#    y 0.000000 3.391380 0.000000 
#    z 0.000000 0.000000 3.519510 
# 
# 
# High freq. dielectric constant tensor:
#      x y z
#    x 1.771700 0.000000 0.000000 
#    y 0.000000 1.771700 0.000000 
#    z 0.000000 0.000000 1.767560 
# 
# From -- ./inp_files/8485.got.cif
#   From: 2010.03.12/outbox.cif.g09.slc.cpg/sg178_5_cif.got.tgz:8485.got - 2010.04.02 07:02:38.
