data_PCOD8325532
_publ_section_title
;
Structure prediction by ZEFSAII (Michael W. Deem and Ramdas Pophale) SiO2 
 PCOD8325532
Probable space group: P 63/M
;
_chemical_formula_sum "Si O2"
_cell_formula_units_Z 84
_cell_length_a 24.251919
_cell_length_b 24.251919
_cell_length_c 9.527239
_cell_angle_alpha 90.000000
_cell_angle_beta 90.000000
_cell_angle_gamma 120.000000
_cell_volume 4852.772254
_symmetry_space_group_name_H-M "P 63/M"
_symmetry_group_IT_number 176
_symmetry_cell_setting 'hexagonal'
loop_
_space_group_symop_operation_xyz
x,y,z
x-y,x,1/2+z
-y,x-y,z
-x,-y,1/2+z
-x+y,-x,z
y,-x+y,1/2+z
-x,-y,-z
-x+y,-x,1/2-z
y,-x+y,-z
x,y,1/2-z
x-y,x,-z
-y,x-y,1/2-z
loop_
_atom_site_type_symbol
_atom_site_label
_atom_site_fract_x
_atom_site_fract_y
_atom_site_fract_z
Si Si1 0.232789 0.015070 0.413843
Si Si2 0.132843 0.394660 0.587280
Si Si3 0.355640 0.341235 0.910934
Si Si4 0.561471 0.513636 0.413694
Si Si5 0.894764 0.743357 0.086811
Si Si6 0.423011 0.809441 0.582714
Si Si7 0.754050 0.473296 0.416298
O O1 0.217315 0.002226 0.250000
O O2 0.237329 0.080666 0.461020
O O3 0.299729 0.018805 0.450616
O O4 0.174648 0.958866 0.498492
O O5 0.119914 0.400348 0.750000
O O6 0.076722 0.396745 0.503900
O O7 0.135549 0.331299 0.554106
O O8 0.199772 0.453769 0.538622
O O9 0.366081 0.329469 0.750000
O O10 0.380330 0.415072 0.940163
O O11 0.500000 0.500000 0.500000
O O12 0.542984 0.502291 0.250000
O O13 0.584886 0.466347 0.470437
O O14 0.911973 0.757797 0.250000
O O15 0.424029 0.808386 0.750000
O O16 0.450508 0.766057 0.520402
O O17 0.351821 0.781521 0.523608
O O18 0.749238 0.466388 0.250000
#
# Coordination Sequence:
#
# PCOD8325532 Si02
#       7
#    12  12  12  12  12  12  12
#     4   9  18  32  50  72 101 131 163 198 237 287
#     4   9  17  29  48  71  95 124 157 197 239 279
#     4   9  18  31  47  68  96 129 158 191 236 289
#     4  10  20  32  48  69  95 125 158 195 240 292
#     4   9  18  31  49  74 100 129 162 197 239 284
#     4   9  17  27  42  66  92 121 155 196 242 281
#     4   9  16  26  42  64  91 119 153 197 240 280
#
# _framework density 17.309694
#
# number of rings (size 3 to 8) (size 9 to 14) (size 15 to 20)
#    0.000    2.857    0.000    1.143    2.000    3.429 
#    0.000    0.000    0.000    1.143    0.000    0.000 
#    0.000    2.286    0.000    0.000    0.000    0.000 
#
# Total GULP energy -1041599.869857 kJ/mol
# GULP energy per Si atom -12399.998451 kJ/mol
# Density = 1.727030 g / cm^3
# Si number density = 17.309694 Si / 1000 Ang^3
#
#
#
# Elastic Constant Matrix: (Units=GPa)
#
#
# Indices 1 2 3 4 5 6 
#
# 1 143.6900 83.0131 39.2280 0.0000 0.0000 0.0000
# 2 83.0131 143.6900 39.2280 0.0000 0.0000 0.0000
# 3 39.2280 39.2280 33.3471 0.0000 0.0000 0.0000
# 4 0.0000 0.0000 0.0000 22.2947 0.0000 0.0000
# 5 0.0000 0.0000 0.0000 0.0000 22.2947 0.0000
# 6 0.0000 0.0000 0.0000 0.0000 0.0000 30.3385
#
#
#
# Elastic Compliance Matrix: (Units=1/GPa)
#
#
# Indices 1 2 3 4 5 6 
#
# 1 0.011960 -0.004520 -0.008752 0.000000 0.000000 0.000000
# 2 -0.004520 0.011960 -0.008752 0.000000 0.000000 0.000000
# 3 -0.008752 -0.008752 0.050578 0.000000 0.000000 0.000000
# 4 0.000000 0.000000 0.000000 0.044854 0.000000 0.000000
# 5 0.000000 0.000000 0.000000 0.000000 0.044854 0.000000
# 6 0.000000 0.000000 0.000000 0.000000 0.000000 0.032961
#
#
# Mechanical properties :
#
#
# Convention : Reuss Voigt Hill
#
# Bulk Modulus (GPa) = 32.84032 71.51836 52.17934
# Shear Modulus (GPa) = 19.89129 25.60278 22.74703
#
# Velocity S-wave (km/s) = 3.39358 3.85008 3.62901
# Velocity P-wave (km/s) = 5.86247 7.82118 6.91156
#
# Compressibility (1/GPa) = 0.03045037
#
# Stress axis : x y z
#
# Youngs Moduli (GPa) = 83.61003 83.61003 19.77134
#
# Poissons Ratio (x) = 0.37795 0.17304
# Poissons Ratio (y) = 0.37795 0.17304
# Poissons Ratio (z) = 0.73175 0.73175
#
# Static dielectric constant tensor:
#      x y z
#    x 3.327210 0.000000 0.000000 
#    y 0.000000 3.327210 0.000000 
#    z 0.000000 0.000000 2.939450 
# 
# 
# High freq. dielectric constant tensor:
#      x y z
#    x 1.671670 0.000000 0.000000 
#    y 0.000000 1.671670 0.000000 
#    z 0.000000 0.000000 1.630850 
# 
# From -- ./inp_files/2037.got.cif
#   From: 2010.06.25/outbox.cif.g09.slc.cpg/sg176_2_cif.got.tgz:2037.got - 2010.06.28 12:15:01.
