data_PCOD8325996
_publ_section_title
;
Structure prediction by ZEFSAII (Michael W. Deem and Ramdas Pophale) SiO2 
 PCOD8325996
Probable space group: P 61 2 2
;
_chemical_formula_sum "Si O2"
_cell_formula_units_Z 54
_cell_length_a 10.847988
_cell_length_b 10.847988
_cell_length_c 22.219032
_cell_angle_alpha 90.000000
_cell_angle_beta 90.000000
_cell_angle_gamma 120.000000
_cell_volume 2264.405277
_symmetry_space_group_name_H-M "P 61 2 2"
_symmetry_group_IT_number 178
_symmetry_cell_setting 'hexagonal'
loop_
_space_group_symop_operation_xyz
x,y,z
x-y,x,1/6+z
-y,x-y,1/3+z
-x,-y,1/2+z
-x+y,-x,2/3+z
y,-x+y,5/6+z
x-y,-y,-z
-x,-x+y,2/3-z
y,x,1/3-z
-y,-x,5/6-z
-x+y,y,1/2-z
x,x-y,1/6-z
loop_
_atom_site_type_symbol
_atom_site_label
_atom_site_fract_x
_atom_site_fract_y
_atom_site_fract_z
Si Si1 0.469657 0.234829 0.583334
Si Si2 0.966518 0.420272 0.709654
Si Si3 0.610801 0.734580 0.827623
Si Si4 0.710212 0.856428 0.468632
Si Si5 0.212989 0.573861 0.306028
O O1 0.365556 0.289147 0.558904
O O2 0.575831 0.249233 0.529949
O O3 0.825445 0.291943 0.678581
O O4 0.937518 0.466390 0.775353
O O5 0.058809 0.563247 0.669671
O O6 0.743867 0.766886 0.871005
O O7 0.675809 0.779957 0.761983
O O8 0.567148 0.781805 0.509247
O O9 0.830601 0.000000 0.500000
O O10 0.323854 0.647707 0.250000
#
# Coordination Sequence:
#
# PCOD8325996 Si02
#       5
#     6  12  12  12  12
#     4  12  26  46  76 112 164 208 270 342 418 502
#     4  12  27  49  75 117 162 212 261 348 417 501
#     4  12  28  47  79 116 160 208 277 333 417 504
#     4  12  23  49  75 111 148 213 270 332 400 500
#     4  12  23  46  77 109 157 212 269 329 421 497
#
# _framework density 23.847321000000001
#
# number of rings (size 3 to 8) (size 9 to 14) (size 15 to 20)
#    0.000    0.000    6.667    2.667    3.111    0.889 
#    4.000    0.000    0.000    0.000    0.000    0.000 
#    0.000    0.000    0.000    0.000    0.000    0.000 
#
# Total GULP energy -669098.292186 kJ/mol
# GULP energy per Si atom -12390.709115 kJ/mol
# Density = 2.379304 g / cm^3
# Si number density = 23.847321 Si / 1000 Ang^3
#
#
#
# Elastic Constant Matrix: (Units=GPa)
#
#
# Indices 1 2 3 4 5 6 
#
# 1 130.9284 42.2143 25.4686 0.0000 0.0000 0.0000
# 2 42.2143 130.9284 25.4686 0.0000 0.0000 0.0000
# 3 25.4686 25.4686 68.6500 0.0000 0.0000 0.0000
# 4 0.0000 0.0000 0.0000 35.1433 0.0000 0.0000
# 5 0.0000 0.0000 0.0000 0.0000 35.1433 0.0000
# 6 0.0000 0.0000 0.0000 0.0000 0.0000 44.3570
#
#
#
# Elastic Compliance Matrix: (Units=1/GPa)
#
#
# Indices 1 2 3 4 5 6 
#
# 1 0.008878 -0.002394 -0.002405 0.000000 0.000000 0.000000
# 2 -0.002394 0.008878 -0.002405 0.000000 0.000000 0.000000
# 3 -0.002405 -0.002405 0.016351 0.000000 0.000000 0.000000
# 4 0.000000 0.000000 0.000000 0.028455 0.000000 0.000000
# 5 0.000000 0.000000 0.000000 0.000000 0.028455 0.000000
# 6 0.000000 0.000000 0.000000 0.000000 0.000000 0.022544
#
#
# Mechanical properties :
#
#
# Convention : Reuss Voigt Hill
#
# Bulk Modulus (GPa) = 50.76969 57.42333 54.09651
# Shear Modulus (GPa) = 37.16472 38.75242 37.95857
#
# Velocity S-wave (km/s) = 3.95200 4.03553 3.99398
# Velocity P-wave (km/s) = 6.49308 6.77096 6.63347
#
# Compressibility (1/GPa) = 0.01969679
#
# Stress axis : x y z
#
# Youngs Moduli (GPa) = 112.64213 112.64213 61.15731
#
# Poissons Ratio (x) = 0.26972 0.14710
# Poissons Ratio (y) = 0.26972 0.14710
# Poissons Ratio (z) = 0.27093 0.27093
#
# Static dielectric constant tensor:
#      x y z
#    x 4.456850 0.000000 0.000000 
#    y 0.000000 4.456850 0.000000 
#    z 0.000000 0.000000 4.324630 
# 
# 
# High freq. dielectric constant tensor:
#      x y z
#    x 1.943590 0.000000 0.000000 
#    y 0.000000 1.943590 0.000000 
#    z 0.000000 0.000000 1.947610 
# 
# From -- ./inp_files/7418.got.cif
#   From: 2010.03.12/outbox.cif.g09.slc.cpg/sg178_4_cif.got.tgz:7418.got - 2010.04.02 07:02:38.
