data_PCOD8325682
_publ_section_title
;
Structure prediction by ZEFSAII (Michael W. Deem and Ramdas Pophale) SiO2 
 PCOD8325682
Probable space group: P 63/M
;
_chemical_formula_sum "Si O2"
_cell_formula_units_Z 58
_cell_length_a 14.412492
_cell_length_b 14.412492
_cell_length_c 14.945183
_cell_angle_alpha 90.000000
_cell_angle_beta 90.000000
_cell_angle_gamma 120.000000
_cell_volume 2688.499917
_symmetry_space_group_name_H-M "P 63/M"
_symmetry_group_IT_number 176
_symmetry_cell_setting 'hexagonal'
loop_
_space_group_symop_operation_xyz
x,y,z
x-y,x,1/2+z
-y,x-y,z
-x,-y,1/2+z
-x+y,-x,z
y,-x+y,1/2+z
-x,-y,-z
-x+y,-x,1/2-z
y,-x+y,-z
x,y,1/2-z
x-y,x,-z
-y,x-y,1/2-z
loop_
_atom_site_type_symbol
_atom_site_label
_atom_site_fract_x
_atom_site_fract_y
_atom_site_fract_z
Si Si1 0.100244 0.602231 0.101115
Si Si2 0.638176 0.601853 0.089422
Si Si3 0.016452 0.183873 0.442664
Si Si4 0.333334 0.666668 0.146166
Si Si5 0.986475 0.309590 0.750000
Si Si6 0.234668 0.370396 0.750000
Si Si7 0.798373 0.857612 0.250000
O O1 0.226763 0.665731 0.115167
O O2 0.036727 0.644794 0.160784
O O3 0.051029 0.477715 0.126845
O O4 0.088209 0.621474 0.998218
O O5 0.701068 0.728273 0.069382
O O6 0.703253 0.567586 0.159691
O O7 0.101691 0.200168 0.517870
O O8 0.031206 0.138134 0.345926
O O9 0.333334 0.666668 0.250000
O O10 0.902230 0.184505 0.750000
O O11 0.110194 0.336950 0.750000
O O12 0.256296 0.270380 0.750000
#
# Coordination Sequence:
#
# PCOD8325682 Si02
#       7
#    12  12  12   4   6   6   6
#     4  11  26  44  74 104 144 183 243 299 370 421
#     4  10  25  45  70 105 141 185 237 300 353 443
#     4  11  25  42  68 101 145 191 234 291 354 428
#     4  12  27  42  72 106 140 187 240 318 354 430
#     4  12  25  47  71 103 140 192 231 297 358 434
#     4  10  25  45  74  97 141 188 232 284 361 424
#     4  10  26  40  65 102 137 178 233 279 339 428
#
# _framework density 21.573367999999999
#
# number of rings (size 3 to 8) (size 9 to 14) (size 15 to 20)
#    0.000    1.241    1.034    2.069   20.276    1.655 
#    0.621    0.000    0.000    3.310    0.000    0.000 
#    0.000    0.000    0.000    0.000    0.000    0.000 
#
# Total GULP energy -718772.237498 kJ/mol
# GULP energy per Si atom -12392.624784 kJ/mol
# Density = 2.152427 g / cm^3
# Si number density = 21.573368 Si / 1000 Ang^3
#
#
#
# Elastic Constant Matrix: (Units=GPa)
#
#
# Indices 1 2 3 4 5 6 
#
# 1 122.5449 59.7352 54.6979 0.0000 0.0000 0.0004
# 2 59.7352 122.5445 54.6980 0.0000 0.0000 0.0001
# 3 54.6979 54.6980 159.3892 0.0000 0.0000 0.0001
# 4 0.0000 0.0000 0.0000 30.2068 0.0000 0.0000
# 5 0.0000 0.0000 0.0000 0.0000 30.2068 0.0000
# 6 0.0004 0.0001 0.0001 0.0000 0.0000 31.4046
#
#
#
# Elastic Compliance Matrix: (Units=1/GPa)
#
#
# Indices 1 2 3 4 5 6 
#
# 1 0.011415 -0.004506 -0.002371 0.000000 0.000000 0.000000
# 2 -0.004506 0.011415 -0.002371 0.000000 0.000000 0.000000
# 3 -0.002371 -0.002371 0.007901 0.000000 0.000000 0.000000
# 4 0.000000 0.000000 0.000000 0.033105 0.000000 0.000000
# 5 0.000000 0.000000 0.000000 0.000000 0.033105 0.000000
# 6 0.000000 0.000000 0.000000 0.000000 0.000000 0.031843
#
#
# Mechanical properties :
#
#
# Convention : Reuss Voigt Hill
#
# Bulk Modulus (GPa) = 81.73027 82.52676 82.12851
# Shear Modulus (GPa) = 33.03410 34.05347 33.54378
#
# Velocity S-wave (km/s) = 3.91736 3.97734 3.94746
# Velocity P-wave (km/s) = 7.64382 7.70904 7.67650
#
# Compressibility (1/GPa) = 0.01223537
#
# Stress axis : x y z
#
# Youngs Moduli (GPa) = 87.60355 87.60314 126.56206
#
# Poissons Ratio (x) = 0.39475 0.30008
# Poissons Ratio (y) = 0.39475 0.30008
# Poissons Ratio (z) = 0.20771 0.20771
#
# Static dielectric constant tensor:
#      x y z
#    x 3.782920 0.000000 0.000000 
#    y 0.000000 3.782920 0.000000 
#    z 0.000000 0.000000 4.678590 
# 
# 
# High freq. dielectric constant tensor:
#      x y z
#    x 1.838310 0.000000 0.000000 
#    y 0.000000 1.838310 0.000000 
#    z 0.000000 0.000000 1.881530 
# 
# From -- ./inp_files/2711.got.cif
#   From: 2010.06.25/outbox.cif.g09.slc.cpg/sg176_2_cif.got.tgz:2711.got - 2010.06.28 12:15:01.
