data_PCOD8325638
_publ_section_title
;
Structure prediction by ZEFSAII (Michael W. Deem and Ramdas Pophale) SiO2 
 PCOD8325638
Probable space group: P 63/M
;
_chemical_formula_sum "Si O2"
_cell_formula_units_Z 54
_cell_length_a 11.442545
_cell_length_b 11.442545
_cell_length_c 22.631002
_cell_angle_alpha 90.000000
_cell_angle_beta 90.000000
_cell_angle_gamma 120.000000
_cell_volume 2566.136020
_symmetry_space_group_name_H-M "P 63/M"
_symmetry_group_IT_number 176
_symmetry_cell_setting 'hexagonal'
loop_
_space_group_symop_operation_xyz
x,y,z
x-y,x,1/2+z
-y,x-y,z
-x,-y,1/2+z
-x+y,-x,z
y,-x+y,1/2+z
-x,-y,-z
-x+y,-x,1/2-z
y,-x+y,-z
x,y,1/2-z
x-y,x,-z
-y,x-y,1/2-z
loop_
_atom_site_type_symbol
_atom_site_label
_atom_site_fract_x
_atom_site_fract_y
_atom_site_fract_z
Si Si1 0.491088 0.813190 0.750000
Si Si2 0.093316 0.697960 0.545959
Si Si3 0.950556 0.588104 0.431502
Si Si4 0.722121 0.970402 0.185731
Si Si5 0.731100 0.967846 0.663544
O O1 0.344206 0.803929 0.750000
O O2 0.579741 0.892090 0.692277
O O3 0.039640 0.544449 0.563355
O O4 0.253162 0.795554 0.553903
O O5 0.023641 0.750125 0.592592
O O6 0.047238 0.701992 0.479026
O O7 0.002537 0.645932 0.366288
O O8 0.669011 0.987068 0.250000
O O9 0.700631 0.820490 0.185476
O O10 0.881159 0.079047 0.180208
#
# Coordination Sequence:
#
# PCOD8325638 Si02
#       5
#     6  12  12  12  12
#     4  10  24  36  60  98 132 158 208 260 318 376
#     4  10  22  38  59  87 116 165 208 265 316 373
#     4  10  22  39  60  87 123 161 215 264 318 387
#     4  11  21  37  58  90 120 163 202 251 320 369
#     4  11  22  38  62  90 127 165 207 263 311 384
#
# _framework density 21.043310000000002
#
# number of rings (size 3 to 8) (size 9 to 14) (size 15 to 20)
#    0.222    1.333    2.222    2.222    6.222    0.000 
#    0.000    0.000    0.000    8.000    0.000    0.000 
#    0.000    0.000    0.000    0.000    0.000    0.000 
#
# Total GULP energy -669193.907851 kJ/mol
# GULP energy per Si atom -12392.479775 kJ/mol
# Density = 2.099541 g / cm^3
# Si number density = 21.043310 Si / 1000 Ang^3
#
#
#
# Elastic Constant Matrix: (Units=GPa)
#
#
# Indices 1 2 3 4 5 6 
#
# 1 72.4312 22.9723 40.3077 0.0000 0.0000 0.0000
# 2 22.9723 72.4312 40.3077 0.0000 0.0000 0.0000
# 3 40.3077 40.3077 188.8699 0.0000 0.0000 0.0000
# 4 0.0000 0.0000 0.0000 21.4894 0.0000 0.0000
# 5 0.0000 0.0000 0.0000 0.0000 21.4894 0.0000
# 6 0.0000 0.0000 0.0000 0.0000 0.0000 24.7294
#
#
#
# Elastic Compliance Matrix: (Units=1/GPa)
#
#
# Indices 1 2 3 4 5 6 
#
# 1 0.016503 -0.003715 -0.002729 0.000000 0.000000 0.000000
# 2 -0.003715 0.016503 -0.002729 0.000000 0.000000 0.000000
# 3 -0.002729 -0.002729 0.006460 0.000000 0.000000 0.000000
# 4 0.000000 0.000000 0.000000 0.046534 0.000000 0.000000
# 5 0.000000 0.000000 0.000000 0.000000 0.046534 0.000000
# 6 0.000000 0.000000 0.000000 0.000000 0.000000 0.040438
#
#
# Mechanical properties :
#
#
# Convention : Reuss Voigt Hill
#
# Bulk Modulus (GPa) = 47.35119 60.10086 53.72603
# Shear Modulus (GPa) = 25.20670 28.88463 27.04566
#
# Velocity S-wave (km/s) = 3.46475 3.70892 3.58891
# Velocity P-wave (km/s) = 6.20940 6.85303 6.53914
#
# Compressibility (1/GPa) = 0.02111880
#
# Stress axis : x y z
#
# Youngs Moduli (GPa) = 60.59371 60.59371 154.81009
#
# Poissons Ratio (x) = 0.22513 0.42250
# Poissons Ratio (y) = 0.22513 0.42250
# Poissons Ratio (z) = 0.16537 0.16537
#
# Static dielectric constant tensor:
#      x y z
#    x 3.577030 0.000000 0.000000 
#    y 0.000000 3.577030 0.000000 
#    z 0.000000 0.000000 4.225150 
# 
# 
# High freq. dielectric constant tensor:
#      x y z
#    x 1.806450 0.000000 0.000000 
#    y 0.000000 1.806450 0.000000 
#    z 0.000000 0.000000 1.850810 
# 
# From -- ./inp_files/4020.got.cif
#   From: 2010.06.25/outbox.cif.g09.slc.cpg/sg176_3_cif.got.tgz:4020.got - 2010.06.28 12:15:01.
