data_PCOD8325377
_publ_section_title
;
Structure prediction by ZEFSAII (Michael W. Deem and Ramdas Pophale) SiO2 
 PCOD8325377
Probable space group: P 6/M
;
_chemical_formula_sum "Si O2"
_cell_formula_units_Z 72
_cell_length_a 15.760821
_cell_length_b 15.760821
_cell_length_c 18.109444
_cell_angle_alpha 90.000000
_cell_angle_beta 90.000000
_cell_angle_gamma 120.000000
_cell_volume 3895.771012
_symmetry_space_group_name_H-M "P 6/M"
_symmetry_group_IT_number 175
_symmetry_cell_setting 'hexagonal'
loop_
_space_group_symop_operation_xyz
x,y,z
x-y,x,z
-y,x-y,z
-x,-y,z
-x+y,-x,z
y,-x+y,z
-x,-y,-z
-x+y,-x,-z
y,-x+y,-z
x,y,-z
x-y,x,-z
-y,x-y,-z
loop_
_atom_site_type_symbol
_atom_site_label
_atom_site_fract_x
_atom_site_fract_y
_atom_site_fract_z
Si Si1 0.707228 0.598476 0.916403
Si Si2 0.776635 0.553270 0.412478
Si Si3 0.442198 0.884397 0.820485
Si Si4 0.117512 0.558756 0.349451
Si Si5 0.888496 0.776990 0.587884
Si Si6 0.598476 0.707228 0.083597
O O1 0.660530 0.505174 0.862130
O O2 0.679969 0.679969 0.891989
O O3 0.824303 0.648606 0.910004
O O4 0.671366 0.562094 0.000000
O O5 0.775116 0.550234 0.500000
O O6 0.835590 0.500835 0.385401
O O7 0.665246 0.500836 0.385400
O O8 0.832571 0.665139 0.383073
O O9 0.425780 0.851561 0.735951
O O10 0.339470 0.844644 0.862130
O O11 0.500000 0.000000 0.829453
O O12 0.000000 0.500000 0.361166
O O13 0.832437 0.832436 0.618061
O O14 0.889129 0.778256 0.500000
O O15 0.562094 0.671366 0.000000
#
# Coordination Sequence:
#
# PCOD8325377 Si02
#       6
#    12  12  12  12  12  12
#     4   9  17  31  53  80 111 146 181 217 259 312
#     4  11  23  38  57  79 103 141 185 224 272 329
#     4   9  19  34  52  75 105 139 177 218 266 312
#     4  11  24  40  58  80 109 145 184 230 276 325
#     4   9  17  31  54  83 109 130 159 208 270 329
#     4   9  17  31  53  80 111 146 181 217 259 312
#
# _framework density 18.481579
#
# number of rings (size 3 to 8) (size 9 to 14) (size 15 to 20)
#    0.000    2.333    0.000    2.500    2.333    5.333 
#    1.000    0.000    0.000    0.333    0.000    2.333 
#    0.000    0.000    0.000    0.000    0.000    0.000 
#
# Total GULP energy -892494.668491 kJ/mol
# GULP energy per Si atom -12395.759285 kJ/mol
# Density = 1.843951 g / cm^3
# Si number density = 18.481579 Si / 1000 Ang^3
#
#
#
# Elastic Constant Matrix: (Units=GPa)
#
#
# Indices 1 2 3 4 5 6 
#
# 1 146.4826 82.2450 44.0074 0.0000 0.0000 0.0000
# 2 82.2450 146.4826 44.0074 0.0000 0.0000 0.0000
# 3 44.0074 44.0074 83.8949 0.0000 0.0000 0.0000
# 4 0.0000 0.0000 0.0000 16.0860 0.0000 0.0000
# 5 0.0000 0.0000 0.0000 0.0000 16.0860 0.0000
# 6 0.0000 0.0000 0.0000 0.0000 0.0000 32.1188
#
#
#
# Elastic Compliance Matrix: (Units=1/GPa)
#
#
# Indices 1 2 3 4 5 6 
#
# 1 0.010522 -0.005045 -0.002873 0.000000 0.000000 0.000000
# 2 -0.005045 0.010522 -0.002873 0.000000 0.000000 0.000000
# 3 -0.002873 -0.002873 0.014934 0.000000 0.000000 0.000000
# 4 0.000000 0.000000 0.000000 0.062166 0.000000 0.000000
# 5 0.000000 0.000000 0.000000 0.000000 0.062166 0.000000
# 6 0.000000 0.000000 0.000000 0.000000 0.000000 0.031134
#
#
# Mechanical properties :
#
#
# Convention : Reuss Voigt Hill
#
# Bulk Modulus (GPa) = 69.46319 79.70888 74.58603
# Shear Modulus (GPa) = 22.95401 26.63151 24.79276
#
# Velocity S-wave (km/s) = 3.52802 3.80014 3.66660
# Velocity P-wave (km/s) = 7.36631 7.90425 7.64002
#
# Compressibility (1/GPa) = 0.01439611
#
# Stress axis : x y z
#
# Youngs Moduli (GPa) = 95.03500 95.03500 66.96079
#
# Poissons Ratio (x) = 0.47943 0.19240
# Poissons Ratio (y) = 0.47943 0.19240
# Poissons Ratio (z) = 0.27307 0.27307
#
# Static dielectric constant tensor:
#      x y z
#    x 3.465920 0.000000 0.000000 
#    y 0.000000 3.465920 0.000000 
#    z 0.000000 0.000000 3.395880 
# 
# 
# High freq. dielectric constant tensor:
#      x y z
#    x 1.717960 0.000000 0.000000 
#    y 0.000000 1.717960 0.000000 
#    z 0.000000 0.000000 1.703110 
# 
# From -- ./inp_files/2873.got.cif
#   From: 2010.03.12/outbox.cif.g09.slc.cpg/sg175_2_cif.got.tgz:2873.got - 2010.04.02 06:55:29.
