data_PCOD8325369
_publ_section_title
;
Structure prediction by ZEFSAII (Michael W. Deem and Ramdas Pophale) SiO2 
 PCOD8325369
Probable space group: P 6/M
;
_chemical_formula_sum "Si O2"
_cell_formula_units_Z 66
_cell_length_a 22.531121
_cell_length_b 22.531121
_cell_length_c 7.957839
_cell_angle_alpha 90.000000
_cell_angle_beta 90.000000
_cell_angle_gamma 120.000000
_cell_volume 3498.576542
_symmetry_space_group_name_H-M "P 6/M"
_symmetry_group_IT_number 175
_symmetry_cell_setting 'hexagonal'
loop_
_space_group_symop_operation_xyz
x,y,z
x-y,x,z
-y,x-y,z
-x,-y,z
-x+y,-x,z
y,-x+y,z
-x,-y,-z
-x+y,-x,-z
y,-x+y,-z
x,y,-z
x-y,x,-z
-y,x-y,-z
loop_
_atom_site_type_symbol
_atom_site_label
_atom_site_fract_x
_atom_site_fract_y
_atom_site_fract_z
Si Si1 0.628589 0.747906 0.809264
Si Si2 0.766725 0.000025 0.312220
Si Si3 0.921202 0.525747 0.697066
Si Si4 0.921236 0.395434 0.302934
Si Si5 0.252055 0.371359 0.190735
Si Si6 0.000047 0.142693 0.000000
O O1 0.690899 0.756116 0.697043
O O2 0.557792 0.676768 0.789876
O O3 0.610769 0.805383 0.754558
O O4 0.654357 0.756928 0.000000
O O5 0.795850 0.000049 0.500000
O O6 0.690972 0.934757 0.302966
O O7 0.817483 0.000068 0.169257
O O8 0.912663 0.530186 0.500000
O O9 0.892871 0.446412 0.750920
O O10 0.999982 0.569876 0.750330
O O11 0.912700 0.382447 0.500000
O O12 0.881087 0.323216 0.210101
O O13 0.243018 0.345584 0.000000
O O14 0.067741 0.135415 0.000000
#
# Coordination Sequence:
#
# PCOD8325369 Si02
#       6
#    12  12  12  12  12   6
#     4  11  22  36  56  86 121 154 195 246 295 352
#     4  12  24  41  64  90 123 159 196 249 312 365
#     4   9  18  33  53  80 114 148 186 234 284 340
#     4   9  18  33  53  80 114 148 186 234 284 340
#     4  11  22  36  56  86 121 154 195 246 295 352
#     4  12  27  48  68  90 119 156 204 252 302 368
#
# _framework density 18.864813999999999
#
# number of rings (size 3 to 8) (size 9 to 14) (size 15 to 20)
#    0.000    1.455    3.636    3.364    0.000    5.818 
#    0.000    1.818    0.000    1.818    0.000    0.000 
#    0.000    0.000    0.000    0.000    0.000    0.000 
#
# Total GULP energy -818232.820477 kJ/mol
# GULP energy per Si atom -12397.466977 kJ/mol
# Density = 1.882188 g / cm^3
# Si number density = 18.864814 Si / 1000 Ang^3
#
#
#
# Elastic Constant Matrix: (Units=GPa)
#
#
# Indices 1 2 3 4 5 6 
#
# 1 124.5772 66.3264 44.2534 0.0000 0.0000 0.0000
# 2 66.3264 124.5772 44.2534 0.0000 0.0000 0.0000
# 3 44.2534 44.2534 88.3800 0.0000 0.0000 0.0000
# 4 0.0000 0.0000 0.0000 11.0688 0.0000 0.0000
# 5 0.0000 0.0000 0.0000 0.0000 11.0688 0.0000
# 6 0.0000 0.0000 0.0000 0.0000 0.0000 29.1254
#
#
#
# Elastic Compliance Matrix: (Units=1/GPa)
#
#
# Indices 1 2 3 4 5 6 
#
# 1 0.011995 -0.005173 -0.003416 0.000000 0.000000 0.000000
# 2 -0.005173 0.011995 -0.003416 0.000000 0.000000 0.000000
# 3 -0.003416 -0.003416 0.014736 0.000000 0.000000 0.000000
# 4 0.000000 0.000000 0.000000 0.090344 0.000000 0.000000
# 5 0.000000 0.000000 0.000000 0.000000 0.090344 0.000000
# 6 0.000000 0.000000 0.000000 0.000000 0.000000 0.034334
#
#
# Mechanical properties :
#
#
# Convention : Reuss Voigt Hill
#
# Bulk Modulus (GPa) = 67.95351 71.91122 69.93236
# Shear Modulus (GPa) = 17.68901 22.43265 20.06083
#
# Velocity S-wave (km/s) = 3.06547 3.45211 3.26452
# Velocity P-wave (km/s) = 6.97344 7.35469 7.16660
#
# Compressibility (1/GPa) = 0.01471594
#
# Stress axis : x y z
#
# Youngs Moduli (GPa) = 83.37131 83.37131 67.86318
#
# Poissons Ratio (x) = 0.43125 0.23181
# Poissons Ratio (y) = 0.43125 0.23181
# Poissons Ratio (z) = 0.28478 0.28478
#
# Static dielectric constant tensor:
#      x y z
#    x 3.469510 0.000000 0.000000 
#    y 0.000000 3.469510 0.000000 
#    z 0.000000 0.000000 3.434690 
# 
# 
# High freq. dielectric constant tensor:
#      x y z
#    x 1.722120 0.000000 0.000000 
#    y 0.000000 1.722120 0.000000 
#    z 0.000000 0.000000 1.737060 
# 
# From -- ./inp_files/986.got.cif
#   From: 2010.03.12/outbox.cif.g09.slc.cpg/sg175_1_cif.got.tgz:986.got - 2010.04.02 06:55:29.
