data_PCOD8325074
_publ_section_title
;
Structure prediction by ZEFSAII (Michael W. Deem and Ramdas Pophale) SiO2 
 PCOD8325074
Probable space group: P 6/M
;
_chemical_formula_sum "Si O2"
_cell_formula_units_Z 72
_cell_length_a 23.423290
_cell_length_b 23.423290
_cell_length_c 8.792964
_cell_angle_alpha 90.000000
_cell_angle_beta 90.000000
_cell_angle_gamma 120.000000
_cell_volume 4177.935371
_symmetry_space_group_name_H-M "P 6/M"
_symmetry_group_IT_number 175
_symmetry_cell_setting 'hexagonal'
loop_
_space_group_symop_operation_xyz
x,y,z
x-y,x,z
-y,x-y,z
-x,-y,z
-x+y,-x,z
y,-x+y,z
-x,-y,-z
-x+y,-x,-z
y,-x+y,-z
x,y,-z
x-y,x,-z
-y,x-y,-z
loop_
_atom_site_type_symbol
_atom_site_label
_atom_site_fract_x
_atom_site_fract_y
_atom_site_fract_z
Si Si1 0.541681 0.211012 0.180051
Si Si2 0.926769 0.728690 0.178180
Si Si3 0.072143 0.798285 0.180752
Si Si4 0.597440 0.731401 0.332957
Si Si5 0.209965 0.547826 0.318996
Si Si6 0.136248 0.728084 0.330312
O O1 0.596088 0.192858 0.231192
O O2 0.557994 0.278633 0.261621
O O3 0.471529 0.149760 0.231599
O O4 0.542447 0.220412 0.000000
O O5 0.870285 0.742813 0.245245
O O6 0.914423 0.656441 0.222792
O O7 0.999741 0.784317 0.232660
O O8 0.922637 0.730154 0.000000
O O9 0.081505 0.739849 0.249365
O O10 0.077034 0.795376 0.000000
O O11 0.613011 0.714290 0.500000
O O12 0.525357 0.674879 0.277157
O O13 0.593738 0.797196 0.340286
O O14 0.214945 0.559593 0.500000
O O15 0.112284 0.699212 0.500000
#
# Coordination Sequence:
#
# PCOD8325074 Si02
#       6
#    12  12  12  12  12  12
#     4  11  20  29  43  65  91 121 158 200 243 290
#     4   9  17  29  48  71  97 123 151 185 224 266
#     4   9  17  30  48  72  97 124 153 186 224 267
#     4   8  16  29  45  64  87 116 153 191 231 274
#     4  10  19  31  44  61  89 124 159 199 244 290
#     4   9  17  30  46  65  89 120 154 193 236 279
#
# _framework density 17.233393
#
# number of rings (size 3 to 8) (size 9 to 14) (size 15 to 20)
#    0.000    2.667    0.000    3.833    0.000    5.333 
#    0.000    0.000    0.000    1.333    0.000    9.333 
#    0.000    0.000    0.000    8.333    0.000    8.667 
#
# Total GULP energy -892311.328140 kJ/mol
# GULP energy per Si atom -12393.212891 kJ/mol
# Density = 1.719417 g / cm^3
# Si number density = 17.233393 Si / 1000 Ang^3
#
#
#
# Elastic Constant Matrix: (Units=GPa)
#
#
# Indices 1 2 3 4 5 6 
#
# 1 93.1963 51.4813 19.8046 0.0000 0.0000 0.0000
# 2 51.4813 93.1963 19.8046 0.0000 0.0000 0.0000
# 3 19.8046 19.8046 46.1805 0.0000 0.0000 0.0000
# 4 0.0000 0.0000 0.0000 17.8940 0.0000 0.0000
# 5 0.0000 0.0000 0.0000 0.0000 17.8940 0.0000
# 6 0.0000 0.0000 0.0000 0.0000 0.0000 20.8575
#
#
#
# Elastic Compliance Matrix: (Units=1/GPa)
#
#
# Indices 1 2 3 4 5 6 
#
# 1 0.015902 -0.008070 -0.003359 0.000000 0.000000 0.000000
# 2 -0.008070 0.015902 -0.003359 0.000000 0.000000 0.000000
# 3 -0.003359 -0.003359 0.024535 0.000000 0.000000 0.000000
# 4 0.000000 0.000000 0.000000 0.055885 0.000000 0.000000
# 5 0.000000 0.000000 0.000000 0.000000 0.055885 0.000000
# 6 0.000000 0.000000 0.000000 0.000000 0.000000 0.047944
#
#
# Mechanical properties :
#
#
# Convention : Reuss Voigt Hill
#
# Bulk Modulus (GPa) = 37.36428 46.08379 41.72403
# Shear Modulus (GPa) = 19.64267 20.76129 20.20198
#
# Velocity S-wave (km/s) = 3.37976 3.47466 3.42754
# Velocity P-wave (km/s) = 6.07937 6.54956 6.31884
#
# Compressibility (1/GPa) = 0.02676353
#
# Stress axis : x y z
#
# Youngs Moduli (GPa) = 62.88599 62.88599 40.75846
#
# Poissons Ratio (x) = 0.50751 0.13689
# Poissons Ratio (y) = 0.50751 0.13689
# Poissons Ratio (z) = 0.21120 0.21120
#
# Static dielectric constant tensor:
#      x y z
#    x 3.348290 0.000000 0.000000 
#    y 0.000000 3.348290 0.000000 
#    z 0.000000 0.000000 3.306720 
# 
# 
# High freq. dielectric constant tensor:
#      x y z
#    x 1.644370 0.000000 0.000000 
#    y 0.000000 1.644370 0.000000 
#    z 0.000000 0.000000 1.668430 
# 
# From -- ./inp_files/1223.got.cif
#   From: 2010.03.12/outbox.cif.g09.slc.cpg/sg175_1_cif.got.tgz:1223.got - 2010.04.02 06:55:29.
