data_PCOD8325704
_publ_section_title
;
Structure prediction by ZEFSAII (Michael W. Deem and Ramdas Pophale) SiO2 
 PCOD8325704
Probable space group: P 63/M
;
_chemical_formula_sum "Si O2"
_cell_formula_units_Z 72
_cell_length_a 15.397178
_cell_length_b 15.397178
_cell_length_c 16.529692
_cell_angle_alpha 90.000000
_cell_angle_beta 90.000000
_cell_angle_gamma 120.000000
_cell_volume 3393.732864
_symmetry_space_group_name_H-M "P 63/M"
_symmetry_group_IT_number 176
_symmetry_cell_setting 'hexagonal'
loop_
_space_group_symop_operation_xyz
x,y,z
x-y,x,1/2+z
-y,x-y,z
-x,-y,1/2+z
-x+y,-x,z
y,-x+y,1/2+z
-x,-y,-z
-x+y,-x,1/2-z
y,-x+y,-z
x,y,1/2-z
x-y,x,-z
-y,x-y,1/2-z
loop_
_atom_site_type_symbol
_atom_site_label
_atom_site_fract_x
_atom_site_fract_y
_atom_site_fract_z
Si Si1 0.775286 0.874539 0.903666
Si Si2 0.211720 0.451465 0.093689
Si Si3 0.775286 0.874539 0.403665
Si Si4 0.886410 0.428840 0.843414
Si Si5 0.760258 0.211724 0.093689
Si Si6 0.542433 0.113590 0.343414
O O1 0.837195 0.824160 0.868876
O O2 0.661565 0.810192 0.873221
O O3 0.824164 0.986965 0.868876
O O4 0.778498 0.878774 0.000000
O O5 0.148622 0.338435 0.126779
O O6 0.179455 0.517961 0.145696
O O7 0.328729 0.489620 0.103714
O O8 0.188754 0.458476 1.000000
O O9 0.884980 0.400502 0.750000
O O10 0.000001 0.499997 0.874093
O O11 0.661498 0.179459 0.145697
O O12 0.839111 0.328733 0.103712
O O13 0.515524 0.115020 0.250000
#
# Coordination Sequence:
#
# PCOD8325704 Si02
#       6
#    12  12  12  12  12  12
#     4   9  17  30  51  81 115 147 178 217 269 328
#     4  11  22  37  59  86 116 149 190 241 290 340
#     4   9  17  30  51  81 115 147 178 217 269 328
#     4  11  24  41  60  83 115 155 196 239 291 353
#     4  11  22  37  59  86 116 149 190 241 290 340
#     4  11  24  41  60  83 115 155 196 239 291 353
#
# _framework density 21.215575000000001
#
# number of rings (size 3 to 8) (size 9 to 14) (size 15 to 20)
#    0.000    1.667    0.000    5.000    0.000    6.667 
#    0.000    0.000    0.000    0.000    0.000    0.000 
#    0.000   16.000    0.000    0.000    0.000    0.000 
#
# Total GULP energy -893262.794141 kJ/mol
# GULP energy per Si atom -12406.427696 kJ/mol
# Density = 2.116729 g / cm^3
# Si number density = 21.215575 Si / 1000 Ang^3
#
#
#
# Elastic Constant Matrix: (Units=GPa)
#
#
# Indices 1 2 3 4 5 6 
#
# 1 95.8274 -0.6322 16.6314 0.0000 0.0000 0.0000
# 2 -0.6322 95.8274 16.6314 0.0000 0.0000 0.0000
# 3 16.6314 16.6314 30.2655 0.0000 0.0000 0.0000
# 4 0.0000 0.0000 0.0000 8.1693 0.0000 0.0000
# 5 0.0000 0.0000 0.0000 0.0000 8.1693 0.0000
# 6 0.0000 0.0000 0.0000 0.0000 0.0000 48.2298
#
#
#
# Elastic Compliance Matrix: (Units=1/GPa)
#
#
# Indices 1 2 3 4 5 6 
#
# 1 0.011684 0.001317 -0.007144 0.000000 0.000000 0.000000
# 2 0.001317 0.011684 -0.007144 0.000000 0.000000 0.000000
# 3 -0.007144 -0.007144 0.040893 0.000000 0.000000 0.000000
# 4 0.000000 0.000000 0.000000 0.122410 0.000000 0.000000
# 5 0.000000 0.000000 0.000000 0.000000 0.122410 0.000000
# 6 0.000000 0.000000 0.000000 0.000000 0.000000 0.020734
#
#
# Mechanical properties :
#
#
# Convention : Reuss Voigt Hill
#
# Bulk Modulus (GPa) = 26.09763 31.90907 29.00335
# Shear Modulus (GPa) = 13.56738 25.53298 19.55018
#
# Velocity S-wave (km/s) = 2.53158 3.47292 3.03892
# Velocity P-wave (km/s) = 4.56870 5.58163 5.10037
#
# Compressibility (1/GPa) = 0.03831765
#
# Stress axis : x y z
#
# Youngs Moduli (GPa) = 85.58668 85.58668 24.45418
#
# Poissons Ratio (x) = -0.11272 0.17471
# Poissons Ratio (y) = -0.11272 0.17471
# Poissons Ratio (z) = 0.61146 0.61146
#
# Static dielectric constant tensor:
#      x y z
#    x 3.973810 0.000000 0.000000 
#    y 0.000000 3.973810 0.000000 
#    z 0.000000 0.000000 3.338780 
# 
# 
# High freq. dielectric constant tensor:
#      x y z
#    x 1.846940 0.000000 0.000000 
#    y 0.000000 1.846940 0.000000 
#    z 0.000000 0.000000 1.799070 
# 
# From -- ./inp_files/3394.got.cif
#   From: 2010.06.25/outbox.cif.g09.slc.cpg/sg176_2_cif.got.tgz:3394.got - 2010.06.28 12:15:01.
