data_PCOD8325076
_publ_section_title
;
Structure prediction by ZEFSAII (Michael W. Deem and Ramdas Pophale) SiO2 
 PCOD8325076
Probable space group: P 6/M
;
_chemical_formula_sum "Si O2"
_cell_formula_units_Z 72
_cell_length_a 23.686946
_cell_length_b 23.686946
_cell_length_c 8.949488
_cell_angle_alpha 90.000000
_cell_angle_beta 90.000000
_cell_angle_gamma 120.000000
_cell_volume 4348.574969
_symmetry_space_group_name_H-M "P 6/M"
_symmetry_group_IT_number 175
_symmetry_cell_setting 'hexagonal'
loop_
_space_group_symop_operation_xyz
x,y,z
x-y,x,z
-y,x-y,z
-x,-y,z
-x+y,-x,z
y,-x+y,z
-x,-y,-z
-x+y,-x,-z
y,-x+y,-z
x,y,-z
x-y,x,-z
-y,x-y,-z
loop_
_atom_site_type_symbol
_atom_site_label
_atom_site_fract_x
_atom_site_fract_y
_atom_site_fract_z
Si Si1 0.413226 0.932024 0.172571
Si Si2 0.059246 0.705390 0.673926
Si Si3 0.851862 0.921842 0.321902
Si Si4 0.284308 0.921775 0.828247
Si Si5 0.482778 0.070105 0.672418
Si Si6 0.147077 0.295823 0.323804
O O1 0.334894 0.894371 0.193562
O O2 0.449305 0.892465 0.231335
O O3 0.442775 0.995276 0.276637
O O4 0.431072 0.951576 0.000000
O O5 0.039369 0.701839 0.500000
O O6 0.097058 0.664432 0.699939
O O7 0.105535 0.778677 0.727667
O O8 0.995587 0.678255 0.773982
O O9 0.890873 0.886852 0.261284
O O10 0.851930 0.922700 0.500000
O O11 0.777801 0.882415 0.260574
O O12 0.220167 0.876792 0.736532
O O13 0.265301 0.919751 0.000000
O O14 0.502201 0.075375 0.500000
O O15 0.140766 0.294079 0.500000
#
# Coordination Sequence:
#
# PCOD8325076 Si02
#       6
#    12  12  12  12  12  12
#     4   9  16  26  40  60  87 115 140 167 205 251
#     4   9  18  31  46  65  90 120 151 185 226 273
#     4   9  16  26  42  63  84 108 145 195 245 289
#     4  10  20  31  44  64  90 119 150 186 226 273
#     4   9  15  24  41  64  87 111 141 172 204 247
#     4  10  19  31  46  63  88 121 154 189 235 289
#
# _framework density 16.557148000000002
#
# number of rings (size 3 to 8) (size 9 to 14) (size 15 to 20)
#    0.000    2.667    0.000    3.667    0.000    6.667 
#    0.000    0.000    0.000    0.000    0.000    0.000 
#    1.667    2.667    1.000    0.000    1.333    0.000 
#
# Total GULP energy -892106.147316 kJ/mol
# GULP energy per Si atom -12390.363157 kJ/mol
# Density = 1.651946 g / cm^3
# Si number density = 16.557148 Si / 1000 Ang^3
#
#
#
# Elastic Constant Matrix: (Units=GPa)
#
#
# Indices 1 2 3 4 5 6 
#
# 1 84.6735 35.5443 21.4275 0.0000 0.0000 0.0000
# 2 35.5443 84.6735 21.4275 0.0000 0.0000 0.0000
# 3 21.4275 21.4275 22.9540 0.0000 0.0000 0.0000
# 4 0.0000 0.0000 0.0000 13.2040 0.0000 0.0000
# 5 0.0000 0.0000 0.0000 0.0000 13.2040 0.0000
# 6 0.0000 0.0000 0.0000 0.0000 0.0000 24.5646
#
#
#
# Elastic Compliance Matrix: (Units=1/GPa)
#
#
# Indices 1 2 3 4 5 6 
#
# 1 0.016411 -0.003944 -0.011638 0.000000 0.000000 0.000000
# 2 -0.003944 0.016411 -0.011638 0.000000 0.000000 0.000000
# 3 -0.011638 -0.011638 0.065293 0.000000 0.000000 0.000000
# 4 0.000000 0.000000 0.000000 0.075735 0.000000 0.000000
# 5 0.000000 0.000000 0.000000 0.000000 0.075735 0.000000
# 6 0.000000 0.000000 0.000000 0.000000 0.000000 0.040709
#
#
# Mechanical properties :
#
#
# Convention : Reuss Voigt Hill
#
# Bulk Modulus (GPa) = 22.89607 38.78887 30.84247
# Shear Modulus (GPa) = 13.91633 17.78795 15.85214
#
# Velocity S-wave (km/s) = 2.90229 3.28126 3.09758
# Velocity P-wave (km/s) = 5.00895 6.15091 5.60907
#
# Compressibility (1/GPa) = 0.04367561
#
# Stress axis : x y z
#
# Youngs Moduli (GPa) = 60.93599 60.93599 15.31559
#
# Poissons Ratio (x) = 0.24032 0.17824
# Poissons Ratio (y) = 0.24032 0.17824
# Poissons Ratio (z) = 0.70916 0.70916
#
# Static dielectric constant tensor:
#      x y z
#    x 3.371650 0.000000 0.000000 
#    y 0.000000 3.371650 0.000000 
#    z 0.000000 0.000000 3.004360 
# 
# 
# High freq. dielectric constant tensor:
#      x y z
#    x 1.620980 0.000000 0.000000 
#    y 0.000000 1.620980 0.000000 
#    z 0.000000 0.000000 1.628530 
# 
# From -- ./inp_files/1183.got.cif
#   From: 2010.03.12/outbox.cif.g09.slc.cpg/sg175_1_cif.got.tgz:1183.got - 2010.04.02 06:55:29.
