data_PCOD8325009
_publ_section_title
;
Structure prediction by ZEFSAII (Michael W. Deem and Ramdas Pophale) SiO2 
 PCOD8325009
Probable space group: P 6/M
;
_chemical_formula_sum "Si O2"
_cell_formula_units_Z 76
_cell_length_a 19.849564
_cell_length_b 19.849564
_cell_length_c 15.444263
_cell_angle_alpha 90.000000
_cell_angle_beta 90.000000
_cell_angle_gamma 120.000000
_cell_volume 5269.868326
_symmetry_space_group_name_H-M "P 6/M"
_symmetry_group_IT_number 175
_symmetry_cell_setting 'hexagonal'
loop_
_space_group_symop_operation_xyz
x,y,z
x-y,x,z
-y,x-y,z
-x,-y,z
-x+y,-x,z
y,-x+y,z
-x,-y,-z
-x+y,-x,-z
y,-x+y,-z
x,y,-z
x-y,x,-z
-y,x-y,-z
loop_
_atom_site_type_symbol
_atom_site_label
_atom_site_fract_x
_atom_site_fract_y
_atom_site_fract_z
Si Si1 0.102628 0.917542 0.500000
Si Si2 0.098426 0.913383 0.811727
Si Si3 0.569848 0.160887 0.396865
Si Si4 0.698208 0.847917 0.341784
Si Si5 0.603530 0.921099 0.402609
Si Si6 0.179569 0.095578 0.000000
Si Si7 0.333334 0.666668 0.397357
Si Si8 0.103009 0.419783 0.402514
O O1 0.135142 0.895614 0.416661
O O2 0.009573 0.873904 0.500000
O O3 0.137975 0.879678 0.748635
O O4 0.005602 0.871229 0.796106
O O5 0.119953 0.894560 0.908159
O O6 0.566557 0.152027 0.500000
O O7 0.482163 0.115699 0.360050
O O8 0.605201 0.248466 0.363269
O O9 0.625044 0.128987 0.360585
O O10 0.661307 0.903739 0.347028
O O11 0.626485 0.760099 0.344980
O O12 0.598653 0.888280 0.500000
O O13 0.637335 0.011494 0.405215
O O14 0.120292 0.125579 0.000000
O O15 0.333334 0.666668 0.500000
O O16 0.137213 0.429175 0.500000
#
# Coordination Sequence:
#
# PCOD8325009 Si02
#       8
#     6  12  12  12  12   6   4  12
#     4  12  23  34  42  54  80 120 160 188 206 238
#     4  10  19  31  46  64  85 114 150 191 230 265
#     4   9  17  27  42  58  75 102 136 174 212 250
#     4  12  21  30  44  60  86 114 147 181 218 256
#     4  10  18  29  41  56  77 106 141 175 208 246
#     4   8  15  28  46  64  82 104 140 188 238 276
#     4   9  15  24  36  51  72  87 120 160 206 244
#     4  10  18  29  41  56  77 106 141 175 208 246
#
# _framework density 14.421612
#
# number of rings (size 3 to 8) (size 9 to 14) (size 15 to 20)
#    0.000    1.895    1.579    4.579    0.000    5.684 
#    0.000    1.579    0.000    0.000    0.000    0.000 
#    0.000    1.263    0.000    9.000    0.000    1.263 
#
# Total GULP energy -941960.658440 kJ/mol
# GULP energy per Si atom -12394.219190 kJ/mol
# Density = 1.438879 g / cm^3
# Si number density = 14.421612 Si / 1000 Ang^3
#
#
#
# Elastic Constant Matrix: (Units=GPa)
#
#
# Indices 1 2 3 4 5 6 
#
# 1 69.6067 -11.0016 17.9445 0.0000 0.0000 0.0009
# 2 -11.0016 69.6056 17.9441 0.0000 0.0000 0.0016
# 3 17.9445 17.9441 70.4194 0.0000 0.0000 0.0004
# 4 0.0000 0.0000 0.0000 10.4499 0.0000 0.0000
# 5 0.0000 0.0000 0.0000 0.0000 10.4499 0.0000
# 6 0.0009 0.0016 0.0004 0.0000 0.0000 40.3024
#
#
#
# Elastic Compliance Matrix: (Units=1/GPa)
#
#
# Indices 1 2 3 4 5 6 
#
# 1 0.016312 0.003906 -0.005152 0.000000 0.000000 0.000000
# 2 0.003906 0.016312 -0.005152 0.000000 0.000000 -0.000001
# 3 -0.005152 -0.005152 0.016826 0.000000 0.000000 0.000000
# 4 0.000000 0.000000 0.000000 0.095695 0.000000 0.000000
# 5 0.000000 0.000000 0.000000 0.000000 0.095694 0.000000
# 6 0.000000 -0.000001 0.000000 0.000000 0.000000 0.024812
#
#
# Mechanical properties :
#
#
# Convention : Reuss Voigt Hill
#
# Bulk Modulus (GPa) = 27.28130 28.82284 28.05207
# Shear Modulus (GPa) = 17.20184 24.55675 20.87930
#
# Velocity S-wave (km/s) = 3.45741 4.13095 3.80910
# Velocity P-wave (km/s) = 5.90731 6.54081 6.23211
#
# Compressibility (1/GPa) = 0.03665515
#
# Stress axis : x y z
#
# Youngs Moduli (GPa) = 61.30426 61.30341 59.43058
#
# Poissons Ratio (x) = -0.23948 0.30619
# Poissons Ratio (y) = -0.23948 0.30619
# Poissons Ratio (z) = 0.31585 0.31584
#
# Static dielectric constant tensor:
#      x y z
#    x 2.940910 0.000000 0.000000 
#    y 0.000000 2.940910 0.000000 
#    z 0.000000 0.000000 2.687030 
# 
# 
# High freq. dielectric constant tensor:
#      x y z
#    x 1.560870 0.000000 0.000000 
#    y 0.000000 1.560870 0.000000 
#    z 0.000000 0.000000 1.487410 
# 
# From -- ./inp_files/2590.got.cif
#   From: 2010.03.12/outbox.cif.g09.slc.cpg/sg175_2_cif.got.tgz:2590.got - 2010.04.02 06:55:29.
