data_PCOD8325764
_publ_section_title
;
Structure prediction by ZEFSAII (Michael W. Deem and Ramdas Pophale) SiO2 
 PCOD8325764
Probable space group: P 61 2 2
;
_chemical_formula_sum "Si O2"
_cell_formula_units_Z 78
_cell_length_a 18.835437
_cell_length_b 18.835437
_cell_length_c 16.571810
_cell_angle_alpha 90.000000
_cell_angle_beta 90.000000
_cell_angle_gamma 120.000000
_cell_volume 5091.573043
_symmetry_space_group_name_H-M "P 61 2 2"
_symmetry_group_IT_number 178
_symmetry_cell_setting 'hexagonal'
loop_
_space_group_symop_operation_xyz
x,y,z
x-y,x,1/6+z
-y,x-y,1/3+z
-x,-y,1/2+z
-x+y,-x,2/3+z
y,-x+y,5/6+z
x-y,-y,-z
-x,-x+y,2/3-z
y,x,1/3-z
-y,-x,5/6-z
-x+y,y,1/2-z
x,x-y,1/6-z
loop_
_atom_site_type_symbol
_atom_site_label
_atom_site_fract_x
_atom_site_fract_y
_atom_site_fract_z
Si Si1 0.458657 0.778774 0.012722
Si Si2 0.254251 0.627126 0.583334
Si Si3 0.597586 0.747861 0.281101
Si Si4 0.870466 0.551663 0.020909
Si Si5 0.789295 0.082906 0.968429
Si Si6 0.065219 0.543335 0.762868
Si Si7 0.643318 0.025481 0.845026
O O1 0.501038 0.750519 0.083334
O O2 0.432636 0.843199 0.043222
O O3 0.379996 0.693206 0.983470
O O4 0.514226 0.819610 0.934857
O O5 0.193822 0.540423 0.544414
O O6 0.592220 0.815014 0.338489
O O7 0.664332 0.799614 0.213811
O O8 0.619509 0.688879 0.332760
O O9 0.927556 0.605073 0.094964
O O10 0.927103 0.550202 0.949002
O O11 0.871247 0.128754 0.916667
O O12 0.708398 0.066302 0.918121
O O13 0.783552 0.000000 0.000000
O O14 0.000000 0.521747 0.833334
O O15 0.029418 0.466517 0.702427
#
# Coordination Sequence:
#
# PCOD8325764 Si02
#       7
#    12   6  12  12  12  12  12
#     4  11  18  31  46  65  92 120 166 202 246 297
#     4  10  20  28  48  68  88 126 162 204 240 298
#     4  10  19  29  47  68  96 125 155 202 247 294
#     4  11  20  32  49  70  92 129 172 204 244 300
#     4  10  17  27  46  74 103 128 148 182 239 306
#     4  12  20  33  49  69  91 127 171 212 254 290
#     4  11  18  31  47  74  98 121 160 201 250 298
#
# _framework density 15.319430000000001
#
# number of rings (size 3 to 8) (size 9 to 14) (size 15 to 20)
#    0.000    1.231    7.692    1.846    0.000    0.000 
#    0.000    1.538    3.385    0.000    0.000    0.000 
#    0.000    4.923    0.000    0.000    0.000    0.000 
#
# Total GULP energy -966579.044224 kJ/mol
# GULP energy per Si atom -12392.039029 kJ/mol
# Density = 1.528456 g / cm^3
# Si number density = 15.319430 Si / 1000 Ang^3
#
#
#
# Elastic Constant Matrix: (Units=GPa)
#
#
# Indices 1 2 3 4 5 6 
#
# 1 82.1470 43.8727 30.0069 0.0000 0.0000 0.0000
# 2 43.8727 82.1470 30.0069 0.0000 0.0000 0.0000
# 3 30.0069 30.0069 41.5427 0.0000 0.0000 0.0000
# 4 0.0000 0.0000 0.0000 26.6588 0.0000 0.0000
# 5 0.0000 0.0000 0.0000 0.0000 26.6588 0.0000
# 6 0.0000 0.0000 0.0000 0.0000 0.0000 19.1372
#
#
#
# Elastic Compliance Matrix: (Units=1/GPa)
#
#
# Indices 1 2 3 4 5 6 
#
# 1 0.019112 -0.007016 -0.008737 0.000000 0.000000 0.000000
# 2 -0.007016 0.019112 -0.008737 0.000000 0.000000 0.000000
# 3 -0.008737 -0.008737 0.036694 0.000000 0.000000 0.000000
# 4 0.000000 0.000000 0.000000 0.037511 0.000000 0.000000
# 5 0.000000 0.000000 0.000000 0.000000 0.037511 0.000000
# 6 0.000000 0.000000 0.000000 0.000000 0.000000 0.052254
#
#
# Mechanical properties :
#
#
# Convention : Reuss Voigt Hill
#
# Bulk Modulus (GPa) = 38.55487 45.95664 42.25575
# Shear Modulus (GPa) = 19.24417 21.28764 20.26591
#
# Velocity S-wave (km/s) = 3.54813 3.73176 3.64110
# Velocity P-wave (km/s) = 6.48132 6.97367 6.73200
#
# Compressibility (1/GPa) = 0.02593706
#
# Stress axis : x y z
#
# Youngs Moduli (GPa) = 52.32409 52.32409 27.25268
#
# Poissons Ratio (x) = 0.36708 0.23811
# Poissons Ratio (y) = 0.36708 0.23811
# Poissons Ratio (z) = 0.45717 0.45717
#
# Static dielectric constant tensor:
#      x y z
#    x 3.112010 0.000000 0.000000 
#    y 0.000000 3.112010 0.000000 
#    z 0.000000 0.000000 3.650990 
# 
# 
# High freq. dielectric constant tensor:
#      x y z
#    x 1.572530 0.000000 0.000000 
#    y 0.000000 1.572530 0.000000 
#    z 0.000000 0.000000 1.563040 
# 
# From -- ./inp_files/6950.got.cif
#   From: 2010.03.12/outbox.cif.g09.slc.cpg/sg178_4_cif.got.tgz:6950.got - 2010.04.02 07:02:38.
