data_PCOD8325561
_publ_section_title
;
Structure prediction by ZEFSAII (Michael W. Deem and Ramdas Pophale) SiO2 
 PCOD8325561
Probable space group: P 63/M
;
_chemical_formula_sum "Si O2"
_cell_formula_units_Z 54
_cell_length_a 12.143372
_cell_length_b 12.143372
_cell_length_c 22.480147
_cell_angle_alpha 90.000000
_cell_angle_beta 90.000000
_cell_angle_gamma 120.000000
_cell_volume 2870.835958
_symmetry_space_group_name_H-M "P 63/M"
_symmetry_group_IT_number 176
_symmetry_cell_setting 'hexagonal'
loop_
_space_group_symop_operation_xyz
x,y,z
x-y,x,1/2+z
-y,x-y,z
-x,-y,1/2+z
-x+y,-x,z
y,-x+y,1/2+z
-x,-y,-z
-x+y,-x,1/2-z
y,-x+y,-z
x,y,1/2-z
x-y,x,-z
-y,x-y,1/2-z
loop_
_atom_site_type_symbol
_atom_site_label
_atom_site_fract_x
_atom_site_fract_y
_atom_site_fract_z
Si Si1 0.171804 0.914823 0.123211
Si Si2 0.000000 0.000000 0.929494
Si Si3 0.379011 0.450052 0.580175
Si Si4 0.333334 0.666668 0.051175
Si Si5 0.333334 0.666668 0.590350
Si Si6 0.578942 0.911700 0.444025
Si Si7 0.928568 0.837020 0.750000
O O1 0.084306 0.782850 0.087965
O O2 0.141747 0.888439 0.192790
O O3 0.128797 0.010960 0.096814
O O4 0.324242 0.978585 0.117121
O O5 0.000000 0.000000 0.000000
O O6 0.323381 0.533592 0.610899
O O7 0.320872 0.399951 0.514813
O O8 0.529548 0.550379 0.577297
O O9 0.313585 0.536243 0.076373
O O10 0.333334 0.666667 0.980531
O O11 0.855732 0.918787 0.750000
#
# Coordination Sequence:
#
# PCOD8325561 Si02
#       7
#    12   4  12   4   4  12   6
#     4  12  22  39  63  85 119 159 214 247 299 368
#     4  12  24  34  59  97 123 138 196 272 310 372
#     4  10  22  35  58  91 125 163 192 241 314 372
#     4   9  15  36  51  82 125 163 186 222 307 368
#     4   9  21  33  54  82 131 163 183 225 310 386
#     4  10  20  35  58  89 126 160 192 246 308 363
#     4  10  22  46  58  80 116 174 198 248 320 354
#
# _framework density 18.809851999999999
#
# number of rings (size 3 to 8) (size 9 to 14) (size 15 to 20)
#    0.222    1.333    4.444    1.333    6.222    0.000 
#    0.000    1.111    0.000    1.333    0.000    0.000 
#    0.000    0.000    0.000    0.000    0.000    0.000 
#
# Total GULP energy -669422.164874 kJ/mol
# GULP energy per Si atom -12396.706757 kJ/mol
# Density = 1.876704 g / cm^3
# Si number density = 18.809852 Si / 1000 Ang^3
#
#
#
# Elastic Constant Matrix: (Units=GPa)
#
#
# Indices 1 2 3 4 5 6 
#
# 1 80.2136 24.2608 30.3052 0.0000 0.0000 0.0000
# 2 24.2608 80.2136 30.3055 0.0000 0.0000 0.0007
# 3 30.3052 30.3055 92.9490 0.0000 0.0000 -0.0001
# 4 0.0000 0.0000 0.0000 18.1845 -0.0001 0.0000
# 5 0.0000 0.0000 0.0000 -0.0001 18.1842 0.0000
# 6 0.0000 0.0007 -0.0001 0.0000 0.0000 27.9765
#
#
#
# Elastic Compliance Matrix: (Units=1/GPa)
#
#
# Indices 1 2 3 4 5 6 
#
# 1 0.014838 -0.003034 -0.003849 0.000000 0.000000 0.000000
# 2 -0.003034 0.014838 -0.003849 0.000000 0.000000 0.000000
# 3 -0.003849 -0.003849 0.013268 0.000000 0.000000 0.000000
# 4 0.000000 0.000000 0.000000 0.054992 0.000000 0.000000
# 5 0.000000 0.000000 0.000000 0.000000 0.054993 0.000000
# 6 0.000000 0.000000 0.000000 0.000000 0.000000 0.035744
#
#
# Mechanical properties :
#
#
# Convention : Reuss Voigt Hill
#
# Bulk Modulus (GPa) = 46.54989 47.01323 46.78156
# Shear Modulus (GPa) = 23.00991 24.10269 23.55630
#
# Velocity S-wave (km/s) = 3.50135 3.58353 3.54268
# Velocity P-wave (km/s) = 6.41461 6.49388 6.45437
#
# Compressibility (1/GPa) = 0.02148233
#
# Stress axis : x y z
#
# Youngs Moduli (GPa) = 67.39277 67.39257 75.36739
#
# Poissons Ratio (x) = 0.20446 0.29007
# Poissons Ratio (y) = 0.20446 0.29008
# Poissons Ratio (z) = 0.25938 0.25938
#
# Static dielectric constant tensor:
#      x y z
#    x 3.510190 -0.000010 0.000000 
#    y -0.000010 3.510190 0.000000 
#    z 0.000000 0.000000 3.028080 
# 
# 
# High freq. dielectric constant tensor:
#      x y z
#    x 1.736940 0.000000 0.000000 
#    y 0.000000 1.736940 0.000000 
#    z 0.000000 0.000000 1.679480 
# 
# From -- ./inp_files/4039.got.cif
#   From: 2010.06.25/outbox.cif.g09.slc.cpg/sg176_3_cif.got.tgz:4039.got - 2010.06.28 12:15:01.
