data_PCOD8325541
_publ_section_title
;
Structure prediction by ZEFSAII (Michael W. Deem and Ramdas Pophale) SiO2 
 PCOD8325541
Probable space group: P 63/M
;
_chemical_formula_sum "Si O2"
_cell_formula_units_Z 72
_cell_length_a 23.273932
_cell_length_b 23.273932
_cell_length_c 9.034680
_cell_angle_alpha 90.000000
_cell_angle_beta 90.000000
_cell_angle_gamma 120.000000
_cell_volume 4238.214459
_symmetry_space_group_name_H-M "P 63/M"
_symmetry_group_IT_number 176
_symmetry_cell_setting 'hexagonal'
loop_
_space_group_symop_operation_xyz
x,y,z
x-y,x,1/2+z
-y,x-y,z
-x,-y,1/2+z
-x+y,-x,z
y,-x+y,1/2+z
-x,-y,-z
-x+y,-x,1/2-z
y,-x+y,-z
x,y,1/2-z
x-y,x,-z
-y,x-y,1/2-z
loop_
_atom_site_type_symbol
_atom_site_label
_atom_site_fract_x
_atom_site_fract_y
_atom_site_fract_z
Si Si1 0.335641 0.541025 0.923092
Si Si2 0.466102 0.667344 0.573357
Si Si3 0.069641 0.260281 0.081842
Si Si4 0.266358 0.061607 0.923825
Si Si5 0.396207 0.131628 0.077236
Si Si6 0.849327 0.592639 0.579275
O O1 0.337387 0.553086 0.750000
O O2 0.272721 0.545943 0.982158
O O3 0.404694 0.598982 0.988367
O O4 0.328366 0.468886 0.957937
O O5 0.475796 0.667485 0.750000
O O6 0.532019 0.675815 0.489471
O O7 0.052468 0.235140 0.250000
O O8 0.133050 0.255004 0.027485
O O9 0.083648 0.335963 0.069328
O O10 0.007092 0.212346 0.981085
O O11 0.272317 0.059504 0.750000
O O12 0.335355 0.071319 0.991469
O O13 0.379950 0.120703 0.250000
O O14 0.401841 0.199575 0.026557
O O15 0.824988 0.578519 0.750000
#
# Coordination Sequence:
#
# PCOD8325541 Si02
#       6
#    12  12  12  12  12  12
#     4   8  14  23  39  62  86 117 158 200 240 287
#     4   9  15  25  41  61  87 121 161 202 246 294
#     4   9  19  34  51  73 100 125 149 182 223 265
#     4  10  20  33  52  78 102 123 151 187 223 263
#     4   9  16  28  46  66  90 123 158 193 236 279
#     4   9  17  29  43  64  93 121 155 198 238 276
#
# _framework density 16.988285000000001
#
# number of rings (size 3 to 8) (size 9 to 14) (size 15 to 20)
#    0.000    3.000    0.000    3.833    0.000    5.333 
#    0.000    4.167    0.000    1.333    0.000    0.000 
#    0.000    0.000    0.000    0.000    0.000    0.000 
#
# Total GULP energy -892025.365234 kJ/mol
# GULP energy per Si atom -12389.241184 kJ/mol
# Density = 1.694962 g / cm^3
# Si number density = 16.988285 Si / 1000 Ang^3
#
#
#
# Elastic Constant Matrix: (Units=GPa)
#
#
# Indices 1 2 3 4 5 6 
#
# 1 87.5829 48.3173 41.1974 0.0000 0.0000 0.0000
# 2 48.3173 87.5829 41.1974 0.0000 0.0000 0.0000
# 3 41.1974 41.1974 59.5714 0.0000 0.0000 0.0000
# 4 0.0000 0.0000 0.0000 24.0253 0.0000 0.0000
# 5 0.0000 0.0000 0.0000 0.0000 24.0253 0.0000
# 6 0.0000 0.0000 0.0000 0.0000 0.0000 19.6328
#
#
#
# Elastic Compliance Matrix: (Units=1/GPa)
#
#
# Indices 1 2 3 4 5 6 
#
# 1 0.019069 -0.006398 -0.008763 0.000000 0.000000 0.000000
# 2 -0.006398 0.019069 -0.008763 0.000000 0.000000 0.000000
# 3 -0.008763 -0.008763 0.028907 0.000000 0.000000 0.000000
# 4 0.000000 0.000000 0.000000 0.041623 0.000000 0.000000
# 5 0.000000 0.000000 0.000000 0.000000 0.041623 0.000000
# 6 0.000000 0.000000 0.000000 0.000000 0.000000 0.050935
#
#
# Mechanical properties :
#
#
# Convention : Reuss Voigt Hill
#
# Bulk Modulus (GPa) = 52.09013 55.12903 53.60958
# Shear Modulus (GPa) = 19.57147 20.47167 20.02157
#
# Velocity S-wave (km/s) = 3.39788 3.47514 3.43673
# Velocity P-wave (km/s) = 6.79140 6.97308 6.88284
#
# Compressibility (1/GPa) = 0.01919749
#
# Stress axis : x y z
#
# Youngs Moduli (GPa) = 52.44004 52.44004 34.59382
#
# Poissons Ratio (x) = 0.33552 0.30314
# Poissons Ratio (y) = 0.33552 0.30314
# Poissons Ratio (z) = 0.45953 0.45953
#
# Static dielectric constant tensor:
#      x y z
#    x 3.241520 0.000000 0.000000 
#    y 0.000000 3.241520 0.000000 
#    z 0.000000 0.000000 3.096950 
# 
# 
# High freq. dielectric constant tensor:
#      x y z
#    x 1.633640 0.000000 0.000000 
#    y 0.000000 1.633640 0.000000 
#    z 0.000000 0.000000 1.648340 
# 
# From -- ./inp_files/1172.got.cif
#   From: 2010.06.25/outbox.cif.g09.slc.cpg/sg176_1_cif.got.tgz:1172.got - 2010.06.28 12:15:01.
