data_PCOD8325534
_publ_section_title
;
Structure prediction by ZEFSAII (Michael W. Deem and Ramdas Pophale) SiO2 
 PCOD8325534
Probable space group: P 63/M
;
_chemical_formula_sum "Si O2"
_cell_formula_units_Z 64
_cell_length_a 15.999943
_cell_length_b 15.999943
_cell_length_c 18.048803
_cell_angle_alpha 90.000000
_cell_angle_beta 90.000000
_cell_angle_gamma 120.000000
_cell_volume 4001.436298
_symmetry_space_group_name_H-M "P 63/M"
_symmetry_group_IT_number 176
_symmetry_cell_setting 'hexagonal'
loop_
_space_group_symop_operation_xyz
x,y,z
x-y,x,1/2+z
-y,x-y,z
-x,-y,1/2+z
-x+y,-x,z
y,-x+y,1/2+z
-x,-y,-z
-x+y,-x,1/2-z
y,-x+y,-z
x,y,1/2-z
x-y,x,-z
-y,x-y,1/2-z
loop_
_atom_site_type_symbol
_atom_site_label
_atom_site_fract_x
_atom_site_fract_y
_atom_site_fract_z
Si Si1 0.961244 0.375905 0.560633
Si Si2 0.468821 0.243717 0.918222
Si Si3 0.027437 0.431872 0.099595
Si Si4 0.666667 0.333333 0.661433
Si Si5 0.308418 0.822694 0.585503
Si Si6 0.162795 0.649129 0.833145
O O1 0.872758 0.270629 0.583775
O O2 0.932291 0.454401 0.587100
O O3 0.967033 0.374242 0.472260
O O4 0.065234 0.400813 0.594071
O O5 0.414974 0.297821 0.883594
O O6 0.559508 0.265710 0.868324
O O7 0.499225 0.284242 0.001595
O O8 0.951964 0.389691 0.167060
O O9 0.666667 0.333334 0.750000
O O10 0.398586 0.811234 0.610877
O O11 0.219222 0.759911 0.639733
O O12 0.194098 0.641410 0.750000
#
# Coordination Sequence:
#
# PCOD8325534 Si02
#       6
#    12  12  12   4  12  12
#     4   9  17  31  49  73  88 120 164 204 231 275
#     4  11  18  35  53  63  98 126 166 207 231 282
#     4   9  18  30  47  71  91 123 162 193 240 281
#     4  12  24  30  42  69  91 131 169 192 240 279
#     4  10  20  32  52  72  94 128 171 191 246 285
#     4  11  20  32  47  72 105 130 159 199 243 289
#
# _framework density 15.994256
#
# number of rings (size 3 to 8) (size 9 to 14) (size 15 to 20)
#    0.000    1.875    3.750    3.188    0.000    0.750 
#    0.000    0.938    0.000    0.000    0.000    0.000 
#    1.875    3.375    0.000    0.000    0.000    0.000 
#
# Total GULP energy -793258.909816 kJ/mol
# GULP energy per Si atom -12394.670466 kJ/mol
# Density = 1.595785 g / cm^3
# Si number density = 15.994256 Si / 1000 Ang^3
#
#
#
# Elastic Constant Matrix: (Units=GPa)
#
#
# Indices 1 2 3 4 5 6 
#
# 1 82.4938 40.7841 24.1931 0.0000 0.0000 0.0002
# 2 40.7841 82.4935 24.1928 0.0000 0.0000 0.0000
# 3 24.1931 24.1928 67.2016 0.0000 0.0000 -0.0001
# 4 0.0000 0.0000 0.0000 11.1358 0.0000 0.0000
# 5 0.0000 0.0000 0.0000 0.0000 11.1358 0.0000
# 6 0.0002 0.0000 -0.0001 0.0000 0.0000 20.8549
#
#
#
# Elastic Compliance Matrix: (Units=1/GPa)
#
#
# Indices 1 2 3 4 5 6 
#
# 1 0.016711 -0.007264 -0.003401 0.000000 0.000000 0.000000
# 2 -0.007264 0.016711 -0.003401 0.000000 0.000000 0.000000
# 3 -0.003401 -0.003401 0.017329 0.000000 0.000000 0.000000
# 4 0.000000 0.000000 0.000000 0.089800 0.000000 0.000000
# 5 0.000000 0.000000 0.000000 0.000000 0.089800 0.000000
# 6 0.000000 0.000000 0.000000 0.000000 0.000000 0.047950
#
#
# Mechanical properties :
#
#
# Convention : Reuss Voigt Hill
#
# Bulk Modulus (GPa) = 44.21043 45.61431 44.91237
# Shear Modulus (GPa) = 15.92490 18.15991 17.04241
#
# Velocity S-wave (km/s) = 3.15884 3.37323 3.26779
# Velocity P-wave (km/s) = 6.40358 6.61458 6.50993
#
# Compressibility (1/GPa) = 0.02261910
#
# Stress axis : x y z
#
# Youngs Moduli (GPa) = 59.84102 59.84097 57.70599
#
# Poissons Ratio (x) = 0.43471 0.19625
# Poissons Ratio (y) = 0.43471 0.19624
# Poissons Ratio (z) = 0.20351 0.20350
#
# Static dielectric constant tensor:
#      x y z
#    x 3.016090 0.000000 0.000000 
#    y 0.000000 3.016100 0.000000 
#    z 0.000000 0.000000 2.911970 
# 
# 
# High freq. dielectric constant tensor:
#      x y z
#    x 1.593980 0.000000 0.000000 
#    y 0.000000 1.593980 0.000000 
#    z 0.000000 0.000000 1.605350 
# 
# From -- ./inp_files/3309.got.cif
#   From: 2010.06.25/outbox.cif.g09.slc.cpg/sg176_2_cif.got.tgz:3309.got - 2010.06.28 12:15:01.
