data_PCOD8325602
_publ_section_title
;
Structure prediction by ZEFSAII (Michael W. Deem and Ramdas Pophale) SiO2 
 PCOD8325602
Probable space group: P 63/M
;
_chemical_formula_sum "Si O2"
_cell_formula_units_Z 42
_cell_length_a 16.099759
_cell_length_b 16.099759
_cell_length_c 10.133282
_cell_angle_alpha 90.000000
_cell_angle_beta 90.000000
_cell_angle_gamma 120.000000
_cell_volume 2274.675818
_symmetry_space_group_name_H-M "P 63/M"
_symmetry_group_IT_number 176
_symmetry_cell_setting 'hexagonal'
loop_
_space_group_symop_operation_xyz
x,y,z
x-y,x,1/2+z
-y,x-y,z
-x,-y,1/2+z
-x+y,-x,z
y,-x+y,1/2+z
-x,-y,-z
-x+y,-x,1/2-z
y,-x+y,-z
x,y,1/2-z
x-y,x,-z
-y,x-y,1/2-z
loop_
_atom_site_type_symbol
_atom_site_label
_atom_site_fract_x
_atom_site_fract_y
_atom_site_fract_z
Si Si1 0.110473 0.551060 0.020859
Si Si2 0.636224 0.721924 0.397849
Si Si3 0.405442 0.618683 0.750000
Si Si4 0.720532 0.628673 0.901290
O O1 0.132246 0.479930 0.106791
O O2 0.142484 0.654708 0.084291
O O3 0.150736 0.555483 0.877532
O O4 0.000000 0.500000 0.000000
O O5 0.674717 0.722087 0.250000
O O6 0.658172 0.828446 0.435909
O O7 0.688380 0.686995 0.501609
O O8 0.442699 0.732310 0.750000
O O9 0.712817 0.656025 0.750000
#
# Coordination Sequence:
#
# PCOD8325602 Si02
#       4
#    12  12   6  12
#     4  10  21  34  56  82 114 152 188 244 286 344
#     4  10  22  38  59  85 117 154 193 239 294 349
#     4  10  22  36  54  80 116 152 206 244 288 360
#     4  10  22  38  59  85 117 154 193 239 294 349
#
# _framework density 18.464169999999999
#
# number of rings (size 3 to 8) (size 9 to 14) (size 15 to 20)
#    0.286    1.714    0.000    2.571   16.000    1.143 
#    1.714    0.000    0.000    0.571    0.000    0.000 
#    0.000    0.000    0.000    0.000    0.000    0.000 
#
# Total GULP energy -520333.571748 kJ/mol
# GULP energy per Si atom -12388.894565 kJ/mol
# Density = 1.842215 g / cm^3
# Si number density = 18.464170 Si / 1000 Ang^3
#
#
#
# Elastic Constant Matrix: (Units=GPa)
#
#
# Indices 1 2 3 4 5 6 
#
# 1 82.5926 32.9533 39.6164 0.0000 0.0000 0.0000
# 2 32.9533 82.5926 39.6164 0.0000 0.0000 0.0000
# 3 39.6164 39.6164 108.7378 0.0000 0.0000 0.0000
# 4 0.0000 0.0000 0.0000 40.9068 0.0000 0.0000
# 5 0.0000 0.0000 0.0000 0.0000 40.9068 0.0000
# 6 0.0000 0.0000 0.0000 0.0000 0.0000 24.8197
#
#
#
# Elastic Compliance Matrix: (Units=1/GPa)
#
#
# Indices 1 2 3 4 5 6 
#
# 1 0.015841 -0.004304 -0.004203 0.000000 0.000000 0.000000
# 2 -0.004304 0.015841 -0.004203 0.000000 0.000000 0.000000
# 3 -0.004203 -0.004203 0.012259 0.000000 0.000000 0.000000
# 4 0.000000 0.000000 0.000000 0.024446 0.000000 0.000000
# 5 0.000000 0.000000 0.000000 0.000000 0.024446 0.000000
# 6 0.000000 0.000000 0.000000 0.000000 0.000000 0.040291
#
#
# Mechanical properties :
#
#
# Convention : Reuss Voigt Hill
#
# Bulk Modulus (GPa) = 53.99581 55.36613 54.68097
# Shear Modulus (GPa) = 30.35488 32.10912 31.23200
#
# Velocity S-wave (km/s) = 4.05901 4.17465 4.11724
# Velocity P-wave (km/s) = 7.16062 7.29985 7.23057
#
# Compressibility (1/GPa) = 0.01851996
#
# Stress axis : x y z
#
# Youngs Moduli (GPa) = 63.12707 63.12707 81.57179
#
# Poissons Ratio (x) = 0.27171 0.34286
# Poissons Ratio (y) = 0.27171 0.34286
# Poissons Ratio (z) = 0.26534 0.26534
#
# Static dielectric constant tensor:
#      x y z
#    x 3.902300 0.000000 0.000000 
#    y 0.000000 3.902300 0.000000 
#    z 0.000000 0.000000 3.435010 
# 
# 
# High freq. dielectric constant tensor:
#      x y z
#    x 1.704090 0.000000 0.000000 
#    y 0.000000 1.704090 0.000000 
#    z 0.000000 0.000000 1.730620 
# 
# From -- ./inp_files/502.got.cif
#   From: 2010.06.25/outbox.cif.g09.slc.cpg/sg176_1_cif.got.tgz:502.got - 2010.06.28 12:15:01.
