data_PCOD8325136
_publ_section_title
;
Structure prediction by ZEFSAII (Michael W. Deem and Ramdas Pophale) SiO2 
 PCOD8325136
Probable space group: P 6/M
;
_chemical_formula_sum "Si O2"
_cell_formula_units_Z 72
_cell_length_a 22.812673
_cell_length_b 22.812673
_cell_length_c 8.444058
_cell_angle_alpha 90.000000
_cell_angle_beta 90.000000
_cell_angle_gamma 120.000000
_cell_volume 3805.696843
_symmetry_space_group_name_H-M "P 6/M"
_symmetry_group_IT_number 175
_symmetry_cell_setting 'hexagonal'
loop_
_space_group_symop_operation_xyz
x,y,z
x-y,x,z
-y,x-y,z
-x,-y,z
-x+y,-x,z
y,-x+y,z
-x,-y,-z
-x+y,-x,-z
y,-x+y,-z
x,y,-z
x-y,x,-z
-y,x-y,-z
loop_
_atom_site_type_symbol
_atom_site_label
_atom_site_fract_x
_atom_site_fract_y
_atom_site_fract_z
Si Si1 0.465685 0.799790 0.189316
Si Si2 0.734774 0.800795 0.682774
Si Si3 0.074634 0.675714 0.187217
Si Si4 0.666958 0.201420 0.811711
Si Si5 0.924021 0.604120 0.187925
Si Si6 0.076587 0.809098 0.815720
O O1 0.529375 0.868481 0.258379
O O2 0.397518 0.795589 0.255245
O O3 0.469559 0.735253 0.253510
O O4 0.466234 0.800440 0.000000
O O5 0.745127 0.790784 0.500000
O O6 0.657528 0.750582 0.733204
O O7 0.752525 0.877020 0.714617
O O8 0.786331 0.787671 0.785480
O O9 0.089521 0.749173 0.244154
O O10 0.998755 0.618884 0.240765
O O11 0.078835 0.675500 0.000000
O O12 0.661722 0.131785 0.752544
O O13 0.666915 0.203449 0.000000
O O14 0.920876 0.611567 0.000000
O O15 0.093819 0.824667 0.000000
#
# Coordination Sequence:
#
# PCOD8325136 Si02
#       6
#    12  12  12  12  12  12
#     4   9  15  23  35  58  90 123 156 203 259 310
#     4  11  21  33  51  78 106 133 167 210 251 293
#     4   8  15  26  43  65  91 121 158 201 250 302
#     4   9  16  24  38  60  91 125 161 205 261 317
#     4   9  17  30  46  67  93 127 164 203 254 314
#     4  10  19  34  54  76 103 137 170 204 249 304
#
# _framework density 18.919006
#
# number of rings (size 3 to 8) (size 9 to 14) (size 15 to 20)
#    0.000    2.667    0.000    4.333    0.000    4.667 
#    0.000    3.333    0.000    0.333    0.000   16.333 
#    0.000    0.000    0.000    0.000    0.000    0.000 
#
# Total GULP energy -892694.116026 kJ/mol
# GULP energy per Si atom -12398.529389 kJ/mol
# Density = 1.887595 g / cm^3
# Si number density = 18.919006 Si / 1000 Ang^3
#
#
#
# Elastic Constant Matrix: (Units=GPa)
#
#
# Indices 1 2 3 4 5 6 
#
# 1 142.8086 84.9631 6.3370 0.0000 0.0000 0.0000
# 2 84.9631 142.8086 6.3370 0.0000 0.0000 0.0000
# 3 6.3370 6.3370 28.4615 0.0000 0.0000 0.0000
# 4 0.0000 0.0000 0.0000 8.1898 0.0000 0.0000
# 5 0.0000 0.0000 0.0000 0.0000 8.1898 0.0000
# 6 0.0000 0.0000 0.0000 0.0000 0.0000 28.9227
#
#
#
# Elastic Compliance Matrix: (Units=1/GPa)
#
#
# Indices 1 2 3 4 5 6 
#
# 1 0.010866 -0.006421 -0.000990 0.000000 0.000000 0.000000
# 2 -0.006421 0.010866 -0.000990 0.000000 0.000000 0.000000
# 3 -0.000990 -0.000990 0.035576 0.000000 0.000000 0.000000
# 4 0.000000 0.000000 0.000000 0.122102 0.000000 0.000000
# 5 0.000000 0.000000 0.000000 0.000000 0.122102 0.000000
# 6 0.000000 0.000000 0.000000 0.000000 0.000000 0.034575
#
#
# Mechanical properties :
#
#
# Convention : Reuss Voigt Hill
#
# Bulk Modulus (GPa) = 24.68670 56.59479 40.64075
# Shear Modulus (GPa) = 13.64658 23.48992 18.56825
#
# Velocity S-wave (km/s) = 2.68865 3.52746 3.13622
# Velocity P-wave (km/s) = 4.76606 6.82421 5.88580
#
# Compressibility (1/GPa) = 0.04050765
#
# Stress axis : x y z
#
# Youngs Moduli (GPa) = 92.02649 92.02649 28.10888
#
# Poissons Ratio (x) = 0.59090 0.02782
# Poissons Ratio (y) = 0.59090 0.02782
# Poissons Ratio (z) = 0.09109 0.09109
#
# Static dielectric constant tensor:
#      x y z
#    x 3.619640 0.000000 0.000000 
#    y 0.000000 3.619640 0.000000 
#    z 0.000000 0.000000 2.947330 
# 
# 
# High freq. dielectric constant tensor:
#      x y z
#    x 1.736950 0.000000 0.000000 
#    y 0.000000 1.736950 0.000000 
#    z 0.000000 0.000000 1.683800 
# 
# From -- ./inp_files/1213.got.cif
#   From: 2010.03.12/outbox.cif.g09.slc.cpg/sg175_1_cif.got.tgz:1213.got - 2010.04.02 06:55:29.
