data_PCOD8325073
_publ_section_title
;
Structure prediction by ZEFSAII (Michael W. Deem and Ramdas Pophale) SiO2 
 PCOD8325073
Probable space group: P 6/M
;
_chemical_formula_sum "Si O2"
_cell_formula_units_Z 60
_cell_length_a 22.048075
_cell_length_b 22.048075
_cell_length_c 7.932235
_cell_angle_alpha 90.000000
_cell_angle_beta 90.000000
_cell_angle_gamma 120.000000
_cell_volume 3339.393203
_symmetry_space_group_name_H-M "P 6/M"
_symmetry_group_IT_number 175
_symmetry_cell_setting 'hexagonal'
loop_
_space_group_symop_operation_xyz
x,y,z
x-y,x,z
-y,x-y,z
-x,-y,z
-x+y,-x,z
y,-x+y,z
-x,-y,-z
-x+y,-x,-z
y,-x+y,-z
x,y,-z
x-y,x,-z
-y,x-y,-z
loop_
_atom_site_type_symbol
_atom_site_label
_atom_site_fract_x
_atom_site_fract_y
_atom_site_fract_z
Si Si1 0.204836 0.917746 0.309135
Si Si2 0.809790 0.476056 0.500000
Si Si3 0.664478 0.475026 0.500000
Si Si4 0.852316 0.563028 0.815895
Si Si5 0.067511 0.791278 0.806191
Si Si6 0.290228 0.436294 0.187300
O O1 0.203024 0.893515 0.500000
O O2 0.263500 0.908168 0.211729
O O3 0.127865 0.870214 0.232007
O O4 0.225468 0.998640 0.300482
O O5 0.737524 0.476307 0.500000
O O6 0.792548 0.396894 0.500000
O O7 0.855537 0.515069 0.666520
O O8 0.657405 0.513341 0.332201
O O9 0.775583 0.552571 0.819574
O O10 0.868287 0.541201 0.000000
O O11 0.092635 0.736069 0.759803
O O12 0.046913 0.785484 0.000000
O O13 0.325846 0.453444 0.000000
#
# Coordination Sequence:
#
# PCOD8325073 Si02
#       6
#    12   6   6  12  12  12
#     4  11  20  32  54  83 108 134 173 215 256 299
#     4  10  19  32  47  77  98 137 168 212 263 323
#     4  10  19  30  51  69 106 129 168 212 263 311
#     4   9  17  32  50  70 100 135 174 216 258 303
#     4  10  20  34  53  79 109 139 171 210 259 303
#     4   8  17  31  49  71  96 133 174 212 254 300
#
# _framework density 17.967337000000001
#
# number of rings (size 3 to 8) (size 9 to 14) (size 15 to 20)
#    0.000    2.400    1.000    3.800    5.600    0.800 
#    0.000    0.000    0.000    5.200    0.000    7.000 
#    0.000    0.000    0.000    0.000    0.000    0.000 
#
# Total GULP energy -743789.938542 kJ/mol
# GULP energy per Si atom -12396.498976 kJ/mol
# Density = 1.792644 g / cm^3
# Si number density = 17.967337 Si / 1000 Ang^3
#
#
#
# Elastic Constant Matrix: (Units=GPa)
#
#
# Indices 1 2 3 4 5 6 
#
# 1 63.7804 26.4793 32.7915 0.0000 0.0000 0.0000
# 2 26.4793 63.7804 32.7915 0.0000 0.0000 0.0000
# 3 32.7915 32.7915 121.8590 0.0000 0.0000 0.0000
# 4 0.0000 0.0000 0.0000 20.5684 0.0000 0.0000
# 5 0.0000 0.0000 0.0000 0.0000 20.5684 0.0000
# 6 0.0000 0.0000 0.0000 0.0000 0.0000 18.6506
#
#
#
# Elastic Compliance Matrix: (Units=1/GPa)
#
#
# Indices 1 2 3 4 5 6 
#
# 1 0.020290 -0.006518 -0.003706 0.000000 0.000000 0.000000
# 2 -0.006518 0.020290 -0.003706 0.000000 0.000000 0.000000
# 3 -0.003706 -0.003706 0.010201 0.000000 0.000000 0.000000
# 4 0.000000 0.000000 0.000000 0.048618 0.000000 0.000000
# 5 0.000000 0.000000 0.000000 0.000000 0.048618 0.000000
# 6 0.000000 0.000000 0.000000 0.000000 0.000000 0.053618
#
#
# Mechanical properties :
#
#
# Convention : Reuss Voigt Hill
#
# Bulk Modulus (GPa) = 43.62860 48.17161 45.90011
# Shear Modulus (GPa) = 21.08489 22.44796 21.76642
#
# Velocity S-wave (km/s) = 3.42937 3.53849 3.48436
# Velocity P-wave (km/s) = 6.32580 6.60026 6.46448
#
# Compressibility (1/GPa) = 0.02292074
#
# Stress axis : x y z
#
# Youngs Moduli (GPa) = 49.28446 49.28446 98.03250
#
# Poissons Ratio (x) = 0.32126 0.36330
# Poissons Ratio (y) = 0.32126 0.36330
# Poissons Ratio (z) = 0.18265 0.18265
#
# Static dielectric constant tensor:
#      x y z
#    x 2.992290 0.000000 0.000000 
#    y 0.000000 2.992290 0.000000 
#    z 0.000000 0.000000 3.921310 
# 
# 
# High freq. dielectric constant tensor:
#      x y z
#    x 1.660930 0.000000 0.000000 
#    y 0.000000 1.660930 0.000000 
#    z 0.000000 0.000000 1.722630 
# 
# From -- ./inp_files/923.got.cif
#   From: 2010.03.12/outbox.cif.g09.slc.cpg/sg175_1_cif.got.tgz:923.got - 2010.04.02 06:55:29.
