data_PCOD8325734
_publ_section_title
;
Structure prediction by ZEFSAII (Michael W. Deem and Ramdas Pophale) SiO2 
 PCOD8325734
Probable space group: P 6 2 2
;
_chemical_formula_sum "Si O2"
_cell_formula_units_Z 72
_cell_length_a 26.144596
_cell_length_b 26.144596
_cell_length_c 7.529634
_cell_angle_alpha 90.000000
_cell_angle_beta 90.000000
_cell_angle_gamma 120.000000
_cell_volume 4457.264113
_symmetry_space_group_name_H-M "P 6 2 2"
_symmetry_group_IT_number 177
_symmetry_cell_setting 'hexagonal'
loop_
_space_group_symop_operation_xyz
x,y,z
x-y,x,z
-y,x-y,z
-x,-y,z
-x+y,-x,z
y,-x+y,z
x-y,-y,-z
-x,-x+y,-z
y,x,-z
-y,-x,-z
-x+y,y,-z
x,x-y,-z
loop_
_atom_site_type_symbol
_atom_site_label
_atom_site_fract_x
_atom_site_fract_y
_atom_site_fract_z
Si Si1 0.333290 0.784380 0.296851
Si Si2 0.180763 0.247029 0.297050
Si Si3 0.288143 0.457186 0.000001
Si Si4 0.819236 0.752970 0.702949
Si Si5 0.739466 0.671620 1.000000
Si Si6 0.784380 0.451090 0.703148
O O1 0.321503 0.827494 0.174796
O O2 0.333493 0.803304 0.500000
O O3 0.283283 0.716717 0.264373
O O4 0.395164 0.790328 0.242615
O O5 0.197303 0.268316 0.500000
O O6 0.111511 0.223023 0.260365
O O7 0.194133 0.194133 0.252931
O O8 0.220169 0.303318 0.174875
O O9 0.292569 0.398577 0.000001
O O10 0.219953 0.439905 0.000000
O O11 0.321503 0.494009 0.174798
O O12 0.779831 0.696681 0.825123
O O13 0.688294 0.688294 0.000000
#
# Coordination Sequence:
#
# PCOD8325734 Si02
#       6
#    12  12  12  12  12  12
#     4   9  17  29  46  68  93 119 144 172 212 265
#     4   9  17  29  46  67  90 117 148 182 221 266
#     4  10  19  29  44  68  92 113 143 184 225 261
#     4   9  17  29  46  67  90 117 148 182 221 266
#     4  10  20  33  47  64  88 119 154 190 227 263
#     4   9  17  29  46  68  93 119 144 172 212 265
#
# _framework density 16.153407000000001
#
# number of rings (size 3 to 8) (size 9 to 14) (size 15 to 20)
#    0.000    2.667    0.000    2.333    0.000    2.667 
#    0.000    5.000    0.000    2.333    0.000    4.667 
#    0.000    4.000    0.000    0.333    0.000    0.000 
#
# Total GULP energy -892798.052424 kJ/mol
# GULP energy per Si atom -12399.972950 kJ/mol
# Density = 1.611664 g / cm^3
# Si number density = 16.153407 Si / 1000 Ang^3
#
#
#
# Elastic Constant Matrix: (Units=GPa)
#
#
# Indices 1 2 3 4 5 6 
#
# 1 112.2686 64.9748 56.4328 0.0000 0.0000 0.0000
# 2 64.9748 112.2686 56.4328 0.0000 0.0000 0.0000
# 3 56.4328 56.4328 98.3033 0.0000 0.0000 0.0000
# 4 0.0000 0.0000 0.0000 21.3200 0.0000 0.0000
# 5 0.0000 0.0000 0.0000 0.0000 21.3200 0.0000
# 6 0.0000 0.0000 0.0000 0.0000 0.0000 23.6469
#
#
#
# Elastic Compliance Matrix: (Units=1/GPa)
#
#
# Indices 1 2 3 4 5 6 
#
# 1 0.015019 -0.006126 -0.005105 0.000000 0.000000 0.000000
# 2 -0.006126 0.015019 -0.005105 0.000000 0.000000 0.000000
# 3 -0.005105 -0.005105 0.016034 0.000000 0.000000 0.000000
# 4 0.000000 0.000000 0.000000 0.046904 0.000000 0.000000
# 5 0.000000 0.000000 0.000000 0.000000 0.046904 0.000000
# 6 0.000000 0.000000 0.000000 0.000000 0.000000 0.042289
#
#
# Mechanical properties :
#
#
# Convention : Reuss Voigt Hill
#
# Bulk Modulus (GPa) = 74.63123 75.39126 75.01125
# Shear Modulus (GPa) = 22.79911 22.92406 22.86159
#
# Velocity S-wave (km/s) = 3.76095 3.77124 3.76610
# Velocity P-wave (km/s) = 8.07227 8.10780 8.09005
#
# Compressibility (1/GPa) = 0.01339922
#
# Stress axis : x y z
#
# Youngs Moduli (GPa) = 66.58415 66.58415 62.36782
#
# Poissons Ratio (x) = 0.40788 0.31839
# Poissons Ratio (y) = 0.40788 0.31839
# Poissons Ratio (z) = 0.33992 0.33992
#
# Static dielectric constant tensor:
#      x y z
#    x 2.896510 0.000000 0.000000 
#    y 0.000000 2.896510 0.000000 
#    z 0.000000 0.000000 3.366190 
# 
# 
# High freq. dielectric constant tensor:
#      x y z
#    x 1.600970 0.000000 0.000000 
#    y 0.000000 1.600970 0.000000 
#    z 0.000000 0.000000 1.642560 
# 
# From -- ./inp_files/1514.got.cif
#   From: 2010.03.12/outbox.cif.g09.slc.cpg/sg177_1_cif.got.tgz:1514.got - 2010.04.02 07:00:27.
