data_PCOD8325551
_publ_section_title
;
Structure prediction by ZEFSAII (Michael W. Deem and Ramdas Pophale) SiO2 
 PCOD8325551
Probable space group: P 63/M
;
_chemical_formula_sum "Si O2"
_cell_formula_units_Z 72
_cell_length_a 22.840713
_cell_length_b 22.840713
_cell_length_c 8.923965
_cell_angle_alpha 90.000000
_cell_angle_beta 90.000000
_cell_angle_gamma 120.000000
_cell_volume 4031.881911
_symmetry_space_group_name_H-M "P 63/M"
_symmetry_group_IT_number 176
_symmetry_cell_setting 'hexagonal'
loop_
_space_group_symop_operation_xyz
x,y,z
x-y,x,1/2+z
-y,x-y,z
-x,-y,1/2+z
-x+y,-x,z
y,-x+y,1/2+z
-x,-y,-z
-x+y,-x,1/2-z
y,-x+y,-z
x,y,1/2-z
x-y,x,-z
-y,x-y,1/2-z
loop_
_atom_site_type_symbol
_atom_site_label
_atom_site_fract_x
_atom_site_fract_y
_atom_site_fract_z
Si Si1 0.126970 0.003676 0.925150
Si Si2 0.926712 0.397742 0.574982
Si Si3 0.069042 0.467267 0.425203
Si Si4 0.258492 0.265374 0.422616
Si Si5 0.391696 0.128581 0.073348
Si Si6 0.870201 0.607571 0.074591
O O1 0.111849 0.003218 0.750000
O O2 0.196310 0.005278 0.956796
O O3 0.068364 0.937066 0.999206
O O4 0.929444 0.386442 0.750000
O O5 0.906798 0.454653 0.538999
O O6 0.871556 0.327811 0.499747
O O7 0.999893 0.418169 0.510197
O O8 0.056355 0.452010 0.250000
O O9 0.126186 0.451924 0.485404
O O10 0.263138 0.287270 0.250000
O O11 0.259093 0.322590 0.524812
O O12 0.320385 0.254406 0.466889
O O13 0.398069 0.127546 0.250000
O O14 0.392247 0.195795 0.018633
O O15 0.866795 0.592076 0.250000
#
# Coordination Sequence:
#
# PCOD8325551 Si02
#       6
#    12  12  12  12  12  12
#     4  11  23  39  57  76 100 135 181 231 283 337
#     4  10  20  35  55  81 114 144 178 226 274 320
#     4  10  20  34  56  84 109 142 184 224 270 326
#     4  10  21  37  55  77 108 145 180 225 282 327
#     4  11  22  35  55  84 115 149 188 225 270 329
#     4  10  21  36  54  80 116 149 180 228 277 322
#
# _framework density 17.857665999999998
#
# number of rings (size 3 to 8) (size 9 to 14) (size 15 to 20)
#    0.000    1.667    1.667    3.167    0.000    6.000 
#    0.000    0.000    0.000    0.667    0.000    0.000 
#    0.000    0.000    0.000    0.000    0.000    0.000 
#
# Total GULP energy -893115.855403 kJ/mol
# GULP energy per Si atom -12404.386881 kJ/mol
# Density = 1.781702 g / cm^3
# Si number density = 17.857666 Si / 1000 Ang^3
#
#
#
# Elastic Constant Matrix: (Units=GPa)
#
#
# Indices 1 2 3 4 5 6 
#
# 1 124.6819 61.9117 55.2458 0.0000 0.0000 0.0000
# 2 61.9117 124.6819 55.2458 0.0000 0.0000 0.0000
# 3 55.2458 55.2458 85.8615 0.0000 0.0000 0.0000
# 4 0.0000 0.0000 0.0000 -46.7061 0.0000 0.0000
# 5 0.0000 0.0000 0.0000 0.0000 -46.7061 0.0000
# 6 0.0000 0.0000 0.0000 0.0000 0.0000 31.3851
#
#
#
# Elastic Compliance Matrix: (Units=1/GPa)
#
#
# Indices 1 2 3 4 5 6 
#
# 1 0.012295 -0.003637 -0.005571 0.000000 0.000000 0.000000
# 2 -0.003637 0.012295 -0.005571 0.000000 0.000000 0.000000
# 3 -0.005571 -0.005571 0.018815 0.000000 0.000000 0.000000
# 4 0.000000 0.000000 0.000000 -0.021410 0.000000 0.000000
# 5 0.000000 0.000000 0.000000 0.000000 -0.021410 0.000000
# 6 0.000000 0.000000 0.000000 0.000000 0.000000 0.031862
#
#
# Mechanical properties :
#
#
# Convention : Reuss Voigt Hill
#
# Bulk Modulus (GPa) = 72.21119 75.55909 73.88514
# Shear Modulus (GPa) = 75.05435 -1.55063 36.75186
#
# Velocity S-wave (km/s) = 6.49003 -0.93285 4.54149
# Velocity P-wave (km/s) = 9.83288 6.42210 8.30448
#
# Compressibility (1/GPa) = 0.01384827
#
# Stress axis : x y z
#
# Youngs Moduli (GPa) = 81.33675 81.33675 53.14770
#
# Poissons Ratio (x) = 0.29579 0.29608
# Poissons Ratio (y) = 0.29579 0.29608
# Poissons Ratio (z) = 0.45311 0.45311
#
# Static dielectric constant tensor:
#      x y z
#    x 3.407650 0.000000 0.000000 
#    y 0.000000 3.407650 0.000000 
#    z 0.000000 0.000000 3.357750 
# 
# 
# High freq. dielectric constant tensor:
#      x y z
#    x 1.689080 0.000000 0.000000 
#    y 0.000000 1.689080 0.000000 
#    z 0.000000 0.000000 1.701720 
# 
# From -- ./inp_files/1195.got.cif
#   From: 2010.06.25/outbox.cif.g09.slc.cpg/sg176_1_cif.got.tgz:1195.got - 2010.06.28 12:15:01.
