data_PCOD8325080
_publ_section_title
;
Structure prediction by ZEFSAII (Michael W. Deem and Ramdas Pophale) SiO2 
 PCOD8325080
Probable space group: P 6/M
;
_chemical_formula_sum "Si O2"
_cell_formula_units_Z 84
_cell_length_a 22.517244
_cell_length_b 22.517244
_cell_length_c 10.586045
_cell_angle_alpha 90.000000
_cell_angle_beta 90.000000
_cell_angle_gamma 120.000000
_cell_volume 4648.307340
_symmetry_space_group_name_H-M "P 6/M"
_symmetry_group_IT_number 175
_symmetry_cell_setting 'hexagonal'
loop_
_space_group_symop_operation_xyz
x,y,z
x-y,x,z
-y,x-y,z
-x,-y,z
-x+y,-x,z
y,-x+y,z
-x,-y,-z
-x+y,-x,-z
y,-x+y,-z
x,y,-z
x-y,x,-z
-y,x-y,-z
loop_
_atom_site_type_symbol
_atom_site_label
_atom_site_fract_x
_atom_site_fract_y
_atom_site_fract_z
Si Si1 0.214726 0.291972 0.362670
Si Si2 0.466968 0.798704 0.149083
Si Si3 0.664362 0.198823 0.149774
Si Si4 0.893880 0.037555 0.145338
Si Si5 0.921435 0.309094 0.145464
Si Si6 0.927252 0.731555 0.715715
Si Si7 0.609527 0.687268 0.854975
O O1 0.241696 0.328803 0.500000
O O2 0.248712 0.340286 0.241353
O O3 0.133869 0.267484 0.361203
O O4 0.232387 0.230591 0.362924
O O5 0.471553 0.734241 0.204695
O O6 0.400954 0.799130 0.207683
O O7 0.534257 0.869985 0.184746
O O8 0.458774 0.790888 0.000000
O O9 0.658804 0.127147 0.189754
O O10 0.663675 0.204171 0.000000
O O11 0.835890 0.058286 0.159697
O O12 0.964342 0.094247 0.210755
O O13 0.906221 0.032249 0.000000
O O14 0.998935 0.372061 0.159194
O O15 0.907996 0.281162 0.000000
O O16 0.906022 0.655796 0.762189
O O17 0.619411 0.713203 0.000000
#
# Coordination Sequence:
#
# PCOD8325080 Si02
#       7
#    12  12  12  12  12  12  12
#     4  11  23  37  53  73  98 131 168 210 257 308
#     4   9  16  27  45  72 104 139 170 203 249 304
#     4   9  16  26  42  68 105 138 167 203 251 300
#     4  10  19  31  48  72 100 132 170 215 265 314
#     4   9  19  34  53  76 102 132 168 206 251 300
#     4  11  20  34  51  68  95 129 171 210 255 305
#     4   9  18  30  46  73 104 134 165 207 252 298
#
# _framework density 18.071095
#
# number of rings (size 3 to 8) (size 9 to 14) (size 15 to 20)
#    0.000    2.286    1.429    2.143    0.000    5.143 
#    0.000    2.857    0.000    0.000    0.000   14.000 
#    0.000    0.000    0.000    0.000    0.000    0.000 
#
# Total GULP energy -1040906.326552 kJ/mol
# GULP energy per Si atom -12391.741983 kJ/mol
# Density = 1.802996 g / cm^3
# Si number density = 18.071095 Si / 1000 Ang^3
#
#
#
# Elastic Constant Matrix: (Units=GPa)
#
#
# Indices 1 2 3 4 5 6 
#
# 1 131.2145 68.0505 31.4880 0.0000 0.0000 0.0000
# 2 68.0505 131.2145 31.4880 0.0000 0.0000 0.0000
# 3 31.4880 31.4880 57.5653 0.0000 0.0000 0.0000
# 4 0.0000 0.0000 0.0000 4.8212 0.0000 0.0000
# 5 0.0000 0.0000 0.0000 0.0000 4.8212 0.0000
# 6 0.0000 0.0000 0.0000 0.0000 0.0000 31.5820
#
#
#
# Elastic Compliance Matrix: (Units=1/GPa)
#
#
# Indices 1 2 3 4 5 6 
#
# 1 0.010950 -0.004882 -0.003319 0.000000 0.000000 0.000000
# 2 -0.004882 0.010950 -0.003319 0.000000 0.000000 0.000000
# 3 -0.003319 -0.003319 0.021002 0.000000 0.000000 0.000000
# 4 0.000000 0.000000 0.000000 0.207419 0.000000 0.000000
# 5 0.000000 0.000000 0.000000 0.000000 0.207419 0.000000
# 6 0.000000 0.000000 0.000000 0.000000 0.000000 0.031664
#
#
# Mechanical properties :
#
#
# Convention : Reuss Voigt Hill
#
# Bulk Modulus (GPa) = 50.34799 64.67191 57.50995
# Shear Modulus (GPa) = 9.63275 20.84271 15.23773
#
# Velocity S-wave (km/s) = 2.31129 3.39982 2.90696
# Velocity P-wave (km/s) = 5.91982 7.16079 6.56967
#
# Compressibility (1/GPa) = 0.01986177
#
# Stress axis : x y z
#
# Youngs Moduli (GPa) = 91.32781 91.32781 47.61377
#
# Poissons Ratio (x) = 0.44588 0.15802
# Poissons Ratio (y) = 0.44588 0.15802
# Poissons Ratio (z) = 0.30310 0.30310
#
# Static dielectric constant tensor:
#      x y z
#    x 3.477830 0.000000 0.000000 
#    y 0.000000 3.477830 0.000000 
#    z 0.000000 0.000000 2.842720 
# 
# 
# High freq. dielectric constant tensor:
#      x y z
#    x 1.705740 0.000000 0.000000 
#    y 0.000000 1.705740 0.000000 
#    z 0.000000 0.000000 1.641420 
# 
# From -- ./inp_files/2006.got.cif
#   From: 2010.03.12/outbox.cif.g09.slc.cpg/sg175_2_cif.got.tgz:2006.got - 2010.04.02 06:55:29.
