data_PCOD8325493
_publ_section_title
;
Structure prediction by ZEFSAII (Michael W. Deem and Ramdas Pophale) SiO2 
 PCOD8325493
Probable space group: P 63/M
;
_chemical_formula_sum "Si O2"
_cell_formula_units_Z 28
_cell_length_a 8.359435
_cell_length_b 8.359435
_cell_length_c 24.085411
_cell_angle_alpha 90.000000
_cell_angle_beta 90.000000
_cell_angle_gamma 120.000000
_cell_volume 1457.600618
_symmetry_space_group_name_H-M "P 63/M"
_symmetry_group_IT_number 176
_symmetry_cell_setting 'hexagonal'
loop_
_space_group_symop_operation_xyz
x,y,z
x-y,x,1/2+z
-y,x-y,z
-x,-y,1/2+z
-x+y,-x,z
y,-x+y,1/2+z
-x,-y,-z
-x+y,-x,1/2-z
y,-x+y,-z
x,y,1/2-z
x-y,x,-z
-y,x-y,1/2-z
loop_
_atom_site_type_symbol
_atom_site_label
_atom_site_fract_x
_atom_site_fract_y
_atom_site_fract_z
Si Si1 0.000000 0.000000 0.933520
Si Si2 0.666668 0.333335 0.467202
Si Si3 0.333335 0.666668 0.098263
Si Si4 0.326439 0.948994 0.892640
Si Si5 0.666666 0.333333 0.184499
O O1 0.065225 0.201504 0.910207
O O2 0.000000 0.000000 0.000000
O O3 0.666668 0.333334 0.532268
O O4 0.523642 0.394112 0.443583
O O5 0.325111 0.482547 0.120816
O O6 0.292302 0.825121 0.837782
O O7 0.666667 0.333334 0.250000
#
# Coordination Sequence:
#
# PCOD8325493 Si02
#       5
#     4   4   4  12   4
#     4  12  21  36  58  92 130 159 183 231 292 362
#     4  10  19  33  52  83 121 159 184 223 277 338
#     4  12  19  34  55  86 121 148 181 228 280 350
#     4  10  21  35  57  85 115 152 196 230 281 348
#     4  10  23  46  63  78 108 148 200 262 298 326
#
# _framework density 19.209651999999998
#
# number of rings (size 3 to 8) (size 9 to 14) (size 15 to 20)
#    0.000    1.714    0.000    9.000    0.000    0.000 
#    0.000    8.571    0.000    0.000    0.000    0.000 
#    0.000    0.000    0.000    0.000    0.000    0.000 
#
# Total GULP energy -347252.030163 kJ/mol
# GULP energy per Si atom -12401.858220 kJ/mol
# Density = 1.916593 g / cm^3
# Si number density = 19.209652 Si / 1000 Ang^3
#
#
#
# Elastic Constant Matrix: (Units=GPa)
#
#
# Indices 1 2 3 4 5 6 
#
# 1 105.5871 28.5674 51.2634 0.0000 0.0000 0.0006
# 2 28.5674 105.5825 51.2639 0.0000 0.0000 0.0017
# 3 51.2634 51.2639 147.4014 0.0000 0.0000 -0.0005
# 4 0.0000 0.0000 0.0000 17.2749 0.0003 0.0000
# 5 0.0000 0.0000 0.0000 0.0003 17.2755 0.0000
# 6 0.0006 0.0017 -0.0005 0.0000 0.0000 38.5095
#
#
#
# Elastic Compliance Matrix: (Units=1/GPa)
#
#
# Indices 1 2 3 4 5 6 
#
# 1 0.011568 -0.001416 -0.003531 0.000000 0.000000 0.000000
# 2 -0.001416 0.011569 -0.003531 0.000000 0.000000 -0.000001
# 3 -0.003531 -0.003531 0.009240 0.000000 0.000000 0.000000
# 4 0.000000 0.000000 0.000000 0.057887 -0.000001 0.000000
# 5 0.000000 0.000000 0.000000 -0.000001 0.057885 0.000000
# 6 0.000000 -0.000001 0.000000 0.000000 0.000000 0.025968
#
#
# Mechanical properties :
#
#
# Convention : Reuss Voigt Hill
#
# Bulk Modulus (GPa) = 64.84266 68.97338 66.90802
# Shear Modulus (GPa) = 25.48249 29.77709 27.62979
#
# Velocity S-wave (km/s) = 3.64613 3.94142 3.79664
# Velocity P-wave (km/s) = 7.18013 7.52971 7.35699
#
# Compressibility (1/GPa) = 0.01542195
#
# Stress axis : x y z
#
# Youngs Moduli (GPa) = 86.44450 86.43969 108.22259
#
# Poissons Ratio (x) = 0.12237 0.38212
# Poissons Ratio (y) = 0.12237 0.38214
# Poissons Ratio (z) = 0.30522 0.30523
#
# Static dielectric constant tensor:
#      x y z
#    x 3.690080 -0.000020 0.000000 
#    y -0.000020 3.690080 0.000000 
#    z 0.000000 0.000000 3.088550 
# 
# 
# High freq. dielectric constant tensor:
#      x y z
#    x 1.763150 0.000000 0.000000 
#    y 0.000000 1.763150 0.000000 
#    z 0.000000 0.000000 1.703170 
# 
# From -- ./inp_files/3915.got.cif
#   From: 2010.06.25/outbox.cif.g09.slc.cpg/sg176_2_cif.got.tgz:3915.got - 2010.06.28 12:15:01.
