data_PCOD8325691
_publ_section_title
;
Structure prediction by ZEFSAII (Michael W. Deem and Ramdas Pophale) SiO2 
 PCOD8325691
Probable space group: P 63/M
;
_chemical_formula_sum "Si O2"
_cell_formula_units_Z 56
_cell_length_a 14.011105
_cell_length_b 14.011105
_cell_length_c 17.712797
_cell_angle_alpha 90.000000
_cell_angle_beta 90.000000
_cell_angle_gamma 120.000000
_cell_volume 3011.359134
_symmetry_space_group_name_H-M "P 63/M"
_symmetry_group_IT_number 176
_symmetry_cell_setting 'hexagonal'
loop_
_space_group_symop_operation_xyz
x,y,z
x-y,x,1/2+z
-y,x-y,z
-x,-y,1/2+z
-x+y,-x,z
y,-x+y,1/2+z
-x,-y,-z
-x+y,-x,1/2-z
y,-x+y,-z
x,y,1/2-z
x-y,x,-z
-y,x-y,1/2-z
loop_
_atom_site_type_symbol
_atom_site_label
_atom_site_fract_x
_atom_site_fract_y
_atom_site_fract_z
Si Si1 0.927858 0.451968 0.250000
Si Si2 0.450340 0.536166 0.113313
Si Si3 0.666668 0.333335 0.061578
Si Si4 0.020486 0.372102 0.994554
Si Si5 0.666668 0.333334 0.883010
Si Si6 0.403683 0.184410 0.086911
Si Si7 0.203762 0.423334 0.750000
O O1 0.818967 0.333292 0.250000
O O2 0.882915 0.535146 0.250000
O O3 0.002380 0.468678 0.176404
O O4 0.510679 0.599409 0.036578
O O5 0.381825 0.590673 0.147704
O O6 0.369921 0.413524 0.082104
O O7 0.538958 0.258830 0.089723
O O8 0.666668 0.333334 0.972434
O O9 0.938251 0.291862 0.057006
O O10 0.113294 0.345542 0.967275
O O11 0.356123 0.172801 0.172010
#
# Coordination Sequence:
#
# PCOD8325691 Si02
#       7
#     6  12   4  12   4  12   6
#     4  12  23  38  56  82 124 160 200 255 304 338
#     4  11  21  35  55  81 123 164 197 239 286 362
#     4  12  18  31  53  85 117 154 191 232 285 343
#     4  11  20  36  56  83 114 154 206 243 296 357
#     4  12  21  37  56  85 123 172 203 223 279 370
#     4  12  22  36  60  84 116 155 199 251 293 354
#     4  12  23  36  52  86 118 150 200 253 302 330
#
# _framework density 18.596253000000001
#
# number of rings (size 3 to 8) (size 9 to 14) (size 15 to 20)
#    0.000    0.429    8.571    2.786    0.000    0.857 
#    0.000    0.000    0.000    1.714    0.000    0.000 
#    0.000    0.000    0.000    0.000    0.000    0.000 
#
# Total GULP energy -693907.132067 kJ/mol
# GULP energy per Si atom -12391.198787 kJ/mol
# Density = 1.855393 g / cm^3
# Si number density = 18.596253 Si / 1000 Ang^3
#
#
#
# Elastic Constant Matrix: (Units=GPa)
#
#
# Indices 1 2 3 4 5 6 
#
# 1 68.7992 24.0737 17.4643 0.0000 0.0000 -0.0002
# 2 24.0737 68.7985 17.4642 0.0000 0.0000 -0.0004
# 3 17.4643 17.4642 108.6750 0.0000 0.0000 -0.0001
# 4 0.0000 0.0000 0.0000 19.5136 -0.0001 0.0000
# 5 0.0000 0.0000 0.0000 -0.0001 19.5132 0.0000
# 6 -0.0002 -0.0004 -0.0001 0.0000 0.0000 22.3627
#
#
#
# Elastic Compliance Matrix: (Units=1/GPa)
#
#
# Indices 1 2 3 4 5 6 
#
# 1 0.016909 -0.005449 -0.001842 0.000000 0.000000 0.000000
# 2 -0.005449 0.016910 -0.001842 0.000000 0.000000 0.000000
# 3 -0.001842 -0.001842 0.009794 0.000000 0.000000 0.000000
# 4 0.000000 0.000000 0.000000 0.051246 0.000000 0.000000
# 5 0.000000 0.000000 0.000000 0.000000 0.051247 0.000000
# 6 0.000000 0.000000 0.000000 0.000000 0.000000 0.044717
#
#
# Mechanical properties :
#
#
# Convention : Reuss Voigt Hill
#
# Bulk Modulus (GPa) = 39.45211 40.47524 39.96367
# Shear Modulus (GPa) = 22.98452 24.76261 23.87357
#
# Velocity S-wave (km/s) = 3.51946 3.65306 3.58688
# Velocity P-wave (km/s) = 6.14627 6.29330 6.22022
#
# Compressibility (1/GPa) = 0.02534719
#
# Stress axis : x y z
#
# Youngs Moduli (GPa) = 59.13891 59.13827 102.10682
#
# Poissons Ratio (x) = 0.32227 0.18804
# Poissons Ratio (y) = 0.32227 0.18805
# Poissons Ratio (z) = 0.10891 0.10891
#
# Static dielectric constant tensor:
#      x y z
#    x 3.274790 0.000000 0.000000 
#    y 0.000000 3.274790 0.000000 
#    z 0.000000 0.000000 3.661800 
# 
# 
# High freq. dielectric constant tensor:
#      x y z
#    x 1.690370 0.000000 0.000000 
#    y 0.000000 1.690370 0.000000 
#    z 0.000000 0.000000 1.740740 
# 
# From -- ./inp_files/3284.got.cif
#   From: 2010.06.25/outbox.cif.g09.slc.cpg/sg176_2_cif.got.tgz:3284.got - 2010.06.28 12:15:01.
