data_PCOD8325289
_publ_section_title
;
Structure prediction by ZEFSAII (Michael W. Deem and Ramdas Pophale) SiO2 
 PCOD8325289
Probable space group: P 6/M
;
_chemical_formula_sum "Si O2"
_cell_formula_units_Z 60
_cell_length_a 19.177089
_cell_length_b 19.177089
_cell_length_c 9.574212
_cell_angle_alpha 90.000000
_cell_angle_beta 90.000000
_cell_angle_gamma 120.000000
_cell_volume 3049.292173
_symmetry_space_group_name_H-M "P 6/M"
_symmetry_group_IT_number 175
_symmetry_cell_setting 'hexagonal'
loop_
_space_group_symop_operation_xyz
x,y,z
x-y,x,z
-y,x-y,z
-x,-y,z
-x+y,-x,z
y,-x+y,z
-x,-y,-z
-x+y,-x,-z
y,-x+y,-z
x,y,-z
x-y,x,-z
-y,x-y,-z
loop_
_atom_site_type_symbol
_atom_site_label
_atom_site_fract_x
_atom_site_fract_y
_atom_site_fract_z
Si Si1 0.845430 0.700594 0.751624
Si Si2 0.594714 0.925721 0.840925
Si Si3 0.930682 0.810976 0.000000
Si Si4 0.679434 0.080741 0.341704
Si Si5 0.188733 0.063565 0.500000
Si Si6 0.095858 0.558036 0.345900
O O1 0.764830 0.644257 0.836154
O O2 0.864748 0.639154 0.671492
O O3 0.835637 0.756794 0.637046
O O4 0.913803 0.756737 0.862366
O O5 0.507566 0.876704 0.764055
O O6 0.650066 0.010271 0.768896
O O7 0.578456 0.938843 0.000000
O O8 0.877965 0.854366 0.000000
O O9 0.658507 0.045756 0.500000
O O10 0.633178 0.131642 0.312599
O O11 0.148412 0.119431 0.500000
O O12 0.122974 0.596550 0.500000
O O13 0.000000 0.500000 0.337798
#
# Coordination Sequence:
#
# PCOD8325289 Si02
#       6
#    12  12   6  12   6  12
#     4  12  25  38  60  88 120 161 209 267 319 370
#     4  11  22  36  56  87 120 152 193 242 301 366
#     4  12  25  44  60  82 118 168 222 276 338 394
#     4  10  21  38  59  86 116 151 195 245 302 362
#     4  12  25  42  62  86 116 162 222 284 340 384
#     4   8  17  34  58  84 112 142 174 219 282 353
#
# _framework density 19.676698999999999
#
# number of rings (size 3 to 8) (size 9 to 14) (size 15 to 20)
#    0.000    1.400    2.000    5.600    4.200    3.600 
#    0.000    2.000    0.000    0.800    0.000    0.000 
#    0.000    0.000    0.000    0.000    0.000    0.000 
#
# Total GULP energy -743827.158026 kJ/mol
# GULP energy per Si atom -12397.119300 kJ/mol
# Density = 1.963191 g / cm^3
# Si number density = 19.676699 Si / 1000 Ang^3
#
#
#
# Elastic Constant Matrix: (Units=GPa)
#
#
# Indices 1 2 3 4 5 6 
#
# 1 85.1025 22.8532 33.9117 0.0000 0.0000 0.0000
# 2 22.8532 85.1025 33.9117 0.0000 0.0000 0.0000
# 3 33.9117 33.9117 132.9648 0.0000 0.0000 0.0000
# 4 0.0000 0.0000 0.0000 28.2697 0.0000 0.0000
# 5 0.0000 0.0000 0.0000 0.0000 28.2697 0.0000
# 6 0.0000 0.0000 0.0000 0.0000 0.0000 31.1246
#
#
#
# Elastic Compliance Matrix: (Units=1/GPa)
#
#
# Indices 1 2 3 4 5 6 
#
# 1 0.013547 -0.002517 -0.002813 0.000000 0.000000 0.000000
# 2 -0.002517 0.013547 -0.002813 0.000000 0.000000 0.000000
# 3 -0.002813 -0.002813 0.008956 0.000000 0.000000 0.000000
# 4 0.000000 0.000000 0.000000 0.035374 0.000000 0.000000
# 5 0.000000 0.000000 0.000000 0.000000 0.035374 0.000000
# 6 0.000000 0.000000 0.000000 0.000000 0.000000 0.032129
#
#
# Mechanical properties :
#
#
# Convention : Reuss Voigt Hill
#
# Bulk Modulus (GPa) = 50.59762 53.83588 52.21675
# Shear Modulus (GPa) = 30.90203 31.69900 31.30052
#
# Velocity S-wave (km/s) = 3.96724 4.01807 3.99274
# Velocity P-wave (km/s) = 6.83781 6.99615 6.91743
#
# Compressibility (1/GPa) = 0.01976378
#
# Stress axis : x y z
#
# Youngs Moduli (GPa) = 73.81450 73.81450 111.65967
#
# Poissons Ratio (x) = 0.18579 0.31413
# Poissons Ratio (y) = 0.18579 0.31413
# Poissons Ratio (z) = 0.20766 0.20766
#
# Static dielectric constant tensor:
#      x y z
#    x 3.688590 0.000000 0.000000 
#    y 0.000000 3.688590 0.000000 
#    z 0.000000 0.000000 3.844570 
# 
# 
# High freq. dielectric constant tensor:
#      x y z
#    x 1.749810 0.000000 0.000000 
#    y 0.000000 1.749810 0.000000 
#    z 0.000000 0.000000 1.780780 
# 
# From -- ./inp_files/911.got.cif
#   From: 2010.03.12/outbox.cif.g09.slc.cpg/sg175_1_cif.got.tgz:911.got - 2010.04.02 06:55:29.
