data_PCOD8325431
_publ_section_title
;
Structure prediction by ZEFSAII (Michael W. Deem and Ramdas Pophale) SiO2 
 PCOD8325431
Probable space group: P 63/M
;
_chemical_formula_sum "Si O2"
_cell_formula_units_Z 66
_cell_length_a 17.838004
_cell_length_b 17.838004
_cell_length_c 13.329879
_cell_angle_alpha 90.000000
_cell_angle_beta 90.000000
_cell_angle_gamma 120.000000
_cell_volume 3673.240405
_symmetry_space_group_name_H-M "P 63/M"
_symmetry_group_IT_number 176
_symmetry_cell_setting 'hexagonal'
loop_
_space_group_symop_operation_xyz
x,y,z
x-y,x,1/2+z
-y,x-y,z
-x,-y,1/2+z
-x+y,-x,z
y,-x+y,1/2+z
-x,-y,-z
-x+y,-x,1/2-z
y,-x+y,-z
x,y,1/2-z
x-y,x,-z
-y,x-y,1/2-z
loop_
_atom_site_type_symbol
_atom_site_label
_atom_site_fract_x
_atom_site_fract_y
_atom_site_fract_z
Si Si1 0.924729 0.893424 0.250000
Si Si2 0.965329 0.444002 0.136632
Si Si3 0.004564 0.156415 0.047047
Si Si4 0.048463 0.326969 0.136182
Si Si5 0.549243 0.138338 0.945447
Si Si6 0.771523 0.508492 0.633663
O O1 0.884545 0.838548 0.150402
O O2 0.027708 0.931338 0.250000
O O3 0.933156 0.440831 0.250000
O O4 0.990426 0.370564 0.116976
O O5 0.050425 0.537273 0.118990
O O6 0.886852 0.426626 0.063167
O O7 0.022631 0.254215 0.050344
O O8 0.095889 0.157530 0.039158
O O9 0.034042 0.289353 0.250000
O O10 0.149255 0.395036 0.121548
O O11 0.648690 0.206895 0.922395
O O12 0.492764 0.182481 0.917675
O O13 0.752861 0.481017 0.750000
#
# Coordination Sequence:
#
# PCOD8325431 Si02
#       6
#     6  12  12  12  12  12
#     4  10  18  34  48  68  96 118 174 222 248 308
#     4   9  19  37  55  78 109 150 178 211 269 335
#     4  12  21  32  51  73  95 137 172 214 256 299
#     4   9  20  34  51  75 108 136 169 213 262 307
#     4  10  19  33  59  82 107 140 183 221 271 325
#     4  10  19  33  53  84 108 132 173 226 268 309
#
# _framework density 17.967786
#
# number of rings (size 3 to 8) (size 9 to 14) (size 15 to 20)
#    0.182    1.818    2.727    3.273    2.545    0.000 
#    0.000    0.909    0.000    0.000    9.455    0.000 
#    0.000    0.000    0.000    0.000    0.000    0.000 
#
# Total GULP energy -818189.515390 kJ/mol
# GULP energy per Si atom -12396.810839 kJ/mol
# Density = 1.792689 g / cm^3
# Si number density = 17.967786 Si / 1000 Ang^3
#
#
#
# Elastic Constant Matrix: (Units=GPa)
#
#
# Indices 1 2 3 4 5 6 
#
# 1 62.8178 18.8783 34.5277 0.0000 0.0000 0.0000
# 2 18.8783 62.8178 34.5277 0.0000 0.0000 0.0000
# 3 34.5277 34.5277 102.8858 0.0000 0.0000 0.0000
# 4 0.0000 0.0000 0.0000 21.7892 0.0000 0.0000
# 5 0.0000 0.0000 0.0000 0.0000 21.7892 0.0000
# 6 0.0000 0.0000 0.0000 0.0000 0.0000 21.9698
#
#
#
# Elastic Compliance Matrix: (Units=1/GPa)
#
#
# Indices 1 2 3 4 5 6 
#
# 1 0.019923 -0.002835 -0.005735 0.000000 0.000000 0.000000
# 2 -0.002835 0.019923 -0.005735 0.000000 0.000000 0.000000
# 3 -0.005735 -0.005735 0.013568 0.000000 0.000000 0.000000
# 4 0.000000 0.000000 0.000000 0.045894 0.000000 0.000000
# 5 0.000000 0.000000 0.000000 0.000000 0.045894 0.000000
# 6 0.000000 0.000000 0.000000 0.000000 0.000000 0.045517
#
#
# Mechanical properties :
#
#
# Convention : Reuss Voigt Hill
#
# Bulk Modulus (GPa) = 40.31313 44.93210 42.62261
# Shear Modulus (GPa) = 21.96859 22.48216 22.22537
#
# Velocity S-wave (km/s) = 3.50046 3.54114 3.52086
# Velocity P-wave (km/s) = 6.23078 6.46381 6.34837
#
# Compressibility (1/GPa) = 0.02480582
#
# Stress axis : x y z
#
# Youngs Moduli (GPa) = 50.19293 50.19293 73.70045
#
# Poissons Ratio (x) = 0.14232 0.42264
# Poissons Ratio (y) = 0.14232 0.42264
# Poissons Ratio (z) = 0.28783 0.28783
#
# Static dielectric constant tensor:
#      x y z
#    x 3.154490 0.000000 0.000000 
#    y 0.000000 3.154490 0.000000 
#    z 0.000000 0.000000 3.285690 
# 
# 
# High freq. dielectric constant tensor:
#      x y z
#    x 1.683370 0.000000 0.000000 
#    y 0.000000 1.683370 0.000000 
#    z 0.000000 0.000000 1.691720 
# 
# From -- ./inp_files/2805.got.cif
#   From: 2010.06.25/outbox.cif.g09.slc.cpg/sg176_2_cif.got.tgz:2805.got - 2010.06.28 12:15:01.
