data_PCOD8325399
_publ_section_title
;
Structure prediction by ZEFSAII (Michael W. Deem and Ramdas Pophale) SiO2 
 PCOD8325399
Probable space group: P 63/M
;
_chemical_formula_sum "Si O2"
_cell_formula_units_Z 84
_cell_length_a 17.219112
_cell_length_b 17.219112
_cell_length_c 25.593129
_cell_angle_alpha 90.000000
_cell_angle_beta 90.000000
_cell_angle_gamma 120.000000
_cell_volume 6571.666552
_symmetry_space_group_name_H-M "P 63/M"
_symmetry_group_IT_number 176
_symmetry_cell_setting 'hexagonal'
loop_
_space_group_symop_operation_xyz
x,y,z
x-y,x,1/2+z
-y,x-y,z
-x,-y,1/2+z
-x+y,-x,z
y,-x+y,1/2+z
-x,-y,-z
-x+y,-x,1/2-z
y,-x+y,-z
x,y,1/2-z
x-y,x,-z
-y,x-y,1/2-z
loop_
_atom_site_type_symbol
_atom_site_label
_atom_site_fract_x
_atom_site_fract_y
_atom_site_fract_z
Si Si1 0.844236 0.333744 0.311661
Si Si2 0.819800 0.819916 0.059189
Si Si3 0.183917 0.182909 0.750000
Si Si4 0.155764 0.489508 0.811661
Si Si5 0.700361 0.941825 0.653778
Si Si6 0.816083 0.998992 0.250000
Si Si7 0.058175 0.299639 0.653778
Si Si8 0.180200 0.000116 0.559189
O O1 0.858178 0.332272 0.250000
O O2 0.745676 0.254324 0.327558
O O3 0.853641 0.426821 0.330510
O O4 0.922840 0.323850 0.340175
O O5 0.753834 0.739361 0.097324
O O6 0.814639 0.907320 0.073872
O O7 0.922380 0.844760 0.067056
O O8 0.788052 0.788052 1.000000
O O9 0.241836 0.235260 0.699151
O O10 0.167813 0.083907 0.750000
O O11 0.087459 0.174917 0.750000
O O12 0.141822 0.474093 0.750000
O O13 0.077160 0.401010 0.840175
O O14 0.695141 0.847571 0.660704
O O15 0.758164 0.993424 0.199151
O O16 0.014472 0.260639 0.597324
#
# Coordination Sequence:
#
# PCOD8325399 Si02
#       8
#    12  12   6  12  12   6  12  12
#     4   9  15  24  38  55  73  93 116 142 175 220
#     4   9  16  25  37  52  71  99 134 164 182 200
#     4  10  17  24  33  48  72 102 128 148 173 210
#     4   9  15  24  38  55  73  93 116 142 175 220
#     4   9  16  25  35  50  73  96 119 149 184 215
#     4  10  17  24  33  48  72 102 128 148 173 210
#     4   9  16  25  35  50  73  96 119 149 184 215
#     4   9  16  25  37  52  71  99 134 164 182 200
#
# _framework density 12.782145999999999
#
# number of rings (size 3 to 8) (size 9 to 14) (size 15 to 20)
#    0.000    2.857    1.429    1.571    0.000    2.286 
#    0.000    2.857    0.000    0.857    0.000    0.000 
#    0.000    0.000    0.000   12.000    0.000    0.000 
#
# Total GULP energy -1041318.401105 kJ/mol
# GULP energy per Si atom -12396.647632 kJ/mol
# Density = 1.275305 g / cm^3
# Si number density = 12.782146 Si / 1000 Ang^3
#
#
#
# Elastic Constant Matrix: (Units=GPa)
#
#
# Indices 1 2 3 4 5 6 
#
# 1 73.3275 39.9140 40.7003 0.0000 0.0000 0.0000
# 2 39.9140 73.3275 40.7003 0.0000 0.0000 0.0000
# 3 40.7003 40.7003 77.7871 0.0000 0.0000 0.0000
# 4 0.0000 0.0000 0.0000 16.2016 0.0000 0.0000
# 5 0.0000 0.0000 0.0000 0.0000 16.2016 0.0000
# 6 0.0000 0.0000 0.0000 0.0000 0.0000 16.7067
#
#
#
# Elastic Compliance Matrix: (Units=1/GPa)
#
#
# Indices 1 2 3 4 5 6 
#
# 1 0.022041 -0.007887 -0.007406 0.000000 0.000000 0.000000
# 2 -0.007887 0.022041 -0.007406 0.000000 0.000000 0.000000
# 3 -0.007406 -0.007406 0.020606 0.000000 0.000000 0.000000
# 4 0.000000 0.000000 0.000000 0.061722 0.000000 0.000000
# 5 0.000000 0.000000 0.000000 0.000000 0.061722 0.000000
# 6 0.000000 0.000000 0.000000 0.000000 0.000000 0.059856
#
#
# Mechanical properties :
#
#
# Convention : Reuss Voigt Hill
#
# Bulk Modulus (GPa) = 51.83915 51.89683 51.86799
# Shear Modulus (GPa) = 16.67691 16.69715 16.68703
#
# Velocity S-wave (km/s) = 3.61599 3.61818 3.61708
# Velocity P-wave (km/s) = 7.62088 7.62523 7.62305
#
# Compressibility (1/GPa) = 0.01929044
#
# Stress axis : x y z
#
# Youngs Moduli (GPa) = 45.36975 45.36975 48.53072
#
# Poissons Ratio (x) = 0.35783 0.35941
# Poissons Ratio (y) = 0.35783 0.35941
# Poissons Ratio (z) = 0.33600 0.33600
#
# Static dielectric constant tensor:
#      x y z
#    x 2.477020 0.000000 0.000000 
#    y 0.000000 2.477020 0.000000 
#    z 0.000000 0.000000 2.625630 
# 
# 
# High freq. dielectric constant tensor:
#      x y z
#    x 1.461960 0.000000 0.000000 
#    y 0.000000 1.461960 0.000000 
#    z 0.000000 0.000000 1.480730 
# 
# From -- ./inp_files/4333.got.cif
#   From: 2010.06.25/outbox.cif.g09.slc.cpg/sg176_3_cif.got.tgz:4333.got - 2010.06.28 12:15:01.
