data_PCOD8325464
_publ_section_title
;
Structure prediction by ZEFSAII (Michael W. Deem and Ramdas Pophale) SiO2 
 PCOD8325464
Probable space group: P 63/M
;
_chemical_formula_sum "Si O2"
_cell_formula_units_Z 72
_cell_length_a 23.165158
_cell_length_b 23.165158
_cell_length_c 8.999904
_cell_angle_alpha 90.000000
_cell_angle_beta 90.000000
_cell_angle_gamma 120.000000
_cell_volume 4182.529782
_symmetry_space_group_name_H-M "P 63/M"
_symmetry_group_IT_number 176
_symmetry_cell_setting 'hexagonal'
loop_
_space_group_symop_operation_xyz
x,y,z
x-y,x,1/2+z
-y,x-y,z
-x,-y,1/2+z
-x+y,-x,z
y,-x+y,1/2+z
-x,-y,-z
-x+y,-x,1/2-z
y,-x+y,-z
x,y,1/2-z
x-y,x,-z
-y,x-y,1/2-z
loop_
_atom_site_type_symbol
_atom_site_label
_atom_site_fract_x
_atom_site_fract_y
_atom_site_fract_z
Si Si1 0.474266 0.402250 0.075696
Si Si2 0.400871 0.468171 0.576087
Si Si3 0.744051 0.742014 0.577910
Si Si4 0.257196 0.871023 0.574208
Si Si5 0.378916 0.125278 0.425673
Si Si6 0.881391 0.006117 0.423017
O O1 0.464705 0.404967 0.250000
O O2 0.550893 0.454174 0.028792
O O3 0.452141 0.326711 0.026809
O O4 0.423545 0.421451 0.002930
O O5 0.406777 0.459563 0.750000
O O6 0.324718 0.443074 0.529829
O O7 0.734353 0.721595 0.750000
O O8 0.679608 0.743352 0.513932
O O9 0.754874 0.688763 0.489835
O O10 0.806860 0.813923 0.550808
O O11 0.249463 0.868550 0.750000
O O12 0.195427 0.803975 0.506942
O O13 0.370106 0.123223 0.250000
O O14 0.901984 0.015808 0.250000
O O15 0.936894 0.064860 0.520556
#
# Coordination Sequence:
#
# PCOD8325464 Si02
#       6
#    12  12  12  12  12  12
#     4   9  16  29  49  68  93 125 157 190 232 286
#     4   9  17  28  46  73  96 119 154 198 239 273
#     4  10  20  34  50  70  94 126 164 197 243 298
#     4   9  17  30  48  68  95 131 159 187 235 292
#     4  10  19  31  48  71 100 128 159 200 243 285
#     4  11  23  38  55  72  93 122 164 209 253 302
#
# _framework density 17.214462999999999
#
# number of rings (size 3 to 8) (size 9 to 14) (size 15 to 20)
#    0.000    2.333    1.667    1.667    0.000    2.667 
#    0.000    1.667    0.000    0.667    0.000    4.667 
#    0.000    0.000    0.000    3.833    0.000    4.667 
#
# Total GULP energy -892517.531903 kJ/mol
# GULP energy per Si atom -12396.076832 kJ/mol
# Density = 1.717528 g / cm^3
# Si number density = 17.214463 Si / 1000 Ang^3
#
#
#
# Elastic Constant Matrix: (Units=GPa)
#
#
# Indices 1 2 3 4 5 6 
#
# 1 111.8705 62.8298 19.0989 0.0000 0.0000 0.0000
# 2 62.8298 111.8705 19.0989 0.0000 0.0000 0.0000
# 3 19.0989 19.0989 16.6820 0.0000 0.0000 0.0000
# 4 0.0000 0.0000 0.0000 18.3499 0.0000 0.0000
# 5 0.0000 0.0000 0.0000 0.0000 18.3499 0.0000
# 6 0.0000 0.0000 0.0000 0.0000 0.0000 24.5204
#
#
#
# Elastic Compliance Matrix: (Units=1/GPa)
#
#
# Indices 1 2 3 4 5 6 
#
# 1 0.014013 -0.006378 -0.008742 0.000000 0.000000 0.000000
# 2 -0.006378 0.014013 -0.008742 0.000000 0.000000 0.000000
# 3 -0.008742 -0.008742 0.079961 0.000000 0.000000 0.000000
# 4 0.000000 0.000000 0.000000 0.054496 0.000000 0.000000
# 5 0.000000 0.000000 0.000000 0.000000 0.054496 0.000000
# 6 0.000000 0.000000 0.000000 0.000000 0.000000 0.040782
#
#
# Mechanical properties :
#
#
# Convention : Reuss Voigt Hill
#
# Bulk Modulus (GPa) = 16.59327 49.16422 32.87874
# Shear Modulus (GPa) = 15.35753 21.53709 18.44731
#
# Velocity S-wave (km/s) = 2.99009 3.54093 3.27711
# Velocity P-wave (km/s) = 4.64553 6.73346 5.78448
#
# Compressibility (1/GPa) = 0.06026541
#
# Stress axis : x y z
#
# Youngs Moduli (GPa) = 71.36075 71.36075 12.50608
#
# Poissons Ratio (x) = 0.45513 0.10932
# Poissons Ratio (y) = 0.45513 0.10932
# Poissons Ratio (z) = 0.62381 0.62381
#
# Static dielectric constant tensor:
#      x y z
#    x 3.593270 0.000000 0.000000 
#    y 0.000000 3.593270 0.000000 
#    z 0.000000 0.000000 3.096500 
# 
# 
# High freq. dielectric constant tensor:
#      x y z
#    x 1.664420 0.000000 0.000000 
#    y 0.000000 1.664420 0.000000 
#    z 0.000000 0.000000 1.647150 
# 
# From -- ./inp_files/1196.got.cif
#   From: 2010.06.25/outbox.cif.g09.slc.cpg/sg176_1_cif.got.tgz:1196.got - 2010.06.28 12:15:01.
