data_PCOD8325408
_publ_section_title
;
Structure prediction by ZEFSAII (Michael W. Deem and Ramdas Pophale) SiO2 
 PCOD8325408
Probable space group: P 63/M
;
_chemical_formula_sum "Si O2"
_cell_formula_units_Z 64
_cell_length_a 16.010257
_cell_length_b 16.010257
_cell_length_c 18.705418
_cell_angle_alpha 90.000000
_cell_angle_beta 90.000000
_cell_angle_gamma 120.000000
_cell_volume 4152.356723
_symmetry_space_group_name_H-M "P 63/M"
_symmetry_group_IT_number 176
_symmetry_cell_setting 'hexagonal'
loop_
_space_group_symop_operation_xyz
x,y,z
x-y,x,1/2+z
-y,x-y,z
-x,-y,1/2+z
-x+y,-x,z
y,-x+y,1/2+z
-x,-y,-z
-x+y,-x,1/2-z
y,-x+y,-z
x,y,1/2-z
x-y,x,-z
-y,x-y,1/2-z
loop_
_atom_site_type_symbol
_atom_site_label
_atom_site_fract_x
_atom_site_fract_y
_atom_site_fract_z
Si Si1 0.251493 0.463617 0.895614
Si Si2 0.055410 0.423224 0.926226
Si Si3 0.487337 0.352692 0.582282
Si Si4 0.475243 0.161701 0.556283
Si Si5 0.333333 0.666667 0.835213
Si Si6 0.537602 0.957462 0.668159
O O1 0.134515 0.393177 0.900247
O O2 0.261412 0.561709 0.865475
O O3 0.306167 0.427001 0.843072
O O4 0.302462 0.479798 0.971828
O O5 0.067692 0.513034 0.880128
O O6 0.945388 0.334621 0.921300
O O7 0.075718 0.453770 0.008572
O O8 0.456281 0.241463 0.592773
O O9 0.602549 0.422038 0.584984
O O10 0.436072 0.374245 0.647749
O O11 0.333334 0.666668 0.750000
O O12 0.508559 0.956161 0.750000
#
# Coordination Sequence:
#
# PCOD8325408 Si02
#       6
#    12  12  12  12   4  12
#     4  11  18  29  45  68  96 126 157 194 235 286
#     4  10  19  31  48  69  95 126 163 195 236 284
#     4  10  18  32  49  69  93 128 169 195 234 276
#     4  10  17  31  49  67  90 124 166 203 224 273
#     4  12  21  27  39  66 102 135 154 182 247 306
#     4  11  20  31  45  68 100 128 157 198 243 287
#
# _framework density 15.412934
#
# number of rings (size 3 to 8) (size 9 to 14) (size 15 to 20)
#    0.000    1.500    5.625    3.188    0.000    0.750 
#    0.000    3.750    0.000    0.000    0.000    0.000 
#    1.875    3.375    0.000    0.000    0.000    0.000 
#
# Total GULP energy -793167.591109 kJ/mol
# GULP energy per Si atom -12393.243611 kJ/mol
# Density = 1.537785 g / cm^3
# Si number density = 15.412934 Si / 1000 Ang^3
#
#
#
# Elastic Constant Matrix: (Units=GPa)
#
#
# Indices 1 2 3 4 5 6 
#
# 1 102.5179 44.0410 25.9173 0.0000 0.0000 -0.0017
# 2 44.0410 102.5187 25.9167 0.0000 0.0000 0.0015
# 3 25.9173 25.9167 51.6452 0.0000 0.0000 -0.0001
# 4 0.0000 0.0000 0.0000 11.7366 0.0000 0.0000
# 5 0.0000 0.0000 0.0000 0.0000 11.7365 0.0000
# 6 -0.0017 0.0015 -0.0001 0.0000 0.0000 29.2400
#
#
#
# Elastic Compliance Matrix: (Units=1/GPa)
#
#
# Indices 1 2 3 4 5 6 
#
# 1 0.012698 -0.004403 -0.004163 0.000000 0.000000 0.000001
# 2 -0.004403 0.012698 -0.004163 0.000000 0.000000 -0.000001
# 3 -0.004163 -0.004163 0.023541 0.000000 0.000000 0.000000
# 4 0.000000 0.000000 0.000000 0.085204 0.000000 0.000000
# 5 0.000000 0.000000 0.000000 0.000000 0.085205 0.000000
# 6 0.000001 -0.000001 0.000000 0.000000 0.000000 0.034200
#
#
# Mechanical properties :
#
#
# Convention : Reuss Voigt Hill
#
# Bulk Modulus (GPa) = 42.58880 49.82576 46.20728
# Shear Modulus (GPa) = 17.43201 21.26306 19.34754
#
# Velocity S-wave (km/s) = 3.36668 3.71827 3.54684
# Velocity P-wave (km/s) = 6.54252 7.12962 6.84237
#
# Compressibility (1/GPa) = 0.02348035
#
# Stress axis : x y z
#
# Youngs Moduli (GPa) = 78.75150 78.75274 42.47910
#
# Poissons Ratio (x) = 0.34672 0.17684
# Poissons Ratio (y) = 0.34671 0.17683
# Poissons Ratio (z) = 0.32785 0.32783
#
# Static dielectric constant tensor:
#      x y z
#    x 3.444680 -0.000250 0.000000 
#    y -0.000250 3.441280 0.000000 
#    z 0.000000 0.000000 2.866500 
# 
# 
# High freq. dielectric constant tensor:
#      x y z
#    x 1.572860 0.000000 0.000000 
#    y 0.000000 1.572860 0.000000 
#    z 0.000000 0.000000 1.582840 
# 
# From -- ./inp_files/3319.got.cif
#   From: 2010.06.25/outbox.cif.g09.slc.cpg/sg176_2_cif.got.tgz:3319.got - 2010.06.28 12:15:01.
