data_PCOD8325727
_publ_section_title
;
Structure prediction by ZEFSAII (Michael W. Deem and Ramdas Pophale) SiO2 
 PCOD8325727
Probable space group: P 63/M
;
_chemical_formula_sum "Si O2"
_cell_formula_units_Z 96
_cell_length_a 17.134081
_cell_length_b 17.134081
_cell_length_c 27.969574
_cell_angle_alpha 90.000000
_cell_angle_beta 90.000000
_cell_angle_gamma 120.000000
_cell_volume 7111.121758
_symmetry_space_group_name_H-M "P 63/M"
_symmetry_group_IT_number 176
_symmetry_cell_setting 'hexagonal'
loop_
_space_group_symop_operation_xyz
x,y,z
x-y,x,1/2+z
-y,x-y,z
-x,-y,1/2+z
-x+y,-x,z
y,-x+y,1/2+z
-x,-y,-z
-x+y,-x,1/2-z
y,-x+y,-z
x,y,1/2-z
x-y,x,-z
-y,x-y,1/2-z
loop_
_atom_site_type_symbol
_atom_site_label
_atom_site_fract_x
_atom_site_fract_y
_atom_site_fract_z
Si Si1 0.846596 0.513244 0.303975
Si Si2 0.846596 0.333352 0.303975
Si Si3 0.512128 0.844423 0.428104
Si Si4 0.427815 0.035516 0.392015
Si Si5 0.272466 0.368083 0.982075
Si Si6 0.727534 0.095617 0.017925
Si Si7 0.487872 0.332295 0.571896
Si Si8 0.607701 0.035516 0.107985
O O1 0.878627 0.547700 0.250000
O O2 0.817876 0.408938 0.309049
O O3 0.760875 0.521750 0.318398
O O4 0.928939 0.575105 0.339167
O O5 0.878627 0.330928 0.250000
O O6 0.928939 0.353834 0.339167
O O7 0.547792 0.871793 0.482103
O O8 0.522172 0.761086 0.409553
O O9 0.407807 0.815614 0.427532
O O10 0.571131 0.928543 0.393030
O O11 0.401870 0.088940 0.429755
O O12 0.526856 0.053713 0.405423
O O13 0.357412 0.928543 0.393030
O O14 0.165938 0.331877 0.980848
O O15 0.286125 0.286125 1.000000
O O16 0.687070 0.088940 0.070245
O O17 0.675999 0.128207 0.982103
#
# Coordination Sequence:
#
# PCOD8325727 Si02
#       8
#    12  12  12  12  12  12  12  12
#     4   9  16  25  37  53  73  96 120 145 174 210
#     4   9  16  25  37  53  73  96 120 145 174 210
#     4   9  16  25  37  53  73  97 124 152 180 210
#     4   9  16  25  37  53  73  96 121 148 178 212
#     4   9  16  25  37  53  73  96 121 148 179 214
#     4   9  16  25  37  53  73  96 121 148 179 214
#     4   9  16  25  37  53  73  97 124 152 180 210
#     4   9  16  25  37  53  73  96 121 148 178 212
#
# _framework density 13.499979
#
# number of rings (size 3 to 8) (size 9 to 14) (size 15 to 20)
#    0.000    3.000    0.000    2.000    0.000    4.000 
#    0.000    0.000    0.000    9.000    0.000    0.000 
#    0.000    2.000    0.000    0.000    0.000    7.750 
#
# Total GULP energy -1190202.447248 kJ/mol
# GULP energy per Si atom -12397.942159 kJ/mol
# Density = 1.346925 g / cm^3
# Si number density = 13.499979 Si / 1000 Ang^3
#
#
#
# Elastic Constant Matrix: (Units=GPa)
#
#
# Indices 1 2 3 4 5 6 
#
# 1 89.4502 49.3279 48.0753 0.0000 0.0000 0.0000
# 2 49.3279 89.4502 48.0753 0.0000 0.0000 0.0000
# 3 48.0753 48.0753 86.0511 0.0000 0.0000 0.0000
# 4 0.0000 0.0000 0.0000 18.0067 0.0000 0.0000
# 5 0.0000 0.0000 0.0000 0.0000 18.0067 0.0000
# 6 0.0000 0.0000 0.0000 0.0000 0.0000 20.0612
#
#
#
# Elastic Compliance Matrix: (Units=1/GPa)
#
#
# Indices 1 2 3 4 5 6 
#
# 1 0.018340 -0.006584 -0.006568 0.000000 0.000000 0.000000
# 2 -0.006584 0.018340 -0.006568 0.000000 0.000000 0.000000
# 3 -0.006568 -0.006568 0.018960 0.000000 0.000000 0.000000
# 4 0.000000 0.000000 0.000000 0.055535 0.000000 0.000000
# 5 0.000000 0.000000 0.000000 0.000000 0.055535 0.000000
# 6 0.000000 0.000000 0.000000 0.000000 0.000000 0.049848
#
#
# Mechanical properties :
#
#
# Convention : Reuss Voigt Hill
#
# Bulk Modulus (GPa) = 61.72708 61.76763 61.74735
# Shear Modulus (GPa) = 19.12800 19.17980 19.15390
#
# Velocity S-wave (km/s) = 3.76824 3.77334 3.77080
# Velocity P-wave (km/s) = 8.04711 8.05216 8.04964
#
# Compressibility (1/GPa) = 0.01620035
#
# Stress axis : x y z
#
# Youngs Moduli (GPa) = 54.52543 54.52543 52.74274
#
# Poissons Ratio (x) = 0.35898 0.34642
# Poissons Ratio (y) = 0.35898 0.34642
# Poissons Ratio (z) = 0.35813 0.35813
#
# Static dielectric constant tensor:
#      x y z
#    x 2.647380 0.000000 0.000000 
#    y 0.000000 2.647380 0.000000 
#    z 0.000000 0.000000 2.650520 
# 
# 
# High freq. dielectric constant tensor:
#      x y z
#    x 1.502150 0.000000 0.000000 
#    y 0.000000 1.502150 0.000000 
#    z 0.000000 0.000000 1.503970 
# 
# From -- ./inp_files/4134.got.cif
#   From: 2010.06.25/outbox.cif.g09.slc.cpg/sg176_3_cif.got.tgz:4134.got - 2010.06.28 12:15:01.
