data_PCOD8325268
_publ_section_title
;
Structure prediction by ZEFSAII (Michael W. Deem and Ramdas Pophale) SiO2 
 PCOD8325268
Probable space group: P 6/M
;
_chemical_formula_sum "Si O2"
_cell_formula_units_Z 60
_cell_length_a 11.856656
_cell_length_b 11.856656
_cell_length_c 25.031946
_cell_angle_alpha 90.000000
_cell_angle_beta 90.000000
_cell_angle_gamma 120.000000
_cell_volume 3047.541894
_symmetry_space_group_name_H-M "P 6/M"
_symmetry_group_IT_number 175
_symmetry_cell_setting 'hexagonal'
loop_
_space_group_symop_operation_xyz
x,y,z
x-y,x,z
-y,x-y,z
-x,-y,z
-x+y,-x,z
y,-x+y,z
-x,-y,-z
-x+y,-x,-z
y,-x+y,-z
x,y,-z
x-y,x,-z
-y,x-y,-z
loop_
_atom_site_type_symbol
_atom_site_label
_atom_site_fract_x
_atom_site_fract_y
_atom_site_fract_z
Si Si1 0.487452 0.797755 0.559238
Si Si2 0.803721 0.702847 0.061767
Si Si3 0.207345 0.292896 0.358542
Si Si4 0.491895 0.791695 0.851166
Si Si5 0.797889 0.703570 0.764216
O O1 0.354132 0.803899 0.565469
O O2 0.547245 0.847887 0.500000
O O3 0.585697 0.885593 0.604675
O O4 0.764305 0.809820 0.076751
O O5 0.716695 0.573048 0.095436
O O6 0.777082 0.662924 0.000000
O O7 0.237473 0.179744 0.372250
O O8 0.235354 0.338654 0.297244
O O9 0.363621 0.807781 0.850672
O O10 0.575333 0.862514 0.798962
O O11 0.762486 0.813727 0.778471
#
# Coordination Sequence:
#
# PCOD8325268 Si02
#       5
#    12  12  12  12  12
#     4   8  18  37  56  78 108 143 187 231 268 312
#     4  10  21  38  62  89 114 143 184 234 279 319
#     4  10  21  36  56  83 113 143 177 222 279 338
#     4  10  24  40  54  80 118 152 184 223 270 328
#     4  10  21  38  60  83 108 142 184 231 278 325
#
# _framework density 19.687999999999999
#
# number of rings (size 3 to 8) (size 9 to 14) (size 15 to 20)
#    0.800    1.600    0.000    1.800    0.000    9.600 
#    0.000   10.000    0.000    1.200    0.000    0.000 
#    0.000    0.000    0.000    0.000    0.000    0.000 
#
# Total GULP energy -743866.292272 kJ/mol
# GULP energy per Si atom -12397.771538 kJ/mol
# Density = 1.964319 g / cm^3
# Si number density = 19.688000 Si / 1000 Ang^3
#
#
#
# Elastic Constant Matrix: (Units=GPa)
#
#
# Indices 1 2 3 4 5 6 
#
# 1 43.6566 -15.1020 17.4118 0.0000 0.0000 0.0000
# 2 -15.1020 43.6566 17.4118 0.0000 0.0000 0.0000
# 3 17.4118 17.4118 81.7658 0.0000 0.0000 0.0000
# 4 0.0000 0.0000 0.0000 7.5060 0.0000 0.0000
# 5 0.0000 0.0000 0.0000 0.0000 7.5060 0.0000
# 6 0.0000 0.0000 0.0000 0.0000 0.0000 29.3793
#
#
#
# Elastic Compliance Matrix: (Units=1/GPa)
#
#
# Indices 1 2 3 4 5 6 
#
# 1 0.032162 0.015144 -0.010074 0.000000 0.000000 0.000000
# 2 0.015144 0.032162 -0.010074 0.000000 0.000000 0.000000
# 3 -0.010074 -0.010074 0.016520 0.000000 0.000000 0.000000
# 4 0.000000 0.000000 0.000000 0.133227 0.000000 0.000000
# 5 0.000000 0.000000 0.000000 0.000000 0.133227 0.000000
# 6 0.000000 0.000000 0.000000 0.000000 0.000000 0.034038
#
#
# Mechanical properties :
#
#
# Convention : Reuss Voigt Hill
#
# Bulk Modulus (GPa) = 14.11681 23.16915 18.64298
# Shear Modulus (GPa) = 12.04947 18.83543 15.44245
#
# Velocity S-wave (km/s) = 2.47659 3.09641 2.80368
# Velocity P-wave (km/s) = 3.91967 4.95755 4.46885
#
# Compressibility (1/GPa) = 0.07083755
#
# Stress axis : x y z
#
# Youngs Moduli (GPa) = 31.09224 31.09224 60.53129
#
# Poissons Ratio (x) = -0.47085 0.60977
# Poissons Ratio (y) = -0.47085 0.60977
# Poissons Ratio (z) = 0.31321 0.31321
#
# Static dielectric constant tensor:
#      x y z
#    x 3.453100 0.000000 0.000000 
#    y 0.000000 3.453100 0.000000 
#    z 0.000000 0.000000 3.552910 
# 
# 
# High freq. dielectric constant tensor:
#      x y z
#    x 1.761690 0.000000 0.000000 
#    y 0.000000 1.761690 0.000000 
#    z 0.000000 0.000000 1.774390 
# 
# From -- ./inp_files/3291.got.cif
#   From: 2010.03.12/outbox.cif.g09.slc.cpg/sg175_2_cif.got.tgz:3291.got - 2010.04.02 06:55:29.
