data_PCOD8325805
_publ_section_title
;
Structure prediction by ZEFSAII (Michael W. Deem and Ramdas Pophale) SiO2 
 PCOD8325805
Probable space group: P 61 2 2
;
_chemical_formula_sum "Si O2"
_cell_formula_units_Z 36
_cell_length_a 12.767047
_cell_length_b 12.767047
_cell_length_c 12.610580
_cell_angle_alpha 90.000000
_cell_angle_beta 90.000000
_cell_angle_gamma 120.000000
_cell_volume 1780.109048
_symmetry_space_group_name_H-M "P 61 2 2"
_symmetry_group_IT_number 178
_symmetry_cell_setting 'hexagonal'
loop_
_space_group_symop_operation_xyz
x,y,z
x-y,x,1/6+z
-y,x-y,1/3+z
-x,-y,1/2+z
-x+y,-x,2/3+z
y,-x+y,5/6+z
x-y,-y,-z
-x,-x+y,2/3-z
y,x,1/3-z
-y,-x,5/6-z
-x+y,y,1/2-z
x,x-y,1/6-z
loop_
_atom_site_type_symbol
_atom_site_label
_atom_site_fract_x
_atom_site_fract_y
_atom_site_fract_z
Si Si1 0.866117 0.448254 0.843661
Si Si2 0.421561 0.068119 0.696781
Si Si3 0.269523 0.802083 0.669353
O O1 0.811656 0.384765 0.729661
O O2 0.000000 0.570009 0.833334
O O3 0.890203 0.351998 0.909011
O O4 0.769380 0.476141 0.900518
O O5 0.540544 0.081088 0.750000
O O6 0.389180 0.158235 0.757359
O O7 0.308552 0.934380 0.713513
#
# Coordination Sequence:
#
# PCOD8325805 Si02
#       3
#    12  12  12
#     4   9  19  35  54  80 110 142 181 221 269 325
#     4   9  19  32  50  78 109 143 179 220 268 321
#     4  10  19  35  53  80 113 145 183 221 268 322
#
# _framework density 20.223478
#
# number of rings (size 3 to 8) (size 9 to 14) (size 15 to 20)
#    0.000    2.667    0.000    1.000    0.000    8.000 
#    0.000   20.000    0.000    0.000    0.000   35.000 
#    0.000    0.000    0.000    0.000    0.000    0.000 
#
# Total GULP energy -445992.488786 kJ/mol
# GULP energy per Si atom -12388.680244 kJ/mol
# Density = 2.017745 g / cm^3
# Si number density = 20.223478 Si / 1000 Ang^3
#
#
#
# Elastic Constant Matrix: (Units=GPa)
#
#
# Indices 1 2 3 4 5 6 
#
# 1 94.1917 34.7983 20.8407 0.0000 0.0000 0.0000
# 2 34.7983 94.1917 20.8407 0.0000 0.0000 0.0000
# 3 20.8407 20.8407 41.9979 0.0000 0.0000 0.0000
# 4 0.0000 0.0000 0.0000 38.2728 0.0000 0.0000
# 5 0.0000 0.0000 0.0000 0.0000 38.2728 0.0000
# 6 0.0000 0.0000 0.0000 0.0000 0.0000 29.6967
#
#
#
# Elastic Compliance Matrix: (Units=1/GPa)
#
#
# Indices 1 2 3 4 5 6 
#
# 1 0.013035 -0.003802 -0.004582 0.000000 0.000000 0.000000
# 2 -0.003802 0.013035 -0.004582 0.000000 0.000000 0.000000
# 3 -0.004582 -0.004582 0.028358 0.000000 0.000000 0.000000
# 4 0.000000 0.000000 0.000000 0.026128 0.000000 0.000000
# 5 0.000000 0.000000 0.000000 0.000000 0.026128 0.000000
# 6 0.000000 0.000000 0.000000 0.000000 0.000000 0.033674
#
#
# Mechanical properties :
#
#
# Convention : Reuss Voigt Hill
#
# Bulk Modulus (GPa) = 35.09127 42.59340 38.84233
# Shear Modulus (GPa) = 28.44338 31.50858 29.97598
#
# Velocity S-wave (km/s) = 3.75434 3.95146 3.85416
# Velocity P-wave (km/s) = 6.01522 6.47501 6.24934
#
# Compressibility (1/GPa) = 0.02849712
#
# Stress axis : x y z
#
# Youngs Moduli (GPa) = 76.71670 76.71670 35.26352
#
# Poissons Ratio (x) = 0.29167 0.16157
# Poissons Ratio (y) = 0.29167 0.16157
# Poissons Ratio (z) = 0.35150 0.35150
#
# Static dielectric constant tensor:
#      x y z
#    x 3.574800 0.000000 0.000000 
#    y 0.000000 3.574800 0.000000 
#    z 0.000000 0.000000 4.327830 
# 
# 
# High freq. dielectric constant tensor:
#      x y z
#    x 1.757240 0.000000 0.000000 
#    y 0.000000 1.757240 0.000000 
#    z 0.000000 0.000000 1.816650 
# 
# From -- ./inp_files/5134.got.cif
#   From: 2010.03.12/outbox.cif.g09.slc.cpg/sg178_3_cif.got.tgz:5134.got - 2010.04.02 07:02:38.
