data_PCOD8325872
_publ_section_title
;
Structure prediction by ZEFSAII (Michael W. Deem and Ramdas Pophale) SiO2 
 PCOD8325872
Probable space group: P 61 2 2
;
_chemical_formula_sum "Si O2"
_cell_formula_units_Z 72
_cell_length_a 14.791016
_cell_length_b 14.791016
_cell_length_c 17.844495
_cell_angle_alpha 90.000000
_cell_angle_beta 90.000000
_cell_angle_gamma 120.000000
_cell_volume 3380.888960
_symmetry_space_group_name_H-M "P 61 2 2"
_symmetry_group_IT_number 178
_symmetry_cell_setting 'hexagonal'
loop_
_space_group_symop_operation_xyz
x,y,z
x-y,x,1/6+z
-y,x-y,1/3+z
-x,-y,1/2+z
-x+y,-x,2/3+z
y,-x+y,5/6+z
x-y,-y,-z
-x,-x+y,2/3-z
y,x,1/3-z
-y,-x,5/6-z
-x+y,y,1/2-z
x,x-y,1/6-z
loop_
_atom_site_type_symbol
_atom_site_label
_atom_site_fract_x
_atom_site_fract_y
_atom_site_fract_z
Si Si1 0.822346 0.169481 0.154148
Si Si2 0.561623 0.647755 0.503644
Si Si3 0.292324 0.748374 0.075922
Si Si4 0.447286 0.497619 0.740453
Si Si5 0.319966 0.960260 0.301949
Si Si6 0.983399 0.214566 0.416802
O O1 0.773677 0.239649 0.185832
O O2 0.873384 0.213716 0.072219
O O3 0.905044 0.164824 0.210702
O O4 0.736810 0.047796 0.149353
O O5 0.486602 0.694228 0.489191
O O6 0.504985 0.550658 0.558161
O O7 0.591069 0.609031 0.427465
O O8 0.663330 0.744396 0.537518
O O9 0.334374 0.667187 0.083334
O O10 0.388822 0.857594 0.049629
O O11 0.425528 0.425528 0.666667
O O12 0.354835 0.450273 0.802227
O O13 0.912934 0.087067 0.416667
O O14 0.000000 0.258228 0.333334
#
# Coordination Sequence:
#
# PCOD8325872 Si02
#       6
#    12  12  12  12  12  12
#     4  10  21  40  66  96 131 184 222 274 360 415
#     4  10  21  36  60  82 129 176 218 266 347 410
#     4  11  23  39  61  92 128 172 232 277 338 414
#     4  12  25  39  60  91 129 181 232 287 346 414
#     4  10  21  41  65  87 127 176 223 276 344 419
#     4  11  20  32  61  97 137 169 209 273 349 424
#
# _framework density 21.296173
#
# number of rings (size 3 to 8) (size 9 to 14) (size 15 to 20)
#    0.000    1.333    3.333    6.000    2.333    1.333 
#    0.000    3.333    0.000    0.000    0.000   18.667 
#    0.000    0.000    0.000    0.000    0.000    0.000 
#
# Total GULP energy -892283.745878 kJ/mol
# GULP energy per Si atom -12392.829804 kJ/mol
# Density = 2.124770 g / cm^3
# Si number density = 21.296173 Si / 1000 Ang^3
#
#
#
# Elastic Constant Matrix: (Units=GPa)
#
#
# Indices 1 2 3 4 5 6 
#
# 1 84.3208 29.7800 38.6461 0.0000 0.0000 0.0000
# 2 29.7800 84.3208 38.6461 0.0000 0.0000 0.0000
# 3 38.6461 38.6461 93.3350 0.0000 0.0000 0.0000
# 4 0.0000 0.0000 0.0000 19.8100 0.0000 0.0000
# 5 0.0000 0.0000 0.0000 0.0000 19.8100 0.0000
# 6 0.0000 0.0000 0.0000 0.0000 0.0000 27.2704
#
#
#
# Elastic Compliance Matrix: (Units=1/GPa)
#
#
# Indices 1 2 3 4 5 6 
#
# 1 0.015258 -0.003077 -0.005043 0.000000 0.000000 0.000000
# 2 -0.003077 0.015258 -0.005043 0.000000 0.000000 0.000000
# 3 -0.005043 -0.005043 0.014891 0.000000 0.000000 0.000000
# 4 0.000000 0.000000 0.000000 0.050480 0.000000 0.000000
# 5 0.000000 0.000000 0.000000 0.000000 0.050480 0.000000
# 6 0.000000 0.000000 0.000000 0.000000 0.000000 0.036670
#
#
# Mechanical properties :
#
#
# Convention : Reuss Voigt Hill
#
# Bulk Modulus (GPa) = 52.41631 52.90231 52.65931
# Shear Modulus (GPa) = 23.17791 23.70505 23.44148
#
# Velocity S-wave (km/s) = 3.30261 3.33995 3.32133
# Velocity P-wave (km/s) = 6.26174 6.30626 6.28404
#
# Compressibility (1/GPa) = 0.01907803
#
# Stress axis : x y z
#
# Youngs Moduli (GPa) = 65.54032 65.54032 67.15606
#
# Poissons Ratio (x) = 0.20168 0.33870
# Poissons Ratio (y) = 0.20168 0.33870
# Poissons Ratio (z) = 0.33055 0.33055
#
# Static dielectric constant tensor:
#      x y z
#    x 3.822140 0.000000 0.000000 
#    y 0.000000 3.822140 0.000000 
#    z 0.000000 0.000000 3.902270 
# 
# 
# High freq. dielectric constant tensor:
#      x y z
#    x 1.821910 0.000000 0.000000 
#    y 0.000000 1.821910 0.000000 
#    z 0.000000 0.000000 1.827900 
# 
# From -- ./inp_files/6789.got.cif
#   From: 2010.03.12/outbox.cif.g09.slc.cpg/sg178_4_cif.got.tgz:6789.got - 2010.04.02 07:02:38.
