data_PCOD8325501
_publ_section_title
;
Structure prediction by ZEFSAII (Michael W. Deem and Ramdas Pophale) SiO2 
 PCOD8325501
Probable space group: P 63/M
;
_chemical_formula_sum "Si O2"
_cell_formula_units_Z 64
_cell_length_a 14.452791
_cell_length_b 14.452791
_cell_length_c 18.893235
_cell_angle_alpha 90.000000
_cell_angle_beta 90.000000
_cell_angle_gamma 120.000000
_cell_volume 3417.750874
_symmetry_space_group_name_H-M "P 63/M"
_symmetry_group_IT_number 176
_symmetry_cell_setting 'hexagonal'
loop_
_space_group_symop_operation_xyz
x,y,z
x-y,x,1/2+z
-y,x-y,z
-x,-y,1/2+z
-x+y,-x,z
y,-x+y,1/2+z
-x,-y,-z
-x+y,-x,1/2-z
y,-x+y,-z
x,y,1/2-z
x-y,x,-z
-y,x-y,1/2-z
loop_
_atom_site_type_symbol
_atom_site_label
_atom_site_fract_x
_atom_site_fract_y
_atom_site_fract_z
Si Si1 0.666668 0.333334 0.666208
Si Si2 0.602161 0.098192 0.333795
Si Si3 0.076598 0.840609 0.919036
Si Si4 0.311876 0.444348 0.334165
Si Si5 0.165070 0.729655 0.665934
Si Si6 0.079372 0.836935 0.080914
O O1 0.666667 0.333334 0.750000
O O2 0.674743 0.443291 0.639213
O O3 0.605105 0.103281 0.250000
O O4 0.719231 0.181291 0.363205
O O5 0.523147 0.137231 0.362781
O O6 0.562104 0.977622 0.359175
O O7 0.077755 0.753732 0.867218
O O8 0.963278 0.833158 0.908508
O O9 0.171053 0.956730 0.895937
O O10 0.090570 0.812563 0.999333
O O11 0.295764 0.431569 0.250000
O O12 0.208317 0.347763 0.370810
O O13 0.157821 0.731184 0.750000
#
# Coordination Sequence:
#
# PCOD8325501 Si02
#       6
#     4  12  12  12  12  12
#     4   9  21  36  54  78 111 153 187 215 268 324
#     4   9  18  32  54  81 111 139 172 223 273 318
#     4  10  21  37  57  81 108 144 180 223 281 331
#     4  10  20  37  57  80 109 145 185 226 265 321
#     4  10  19  34  56  84 110 140 181 223 273 326
#     4  10  21  38  57  79 110 143 182 225 276 335
#
# _framework density 18.725766
#
# number of rings (size 3 to 8) (size 9 to 14) (size 15 to 20)
#    0.000    2.250    1.875    0.750    2.625    3.750 
#    0.000    2.812    0.000    2.250    0.000    0.000 
#    0.000    0.000    0.000    0.000    0.000    0.000 
#
# Total GULP energy -793652.494400 kJ/mol
# GULP energy per Si atom -12400.820225 kJ/mol
# Density = 1.868314 g / cm^3
# Si number density = 18.725766 Si / 1000 Ang^3
#
#
#
# Elastic Constant Matrix: (Units=GPa)
#
#
# Indices 1 2 3 4 5 6 
#
# 1 116.9654 43.3923 32.2079 0.0000 0.0000 -0.0002
# 2 43.3923 116.9654 32.2076 0.0000 0.0000 -0.0005
# 3 32.2079 32.2076 34.8362 0.0000 0.0000 0.0001
# 4 0.0000 0.0000 0.0000 23.2347 0.0001 0.0000
# 5 0.0000 0.0000 0.0000 0.0001 23.2347 0.0000
# 6 -0.0002 -0.0005 0.0001 0.0000 0.0000 36.7862
#
#
#
# Elastic Compliance Matrix: (Units=1/GPa)
#
#
# Indices 1 2 3 4 5 6 
#
# 1 0.011756 -0.001836 -0.009172 0.000000 0.000000 0.000000
# 2 -0.001836 0.011756 -0.009172 0.000000 0.000000 0.000000
# 3 -0.009172 -0.009172 0.045665 0.000000 0.000000 0.000000
# 4 0.000000 0.000000 0.000000 0.043039 0.000000 0.000000
# 5 0.000000 0.000000 0.000000 0.000000 0.043039 0.000000
# 6 0.000000 0.000000 0.000000 0.000000 0.000000 0.027184
#
#
# Mechanical properties :
#
#
# Convention : Reuss Voigt Hill
#
# Bulk Modulus (GPa) = 34.69964 53.82026 44.25995
# Shear Modulus (GPa) = 21.51413 27.38173 24.44793
#
# Velocity S-wave (km/s) = 3.39323 3.82808 3.61720
# Velocity P-wave (km/s) = 5.82432 6.95289 6.41347
#
# Compressibility (1/GPa) = 0.02881874
#
# Stress axis : x y z
#
# Youngs Moduli (GPa) = 85.06151 85.06212 21.89839
#
# Poissons Ratio (x) = 0.15615 0.20085
# Poissons Ratio (y) = 0.15615 0.20085
# Poissons Ratio (z) = 0.78018 0.78017
#
# Static dielectric constant tensor:
#      x y z
#    x 3.533040 0.000010 0.000000 
#    y 0.000010 3.533050 0.000000 
#    z 0.000000 0.000000 3.088090 
# 
# 
# High freq. dielectric constant tensor:
#      x y z
#    x 1.736590 0.000000 0.000000 
#    y 0.000000 1.736590 0.000000 
#    z 0.000000 0.000000 1.690650 
# 
# From -- ./inp_files/3300.got.cif
#   From: 2010.06.25/outbox.cif.g09.slc.cpg/sg176_2_cif.got.tgz:3300.got - 2010.06.28 12:15:01.
