data_PCOD8325655
_publ_section_title
;
Structure prediction by ZEFSAII (Michael W. Deem and Ramdas Pophale) SiO2 
 PCOD8325655
Probable space group: P 63/M
;
_chemical_formula_sum "Si O2"
_cell_formula_units_Z 42
_cell_length_a 8.574311
_cell_length_b 8.574311
_cell_length_c 32.351883
_cell_angle_alpha 90.000000
_cell_angle_beta 90.000000
_cell_angle_gamma 120.000000
_cell_volume 2059.817097
_symmetry_space_group_name_H-M "P 63/M"
_symmetry_group_IT_number 176
_symmetry_cell_setting 'hexagonal'
loop_
_space_group_symop_operation_xyz
x,y,z
x-y,x,1/2+z
-y,x-y,z
-x,-y,1/2+z
-x+y,-x,z
y,-x+y,1/2+z
-x,-y,-z
-x+y,-x,1/2-z
y,-x+y,-z
x,y,1/2-z
x-y,x,-z
-y,x-y,1/2-z
loop_
_atom_site_type_symbol
_atom_site_label
_atom_site_fract_x
_atom_site_fract_y
_atom_site_fract_z
Si Si1 0.658675 0.673062 0.417655
Si Si2 0.333334 0.666667 0.943737
Si Si3 0.000000 0.000000 0.048577
Si Si4 0.212891 0.185177 0.750000
Si Si5 0.666667 0.333333 0.542050
Si Si6 0.691641 0.146626 0.827728
O O1 0.722027 0.529481 0.426543
O O2 0.468467 0.604310 0.440292
O O3 0.649713 0.698635 0.368974
O O4 0.800494 0.865666 0.435714
O O5 0.333334 0.666667 0.993050
O O6 0.000000 0.000000 0.000000
O O7 0.328039 0.290224 0.789826
O O8 0.025013 0.188426 0.750000
O O9 0.853979 0.355665 0.826068
#
# Coordination Sequence:
#
# PCOD8325655 Si02
#       6
#    12   4   4   6   4  12
#     4  12  24  42  67  99 135 186 233 288 349 414
#     4  12  27  39  69  97 146 178 240 294 336 411
#     4  12  27  42  66  97 137 187 240 294 348 405
#     4  10  24  38  68 106 126 166 218 278 322 416
#     4  12  21  48  63 100 137 187 234 285 357 405
#     4  10  22  43  69  93 133 179 220 264 352 405
#
# _framework density 20.390160999999999
#
# number of rings (size 3 to 8) (size 9 to 14) (size 15 to 20)
#    0.857    0.000    2.857    5.143    4.000    0.000 
#    0.000    0.000    0.000    4.571    0.000    0.000 
#    0.000    0.000    0.000    0.000    0.000    0.000 
#
# Total GULP energy -520912.396202 kJ/mol
# GULP energy per Si atom -12402.676100 kJ/mol
# Density = 2.034375 g / cm^3
# Si number density = 20.390161 Si / 1000 Ang^3
#
#
#
# Elastic Constant Matrix: (Units=GPa)
#
#
# Indices 1 2 3 4 5 6 
#
# 1 67.1541 12.5711 44.6862 0.0000 0.0000 -0.0001
# 2 12.5711 67.1529 44.6861 0.0000 0.0000 0.0006
# 3 44.6862 44.6861 215.3643 0.0000 0.0000 -0.0003
# 4 0.0000 0.0000 0.0000 22.6742 0.0020 0.0000
# 5 0.0000 0.0000 0.0000 0.0020 22.6730 0.0000
# 6 -0.0001 0.0006 -0.0003 0.0000 0.0000 27.2907
#
#
#
# Elastic Compliance Matrix: (Units=1/GPa)
#
#
# Indices 1 2 3 4 5 6 
#
# 1 0.017333 -0.000988 -0.003391 0.000000 0.000000 0.000000
# 2 -0.000988 0.017333 -0.003391 0.000000 0.000000 0.000000
# 3 -0.003391 -0.003391 0.006051 0.000000 0.000000 0.000000
# 4 0.000000 0.000000 0.000000 0.044103 -0.000004 0.000000
# 5 0.000000 0.000000 0.000000 -0.000004 0.044105 0.000000
# 6 0.000000 0.000000 0.000000 0.000000 0.000000 0.036642
#
#
# Mechanical properties :
#
#
# Convention : Reuss Voigt Hill
#
# Bulk Modulus (GPa) = 39.72201 61.50647 50.61424
# Shear Modulus (GPa) = 26.38510 31.04277 28.71394
#
# Velocity S-wave (km/s) = 3.60114 3.90608 3.75670
# Velocity P-wave (km/s) = 6.06747 7.11151 6.61013
#
# Compressibility (1/GPa) = 0.02517496
#
# Stress axis : x y z
#
# Youngs Moduli (GPa) = 57.69402 57.69294 165.27055
#
# Poissons Ratio (x) = 0.05700 0.56050
# Poissons Ratio (y) = 0.05700 0.56051
# Poissons Ratio (z) = 0.19566 0.19566
#
# Static dielectric constant tensor:
#      x y z
#    x 3.495880 0.000000 0.000000 
#    y 0.000000 3.495880 0.000000 
#    z 0.000000 0.000000 3.669430 
# 
# 
# High freq. dielectric constant tensor:
#      x y z
#    x 1.791700 0.000000 0.000000 
#    y 0.000000 1.791700 0.000000 
#    z 0.000000 0.000000 1.811010 
# 
# From -- ./inp_files/4421.got.cif
#   From: 2010.06.25/outbox.cif.g09.slc.cpg/sg176_3_cif.got.tgz:4421.got - 2010.06.28 12:15:01.
