data_PCOD8325378
_publ_section_title
;
Structure prediction by ZEFSAII (Michael W. Deem and Ramdas Pophale) SiO2 
 PCOD8325378
Probable space group: P 6/M
;
_chemical_formula_sum "Si O2"
_cell_formula_units_Z 60
_cell_length_a 14.606705
_cell_length_b 14.606705
_cell_length_c 14.117869
_cell_angle_alpha 90.000000
_cell_angle_beta 90.000000
_cell_angle_gamma 120.000000
_cell_volume 2608.580815
_symmetry_space_group_name_H-M "P 6/M"
_symmetry_group_IT_number 175
_symmetry_cell_setting 'hexagonal'
loop_
_space_group_symop_operation_xyz
x,y,z
x-y,x,z
-y,x-y,z
-x,-y,z
-x+y,-x,z
y,-x+y,z
-x,-y,-z
-x+y,-x,-z
y,-x+y,-z
x,y,-z
x-y,x,-z
-y,x-y,-z
loop_
_atom_site_type_symbol
_atom_site_label
_atom_site_fract_x
_atom_site_fract_y
_atom_site_fract_z
Si Si1 0.227777 0.074898 0.611917
Si Si2 0.986231 0.785667 0.111034
Si Si3 0.255260 0.462069 0.391117
Si Si4 0.589645 0.121861 0.296910
Si Si5 0.374890 0.924669 0.896463
O O1 0.195394 0.155842 0.658238
O O2 0.211391 0.075695 0.500000
O O3 0.347719 0.109984 0.634833
O O4 0.882148 0.786095 0.154177
O O5 0.983675 0.674657 0.130693
O O6 0.986174 0.803208 0.000000
O O7 0.288630 0.491377 0.500000
O O8 0.346050 0.544521 0.322678
O O9 0.147325 0.463659 0.370716
O O10 0.639680 0.152569 0.190867
O O11 0.500000 0.000000 0.307531
O O12 0.500000 0.000000 0.904670
O O13 0.334262 0.867676 0.000000
#
# Coordination Sequence:
#
# PCOD8325378 Si02
#       5
#    12  12  12  12  12
#     4   9  17  31  54  85 121 160 200 243 296 364
#     4   9  17  32  60  98 138 177 216 263 323 392
#     4  11  23  39  61  91 123 157 205 261 318 383
#     4  11  24  42  65  91 122 163 209 263 327 392
#     4   9  20  39  62  90 127 172 222 273 323 383
#
# _framework density 23.001011999999999
#
# number of rings (size 3 to 8) (size 9 to 14) (size 15 to 20)
#    0.000    2.200    0.000    2.600    0.000    8.000 
#    0.000    3.000    0.000    0.800    0.000    8.400 
#    0.000    0.000    0.000    0.000    0.000    1.000 
#
# Total GULP energy -743527.409576 kJ/mol
# GULP energy per Si atom -12392.123493 kJ/mol
# Density = 2.294866 g / cm^3
# Si number density = 23.001012 Si / 1000 Ang^3
#
#
#
# Elastic Constant Matrix: (Units=GPa)
#
#
# Indices 1 2 3 4 5 6 
#
# 1 118.3751 48.8212 54.6272 0.0000 0.0000 0.0000
# 2 48.8212 118.3751 54.6272 0.0000 0.0000 0.0000
# 3 54.6272 54.6272 89.6288 0.0000 0.0000 0.0000
# 4 0.0000 0.0000 0.0000 23.6189 0.0000 0.0000
# 5 0.0000 0.0000 0.0000 0.0000 23.6189 0.0000
# 6 0.0000 0.0000 0.0000 0.0000 0.0000 34.7769
#
#
#
# Elastic Compliance Matrix: (Units=1/GPa)
#
#
# Indices 1 2 3 4 5 6 
#
# 1 0.012158 -0.002219 -0.006058 0.000000 0.000000 0.000000
# 2 -0.002219 0.012158 -0.006058 0.000000 0.000000 0.000000
# 3 -0.006058 -0.006058 0.018542 0.000000 0.000000 0.000000
# 4 0.000000 0.000000 0.000000 0.042339 0.000000 0.000000
# 5 0.000000 0.000000 0.000000 0.000000 0.042339 0.000000
# 6 0.000000 0.000000 0.000000 0.000000 0.000000 0.028755
#
#
# Mechanical properties :
#
#
# Convention : Reuss Voigt Hill
#
# Bulk Modulus (GPa) = 70.47824 71.39226 70.93525
# Shear Modulus (GPa) = 26.35870 27.62316 26.99093
#
# Velocity S-wave (km/s) = 3.38890 3.46924 3.42931
# Velocity P-wave (km/s) = 6.78386 6.86685 6.82548
#
# Compressibility (1/GPa) = 0.01418878
#
# Stress axis : x y z
#
# Youngs Moduli (GPa) = 82.24717 82.24717 53.93267
#
# Poissons Ratio (x) = 0.18250 0.32673
# Poissons Ratio (y) = 0.18250 0.32673
# Poissons Ratio (z) = 0.49825 0.49825
#
# Static dielectric constant tensor:
#      x y z
#    x 4.115640 0.000000 0.000000 
#    y 0.000000 4.115640 0.000000 
#    z 0.000000 0.000000 4.396770 
# 
# 
# High freq. dielectric constant tensor:
#      x y z
#    x 1.902650 0.000000 0.000000 
#    y 0.000000 1.902650 0.000000 
#    z 0.000000 0.000000 1.910080 
# 
# From -- ./inp_files/2357.got.cif
#   From: 2010.03.12/outbox.cif.g09.slc.cpg/sg175_2_cif.got.tgz:2357.got - 2010.04.02 06:55:29.
