data_PCOD8325293
_publ_section_title
;
Structure prediction by ZEFSAII (Michael W. Deem and Ramdas Pophale) SiO2 
 PCOD8325293
Probable space group: P 6/M
;
_chemical_formula_sum "Si O2"
_cell_formula_units_Z 84
_cell_length_a 17.790065
_cell_length_b 17.790065
_cell_length_c 14.152276
_cell_angle_alpha 90.000000
_cell_angle_beta 90.000000
_cell_angle_gamma 120.000000
_cell_volume 3878.930436
_symmetry_space_group_name_H-M "P 6/M"
_symmetry_group_IT_number 175
_symmetry_cell_setting 'hexagonal'
loop_
_space_group_symop_operation_xyz
x,y,z
x-y,x,z
-y,x-y,z
-x,-y,z
-x+y,-x,z
y,-x+y,z
-x,-y,-z
-x+y,-x,-z
y,-x+y,-z
x,y,-z
x-y,x,-z
-y,x-y,-z
loop_
_atom_site_type_symbol
_atom_site_label
_atom_site_fract_x
_atom_site_fract_y
_atom_site_fract_z
Si Si1 0.489655 0.155124 0.609076
Si Si2 0.190674 0.693997 0.105595
Si Si3 0.492313 0.332339 0.608557
Si Si4 0.832622 0.835689 0.389885
Si Si5 0.996063 0.673448 0.692110
Si Si6 0.363688 0.849553 0.889799
Si Si7 0.995273 0.334181 0.895814
O O1 0.463386 0.127492 0.500000
O O2 0.499654 0.248020 0.630597
O O3 0.581845 0.164091 0.632356
O O4 0.415292 0.083358 0.676539
O O5 0.269552 0.779633 0.154738
O O6 0.168465 0.604315 0.159059
O O7 0.106039 0.702146 0.100911
O O8 0.221697 0.691040 0.000000
O O9 0.465891 0.332700 0.500000
O O10 0.420174 0.333064 0.675055
O O11 0.828558 0.916656 0.343459
O O12 0.849224 0.852217 0.500000
O O13 0.742848 0.747440 0.377780
O O14 0.990712 0.706141 0.799393
O O15 0.386351 0.948692 0.875758
O O16 0.365352 0.834332 0.000000
O O17 0.022964 0.312946 0.000000
#
# Coordination Sequence:
#
# PCOD8325293 Si02
#       7
#    12  12  12  12  12  12  12
#     4  10  21  38  60  87 120 156 192 233 287 352
#     4   9  17  31  52  75  98 129 175 231 286 337
#     4  10  21  38  60  87 120 156 192 233 287 352
#     4  10  21  39  65  97 129 155 179 217 279 353
#     4  12  23  36  59  88 117 153 199 248 289 332
#     4   9  17  31  52  75  98 129 175 231 286 337
#     4  10  23  40  54  73 109 154 196 240 291 338
#
# _framework density 21.655453999999999
#
# number of rings (size 3 to 8) (size 9 to 14) (size 15 to 20)
#    0.000    2.000    0.000    3.714    0.000   12.571 
#    0.000    0.000    0.000    3.429    0.000    0.000 
#    0.000    1.143    0.000    0.000    0.000    0.000 
#
# Total GULP energy -1040751.295838 kJ/mol
# GULP energy per Si atom -12389.896379 kJ/mol
# Density = 2.160617 g / cm^3
# Si number density = 21.655454 Si / 1000 Ang^3
#
#
#
# Elastic Constant Matrix: (Units=GPa)
#
#
# Indices 1 2 3 4 5 6 
#
# 1 98.0754 31.3544 22.6371 0.0000 0.0000 0.0000
# 2 31.3544 98.0754 22.6371 0.0000 0.0000 0.0000
# 3 22.6371 22.6371 91.4831 0.0000 0.0000 0.0000
# 4 0.0000 0.0000 0.0000 0.6065 0.0000 0.0000
# 5 0.0000 0.0000 0.0000 0.0000 0.6065 0.0000
# 6 0.0000 0.0000 0.0000 0.0000 0.0000 33.3605
#
#
#
# Elastic Compliance Matrix: (Units=1/GPa)
#
#
# Indices 1 2 3 4 5 6 
#
# 1 0.011723 -0.003265 -0.002093 0.000000 0.000000 0.000000
# 2 -0.003265 0.011723 -0.002093 0.000000 0.000000 0.000000
# 3 -0.002093 -0.002093 0.011967 0.000000 0.000000 0.000000
# 4 0.000000 0.000000 0.000000 1.648845 0.000000 0.000000
# 5 0.000000 0.000000 0.000000 0.000000 1.648845 0.000000
# 6 0.000000 0.000000 0.000000 0.000000 0.000000 0.029976
#
#
# Mechanical properties :
#
#
# Convention : Reuss Voigt Hill
#
# Bulk Modulus (GPa) = 48.75315 48.98793 48.87054
# Shear Modulus (GPa) = 1.47718 20.98170 11.22944
#
# Velocity S-wave (km/s) = 0.82681 3.11607 2.27964
# Velocity P-wave (km/s) = 4.84494 5.96801 5.43556
#
# Compressibility (1/GPa) = 0.02051150
#
# Stress axis : x y z
#
# Youngs Moduli (GPa) = 85.30201 85.30201 83.56470
#
# Poissons Ratio (x) = 0.27849 0.17490
# Poissons Ratio (y) = 0.27849 0.17490
# Poissons Ratio (z) = 0.17854 0.17854
#
# Static dielectric constant tensor:
#      x y z
#    x 3.906820 0.000000 0.000000 
#    y 0.000000 3.906820 0.000000 
#    z 0.000000 0.000000 4.051630 
# 
# 
# High freq. dielectric constant tensor:
#      x y z
#    x 1.842940 0.000000 0.000000 
#    y 0.000000 1.842940 0.000000 
#    z 0.000000 0.000000 1.845870 
# 
# From -- ./inp_files/2637.got.cif
#   From: 2010.03.12/outbox.cif.g09.slc.cpg/sg175_2_cif.got.tgz:2637.got - 2010.04.02 06:55:29.
