data_PCOD8325984
_publ_section_title
;
Structure prediction by ZEFSAII (Michael W. Deem and Ramdas Pophale) SiO2 
 PCOD8325984
Probable space group: P 61 2 2
;
_chemical_formula_sum "Si O2"
_cell_formula_units_Z 36
_cell_length_a 7.976967
_cell_length_b 7.976967
_cell_length_c 24.629836
_cell_angle_alpha 90.000000
_cell_angle_beta 90.000000
_cell_angle_gamma 120.000000
_cell_volume 1357.274665
_symmetry_space_group_name_H-M "P 61 2 2"
_symmetry_group_IT_number 178
_symmetry_cell_setting 'hexagonal'
loop_
_space_group_symop_operation_xyz
x,y,z
x-y,x,1/6+z
-y,x-y,1/3+z
-x,-y,1/2+z
-x+y,-x,2/3+z
y,-x+y,5/6+z
x-y,-y,-z
-x,-x+y,2/3-z
y,x,1/3-z
-y,-x,5/6-z
-x+y,y,1/2-z
x,x-y,1/6-z
loop_
_atom_site_type_symbol
_atom_site_label
_atom_site_fract_x
_atom_site_fract_y
_atom_site_fract_z
Si Si1 0.216526 0.497841 0.312133
Si Si2 0.145759 0.417794 0.514507
Si Si3 0.124041 0.200417 0.883800
O O1 0.221083 0.442166 0.250000
O O2 0.328703 0.411789 0.346290
O O3 0.347268 0.730528 0.324311
O O4 0.000000 0.416910 0.333334
O O5 0.211820 0.320749 0.468765
O O6 0.202587 0.375561 0.574716
O O7 0.000000 0.210369 0.833334
O O8 0.001306 0.998695 0.916667
#
# Coordination Sequence:
#
# PCOD8325984 Si02
#       3
#    12  12  12
#     4  12  29  51  75 114 156 199 258 323 385 460
#     4  11  24  45  79 105 158 203 250 318 392 454
#     4   9  19  41  74 118 154 203 258 317 385 462
#
# _framework density 26.523743
#
# number of rings (size 3 to 8) (size 9 to 14) (size 15 to 20)
#    0.000    1.333    0.000    6.000    4.667    5.333 
#   12.000    1.667    0.000    0.000    0.000    0.000 
#    0.000    0.000    0.000    0.000    0.000    0.000 
#
# Total GULP energy -446344.980471 kJ/mol
# GULP energy per Si atom -12398.471680 kJ/mol
# Density = 2.646337 g / cm^3
# Si number density = 26.523743 Si / 1000 Ang^3
#
#
#
# Elastic Constant Matrix: (Units=GPa)
#
#
# Indices 1 2 3 4 5 6 
#
# 1 158.3105 58.4174 36.9940 0.0000 0.0000 0.0000
# 2 58.4174 158.3105 36.9940 0.0000 0.0000 0.0000
# 3 36.9940 36.9940 154.7922 0.0000 0.0000 0.0000
# 4 0.0000 0.0000 0.0000 24.1498 0.0000 0.0000
# 5 0.0000 0.0000 0.0000 0.0000 24.1498 0.0000
# 6 0.0000 0.0000 0.0000 0.0000 0.0000 49.9465
#
#
#
# Elastic Compliance Matrix: (Units=1/GPa)
#
#
# Indices 1 2 3 4 5 6 
#
# 1 0.007517 -0.002493 -0.001201 0.000000 0.000000 0.000000
# 2 -0.002493 0.007517 -0.001201 0.000000 0.000000 0.000000
# 3 -0.001201 -0.001201 0.007034 0.000000 0.000000 0.000000
# 4 0.000000 0.000000 0.000000 0.041408 0.000000 0.000000
# 5 0.000000 0.000000 0.000000 0.000000 0.041408 0.000000
# 6 0.000000 0.000000 0.000000 0.000000 0.000000 0.020021
#
#
# Mechanical properties :
#
#
# Convention : Reuss Voigt Hill
#
# Bulk Modulus (GPa) = 81.43727 81.80266 81.61997
# Shear Modulus (GPa) = 36.02587 42.24975 39.13781
#
# Velocity S-wave (km/s) = 3.68944 3.99545 3.84549
# Velocity P-wave (km/s) = 6.99425 7.22448 7.11029
#
# Compressibility (1/GPa) = 0.01227939
#
# Stress axis : x y z
#
# Youngs Moduli (GPa) = 133.02570 133.02570 142.16289
#
# Poissons Ratio (x) = 0.33168 0.17069
# Poissons Ratio (y) = 0.33168 0.17069
# Poissons Ratio (z) = 0.15972 0.15972
#
# Static dielectric constant tensor:
#      x y z
#    x 4.763320 0.000000 0.000000 
#    y 0.000000 4.763320 0.000000 
#    z 0.000000 0.000000 5.087860 
# 
# 
# High freq. dielectric constant tensor:
#      x y z
#    x 2.062940 0.000000 0.000000 
#    y 0.000000 2.062940 0.000000 
#    z 0.000000 0.000000 2.079460 
# 
# From -- ./inp_files/8493.got.cif
#   From: 2010.03.12/outbox.cif.g09.slc.cpg/sg178_5_cif.got.tgz:8493.got - 2010.04.02 07:02:38.
