data_PCOD8325152
_publ_section_title
;
Structure prediction by ZEFSAII (Michael W. Deem and Ramdas Pophale) SiO2 
 PCOD8325152
Probable space group: P 6/M
;
_chemical_formula_sum "Si O2"
_cell_formula_units_Z 74
_cell_length_a 12.578486
_cell_length_b 12.578486
_cell_length_c 28.010747
_cell_angle_alpha 90.000000
_cell_angle_beta 90.000000
_cell_angle_gamma 120.000000
_cell_volume 3838.062689
_symmetry_space_group_name_H-M "P 6/M"
_symmetry_group_IT_number 175
_symmetry_cell_setting 'hexagonal'
loop_
_space_group_symop_operation_xyz
x,y,z
x-y,x,z
-y,x-y,z
-x,-y,z
-x+y,-x,z
y,-x+y,z
-x,-y,-z
-x+y,-x,-z
y,-x+y,-z
x,y,-z
x-y,x,-z
-y,x-y,-z
loop_
_atom_site_type_symbol
_atom_site_label
_atom_site_fract_x
_atom_site_fract_y
_atom_site_fract_z
Si Si1 0.953081 0.219716 0.944802
Si Si2 0.788243 0.721783 0.603406
Si Si3 0.737327 0.972346 0.775433
Si Si4 0.065142 0.792797 0.500000
Si Si5 0.666667 0.333334 0.835709
Si Si6 0.355920 0.438819 0.862299
Si Si7 0.333334 0.666668 0.722526
Si Si8 0.914876 0.356772 0.689966
O O1 0.931965 0.316534 0.915209
O O2 0.082533 0.232321 0.931459
O O3 0.946879 0.249443 0.000000
O O4 0.768722 0.837275 0.610814
O O5 0.739572 0.657670 0.550617
O O6 0.710958 0.616893 0.640958
O O7 0.766239 0.863675 0.771877
O O8 0.671531 0.964591 0.825028
O O9 0.656386 0.973959 0.731889
O O10 0.934963 0.780450 0.500000
O O11 0.774886 0.312272 0.854523
O O12 0.666668 0.333334 0.779175
O O13 0.500000 0.500000 0.855860
O O14 0.459109 0.777810 0.703922
O O15 0.000000 0.500000 0.681412
#
# Coordination Sequence:
#
# PCOD8325152 Si02
#       8
#    12  12  12   6   4  12   4  12
#     4  10  21  40  66  95 126 160 199 245 299 358
#     4  10  19  35  58  89 122 155 194 242 299 358
#     4  12  24  40  61  88 119 152 192 244 303 360
#     4   8  15  28  53  84 118 154 191 236 292 356
#     4  12  24  42  64  88 118 163 207 249 298 350
#     4  12  25  41  63  90 122 160 204 249 297 352
#     4  12  24  42  63  83 116 159 207 252 289 353
#     4  12  25  40  60  85 115 156 203 250 298 351
#
# _framework density 19.280560999999999
#
# number of rings (size 3 to 8) (size 9 to 14) (size 15 to 20)
#    0.000    0.973    1.622    6.892    0.000    2.270 
#    0.000    4.459    0.000    0.973    0.000    0.000 
#    0.000    0.000    0.000    0.000    0.000    0.000 
#
# Total GULP energy -917732.704414 kJ/mol
# GULP energy per Si atom -12401.793303 kJ/mol
# Density = 1.923668 g / cm^3
# Si number density = 19.280561 Si / 1000 Ang^3
#
#
#
# Elastic Constant Matrix: (Units=GPa)
#
#
# Indices 1 2 3 4 5 6 
#
# 1 100.4069 24.4272 37.4943 0.0000 0.0000 -0.0002
# 2 24.4272 100.4081 37.4951 0.0000 0.0000 0.0000
# 3 37.4943 37.4951 109.6567 0.0000 0.0000 -0.0001
# 4 0.0000 0.0000 0.0000 -156.5555 -0.4625 0.0000
# 5 0.0000 0.0000 0.0000 -0.4625 -156.3553 0.0000
# 6 -0.0002 0.0000 -0.0001 0.0000 0.0000 37.9897
#
#
#
# Elastic Compliance Matrix: (Units=1/GPa)
#
#
# Indices 1 2 3 4 5 6 
#
# 1 0.011621 -0.001540 -0.003447 0.000000 0.000000 0.000000
# 2 -0.001540 0.011621 -0.003447 0.000000 0.000000 0.000000
# 3 -0.003447 -0.003447 0.011477 0.000000 0.000000 0.000000
# 4 0.000000 0.000000 0.000000 -0.006388 0.000019 0.000000
# 5 0.000000 0.000000 0.000000 0.000019 -0.006396 0.000000
# 6 0.000000 0.000000 0.000000 0.000000 0.000000 0.026323
#
#
# Mechanical properties :
#
#
# Convention : Reuss Voigt Hill
#
# Bulk Modulus (GPa) = 56.01945 56.58944 56.30444
# Shear Modulus (GPa) = 70.34579 -40.91387 14.71596
#
# Velocity S-wave (km/s) = 6.04686 -4.61154 2.76570
# Velocity P-wave (km/s) = 8.82444 1.02914 6.28211
#
# Compressibility (1/GPa) = 0.01785094
#
# Stress axis : x y z
#
# Youngs Moduli (GPa) = 86.04859 86.04933 87.13329
#
# Poissons Ratio (x) = 0.13252 0.30035
# Poissons Ratio (y) = 0.13252 0.30036
# Poissons Ratio (z) = 0.29661 0.29662
#
# Static dielectric constant tensor:
#      x y z
#    x 3.678880 -0.000030 0.000000 
#    y -0.000030 3.678860 0.000000 
#    z 0.000000 0.000000 3.936610 
# 
# 
# High freq. dielectric constant tensor:
#      x y z
#    x 1.754720 0.000000 0.000000 
#    y 0.000000 1.754720 0.000000 
#    z 0.000000 0.000000 1.767180 
# 
# From -- ./inp_files/3392.got.cif
#   From: 2010.03.12/outbox.cif.g09.slc.cpg/sg175_2_cif.got.tgz:3392.got - 2010.04.02 06:55:29.
