data_PCOD8325146
_publ_section_title
;
Structure prediction by ZEFSAII (Michael W. Deem and Ramdas Pophale) SiO2 
 PCOD8325146
Probable space group: P 6/M
;
_chemical_formula_sum "Si O2"
_cell_formula_units_Z 76
_cell_length_a 16.280927
_cell_length_b 16.280927
_cell_length_c 17.802183
_cell_angle_alpha 90.000000
_cell_angle_beta 90.000000
_cell_angle_gamma 120.000000
_cell_volume 4086.600190
_symmetry_space_group_name_H-M "P 6/M"
_symmetry_group_IT_number 175
_symmetry_cell_setting 'hexagonal'
loop_
_space_group_symop_operation_xyz
x,y,z
x-y,x,z
-y,x-y,z
-x,-y,z
-x+y,-x,z
y,-x+y,z
-x,-y,-z
-x+y,-x,-z
y,-x+y,-z
x,y,-z
x-y,x,-z
-y,x-y,-z
loop_
_atom_site_type_symbol
_atom_site_label
_atom_site_fract_x
_atom_site_fract_y
_atom_site_fract_z
Si Si1 0.557491 0.140457 0.151028
Si Si2 0.018840 0.384189 0.911235
Si Si3 0.111591 0.555823 0.320818
Si Si4 0.893315 0.604260 0.586710
Si Si5 0.666668 0.333334 0.087309
Si Si6 0.980320 0.804262 0.910813
Si Si7 0.710875 0.604404 0.413304
O O1 0.447673 0.066758 0.135660
O O2 0.579895 0.157773 0.239001
O O3 0.575918 0.238510 0.116589
O O4 0.628753 0.111608 0.110501
O O5 0.030981 0.296004 0.885062
O O6 0.998686 0.380833 0.000000
O O7 0.144033 0.491555 0.365747
O O8 0.143888 0.652414 0.365883
O O9 0.000000 0.500000 0.310735
O O10 0.891199 0.576192 0.500000
O O11 0.822717 0.645528 0.601637
O O12 0.999890 0.684465 0.610229
O O13 0.666667 0.333334 0.000000
O O14 0.891543 0.812710 0.879244
O O15 0.980774 0.808800 0.000000
O O16 0.684913 0.576405 0.500000
#
# Coordination Sequence:
#
# PCOD8325146 Si02
#       7
#    12  12  12  12   4  12  12
#     4  11  23  38  54  78 106 145 189 238 279 323
#     4  10  20  38  58  76 103 143 186 228 280 340
#     4  10  19  35  54  80 111 144 180 225 277 323
#     4   9  18  33  56  83 114 149 182 217 263 324
#     4  12  27  39  54  75 106 149 193 243 285 330
#     4   9  18  32  56  85 109 131 163 218 282 345
#     4   9  18  33  56  83 114 149 182 217 263 324
#
# _framework density 18.597366999999998
#
# number of rings (size 3 to 8) (size 9 to 14) (size 15 to 20)
#    0.000    2.211    1.579    2.526    4.421    2.526 
#    0.947    0.000    0.000    0.316    0.000    2.211 
#    0.000    0.000    0.000    0.000    0.000    0.000 
#
# Total GULP energy -942314.991773 kJ/mol
# GULP energy per Si atom -12398.881471 kJ/mol
# Density = 1.855504 g / cm^3
# Si number density = 18.597367 Si / 1000 Ang^3
#
#
#
# Elastic Constant Matrix: (Units=GPa)
#
#
# Indices 1 2 3 4 5 6 
#
# 1 101.3084 47.8041 29.4450 0.0000 0.0000 -0.0010
# 2 47.8041 101.3077 29.4443 0.0000 0.0000 0.0009
# 3 29.4450 29.4443 83.6364 0.0000 0.0000 -0.0003
# 4 0.0000 0.0000 0.0000 15.2926 -0.0002 0.0000
# 5 0.0000 0.0000 0.0000 -0.0002 15.2919 0.0000
# 6 -0.0010 0.0009 -0.0003 0.0000 0.0000 26.7518
#
#
#
# Elastic Compliance Matrix: (Units=1/GPa)
#
#
# Indices 1 2 3 4 5 6 
#
# 1 0.013240 -0.005450 -0.002742 0.000000 0.000000 0.000001
# 2 -0.005450 0.013240 -0.002742 0.000000 0.000000 -0.000001
# 3 -0.002742 -0.002742 0.013887 0.000000 0.000000 0.000000
# 4 0.000000 0.000000 0.000000 0.065391 0.000001 0.000000
# 5 0.000000 0.000000 0.000000 0.000001 0.065394 0.000000
# 6 0.000001 -0.000001 0.000000 0.000000 0.000000 0.037381
#
#
# Mechanical properties :
#
#
# Convention : Reuss Voigt Hill
#
# Bulk Modulus (GPa) = 54.06288 55.51549 54.78918
# Shear Modulus (GPa) = 21.13554 23.43788 22.28671
#
# Velocity S-wave (km/s) = 3.37483 3.55389 3.46552
# Velocity P-wave (km/s) = 6.65727 6.83786 6.74817
#
# Compressibility (1/GPa) = 0.01849698
#
# Stress axis : x y z
#
# Youngs Moduli (GPa) = 75.53000 75.52982 72.00776
#
# Poissons Ratio (x) = 0.41167 0.19747
# Poissons Ratio (y) = 0.41167 0.19746
# Poissons Ratio (z) = 0.20713 0.20712
#
# Static dielectric constant tensor:
#      x y z
#    x 3.253640 -0.000290 0.000000 
#    y -0.000290 3.253940 0.000000 
#    z 0.000000 0.000000 3.415120 
# 
# 
# High freq. dielectric constant tensor:
#      x y z
#    x 1.716680 0.000000 0.000000 
#    y 0.000000 1.716680 0.000000 
#    z 0.000000 0.000000 1.707370 
# 
# From -- ./inp_files/2565.got.cif
#   From: 2010.03.12/outbox.cif.g09.slc.cpg/sg175_2_cif.got.tgz:2565.got - 2010.04.02 06:55:29.
