data_PCOD8325563
_publ_section_title
;
Structure prediction by ZEFSAII (Michael W. Deem and Ramdas Pophale) SiO2 
 PCOD8325563
Probable space group: P 63/M
;
_chemical_formula_sum "Si O2"
_cell_formula_units_Z 80
_cell_length_a 17.140857
_cell_length_b 17.140857
_cell_length_c 17.485194
_cell_angle_alpha 90.000000
_cell_angle_beta 90.000000
_cell_angle_gamma 120.000000
_cell_volume 4449.038362
_symmetry_space_group_name_H-M "P 63/M"
_symmetry_group_IT_number 176
_symmetry_cell_setting 'hexagonal'
loop_
_space_group_symop_operation_xyz
x,y,z
x-y,x,1/2+z
-y,x-y,z
-x,-y,1/2+z
-x+y,-x,z
y,-x+y,1/2+z
-x,-y,-z
-x+y,-x,1/2-z
y,-x+y,-z
x,y,1/2-z
x-y,x,-z
-y,x-y,1/2-z
loop_
_atom_site_type_symbol
_atom_site_label
_atom_site_fract_x
_atom_site_fract_y
_atom_site_fract_z
Si Si1 0.800500 0.626262 0.533656
Si Si2 0.666668 0.333334 0.072880
Si Si3 0.006622 0.328109 0.470900
Si Si4 0.443026 0.079434 0.164230
Si Si5 0.666668 0.333334 0.891440
Si Si6 0.475694 0.260187 0.115649
Si Si7 0.447693 0.414543 0.393091
Si Si8 0.677595 0.510596 0.662094
O O1 0.758672 0.690350 0.517094
O O2 0.907817 0.685594 0.533651
O O3 0.766412 0.552244 0.467427
O O4 0.766614 0.574917 0.613959
O O5 0.580349 0.334049 0.107304
O O6 0.666668 0.333334 0.981921
O O7 0.023941 0.418254 0.517363
O O8 0.980055 0.332154 0.383524
O O9 0.433764 0.040351 0.250000
O O10 0.459880 0.180917 0.173621
O O11 0.520921 0.074954 0.116702
O O12 0.766242 0.359659 0.861112
O O13 0.425504 0.315809 0.141057
O O14 0.397355 0.459851 0.350729
O O15 0.706006 0.524432 0.750000
#
# Coordination Sequence:
#
# PCOD8325563 Si02
#       8
#    12   4  12  12   4  12  12  12
#     4   9  19  36  57  79  99 139 175 219 264 320
#     4  12  18  34  56  76  96 139 188 229 270 304
#     4   9  20  36  57  76 103 135 180 220 263 325
#     4  11  22  32  49  77 106 137 174 225 275 314
#     4  12  25  37  54  79 109 139 188 232 277 322
#     4  10  20  36  53  74 102 137 187 227 261 311
#     4  10  21  37  55  73 102 146 188 220 264 319
#     4  11  23  36  51  77 112 145 177 222 276 327
#
# _framework density 17.981414999999998
#
# number of rings (size 3 to 8) (size 9 to 14) (size 15 to 20)
#    0.000    1.800    3.000    1.350    2.100    1.800 
#    0.000    0.000    0.000    0.300    0.000    0.000 
#    0.000    0.000    0.000    0.900    0.000    0.000 
#
# Total GULP energy -991485.495278 kJ/mol
# GULP energy per Si atom -12393.568691 kJ/mol
# Density = 1.794049 g / cm^3
# Si number density = 17.981415 Si / 1000 Ang^3
#
#
#
# Elastic Constant Matrix: (Units=GPa)
#
#
# Indices 1 2 3 4 5 6 
#
# 1 103.7703 54.7833 30.2716 0.0000 0.0000 -0.0001
# 2 54.7833 103.7704 30.2712 0.0000 0.0000 0.0001
# 3 30.2716 30.2712 90.3049 0.0000 0.0000 0.0000
# 4 0.0000 0.0000 0.0000 14.4444 0.0002 0.0000
# 5 0.0000 0.0000 0.0000 0.0002 14.4441 0.0000
# 6 -0.0001 0.0001 0.0000 0.0000 0.0000 24.4934
#
#
#
# Elastic Compliance Matrix: (Units=1/GPa)
#
#
# Indices 1 2 3 4 5 6 
#
# 1 0.013823 -0.006590 -0.002425 0.000000 0.000000 0.000000
# 2 -0.006590 0.013823 -0.002424 0.000000 0.000000 0.000000
# 3 -0.002425 -0.002424 0.012699 0.000000 0.000000 0.000000
# 4 0.000000 0.000000 0.000000 0.069231 -0.000001 0.000000
# 5 0.000000 0.000000 0.000000 -0.000001 0.069233 0.000000
# 6 0.000000 0.000000 0.000000 0.000000 0.000000 0.040827
#
#
# Mechanical properties :
#
#
# Convention : Reuss Voigt Hill
#
# Bulk Modulus (GPa) = 57.25231 58.72199 57.98715
# Shear Modulus (GPa) = 20.13392 22.84434 21.48913
#
# Velocity S-wave (km/s) = 3.34983 3.56819 3.46074
# Velocity P-wave (km/s) = 6.84622 7.05010 6.94891
#
# Compressibility (1/GPa) = 0.01746654
#
# Stress axis : x y z
#
# Youngs Moduli (GPa) = 72.34211 72.34240 78.74595
#
# Poissons Ratio (x) = 0.47676 0.19093
# Poissons Ratio (y) = 0.47676 0.19092
# Poissons Ratio (z) = 0.17540 0.17539
#
# Static dielectric constant tensor:
#      x y z
#    x 3.314840 0.000000 0.000000 
#    y 0.000000 3.314840 0.000000 
#    z 0.000000 0.000000 3.213480 
# 
# 
# High freq. dielectric constant tensor:
#      x y z
#    x 1.683050 0.000000 0.000000 
#    y 0.000000 1.683050 0.000000 
#    z 0.000000 0.000000 1.692990 
# 
# From -- ./inp_files/3518.got.cif
#   From: 2010.06.25/outbox.cif.g09.slc.cpg/sg176_2_cif.got.tgz:3518.got - 2010.06.28 12:15:01.
