data_PCOD8325138
_publ_section_title
;
Structure prediction by ZEFSAII (Michael W. Deem and Ramdas Pophale) SiO2 
 PCOD8325138
Probable space group: P 6/M
;
_chemical_formula_sum "Si O2"
_cell_formula_units_Z 78
_cell_length_a 24.148400
_cell_length_b 24.148400
_cell_length_c 7.889483
_cell_angle_alpha 90.000000
_cell_angle_beta 90.000000
_cell_angle_gamma 120.000000
_cell_volume 3984.335477
_symmetry_space_group_name_H-M "P 6/M"
_symmetry_group_IT_number 175
_symmetry_cell_setting 'hexagonal'
loop_
_space_group_symop_operation_xyz
x,y,z
x-y,x,z
-y,x-y,z
-x,-y,z
-x+y,-x,z
y,-x+y,z
-x,-y,-z
-x+y,-x,-z
y,-x+y,-z
x,y,-z
x-y,x,-z
-y,x-y,-z
loop_
_atom_site_type_symbol
_atom_site_label
_atom_site_fract_x
_atom_site_fract_y
_atom_site_fract_z
Si Si1 0.544271 0.655729 0.309317
Si Si2 0.985140 0.672216 0.188206
Si Si3 0.930417 0.453032 0.192512
Si Si4 0.169495 0.915818 0.198037
Si Si5 0.795658 0.184592 0.697021
Si Si6 0.422820 0.103461 0.690492
Si Si7 0.942535 0.845945 0.500000
O O1 0.519003 0.649175 0.500000
O O2 0.609052 0.651749 0.305444
O O3 0.486432 0.599195 0.204977
O O4 0.566386 0.724824 0.226172
O O5 0.969370 0.726854 0.249075
O O6 0.059905 0.696638 0.188065
O O7 0.956798 0.651461 0.000000
O O8 0.895647 0.384625 0.282430
O O9 0.000000 0.500000 0.276325
O O10 0.940665 0.440099 0.000000
O O11 0.165764 0.847041 0.216644
O O12 0.122684 0.924793 0.328839
O O13 0.153245 0.923267 0.000000
O O14 0.789325 0.165439 0.500000
O O15 0.826811 0.259919 0.727242
O O16 0.398905 0.082500 0.500000
O O17 0.899524 0.880976 0.500000
#
# Coordination Sequence:
#
# PCOD8325138 Si02
#       7
#    12  12  12  12  12  12   6
#     4  10  19  34  56  77 110 156 201 238 292 357
#     4  10  20  33  52  86 123 154 188 238 297 360
#     4  11  22  35  51  78 118 157 196 242 291 348
#     4  10  23  41  68  98 126 161 202 249 315 381
#     4   9  20  38  59  89 125 158 196 255 311 363
#     4  11  22  33  56  86 120 156 198 244 301 360
#     4  12  29  50  72  92 124 161 213 259 309 361
#
# _framework density 19.576664999999998
#
# number of rings (size 3 to 8) (size 9 to 14) (size 15 to 20)
#    0.000    1.692    2.308    1.923    4.308    3.077 
#    0.000    0.000    0.000    1.538    0.000    2.154 
#    0.000    0.000    0.000    0.000    0.000    0.000 
#
# Total GULP energy -966457.208518 kJ/mol
# GULP energy per Si atom -12390.477032 kJ/mol
# Density = 1.953211 g / cm^3
# Si number density = 19.576665 Si / 1000 Ang^3
#
#
#
# Elastic Constant Matrix: (Units=GPa)
#
#
# Indices 1 2 3 4 5 6 
#
# 1 119.6114 64.9132 32.3704 0.0000 0.0000 0.0000
# 2 64.9132 119.6114 32.3704 0.0000 0.0000 0.0000
# 3 32.3704 32.3704 67.9510 0.0000 0.0000 0.0000
# 4 0.0000 0.0000 0.0000 19.4398 0.0000 0.0000
# 5 0.0000 0.0000 0.0000 0.0000 19.4398 0.0000
# 6 0.0000 0.0000 0.0000 0.0000 0.0000 27.3491
#
#
#
# Elastic Compliance Matrix: (Units=1/GPa)
#
#
# Indices 1 2 3 4 5 6 
#
# 1 0.012395 -0.005888 -0.003100 0.000000 0.000000 0.000000
# 2 -0.005888 0.012395 -0.003100 0.000000 0.000000 0.000000
# 3 -0.003100 -0.003100 0.017670 0.000000 0.000000 0.000000
# 4 0.000000 0.000000 0.000000 0.051441 0.000000 0.000000
# 5 0.000000 0.000000 0.000000 0.000000 0.051441 0.000000
# 6 0.000000 0.000000 0.000000 0.000000 0.000000 0.036564
#
#
# Mechanical properties :
#
#
# Convention : Reuss Voigt Hill
#
# Bulk Modulus (GPa) = 54.69083 62.94240 58.81661
# Shear Modulus (GPa) = 23.56557 25.08039 24.32298
#
# Velocity S-wave (km/s) = 3.47329 3.58318 3.52866
# Velocity P-wave (km/s) = 6.63945 7.02428 6.83457
#
# Compressibility (1/GPa) = 0.01828460
#
# Stress axis : x y z
#
# Youngs Moduli (GPa) = 80.68091 80.68091 56.59376
#
# Poissons Ratio (x) = 0.47502 0.17543
# Poissons Ratio (y) = 0.47502 0.17543
# Poissons Ratio (z) = 0.25009 0.25009
#
# Static dielectric constant tensor:
#      x y z
#    x 3.501010 0.000000 0.000000 
#    y 0.000000 3.501010 0.000000 
#    z 0.000000 0.000000 3.584030 
# 
# 
# High freq. dielectric constant tensor:
#      x y z
#    x 1.745550 0.000000 0.000000 
#    y 0.000000 1.745550 0.000000 
#    z 0.000000 0.000000 1.767920 
# 
# From -- ./inp_files/1365.got.cif
#   From: 2010.03.12/outbox.cif.g09.slc.cpg/sg175_1_cif.got.tgz:1365.got - 2010.04.02 06:55:29.
