data_PCOD8325621
_publ_section_title
;
Structure prediction by ZEFSAII (Michael W. Deem and Ramdas Pophale) SiO2 
 PCOD8325621
Probable space group: P 63/M
;
_chemical_formula_sum "Si O2"
_cell_formula_units_Z 70
_cell_length_a 15.489406
_cell_length_b 15.489406
_cell_length_c 16.339209
_cell_angle_alpha 90.000000
_cell_angle_beta 90.000000
_cell_angle_gamma 120.000000
_cell_volume 3394.932834
_symmetry_space_group_name_H-M "P 63/M"
_symmetry_group_IT_number 176
_symmetry_cell_setting 'hexagonal'
loop_
_space_group_symop_operation_xyz
x,y,z
x-y,x,1/2+z
-y,x-y,z
-x,-y,1/2+z
-x+y,-x,z
y,-x+y,1/2+z
-x,-y,-z
-x+y,-x,1/2-z
y,-x+y,-z
x,y,1/2-z
x-y,x,-z
-y,x-y,1/2-z
loop_
_atom_site_type_symbol
_atom_site_label
_atom_site_fract_x
_atom_site_fract_y
_atom_site_fract_z
Si Si1 0.121101 0.099717 0.250000
Si Si2 0.874503 0.655799 0.958792
Si Si3 0.557575 0.610795 0.841153
Si Si4 0.397885 0.398595 0.654350
Si Si5 0.538234 0.793696 0.904985
Si Si6 0.666667 0.333334 0.348843
Si Si7 0.750755 0.985902 0.111125
O O1 0.189490 0.153655 0.170835
O O2 0.087619 0.981773 0.250000
O O3 0.854336 0.729789 0.905097
O O4 0.914043 0.599915 0.900606
O O5 0.770255 0.571125 0.000221
O O6 0.951783 0.723964 0.028161
O O7 0.517710 0.585551 0.750000
O O8 0.487068 0.503417 0.883847
O O9 0.547384 0.704154 0.867101
O O10 0.675163 0.649349 0.848836
O O11 0.410764 0.380652 0.750000
O O12 0.291378 0.392598 0.640189
O O13 0.424880 0.767249 0.887233
O O14 0.666667 0.333334 0.250000
#
# Coordination Sequence:
#
# PCOD8325621 Si02
#       7
#     6  12  12  12  12   4  12
#     4  10  26  44  70  96 120 174 228 278 334 392
#     4  11  26  43  62  95 134 175 218 270 333 395
#     4  10  21  38  64  95 128 167 211 264 321 384
#     4  11  23  41  67  99 130 173 219 266 323 398
#     4  11  22  38  63  94 135 169 205 265 328 392
#     4  12  21  36  66 102 139 170 214 264 330 384
#     4  11  24  44  65  94 131 170 218 275 333 391
#
# _framework density 20.618964999999999
#
# number of rings (size 3 to 8) (size 9 to 14) (size 15 to 20)
#    0.171    1.029    4.286    1.543    3.600    4.114 
#    0.000    0.857    0.000    0.686    0.000    0.000 
#    0.000    0.000    0.000    0.000    0.000    0.000 
#
# Total GULP energy -867397.814171 kJ/mol
# GULP energy per Si atom -12391.397345 kJ/mol
# Density = 2.057204 g / cm^3
# Si number density = 20.618965 Si / 1000 Ang^3
#
#
#
# Elastic Constant Matrix: (Units=GPa)
#
#
# Indices 1 2 3 4 5 6 
#
# 1 76.6995 22.4498 29.8491 0.0000 0.0000 -0.0001
# 2 22.4498 76.6987 29.8488 0.0000 0.0000 0.0001
# 3 29.8491 29.8488 89.0077 0.0000 0.0000 0.0000
# 4 0.0000 0.0000 0.0000 28.7627 0.0000 0.0000
# 5 0.0000 0.0000 0.0000 0.0000 28.7628 0.0000
# 6 -0.0001 0.0001 0.0000 0.0000 0.0000 27.1246
#
#
#
# Elastic Compliance Matrix: (Units=1/GPa)
#
#
# Indices 1 2 3 4 5 6 
#
# 1 0.015535 -0.002898 -0.004238 0.000000 0.000000 0.000000
# 2 -0.002898 0.015536 -0.004238 0.000000 0.000000 0.000000
# 3 -0.004238 -0.004238 0.014077 0.000000 0.000000 0.000000
# 4 0.000000 0.000000 0.000000 0.034767 0.000000 0.000000
# 5 0.000000 0.000000 0.000000 0.000000 0.034767 0.000000
# 6 0.000000 0.000000 0.000000 0.000000 0.000000 0.036867
#
#
# Mechanical properties :
#
#
# Convention : Reuss Voigt Hill
#
# Bulk Modulus (GPa) = 44.64196 45.18903 44.91549
# Shear Modulus (GPa) = 27.50811 27.61390 27.56101
#
# Velocity S-wave (km/s) = 3.65652 3.66354 3.66003
# Velocity P-wave (km/s) = 6.28687 6.31342 6.30016
#
# Compressibility (1/GPa) = 0.02240045
#
# Stress axis : x y z
#
# Youngs Moduli (GPa) = 64.36898 64.36843 71.03552
#
# Poissons Ratio (x) = 0.18653 0.30105
# Poissons Ratio (y) = 0.18654 0.30105
# Poissons Ratio (z) = 0.27280 0.27280
#
# Static dielectric constant tensor:
#      x y z
#    x 4.126550 0.000000 0.000000 
#    y 0.000000 4.126550 0.000000 
#    z 0.000000 0.000000 3.879850 
# 
# 
# High freq. dielectric constant tensor:
#      x y z
#    x 1.806130 0.000000 0.000000 
#    y 0.000000 1.806130 0.000000 
#    z 0.000000 0.000000 1.798810 
# 
# From -- ./inp_files/3407.got.cif
#   From: 2010.06.25/outbox.cif.g09.slc.cpg/sg176_2_cif.got.tgz:3407.got - 2010.06.28 12:15:01.
