data_PCOD8325623
_publ_section_title
;
Structure prediction by ZEFSAII (Michael W. Deem and Ramdas Pophale) SiO2 
 PCOD8325623
Probable space group: P 63/M
;
_chemical_formula_sum "Si O2"
_cell_formula_units_Z 84
_cell_length_a 18.584247
_cell_length_b 18.584247
_cell_length_c 13.892763
_cell_angle_alpha 90.000000
_cell_angle_beta 90.000000
_cell_angle_gamma 120.000000
_cell_volume 4155.365184
_symmetry_space_group_name_H-M "P 63/M"
_symmetry_group_IT_number 176
_symmetry_cell_setting 'hexagonal'
loop_
_space_group_symop_operation_xyz
x,y,z
x-y,x,1/2+z
-y,x-y,z
-x,-y,1/2+z
-x+y,-x,z
y,-x+y,1/2+z
-x,-y,-z
-x+y,-x,1/2-z
y,-x+y,-z
x,y,1/2-z
x-y,x,-z
-y,x-y,1/2-z
loop_
_atom_site_type_symbol
_atom_site_label
_atom_site_fract_x
_atom_site_fract_y
_atom_site_fract_z
Si Si1 0.432176 0.858113 0.495950
Si Si2 0.667933 0.663627 0.858683
Si Si3 0.495922 0.492277 0.136060
Si Si4 0.167542 0.835303 0.640198
Si Si5 0.837006 0.169637 0.635891
Si Si6 0.524828 0.759266 0.001665
Si Si7 0.903903 0.809172 0.999635
O O1 0.436148 0.915324 0.404943
O O2 0.469498 0.799581 0.466036
O O3 0.336389 0.800127 0.526425
O O4 0.487810 0.916116 0.585379
O O5 0.665846 0.635440 0.750000
O O6 0.582495 0.593415 0.903809
O O7 0.676588 0.751882 0.868272
O O8 0.747622 0.665677 0.904579
O O9 0.510766 0.502109 0.250000
O O10 0.140471 0.806859 0.750000
O O11 0.189159 0.770512 0.589673
O O12 0.097009 0.846696 0.586711
O O13 0.826228 0.157542 0.750000
O O14 0.761362 0.177099 0.589486
O O15 0.848618 0.096315 0.589958
O O16 0.867193 0.867893 0.967939
#
# Coordination Sequence:
#
# PCOD8325623 Si02
#       7
#    12  12  12  12  12  12  12
#     4  11  23  38  60  88 123 157 196 242 296 357
#     4   9  15  33  63  81 100 149 199 240 285 339
#     4  10  21  39  62  85 114 154 200 246 296 351
#     4  10  21  39  62  85 114 154 200 246 296 351
#     4  10  21  39  62  85 114 154 200 246 296 351
#     4  11  23  38  60  88 123 157 196 242 296 357
#     4  11  23  38  60  88 123 157 196 242 296 357
#
# _framework density 20.214829999999999
#
# number of rings (size 3 to 8) (size 9 to 14) (size 15 to 20)
#    0.000    1.714    4.286    0.429    0.000    1.714 
#    2.571    0.000    0.000    5.143    0.000    0.000 
#    0.000    0.000    0.000    0.000    0.000    0.000 
#
# Total GULP energy -1041153.267117 kJ/mol
# GULP energy per Si atom -12394.681751 kJ/mol
# Density = 2.016882 g / cm^3
# Si number density = 20.214830 Si / 1000 Ang^3
#
#
#
# Elastic Constant Matrix: (Units=GPa)
#
#
# Indices 1 2 3 4 5 6 
#
# 1 74.8661 39.3611 24.6840 0.0000 0.0000 0.0000
# 2 39.3611 74.8661 24.6840 0.0000 0.0000 0.0000
# 3 24.6840 24.6840 138.7174 0.0000 0.0000 0.0000
# 4 0.0000 0.0000 0.0000 22.0606 0.0000 0.0000
# 5 0.0000 0.0000 0.0000 0.0000 22.0606 0.0000
# 6 0.0000 0.0000 0.0000 0.0000 0.0000 17.7525
#
#
#
# Elastic Compliance Matrix: (Units=1/GPa)
#
#
# Indices 1 2 3 4 5 6 
#
# 1 0.018824 -0.009341 -0.001688 0.000000 0.000000 0.000000
# 2 -0.009341 0.018824 -0.001688 0.000000 0.000000 0.000000
# 3 -0.001688 -0.001688 0.007809 0.000000 0.000000 0.000000
# 4 0.000000 0.000000 0.000000 0.045330 0.000000 0.000000
# 5 0.000000 0.000000 0.000000 0.000000 0.045330 0.000000
# 6 0.000000 0.000000 0.000000 0.000000 0.000000 0.056330
#
#
# Mechanical properties :
#
#
# Convention : Reuss Voigt Hill
#
# Bulk Modulus (GPa) = 49.93306 51.76750 50.85028
# Shear Modulus (GPa) = 22.26623 25.68942 23.97782
#
# Velocity S-wave (km/s) = 3.32246 3.56872 3.44779
# Velocity P-wave (km/s) = 6.28276 6.53034 6.40775
#
# Compressibility (1/GPa) = 0.02002681
#
# Stress axis : x y z
#
# Youngs Moduli (GPa) = 53.12235 53.12235 128.04922
#
# Poissons Ratio (x) = 0.49620 0.21610
# Poissons Ratio (y) = 0.49620 0.21610
# Poissons Ratio (z) = 0.08965 0.08965
#
# Static dielectric constant tensor:
#      x y z
#    x 3.607980 0.000000 0.000000 
#    y 0.000000 3.607980 0.000000 
#    z 0.000000 0.000000 3.566520 
# 
# 
# High freq. dielectric constant tensor:
#      x y z
#    x 1.785660 0.000000 0.000000 
#    y 0.000000 1.785660 0.000000 
#    z 0.000000 0.000000 1.777180 
# 
# From -- ./inp_files/2923.got.cif
#   From: 2010.06.25/outbox.cif.g09.slc.cpg/sg176_2_cif.got.tgz:2923.got - 2010.06.28 12:15:01.
