data_PCOD8325216
_publ_section_title
;
Structure prediction by ZEFSAII (Michael W. Deem and Ramdas Pophale) SiO2 
 PCOD8325216
Probable space group: P 6/M
;
_chemical_formula_sum "Si O2"
_cell_formula_units_Z 76
_cell_length_a 17.965554
_cell_length_b 17.965554
_cell_length_c 13.408602
_cell_angle_alpha 90.000000
_cell_angle_beta 90.000000
_cell_angle_gamma 120.000000
_cell_volume 3747.963560
_symmetry_space_group_name_H-M "P 6/M"
_symmetry_group_IT_number 175
_symmetry_cell_setting 'hexagonal'
loop_
_space_group_symop_operation_xyz
x,y,z
x-y,x,z
-y,x-y,z
-x,-y,z
-x+y,-x,z
y,-x+y,z
-x,-y,-z
-x+y,-x,-z
y,-x+y,-z
x,y,-z
x-y,x,-z
-y,x-y,-z
loop_
_atom_site_type_symbol
_atom_site_label
_atom_site_fract_x
_atom_site_fract_y
_atom_site_fract_z
Si Si1 0.487918 0.305344 0.616400
Si Si2 0.333334 0.666667 0.618949
Si Si3 0.023622 0.427583 0.246959
Si Si4 0.176538 0.146233 0.883133
Si Si5 0.750790 0.119288 0.884963
Si Si6 0.195031 0.061146 0.616607
Si Si7 0.132747 0.759193 0.279548
O O1 0.491181 0.320072 0.500000
O O2 0.583123 0.335542 0.659357
O O3 0.450682 0.363493 0.659530
O O4 0.428519 0.204460 0.638334
O O5 0.333334 0.666668 0.500000
O O6 0.934920 0.340989 0.268685
O O7 0.000000 0.500000 0.223877
O O8 0.076570 0.423609 0.151565
O O9 0.107583 0.167359 0.833578
O O10 0.270640 0.226027 0.864541
O O11 0.159402 0.129815 0.000000
O O12 0.817823 0.204505 0.825597
O O13 0.758197 0.146082 0.000000
O O14 0.158917 0.123757 0.644901
O O15 0.219245 0.068925 0.500000
O O16 0.276188 0.083001 0.684101
#
# Coordination Sequence:
#
# PCOD8325216 Si02
#       7
#    12   4  12  12  12  12  12
#     4  10  21  37  59  88 121 158 196 237 293 357
#     4   9  18  36  60  84 115 155 196 240 294 360
#     4  11  24  40  61  90 118 149 192 245 303 365
#     4   9  16  27  46  73 105 141 180 221 265 316
#     4  10  22  40  59  79 109 151 196 243 298 356
#     4  10  20  35  56  84 122 168 213 250 282 326
#     4  11  22  37  58  85 118 153 195 244 299 358
#
# _framework density 20.277678999999999
#
# number of rings (size 3 to 8) (size 9 to 14) (size 15 to 20)
#    0.000    1.895    0.000    4.579    0.000    6.316 
#    0.000    0.000    0.000    1.895    0.000    0.000 
#    0.000    0.000    0.000    0.000    0.000    0.000 
#
# Total GULP energy -942553.512094 kJ/mol
# GULP energy per Si atom -12402.019896 kJ/mol
# Density = 2.023153 g / cm^3
# Si number density = 20.277679 Si / 1000 Ang^3
#
#
#
# Elastic Constant Matrix: (Units=GPa)
#
#
# Indices 1 2 3 4 5 6 
#
# 1 146.4683 70.8858 50.1907 0.0000 0.0000 0.0001
# 2 70.8858 146.4680 50.1907 0.0000 0.0000 -0.0003
# 3 50.1907 50.1907 71.9845 0.0000 0.0000 0.0000
# 4 0.0000 0.0000 0.0000 20.3417 0.0000 0.0000
# 5 0.0000 0.0000 0.0000 0.0000 20.3415 0.0000
# 6 0.0001 -0.0003 0.0000 0.0000 0.0000 37.7910
#
#
#
# Elastic Compliance Matrix: (Units=1/GPa)
#
#
# Indices 1 2 3 4 5 6 
#
# 1 0.010008 -0.003222 -0.004731 0.000000 0.000000 0.000000
# 2 -0.003222 0.010008 -0.004731 0.000000 0.000000 0.000000
# 3 -0.004731 -0.004731 0.020490 0.000000 0.000000 0.000000
# 4 0.000000 0.000000 0.000000 0.049160 0.000000 0.000000
# 5 0.000000 0.000000 0.000000 0.000000 0.049161 0.000000
# 6 0.000000 0.000000 0.000000 0.000000 0.000000 0.026461
#
#
# Mechanical properties :
#
#
# Convention : Reuss Voigt Hill
#
# Bulk Modulus (GPa) = 66.06808 78.60612 72.33710
# Shear Modulus (GPa) = 25.54880 28.60510 27.07695
#
# Velocity S-wave (km/s) = 3.55342 3.75996 3.65815
# Velocity P-wave (km/s) = 7.03478 7.59597 7.32076
#
# Compressibility (1/GPa) = 0.01513590
#
# Stress axis : x y z
#
# Youngs Moduli (GPa) = 99.91756 99.91730 48.80478
#
# Poissons Ratio (x) = 0.32197 0.23092
# Poissons Ratio (y) = 0.32197 0.23092
# Poissons Ratio (z) = 0.47275 0.47275
#
# Static dielectric constant tensor:
#      x y z
#    x 3.771680 0.000000 0.000000 
#    y 0.000000 3.771690 0.000000 
#    z 0.000000 0.000000 3.644010 
# 
# 
# High freq. dielectric constant tensor:
#      x y z
#    x 1.794320 0.000000 0.000000 
#    y 0.000000 1.794320 0.000000 
#    z 0.000000 0.000000 1.792960 
# 
# From -- ./inp_files/2558.got.cif
#   From: 2010.03.12/outbox.cif.g09.slc.cpg/sg175_2_cif.got.tgz:2558.got - 2010.04.02 06:55:29.
