data_PCOD8325500
_publ_section_title
;
Structure prediction by ZEFSAII (Michael W. Deem and Ramdas Pophale) SiO2 
 PCOD8325500
Probable space group: P 63/M
;
_chemical_formula_sum "Si O2"
_cell_formula_units_Z 72
_cell_length_a 22.597534
_cell_length_b 22.597534
_cell_length_c 8.488174
_cell_angle_alpha 90.000000
_cell_angle_beta 90.000000
_cell_angle_gamma 120.000000
_cell_volume 3753.764323
_symmetry_space_group_name_H-M "P 63/M"
_symmetry_group_IT_number 176
_symmetry_cell_setting 'hexagonal'
loop_
_space_group_symop_operation_xyz
x,y,z
x-y,x,1/2+z
-y,x-y,z
-x,-y,1/2+z
-x+y,-x,z
y,-x+y,1/2+z
-x,-y,-z
-x+y,-x,1/2-z
y,-x+y,-z
x,y,1/2-z
x-y,x,-z
-y,x-y,1/2-z
loop_
_atom_site_type_symbol
_atom_site_label
_atom_site_fract_x
_atom_site_fract_y
_atom_site_fract_z
Si Si1 0.875321 0.863746 0.434938
Si Si2 0.611783 0.752323 0.435283
Si Si3 0.722239 0.599880 0.564111
Si Si4 0.459736 0.795460 0.567901
Si Si5 0.792889 0.460120 0.933002
Si Si6 0.266369 0.999628 0.063041
O O1 0.888048 0.862406 0.250000
O O2 0.938578 0.867880 0.528485
O O3 0.807105 0.795094 0.490159
O O4 0.620993 0.760079 0.250000
O O5 0.616109 0.820554 0.503301
O O6 0.537881 0.687614 0.477721
O O7 0.674864 0.747522 0.506372
O O8 0.715975 0.588758 0.750000
O O9 0.665721 0.529452 0.482993
O O10 0.713085 0.662464 0.516390
O O11 0.462033 0.779152 0.750000
O O12 0.397632 0.809049 0.537761
O O13 0.448429 0.730674 0.466429
O O14 0.796612 0.444909 0.750000
O O15 0.274240 0.004146 0.250000
#
# Coordination Sequence:
#
# PCOD8325500 Si02
#       6
#    12  12  12  12  12  12
#     4  11  23  38  58  83 114 146 181 224 275 329
#     4   8  17  34  55  76 103 136 173 216 263 313
#     4  10  20  36  56  79 107 142 180 221 266 319
#     4  11  21  34  53  80 111 142 178 224 272 320
#     4  10  19  34  55  79 107 142 180 220 269 327
#     4  10  20  36  57  81 106 138 177 221 269 320
#
# _framework density 19.180745000000002
#
# number of rings (size 3 to 8) (size 9 to 14) (size 15 to 20)
#    0.000    2.000    0.000    5.500    0.000    2.667 
#    0.000    5.833    0.000    0.000    0.000    0.000 
#    0.000    0.000    0.000    0.000    0.000    0.000 
#
# Total GULP energy -892845.931799 kJ/mol
# GULP energy per Si atom -12400.637942 kJ/mol
# Density = 1.913709 g / cm^3
# Si number density = 19.180745 Si / 1000 Ang^3
#
#
#
# Elastic Constant Matrix: (Units=GPa)
#
#
# Indices 1 2 3 4 5 6 
#
# 1 79.9650 18.0233 9.6047 0.0000 0.0000 0.0000
# 2 18.0233 79.9650 9.6047 0.0000 0.0000 0.0000
# 3 9.6047 9.6047 46.2538 0.0000 0.0000 0.0000
# 4 0.0000 0.0000 0.0000 25.6334 0.0000 0.0000
# 5 0.0000 0.0000 0.0000 0.0000 25.6334 0.0000
# 6 0.0000 0.0000 0.0000 0.0000 0.0000 30.9709
#
#
#
# Elastic Compliance Matrix: (Units=1/GPa)
#
#
# Indices 1 2 3 4 5 6 
#
# 1 0.013391 -0.002753 -0.002209 0.000000 0.000000 0.000000
# 2 -0.002753 0.013391 -0.002209 0.000000 0.000000 0.000000
# 3 -0.002209 -0.002209 0.022537 0.000000 0.000000 0.000000
# 4 0.000000 0.000000 0.000000 0.039012 0.000000 0.000000
# 5 0.000000 0.000000 0.000000 0.000000 0.039012 0.000000
# 6 0.000000 0.000000 0.000000 0.000000 0.000000 0.032288
#
#
# Mechanical properties :
#
#
# Convention : Reuss Voigt Hill
#
# Bulk Modulus (GPa) = 28.58963 31.18324 29.88643
# Shear Modulus (GPa) = 26.93487 27.71093 27.32290
#
# Velocity S-wave (km/s) = 3.75142 3.80508 3.77834
# Velocity P-wave (km/s) = 5.80534 5.96638 5.88641
#
# Compressibility (1/GPa) = 0.03497771
#
# Stress axis : x y z
#
# Youngs Moduli (GPa) = 74.67543 74.67543 44.37088
#
# Poissons Ratio (x) = 0.20558 0.09802
# Poissons Ratio (y) = 0.20558 0.09802
# Poissons Ratio (z) = 0.16496 0.16496
#
# Static dielectric constant tensor:
#      x y z
#    x 3.642840 0.000000 0.000000 
#    y 0.000000 3.642840 0.000000 
#    z 0.000000 0.000000 3.329080 
# 
# 
# High freq. dielectric constant tensor:
#      x y z
#    x 1.745990 0.000000 0.000000 
#    y 0.000000 1.745990 0.000000 
#    z 0.000000 0.000000 1.739080 
# 
# From -- ./inp_files/1175.got.cif
#   From: 2010.06.25/outbox.cif.g09.slc.cpg/sg176_1_cif.got.tgz:1175.got - 2010.06.28 12:15:01.
