data_PCOD8325330
_publ_section_title
;
Structure prediction by ZEFSAII (Michael W. Deem and Ramdas Pophale) SiO2 
 PCOD8325330
Probable space group: P 6/M
;
_chemical_formula_sum "Si O2"
_cell_formula_units_Z 72
_cell_length_a 22.596913
_cell_length_b 22.596913
_cell_length_c 8.469722
_cell_angle_alpha 90.000000
_cell_angle_beta 90.000000
_cell_angle_gamma 120.000000
_cell_volume 3745.398348
_symmetry_space_group_name_H-M "P 6/M"
_symmetry_group_IT_number 175
_symmetry_cell_setting 'hexagonal'
loop_
_space_group_symop_operation_xyz
x,y,z
x-y,x,z
-y,x-y,z
-x,-y,z
-x+y,-x,z
y,-x+y,z
-x,-y,-z
-x+y,-x,-z
y,-x+y,-z
x,y,-z
x-y,x,-z
-y,x-y,-z
loop_
_atom_site_type_symbol
_atom_site_label
_atom_site_fract_x
_atom_site_fract_y
_atom_site_fract_z
Si Si1 0.761946 0.208204 0.187610
Si Si2 0.367737 0.361830 0.187301
Si Si3 0.790320 0.090972 0.812927
Si Si4 0.868432 0.353210 0.811330
Si Si5 0.611645 0.122168 0.187641
Si Si6 0.153656 0.100681 0.313212
O O1 0.794773 0.161971 0.243470
O O2 0.803088 0.285115 0.252228
O O3 0.685175 0.181576 0.248333
O O4 0.761953 0.205750 0.000000
O O5 0.315689 0.284646 0.245709
O O6 0.345130 0.413901 0.251630
O O7 0.445564 0.393269 0.246881
O O8 0.368430 0.358590 0.000000
O O9 0.849397 0.081385 0.735567
O O10 0.798510 0.089485 0.000000
O O11 0.869081 0.419616 0.738419
O O12 0.870287 0.357346 0.000000
O O13 0.606376 0.123195 0.000000
O O14 0.103985 0.127978 0.246957
O O15 0.149738 0.098225 0.500000
#
# Coordination Sequence:
#
# PCOD8325330 Si02
#       6
#    12  12  12  12  12  12
#     4   8  15  25  35  56  90 120 151 196 238 271
#     4   8  14  23  37  58  83 111 146 188 227 266
#     4   9  18  31  49  72  99 123 150 192 241 282
#     4   9  14  20  34  52  77 116 156 185 222 272
#     4   8  13  22  31  46  76 115 152 184 218 266
#     4  10  22  39  56  72  93 123 157 190 228 279
#
# _framework density 19.223590000000002
#
# number of rings (size 3 to 8) (size 9 to 14) (size 15 to 20)
#    0.000    3.333    0.000    2.667    2.333    3.333 
#    1.000    0.000    0.000    1.000    0.000    0.000 
#    0.000   16.000    0.000    0.000    0.000    0.000 
#
# Total GULP energy -891953.078280 kJ/mol
# GULP energy per Si atom -12388.237198 kJ/mol
# Density = 1.917984 g / cm^3
# Si number density = 19.223590 Si / 1000 Ang^3
#
#
#
# Elastic Constant Matrix: (Units=GPa)
#
#
# Indices 1 2 3 4 5 6 
#
# 1 120.7050 57.4628 5.0165 0.0000 0.0000 0.0000
# 2 57.4628 120.7050 5.0165 0.0000 0.0000 0.0000
# 3 5.0165 5.0165 6.4126 0.0000 0.0000 0.0000
# 4 0.0000 0.0000 0.0000 9.3822 0.0000 0.0000
# 5 0.0000 0.0000 0.0000 0.0000 9.3822 0.0000
# 6 0.0000 0.0000 0.0000 0.0000 0.0000 31.6211
#
#
#
# Elastic Compliance Matrix: (Units=1/GPa)
#
#
# Indices 1 2 3 4 5 6 
#
# 1 0.010842 -0.004970 -0.004593 0.000000 0.000000 0.000000
# 2 -0.004970 0.010842 -0.004593 0.000000 0.000000 0.000000
# 3 -0.004593 -0.004593 0.163129 0.000000 0.000000 0.000000
# 4 0.000000 0.000000 0.000000 0.106585 0.000000 0.000000
# 5 0.000000 0.000000 0.000000 0.000000 0.106585 0.000000
# 6 0.000000 0.000000 0.000000 0.000000 0.000000 0.031624
#
#
# Mechanical properties :
#
#
# Convention : Reuss Voigt Hill
#
# Bulk Modulus (GPa) = 6.38981 42.53493 24.46237
# Shear Modulus (GPa) = 9.80226 22.09888 15.95057
#
# Velocity S-wave (km/s) = 2.26056 3.39421 2.88364
# Velocity P-wave (km/s) = 3.18507 6.12661 4.88262
#
# Compressibility (1/GPa) = 0.15649909
#
# Stress axis : x y z
#
# Youngs Moduli (GPa) = 92.23580 92.23580 6.13013
#
# Poissons Ratio (x) = 0.45845 0.02816
# Poissons Ratio (y) = 0.45845 0.02816
# Poissons Ratio (z) = 0.42365 0.42365
#
# Static dielectric constant tensor:
#      x y z
#    x 3.872640 0.000000 0.000000 
#    y 0.000000 3.872640 0.000000 
#    z 0.000000 0.000000 2.721680 
# 
# 
# High freq. dielectric constant tensor:
#      x y z
#    x 1.757570 0.000000 0.000000 
#    y 0.000000 1.757570 0.000000 
#    z 0.000000 0.000000 1.666860 
# 
# From -- ./inp_files/1171.got.cif
#   From: 2010.03.12/outbox.cif.g09.slc.cpg/sg175_1_cif.got.tgz:1171.got - 2010.04.02 06:55:29.
