data_PCOD8325798
_publ_section_title
;
Structure prediction by ZEFSAII (Michael W. Deem and Ramdas Pophale) SiO2 
 PCOD8325798
Probable space group: P 61 2 2
;
_chemical_formula_sum "Si O2"
_cell_formula_units_Z 84
_cell_length_a 21.296145
_cell_length_b 21.296145
_cell_length_c 12.288970
_cell_angle_alpha 90.000000
_cell_angle_beta 90.000000
_cell_angle_gamma 120.000000
_cell_volume 4826.675545
_symmetry_space_group_name_H-M "P 61 2 2"
_symmetry_group_IT_number 178
_symmetry_cell_setting 'hexagonal'
loop_
_space_group_symop_operation_xyz
x,y,z
x-y,x,1/6+z
-y,x-y,1/3+z
-x,-y,1/2+z
-x+y,-x,2/3+z
y,-x+y,5/6+z
x-y,-y,-z
-x,-x+y,2/3-z
y,x,1/3-z
-y,-x,5/6-z
-x+y,y,1/2-z
x,x-y,1/6-z
loop_
_atom_site_type_symbol
_atom_site_label
_atom_site_fract_x
_atom_site_fract_y
_atom_site_fract_z
Si Si1 0.384838 0.638392 0.792373
Si Si2 0.466314 0.219314 0.962707
Si Si3 0.586378 0.885001 0.859683
Si Si4 0.362046 0.928983 0.060043
Si Si5 0.596625 0.116636 0.973454
Si Si6 0.699142 0.918684 0.044764
Si Si7 0.348520 0.955439 0.307145
O O1 0.334321 0.668642 0.750000
O O2 0.466837 0.698810 0.776557
O O3 0.363728 0.562082 0.737358
O O4 0.375241 0.624760 0.916667
O O5 0.427062 0.256247 0.902813
O O6 0.414153 0.132827 0.973686
O O7 0.494424 0.247212 0.083334
O O8 0.621829 0.960073 0.797186
O O9 0.512514 0.875338 0.912556
O O10 0.639751 0.881061 0.949242
O O11 0.424321 0.913317 0.014256
O O12 0.360348 0.929697 0.190802
O O13 0.372197 0.000000 0.000000
O O14 0.606067 0.061613 0.894979
O O15 0.730459 0.865230 0.083334
O O16 0.656046 0.921896 0.151205
O O17 0.761097 0.000000 0.000000
#
# Coordination Sequence:
#
# PCOD8325798 Si02
#       7
#    12  12  12  12  12  12  12
#     4  11  22  36  50  67  92 127 171 215 257 308
#     4  11  23  37  51  71  97 129 167 209 260 313
#     4  10  20  35  53  74 102 133 166 211 263 314
#     4  11  21  34  50  71  98 131 170 212 257 308
#     4  10  20  33  51  74  96 127 168 214 265 309
#     4   9  18  32  53  80 108 136 167 205 253 308
#     4  10  19  33  52  75 101 129 166 208 254 310
#
# _framework density 17.403282000000001
#
# number of rings (size 3 to 8) (size 9 to 14) (size 15 to 20)
#    0.000    1.714    0.000    7.286    0.000    4.571 
#    0.000    4.286    0.000    0.000    0.000    0.000 
#    0.000   14.857    0.000    0.000    0.000    0.000 
#
# Total GULP energy -1041069.150364 kJ/mol
# GULP energy per Si atom -12393.680361 kJ/mol
# Density = 1.736367 g / cm^3
# Si number density = 17.403282 Si / 1000 Ang^3
#
#
#
# Elastic Constant Matrix: (Units=GPa)
#
#
# Indices 1 2 3 4 5 6 
#
# 1 280.9784 -162.2861 22.0241 0.0000 0.0000 0.0000
# 2 -162.2861 280.9784 22.0241 0.0000 0.0000 0.0000
# 3 22.0241 22.0241 78.0972 0.0000 0.0000 0.0000
# 4 0.0000 0.0000 0.0000 25.7753 0.0000 0.0000
# 5 0.0000 0.0000 0.0000 0.0000 25.7753 0.0000
# 6 0.0000 0.0000 0.0000 0.0000 0.0000 221.6323
#
#
#
# Elastic Compliance Matrix: (Units=1/GPa)
#
#
# Indices 1 2 3 4 5 6 
#
# 1 0.005833 0.003577 -0.002654 0.000000 0.000000 0.000000
# 2 0.003577 0.005833 -0.002654 0.000000 0.000000 0.000000
# 3 -0.002654 -0.002654 0.014301 0.000000 0.000000 0.000000
# 4 0.000000 0.000000 0.000000 0.038797 0.000000 0.000000
# 5 0.000000 0.000000 0.000000 0.000000 0.038797 0.000000
# 6 0.000000 0.000000 0.000000 0.000000 0.000000 0.004512
#
#
# Mechanical properties :
#
#
# Convention : Reuss Voigt Hill
#
# Bulk Modulus (GPa) = 44.43173 44.84203 44.63688
# Shear Modulus (GPa) = 42.00418 105.18937 73.59678
#
# Velocity S-wave (km/s) = 4.91815 7.78290 6.51006
# Velocity P-wave (km/s) = 7.60506 10.32410 9.06708
#
# Compressibility (1/GPa) = 0.02250644
#
# Stress axis : x y z
#
# Youngs Moduli (GPa) = 171.43916 171.43916 69.92377
#
# Poissons Ratio (x) = -0.61324 0.18556
# Poissons Ratio (y) = -0.61324 0.18556
# Poissons Ratio (z) = 0.45495 0.45495
#
# Static dielectric constant tensor:
#      x y z
#    x 3.356640 0.000000 0.000000 
#    y 0.000000 3.356640 0.000000 
#    z 0.000000 0.000000 3.251400 
# 
# 
# High freq. dielectric constant tensor:
#      x y z
#    x 1.659320 0.000000 0.000000 
#    y 0.000000 1.659320 0.000000 
#    z 0.000000 0.000000 1.678320 
# 
# From -- ./inp_files/4808.got.cif
#   From: 2010.03.12/outbox.cif.g09.slc.cpg/sg178_3_cif.got.tgz:4808.got - 2010.04.02 07:02:38.
