data_PCOD8325398
_publ_section_title
;
Structure prediction by ZEFSAII (Michael W. Deem and Ramdas Pophale) SiO2 
 PCOD8325398
Probable space group: P 63/M
;
_chemical_formula_sum "Si O2"
_cell_formula_units_Z 78
_cell_length_a 17.791397
_cell_length_b 17.791397
_cell_length_c 18.527664
_cell_angle_alpha 90.000000
_cell_angle_beta 90.000000
_cell_angle_gamma 120.000000
_cell_volume 5078.920317
_symmetry_space_group_name_H-M "P 63/M"
_symmetry_group_IT_number 176
_symmetry_cell_setting 'hexagonal'
loop_
_space_group_symop_operation_xyz
x,y,z
x-y,x,1/2+z
-y,x-y,z
-x,-y,1/2+z
-x+y,-x,z
y,-x+y,1/2+z
-x,-y,-z
-x+y,-x,1/2-z
y,-x+y,-z
x,y,1/2-z
x-y,x,-z
-y,x-y,1/2-z
loop_
_atom_site_type_symbol
_atom_site_label
_atom_site_fract_x
_atom_site_fract_y
_atom_site_fract_z
Si Si1 0.426685 0.407877 0.669815
Si Si2 0.823128 0.328673 0.333962
Si Si3 0.664725 0.163887 0.390801
Si Si4 0.497817 0.657632 0.445345
Si Si5 0.013193 0.602503 0.330050
Si Si6 0.737713 0.296337 0.750000
Si Si7 0.682561 0.498857 0.897672
O O1 0.411910 0.364324 0.750000
O O2 0.349505 0.427993 0.651779
O O3 0.431864 0.347953 0.606682
O O4 0.514093 0.498859 0.671390
O O5 0.798367 0.308130 0.250000
O O6 0.760667 0.245887 0.382734
O O7 0.810474 0.408714 0.356147
O O8 0.634540 0.129846 0.472325
O O9 0.664222 0.082868 0.350942
O O10 0.400693 0.593046 0.417415
O O11 0.517636 0.756982 0.451229
O O12 0.036195 0.645118 0.250000
O O13 0.084330 0.662304 0.390811
O O14 0.765123 0.398593 0.750000
O O15 0.775405 0.277398 0.820326
#
# Coordination Sequence:
#
# PCOD8325398 Si02
#       7
#    12  12  12  12  12   6  12
#     4   8  18  31  46  60  79 109 145 174 207 251
#     4  10  19  34  49  60  77 110 150 187 211 245
#     4  11  21  31  44  63  84 108 140 182 224 252
#     4  11  21  29  42  63  91 113 135 172 215 262
#     4   9  18  30  45  61  78 104 141 179 212 246
#     4  10  16  26  42  60  78 102 144 180 200 242
#     4  11  19  28  43  61  84 110 142 170 210 248
#
# _framework density 15.357595
#
# number of rings (size 3 to 8) (size 9 to 14) (size 15 to 20)
#    0.154    1.846    2.308    3.846    2.154    6.769 
#    0.000    0.000    0.000    0.000    0.000    0.000 
#    0.000    0.000    0.000    0.923    0.000   11.385 
#
# Total GULP energy -966592.934162 kJ/mol
# GULP energy per Si atom -12392.217105 kJ/mol
# Density = 1.532264 g / cm^3
# Si number density = 15.357595 Si / 1000 Ang^3
#
#
#
# Elastic Constant Matrix: (Units=GPa)
#
#
# Indices 1 2 3 4 5 6 
#
# 1 58.7442 25.6392 16.3137 0.0000 0.0000 0.0000
# 2 25.6392 58.7442 16.3137 0.0000 0.0000 0.0000
# 3 16.3137 16.3137 77.5471 0.0000 0.0000 0.0000
# 4 0.0000 0.0000 0.0000 15.9847 0.0000 0.0000
# 5 0.0000 0.0000 0.0000 0.0000 15.9847 0.0000
# 6 0.0000 0.0000 0.0000 0.0000 0.0000 16.5525
#
#
#
# Elastic Compliance Matrix: (Units=1/GPa)
#
#
# Indices 1 2 3 4 5 6 
#
# 1 0.021553 -0.008653 -0.002714 0.000000 0.000000 0.000000
# 2 -0.008653 0.021553 -0.002714 0.000000 0.000000 0.000000
# 3 -0.002714 -0.002714 0.014037 0.000000 0.000000 0.000000
# 4 0.000000 0.000000 0.000000 0.062560 0.000000 0.000000
# 5 0.000000 0.000000 0.000000 0.000000 0.062560 0.000000
# 6 0.000000 0.000000 0.000000 0.000000 0.000000 0.060414
#
#
# Mechanical properties :
#
#
# Convention : Reuss Voigt Hill
#
# Bulk Modulus (GPa) = 34.50418 34.61875 34.56146
# Shear Modulus (GPa) = 17.82530 18.82231 18.32381
#
# Velocity S-wave (km/s) = 3.41058 3.50466 3.45794
# Velocity P-wave (km/s) = 6.16647 6.24240 6.20455
#
# Compressibility (1/GPa) = 0.02898200
#
# Stress axis : x y z
#
# Youngs Moduli (GPa) = 46.39628 46.39628 71.23925
#
# Poissons Ratio (x) = 0.40149 0.19333
# Poissons Ratio (y) = 0.40149 0.19333
# Poissons Ratio (z) = 0.12591 0.12591
#
# Static dielectric constant tensor:
#      x y z
#    x 2.831720 0.000000 0.000000 
#    y 0.000000 2.831720 0.000000 
#    z 0.000000 0.000000 3.090950 
# 
# 
# High freq. dielectric constant tensor:
#      x y z
#    x 1.550580 0.000000 0.000000 
#    y 0.000000 1.550580 0.000000 
#    z 0.000000 0.000000 1.606470 
# 
# From -- ./inp_files/3492.got.cif
#   From: 2010.06.25/outbox.cif.g09.slc.cpg/sg176_2_cif.got.tgz:3492.got - 2010.06.28 12:15:01.
