data_PCOD8325973
_publ_section_title
;
Structure prediction by ZEFSAII (Michael W. Deem and Ramdas Pophale) SiO2 
 PCOD8325973
Probable space group: P 61 2 2
;
_chemical_formula_sum "Si O2"
_cell_formula_units_Z 36
_cell_length_a 8.553409
_cell_length_b 8.553409
_cell_length_c 24.480915
_cell_angle_alpha 90.000000
_cell_angle_beta 90.000000
_cell_angle_gamma 120.000000
_cell_volume 1551.089137
_symmetry_space_group_name_H-M "P 61 2 2"
_symmetry_group_IT_number 178
_symmetry_cell_setting 'hexagonal'
loop_
_space_group_symop_operation_xyz
x,y,z
x-y,x,1/6+z
-y,x-y,1/3+z
-x,-y,1/2+z
-x+y,-x,2/3+z
y,-x+y,5/6+z
x-y,-y,-z
-x,-x+y,2/3-z
y,x,1/3-z
-y,-x,5/6-z
-x+y,y,1/2-z
x,x-y,1/6-z
loop_
_atom_site_type_symbol
_atom_site_label
_atom_site_fract_x
_atom_site_fract_y
_atom_site_fract_z
Si Si1 0.724807 0.548431 0.588024
Si Si2 0.336034 0.331432 0.603971
Si Si3 0.798243 0.962794 0.318267
O O1 0.735812 0.367906 0.583334
O O2 0.523092 0.521998 0.596984
O O3 0.807373 0.668120 0.534543
O O4 0.846496 0.658558 0.639618
O O5 0.282180 0.282180 0.666667
O O6 0.407555 0.203778 0.583334
O O7 0.164221 0.296234 0.568148
O O8 0.000000 0.999874 0.333334
#
# Coordination Sequence:
#
# PCOD8325973 Si02
#       3
#    12  12  12
#     4  11  25  44  67 101 139 182 235 291 357 433
#     4  11  23  41  66  97 132 176 226 283 350 424
#     4  12  24  43  70 100 139 184 234 294 359 433
#
# _framework density 23.209500999999999
#
# number of rings (size 3 to 8) (size 9 to 14) (size 15 to 20)
#    0.000    0.667    0.000    9.000    0.000    2.667 
#    0.000   10.000    0.000    0.000    0.000    0.000 
#    0.000    0.000    0.000    0.000    0.000    0.000 
#
# Total GULP energy -445990.025342 kJ/mol
# GULP energy per Si atom -12388.611815 kJ/mol
# Density = 2.315667 g / cm^3
# Si number density = 23.209501 Si / 1000 Ang^3
#
#
#
# Elastic Constant Matrix: (Units=GPa)
#
#
# Indices 1 2 3 4 5 6 
#
# 1 130.5551 45.5781 42.2177 0.0000 0.0000 0.0000
# 2 45.5781 130.5551 42.2177 0.0000 0.0000 0.0000
# 3 42.2177 42.2177 132.9023 0.0000 0.0000 0.0000
# 4 0.0000 0.0000 0.0000 44.4693 0.0000 0.0000
# 5 0.0000 0.0000 0.0000 0.0000 44.4693 0.0000
# 6 0.0000 0.0000 0.0000 0.0000 0.0000 42.4885
#
#
#
# Elastic Compliance Matrix: (Units=1/GPa)
#
#
# Indices 1 2 3 4 5 6 
#
# 1 0.009233 -0.002535 -0.002127 0.000000 0.000000 0.000000
# 2 -0.002535 0.009233 -0.002127 0.000000 0.000000 0.000000
# 3 -0.002127 -0.002127 0.008876 0.000000 0.000000 0.000000
# 4 0.000000 0.000000 0.000000 0.022487 0.000000 0.000000
# 5 0.000000 0.000000 0.000000 0.000000 0.022487 0.000000
# 6 0.000000 0.000000 0.000000 0.000000 0.000000 0.023536
#
#
# Mechanical properties :
#
#
# Convention : Reuss Voigt Hill
#
# Bulk Modulus (GPa) = 72.67021 72.67105 72.67063
# Shear Modulus (GPa) = 43.85222 43.88534 43.86878
#
# Velocity S-wave (km/s) = 4.35145 4.35309 4.35227
# Velocity P-wave (km/s) = 7.52498 7.52627 7.52562
#
# Compressibility (1/GPa) = 0.01376080
#
# Stress axis : x y z
#
# Youngs Moduli (GPa) = 108.31126 108.31126 112.66380
#
# Poissons Ratio (x) = 0.27459 0.23969
# Poissons Ratio (y) = 0.27459 0.23969
# Poissons Ratio (z) = 0.23043 0.23043
#
# Static dielectric constant tensor:
#      x y z
#    x 4.261890 0.000000 0.000000 
#    y 0.000000 4.261890 0.000000 
#    z 0.000000 0.000000 4.134540 
# 
# 
# High freq. dielectric constant tensor:
#      x y z
#    x 1.925110 0.000000 0.000000 
#    y 0.000000 1.925110 0.000000 
#    z 0.000000 0.000000 1.925730 
# 
# From -- ./inp_files/8492.got.cif
#   From: 2010.03.12/outbox.cif.g09.slc.cpg/sg178_5_cif.got.tgz:8492.got - 2010.04.02 07:02:38.
