data_PCOD8325393
_publ_section_title
;
Structure prediction by ZEFSAII (Michael W. Deem and Ramdas Pophale) SiO2 
 PCOD8325393
Probable space group: P 6/M
;
_chemical_formula_sum "Si O2"
_cell_formula_units_Z 60
_cell_length_a 22.764531
_cell_length_b 22.764531
_cell_length_c 7.552015
_cell_angle_alpha 90.000000
_cell_angle_beta 90.000000
_cell_angle_gamma 120.000000
_cell_volume 3389.306857
_symmetry_space_group_name_H-M "P 6/M"
_symmetry_group_IT_number 175
_symmetry_cell_setting 'hexagonal'
loop_
_space_group_symop_operation_xyz
x,y,z
x-y,x,z
-y,x-y,z
-x,-y,z
-x+y,-x,z
y,-x+y,z
-x,-y,-z
-x+y,-x,-z
y,-x+y,-z
x,y,-z
x-y,x,-z
-y,x-y,-z
loop_
_atom_site_type_symbol
_atom_site_label
_atom_site_fract_x
_atom_site_fract_y
_atom_site_fract_z
Si Si1 0.305816 0.152908 0.790486
Si Si2 0.079763 0.693210 0.797776
Si Si3 0.693210 0.079763 0.797776
Si Si4 0.846403 0.923201 0.211201
Si Si5 0.919625 0.525101 0.500000
Si Si6 0.605476 0.525101 0.500000
O O1 0.345963 0.115667 0.725483
O O2 0.345964 0.230296 0.725483
O O3 0.229963 0.114982 0.711103
O O4 0.300242 0.150121 0.000000
O O5 0.104488 0.651518 0.676502
O O6 1.000000 0.664140 0.780288
O O7 0.100319 0.689029 0.000000
O O8 0.651518 0.104488 0.676502
O O9 0.689029 0.100319 0.000000
O O10 0.885072 0.885072 0.282943
O O11 0.845384 0.922692 0.000000
O O12 0.887319 0.443660 0.500000
O O13 1.000000 0.560506 0.500000
#
# Coordination Sequence:
#
# PCOD8325393 Si02
#       6
#    12  12  12  12   6   6
#     4   9  16  26  41  62  90 126 166 205 247 292
#     4   9  17  29  45  66  94 126 157 191 233 279
#     4   9  17  29  45  66  94 126 157 191 233 279
#     4   9  15  22  34  55  87 129 178 228 270 302
#     4   9  18  31  46  66  91 116 143 176 218 276
#     4   9  18  31  46  66  91 116 143 176 218 276
#
# _framework density 17.702734
#
# number of rings (size 3 to 8) (size 9 to 14) (size 15 to 20)
#    0.000    3.000    0.000    1.400    0.000    7.200 
#    0.000    4.000    0.000    0.000    0.000    0.000 
#    8.000    0.000    2.400   15.200    0.000   41.400 
#
# Total GULP energy -743864.715305 kJ/mol
# GULP energy per Si atom -12397.745255 kJ/mol
# Density = 1.766244 g / cm^3
# Si number density = 17.702734 Si / 1000 Ang^3
#
#
#
# Elastic Constant Matrix: (Units=GPa)
#
#
# Indices 1 2 3 4 5 6 
#
# 1 125.6523 67.8049 43.5435 0.0000 0.0000 0.0000
# 2 67.8049 125.6523 43.5435 0.0000 0.0000 0.0000
# 3 43.5435 43.5435 76.2158 0.0000 0.0000 0.0000
# 4 0.0000 0.0000 0.0000 5.4830 0.0000 0.0000
# 5 0.0000 0.0000 0.0000 0.0000 5.4830 0.0000
# 6 0.0000 0.0000 0.0000 0.0000 0.0000 28.9237
#
#
#
# Elastic Compliance Matrix: (Units=1/GPa)
#
#
# Indices 1 2 3 4 5 6 
#
# 1 0.012123 -0.005164 -0.003976 0.000000 0.000000 0.000000
# 2 -0.005164 0.012123 -0.003976 0.000000 0.000000 0.000000
# 3 -0.003976 -0.003976 0.017663 0.000000 0.000000 0.000000
# 4 0.000000 0.000000 0.000000 0.182380 0.000000 0.000000
# 5 0.000000 0.000000 0.000000 0.000000 0.182380 0.000000
# 6 0.000000 0.000000 0.000000 0.000000 0.000000 0.034574
#
#
# Mechanical properties :
#
#
# Convention : Reuss Voigt Hill
#
# Bulk Modulus (GPa) = 63.78264 70.81157 67.29710
# Shear Modulus (GPa) = 10.57753 19.48653 15.03203
#
# Velocity S-wave (km/s) = 2.44705 3.32138 2.91715
# Velocity P-wave (km/s) = 6.64019 7.40243 7.03164
#
# Compressibility (1/GPa) = 0.01567825
#
# Stress axis : x y z
#
# Youngs Moduli (GPa) = 82.48895 82.48895 56.61421
#
# Poissons Ratio (x) = 0.42598 0.22508
# Poissons Ratio (y) = 0.42598 0.22508
# Poissons Ratio (z) = 0.32795 0.32795
#
# Static dielectric constant tensor:
#      x y z
#    x 3.310070 0.000000 0.000000 
#    y 0.000000 3.310070 0.000000 
#    z 0.000000 0.000000 3.189800 
# 
# 
# High freq. dielectric constant tensor:
#      x y z
#    x 1.663180 0.000000 0.000000 
#    y 0.000000 1.663180 0.000000 
#    z 0.000000 0.000000 1.678330 
# 
# From -- ./inp_files/917.got.cif
#   From: 2010.03.12/outbox.cif.g09.slc.cpg/sg175_1_cif.got.tgz:917.got - 2010.04.02 06:55:29.
