data_PCOD8325461
_publ_section_title
;
Structure prediction by ZEFSAII (Michael W. Deem and Ramdas Pophale) SiO2 
 PCOD8325461
Probable space group: P 63/M
;
_chemical_formula_sum "Si O2"
_cell_formula_units_Z 72
_cell_length_a 23.958816
_cell_length_b 23.958816
_cell_length_c 9.173604
_cell_angle_alpha 90.000000
_cell_angle_beta 90.000000
_cell_angle_gamma 120.000000
_cell_volume 4560.383073
_symmetry_space_group_name_H-M "P 63/M"
_symmetry_group_IT_number 176
_symmetry_cell_setting 'hexagonal'
loop_
_space_group_symop_operation_xyz
x,y,z
x-y,x,1/2+z
-y,x-y,z
-x,-y,1/2+z
-x+y,-x,z
y,-x+y,1/2+z
-x,-y,-z
-x+y,-x,1/2-z
y,-x+y,-z
x,y,1/2-z
x-y,x,-z
-y,x-y,1/2-z
loop_
_atom_site_type_symbol
_atom_site_label
_atom_site_fract_x
_atom_site_fract_y
_atom_site_fract_z
Si Si1 0.079853 0.696795 0.910715
Si Si2 0.813556 0.745450 0.081190
Si Si3 0.061013 0.257752 0.580346
Si Si4 0.625282 0.697668 0.086892
Si Si5 0.593205 0.075948 0.414471
Si Si6 0.077822 0.591482 0.086565
O O1 0.109245 0.700772 0.750000
O O2 0.097331 0.767851 0.966486
O O3 0.003312 0.653859 0.902895
O O4 0.106967 0.663246 0.019417
O O5 0.798539 0.752354 0.250000
O O6 0.887533 0.765949 0.057358
O O7 0.798018 0.791944 0.985140
O O8 0.051654 0.267513 0.750000
O O9 0.087619 0.325767 0.499766
O O10 0.613782 0.715717 0.250000
O O11 0.557636 0.660587 0.000706
O O12 0.608181 0.102758 0.250000
O O13 0.551048 0.102596 0.492629
O O14 0.554303 0.999007 0.413430
O O15 0.104505 0.598671 0.250000
#
# Coordination Sequence:
#
# PCOD8325461 Si02
#       6
#    12  12  12  12  12  12
#     4   8  14  25  38  52  75 105 133 163 200 242
#     4   9  19  33  47  65  87 109 137 176 221 271
#     4  10  19  31  48  67  85 108 139 175 219 274
#     4   9  16  26  39  56  80 107 135 169 205 242
#     4   9  15  22  33  50  74 106 140 167 192 224
#     4   9  15  21  31  50  75 103 136 168 193 220
#
# _framework density 15.788147
#
# number of rings (size 3 to 8) (size 9 to 14) (size 15 to 20)
#    0.000    3.000    0.000    3.000    0.000    9.333 
#    0.000    0.000    0.000    0.333    0.000    0.000 
#    0.000    0.000    0.000    1.000    0.000   17.000 
#
# Total GULP energy -892491.806009 kJ/mol
# GULP energy per Si atom -12395.719528 kJ/mol
# Density = 1.575221 g / cm^3
# Si number density = 15.788147 Si / 1000 Ang^3
#
#
#
# Elastic Constant Matrix: (Units=GPa)
#
#
# Indices 1 2 3 4 5 6 
#
# 1 59.9100 32.6414 47.3774 0.0000 0.0000 0.0000
# 2 32.6414 59.9100 47.3774 0.0000 0.0000 0.0000
# 3 47.3774 47.3774 135.9202 0.0000 0.0000 0.0000
# 4 0.0000 0.0000 0.0000 20.3876 0.0000 0.0000
# 5 0.0000 0.0000 0.0000 0.0000 20.3876 0.0000
# 6 0.0000 0.0000 0.0000 0.0000 0.0000 13.6343
#
#
#
# Elastic Compliance Matrix: (Units=1/GPa)
#
#
# Indices 1 2 3 4 5 6 
#
# 1 0.026736 -0.009936 -0.005856 0.000000 0.000000 0.000000
# 2 -0.009936 0.026736 -0.005856 0.000000 0.000000 0.000000
# 3 -0.005856 -0.005856 0.011440 0.000000 0.000000 0.000000
# 4 0.000000 0.000000 0.000000 0.049049 0.000000 0.000000
# 5 0.000000 0.000000 0.000000 0.000000 0.049049 0.000000
# 6 0.000000 0.000000 0.000000 0.000000 0.000000 0.073344
#
#
# Mechanical properties :
#
#
# Convention : Reuss Voigt Hill
#
# Bulk Modulus (GPa) = 46.26184 56.72583 51.49383
# Shear Modulus (GPa) = 17.43030 19.43818 18.43424
#
# Velocity S-wave (km/s) = 3.32627 3.51264 3.42072
# Velocity P-wave (km/s) = 6.64209 7.24285 6.94896
#
# Compressibility (1/GPa) = 0.02161609
#
# Stress axis : x y z
#
# Youngs Moduli (GPa) = 37.40245 37.40245 87.41490
#
# Poissons Ratio (x) = 0.37163 0.51190
# Poissons Ratio (y) = 0.37163 0.51190
# Poissons Ratio (z) = 0.21903 0.21903
#
# Static dielectric constant tensor:
#      x y z
#    x 2.719710 0.000000 0.000000 
#    y 0.000000 2.719710 0.000000 
#    z 0.000000 0.000000 3.268070 
# 
# 
# High freq. dielectric constant tensor:
#      x y z
#    x 1.563470 0.000000 0.000000 
#    y 0.000000 1.563470 0.000000 
#    z 0.000000 0.000000 1.625000 
# 
# From -- ./inp_files/1185.got.cif
#   From: 2010.06.25/outbox.cif.g09.slc.cpg/sg176_1_cif.got.tgz:1185.got - 2010.06.28 12:15:01.
