data_PCOD8325953
_publ_section_title
;
Structure prediction by ZEFSAII (Michael W. Deem and Ramdas Pophale) SiO2 
 PCOD8325953
Probable space group: P 61 2 2
;
_chemical_formula_sum "Si O2"
_cell_formula_units_Z 72
_cell_length_a 15.184230
_cell_length_b 15.184230
_cell_length_c 17.581826
_cell_angle_alpha 90.000000
_cell_angle_beta 90.000000
_cell_angle_gamma 120.000000
_cell_volume 3510.590364
_symmetry_space_group_name_H-M "P 61 2 2"
_symmetry_group_IT_number 178
_symmetry_cell_setting 'hexagonal'
loop_
_space_group_symop_operation_xyz
x,y,z
x-y,x,1/6+z
-y,x-y,1/3+z
-x,-y,1/2+z
-x+y,-x,2/3+z
y,-x+y,5/6+z
x-y,-y,-z
-x,-x+y,2/3-z
y,x,1/3-z
-y,-x,5/6-z
-x+y,y,1/2-z
x,x-y,1/6-z
loop_
_atom_site_type_symbol
_atom_site_label
_atom_site_fract_x
_atom_site_fract_y
_atom_site_fract_z
Si Si1 0.061077 0.764766 0.638512
Si Si2 0.456584 0.994090 0.173054
Si Si3 0.312875 0.194394 0.659066
Si Si4 0.892487 0.163358 0.302415
Si Si5 0.504578 0.607381 0.120023
Si Si6 0.153969 0.478932 0.286103
O O1 0.121094 0.828624 0.563958
O O2 0.119107 0.826709 0.712826
O O3 0.065040 0.661264 0.636164
O O4 0.948813 0.748730 0.650740
O O5 0.521167 0.042334 0.250000
O O6 0.472177 0.078245 0.112587
O O7 0.495843 0.921177 0.135774
O O8 0.262701 0.262701 0.666667
O O9 0.260733 0.130367 0.583334
O O10 0.432469 0.272112 0.638418
O O11 0.881439 0.249144 0.347626
O O12 0.000000 0.176365 0.333334
O O13 0.553596 0.553596 0.166667
O O14 0.388896 0.557683 0.148000
O O15 0.264290 0.528580 0.250000
#
# Coordination Sequence:
#
# PCOD8325953 Si02
#       6
#    12  12  12  12  12  12
#     4  12  24  39  70  98 133 186 242 282 354 433
#     4  11  21  36  64  99 124 172 232 275 342 430
#     4  11  24  46  65  90 132 184 234 279 341 412
#     4  12  21  40  65 103 138 178 228 296 355 409
#     4   9  20  40  63  84 129 169 211 277 337 400
#     4  11  19  39  65  96 137 169 205 284 358 403
#
# _framework density 20.509370000000001
#
# number of rings (size 3 to 8) (size 9 to 14) (size 15 to 20)
#    0.000    1.000    5.000    3.000    0.000    2.667 
#    0.000    8.333    0.000    0.000    0.000    0.000 
#    0.000    0.000    0.000    0.000    0.000    0.000 
#
# Total GULP energy -892019.726272 kJ/mol
# GULP energy per Si atom -12389.162865 kJ/mol
# Density = 2.046269 g / cm^3
# Si number density = 20.509370 Si / 1000 Ang^3
#
#
#
# Elastic Constant Matrix: (Units=GPa)
#
#
# Indices 1 2 3 4 5 6 
#
# 1 67.0225 37.9039 38.2294 0.0000 0.0000 0.0000
# 2 37.9039 67.0225 38.2294 0.0000 0.0000 0.0000
# 3 38.2294 38.2294 165.2689 0.0000 0.0000 0.0000
# 4 0.0000 0.0000 0.0000 35.6689 0.0000 0.0000
# 5 0.0000 0.0000 0.0000 0.0000 35.6689 0.0000
# 6 0.0000 0.0000 0.0000 0.0000 0.0000 14.5593
#
#
#
# Elastic Compliance Matrix: (Units=1/GPa)
#
#
# Indices 1 2 3 4 5 6 
#
# 1 0.022902 -0.011440 -0.002651 0.000000 0.000000 0.000000
# 2 -0.011440 0.022902 -0.002651 0.000000 0.000000 0.000000
# 3 -0.002651 -0.002651 0.007277 0.000000 0.000000 0.000000
# 4 0.000000 0.000000 0.000000 0.028036 0.000000 0.000000
# 5 0.000000 0.000000 0.000000 0.000000 0.028036 0.000000
# 6 0.000000 0.000000 0.000000 0.000000 0.000000 0.068685
#
#
# Mechanical properties :
#
#
# Convention : Reuss Voigt Hill
#
# Bulk Modulus (GPa) = 51.02907 58.67103 54.85005
# Shear Modulus (GPa) = 22.95093 29.50950 26.23022
#
# Velocity S-wave (km/s) = 3.34884 3.79731 3.58010
# Velocity P-wave (km/s) = 6.31569 6.92063 6.62506
#
# Compressibility (1/GPa) = 0.01959667
#
# Stress axis : x y z
#
# Youngs Moduli (GPa) = 43.66343 43.66343 137.41151
#
# Poissons Ratio (x) = 0.49950 0.36435
# Poissons Ratio (y) = 0.49950 0.36435
# Poissons Ratio (z) = 0.11577 0.11577
#
# Static dielectric constant tensor:
#      x y z
#    x 4.000180 0.000000 0.000000 
#    y 0.000000 4.000180 0.000000 
#    z 0.000000 0.000000 4.052660 
# 
# 
# High freq. dielectric constant tensor:
#      x y z
#    x 1.790980 0.000000 0.000000 
#    y 0.000000 1.790980 0.000000 
#    z 0.000000 0.000000 1.826050 
# 
# From -- ./inp_files/6766.got.cif
#   From: 2010.03.12/outbox.cif.g09.slc.cpg/sg178_4_cif.got.tgz:6766.got - 2010.04.02 07:02:38.
