data_PCOD8325127
_publ_section_title
;
Structure prediction by ZEFSAII (Michael W. Deem and Ramdas Pophale) SiO2 
 PCOD8325127
Probable space group: P 6/M
;
_chemical_formula_sum "Si O2"
_cell_formula_units_Z 76
_cell_length_a 17.963277
_cell_length_b 17.963277
_cell_length_c 13.632754
_cell_angle_alpha 90.000000
_cell_angle_beta 90.000000
_cell_angle_gamma 120.000000
_cell_volume 3809.652505
_symmetry_space_group_name_H-M "P 6/M"
_symmetry_group_IT_number 175
_symmetry_cell_setting 'hexagonal'
loop_
_space_group_symop_operation_xyz
x,y,z
x-y,x,z
-y,x-y,z
-x,-y,z
-x+y,-x,z
y,-x+y,z
-x,-y,-z
-x+y,-x,-z
y,-x+y,-z
x,y,-z
x-y,x,-z
-y,x-y,-z
loop_
_atom_site_type_symbol
_atom_site_label
_atom_site_fract_x
_atom_site_fract_y
_atom_site_fract_z
Si Si1 0.370509 0.137144 0.711823
Si Si2 0.333334 0.666668 0.113820
Si Si3 0.805777 0.916560 0.615938
Si Si4 0.553152 0.146336 0.112712
Si Si5 0.650131 0.961410 0.889435
Si Si6 0.595135 0.580015 0.386227
Si Si7 0.318602 0.887550 0.227853
O O1 0.294765 0.128576 0.642571
O O2 0.322128 0.086752 0.811520
O O3 0.429921 0.103349 0.659720
O O4 0.436103 0.234304 0.746270
O O5 0.337515 0.581767 0.144866
O O6 0.333334 0.666668 0.000000
O O7 0.845854 0.859728 0.658198
O O8 0.812458 0.919796 0.500000
O O9 0.452748 0.081294 0.124076
O O10 0.601803 0.120587 0.191204
O O11 0.581146 0.142377 0.000000
O O12 0.698099 0.061457 0.859613
O O13 0.674852 0.950983 0.000000
O O14 0.500000 0.500000 0.370956
O O15 0.614911 0.603548 0.500000
O O16 0.599102 0.659717 0.329733
#
# Coordination Sequence:
#
# PCOD8325127 Si02
#       7
#    12   4  12  12  12  12  12
#     4  11  22  35  55  84 115 145 185 233 283 337
#     4   9  18  30  48  78 112 149 193 240 291 342
#     4  10  20  36  59  86 114 143 179 228 288 348
#     4  10  19  33  53  78 112 151 192 240 290 338
#     4  10  21  36  53  77 112 151 188 229 281 339
#     4  10  22  40  59  80 110 150 192 232 283 347
#     4  11  21  34  56  83 109 143 190 238 286 336
#
# _framework density 19.949325000000002
#
# number of rings (size 3 to 8) (size 9 to 14) (size 15 to 20)
#    0.000    1.737    0.000    6.316    0.000    6.947 
#    0.000    0.000    0.000    0.632    0.000    0.000 
#    0.000    2.526    0.000    0.000    0.000    0.000 
#
# Total GULP energy -941703.742638 kJ/mol
# GULP energy per Si atom -12390.838719 kJ/mol
# Density = 1.990392 g / cm^3
# Si number density = 19.949325 Si / 1000 Ang^3
#
#
#
# Elastic Constant Matrix: (Units=GPa)
#
#
# Indices 1 2 3 4 5 6 
#
# 1 87.4045 4.1145 17.4784 0.0000 0.0000 -0.0010
# 2 4.1145 87.4041 17.4793 0.0000 0.0000 0.0011
# 3 17.4784 17.4793 95.3748 0.0000 0.0000 0.0000
# 4 0.0000 0.0000 0.0000 25.3028 0.0000 0.0000
# 5 0.0000 0.0000 0.0000 0.0000 25.3028 0.0000
# 6 -0.0010 0.0011 0.0000 0.0000 0.0000 41.6480
#
#
#
# Elastic Compliance Matrix: (Units=1/GPa)
#
#
# Indices 1 2 3 4 5 6 
#
# 1 0.011878 -0.000129 -0.002153 0.000000 0.000000 0.000000
# 2 -0.000129 0.011878 -0.002153 0.000000 0.000000 0.000000
# 3 -0.002153 -0.002153 0.011274 0.000000 0.000000 0.000000
# 4 0.000000 0.000000 0.000000 0.039521 0.000000 0.000000
# 5 0.000000 0.000000 0.000000 0.000000 0.039521 0.000000
# 6 0.000000 0.000000 0.000000 0.000000 0.000000 0.024011
#
#
# Mechanical properties :
#
#
# Convention : Reuss Voigt Hill
#
# Bulk Modulus (GPa) = 38.22675 38.70308 38.46491
# Shear Modulus (GPa) = 32.11864 33.85814 32.98839
#
# Velocity S-wave (km/s) = 4.01685 4.12419 4.07087
# Velocity P-wave (km/s) = 6.38098 6.49010 6.43577
#
# Compressibility (1/GPa) = 0.02615969
#
# Stress axis : x y z
#
# Youngs Moduli (GPa) = 84.19154 84.19077 88.69835
#
# Poissons Ratio (x) = 0.01082 0.19098
# Poissons Ratio (y) = 0.01082 0.19099
# Poissons Ratio (z) = 0.18128 0.18129
#
# Static dielectric constant tensor:
#      x y z
#    x 3.029760 0.000110 0.000000 
#    y 0.000110 3.029880 0.000000 
#    z 0.000000 0.000000 3.771280 
# 
# 
# High freq. dielectric constant tensor:
#      x y z
#    x 1.770570 0.000000 0.000000 
#    y 0.000000 1.770570 0.000000 
#    z 0.000000 0.000000 1.777620 
# 
# From -- ./inp_files/2555.got.cif
#   From: 2010.03.12/outbox.cif.g09.slc.cpg/sg175_2_cif.got.tgz:2555.got - 2010.04.02 06:55:29.
