data_PCOD8325474
_publ_section_title
;
Structure prediction by ZEFSAII (Michael W. Deem and Ramdas Pophale) SiO2 
 PCOD8325474
Probable space group: P 63/M
;
_chemical_formula_sum "Si O2"
_cell_formula_units_Z 68
_cell_length_a 17.946130
_cell_length_b 17.946130
_cell_length_c 15.335144
_cell_angle_alpha 90.000000
_cell_angle_beta 90.000000
_cell_angle_gamma 120.000000
_cell_volume 4277.205425
_symmetry_space_group_name_H-M "P 63/M"
_symmetry_group_IT_number 176
_symmetry_cell_setting 'hexagonal'
loop_
_space_group_symop_operation_xyz
x,y,z
x-y,x,1/2+z
-y,x-y,z
-x,-y,1/2+z
-x+y,-x,z
y,-x+y,1/2+z
-x,-y,-z
-x+y,-x,1/2-z
y,-x+y,-z
x,y,1/2-z
x-y,x,-z
-y,x-y,1/2-z
loop_
_atom_site_type_symbol
_atom_site_label
_atom_site_fract_x
_atom_site_fract_y
_atom_site_fract_z
Si Si1 0.329233 0.430247 0.009855
Si Si2 0.666668 0.333334 0.851008
Si Si3 0.157642 0.545160 0.419374
Si Si4 0.795245 0.524244 0.426765
Si Si5 0.333334 0.666668 0.645714
Si Si6 0.556923 0.542583 0.154584
Si Si7 0.607699 0.640487 0.651738
O O1 0.376057 0.519251 0.060609
O O2 0.324522 0.358648 0.079310
O O3 0.239055 0.419129 0.976450
O O4 0.374136 0.427808 0.920987
O O5 0.666667 0.333334 0.750000
O O6 0.674039 0.253016 0.884241
O O7 0.146190 0.492947 0.506826
O O8 0.088775 0.484398 0.347870
O O9 0.718641 0.432734 0.387876
O O10 0.868071 0.587188 0.357646
O O11 0.333334 0.666668 0.750000
O O12 0.599922 0.552346 0.250000
O O13 0.483698 0.445257 0.138368
O O14 0.643821 0.644971 0.750000
#
# Coordination Sequence:
#
# PCOD8325474 Si02
#       7
#    12   4  12  12   4  12  12
#     4  11  20  33  51  65  92 123 156 204 250 290
#     4  12  22  29  43  69  91 119 169 211 239 283
#     4  11  18  33  45  61  91 125 155 202 248 280
#     4  12  19  33  51  66  92 130 160 203 258 290
#     4  12  22  29  43  75 100 122 172 226 257 280
#     4  10  19  32  48  65  88 122 158 196 247 294
#     4  10  20  34  50  69  91 123 162 199 245 298
#
# _framework density 15.898232
#
# number of rings (size 3 to 8) (size 9 to 14) (size 15 to 20)
#    0.000    1.059    7.059    2.118    0.000    3.529 
#    0.000    0.000    0.000    0.000    0.000    0.000 
#    0.000    0.000    0.000    0.529    0.000    0.529 
#
# Total GULP energy -842513.312116 kJ/mol
# GULP energy per Si atom -12389.901649 kJ/mol
# Density = 1.586205 g / cm^3
# Si number density = 15.898232 Si / 1000 Ang^3
#
#
#
# Elastic Constant Matrix: (Units=GPa)
#
#
# Indices 1 2 3 4 5 6 
#
# 1 48.0796 21.0882 23.2142 0.0000 0.0000 0.0002
# 2 21.0882 48.0794 23.2142 0.0000 0.0000 0.0000
# 3 23.2142 23.2142 107.4254 0.0000 0.0000 0.0000
# 4 0.0000 0.0000 0.0000 14.2466 0.0001 0.0000
# 5 0.0000 0.0000 0.0000 0.0001 14.2467 0.0000
# 6 0.0002 0.0000 0.0000 0.0000 0.0000 13.4953
#
#
#
# Elastic Compliance Matrix: (Units=1/GPa)
#
#
# Indices 1 2 3 4 5 6 
#
# 1 0.026980 -0.010069 -0.003654 0.000000 0.000000 0.000000
# 2 -0.010069 0.026980 -0.003654 0.000000 0.000000 0.000000
# 3 -0.003654 -0.003654 0.010888 0.000000 0.000000 0.000000
# 4 0.000000 0.000000 0.000000 0.070192 -0.000001 0.000000
# 5 0.000000 0.000000 0.000000 -0.000001 0.070191 0.000000
# 6 0.000000 0.000000 0.000000 0.000000 0.000000 0.074100
#
#
# Mechanical properties :
#
#
# Convention : Reuss Voigt Hill
#
# Bulk Modulus (GPa) = 33.23139 37.62417 35.42778
# Shear Modulus (GPa) = 15.42652 17.46893 16.44772
#
# Velocity S-wave (km/s) = 3.11839 3.31841 3.21995
# Velocity P-wave (km/s) = 5.82355 6.19673 6.01304
#
# Compressibility (1/GPa) = 0.03009203
#
# Stress axis : x y z
#
# Youngs Moduli (GPa) = 37.06493 37.06469 91.84298
#
# Poissons Ratio (x) = 0.37321 0.33562
# Poissons Ratio (y) = 0.37322 0.33563
# Poissons Ratio (z) = 0.13545 0.13545
#
# Static dielectric constant tensor:
#      x y z
#    x 2.836850 0.000000 0.000000 
#    y 0.000000 2.836860 0.000000 
#    z 0.000000 0.000000 3.269790 
# 
# 
# High freq. dielectric constant tensor:
#      x y z
#    x 1.570520 0.000000 0.000000 
#    y 0.000000 1.570520 0.000000 
#    z 0.000000 0.000000 1.633320 
# 
# From -- ./inp_files/2823.got.cif
#   From: 2010.06.25/outbox.cif.g09.slc.cpg/sg176_2_cif.got.tgz:2823.got - 2010.06.28 12:15:01.
