data_PCOD8325524
_publ_section_title
;
Structure prediction by ZEFSAII (Michael W. Deem and Ramdas Pophale) SiO2 
 PCOD8325524
Probable space group: P 63/M
;
_chemical_formula_sum "Si O2"
_cell_formula_units_Z 72
_cell_length_a 14.448002
_cell_length_b 14.448002
_cell_length_c 22.341405
_cell_angle_alpha 90.000000
_cell_angle_beta 90.000000
_cell_angle_gamma 120.000000
_cell_volume 4038.840470
_symmetry_space_group_name_H-M "P 63/M"
_symmetry_group_IT_number 176
_symmetry_cell_setting 'hexagonal'
loop_
_space_group_symop_operation_xyz
x,y,z
x-y,x,1/2+z
-y,x-y,z
-x,-y,1/2+z
-x+y,-x,z
y,-x+y,1/2+z
-x,-y,-z
-x+y,-x,1/2-z
y,-x+y,-z
x,y,1/2-z
x-y,x,-z
-y,x-y,1/2-z
loop_
_atom_site_type_symbol
_atom_site_label
_atom_site_fract_x
_atom_site_fract_y
_atom_site_fract_z
Si Si1 0.438390 0.644595 0.936942
Si Si2 0.914063 0.470994 0.750000
Si Si3 0.528808 0.004038 0.373174
Si Si4 0.205601 0.005400 0.518871
Si Si5 0.413596 0.189656 0.750000
Si Si6 0.912647 0.580311 0.545818
Si Si7 0.872371 0.229161 0.879787
O O1 0.447735 0.760739 0.931854
O O2 0.504374 0.628220 0.883426
O O3 0.484172 0.637010 0.000538
O O4 0.831548 0.344460 0.750000
O O5 0.851084 0.535062 0.750000
O O6 0.992916 0.505945 0.806175
O O7 0.437958 0.992489 0.418553
O O8 0.562781 0.917056 0.388371
O O9 0.294209 0.984927 0.488780
O O10 0.091970 0.897215 0.521887
O O11 0.244277 0.051421 0.586200
O O12 0.339016 0.137002 0.808725
O O13 0.830527 0.585830 0.591767
#
# Coordination Sequence:
#
# PCOD8325524 Si02
#       7
#    12   6  12  12   6  12  12
#     4  10  23  35  54  82 120 157 194 240 288 353
#     4  10  21  36  56  80 116 154 201 242 294 348
#     4  11  21  36  55  81 121 153 194 241 292 351
#     4  10  22  36  58  85 114 148 191 242 307 355
#     4  10  19  38  54  82 114 154 197 240 292 352
#     4  11  20  34  57  85 116 151 193 244 292 359
#     4  10  21  35  57  84 114 156 192 241 295 356
#
# _framework density 17.826898
#
# number of rings (size 3 to 8) (size 9 to 14) (size 15 to 20)
#    0.333    1.333    3.333    1.833    4.667    0.000 
#    1.000    0.833    0.000    7.000    0.000    0.000 
#    0.000    0.000    0.000    0.000    0.000    0.000 
#
# Total GULP energy -892615.886312 kJ/mol
# GULP energy per Si atom -12397.442865 kJ/mol
# Density = 1.778632 g / cm^3
# Si number density = 17.826898 Si / 1000 Ang^3
#
#
#
# Elastic Constant Matrix: (Units=GPa)
#
#
# Indices 1 2 3 4 5 6 
#
# 1 83.7153 27.9613 50.2617 0.0000 0.0000 0.0000
# 2 27.9613 83.7153 50.2617 0.0000 0.0000 0.0000
# 3 50.2617 50.2617 134.5727 0.0000 0.0000 0.0000
# 4 0.0000 0.0000 0.0000 22.1874 0.0000 0.0000
# 5 0.0000 0.0000 0.0000 0.0000 22.1874 0.0000
# 6 0.0000 0.0000 0.0000 0.0000 0.0000 27.8770
#
#
#
# Elastic Compliance Matrix: (Units=1/GPa)
#
#
# Indices 1 2 3 4 5 6 
#
# 1 0.015713 -0.002223 -0.005038 0.000000 0.000000 0.000000
# 2 -0.002223 0.015713 -0.005038 0.000000 0.000000 0.000000
# 3 -0.005038 -0.005038 0.011194 0.000000 0.000000 0.000000
# 4 0.000000 0.000000 0.000000 0.045071 0.000000 0.000000
# 5 0.000000 0.000000 0.000000 0.000000 0.045071 0.000000
# 6 0.000000 0.000000 0.000000 0.000000 0.000000 0.035872
#
#
# Mechanical properties :
#
#
# Convention : Reuss Voigt Hill
#
# Bulk Modulus (GPa) = 55.49234 62.10810 58.80022
# Shear Modulus (GPa) = 25.09549 26.01826 25.55688
#
# Velocity S-wave (km/s) = 3.75605 3.82448 3.79042
# Velocity P-wave (km/s) = 7.07153 7.37681 7.22578
#
# Compressibility (1/GPa) = 0.01802051
#
# Stress axis : x y z
#
# Youngs Moduli (GPa) = 63.64280 63.64280 89.33061
#
# Poissons Ratio (x) = 0.14149 0.45007
# Poissons Ratio (y) = 0.14149 0.45007
# Poissons Ratio (z) = 0.32064 0.32064
#
# Static dielectric constant tensor:
#      x y z
#    x 3.272670 0.000000 0.000000 
#    y 0.000000 3.272670 0.000000 
#    z 0.000000 0.000000 3.410150 
# 
# 
# High freq. dielectric constant tensor:
#      x y z
#    x 1.686110 0.000000 0.000000 
#    y 0.000000 1.686110 0.000000 
#    z 0.000000 0.000000 1.684800 
# 
# From -- ./inp_files/3827.got.cif
#   From: 2010.06.25/outbox.cif.g09.slc.cpg/sg176_2_cif.got.tgz:3827.got - 2010.06.28 12:15:01.
