data_PCOD8325867
_publ_section_title
;
Structure prediction by ZEFSAII (Michael W. Deem and Ramdas Pophale) SiO2 
 PCOD8325867
Probable space group: P 61 2 2
;
_chemical_formula_sum "Si O2"
_cell_formula_units_Z 42
_cell_length_a 8.775871
_cell_length_b 8.775871
_cell_length_c 27.084767
_cell_angle_alpha 90.000000
_cell_angle_beta 90.000000
_cell_angle_gamma 120.000000
_cell_volume 1806.492642
_symmetry_space_group_name_H-M "P 61 2 2"
_symmetry_group_IT_number 178
_symmetry_cell_setting 'hexagonal'
loop_
_space_group_symop_operation_xyz
x,y,z
x-y,x,1/6+z
-y,x-y,1/3+z
-x,-y,1/2+z
-x+y,-x,2/3+z
y,-x+y,5/6+z
x-y,-y,-z
-x,-x+y,2/3-z
y,x,1/3-z
-y,-x,5/6-z
-x+y,y,1/2-z
x,x-y,1/6-z
loop_
_atom_site_type_symbol
_atom_site_label
_atom_site_fract_x
_atom_site_fract_y
_atom_site_fract_z
Si Si1 0.692708 0.150185 0.063743
Si Si2 0.490765 0.509236 0.416667
Si Si3 0.920869 0.079132 0.916667
Si Si4 0.205070 0.495940 0.180132
Si Si5 0.888693 0.888693 0.666667
O O1 0.602329 0.183045 0.015896
O O2 0.572585 0.133477 0.110907
O O3 0.894317 0.306883 0.068716
O O4 0.709532 0.977841 0.059144
O O5 0.470835 0.618566 0.460777
O O6 0.907530 0.945404 0.874573
O O7 0.135087 0.290565 0.190094
#
# Coordination Sequence:
#
# PCOD8325867 Si02
#       5
#    12   6   6  12   6
#     4  10  25  46  73 108 146 185 246 300 359 427
#     4  10  20  45  79 102 140 196 232 302 344 442
#     4  12  26  45  75 108 142 186 252 306 356 424
#     4  10  23  48  71 107 146 195 237 289 375 429
#     4  12  26  48  76 100 148 202 236 294 368 444
#
# _framework density 23.249472999999998
#
# number of rings (size 3 to 8) (size 9 to 14) (size 15 to 20)
#    0.000    1.714    2.857    1.714    4.000    1.143 
#   25.714    1.429    0.000    0.000    0.000    0.000 
#    0.000    0.000    0.000    0.000    0.000    0.000 
#
# Total GULP energy -520744.167277 kJ/mol
# GULP energy per Si atom -12398.670649 kJ/mol
# Density = 2.319656 g / cm^3
# Si number density = 23.249473 Si / 1000 Ang^3
#
#
#
# Elastic Constant Matrix: (Units=GPa)
#
#
# Indices 1 2 3 4 5 6 
#
# 1 136.8833 74.1364 31.6652 0.0000 0.0000 0.0000
# 2 74.1364 136.8833 31.6652 0.0000 0.0000 0.0000
# 3 31.6652 31.6652 64.0896 0.0000 0.0000 0.0000
# 4 0.0000 0.0000 0.0000 28.2005 0.0000 0.0000
# 5 0.0000 0.0000 0.0000 0.0000 28.2005 0.0000
# 6 0.0000 0.0000 0.0000 0.0000 0.0000 31.3735
#
#
#
# Elastic Compliance Matrix: (Units=1/GPa)
#
#
# Indices 1 2 3 4 5 6 
#
# 1 0.010750 -0.005187 -0.002749 0.000000 0.000000 0.000000
# 2 -0.005187 0.010750 -0.002749 0.000000 0.000000 0.000000
# 3 -0.002749 -0.002749 0.018320 0.000000 0.000000 0.000000
# 4 0.000000 0.000000 0.000000 0.035460 0.000000 0.000000
# 5 0.000000 0.000000 0.000000 0.000000 0.035460 0.000000
# 6 0.000000 0.000000 0.000000 0.000000 0.000000 0.031874
#
#
# Mechanical properties :
#
#
# Convention : Reuss Voigt Hill
#
# Bulk Modulus (GPa) = 54.19640 68.08776 61.14208
# Shear Modulus (GPa) = 29.38845 30.91421 30.15133
#
# Velocity S-wave (km/s) = 3.55920 3.65042 3.60510
# Velocity P-wave (km/s) = 6.34444 6.86417 6.60942
#
# Compressibility (1/GPa) = 0.01845141
#
# Stress axis : x y z
#
# Youngs Moduli (GPa) = 93.01919 93.01919 54.58637
#
# Poissons Ratio (x) = 0.48245 0.15006
# Poissons Ratio (y) = 0.48245 0.15006
# Poissons Ratio (z) = 0.25571 0.25571
#
# Static dielectric constant tensor:
#      x y z
#    x 4.265810 0.000000 0.000000 
#    y 0.000000 4.265810 0.000000 
#    z 0.000000 0.000000 4.076550 
# 
# 
# High freq. dielectric constant tensor:
#      x y z
#    x 1.926580 0.000000 0.000000 
#    y 0.000000 1.926580 0.000000 
#    z 0.000000 0.000000 1.913360 
# 
# From -- ./inp_files/9226.got.cif
#   From: 2010.03.12/outbox.cif.g09.slc.cpg/sg178_5_cif.got.tgz:9226.got - 2010.04.02 07:02:38.
