data_PCOD8325780
_publ_section_title
;
Structure prediction by ZEFSAII (Michael W. Deem and Ramdas Pophale) SiO2 
 PCOD8325780
Probable space group: P 61 2 2
;
_chemical_formula_sum "Si O2"
_cell_formula_units_Z 60
_cell_length_a 15.064920
_cell_length_b 15.064920
_cell_length_c 19.230616
_cell_angle_alpha 90.000000
_cell_angle_beta 90.000000
_cell_angle_gamma 120.000000
_cell_volume 3779.701362
_symmetry_space_group_name_H-M "P 61 2 2"
_symmetry_group_IT_number 178
_symmetry_cell_setting 'hexagonal'
loop_
_space_group_symop_operation_xyz
x,y,z
x-y,x,1/6+z
-y,x-y,1/3+z
-x,-y,1/2+z
-x+y,-x,2/3+z
y,-x+y,5/6+z
x-y,-y,-z
-x,-x+y,2/3-z
y,x,1/3-z
-y,-x,5/6-z
-x+y,y,1/2-z
x,x-y,1/6-z
loop_
_atom_site_type_symbol
_atom_site_label
_atom_site_fract_x
_atom_site_fract_y
_atom_site_fract_z
Si Si1 0.678369 0.183622 0.086950
Si Si2 0.454342 0.134765 0.113817
Si Si3 0.782750 0.490313 0.575779
Si Si4 0.416691 0.583310 0.916667
Si Si5 0.581773 0.000000 0.000000
Si Si6 0.079929 0.596171 0.727309
O O1 0.566468 0.173003 0.080793
O O2 0.698824 0.166657 0.167191
O O3 0.762310 0.297138 0.061993
O O4 0.680738 0.093911 0.039643
O O5 0.410442 0.205221 0.083334
O O6 0.454294 0.134483 0.197590
O O7 0.381962 0.014654 0.096990
O O8 0.735584 0.367792 0.583334
O O9 0.693071 0.514486 0.590858
O O10 0.477135 0.571839 0.852094
O O11 0.499741 0.942068 0.059868
#
# Coordination Sequence:
#
# PCOD8325780 Si02
#       6
#    12  12  12   6   6  12
#     4   9  18  30  43  63  88 123 164 198 239 286
#     4  10  18  30  47  64  92 125 164 203 242 291
#     4   9  18  30  47  61  94 130 159 200 249 288
#     4  10  20  32  46  66  94 124 168 214 242 290
#     4  10  20  28  44  64  90 118 166 208 236 290
#     4  10  21  28  46  69  89 124 172 201 242 295
#
# _framework density 15.874269999999999
#
# number of rings (size 3 to 8) (size 9 to 14) (size 15 to 20)
#    0.000    2.400    1.000    2.400   12.600    0.000 
#    0.000    0.000    0.000    0.000    0.000    0.000 
#    0.000    0.000    0.000   28.800    0.000    1.200 
#
# Total GULP energy -743347.644338 kJ/mol
# GULP energy per Si atom -12389.127406 kJ/mol
# Density = 1.583814 g / cm^3
# Si number density = 15.874270 Si / 1000 Ang^3
#
#
#
# Elastic Constant Matrix: (Units=GPa)
#
#
# Indices 1 2 3 4 5 6 
#
# 1 63.8977 34.0588 22.5918 0.0000 0.0000 0.0000
# 2 34.0588 63.8977 22.5918 0.0000 0.0000 0.0000
# 3 22.5918 22.5918 57.7598 0.0000 0.0000 0.0000
# 4 0.0000 0.0000 0.0000 24.5033 0.0000 0.0000
# 5 0.0000 0.0000 0.0000 0.0000 24.5033 0.0000
# 6 0.0000 0.0000 0.0000 0.0000 0.0000 14.9195
#
#
#
# Elastic Compliance Matrix: (Units=1/GPa)
#
#
# Indices 1 2 3 4 5 6 
#
# 1 0.022985 -0.010529 -0.004872 0.000000 0.000000 0.000000
# 2 -0.010529 0.022985 -0.004872 0.000000 0.000000 0.000000
# 3 -0.004872 -0.004872 0.021124 0.000000 0.000000 0.000000
# 4 0.000000 0.000000 0.000000 0.040811 0.000000 0.000000
# 5 0.000000 0.000000 0.000000 0.000000 0.040811 0.000000
# 6 0.000000 0.000000 0.000000 0.000000 0.000000 0.067026
#
#
# Mechanical properties :
#
#
# Convention : Reuss Voigt Hill
#
# Bulk Modulus (GPa) = 37.66719 38.22665 37.94692
# Shear Modulus (GPa) = 18.85827 19.87276 19.36551
#
# Velocity S-wave (km/s) = 3.45044 3.54204 3.49654
# Velocity P-wave (km/s) = 6.29715 6.39228 6.34489
#
# Compressibility (1/GPa) = 0.02654830
#
# Stress axis : x y z
#
# Youngs Moduli (GPa) = 43.50753 43.50753 47.33910
#
# Poissons Ratio (x) = 0.45808 0.23063
# Poissons Ratio (y) = 0.45808 0.23063
# Poissons Ratio (z) = 0.21196 0.21196
#
# Static dielectric constant tensor:
#      x y z
#    x 2.934860 0.000000 0.000000 
#    y 0.000000 2.934860 0.000000 
#    z 0.000000 0.000000 3.373510 
# 
# 
# High freq. dielectric constant tensor:
#      x y z
#    x 1.571800 0.000000 0.000000 
#    y 0.000000 1.571800 0.000000 
#    z 0.000000 0.000000 1.639110 
# 
# From -- ./inp_files/7600.got.cif
#   From: 2010.03.12/outbox.cif.g09.slc.cpg/sg178_4_cif.got.tgz:7600.got - 2010.04.02 07:02:38.
