data_PCOD8325472
_publ_section_title
;
Structure prediction by ZEFSAII (Michael W. Deem and Ramdas Pophale) SiO2 
 PCOD8325472
Probable space group: P 63/M
;
_chemical_formula_sum "Si O2"
_cell_formula_units_Z 72
_cell_length_a 23.443263
_cell_length_b 23.443263
_cell_length_c 9.033579
_cell_angle_alpha 90.000000
_cell_angle_beta 90.000000
_cell_angle_gamma 120.000000
_cell_volume 4299.585584
_symmetry_space_group_name_H-M "P 63/M"
_symmetry_group_IT_number 176
_symmetry_cell_setting 'hexagonal'
loop_
_space_group_symop_operation_xyz
x,y,z
x-y,x,1/2+z
-y,x-y,z
-x,-y,1/2+z
-x+y,-x,z
y,-x+y,1/2+z
-x,-y,-z
-x+y,-x,1/2-z
y,-x+y,-z
x,y,1/2-z
x-y,x,-z
-y,x-y,1/2-z
loop_
_atom_site_type_symbol
_atom_site_label
_atom_site_fract_x
_atom_site_fract_y
_atom_site_fract_z
Si Si1 0.411056 0.139559 0.419158
Si Si2 0.401938 0.467642 0.421796
Si Si3 0.405878 0.267312 0.077859
Si Si4 0.926417 0.187457 0.079077
Si Si5 0.930143 0.530654 0.922322
Si Si6 0.922859 0.731250 0.922874
O O1 0.424973 0.129172 0.250000
O O2 0.457110 0.125082 0.525349
O O3 0.429434 0.214464 0.447821
O O4 0.334884 0.090591 0.460496
O O5 0.399769 0.450445 0.250000
O O6 0.456375 0.543091 0.453651
O O7 0.417339 0.418413 0.512977
O O8 0.400365 0.279288 0.250000
O O9 0.460245 0.334477 0.002057
O O10 0.334800 0.242689 0.006711
O O11 0.908288 0.167112 0.250000
O O12 0.002303 0.213127 0.044344
O O13 0.882678 0.123071 0.980284
O O14 0.930886 0.545686 0.750000
O O15 0.910834 0.715055 0.750000
#
# Coordination Sequence:
#
# PCOD8325472 Si02
#       6
#    12  12  12  12  12  12
#     4   9  18  32  49  70  98 127 154 193 240 282
#     4  10  20  32  49  73  98 127 161 195 235 283
#     4  10  20  33  50  72  97 126 159 196 238 283
#     4   9  19  33  47  69  99 126 157 196 236 281
#     4  10  20  33  49  71  99 128 159 197 238 280
#     4  10  19  31  50  73  97 128 160 194 239 284
#
# _framework density 16.745799999999999
#
# number of rings (size 3 to 8) (size 9 to 14) (size 15 to 20)
#    0.000    2.333    0.000    4.000    0.000    8.000 
#    0.000    0.000    0.000    1.000    0.000    0.000 
#    0.000    0.000    0.000    0.000    0.000    0.000 
#
# Total GULP energy -893058.868780 kJ/mol
# GULP energy per Si atom -12403.595400 kJ/mol
# Density = 1.670769 g / cm^3
# Si number density = 16.745800 Si / 1000 Ang^3
#
#
#
# Elastic Constant Matrix: (Units=GPa)
#
#
# Indices 1 2 3 4 5 6 
#
# 1 99.6758 54.9964 61.2748 0.0000 0.0000 0.0000
# 2 54.9964 99.6758 61.2748 0.0000 0.0000 0.0000
# 3 61.2748 61.2748 107.7086 0.0000 0.0000 0.0000
# 4 0.0000 0.0000 0.0000 32.0576 0.0000 0.0000
# 5 0.0000 0.0000 0.0000 0.0000 32.0576 0.0000
# 6 0.0000 0.0000 0.0000 0.0000 0.0000 22.3397
#
#
#
# Elastic Compliance Matrix: (Units=1/GPa)
#
#
# Indices 1 2 3 4 5 6 
#
# 1 0.017076 -0.005305 -0.006696 0.000000 0.000000 0.000000
# 2 -0.005305 0.017076 -0.006696 0.000000 0.000000 0.000000
# 3 -0.006696 -0.006696 0.016903 0.000000 0.000000 0.000000
# 4 0.000000 0.000000 0.000000 0.031194 0.000000 0.000000
# 5 0.000000 0.000000 0.000000 0.000000 0.031194 0.000000
# 6 0.000000 0.000000 0.000000 0.000000 0.000000 0.044763
#
#
# Mechanical properties :
#
#
# Convention : Reuss Voigt Hill
#
# Bulk Modulus (GPa) = 73.20831 73.57245 73.39038
# Shear Modulus (GPa) = 24.98041 25.92528 25.45284
#
# Velocity S-wave (km/s) = 3.86650 3.93894 3.90289
# Velocity P-wave (km/s) = 7.98407 8.04470 8.01445
#
# Compressibility (1/GPa) = 0.01365965
#
# Stress axis : x y z
#
# Youngs Moduli (GPa) = 58.56057 58.56057 59.15955
#
# Poissons Ratio (x) = 0.31068 0.39616
# Poissons Ratio (y) = 0.31068 0.39616
# Poissons Ratio (z) = 0.39215 0.39215
#
# Static dielectric constant tensor:
#      x y z
#    x 3.047240 0.000000 0.000000 
#    y 0.000000 3.047240 0.000000 
#    z 0.000000 0.000000 3.242240 
# 
# 
# High freq. dielectric constant tensor:
#      x y z
#    x 1.633190 0.000000 0.000000 
#    y 0.000000 1.633190 0.000000 
#    z 0.000000 0.000000 1.659930 
# 
# From -- ./inp_files/1160.got.cif
#   From: 2010.06.25/outbox.cif.g09.slc.cpg/sg176_1_cif.got.tgz:1160.got - 2010.06.28 12:15:01.
