data_PCOD8325566
_publ_section_title
;
Structure prediction by ZEFSAII (Michael W. Deem and Ramdas Pophale) SiO2 
 PCOD8325566
Probable space group: P 63/M
;
_chemical_formula_sum "Si O2"
_cell_formula_units_Z 72
_cell_length_a 22.209465
_cell_length_b 22.209465
_cell_length_c 9.205971
_cell_angle_alpha 90.000000
_cell_angle_beta 90.000000
_cell_angle_gamma 120.000000
_cell_volume 3932.569696
_symmetry_space_group_name_H-M "P 63/M"
_symmetry_group_IT_number 176
_symmetry_cell_setting 'hexagonal'
loop_
_space_group_symop_operation_xyz
x,y,z
x-y,x,1/2+z
-y,x-y,z
-x,-y,1/2+z
-x+y,-x,z
y,-x+y,1/2+z
-x,-y,-z
-x+y,-x,1/2-z
y,-x+y,-z
x,y,1/2-z
x-y,x,-z
-y,x-y,1/2-z
loop_
_atom_site_type_symbol
_atom_site_label
_atom_site_fract_x
_atom_site_fract_y
_atom_site_fract_z
Si Si1 0.741625 0.754818 0.420854
Si Si2 0.224455 0.777070 0.583496
Si Si3 0.853678 0.711518 0.079941
Si Si4 0.005565 0.627762 0.081917
Si Si5 0.150187 0.641919 0.420292
Si Si6 0.874781 0.489098 0.413782
O O1 0.730777 0.756910 0.250000
O O2 0.751198 0.825157 0.492734
O O3 0.810125 0.749808 0.455652
O O4 0.673440 0.688929 0.484140
O O5 0.205843 0.753778 0.750000
O O6 0.177719 0.809312 0.526907
O O7 0.212128 0.710952 0.490393
O O8 0.303846 0.833323 0.561109
O O9 0.870722 0.714125 0.250000
O O10 0.002995 0.646971 0.250000
O O11 0.080152 0.640970 0.033902
O O12 0.954522 0.545985 0.054554
O O13 0.160945 0.644383 0.250000
O O14 0.151631 0.574829 0.477656
O O15 0.865248 0.460185 0.250000
#
# Coordination Sequence:
#
# PCOD8325566 Si02
#       6
#    12  12  12  12  12  12
#     4  11  22  35  60  92 119 154 192 231 284 340
#     4  10  20  38  60  79 108 152 193 234 285 345
#     4  10  21  39  60  87 123 154 188 235 283 339
#     4  10  20  36  57  84 116 149 182 227 287 340
#     4  11  23  36  55  83 114 145 183 239 291 331
#     4  10  21  38  58  77 106 151 193 228 280 344
#
# _framework density 18.308641000000001
#
# number of rings (size 3 to 8) (size 9 to 14) (size 15 to 20)
#    0.000    1.667    3.333    1.500    0.000    4.000 
#    1.000    0.000    0.000    0.333    0.000    0.000 
#    0.000    0.000    0.000    0.000    0.000    0.000 
#
# Total GULP energy -893109.511317 kJ/mol
# GULP energy per Si atom -12404.298768 kJ/mol
# Density = 1.826697 g / cm^3
# Si number density = 18.308641 Si / 1000 Ang^3
#
#
#
# Elastic Constant Matrix: (Units=GPa)
#
#
# Indices 1 2 3 4 5 6 
#
# 1 76.8413 29.4896 43.8729 0.0000 0.0000 0.0000
# 2 29.4896 76.8413 43.8729 0.0000 0.0000 0.0000
# 3 43.8729 43.8729 78.3374 0.0000 0.0000 0.0000
# 4 0.0000 0.0000 0.0000 32.4511 0.0000 0.0000
# 5 0.0000 0.0000 0.0000 0.0000 32.4511 0.0000
# 6 0.0000 0.0000 0.0000 0.0000 0.0000 23.6759
#
#
#
# Elastic Compliance Matrix: (Units=1/GPa)
#
#
# Indices 1 2 3 4 5 6 
#
# 1 0.019302 -0.001816 -0.009793 0.000000 0.000000 0.000000
# 2 -0.001816 0.019302 -0.009793 0.000000 0.000000 0.000000
# 3 -0.009793 -0.009793 0.023734 0.000000 0.000000 0.000000
# 4 0.000000 0.000000 0.000000 0.030816 0.000000 0.000000
# 5 0.000000 0.000000 0.000000 0.000000 0.030816 0.000000
# 6 0.000000 0.000000 0.000000 0.000000 0.000000 0.042237
#
#
# Mechanical properties :
#
#
# Convention : Reuss Voigt Hill
#
# Bulk Modulus (GPa) = 51.19202 51.83232 51.51217
# Shear Modulus (GPa) = 23.19936 25.36793 24.28364
#
# Velocity S-wave (km/s) = 3.56353 3.72636 3.64586
# Velocity P-wave (km/s) = 6.70470 6.84735 6.77640
#
# Compressibility (1/GPa) = 0.01953429
#
# Stress axis : x y z
#
# Youngs Moduli (GPa) = 51.80748 51.80748 42.13289
#
# Poissons Ratio (x) = 0.09410 0.41261
# Poissons Ratio (y) = 0.09410 0.41261
# Poissons Ratio (z) = 0.50735 0.50735
#
# Static dielectric constant tensor:
#      x y z
#    x 3.342220 0.000000 0.000000 
#    y 0.000000 3.342220 0.000000 
#    z 0.000000 0.000000 3.384380 
# 
# 
# High freq. dielectric constant tensor:
#      x y z
#    x 1.706180 0.000000 0.000000 
#    y 0.000000 1.706180 0.000000 
#    z 0.000000 0.000000 1.710410 
# 
# From -- ./inp_files/1222.got.cif
#   From: 2010.06.25/outbox.cif.g09.slc.cpg/sg176_1_cif.got.tgz:1222.got - 2010.06.28 12:15:01.
