data_PCOD8325356
_publ_section_title
;
Structure prediction by ZEFSAII (Michael W. Deem and Ramdas Pophale) SiO2 
 PCOD8325356
Probable space group: P 6/M
;
_chemical_formula_sum "Si O2"
_cell_formula_units_Z 48
_cell_length_a 20.535067
_cell_length_b 20.535067
_cell_length_c 8.914613
_cell_angle_alpha 90.000000
_cell_angle_beta 90.000000
_cell_angle_gamma 120.000000
_cell_volume 3255.557531
_symmetry_space_group_name_H-M "P 6/M"
_symmetry_group_IT_number 175
_symmetry_cell_setting 'hexagonal'
loop_
_space_group_symop_operation_xyz
x,y,z
x-y,x,z
-y,x-y,z
-x,-y,z
-x+y,-x,z
y,-x+y,z
-x,-y,-z
-x+y,-x,-z
y,-x+y,-z
x,y,-z
x-y,x,-z
-y,x-y,-z
loop_
_atom_site_type_symbol
_atom_site_label
_atom_site_fract_x
_atom_site_fract_y
_atom_site_fract_z
Si Si1 0.819861 0.268707 0.823233
Si Si2 0.378058 0.034061 0.330798
Si Si3 0.115538 0.441939 0.823699
Si Si4 0.130127 0.586396 0.330640
O O1 0.897317 0.274947 0.759641
O O2 0.751009 0.188542 0.777661
O O3 0.808416 0.334177 0.745927
O O4 0.826232 0.281467 0.000000
O O5 0.348999 0.030982 0.500000
O O6 0.464554 0.050564 0.332039
O O7 0.325307 0.954973 0.251147
O O8 0.123787 0.519047 0.766583
O O9 0.102811 0.437497 0.000000
O O10 0.155191 0.581455 0.500000
#
# Coordination Sequence:
#
# PCOD8325356 Si02
#       4
#    12  12  12  12
#     4   9  19  33  45  64  87 109 145 183 218 259
#     4   9  19  32  47  66  86 112 145 181 216 259
#     4  11  20  30  49  67  84 116 144 179 225 259
#     4   9  19  32  46  65  86 112 147 183 217 259
#
# _framework density 14.744018000000001
#
# number of rings (size 3 to 8) (size 9 to 14) (size 15 to 20)
#    1.500    1.000    0.000    3.000    0.000    7.000 
#    1.500    0.000    0.000    0.000    0.000    0.000 
#    0.000    0.000    0.000    0.750    0.000   14.500 
#
# Total GULP energy -594713.571031 kJ/mol
# GULP energy per Si atom -12389.866063 kJ/mol
# Density = 1.471046 g / cm^3
# Si number density = 14.744018 Si / 1000 Ang^3
#
#
#
# Elastic Constant Matrix: (Units=GPa)
#
#
# Indices 1 2 3 4 5 6 
#
# 1 47.3234 18.7781 11.0590 0.0000 0.0000 0.0000
# 2 18.7781 47.3234 11.0590 0.0000 0.0000 0.0000
# 3 11.0590 11.0590 51.3650 0.0000 0.0000 0.0000
# 4 0.0000 0.0000 0.0000 18.0973 0.0000 0.0000
# 5 0.0000 0.0000 0.0000 0.0000 18.0973 0.0000
# 6 0.0000 0.0000 0.0000 0.0000 0.0000 14.2727
#
#
#
# Elastic Compliance Matrix: (Units=1/GPa)
#
#
# Indices 1 2 3 4 5 6 
#
# 1 0.025667 -0.009365 -0.003510 0.000000 0.000000 0.000000
# 2 -0.009365 0.025667 -0.003510 0.000000 0.000000 0.000000
# 3 -0.003510 -0.003510 0.020980 0.000000 0.000000 0.000000
# 4 0.000000 0.000000 0.000000 0.055257 0.000000 0.000000
# 5 0.000000 0.000000 0.000000 0.000000 0.055257 0.000000
# 6 0.000000 0.000000 0.000000 0.000000 0.000000 0.070064
#
#
# Mechanical properties :
#
#
# Convention : Reuss Voigt Hill
#
# Bulk Modulus (GPa) = 25.28745 25.31157 25.29951
# Shear Modulus (GPa) = 16.73117 17.10118 16.91617
#
# Velocity S-wave (km/s) = 3.37230 3.40938 3.39089
# Velocity P-wave (km/s) = 5.68783 5.71867 5.70327
#
# Compressibility (1/GPa) = 0.03954530
#
# Stress axis : x y z
#
# Youngs Moduli (GPa) = 38.96000 38.96000 47.66459
#
# Poissons Ratio (x) = 0.36485 0.16730
# Poissons Ratio (y) = 0.36485 0.16730
# Poissons Ratio (z) = 0.13675 0.13675
#
# Static dielectric constant tensor:
#      x y z
#    x 2.643630 0.000000 0.000000 
#    y 0.000000 2.643630 0.000000 
#    z 0.000000 0.000000 2.966840 
# 
# 
# High freq. dielectric constant tensor:
#      x y z
#    x 1.532560 0.000000 0.000000 
#    y 0.000000 1.532560 0.000000 
#    z 0.000000 0.000000 1.587920 
# 
# From -- ./inp_files/725.got.cif
#   From: 2010.03.12/outbox.cif.g09.slc.cpg/sg175_1_cif.got.tgz:725.got - 2010.04.02 06:55:29.
