data_PCOD8325526
_publ_section_title
;
Structure prediction by ZEFSAII (Michael W. Deem and Ramdas Pophale) SiO2 
 PCOD8325526
Probable space group: P 63/M
;
_chemical_formula_sum "Si O2"
_cell_formula_units_Z 48
_cell_length_a 20.658536
_cell_length_b 20.658536
_cell_length_c 8.788164
_cell_angle_alpha 90.000000
_cell_angle_beta 90.000000
_cell_angle_gamma 120.000000
_cell_volume 3248.088600
_symmetry_space_group_name_H-M "P 63/M"
_symmetry_group_IT_number 176
_symmetry_cell_setting 'hexagonal'
loop_
_space_group_symop_operation_xyz
x,y,z
x-y,x,1/2+z
-y,x-y,z
-x,-y,1/2+z
-x+y,-x,z
y,-x+y,1/2+z
-x,-y,-z
-x+y,-x,1/2-z
y,-x+y,-z
x,y,1/2-z
x-y,x,-z
-y,x-y,1/2-z
loop_
_atom_site_type_symbol
_atom_site_label
_atom_site_fract_x
_atom_site_fract_y
_atom_site_fract_z
Si Si1 0.442650 0.320244 0.930556
Si Si2 0.650165 0.616989 0.922001
Si Si3 0.544301 0.140602 0.921795
Si Si4 0.441747 0.181051 0.429034
O O1 0.440897 0.321442 0.750000
O O2 0.523059 0.385381 0.991973
O O3 0.377496 0.333390 0.992535
O O4 0.427112 0.241377 0.990309
O O5 0.673283 0.646928 0.750000
O O6 0.585764 0.528853 0.921224
O O7 0.721891 0.622486 0.010822
O O8 0.562012 0.172886 0.750000
O O9 0.523854 0.193881 0.023034
O O10 0.436802 0.187412 0.250000
#
# Coordination Sequence:
#
# PCOD8325526 Si02
#       4
#    12  12  12  12
#     4  11  19  31  50  67  86 118 148 182 230 268
#     4   9  18  33  48  66  88 113 148 186 220 267
#     4   8  18  33  47  64  87 114 148 186 221 267
#     4  10  20  32  45  65  89 113 147 187 223 266
#
# _framework density 14.777922
#
# number of rings (size 3 to 8) (size 9 to 14) (size 15 to 20)
#    1.500    1.000    0.000    3.750    0.000    2.000 
#    1.500    0.000    0.000    0.000    0.000    0.000 
#    0.000    0.000    0.000    0.750    0.000   10.500 
#
# Total GULP energy -594680.707819 kJ/mol
# GULP energy per Si atom -12389.181413 kJ/mol
# Density = 1.474429 g / cm^3
# Si number density = 14.777922 Si / 1000 Ang^3
#
#
#
# Elastic Constant Matrix: (Units=GPa)
#
#
# Indices 1 2 3 4 5 6 
#
# 1 64.5193 35.5123 6.6242 0.0000 0.0000 0.0000
# 2 35.5123 64.5193 6.6242 0.0000 0.0000 0.0000
# 3 6.6242 6.6242 40.7842 0.0000 0.0000 0.0000
# 4 0.0000 0.0000 0.0000 23.8270 0.0000 0.0000
# 5 0.0000 0.0000 0.0000 0.0000 23.8270 0.0000
# 6 0.0000 0.0000 0.0000 0.0000 0.0000 14.5035
#
#
#
# Elastic Compliance Matrix: (Units=1/GPa)
#
#
# Indices 1 2 3 4 5 6 
#
# 1 0.022345 -0.012129 -0.001659 0.000000 0.000000 0.000000
# 2 -0.012129 0.022345 -0.001659 0.000000 0.000000 0.000000
# 3 -0.001659 -0.001659 0.025058 0.000000 0.000000 0.000000
# 4 0.000000 0.000000 0.000000 0.041969 0.000000 0.000000
# 5 0.000000 0.000000 0.000000 0.000000 0.041969 0.000000
# 6 0.000000 0.000000 0.000000 0.000000 0.000000 0.068949
#
#
# Mechanical properties :
#
#
# Convention : Reuss Voigt Hill
#
# Bulk Modulus (GPa) = 25.73740 29.70494 27.72117
# Shear Modulus (GPa) = 18.76291 20.50230 19.63260
#
# Velocity S-wave (km/s) = 3.56709 3.72877 3.64883
# Velocity P-wave (km/s) = 5.86681 6.21955 6.04575
#
# Compressibility (1/GPa) = 0.03885396
#
# Stress axis : x y z
#
# Youngs Moduli (GPa) = 44.75175 44.75175 39.90692
#
# Poissons Ratio (x) = 0.54279 0.06622
# Poissons Ratio (y) = 0.54279 0.06622
# Poissons Ratio (z) = 0.07426 0.07426
#
# Static dielectric constant tensor:
#      x y z
#    x 2.623160 0.000000 0.000000 
#    y 0.000000 2.623160 0.000000 
#    z 0.000000 0.000000 2.874650 
# 
# 
# High freq. dielectric constant tensor:
#      x y z
#    x 1.534840 0.000000 0.000000 
#    y 0.000000 1.534840 0.000000 
#    z 0.000000 0.000000 1.580040 
# 
# From -- ./inp_files/772.got.cif
#   From: 2010.06.25/outbox.cif.g09.slc.cpg/sg176_1_cif.got.tgz:772.got - 2010.06.28 12:15:01.
