data_PCOD8325749
_publ_section_title
;
Structure prediction by ZEFSAII (Michael W. Deem and Ramdas Pophale) SiO2 
 PCOD8325749
Probable space group: P 6 2 2
;
_chemical_formula_sum "Si O2"
_cell_formula_units_Z 48
_cell_length_a 13.475134
_cell_length_b 13.475134
_cell_length_c 12.272283
_cell_angle_alpha 90.000000
_cell_angle_beta 90.000000
_cell_angle_gamma 120.000000
_cell_volume 1929.843887
_symmetry_space_group_name_H-M "P 6 2 2"
_symmetry_group_IT_number 177
_symmetry_cell_setting 'hexagonal'
loop_
_space_group_symop_operation_xyz
x,y,z
x-y,x,z
-y,x-y,z
-x,-y,z
-x+y,-x,z
y,-x+y,z
x-y,-y,-z
-x,-x+y,-z
y,x,-z
-y,-x,-z
-x+y,y,-z
x,x-y,-z
loop_
_atom_site_type_symbol
_atom_site_label
_atom_site_fract_x
_atom_site_fract_y
_atom_site_fract_z
Si Si1 0.740998 0.805435 0.681521
Si Si2 0.870616 0.445419 0.209944
Si Si3 0.846284 0.504401 0.573367
Si Si4 0.405628 0.225896 0.879855
O O1 0.845321 0.783580 0.659078
O O2 0.639899 0.720817 0.600328
O O3 0.696356 0.778514 0.807288
O O4 0.800805 0.370073 0.314307
O O5 0.849701 0.548268 0.179249
O O6 0.843838 0.356478 0.109666
O O7 0.000000 0.500000 0.248975
O O8 0.738423 0.476845 0.500000
O O9 0.916124 0.458062 0.500000
O O10 0.357938 0.178969 0.000000
#
# Coordination Sequence:
#
# PCOD8325749 Si02
#       4
#    12  12  12  12
#     4  11  26  47  70 101 143 193 247 300 358 426
#     4  11  24  41  63  95 135 175 218 284 365 433
#     4  11  24  43  69 101 137 179 233 293 361 436
#     4  11  23  41  67 100 137 181 236 293 360 442
#
# _framework density 24.872478999999998
#
# number of rings (size 3 to 8) (size 9 to 14) (size 15 to 20)
#    0.000    1.000    0.000    7.750    0.000   10.500 
#    0.000    1.250    0.000    3.000    0.000    0.000 
#    0.000    0.000    0.000    0.000    0.000    0.000 
#
# Total GULP energy -594950.850030 kJ/mol
# GULP energy per Si atom -12394.809376 kJ/mol
# Density = 2.481587 g / cm^3
# Si number density = 24.872479 Si / 1000 Ang^3
#
#
#
# Elastic Constant Matrix: (Units=GPa)
#
#
# Indices 1 2 3 4 5 6 
#
# 1 123.8379 62.1939 49.1435 0.0000 0.0000 0.0000
# 2 62.1939 123.8379 49.1435 0.0000 0.0000 0.0000
# 3 49.1435 49.1435 129.9634 0.0000 0.0000 0.0000
# 4 0.0000 0.0000 0.0000 10.3223 0.0000 0.0000
# 5 0.0000 0.0000 0.0000 0.0000 10.3223 0.0000
# 6 0.0000 0.0000 0.0000 0.0000 0.0000 30.8220
#
#
#
# Elastic Compliance Matrix: (Units=1/GPa)
#
#
# Indices 1 2 3 4 5 6 
#
# 1 0.011470 -0.004752 -0.002540 0.000000 0.000000 0.000000
# 2 -0.004752 0.011470 -0.002540 0.000000 0.000000 0.000000
# 3 -0.002540 -0.002540 0.009615 0.000000 0.000000 0.000000
# 4 0.000000 0.000000 0.000000 0.096878 0.000000 0.000000
# 5 0.000000 0.000000 0.000000 0.000000 0.096878 0.000000
# 6 0.000000 0.000000 0.000000 0.000000 0.000000 0.032444
#
#
# Mechanical properties :
#
#
# Convention : Reuss Voigt Hill
#
# Bulk Modulus (GPa) = 77.57959 77.62232 77.60095
# Shear Modulus (GPa) = 17.68556 24.77055 21.22805
#
# Velocity S-wave (km/s) = 2.66944 3.15921 2.92460
# Velocity P-wave (km/s) = 6.38435 6.67708 6.53235
#
# Compressibility (1/GPa) = 0.01288999
#
# Stress axis : x y z
#
# Youngs Moduli (GPa) = 87.18542 87.18542 103.99930
#
# Poissons Ratio (x) = 0.41434 0.26417
# Poissons Ratio (y) = 0.41434 0.26417
# Poissons Ratio (z) = 0.22146 0.22146
#
# Static dielectric constant tensor:
#      x y z
#    x 4.507600 0.000000 0.000000 
#    y 0.000000 4.507600 0.000000 
#    z 0.000000 0.000000 4.441100 
# 
# 
# High freq. dielectric constant tensor:
#      x y z
#    x 1.992850 0.000000 0.000000 
#    y 0.000000 1.992850 0.000000 
#    z 0.000000 0.000000 1.984290 
# 
# From -- ./inp_files/1768.got.cif
#   From: 2010.03.12/outbox.cif.g09.slc.cpg/sg177_1_cif.got.tgz:1768.got - 2010.04.02 07:00:27.
