data_PCOD8325826
_publ_section_title
;
Structure prediction by ZEFSAII (Michael W. Deem and Ramdas Pophale) SiO2 
 PCOD8325826
Probable space group: P 61 2 2
;
_chemical_formula_sum "Si O2"
_cell_formula_units_Z 84
_cell_length_a 21.732747
_cell_length_b 21.732747
_cell_length_c 11.729899
_cell_angle_alpha 90.000000
_cell_angle_beta 90.000000
_cell_angle_gamma 120.000000
_cell_volume 4797.932710
_symmetry_space_group_name_H-M "P 61 2 2"
_symmetry_group_IT_number 178
_symmetry_cell_setting 'hexagonal'
loop_
_space_group_symop_operation_xyz
x,y,z
x-y,x,1/6+z
-y,x-y,1/3+z
-x,-y,1/2+z
-x+y,-x,2/3+z
y,-x+y,5/6+z
x-y,-y,-z
-x,-x+y,2/3-z
y,x,1/3-z
-y,-x,5/6-z
-x+y,y,1/2-z
x,x-y,1/6-z
loop_
_atom_site_type_symbol
_atom_site_label
_atom_site_fract_x
_atom_site_fract_y
_atom_site_fract_z
Si Si1 0.450507 0.846701 0.873554
Si Si2 0.299750 0.889412 0.731397
Si Si3 0.232599 0.261912 0.544455
Si Si4 0.727592 0.294067 0.049791
Si Si5 0.170006 0.287541 0.871768
Si Si6 0.455502 0.373861 0.138821
Si Si7 0.744442 0.170831 0.656005
O O1 0.428555 0.857110 0.750000
O O2 0.536274 0.885364 0.869317
O O3 0.416082 0.763167 0.895559
O O4 0.422331 0.880983 0.967213
O O5 0.281147 0.948125 0.691709
O O6 0.337193 0.912952 0.852187
O O7 0.230737 0.811664 0.746940
O O8 0.268878 0.268878 0.666667
O O9 0.230277 0.196328 0.475662
O O10 0.152960 0.249262 0.557134
O O11 0.742424 0.371212 0.083334
O O12 0.793987 0.288320 0.095314
O O13 0.720593 0.279408 0.916667
O O14 0.156478 0.312955 0.750000
O O15 0.231009 0.356705 0.934243
O O16 0.425666 0.425666 0.166667
O O17 0.432925 0.314634 0.235098
#
# Coordination Sequence:
#
# PCOD8325826 Si02
#       7
#    12  12  12  12  12  12  12
#     4   9  20  36  49  65  93 130 167 204 253 310
#     4   9  19  35  52  70  95 132 171 207 253 304
#     4   9  17  30  51  75 102 131 162 201 247 297
#     4  11  21  34  53  76  98 128 173 222 265 303
#     4   9  17  31  50  75 105 134 164 202 247 300
#     4  11  21  34  51  73 100 130 169 212 260 316
#     4  10  20  34  51  72 101 133 168 212 257 306
#
# _framework density 17.507539000000001
#
# number of rings (size 3 to 8) (size 9 to 14) (size 15 to 20)
#    0.000    2.286    0.000    3.000    0.000    4.000 
#    0.000    7.857    0.000    0.000    0.000    0.000 
#    0.000   98.286    0.000    0.000    0.000    0.000 
#
# Total GULP energy -1041424.188364 kJ/mol
# GULP energy per Si atom -12397.907004 kJ/mol
# Density = 1.746769 g / cm^3
# Si number density = 17.507539 Si / 1000 Ang^3
#
#
#
# Elastic Constant Matrix: (Units=GPa)
#
#
# Indices 1 2 3 4 5 6 
#
# 1 114.5209 64.6100 40.9472 0.0000 0.0000 0.0000
# 2 64.6100 114.5209 40.9472 0.0000 0.0000 0.0000
# 3 40.9472 40.9472 66.6143 0.0000 0.0000 0.0000
# 4 0.0000 0.0000 0.0000 26.8459 0.0000 0.0000
# 5 0.0000 0.0000 0.0000 0.0000 26.8459 0.0000
# 6 0.0000 0.0000 0.0000 0.0000 0.0000 24.9555
#
#
#
# Elastic Compliance Matrix: (Units=1/GPa)
#
#
# Indices 1 2 3 4 5 6 
#
# 1 0.013900 -0.006136 -0.004773 0.000000 0.000000 0.000000
# 2 -0.006136 0.013900 -0.004773 0.000000 0.000000 0.000000
# 3 -0.004773 -0.004773 0.020879 0.000000 0.000000 0.000000
# 4 0.000000 0.000000 0.000000 0.037250 0.000000 0.000000
# 5 0.000000 0.000000 0.000000 0.000000 0.037250 0.000000
# 6 0.000000 0.000000 0.000000 0.000000 0.000000 0.040071
#
#
# Mechanical properties :
#
#
# Convention : Reuss Voigt Hill
#
# Bulk Modulus (GPa) = 57.74579 65.40721 61.57650
# Shear Modulus (GPa) = 24.95197 25.67289 25.31243
#
# Velocity S-wave (km/s) = 3.77929 3.83350 3.80650
# Velocity P-wave (km/s) = 7.21797 7.55214 7.38695
#
# Compressibility (1/GPa) = 0.01731728
#
# Stress axis : x y z
#
# Youngs Moduli (GPa) = 71.94197 71.94197 47.89422
#
# Poissons Ratio (x) = 0.44141 0.22859
# Poissons Ratio (y) = 0.44141 0.22859
# Poissons Ratio (z) = 0.34336 0.34336
#
# Static dielectric constant tensor:
#      x y z
#    x 0.661180 0.000000 0.000000 
#    y 0.000000 0.661180 0.000000 
#    z 0.000000 0.000000 3.232120 
# 
# 
# High freq. dielectric constant tensor:
#      x y z
#    x 1.673930 0.000000 0.000000 
#    y 0.000000 1.673930 0.000000 
#    z 0.000000 0.000000 1.674560 
# 
# From -- ./inp_files/4795.got.cif
#   From: 2010.03.12/outbox.cif.g09.slc.cpg/sg178_3_cif.got.tgz:4795.got - 2010.04.02 07:02:38.
