data_PCOD8325993
_publ_section_title
;
Structure prediction by ZEFSAII (Michael W. Deem and Ramdas Pophale) SiO2 
 PCOD8325993
Probable space group: P 61 2 2
;
_chemical_formula_sum "Si O2"
_cell_formula_units_Z 54
_cell_length_a 11.296559
_cell_length_b 11.296559
_cell_length_c 21.706703
_cell_angle_alpha 90.000000
_cell_angle_beta 90.000000
_cell_angle_gamma 120.000000
_cell_volume 2398.925968
_symmetry_space_group_name_H-M "P 61 2 2"
_symmetry_group_IT_number 178
_symmetry_cell_setting 'hexagonal'
loop_
_space_group_symop_operation_xyz
x,y,z
x-y,x,1/6+z
-y,x-y,1/3+z
-x,-y,1/2+z
-x+y,-x,2/3+z
y,-x+y,5/6+z
x-y,-y,-z
-x,-x+y,2/3-z
y,x,1/3-z
-y,-x,5/6-z
-x+y,y,1/2-z
x,x-y,1/6-z
loop_
_atom_site_type_symbol
_atom_site_label
_atom_site_fract_x
_atom_site_fract_y
_atom_site_fract_z
Si Si1 0.544011 0.675416 0.538469
Si Si2 0.424112 0.712056 0.083334
Si Si3 0.751130 0.156661 0.583199
Si Si4 0.294572 0.913384 0.640432
Si Si5 0.203923 0.358017 0.658864
O O1 0.474977 0.737489 0.583334
O O2 0.609079 0.780813 0.481210
O O3 0.657956 0.665513 0.580407
O O4 0.431487 0.526071 0.515227
O O5 0.331527 0.771339 0.109079
O O6 0.505206 0.685666 0.139020
O O7 0.865348 0.194975 0.634853
O O8 0.211672 0.824363 0.580753
O O9 0.332927 0.070536 0.636616
O O10 0.234408 0.234408 0.666667
#
# Coordination Sequence:
#
# PCOD8325993 Si02
#       5
#    12   6  12  12  12
#     4  12  25  45  71 102 149 197 249 320 389 464
#     4  12  22  42  72 102 150 182 246 308 386 464
#     4  12  25  45  66 109 144 193 251 308 386 459
#     4  12  25  41  72 100 143 192 244 312 375 455
#     4  12  23  44  67 106 140 191 241 302 376 456
#
# _framework density 22.510073999999999
#
# number of rings (size 3 to 8) (size 9 to 14) (size 15 to 20)
#    0.000    0.000    6.667    3.333    0.000    0.000 
#    0.000    4.444    0.000    0.000    0.000    0.000 
#    0.000    0.000    0.000    0.000    0.000    0.000 
#
# Total GULP energy -669272.214335 kJ/mol
# GULP energy per Si atom -12393.929895 kJ/mol
# Density = 2.245884 g / cm^3
# Si number density = 22.510074 Si / 1000 Ang^3
#
#
#
# Elastic Constant Matrix: (Units=GPa)
#
#
# Indices 1 2 3 4 5 6 
#
# 1 103.0166 29.9304 23.7196 0.0000 0.0000 0.0000
# 2 29.9304 103.0166 23.7196 0.0000 0.0000 0.0000
# 3 23.7196 23.7196 128.0041 0.0000 0.0000 0.0000
# 4 0.0000 0.0000 0.0000 42.8688 0.0000 0.0000
# 5 0.0000 0.0000 0.0000 0.0000 42.8688 0.0000
# 6 0.0000 0.0000 0.0000 0.0000 0.0000 36.5431
#
#
#
# Elastic Compliance Matrix: (Units=1/GPa)
#
#
# Indices 1 2 3 4 5 6 
#
# 1 0.010868 -0.002814 -0.001493 0.000000 0.000000 0.000000
# 2 -0.002814 0.010868 -0.001493 0.000000 0.000000 0.000000
# 3 -0.001493 -0.001493 0.008365 0.000000 0.000000 0.000000
# 4 0.000000 0.000000 0.000000 0.023327 0.000000 0.000000
# 5 0.000000 0.000000 0.000000 0.000000 0.023327 0.000000
# 6 0.000000 0.000000 0.000000 0.000000 0.000000 0.027365
#
#
# Mechanical properties :
#
#
# Convention : Reuss Voigt Hill
#
# Bulk Modulus (GPa) = 54.04206 54.30848 54.17527
# Shear Modulus (GPa) = 41.02150 41.56731 41.29441
#
# Velocity S-wave (km/s) = 4.27354 4.30188 4.28774
# Velocity P-wave (km/s) = 6.95780 6.98953 6.97368
#
# Compressibility (1/GPa) = 0.01850410
#
# Stress axis : x y z
#
# Youngs Moduli (GPa) = 92.00969 92.00969 119.54030
#
# Poissons Ratio (x) = 0.25892 0.17841
# Poissons Ratio (y) = 0.25892 0.17841
# Poissons Ratio (z) = 0.13732 0.13732
#
# Static dielectric constant tensor:
#      x y z
#    x 4.049520 0.000000 0.000000 
#    y 0.000000 4.049520 0.000000 
#    z 0.000000 0.000000 4.103160 
# 
# 
# High freq. dielectric constant tensor:
#      x y z
#    x 1.878160 0.000000 0.000000 
#    y 0.000000 1.878160 0.000000 
#    z 0.000000 0.000000 1.905990 
# 
# From -- ./inp_files/7417.got.cif
#   From: 2010.03.12/outbox.cif.g09.slc.cpg/sg178_4_cif.got.tgz:7417.got - 2010.04.02 07:02:38.
