data_PCOD8325842
_publ_section_title
;
Structure prediction by ZEFSAII (Michael W. Deem and Ramdas Pophale) SiO2 
 PCOD8325842
Probable space group: P 61 2 2
;
_chemical_formula_sum "Si O2"
_cell_formula_units_Z 90
_cell_length_a 18.000191
_cell_length_b 18.000191
_cell_length_c 15.891678
_cell_angle_alpha 90.000000
_cell_angle_beta 90.000000
_cell_angle_gamma 120.000000
_cell_volume 4459.176014
_symmetry_space_group_name_H-M "P 61 2 2"
_symmetry_group_IT_number 178
_symmetry_cell_setting 'hexagonal'
loop_
_space_group_symop_operation_xyz
x,y,z
x-y,x,1/6+z
-y,x-y,1/3+z
-x,-y,1/2+z
-x+y,-x,2/3+z
y,-x+y,5/6+z
x-y,-y,-z
-x,-x+y,2/3-z
y,x,1/3-z
-y,-x,5/6-z
-x+y,y,1/2-z
x,x-y,1/6-z
loop_
_atom_site_type_symbol
_atom_site_label
_atom_site_fract_x
_atom_site_fract_y
_atom_site_fract_z
Si Si1 0.912925 0.589342 0.373090
Si Si2 0.512954 0.088001 0.090524
Si Si3 0.195898 0.869984 0.690228
Si Si4 0.298026 0.239904 0.437738
Si Si5 0.289072 0.837162 0.043097
Si Si6 0.267715 0.663269 0.995619
Si Si7 0.392226 0.925793 0.198619
Si Si8 0.366114 0.183057 0.583334
O O1 0.927877 0.508559 0.372637
O O2 0.888683 0.610517 0.465233
O O3 0.835484 0.572418 0.309963
O O4 0.000000 0.668483 0.333334
O O5 0.576608 0.169937 0.146497
O O6 0.457154 0.014462 0.155236
O O7 0.444225 0.091897 0.025495
O O8 0.110009 0.830284 0.634206
O O9 0.174747 0.804221 0.768787
O O10 0.218044 0.961071 0.730136
O O11 0.387775 0.328272 0.424060
O O12 0.303328 0.202744 0.527640
O O13 0.337677 0.852005 0.131387
O O14 0.272211 0.753174 0.996952
O O15 0.329507 0.670494 0.916667
O O16 0.303953 0.651977 0.083334
O O17 0.446052 0.892104 0.250000
#
# Coordination Sequence:
#
# PCOD8325842 Si02
#       8
#    12  12  12  12  12  12  12   6
#     4  11  20  35  60  83 121 156 202 259 317 380
#     4  11  22  37  59  83 115 160 213 257 306 370
#     4  10  20  37  58  88 124 155 202 255 319 387
#     4  10  21  36  59  88 124 155 199 259 317 385
#     4  10  22  37  54  79 117 154 205 255 304 369
#     4  10  21  38  54  75 106 156 204 252 307 362
#     4  11  22  35  58  86 118 159 207 260 312 370
#     4  10  22  36  56  92 120 156 198 252 334 376
#
# _framework density 20.183102000000002
#
# number of rings (size 3 to 8) (size 9 to 14) (size 15 to 20)
#    0.000    1.600    1.333    4.000    1.867    0.533 
#    4.800    0.000    0.000    0.000    0.000    0.000 
#   36.000    0.000    0.000    0.000    0.000    0.000 
#
# Total GULP energy -1115248.531630 kJ/mol
# GULP energy per Si atom -12391.650351 kJ/mol
# Density = 2.013716 g / cm^3
# Si number density = 20.183102 Si / 1000 Ang^3
#
#
#
# Elastic Constant Matrix: (Units=GPa)
#
#
# Indices 1 2 3 4 5 6 
#
# 1 83.5359 37.4611 31.7897 0.0000 0.0000 0.0000
# 2 37.4611 83.5359 31.7897 0.0000 0.0000 0.0000
# 3 31.7897 31.7897 102.0514 0.0000 0.0000 0.0000
# 4 0.0000 0.0000 0.0000 -17.2754 0.0000 0.0000
# 5 0.0000 0.0000 0.0000 0.0000 -17.2754 0.0000
# 6 0.0000 0.0000 0.0000 0.0000 0.0000 23.0374
#
#
#
# Elastic Compliance Matrix: (Units=1/GPa)
#
#
# Indices 1 2 3 4 5 6 
#
# 1 0.015793 -0.005911 -0.003078 0.000000 0.000000 0.000000
# 2 -0.005911 0.015793 -0.003078 0.000000 0.000000 0.000000
# 3 -0.003078 -0.003078 0.011717 0.000000 0.000000 0.000000
# 4 0.000000 0.000000 0.000000 -0.057886 0.000000 0.000000
# 5 0.000000 0.000000 0.000000 0.000000 -0.057886 0.000000
# 6 0.000000 0.000000 0.000000 0.000000 0.000000 0.043408
#
#
# Mechanical properties :
#
#
# Convention : Reuss Voigt Hill
#
# Bulk Modulus (GPa) = 52.17080 52.35601 52.26341
# Shear Modulus (GPa) = 3415.93576 8.90282 1712.41929
#
# Velocity S-wave (km/s) = 41.18431 2.10252 29.15963
# Velocity P-wave (km/s) = 47.82713 5.64721 34.05382
#
# Compressibility (1/GPa) = 0.01916781
#
# Stress axis : x y z
#
# Youngs Moduli (GPa) = 63.31897 63.31897 85.34715
#
# Poissons Ratio (x) = 0.37427 0.26273
# Poissons Ratio (y) = 0.37427 0.26273
# Poissons Ratio (z) = 0.19492 0.19492
#
# Static dielectric constant tensor:
#      x y z
#    x 8.645130 0.000000 0.000000 
#    y 0.000000 8.645130 0.000000 
#    z 0.000000 0.000000 3.254670 
# 
# 
# High freq. dielectric constant tensor:
#      x y z
#    x 1.769120 0.000000 0.000000 
#    y 0.000000 1.769120 0.000000 
#    z 0.000000 0.000000 1.807500 
# 
# From -- ./inp_files/6996.got.cif
#   From: 2010.03.12/outbox.cif.g09.slc.cpg/sg178_4_cif.got.tgz:6996.got - 2010.04.02 07:02:38.
