data_PCOD8325053
_publ_section_title
;
Structure prediction by ZEFSAII (Michael W. Deem and Ramdas Pophale) SiO2 
 PCOD8325053
Probable space group: P 6/M
;
_chemical_formula_sum "Si O2"
_cell_formula_units_Z 60
_cell_length_a 30.077600
_cell_length_b 30.077600
_cell_length_c 7.911877
_cell_angle_alpha 90.000000
_cell_angle_beta 90.000000
_cell_angle_gamma 120.000000
_cell_volume 6198.641470
_symmetry_space_group_name_H-M "P 6/M"
_symmetry_group_IT_number 175
_symmetry_cell_setting 'hexagonal'
loop_
_space_group_symop_operation_xyz
x,y,z
x-y,x,z
-y,x-y,z
-x,-y,z
-x+y,-x,z
y,-x+y,z
-x,-y,-z
-x+y,-x,-z
y,-x+y,-z
x,y,-z
x-y,x,-z
-y,x-y,-z
loop_
_atom_site_type_symbol
_atom_site_label
_atom_site_fract_x
_atom_site_fract_y
_atom_site_fract_z
Si Si1 0.491828 0.876983 0.312089
Si Si2 0.565101 0.329546 0.192108
Si Si3 0.058773 0.476688 0.000000
Si Si4 0.763648 0.338166 0.307492
Si Si5 0.942367 0.417652 0.000000
Si Si6 0.509759 0.386014 0.685781
O O1 0.517536 0.891557 0.500000
O O2 0.475314 0.818484 0.262480
O O3 0.530286 0.914902 0.168825
O O4 0.441143 0.881181 0.313084
O O5 0.623578 0.376599 0.195585
O O6 0.560008 0.280015 0.283577
O O7 0.525624 0.343130 0.281637
O O8 0.548092 0.315394 0.000000
O O9 0.086903 0.471788 0.832171
O O10 0.060534 0.530716 0.000000
O O11 0.000724 0.429861 0.000000
O O12 0.764982 0.355705 0.500000
O O13 0.483257 0.375917 0.500000
#
# Coordination Sequence:
#
# PCOD8325053 Si02
#       6
#    12  12   6  12   6  12
#     4   8  16  26  36  47  59  75  89 106 130 153
#     4  11  19  26  36  48  60  77  98 113 130 151
#     4   9  16  26  35  52  56  72  87 106 131 159
#     4  10  19  28  35  45  61  79  96 112 131 151
#     4   9  16  24  39  46  62  68  85 110 131 155
#     4   9  16  27  37  46  62  76  88 108 130 151
#
# _framework density 9.6795410000000004
#
# number of rings (size 3 to 8) (size 9 to 14) (size 15 to 20)
#    0.000    2.600    1.000    4.000    5.600    0.800 
#    0.000    4.000    0.000    0.000    0.000    0.000 
#    0.000    0.000    0.000    0.000    0.000    0.000 
#
# Total GULP energy -743713.405215 kJ/mol
# GULP energy per Si atom -12395.223420 kJ/mol
# Density = 0.965751 g / cm^3
# Si number density = 9.679541 Si / 1000 Ang^3
#
#
#
# Elastic Constant Matrix: (Units=GPa)
#
#
# Indices 1 2 3 4 5 6 
#
# 1 33.6333 24.7556 24.8528 0.0000 0.0000 0.0000
# 2 24.7556 33.6333 24.8528 0.0000 0.0000 0.0000
# 3 24.8528 24.8528 68.4345 0.0000 0.0000 0.0000
# 4 0.0000 0.0000 0.0000 10.3588 0.0000 0.0000
# 5 0.0000 0.0000 0.0000 0.0000 10.3588 0.0000
# 6 0.0000 0.0000 0.0000 0.0000 0.0000 4.4389
#
#
#
# Elastic Compliance Matrix: (Units=1/GPa)
#
#
# Indices 1 2 3 4 5 6 
#
# 1 0.068716 -0.043925 -0.009003 0.000000 0.000000 0.000000
# 2 -0.043925 0.068716 -0.009003 0.000000 0.000000 0.000000
# 3 -0.009003 -0.009003 0.021152 0.000000 0.000000 0.000000
# 4 0.000000 0.000000 0.000000 0.096536 0.000000 0.000000
# 5 0.000000 0.000000 0.000000 0.000000 0.096536 0.000000
# 6 0.000000 0.000000 0.000000 0.000000 0.000000 0.225283
#
#
# Mechanical properties :
#
#
# Convention : Reuss Voigt Hill
#
# Bulk Modulus (GPa) = 28.80112 31.62484 30.21298
# Shear Modulus (GPa) = 7.01876 9.11394 8.06635
#
# Velocity S-wave (km/s) = 2.69571 3.07183 2.88990
# Velocity P-wave (km/s) = 6.28557 6.73233 6.51278
#
# Compressibility (1/GPa) = 0.03472087
#
# Stress axis : x y z
#
# Youngs Moduli (GPa) = 14.55263 14.55263 47.27760
#
# Poissons Ratio (x) = 0.63923 0.42564
# Poissons Ratio (y) = 0.63923 0.42564
# Poissons Ratio (z) = 0.13102 0.13102
#
# Static dielectric constant tensor:
#      x y z
#    x 1.987520 0.000000 0.000000 
#    y 0.000000 1.987520 0.000000 
#    z 0.000000 0.000000 2.465640 
# 
# 
# High freq. dielectric constant tensor:
#      x y z
#    x 1.322020 0.000000 0.000000 
#    y 0.000000 1.322020 0.000000 
#    z 0.000000 0.000000 1.388170 
# 
# From -- ./inp_files/1118.got.cif
#   From: 2010.03.12/outbox.cif.g09.slc.cpg/sg175_1_cif.got.tgz:1118.got - 2010.04.02 06:55:29.
