data_PCOD8325830
_publ_section_title
;
Structure prediction by ZEFSAII (Michael W. Deem and Ramdas Pophale) SiO2 
 PCOD8325830
Probable space group: P 61 2 2
;
_chemical_formula_sum "Si O2"
_cell_formula_units_Z 60
_cell_length_a 16.729004
_cell_length_b 16.729004
_cell_length_c 12.197901
_cell_angle_alpha 90.000000
_cell_angle_beta 90.000000
_cell_angle_gamma 120.000000
_cell_volume 2956.350391
_symmetry_space_group_name_H-M "P 61 2 2"
_symmetry_group_IT_number 178
_symmetry_cell_setting 'hexagonal'
loop_
_space_group_symop_operation_xyz
x,y,z
x-y,x,1/6+z
-y,x-y,1/3+z
-x,-y,1/2+z
-x+y,-x,2/3+z
y,-x+y,5/6+z
x-y,-y,-z
-x,-x+y,2/3-z
y,x,1/3-z
-y,-x,5/6-z
-x+y,y,1/2-z
x,x-y,1/6-z
loop_
_atom_site_type_symbol
_atom_site_label
_atom_site_fract_x
_atom_site_fract_y
_atom_site_fract_z
Si Si1 0.475949 0.299851 0.490303
Si Si2 0.434611 0.532591 0.139587
Si Si3 0.858847 0.626390 0.643544
Si Si4 0.931580 0.649395 0.974988
Si Si5 0.546657 0.208935 0.335846
O O1 0.442330 0.221165 0.583334
O O2 0.541640 0.400677 0.536797
O O3 0.385731 0.292107 0.433571
O O4 0.536036 0.286382 0.397532
O O5 0.522922 0.522922 0.166667
O O6 0.348486 0.433991 0.107298
O O7 0.420011 0.575463 0.250068
O O8 0.792476 0.584952 0.750000
O O9 0.821376 0.683211 0.570580
O O10 0.857495 0.546518 0.566850
O O11 0.962699 0.694351 0.688405
O O12 0.630686 0.261372 0.250000
#
# Coordination Sequence:
#
# PCOD8325830 Si02
#       5
#    12  12  12  12  12
#     4   9  21  38  57  84 114 151 194 236 279 328
#     4  11  20  35  58  81 113 154 196 239 279 330
#     4  11  22  38  58  85 115 149 193 241 294 348
#     4  11  22  38  60  85 114 149 192 241 295 352
#     4  10  20  35  55  81 115 157 197 235 280 330
#
# _framework density 20.295294999999999
#
# number of rings (size 3 to 8) (size 9 to 14) (size 15 to 20)
#    0.000    1.600    0.000    6.000    0.000    0.000 
#    0.000   29.000    0.000    0.000    0.000    7.000 
#    0.000    0.000    0.000    0.000    0.000    0.000 
#
# Total GULP energy -743587.797360 kJ/mol
# GULP energy per Si atom -12393.129956 kJ/mol
# Density = 2.024910 g / cm^3
# Si number density = 20.295295 Si / 1000 Ang^3
#
#
#
# Elastic Constant Matrix: (Units=GPa)
#
#
# Indices 1 2 3 4 5 6 
#
# 1 90.6625 62.8136 50.6806 0.0000 0.0000 0.0000
# 2 62.8136 90.6625 50.6806 0.0000 0.0000 0.0000
# 3 50.6806 50.6806 118.7925 0.0000 0.0000 0.0000
# 4 0.0000 0.0000 0.0000 31.4166 0.0000 0.0000
# 5 0.0000 0.0000 0.0000 0.0000 31.4166 0.0000
# 6 0.0000 0.0000 0.0000 0.0000 0.0000 13.9245
#
#
#
# Elastic Compliance Matrix: (Units=1/GPa)
#
#
# Indices 1 2 3 4 5 6 
#
# 1 0.022490 -0.013418 -0.003870 0.000000 0.000000 0.000000
# 2 -0.013418 0.022490 -0.003870 0.000000 0.000000 0.000000
# 3 -0.003870 -0.003870 0.011720 0.000000 0.000000 0.000000
# 4 0.000000 0.000000 0.000000 0.031830 0.000000 0.000000
# 5 0.000000 0.000000 0.000000 0.000000 0.031830 0.000000
# 6 0.000000 0.000000 0.000000 0.000000 0.000000 0.071816
#
#
# Mechanical properties :
#
#
# Convention : Reuss Voigt Hill
#
# Bulk Modulus (GPa) = 69.52770 69.82965 69.67868
# Shear Modulus (GPa) = 20.89527 24.41438 22.65482
#
# Velocity S-wave (km/s) = 3.21216 3.47213 3.34467
# Velocity P-wave (km/s) = 6.93467 7.11026 7.02301
#
# Compressibility (1/GPa) = 0.01438276
#
# Stress axis : x y z
#
# Youngs Moduli (GPa) = 44.46441 44.46441 85.32124
#
# Poissons Ratio (x) = 0.59663 0.33022
# Poissons Ratio (y) = 0.59663 0.33022
# Poissons Ratio (z) = 0.17209 0.17209
#
# Static dielectric constant tensor:
#      x y z
#    x 3.637280 0.000000 0.000000 
#    y 0.000000 3.637280 0.000000 
#    z 0.000000 0.000000 3.744360 
# 
# 
# High freq. dielectric constant tensor:
#      x y z
#    x 1.765830 0.000000 0.000000 
#    y 0.000000 1.765830 0.000000 
#    z 0.000000 0.000000 1.828490 
# 
# From -- ./inp_files/4520.got.cif
#   From: 2010.03.12/outbox.cif.g09.slc.cpg/sg178_3_cif.got.tgz:4520.got - 2010.04.02 07:02:38.
