data_PCOD8325997
_publ_section_title
;
Structure prediction by ZEFSAII (Michael W. Deem and Ramdas Pophale) SiO2 
 PCOD8325997
Probable space group: P 61 2 2
;
_chemical_formula_sum "Si O2"
_cell_formula_units_Z 48
_cell_length_a 15.503411
_cell_length_b 15.503411
_cell_length_c 10.178410
_cell_angle_alpha 90.000000
_cell_angle_beta 90.000000
_cell_angle_gamma 120.000000
_cell_volume 2118.678666
_symmetry_space_group_name_H-M "P 61 2 2"
_symmetry_group_IT_number 178
_symmetry_cell_setting 'hexagonal'
loop_
_space_group_symop_operation_xyz
x,y,z
x-y,x,1/6+z
-y,x-y,1/3+z
-x,-y,1/2+z
-x+y,-x,2/3+z
y,-x+y,5/6+z
x-y,-y,-z
-x,-x+y,2/3-z
y,x,1/3-z
-y,-x,5/6-z
-x+y,y,1/2-z
x,x-y,1/6-z
loop_
_atom_site_type_symbol
_atom_site_label
_atom_site_fract_x
_atom_site_fract_y
_atom_site_fract_z
Si Si1 0.261466 0.328983 0.944283
Si Si2 0.824948 0.824948 0.666667
Si Si3 0.457918 0.403912 0.809756
Si Si4 0.095644 0.191288 0.750000
Si Si5 0.269466 0.742668 0.266162
O O1 0.356360 0.326434 0.883510
O O2 0.181522 0.267812 0.838606
O O3 0.287070 0.442657 0.966982
O O4 0.213496 0.271772 0.077702
O O5 0.846957 0.923479 0.583334
O O6 0.441164 0.441164 0.666667
O O7 0.525318 0.352614 0.793115
O O8 0.508052 0.491949 0.916667
O O9 0.118288 0.118288 0.666667
O O10 0.248412 0.751589 0.416667
O O11 0.363892 0.727784 0.250000
#
# Coordination Sequence:
#
# PCOD8325997 Si02
#       5
#    12   6  12   6  12
#     4  12  25  49  75 105 152 204 260 315 397 483
#     4  12  28  50  74 116 158 206 268 342 404 476
#     4  12  26  47  76 111 153 205 261 324 402 478
#     4  12  24  46  74 106 142 198 254 314 388 478
#     4  12  25  45  75 113 151 198 259 319 387 469
#
# _framework density 22.655631
#
# number of rings (size 3 to 8) (size 9 to 14) (size 15 to 20)
#    0.000    0.000    3.750    6.750    1.750    0.000 
#   13.500    5.000    0.000    0.000    0.000    0.000 
#    0.000    0.000    0.000    0.000    0.000    0.000 
#
# Total GULP energy -594848.856645 kJ/mol
# GULP energy per Si atom -12392.684513 kJ/mol
# Density = 2.260407 g / cm^3
# Si number density = 22.655631 Si / 1000 Ang^3
#
#
#
# Elastic Constant Matrix: (Units=GPa)
#
#
# Indices 1 2 3 4 5 6 
#
# 1 151.0606 83.8636 60.8031 0.0000 0.0000 0.0000
# 2 83.8636 151.0606 60.8031 0.0000 0.0000 0.0000
# 3 60.8031 60.8031 135.7388 0.0000 0.0000 0.0000
# 4 0.0000 0.0000 0.0000 19.7052 0.0000 0.0000
# 5 0.0000 0.0000 0.0000 0.0000 19.7052 0.0000
# 6 0.0000 0.0000 0.0000 0.0000 0.0000 33.5985
#
#
#
# Elastic Compliance Matrix: (Units=1/GPa)
#
#
# Indices 1 2 3 4 5 6 
#
# 1 0.010212 -0.004670 -0.002482 0.000000 0.000000 0.000000
# 2 -0.004670 0.010212 -0.002482 0.000000 0.000000 0.000000
# 3 -0.002482 -0.002482 0.009591 0.000000 0.000000 0.000000
# 4 0.000000 0.000000 0.000000 0.050748 0.000000 0.000000
# 5 0.000000 0.000000 0.000000 0.000000 0.050748 0.000000
# 6 0.000000 0.000000 0.000000 0.000000 0.000000 0.029763
#
#
# Mechanical properties :
#
#
# Convention : Reuss Voigt Hill
#
# Bulk Modulus (GPa) = 93.06718 94.31106 93.68912
# Shear Modulus (GPa) = 27.15551 30.09444 28.62498
#
# Velocity S-wave (km/s) = 3.46587 3.64860 3.55841
# Velocity P-wave (km/s) = 7.56205 7.71156 7.63717
#
# Compressibility (1/GPa) = 0.01074493
#
# Stress axis : x y z
#
# Youngs Moduli (GPa) = 97.92755 97.92755 104.26466
#
# Poissons Ratio (x) = 0.45732 0.25882
# Poissons Ratio (y) = 0.45732 0.25882
# Poissons Ratio (z) = 0.24309 0.24309
#
# Static dielectric constant tensor:
#      x y z
#    x 4.398230 0.000000 0.000000 
#    y 0.000000 4.398230 0.000000 
#    z 0.000000 0.000000 4.111280 
# 
# 
# High freq. dielectric constant tensor:
#      x y z
#    x 1.907140 0.000000 0.000000 
#    y 0.000000 1.907140 0.000000 
#    z 0.000000 0.000000 1.905030 
# 
# From -- ./inp_files/4184.got.cif
#   From: 2010.03.12/outbox.cif.g09.slc.cpg/sg178_3_cif.got.tgz:4184.got - 2010.04.02 07:02:38.
