data_PCOD8325184
_publ_section_title
;
Structure prediction by ZEFSAII (Michael W. Deem and Ramdas Pophale) SiO2 
 PCOD8325184
Probable space group: P 6/M
;
_chemical_formula_sum "Si O2"
_cell_formula_units_Z 90
_cell_length_a 26.226710
_cell_length_b 26.226710
_cell_length_c 8.044627
_cell_angle_alpha 90.000000
_cell_angle_beta 90.000000
_cell_angle_gamma 120.000000
_cell_volume 4792.081241
_symmetry_space_group_name_H-M "P 6/M"
_symmetry_group_IT_number 175
_symmetry_cell_setting 'hexagonal'
loop_
_space_group_symop_operation_xyz
x,y,z
x-y,x,z
-y,x-y,z
-x,-y,z
-x+y,-x,z
y,-x+y,z
-x,-y,-z
-x+y,-x,-z
y,-x+y,-z
x,y,-z
x-y,x,-z
-y,x-y,-z
loop_
_atom_site_type_symbol
_atom_site_label
_atom_site_fract_x
_atom_site_fract_y
_atom_site_fract_z
Si Si1 0.673863 0.446505 0.190129
Si Si2 0.888473 0.769978 0.810174
Si Si3 0.303900 0.067305 0.315693
Si Si4 0.438774 0.658470 0.688592
Si Si5 0.058965 0.313751 0.192803
Si Si6 0.140876 0.073936 0.500000
Si Si7 0.424455 0.156292 0.812131
Si Si8 0.268874 0.839165 0.306368
O O1 0.605647 0.397437 0.202459
O O2 0.714069 0.426866 0.290613
O O3 0.685044 0.509979 0.255662
O O4 0.694830 0.454605 0.000000
O O5 0.817476 0.733814 0.808397
O O6 0.908752 0.723126 0.768416
O O7 0.915204 0.820960 0.670589
O O8 0.907361 0.795535 0.000000
O O9 0.287694 0.078011 0.500000
O O10 0.374179 0.104230 0.294397
O O11 0.286130 0.000437 0.295067
O O12 0.426206 0.637153 0.500000
O O13 0.505520 0.677449 0.740652
O O14 0.095247 0.380287 0.260345
O O15 0.045564 0.314073 0.000000
O O16 0.098479 0.101796 0.500000
O O17 0.415807 0.212624 0.803441
O O18 0.416142 0.133507 0.000000
O O19 0.253031 0.824993 0.500000
#
# Coordination Sequence:
#
# PCOD8325184 Si02
#       8
#    12  12  12  12  12   6  12  12
#     4  10  20  33  52  76 107 147 190 233 280 336
#     4  11  24  42  63  91 123 153 194 243 294 347
#     4  12  23  36  59  87 116 149 185 229 284 344
#     4  10  20  33  51  76 109 146 186 234 284 334
#     4  11  23  37  58  85 116 150 183 229 285 339
#     4  12  27  46  68  92 122 162 202 244 294 352
#     4  10  20  35  53  78 111 145 183 230 282 336
#     4  10  20  34  53  79 110 144 183 229 281 338
#
# _framework density 18.780984
#
# number of rings (size 3 to 8) (size 9 to 14) (size 15 to 20)
#    0.000    1.333    2.000    4.333    1.867    4.800 
#    0.000    0.000    0.000    1.600    0.000    5.600 
#    0.000    0.000    0.000    0.000    0.000    0.000 
#
# Total GULP energy -1116040.326833 kJ/mol
# GULP energy per Si atom -12400.448076 kJ/mol
# Density = 1.873824 g / cm^3
# Si number density = 18.780984 Si / 1000 Ang^3
#
#
#
# Elastic Constant Matrix: (Units=GPa)
#
#
# Indices 1 2 3 4 5 6 
#
# 1 103.4417 42.6172 32.3589 0.0000 0.0000 0.0000
# 2 42.6172 103.4417 32.3589 0.0000 0.0000 0.0000
# 3 32.3589 32.3589 81.7636 0.0000 0.0000 0.0000
# 4 0.0000 0.0000 0.0000 24.1948 0.0000 0.0000
# 5 0.0000 0.0000 0.0000 0.0000 24.1948 0.0000
# 6 0.0000 0.0000 0.0000 0.0000 0.0000 30.4122
#
#
#
# Elastic Compliance Matrix: (Units=1/GPa)
#
#
# Indices 1 2 3 4 5 6 
#
# 1 0.012372 -0.004069 -0.003286 0.000000 0.000000 0.000000
# 2 -0.004069 0.012372 -0.003286 0.000000 0.000000 0.000000
# 3 -0.003286 -0.003286 0.014831 0.000000 0.000000 0.000000
# 4 0.000000 0.000000 0.000000 0.041331 0.000000 0.000000
# 5 0.000000 0.000000 0.000000 0.000000 0.041331 0.000000
# 6 0.000000 0.000000 0.000000 0.000000 0.000000 0.032882
#
#
# Mechanical properties :
#
#
# Convention : Reuss Voigt Hill
#
# Bulk Modulus (GPa) = 54.66599 55.92412 55.29506
# Shear Modulus (GPa) = 27.39763 27.84782 27.62273
#
# Velocity S-wave (km/s) = 3.82356 3.85485 3.83924
# Velocity P-wave (km/s) = 6.97590 7.04661 7.01134
#
# Compressibility (1/GPa) = 0.01829291
#
# Stress axis : x y z
#
# Youngs Moduli (GPa) = 80.83023 80.83023 67.42563
#
# Poissons Ratio (x) = 0.32891 0.22155
# Poissons Ratio (y) = 0.32891 0.22155
# Poissons Ratio (z) = 0.26559 0.26559
#
# Static dielectric constant tensor:
#      x y z
#    x 3.422740 0.000000 0.000000 
#    y 0.000000 3.422740 0.000000 
#    z 0.000000 0.000000 3.506480 
# 
# 
# High freq. dielectric constant tensor:
#      x y z
#    x 1.716470 0.000000 0.000000 
#    y 0.000000 1.716470 0.000000 
#    z 0.000000 0.000000 1.743960 
# 
# From -- ./inp_files/1438.got.cif
#   From: 2010.03.12/outbox.cif.g09.slc.cpg/sg175_1_cif.got.tgz:1438.got - 2010.04.02 06:55:29.
