data_PCOD8325848
_publ_section_title
;
Structure prediction by ZEFSAII (Michael W. Deem and Ramdas Pophale) SiO2 
 PCOD8325848
Probable space group: P 61 2 2
;
_chemical_formula_sum "Si O2"
_cell_formula_units_Z 54
_cell_length_a 12.403434
_cell_length_b 12.403434
_cell_length_c 21.304246
_cell_angle_alpha 90.000000
_cell_angle_beta 90.000000
_cell_angle_gamma 120.000000
_cell_volume 2838.446285
_symmetry_space_group_name_H-M "P 61 2 2"
_symmetry_group_IT_number 178
_symmetry_cell_setting 'hexagonal'
loop_
_space_group_symop_operation_xyz
x,y,z
x-y,x,1/6+z
-y,x-y,1/3+z
-x,-y,1/2+z
-x+y,-x,2/3+z
y,-x+y,5/6+z
x-y,-y,-z
-x,-x+y,2/3-z
y,x,1/3-z
-y,-x,5/6-z
-x+y,y,1/2-z
x,x-y,1/6-z
loop_
_atom_site_type_symbol
_atom_site_label
_atom_site_fract_x
_atom_site_fract_y
_atom_site_fract_z
Si Si1 0.738739 0.635584 0.308514
Si Si2 0.619056 0.238111 0.250000
Si Si3 0.850428 0.378672 0.445866
Si Si4 0.775844 0.607928 0.068886
Si Si5 0.380001 0.499177 0.030280
O O1 0.809286 0.618571 0.250000
O O2 0.702579 0.741524 0.297923
O O3 0.828156 0.677805 0.368650
O O4 0.616722 0.506547 0.327982
O O5 0.560264 0.158749 0.187049
O O6 0.767951 0.319657 0.245897
O O7 0.755186 0.244815 0.416667
O O8 0.829152 0.480820 0.409941
O O9 0.990016 0.404285 0.434360
O O10 0.861589 0.576030 0.025446
#
# Coordination Sequence:
#
# PCOD8325848 Si02
#       5
#    12   6  12  12  12
#     4  11  21  37  58  86 117 148 195 243 296 348
#     4  10  20  38  56  88 112 146 194 232 290 344
#     4  10  22  36  57  86 118 153 189 230 296 354
#     4  10  22  36  59  86 114 153 189 241 292 352
#     4  10  21  35  60  82 120 150 185 244 283 360
#
# _framework density 19.024493
#
# number of rings (size 3 to 8) (size 9 to 14) (size 15 to 20)
#    0.000    1.778    1.111    4.000    9.333    0.889 
#    0.000    0.000    0.000    4.000    0.000    0.000 
#    0.000    0.000    0.000    0.000    0.000    0.000 
#
# Total GULP energy -669506.809663 kJ/mol
# GULP energy per Si atom -12398.274253 kJ/mol
# Density = 1.898119 g / cm^3
# Si number density = 19.024493 Si / 1000 Ang^3
#
#
#
# Elastic Constant Matrix: (Units=GPa)
#
#
# Indices 1 2 3 4 5 6 
#
# 1 111.7699 57.9525 47.3381 0.0000 0.0000 0.0000
# 2 57.9525 111.7699 47.3381 0.0000 0.0000 0.0000
# 3 47.3381 47.3381 102.1677 0.0000 0.0000 0.0000
# 4 0.0000 0.0000 0.0000 23.5576 0.0000 0.0000
# 5 0.0000 0.0000 0.0000 0.0000 23.5576 0.0000
# 6 0.0000 0.0000 0.0000 0.0000 0.0000 26.9087
#
#
#
# Elastic Compliance Matrix: (Units=1/GPa)
#
#
# Indices 1 2 3 4 5 6 
#
# 1 0.013263 -0.005318 -0.003682 0.000000 0.000000 0.000000
# 2 -0.005318 0.013263 -0.003682 0.000000 0.000000 0.000000
# 3 -0.003682 -0.003682 0.013199 0.000000 0.000000 0.000000
# 4 0.000000 0.000000 0.000000 0.042449 0.000000 0.000000
# 5 0.000000 0.000000 0.000000 0.000000 0.042449 0.000000
# 6 0.000000 0.000000 0.000000 0.000000 0.000000 0.037163
#
#
# Mechanical properties :
#
#
# Convention : Reuss Voigt Hill
#
# Bulk Modulus (GPa) = 69.61545 70.10718 69.86132
# Shear Modulus (GPa) = 26.05018 26.34337 26.19678
#
# Velocity S-wave (km/s) = 3.70442 3.72520 3.71482
# Velocity P-wave (km/s) = 7.41410 7.44539 7.42976
#
# Compressibility (1/GPa) = 0.01436463
#
# Stress axis : x y z
#
# Youngs Moduli (GPa) = 75.39495 75.39495 75.76112
#
# Poissons Ratio (x) = 0.40094 0.27891
# Poissons Ratio (y) = 0.40094 0.27891
# Poissons Ratio (z) = 0.27757 0.27757
#
# Static dielectric constant tensor:
#      x y z
#    x 3.504180 0.000000 0.000000 
#    y 0.000000 3.504180 0.000000 
#    z 0.000000 0.000000 3.316840 
# 
# 
# High freq. dielectric constant tensor:
#      x y z
#    x 1.730260 0.000000 0.000000 
#    y 0.000000 1.730260 0.000000 
#    z 0.000000 0.000000 1.735420 
# 
# From -- ./inp_files/7403.got.cif
#   From: 2010.03.12/outbox.cif.g09.slc.cpg/sg178_4_cif.got.tgz:7403.got - 2010.04.02 07:02:38.
