data_PCOD8325363
_publ_section_title
;
Structure prediction by ZEFSAII (Michael W. Deem and Ramdas Pophale) SiO2 
 PCOD8325363
Probable space group: P 6/M
;
_chemical_formula_sum "Si O2"
_cell_formula_units_Z 66
_cell_length_a 20.657042
_cell_length_b 20.657042
_cell_length_c 10.113590
_cell_angle_alpha 90.000000
_cell_angle_beta 90.000000
_cell_angle_gamma 120.000000
_cell_volume 3737.422883
_symmetry_space_group_name_H-M "P 6/M"
_symmetry_group_IT_number 175
_symmetry_cell_setting 'hexagonal'
loop_
_space_group_symop_operation_xyz
x,y,z
x-y,x,z
-y,x-y,z
-x,-y,z
-x+y,-x,z
y,-x+y,z
-x,-y,-z
-x+y,-x,-z
y,-x+y,-z
x,y,-z
x-y,x,-z
-y,x-y,-z
loop_
_atom_site_type_symbol
_atom_site_label
_atom_site_fract_x
_atom_site_fract_y
_atom_site_fract_z
Si Si1 0.705417 0.144151 0.345381
Si Si2 0.923067 0.197093 0.247977
Si Si3 0.084090 0.545740 0.656660
Si Si4 0.944449 0.118458 0.500000
Si Si5 0.146868 0.710370 0.654274
Si Si6 0.078199 0.306761 0.853358
O O1 0.707065 0.124305 0.500000
O O2 0.625054 0.131079 0.301562
O O3 0.766311 0.230289 0.315458
O O4 0.723561 0.089893 0.259757
O O5 0.925490 0.152455 0.374557
O O6 0.907978 0.263834 0.286028
O O7 0.857964 0.140453 0.152177
O O8 0.999615 0.232187 0.168255
O O9 0.080540 0.548758 0.500000
O O10 0.126053 0.629846 0.715627
O O11 0.000000 0.500000 0.714475
O O12 0.029527 0.137625 0.500000
O O13 0.131683 0.701452 0.500000
O O14 0.080793 0.339473 0.000000
#
# Coordination Sequence:
#
# PCOD8325363 Si02
#       6
#    12  12  12   6  12  12
#     4   9  19  33  53  78 105 142 183 222 272 328
#     4  11  21  34  57  79 108 142 182 221 278 325
#     4   9  16  28  46  75 109 137 167 216 277 321
#     4  12  23  38  58  88 111 145 183 229 271 325
#     4   9  17  29  50  80 108 134 177 224 267 323
#     4  11  23  37  54  77 109 142 182 229 276 327
#
# _framework density 17.659227999999999
#
# number of rings (size 3 to 8) (size 9 to 14) (size 15 to 20)
#    0.000    2.000    2.727    1.727    2.545    1.455 
#    1.091    0.000    0.000    9.273    0.000    2.545 
#    0.000    0.000    0.000    0.000    0.000    0.000 
#
# Total GULP energy -818331.492710 kJ/mol
# GULP energy per Si atom -12398.962011 kJ/mol
# Density = 1.761903 g / cm^3
# Si number density = 17.659228 Si / 1000 Ang^3
#
#
#
# Elastic Constant Matrix: (Units=GPa)
#
#
# Indices 1 2 3 4 5 6 
#
# 1 105.7051 52.1308 19.6152 0.0000 0.0000 0.0000
# 2 52.1308 105.7051 19.6152 0.0000 0.0000 0.0000
# 3 19.6152 19.6152 60.1849 0.0000 0.0000 0.0000
# 4 0.0000 0.0000 0.0000 -10.3849 0.0000 0.0000
# 5 0.0000 0.0000 0.0000 0.0000 -10.3849 0.0000
# 6 0.0000 0.0000 0.0000 0.0000 0.0000 26.7871
#
#
#
# Elastic Compliance Matrix: (Units=1/GPa)
#
#
# Indices 1 2 3 4 5 6 
#
# 1 0.012780 -0.005886 -0.002247 0.000000 0.000000 0.000000
# 2 -0.005886 0.012780 -0.002247 0.000000 0.000000 0.000000
# 3 -0.002247 -0.002247 0.018080 0.000000 0.000000 0.000000
# 4 0.000000 0.000000 0.000000 -0.096294 0.000000 0.000000
# 5 0.000000 0.000000 0.000000 0.000000 -0.096294 0.000000
# 6 0.000000 0.000000 0.000000 0.000000 0.000000 0.037331
#
#
# Mechanical properties :
#
#
# Convention : Reuss Voigt Hill
#
# Bulk Modulus (GPa) = 43.70485 50.47969 47.09227
# Shear Modulus (GPa) = -60.07415 13.21907 -23.42754
#
# Velocity S-wave (km/s) = -5.83887 2.73896 -3.64627
# Velocity P-wave (km/s) = 4.54465 6.21691 2.99969
#
# Compressibility (1/GPa) = 0.02288076
#
# Stress axis : x y z
#
# Youngs Moduli (GPa) = 78.24772 78.24772 55.30950
#
# Poissons Ratio (x) = 0.46055 0.12428
# Poissons Ratio (y) = 0.46055 0.12428
# Poissons Ratio (z) = 0.17582 0.17582
#
# Static dielectric constant tensor:
#      x y z
#    x 3.445690 0.000000 0.000000 
#    y 0.000000 3.445690 0.000000 
#    z 0.000000 0.000000 2.951170 
# 
# 
# High freq. dielectric constant tensor:
#      x y z
#    x 1.689380 0.000000 0.000000 
#    y 0.000000 1.689380 0.000000 
#    z 0.000000 0.000000 1.647040 
# 
# From -- ./inp_files/993.got.cif
#   From: 2010.03.12/outbox.cif.g09.slc.cpg/sg175_1_cif.got.tgz:993.got - 2010.04.02 06:55:29.
