data_PCOD8325624
_publ_section_title
;
Structure prediction by ZEFSAII (Michael W. Deem and Ramdas Pophale) SiO2 
 PCOD8325624
Probable space group: P 63/M
;
_chemical_formula_sum "Si O2"
_cell_formula_units_Z 48
_cell_length_a 17.883028
_cell_length_b 17.883028
_cell_length_c 8.373581
_cell_angle_alpha 90.000000
_cell_angle_beta 90.000000
_cell_angle_gamma 120.000000
_cell_volume 2319.124001
_symmetry_space_group_name_H-M "P 63/M"
_symmetry_group_IT_number 176
_symmetry_cell_setting 'hexagonal'
loop_
_space_group_symop_operation_xyz
x,y,z
x-y,x,1/2+z
-y,x-y,z
-x,-y,1/2+z
-x+y,-x,z
y,-x+y,1/2+z
-x,-y,-z
-x+y,-x,1/2-z
y,-x+y,-z
x,y,1/2-z
x-y,x,-z
-y,x-y,1/2-z
loop_
_atom_site_type_symbol
_atom_site_label
_atom_site_fract_x
_atom_site_fract_y
_atom_site_fract_z
Si Si1 0.472747 0.093750 0.434571
Si Si2 0.547614 0.637603 0.568770
Si Si3 0.912382 0.101130 0.434604
Si Si4 0.181251 0.802743 0.434116
O O1 0.451294 0.066908 0.250000
O O2 0.573967 0.127997 0.467995
O O3 0.451788 0.167970 0.481359
O O4 0.414509 0.012435 0.545633
O O5 0.561785 0.672082 0.750000
O O6 0.588614 0.717780 0.449321
O O7 0.892759 0.075573 0.250000
O O8 0.877759 0.165158 0.480796
O O9 0.014785 0.149606 0.461102
O O10 0.154952 0.786651 0.250000
#
# Coordination Sequence:
#
# PCOD8325624 Si02
#       4
#    12  12  12  12
#     4  10  21  39  62  87 117 154 195 242 297 355
#     4  10  21  39  62  87 117 154 195 242 297 355
#     4  12  25  43  64  90 125 164 208 253 305 360
#     4  12  24  39  61  90 122 158 202 249 298 356
#
# _framework density 20.697469000000002
#
# number of rings (size 3 to 8) (size 9 to 14) (size 15 to 20)
#    0.000    1.000    0.000    7.750    0.000    3.000 
#    1.500    0.000    0.000    0.000    0.000    0.000 
#    0.000    0.000    0.000    0.000    0.000    0.000 
#
# Total GULP energy -595534.746783 kJ/mol
# GULP energy per Si atom -12406.973891 kJ/mol
# Density = 2.065036 g / cm^3
# Si number density = 20.697469 Si / 1000 Ang^3
#
#
#
# Elastic Constant Matrix: (Units=GPa)
#
#
# Indices 1 2 3 4 5 6 
#
# 1 71.7242 18.3820 21.6335 0.0000 0.0000 0.0000
# 2 18.3820 71.7242 21.6335 0.0000 0.0000 0.0000
# 3 21.6335 21.6335 86.8977 0.0000 0.0000 0.0000
# 4 0.0000 0.0000 0.0000 31.2378 0.0000 0.0000
# 5 0.0000 0.0000 0.0000 0.0000 31.2378 0.0000
# 6 0.0000 0.0000 0.0000 0.0000 0.0000 26.6711
#
#
#
# Elastic Compliance Matrix: (Units=1/GPa)
#
#
# Indices 1 2 3 4 5 6 
#
# 1 0.015676 -0.003071 -0.003138 0.000000 0.000000 0.000000
# 2 -0.003071 0.015676 -0.003138 0.000000 0.000000 0.000000
# 3 -0.003138 -0.003138 0.013070 0.000000 0.000000 0.000000
# 4 0.000000 0.000000 0.000000 0.032012 0.000000 0.000000
# 5 0.000000 0.000000 0.000000 0.000000 0.032012 0.000000
# 6 0.000000 0.000000 0.000000 0.000000 0.000000 0.037494
#
#
# Mechanical properties :
#
#
# Convention : Reuss Voigt Hill
#
# Bulk Modulus (GPa) = 38.86843 39.29376 39.08109
# Shear Modulus (GPa) = 28.86657 29.07581 28.97119
#
# Velocity S-wave (km/s) = 3.73861 3.75213 3.74538
# Velocity P-wave (km/s) = 6.12016 6.14796 6.13407
#
# Compressibility (1/GPa) = 0.02572782
#
# Stress axis : x y z
#
# Youngs Moduli (GPa) = 63.79236 63.79236 76.50979
#
# Poissons Ratio (x) = 0.19591 0.24009
# Poissons Ratio (y) = 0.19591 0.24009
# Poissons Ratio (z) = 0.20018 0.20018
#
# Static dielectric constant tensor:
#      x y z
#    x 3.742970 0.000000 0.000000 
#    y 0.000000 3.742970 0.000000 
#    z 0.000000 0.000000 3.746640 
# 
# 
# High freq. dielectric constant tensor:
#      x y z
#    x 1.809690 0.000000 0.000000 
#    y 0.000000 1.809690 0.000000 
#    z 0.000000 0.000000 1.823920 
# 
# From -- ./inp_files/565.got.cif
#   From: 2010.06.25/outbox.cif.g09.slc.cpg/sg176_1_cif.got.tgz:565.got - 2010.06.28 12:15:01.
