data_PCOD8325066
_publ_section_title
;
Structure prediction by ZEFSAII (Michael W. Deem and Ramdas Pophale) SiO2 
 PCOD8325066
Probable space group: P 6/M
;
_chemical_formula_sum "Si O2"
_cell_formula_units_Z 74
_cell_length_a 13.556899
_cell_length_b 13.556899
_cell_length_c 27.490001
_cell_angle_alpha 90.000000
_cell_angle_beta 90.000000
_cell_angle_gamma 120.000000
_cell_volume 4375.484084
_symmetry_space_group_name_H-M "P 6/M"
_symmetry_group_IT_number 175
_symmetry_cell_setting 'hexagonal'
loop_
_space_group_symop_operation_xyz
x,y,z
x-y,x,z
-y,x-y,z
-x,-y,z
-x+y,-x,z
y,-x+y,z
-x,-y,-z
-x+y,-x,-z
y,-x+y,-z
x,y,-z
x-y,x,-z
-y,x-y,-z
loop_
_atom_site_type_symbol
_atom_site_label
_atom_site_fract_x
_atom_site_fract_y
_atom_site_fract_z
Si Si1 0.534408 0.907422 0.270558
Si Si2 0.204642 0.249689 0.102788
Si Si3 0.666667 0.333334 0.385653
Si Si4 0.793460 0.747976 0.000000
Si Si5 0.533444 0.907108 0.614415
Si Si6 0.746549 0.954442 0.208471
Si Si7 0.752046 0.955069 0.444131
Si Si8 0.666667 0.333334 0.270090
O O1 0.548495 0.905557 0.328087
O O2 0.654811 0.939318 0.248125
O O3 0.437377 0.785015 0.250615
O O4 0.500000 0.000000 0.254821
O O5 0.210228 0.136382 0.102300
O O6 0.255396 0.311582 0.154648
O O7 0.261954 0.319671 0.051655
O O8 0.564098 0.214816 0.405362
O O9 0.666668 0.333334 0.327856
O O10 0.785481 0.860821 0.000000
O O11 0.651047 0.938252 0.590131
O O12 0.500000 0.000000 0.598695
O O13 0.781694 0.858512 0.215833
O O14 0.785364 0.860618 0.431776
O O15 0.714270 0.948106 0.500000
#
# Coordination Sequence:
#
# PCOD8325066 Si02
#       8
#    12  12   4   6  12  12  12   4
#     4  10  20  34  52  72  94 124 160 199 239 282
#     4   8  13  20  32  52  81 116 151 186 225 272
#     4   9  18  33  52  76 102 126 154 196 243 283
#     4   8  11  16  28  48  75 110 150 186 221 266
#     4  10  20  35  55  76  99 126 158 196 241 287
#     4  10  19  30  44  66  97 129 158 191 235 284
#     4  10  21  37  56  77 102 132 164 196 230 272
#     4   9  18  33  51  70  94 124 160 198 237 277
#
# _framework density 16.912413999999998
#
# number of rings (size 3 to 8) (size 9 to 14) (size 15 to 20)
#    0.000    2.595    0.000    2.514    0.000    7.459 
#    0.000    0.811    0.000    1.946    0.000    0.568 
#    0.000    1.297    0.000    0.243    0.000    0.081 
#
# Total GULP energy -916718.786578 kJ/mol
# GULP energy per Si atom -12388.091711 kJ/mol
# Density = 1.687392 g / cm^3
# Si number density = 16.912414 Si / 1000 Ang^3
#
#
#
# Elastic Constant Matrix: (Units=GPa)
#
#
# Indices 1 2 3 4 5 6 
#
# 1 108.6765 50.2649 44.1826 0.0000 0.0000 -0.0001
# 2 50.2649 108.6768 44.1826 0.0000 0.0000 -0.0005
# 3 44.1826 44.1826 48.5212 0.0000 0.0000 0.0000
# 4 0.0000 0.0000 0.0000 14.4156 0.0001 0.0000
# 5 0.0000 0.0000 0.0000 0.0001 14.4157 0.0000
# 6 -0.0001 -0.0005 0.0000 0.0000 0.0000 29.2060
#
#
#
# Elastic Compliance Matrix: (Units=1/GPa)
#
#
# Indices 1 2 3 4 5 6 
#
# 1 0.014931 -0.002189 -0.011603 0.000000 0.000000 0.000000
# 2 -0.002189 0.014931 -0.011603 0.000000 0.000000 0.000000
# 3 -0.011603 -0.011603 0.041741 0.000000 0.000000 0.000000
# 4 0.000000 0.000000 0.000000 0.069369 -0.000001 0.000000
# 5 0.000000 0.000000 0.000000 -0.000001 0.069369 0.000000
# 6 0.000000 0.000000 0.000000 0.000000 0.000000 0.034240
#
#
# Mechanical properties :
#
#
# Convention : Reuss Voigt Hill
#
# Bulk Modulus (GPa) = 48.04615 60.34829 54.19722
# Shear Modulus (GPa) = 16.53942 20.09042 18.31492
#
# Velocity S-wave (km/s) = 3.13060 3.45035 3.29436
# Velocity P-wave (km/s) = 6.44500 7.18564 6.82538
#
# Compressibility (1/GPa) = 0.02081332
#
# Stress axis : x y z
#
# Youngs Moduli (GPa) = 66.97381 66.97418 23.95737
#
# Poissons Ratio (x) = 0.14658 0.27798
# Poissons Ratio (y) = 0.14658 0.27798
# Poissons Ratio (z) = 0.77711 0.77711
#
# Static dielectric constant tensor:
#      x y z
#    x 3.087280 0.000010 0.000000 
#    y 0.000010 3.087290 0.000000 
#    z 0.000000 0.000000 3.636080 
# 
# 
# High freq. dielectric constant tensor:
#      x y z
#    x 1.639040 0.000000 0.000000 
#    y 0.000000 1.639040 0.000000 
#    z 0.000000 0.000000 1.655840 
# 
# From -- ./inp_files/3398.got.cif
#   From: 2010.03.12/outbox.cif.g09.slc.cpg/sg175_2_cif.got.tgz:3398.got - 2010.04.02 06:55:29.
