data_PCOD8325995
_publ_section_title
;
Structure prediction by ZEFSAII (Michael W. Deem and Ramdas Pophale) SiO2 
 PCOD8325995
Probable space group: P 61 2 2
;
_chemical_formula_sum "Si O2"
_cell_formula_units_Z 60
_cell_length_a 18.669427
_cell_length_b 18.669427
_cell_length_c 9.660236
_cell_angle_alpha 90.000000
_cell_angle_beta 90.000000
_cell_angle_gamma 120.000000
_cell_volume 2915.951832
_symmetry_space_group_name_H-M "P 61 2 2"
_symmetry_group_IT_number 178
_symmetry_cell_setting 'hexagonal'
loop_
_space_group_symop_operation_xyz
x,y,z
x-y,x,1/6+z
-y,x-y,1/3+z
-x,-y,1/2+z
-x+y,-x,2/3+z
y,-x+y,5/6+z
x-y,-y,-z
-x,-x+y,2/3-z
y,x,1/3-z
-y,-x,5/6-z
-x+y,y,1/2-z
x,x-y,1/6-z
loop_
_atom_site_type_symbol
_atom_site_label
_atom_site_fract_x
_atom_site_fract_y
_atom_site_fract_z
Si Si1 0.965320 0.482660 0.083334
Si Si2 0.616925 0.308463 0.083334
Si Si3 0.678713 0.923851 0.593619
Si Si4 0.272011 0.759967 0.573089
Si Si5 0.659288 0.513070 0.600213
Si Si6 0.335986 0.947605 0.634359
O O1 0.912004 0.434728 0.218532
O O2 0.019142 0.576883 0.125268
O O3 0.677488 0.278372 0.155022
O O4 0.559847 0.331737 0.170795
O O5 0.697706 0.848853 0.583334
O O6 0.587944 0.899067 0.539173
O O7 0.678055 0.948994 0.754359
O O8 0.746174 0.000000 0.500000
O O9 0.268393 0.731608 0.416667
O O10 0.178172 0.719295 0.632046
O O11 0.311708 0.856940 0.585956
O O12 0.338105 0.000000 0.500000
#
# Coordination Sequence:
#
# PCOD8325995 Si02
#       6
#     6   6  12  12  12  12
#     4  12  27  42  62  98 134 184 242 298 356 413
#     4  12  23  36  60  86 130 196 246 296 348 393
#     4  12  26  48  72 102 135 179 229 294 360 440
#     4  12  25  40  60  92 136 184 242 299 343 405
#     4  12  23  41  61  89 136 182 241 294 345 410
#     4  12  27  42  69  97 135 185 234 296 359 414
#
# _framework density 20.576471999999999
#
# number of rings (size 3 to 8) (size 9 to 14) (size 15 to 20)
#    0.000    0.000    5.000    6.000    8.400    0.000 
#    0.000    0.000    0.000    0.000    0.000    1.400 
#    0.000    0.000    0.000    0.000    0.000    0.000 
#
# Total GULP energy -743623.817211 kJ/mol
# GULP energy per Si atom -12393.730287 kJ/mol
# Density = 2.052964 g / cm^3
# Si number density = 20.576472 Si / 1000 Ang^3
#
#
#
# Elastic Constant Matrix: (Units=GPa)
#
#
# Indices 1 2 3 4 5 6 
#
# 1 109.9290 37.7722 39.3271 0.0000 0.0000 0.0000
# 2 37.7722 109.9290 39.3271 0.0000 0.0000 0.0000
# 3 39.3271 39.3271 87.1063 0.0000 0.0000 0.0000
# 4 0.0000 0.0000 0.0000 33.3577 0.0000 0.0000
# 5 0.0000 0.0000 0.0000 0.0000 33.3577 0.0000
# 6 0.0000 0.0000 0.0000 0.0000 0.0000 36.0784
#
#
#
# Elastic Compliance Matrix: (Units=1/GPa)
#
#
# Indices 1 2 3 4 5 6 
#
# 1 0.011386 -0.002473 -0.004024 0.000000 0.000000 0.000000
# 2 -0.002473 0.011386 -0.004024 0.000000 0.000000 0.000000
# 3 -0.004024 -0.004024 0.015114 0.000000 0.000000 0.000000
# 4 0.000000 0.000000 0.000000 0.029978 0.000000 0.000000
# 5 0.000000 0.000000 0.000000 0.000000 0.029978 0.000000
# 6 0.000000 0.000000 0.000000 0.000000 0.000000 0.027717
#
#
# Mechanical properties :
#
#
# Convention : Reuss Voigt Hill
#
# Bulk Modulus (GPa) = 59.36906 59.97970 59.67438
# Shear Modulus (GPa) = 32.84791 33.26129 33.05460
#
# Velocity S-wave (km/s) = 3.99981 4.02490 4.01237
# Velocity P-wave (km/s) = 7.08850 7.12830 7.10843
#
# Compressibility (1/GPa) = 0.01684379
#
# Stress axis : x y z
#
# Youngs Moduli (GPa) = 87.82659 87.82659 66.16375
#
# Poissons Ratio (x) = 0.21716 0.26626
# Poissons Ratio (y) = 0.21716 0.26626
# Poissons Ratio (z) = 0.35344 0.35344
#
# Static dielectric constant tensor:
#      x y z
#    x 3.781140 0.000000 0.000000 
#    y 0.000000 3.781140 0.000000 
#    z 0.000000 0.000000 4.471170 
# 
# 
# High freq. dielectric constant tensor:
#      x y z
#    x 1.787700 0.000000 0.000000 
#    y 0.000000 1.787700 0.000000 
#    z 0.000000 0.000000 1.832230 
# 
# From -- ./inp_files/4600.got.cif
#   From: 2010.03.12/outbox.cif.g09.slc.cpg/sg178_3_cif.got.tgz:4600.got - 2010.04.02 07:02:38.
