data_PCOD8325511
_publ_section_title
;
Structure prediction by ZEFSAII (Michael W. Deem and Ramdas Pophale) SiO2 
 PCOD8325511
Probable space group: P 63/M
;
_chemical_formula_sum "Si O2"
_cell_formula_units_Z 72
_cell_length_a 22.284807
_cell_length_b 22.284807
_cell_length_c 9.338054
_cell_angle_alpha 90.000000
_cell_angle_beta 90.000000
_cell_angle_gamma 120.000000
_cell_volume 4016.102303
_symmetry_space_group_name_H-M "P 63/M"
_symmetry_group_IT_number 176
_symmetry_cell_setting 'hexagonal'
loop_
_space_group_symop_operation_xyz
x,y,z
x-y,x,1/2+z
-y,x-y,z
-x,-y,1/2+z
-x+y,-x,z
y,-x+y,1/2+z
-x,-y,-z
-x+y,-x,1/2-z
y,-x+y,-z
x,y,1/2-z
x-y,x,-z
-y,x-y,1/2-z
loop_
_atom_site_type_symbol
_atom_site_label
_atom_site_fract_x
_atom_site_fract_y
_atom_site_fract_z
Si Si1 0.243217 0.256182 0.081260
Si Si2 0.513183 0.372945 0.086300
Si Si3 0.385062 0.381522 0.084450
Si Si4 0.859168 0.714575 0.084342
Si Si5 0.630497 0.490032 0.915470
Si Si6 0.555121 0.786992 0.588640
O O1 0.236325 0.263856 0.250000
O O2 0.311479 0.324136 0.017808
O O3 0.247924 0.188147 0.044315
O O4 0.175651 0.249889 0.006531
O O5 0.526529 0.399767 0.250000
O O6 0.449876 0.378840 0.015464
O O7 0.495533 0.294591 0.076925
O O8 0.582726 0.418739 0.997187
O O9 0.381885 0.360848 0.250000
O O10 0.399723 0.458712 0.061403
O O11 0.849201 0.725507 0.250000
O O12 0.825824 0.633268 0.048504
O O13 0.633128 0.473289 0.750000
O O14 0.707552 0.528198 0.974887
O O15 0.552493 0.812142 0.750000
#
# Coordination Sequence:
#
# PCOD8325511 Si02
#       6
#    12  12  12  12  12  12
#     4  10  19  35  58  84 118 151 177 220 279 329
#     4  10  20  37  57  75 103 143 185 222 265 326
#     4   9  17  32  55  81 108 140 172 214 275 324
#     4  10  20  35  58  87 115 146 186 226 269 328
#     4  11  22  35  53  79 110 140 176 224 279 326
#     4  10  20  36  57  78 103 142 188 229 269 325
#
# _framework density 17.92783
#
# number of rings (size 3 to 8) (size 9 to 14) (size 15 to 20)
#    0.000    2.000    3.333    1.000    0.000    1.333 
#    1.000    1.667    0.000    0.333    0.000    0.000 
#    0.000    0.000    0.000    0.000    0.000    0.000 
#
# Total GULP energy -892935.674241 kJ/mol
# GULP energy per Si atom -12401.884364 kJ/mol
# Density = 1.788703 g / cm^3
# Si number density = 17.927830 Si / 1000 Ang^3
#
#
#
# Elastic Constant Matrix: (Units=GPa)
#
#
# Indices 1 2 3 4 5 6 
#
# 1 79.6496 22.0823 42.9189 0.0000 0.0000 0.0000
# 2 22.0823 79.6496 42.9189 0.0000 0.0000 0.0000
# 3 42.9189 42.9189 74.0984 0.0000 0.0000 0.0000
# 4 0.0000 0.0000 0.0000 28.1068 0.0000 0.0000
# 5 0.0000 0.0000 0.0000 0.0000 28.1068 0.0000
# 6 0.0000 0.0000 0.0000 0.0000 0.0000 28.7836
#
#
#
# Elastic Compliance Matrix: (Units=1/GPa)
#
#
# Indices 1 2 3 4 5 6 
#
# 1 0.018298 0.000927 -0.011136 0.000000 0.000000 0.000000
# 2 0.000927 0.018298 -0.011136 0.000000 0.000000 0.000000
# 3 -0.011136 -0.011136 0.026396 0.000000 0.000000 0.000000
# 4 0.000000 0.000000 0.000000 0.035579 0.000000 0.000000
# 5 0.000000 0.000000 0.000000 0.000000 0.035579 0.000000
# 6 0.000000 0.000000 0.000000 0.000000 0.000000 0.034742
#
#
# Mechanical properties :
#
#
# Convention : Reuss Voigt Hill
#
# Bulk Modulus (GPa) = 49.25179 49.91528 49.58354
# Shear Modulus (GPa) = 22.89920 25.36461 24.13190
#
# Velocity S-wave (km/s) = 3.57781 3.76549 3.67285
# Velocity P-wave (km/s) = 6.67829 6.84164 6.76045
#
# Compressibility (1/GPa) = 0.02030383
#
# Stress axis : x y z
#
# Youngs Moduli (GPa) = 54.64957 54.64957 37.88495
#
# Poissons Ratio (x) = -0.05068 0.42188
# Poissons Ratio (y) = -0.05068 0.42188
# Poissons Ratio (z) = 0.60857 0.60857
#
# Static dielectric constant tensor:
#      x y z
#    x 3.251600 0.000000 0.000000 
#    y 0.000000 3.251600 0.000000 
#    z 0.000000 0.000000 3.153090 
# 
# 
# High freq. dielectric constant tensor:
#      x y z
#    x 1.691470 0.000000 0.000000 
#    y 0.000000 1.691470 0.000000 
#    z 0.000000 0.000000 1.675410 
# 
# From -- ./inp_files/1135.got.cif
#   From: 2010.06.25/outbox.cif.g09.slc.cpg/sg176_1_cif.got.tgz:1135.got - 2010.06.28 12:15:01.
