data_PCOD8325884
_publ_section_title
;
Structure prediction by ZEFSAII (Michael W. Deem and Ramdas Pophale) SiO2 
 PCOD8325884
Probable space group: P 61 2 2
;
_chemical_formula_sum "Si O2"
_cell_formula_units_Z 84
_cell_length_a 15.175912
_cell_length_b 15.175912
_cell_length_c 21.615671
_cell_angle_alpha 90.000000
_cell_angle_beta 90.000000
_cell_angle_gamma 120.000000
_cell_volume 4311.307031
_symmetry_space_group_name_H-M "P 61 2 2"
_symmetry_group_IT_number 178
_symmetry_cell_setting 'hexagonal'
loop_
_space_group_symop_operation_xyz
x,y,z
x-y,x,1/6+z
-y,x-y,1/3+z
-x,-y,1/2+z
-x+y,-x,2/3+z
y,-x+y,5/6+z
x-y,-y,-z
-x,-x+y,2/3-z
y,x,1/3-z
-y,-x,5/6-z
-x+y,y,1/2-z
x,x-y,1/6-z
loop_
_atom_site_type_symbol
_atom_site_label
_atom_site_fract_x
_atom_site_fract_y
_atom_site_fract_z
Si Si1 0.380739 0.763333 0.318223
Si Si2 0.425632 0.311318 0.561577
Si Si3 0.294694 0.503174 0.428379
Si Si4 0.941942 0.000000 0.000000
Si Si5 0.741623 0.038184 0.194814
Si Si6 0.472266 0.472266 0.666667
Si Si7 0.208384 0.538448 0.309080
Si Si8 0.186029 0.079519 0.776325
O O1 0.406145 0.812289 0.250000
O O2 0.375238 0.838080 0.366882
O O3 0.470637 0.745506 0.342444
O O4 0.272417 0.659831 0.316623
O O5 0.401332 0.200666 0.583334
O O6 0.345878 0.289179 0.507516
O O7 0.425252 0.384164 0.615058
O O8 0.408165 0.591836 0.416667
O O9 0.302039 0.404080 0.439712
O O10 0.221618 0.485262 0.369982
O O11 0.964983 0.907593 0.008669
O O12 0.884792 0.025650 0.053634
O O13 0.827163 0.107368 0.144316
O O14 0.782638 0.000435 0.252079
O O15 0.490331 0.580034 0.637957
O O16 0.252503 0.505005 0.250000
#
# Coordination Sequence:
#
# PCOD8325884 Si02
#       8
#    12  12  12   6  12   6  12  12
#     4  10  21  42  68  90 131 179 207 266 339 393
#     4  12  26  40  62 100 141 171 218 276 330 409
#     4  10  22  45  63  90 130 169 220 265 329 397
#     4   8  16  37  69  80 118 172 202 244 323 409
#     4  11  26  37  63  97 130 167 210 279 327 394
#     4  12  24  43  71 102 128 186 232 264 351 417
#     4  10  22  44  73  91 128 175 225 278 334 402
#     4   9  20  39  59  91 121 162 209 255 327 379
#
# _framework density 19.483650000000001
#
# number of rings (size 3 to 8) (size 9 to 14) (size 15 to 20)
#    0.000    1.714    2.857    0.429   14.000    0.571 
#    2.571    0.714    3.143    0.000    0.000    0.000 
#    0.000    0.000    0.000    0.000    0.000    0.000 
#
# Total GULP energy -1041063.605514 kJ/mol
# GULP energy per Si atom -12393.614351 kJ/mol
# Density = 1.943930 g / cm^3
# Si number density = 19.483650 Si / 1000 Ang^3
#
#
#
# Elastic Constant Matrix: (Units=GPa)
#
#
# Indices 1 2 3 4 5 6 
#
# 1 87.7902 46.0149 32.9928 0.0000 0.0000 0.0000
# 2 46.0149 87.7902 32.9928 0.0000 0.0000 0.0000
# 3 32.9928 32.9928 90.1675 0.0000 0.0000 0.0000
# 4 0.0000 0.0000 0.0000 28.0535 0.0000 0.0000
# 5 0.0000 0.0000 0.0000 0.0000 28.0535 0.0000
# 6 0.0000 0.0000 0.0000 0.0000 0.0000 20.8877
#
#
#
# Elastic Compliance Matrix: (Units=1/GPa)
#
#
# Indices 1 2 3 4 5 6 
#
# 1 0.016528 -0.007409 -0.003337 0.000000 0.000000 0.000000
# 2 -0.007409 0.016528 -0.003337 0.000000 0.000000 0.000000
# 3 -0.003337 -0.003337 0.013532 0.000000 0.000000 0.000000
# 4 0.000000 0.000000 0.000000 0.035646 0.000000 0.000000
# 5 0.000000 0.000000 0.000000 0.000000 0.035646 0.000000
# 6 0.000000 0.000000 0.000000 0.000000 0.000000 0.047875
#
#
# Mechanical properties :
#
#
# Convention : Reuss Voigt Hill
#
# Bulk Modulus (GPa) = 54.27835 54.41657 54.34746
# Shear Modulus (GPa) = 24.99212 25.64875 25.32044
#
# Velocity S-wave (km/s) = 3.58540 3.63219 3.60887
# Velocity P-wave (km/s) = 6.71260 6.75133 6.73199
#
# Compressibility (1/GPa) = 0.01842355
#
# Stress axis : x y z
#
# Youngs Moduli (GPa) = 60.50226 60.50226 73.89717
#
# Poissons Ratio (x) = 0.44828 0.24657
# Poissons Ratio (y) = 0.44828 0.24657
# Poissons Ratio (z) = 0.20188 0.20188
#
# Static dielectric constant tensor:
#      x y z
#    x 3.474130 0.000000 0.000000 
#    y 0.000000 3.474130 0.000000 
#    z 0.000000 0.000000 3.911450 
# 
# 
# High freq. dielectric constant tensor:
#      x y z
#    x 1.748000 0.000000 0.000000 
#    y 0.000000 1.748000 0.000000 
#    z 0.000000 0.000000 1.772800 
# 
# From -- ./inp_files/8376.got.cif
#   From: 2010.03.12/outbox.cif.g09.slc.cpg/sg178_5_cif.got.tgz:8376.got - 2010.04.02 07:02:38.
