data_PCOD8325405
_publ_section_title
;
Structure prediction by ZEFSAII (Michael W. Deem and Ramdas Pophale) SiO2 
 PCOD8325405
Probable space group: P 63/M
;
_chemical_formula_sum "Si O2"
_cell_formula_units_Z 66
_cell_length_a 13.544383
_cell_length_b 13.544383
_cell_length_c 24.098729
_cell_angle_alpha 90.000000
_cell_angle_beta 90.000000
_cell_angle_gamma 120.000000
_cell_volume 3828.628445
_symmetry_space_group_name_H-M "P 63/M"
_symmetry_group_IT_number 176
_symmetry_cell_setting 'hexagonal'
loop_
_space_group_symop_operation_xyz
x,y,z
x-y,x,1/2+z
-y,x-y,z
-x,-y,1/2+z
-x+y,-x,z
y,-x+y,1/2+z
-x,-y,-z
-x+y,-x,1/2-z
y,-x+y,-z
x,y,1/2-z
x-y,x,-z
-y,x-y,1/2-z
loop_
_atom_site_type_symbol
_atom_site_label
_atom_site_fract_x
_atom_site_fract_y
_atom_site_fract_z
Si Si1 0.666667 0.333334 0.429657
Si Si2 0.673110 0.661434 0.519633
Si Si3 0.854328 0.738137 0.072950
Si Si4 0.333334 0.666668 0.064451
Si Si5 0.000000 0.000000 0.565982
Si Si6 0.572529 0.089939 0.567628
Si Si7 0.797293 0.343127 0.250000
Si Si8 0.461290 0.119273 0.369177
O O1 0.666668 0.333334 0.496305
O O2 0.553239 0.224391 0.405969
O O3 0.695711 0.749834 0.569021
O O4 0.791437 0.711448 0.486517
O O5 0.631795 0.537288 0.544531
O O6 0.570946 0.646290 0.480304
O O7 0.915455 0.872025 0.088051
O O8 0.764189 0.665114 0.120584
O O9 0.435356 0.652310 0.090133
O O10 0.000000 0.000000 0.500000
O O11 0.534900 0.993702 0.614316
O O12 0.774557 0.449936 0.250000
O O13 0.866954 0.348678 0.304038
#
# Coordination Sequence:
#
# PCOD8325405 Si02
#       8
#     4  12  12   4   4  12   6  12
#     4  12  18  34  58  87 121 142 171 222 295 356
#     4  10  17  29  44  75 105 149 183 220 270 330
#     4  11  20  31  53  75 116 152 191 227 271 328
#     4  12  21  33  46  74 121 162 186 201 244 344
#     4  12  21  36  48  79 113 169 204 225 249 319
#     4  10  21  30  47  75 113 150 186 221 270 333
#     4  10  20  38  64  86 108 130 172 242 298 348
#     4  11  21  35  57  86 110 140 179 240 298 332
#
# _framework density 17.238548999999999
#
# number of rings (size 3 to 8) (size 9 to 14) (size 15 to 20)
#    0.182    1.091    3.636    6.545    0.000    1.455 
#    0.000    0.000    0.000    2.182    0.000    0.000 
#    0.000    0.000    0.000    0.000    0.000    0.000 
#
# Total GULP energy -818205.205307 kJ/mol
# GULP energy per Si atom -12397.048565 kJ/mol
# Density = 1.719931 g / cm^3
# Si number density = 17.238549 Si / 1000 Ang^3
#
#
#
# Elastic Constant Matrix: (Units=GPa)
#
#
# Indices 1 2 3 4 5 6 
#
# 1 96.9352 45.4931 30.5960 0.0000 0.0000 -0.0004
# 2 45.4931 96.9349 30.5961 0.0000 0.0000 -0.0005
# 3 30.5960 30.5961 79.5641 0.0000 0.0000 0.0002
# 4 0.0000 0.0000 0.0000 17.6913 0.0000 0.0000
# 5 0.0000 0.0000 0.0000 0.0000 17.6915 0.0000
# 6 -0.0004 -0.0005 0.0002 0.0000 0.0000 25.7206
#
#
#
# Elastic Compliance Matrix: (Units=1/GPa)
#
#
# Indices 1 2 3 4 5 6 
#
# 1 0.013925 -0.005514 -0.003234 0.000000 0.000000 0.000000
# 2 -0.005514 0.013925 -0.003234 0.000000 0.000000 0.000000
# 3 -0.003234 -0.003234 0.015056 0.000000 0.000000 0.000000
# 4 0.000000 0.000000 0.000000 0.056525 0.000000 0.000000
# 5 0.000000 0.000000 0.000000 0.000000 0.056524 0.000000
# 6 0.000000 0.000000 0.000000 0.000000 0.000000 0.038879
#
#
# Mechanical properties :
#
#
# Convention : Reuss Voigt Hill
#
# Bulk Modulus (GPa) = 52.79799 54.08940 53.44370
# Shear Modulus (GPa) = 22.21099 23.33729 22.77414
#
# Velocity S-wave (km/s) = 3.59339 3.68337 3.63866
# Velocity P-wave (km/s) = 6.92178 7.03809 6.98018
#
# Compressibility (1/GPa) = 0.01894011
#
# Stress axis : x y z
#
# Youngs Moduli (GPa) = 71.81336 71.81302 66.41898
#
# Poissons Ratio (x) = 0.39600 0.21482
# Poissons Ratio (y) = 0.39601 0.21482
# Poissons Ratio (z) = 0.23226 0.23226
#
# Static dielectric constant tensor:
#      x y z
#    x 3.382590 0.000010 0.000000 
#    y 0.000010 3.382580 0.000000 
#    z 0.000000 0.000000 2.709100 
# 
# 
# High freq. dielectric constant tensor:
#      x y z
#    x 1.678110 0.000000 0.000000 
#    y 0.000000 1.678110 0.000000 
#    z 0.000000 0.000000 1.598490 
# 
# From -- ./inp_files/4071.got.cif
#   From: 2010.06.25/outbox.cif.g09.slc.cpg/sg176_3_cif.got.tgz:4071.got - 2010.06.28 12:15:01.
