data_PCOD8325008
_publ_section_title
;
Structure prediction by ZEFSAII (Michael W. Deem and Ramdas Pophale) SiO2 
 PCOD8325008
Probable space group: P 6/M
;
_chemical_formula_sum "Si O2"
_cell_formula_units_Z 78
_cell_length_a 21.663430
_cell_length_b 21.663430
_cell_length_c 12.497496
_cell_angle_alpha 90.000000
_cell_angle_beta 90.000000
_cell_angle_gamma 120.000000
_cell_volume 5079.349285
_symmetry_space_group_name_H-M "P 6/M"
_symmetry_group_IT_number 175
_symmetry_cell_setting 'hexagonal'
loop_
_space_group_symop_operation_xyz
x,y,z
x-y,x,z
-y,x-y,z
-x,-y,z
-x+y,-x,z
y,-x+y,z
-x,-y,-z
-x+y,-x,-z
y,-x+y,-z
x,y,-z
x-y,x,-z
-y,x-y,-z
loop_
_atom_site_type_symbol
_atom_site_label
_atom_site_fract_x
_atom_site_fract_y
_atom_site_fract_z
Si Si1 0.466938 0.808347 0.626825
Si Si2 0.476022 0.673872 0.627533
Si Si3 0.095452 0.167913 0.500000
Si Si4 0.920007 0.297549 0.375657
Si Si5 0.075948 0.911205 0.875912
Si Si6 0.082697 0.369108 0.624638
Si Si7 0.274402 0.131135 0.304606
O O1 0.460705 0.803782 0.500000
O O2 0.464116 0.737109 0.670890
O O3 0.400799 0.814105 0.674560
O O4 0.540472 0.877486 0.662334
O O5 0.475212 0.672135 0.500000
O O6 0.551841 0.686698 0.669460
O O7 0.124032 0.113147 0.500000
O O8 0.124988 0.216035 0.395417
O O9 0.904464 0.275430 0.500000
O O10 0.892386 0.226010 0.308198
O O11 0.002745 0.352021 0.354448
O O12 0.109748 0.871798 0.810759
O O13 0.993864 0.878749 0.844671
O O14 0.085507 0.899840 0.000000
O O15 0.097567 0.363881 0.500000
O O16 0.095113 0.311251 0.685288
#
# Coordination Sequence:
#
# PCOD8325008 Si02
#       7
#    12  12   6  12  12  12  12
#     4   9  16  26  39  57  82 118 157 190 221 262
#     4   9  16  26  39  57  82 118 157 190 221 262
#     4  12  23  32  44  64  90 122 158 198 234 272
#     4  10  18  28  42  61  87 119 154 187 224 275
#     4  10  21  36  52  68  88 118 158 204 248 283
#     4  10  18  28  42  61  87 119 154 187 224 275
#     4  12  20  32  47  66  90 122 158 188 231 285
#
# _framework density 15.356297
#
# number of rings (size 3 to 8) (size 9 to 14) (size 15 to 20)
#    0.000    1.846    3.077    3.308    0.000    2.462 
#    0.000    4.615    0.000    0.000    0.000    0.000 
#    0.000    1.231    0.000    6.462    0.000    0.308 
#
# Total GULP energy -967346.755553 kJ/mol
# GULP energy per Si atom -12401.881481 kJ/mol
# Density = 1.532135 g / cm^3
# Si number density = 15.356297 Si / 1000 Ang^3
#
#
#
# Elastic Constant Matrix: (Units=GPa)
#
#
# Indices 1 2 3 4 5 6 
#
# 1 90.1893 22.6683 18.9627 0.0000 0.0000 0.0000
# 2 22.6683 90.1893 18.9627 0.0000 0.0000 0.0000
# 3 18.9627 18.9627 31.7842 0.0000 0.0000 0.0000
# 4 0.0000 0.0000 0.0000 11.6332 0.0000 0.0000
# 5 0.0000 0.0000 0.0000 0.0000 11.6332 0.0000
# 6 0.0000 0.0000 0.0000 0.0000 0.0000 33.7605
#
#
#
# Elastic Compliance Matrix: (Units=1/GPa)
#
#
# Indices 1 2 3 4 5 6 
#
# 1 0.012946 -0.001864 -0.006612 0.000000 0.000000 0.000000
# 2 -0.001864 0.012946 -0.006612 0.000000 0.000000 0.000000
# 3 -0.006612 -0.006612 0.039352 0.000000 0.000000 0.000000
# 4 0.000000 0.000000 0.000000 0.085961 0.000000 0.000000
# 5 0.000000 0.000000 0.000000 0.000000 0.085961 0.000000
# 6 0.000000 0.000000 0.000000 0.000000 0.000000 0.029620
#
#
# Mechanical properties :
#
#
# Convention : Reuss Voigt Hill
#
# Bulk Modulus (GPa) = 28.51520 37.03893 32.77706
# Shear Modulus (GPa) = 16.19948 21.50999 18.85473
#
# Velocity S-wave (km/s) = 3.25146 3.74669 3.50782
# Velocity P-wave (km/s) = 5.71886 6.54897 6.14794
#
# Compressibility (1/GPa) = 0.03506902
#
# Stress axis : x y z
#
# Youngs Moduli (GPa) = 77.24131 77.24131 25.41181
#
# Poissons Ratio (x) = 0.14396 0.16802
# Poissons Ratio (y) = 0.14396 0.16802
# Poissons Ratio (z) = 0.51072 0.51072
#
# Static dielectric constant tensor:
#      x y z
#    x 3.138220 0.000000 0.000000 
#    y 0.000000 3.138220 0.000000 
#    z 0.000000 0.000000 2.427380 
# 
# 
# High freq. dielectric constant tensor:
#      x y z
#    x 1.603400 0.000000 0.000000 
#    y 0.000000 1.603400 0.000000 
#    z 0.000000 0.000000 1.512440 
# 
# From -- ./inp_files/2682.got.cif
#   From: 2010.03.12/outbox.cif.g09.slc.cpg/sg175_2_cif.got.tgz:2682.got - 2010.04.02 06:55:29.
