data_PCOD8325488
_publ_section_title
;
Structure prediction by ZEFSAII (Michael W. Deem and Ramdas Pophale) SiO2 
 PCOD8325488
Probable space group: P 63/M
;
_chemical_formula_sum "Si O2"
_cell_formula_units_Z 76
_cell_length_a 17.956359
_cell_length_b 17.956359
_cell_length_c 14.055951
_cell_angle_alpha 90.000000
_cell_angle_beta 90.000000
_cell_angle_gamma 120.000000
_cell_volume 3924.889420
_symmetry_space_group_name_H-M "P 63/M"
_symmetry_group_IT_number 176
_symmetry_cell_setting 'hexagonal'
loop_
_space_group_symop_operation_xyz
x,y,z
x-y,x,1/2+z
-y,x-y,z
-x,-y,1/2+z
-x+y,-x,z
y,-x+y,1/2+z
-x,-y,-z
-x+y,-x,1/2-z
y,-x+y,-z
x,y,1/2-z
x-y,x,-z
-y,x-y,1/2-z
loop_
_atom_site_type_symbol
_atom_site_label
_atom_site_fract_x
_atom_site_fract_y
_atom_site_fract_z
Si Si1 0.089211 0.357010 0.355153
Si Si2 0.196085 0.138080 0.363472
Si Si3 0.333334 0.666667 0.636964
Si Si4 0.912695 0.344508 0.361234
Si Si5 0.617236 0.780001 0.950116
Si Si6 0.621787 0.149744 0.361918
Si Si7 0.050704 0.168580 0.354969
O O1 0.126733 0.396903 0.250000
O O2 0.162971 0.395929 0.435450
O O3 0.049318 0.255905 0.351267
O O4 0.010437 0.371550 0.383164
O O5 0.216830 0.145688 0.250000
O O6 0.284126 0.184966 0.422108
O O7 0.138875 0.179768 0.399831
O O8 0.140141 0.039925 0.401158
O O9 0.333334 0.666668 0.750000
O O10 0.341723 0.754090 0.598689
O O11 0.889514 0.323051 0.250000
O O12 0.844265 0.259796 0.417725
O O13 0.905343 0.427264 0.392884
O O14 0.565136 0.683944 0.906302
O O15 0.629750 0.146533 0.250000
O O16 0.050948 0.133383 0.250000
#
# Coordination Sequence:
#
# PCOD8325488 Si02
#       7
#    12  12   4  12  12  12  12
#     4  10  23  40  54  73 112 166 202 231 285 357
#     4  10  19  32  54  86 120 154 200 253 298 348
#     4   9  15  27  51  87 124 143 160 213 300 366
#     4  10  20  38  61  86 120 152 183 238 316 373
#     4  12  22  33  61  88 116 151 197 247 292 361
#     4  10  19  33  59  95 122 139 174 237 305 363
#     4   9  18  33  52  77 116 159 198 242 297 347
#
# _framework density 19.363603999999999
#
# number of rings (size 3 to 8) (size 9 to 14) (size 15 to 20)
#    0.000    1.895    3.158    1.737    2.211    1.895 
#    0.000    0.000    0.000    2.842    0.000    0.000 
#    0.000    0.000    0.000    0.000    0.000    0.000 
#
# Total GULP energy -941775.539204 kJ/mol
# GULP energy per Si atom -12391.783411 kJ/mol
# Density = 1.931953 g / cm^3
# Si number density = 19.363604 Si / 1000 Ang^3
#
#
#
# Elastic Constant Matrix: (Units=GPa)
#
#
# Indices 1 2 3 4 5 6 
#
# 1 78.3991 26.8978 19.5262 0.0000 0.0000 0.0001
# 2 26.8978 78.4003 19.5263 0.0000 0.0000 0.0001
# 3 19.5262 19.5263 92.9789 0.0000 0.0000 0.0002
# 4 0.0000 0.0000 0.0000 8.0217 0.0000 0.0000
# 5 0.0000 0.0000 0.0000 0.0000 8.0216 0.0000
# 6 0.0001 0.0001 0.0002 0.0000 0.0000 25.7508
#
#
#
# Elastic Compliance Matrix: (Units=1/GPa)
#
#
# Indices 1 2 3 4 5 6 
#
# 1 0.014858 -0.004559 -0.002163 0.000000 0.000000 0.000000
# 2 -0.004559 0.014858 -0.002163 0.000000 0.000000 0.000000
# 3 -0.002163 -0.002163 0.011664 0.000000 0.000000 0.000000
# 4 0.000000 0.000000 0.000000 0.124662 0.000000 0.000000
# 5 0.000000 0.000000 0.000000 0.000000 0.124663 0.000000
# 6 0.000000 0.000000 0.000000 0.000000 0.000000 0.038834
#
#
# Mechanical properties :
#
#
# Convention : Reuss Voigt Hill
#
# Bulk Modulus (GPa) = 42.35459 42.40875 42.38167
# Shear Modulus (GPa) = 14.07747 20.61403 17.34575
#
# Velocity S-wave (km/s) = 2.69923 3.26632 2.99622
# Velocity P-wave (km/s) = 5.62452 6.01448 5.82277
#
# Compressibility (1/GPa) = 0.02361019
#
# Stress axis : x y z
#
# Youngs Moduli (GPa) = 67.30373 67.30473 85.73702
#
# Poissons Ratio (x) = 0.30683 0.18544
# Poissons Ratio (y) = 0.30683 0.18544
# Poissons Ratio (z) = 0.14557 0.14557
#
# Static dielectric constant tensor:
#      x y z
#    x 3.547450 0.000000 0.000000 
#    y 0.000000 3.547450 0.000000 
#    z 0.000000 0.000000 3.556620 
# 
# 
# High freq. dielectric constant tensor:
#      x y z
#    x 1.746760 0.000000 0.000000 
#    y 0.000000 1.746760 0.000000 
#    z 0.000000 0.000000 1.737670 
# 
# From -- ./inp_files/2862.got.cif
#   From: 2010.06.25/outbox.cif.g09.slc.cpg/sg176_2_cif.got.tgz:2862.got - 2010.06.28 12:15:01.
