data_PCOD8325754
_publ_section_title
;
Structure prediction by ZEFSAII (Michael W. Deem and Ramdas Pophale) SiO2 
 PCOD8325754
Probable space group: P 61 2 2
;
_chemical_formula_sum "Si O2"
_cell_formula_units_Z 66
_cell_length_a 18.641309
_cell_length_b 18.641309
_cell_length_c 11.667875
_cell_angle_alpha 90.000000
_cell_angle_beta 90.000000
_cell_angle_gamma 120.000000
_cell_volume 3511.358810
_symmetry_space_group_name_H-M "P 61 2 2"
_symmetry_group_IT_number 178
_symmetry_cell_setting 'hexagonal'
loop_
_space_group_symop_operation_xyz
x,y,z
x-y,x,1/6+z
-y,x-y,1/3+z
-x,-y,1/2+z
-x+y,-x,2/3+z
y,-x+y,5/6+z
x-y,-y,-z
-x,-x+y,2/3-z
y,x,1/3-z
-y,-x,5/6-z
-x+y,y,1/2-z
x,x-y,1/6-z
loop_
_atom_site_type_symbol
_atom_site_label
_atom_site_fract_x
_atom_site_fract_y
_atom_site_fract_z
Si Si1 0.254607 0.000529 0.365482
Si Si2 0.904616 0.499595 0.341172
Si Si3 0.070680 0.141359 0.750000
Si Si4 0.258642 0.846171 0.679448
Si Si5 0.727900 0.580897 0.336947
Si Si6 0.797021 0.343845 0.479447
O O1 0.156331 0.961480 0.345878
O O2 0.283902 0.942740 0.303338
O O3 0.270893 0.000000 0.500000
O O4 0.311827 0.094188 0.314769
O O5 0.897275 0.557822 0.435107
O O6 0.864835 0.507656 0.219830
O O7 0.858722 0.405181 0.383300
O O8 0.000000 0.526054 0.333334
O O9 0.080334 0.080334 0.666667
O O10 0.198145 0.755218 0.623064
O O11 0.285168 0.831288 0.804769
O O12 0.804721 0.609441 0.250000
O O13 0.710004 0.289997 0.416667
O O14 0.783280 0.391640 0.583334
#
# Coordination Sequence:
#
# PCOD8325754 Si02
#       6
#    12  12   6  12  12  12
#     4  11  15  29  55  89 114 136 179 238 289 324
#     4  10  18  35  59  83 111 142 186 238 283 334
#     4  10  20  30  52  84 112 150 184 224 278 328
#     4  10  19  33  54  85 119 142 179 236 290 335
#     4  10  15  27  54  88 110 138 174 228 285 339
#     4  10  24  42  57  76 114 154 189 238 286 344
#
# _framework density 18.796140999999999
#
# number of rings (size 3 to 8) (size 9 to 14) (size 15 to 20)
#    0.000    1.818    6.364    1.091    0.000    3.636 
#    3.273    0.000    2.000    0.000    0.000    0.000 
#    0.000    0.000    0.000    0.000    0.000    0.000 
#
# Total GULP energy -817938.902209 kJ/mol
# GULP energy per Si atom -12393.013670 kJ/mol
# Density = 1.875336 g / cm^3
# Si number density = 18.796141 Si / 1000 Ang^3
#
#
#
# Elastic Constant Matrix: (Units=GPa)
#
#
# Indices 1 2 3 4 5 6 
#
# 1 106.8371 57.7620 53.1802 0.0000 0.0000 0.0000
# 2 57.7620 106.8371 53.1802 0.0000 0.0000 0.0000
# 3 53.1802 53.1802 60.6294 0.0000 0.0000 0.0000
# 4 0.0000 0.0000 0.0000 21.1470 0.0000 0.0000
# 5 0.0000 0.0000 0.0000 0.0000 21.1470 0.0000
# 6 0.0000 0.0000 0.0000 0.0000 0.0000 24.5376
#
#
#
# Elastic Compliance Matrix: (Units=1/GPa)
#
#
# Indices 1 2 3 4 5 6 
#
# 1 0.017200 -0.003176 -0.012301 0.000000 0.000000 0.000000
# 2 -0.003176 0.017200 -0.012301 0.000000 0.000000 0.000000
# 3 -0.012301 -0.012301 0.038073 0.000000 0.000000 0.000000
# 4 0.000000 0.000000 0.000000 0.047288 0.000000 0.000000
# 5 0.000000 0.000000 0.000000 0.000000 0.047288 0.000000
# 6 0.000000 0.000000 0.000000 0.000000 0.000000 0.040754
#
#
# Mechanical properties :
#
#
# Convention : Reuss Voigt Hill
#
# Bulk Modulus (GPa) = 59.11200 66.94985 63.03093
# Shear Modulus (GPa) = 18.58742 20.71173 19.64958
#
# Velocity S-wave (km/s) = 3.14808 3.32311 3.23678
# Velocity P-wave (km/s) = 6.68814 7.10073 6.89752
#
# Compressibility (1/GPa) = 0.01691704
#
# Stress axis : x y z
#
# Youngs Moduli (GPa) = 58.13807 58.13807 26.26548
#
# Poissons Ratio (x) = 0.18467 0.32309
# Poissons Ratio (y) = 0.18467 0.32309
# Poissons Ratio (z) = 0.71515 0.71515
#
# Static dielectric constant tensor:
#      x y z
#    x 3.558330 0.000000 0.000000 
#    y 0.000000 3.558330 0.000000 
#    z 0.000000 0.000000 3.243480 
# 
# 
# High freq. dielectric constant tensor:
#      x y z
#    x 1.724450 0.000000 0.000000 
#    y 0.000000 1.724450 0.000000 
#    z 0.000000 0.000000 1.684890 
# 
# From -- ./inp_files/4668.got.cif
#   From: 2010.03.12/outbox.cif.g09.slc.cpg/sg178_3_cif.got.tgz:4668.got - 2010.04.02 07:02:38.
