data_PCOD8325457
_publ_section_title
;
Structure prediction by ZEFSAII (Michael W. Deem and Ramdas Pophale) SiO2 
 PCOD8325457
Probable space group: P 63/M
;
_chemical_formula_sum "Si O2"
_cell_formula_units_Z 84
_cell_length_a 19.255957
_cell_length_b 19.255957
_cell_length_c 14.072102
_cell_angle_alpha 90.000000
_cell_angle_beta 90.000000
_cell_angle_gamma 120.000000
_cell_volume 4518.765673
_symmetry_space_group_name_H-M "P 63/M"
_symmetry_group_IT_number 176
_symmetry_cell_setting 'hexagonal'
loop_
_space_group_symop_operation_xyz
x,y,z
x-y,x,1/2+z
-y,x-y,z
-x,-y,1/2+z
-x+y,-x,z
y,-x+y,1/2+z
-x,-y,-z
-x+y,-x,1/2-z
y,-x+y,-z
x,y,1/2-z
x-y,x,-z
-y,x-y,1/2-z
loop_
_atom_site_type_symbol
_atom_site_label
_atom_site_fract_x
_atom_site_fract_y
_atom_site_fract_z
Si Si1 0.269655 0.993155 0.358700
Si Si2 0.181181 0.132909 0.505622
Si Si3 0.830433 0.144745 0.356178
Si Si4 0.490848 0.279106 0.420091
Si Si5 0.442429 0.370552 0.536883
Si Si6 0.525339 0.009494 0.359048
Si Si7 0.377008 0.554827 0.646063
O O1 0.263712 0.966289 0.250000
O O2 0.179090 0.956817 0.397007
O O3 0.317768 0.960663 0.417121
O O4 0.317674 0.088611 0.371430
O O5 0.108100 0.147070 0.477657
O O6 0.249042 0.171885 0.424631
O O7 0.826007 0.112301 0.250000
O O8 0.757564 0.161443 0.371410
O O9 0.482663 0.314739 0.520844
O O10 0.559695 0.350960 0.358939
O O11 0.520762 0.214709 0.432324
O O12 0.431118 0.403185 0.433301
O O13 0.506601 0.441903 0.604236
O O14 0.545763 0.996452 0.250000
O O15 0.506626 0.082305 0.365003
O O16 0.335583 0.536884 0.750000
#
# Coordination Sequence:
#
# PCOD8325457 Si02
#       7
#    12  12  12  12  12  12  12
#     4  10  20  36  58  85 117 156 193 236 292 356
#     4  10  21  38  59  87 120 160 202 245 290 347
#     4  10  20  35  58  85 117 151 190 241 297 345
#     4  11  20  32  50  81 114 147 182 230 290 355
#     4  10  19  33  52  81 109 145 186 238 284 348
#     4   9  19  34  53  77 108 146 188 236 293 350
#     4  10  19  30  48  75 110 145 176 224 289 354
#
# _framework density 18.589147000000001
#
# number of rings (size 3 to 8) (size 9 to 14) (size 15 to 20)
#    0.000    2.000    1.429    3.000    0.000    4.000 
#    0.000    0.000    0.000    1.714    0.000   12.000 
#    0.000    0.000    0.000    0.000    0.000    0.000 
#
# Total GULP energy -1041077.656105 kJ/mol
# GULP energy per Si atom -12393.781620 kJ/mol
# Density = 1.854684 g / cm^3
# Si number density = 18.589147 Si / 1000 Ang^3
#
#
#
# Elastic Constant Matrix: (Units=GPa)
#
#
# Indices 1 2 3 4 5 6 
#
# 1 101.3234 47.1781 50.1295 0.0000 0.0000 0.0000
# 2 47.1781 101.3234 50.1295 0.0000 0.0000 0.0000
# 3 50.1295 50.1295 117.0120 0.0000 0.0000 0.0000
# 4 0.0000 0.0000 0.0000 27.0350 0.0000 0.0000
# 5 0.0000 0.0000 0.0000 0.0000 27.0350 0.0000
# 6 0.0000 0.0000 0.0000 0.0000 0.0000 27.0726
#
#
#
# Elastic Compliance Matrix: (Units=1/GPa)
#
#
# Indices 1 2 3 4 5 6 
#
# 1 0.013972 -0.004497 -0.004059 0.000000 0.000000 0.000000
# 2 -0.004497 0.013972 -0.004059 0.000000 0.000000 0.000000
# 3 -0.004059 -0.004059 0.012024 0.000000 0.000000 0.000000
# 4 0.000000 0.000000 0.000000 0.036989 0.000000 0.000000
# 5 0.000000 0.000000 0.000000 0.000000 0.036989 0.000000
# 6 0.000000 0.000000 0.000000 0.000000 0.000000 0.036938
#
#
# Mechanical properties :
#
#
# Convention : Reuss Voigt Hill
#
# Bulk Modulus (GPa) = 67.85721 68.28143 68.06932
# Shear Modulus (GPa) = 27.62047 27.70998 27.66522
#
# Velocity S-wave (km/s) = 3.85884 3.86509 3.86196
# Velocity P-wave (km/s) = 7.51246 7.53194 7.52221
#
# Compressibility (1/GPa) = 0.01473683
#
# Stress axis : x y z
#
# Youngs Moduli (GPa) = 71.57405 71.57405 83.16770
#
# Poissons Ratio (x) = 0.32189 0.33757
# Poissons Ratio (y) = 0.32189 0.33757
# Poissons Ratio (z) = 0.29051 0.29051
#
# Static dielectric constant tensor:
#      x y z
#    x 3.445650 0.000000 0.000000 
#    y 0.000000 3.445650 0.000000 
#    z 0.000000 0.000000 3.444510 
# 
# 
# High freq. dielectric constant tensor:
#      x y z
#    x 1.720190 0.000000 0.000000 
#    y 0.000000 1.720190 0.000000 
#    z 0.000000 0.000000 1.706430 
# 
# From -- ./inp_files/2946.got.cif
#   From: 2010.06.25/outbox.cif.g09.slc.cpg/sg176_2_cif.got.tgz:2946.got - 2010.06.28 12:15:01.
