data_PCOD8325450
_publ_section_title
;
Structure prediction by ZEFSAII (Michael W. Deem and Ramdas Pophale) SiO2 
 PCOD8325450
Probable space group: P 63/M
;
_chemical_formula_sum "Si O2"
_cell_formula_units_Z 72
_cell_length_a 23.981374
_cell_length_b 23.981374
_cell_length_c 9.251294
_cell_angle_alpha 90.000000
_cell_angle_beta 90.000000
_cell_angle_gamma 120.000000
_cell_volume 4607.668634
_symmetry_space_group_name_H-M "P 63/M"
_symmetry_group_IT_number 176
_symmetry_cell_setting 'hexagonal'
loop_
_space_group_symop_operation_xyz
x,y,z
x-y,x,1/2+z
-y,x-y,z
-x,-y,1/2+z
-x+y,-x,z
y,-x+y,1/2+z
-x,-y,-z
-x+y,-x,1/2-z
y,-x+y,-z
x,y,1/2-z
x-y,x,-z
-y,x-y,1/2-z
loop_
_atom_site_type_symbol
_atom_site_label
_atom_site_fract_x
_atom_site_fract_y
_atom_site_fract_z
Si Si1 0.637650 0.154626 0.084709
Si Si2 0.819997 0.634041 0.590832
Si Si3 0.739014 0.481311 0.588051
Si Si4 0.636604 0.492777 0.082470
Si Si5 0.068976 0.692554 0.421542
Si Si6 0.076326 0.370270 0.581400
O O1 0.658639 0.175765 0.250000
O O2 0.560858 0.122262 0.066509
O O3 0.658067 0.102514 0.037055
O O4 0.672970 0.218724 0.986849
O O5 0.845202 0.662701 0.750000
O O6 0.781763 0.557568 0.594931
O O7 0.768077 0.654039 0.535560
O O8 0.882070 0.658901 0.489003
O O9 0.718875 0.452495 0.750000
O O10 0.676599 0.462811 0.491610
O O11 0.657124 0.508174 0.250000
O O12 0.647577 0.556845 0.003436
O O13 0.073836 0.683081 0.250000
O O14 0.997036 0.671162 0.471998
O O15 0.080987 0.362560 0.750000
#
# Coordination Sequence:
#
# PCOD8325450 Si02
#       6
#    12  12  12  12  12  12
#     4   9  18  31  45  62  84 110 141 182 229 272
#     4   8  15  28  44  62  84 108 135 170 208 246
#     4   9  17  30  46  60  76 104 141 177 219 269
#     4  10  19  30  44  62  85 111 141 182 228 271
#     4   9  18  31  46  65  89 116 145 177 214 258
#     4   9  17  30  47  65  86 114 146 176 212 259
#
# _framework density 15.626123
#
# number of rings (size 3 to 8) (size 9 to 14) (size 15 to 20)
#    0.000    3.000    0.000    2.000    0.000    6.667 
#    1.000    0.000    0.000    0.000    0.000    0.000 
#    0.000    0.000    0.000    0.500    0.000    6.000 
#
# Total GULP energy -892457.240881 kJ/mol
# GULP energy per Si atom -12395.239457 kJ/mol
# Density = 1.559056 g / cm^3
# Si number density = 15.626123 Si / 1000 Ang^3
#
#
#
# Elastic Constant Matrix: (Units=GPa)
#
#
# Indices 1 2 3 4 5 6 
#
# 1 84.5080 53.2115 39.1715 0.0000 0.0000 0.0000
# 2 53.2115 84.5080 39.1715 0.0000 0.0000 0.0000
# 3 39.1715 39.1715 69.8041 0.0000 0.0000 0.0000
# 4 0.0000 0.0000 0.0000 21.2680 0.0000 0.0000
# 5 0.0000 0.0000 0.0000 0.0000 21.2680 0.0000
# 6 0.0000 0.0000 0.0000 0.0000 0.0000 15.6482
#
#
#
# Elastic Compliance Matrix: (Units=1/GPa)
#
#
# Indices 1 2 3 4 5 6 
#
# 1 0.021309 -0.010643 -0.005985 0.000000 0.000000 0.000000
# 2 -0.010643 0.021309 -0.005985 0.000000 0.000000 0.000000
# 3 -0.005985 -0.005985 0.021043 0.000000 0.000000 0.000000
# 4 0.000000 0.000000 0.000000 0.047019 0.000000 0.000000
# 5 0.000000 0.000000 0.000000 0.000000 0.047019 0.000000
# 6 0.000000 0.000000 0.000000 0.000000 0.000000 0.063905
#
#
# Mechanical properties :
#
#
# Convention : Reuss Voigt Hill
#
# Bulk Modulus (GPa) = 54.24802 55.76991 55.00896
# Shear Modulus (GPa) = 18.31656 18.78790 18.55223
#
# Velocity S-wave (km/s) = 3.42742 3.47124 3.44940
# Velocity P-wave (km/s) = 7.10314 7.19956 7.15151
#
# Compressibility (1/GPa) = 0.01843385
#
# Stress axis : x y z
#
# Youngs Moduli (GPa) = 46.92808 46.92808 47.52108
#
# Poissons Ratio (x) = 0.49947 0.28443
# Poissons Ratio (y) = 0.49947 0.28443
# Poissons Ratio (z) = 0.28088 0.28088
#
# Static dielectric constant tensor:
#      x y z
#    x 2.914410 0.000000 0.000000 
#    y 0.000000 2.914410 0.000000 
#    z 0.000000 0.000000 3.145880 
# 
# 
# High freq. dielectric constant tensor:
#      x y z
#    x 1.571740 0.000000 0.000000 
#    y 0.000000 1.571740 0.000000 
#    z 0.000000 0.000000 1.607350 
# 
# From -- ./inp_files/1146.got.cif
#   From: 2010.06.25/outbox.cif.g09.slc.cpg/sg176_1_cif.got.tgz:1146.got - 2010.06.28 12:15:01.
