data_PCOD8325731
_publ_section_title
;
Structure prediction by ZEFSAII (Michael W. Deem and Ramdas Pophale) SiO2 
 PCOD8325731
Probable space group: P 6 2 2
;
_chemical_formula_sum "Si O2"
_cell_formula_units_Z 48
_cell_length_a 35.775427
_cell_length_b 35.775427
_cell_length_c 5.225769
_cell_angle_alpha 90.000000
_cell_angle_beta 90.000000
_cell_angle_gamma 120.000000
_cell_volume 5792.292596
_symmetry_space_group_name_H-M "P 6 2 2"
_symmetry_group_IT_number 177
_symmetry_cell_setting 'hexagonal'
loop_
_space_group_symop_operation_xyz
x,y,z
x-y,x,z
-y,x-y,z
-x,-y,z
-x+y,-x,z
y,-x+y,z
x-y,-y,-z
-x,-x+y,-z
y,x,-z
-y,-x,-z
-x+y,y,-z
x,x-y,-z
loop_
_atom_site_type_symbol
_atom_site_label
_atom_site_fract_x
_atom_site_fract_y
_atom_site_fract_z
Si Si1 0.667050 0.245233 0.000000
Si Si2 0.097832 0.504325 0.500000
Si Si3 0.195093 0.641961 0.500000
Si Si4 0.951238 0.431063 1.000000
O O1 0.668810 0.219688 0.248659
O O2 0.707189 0.292812 0.000000
O O3 0.624756 0.249512 0.000000
O O4 0.668810 0.219688 0.751341
O O5 0.098178 0.549089 0.500000
O O6 0.146501 0.512856 0.500000
O O7 0.073260 0.476764 0.749948
O O8 0.073260 0.476764 0.250053
O O9 0.193527 0.596764 0.500000
O O10 0.951422 0.475711 0.000000
O O11 0.000000 0.439997 0.000000
#
# Coordination Sequence:
#
# PCOD8325731 Si02
#       4
#    12  12  12  12
#     4  10  18  27  36  45  54  63  77  97 120 141
#     4   9  15  23  32  41  54  68  80  92 104 122
#     4   9  17  26  35  44  53  66  80  92 110 135
#     4   9  15  21  30  43  56  68  80  92 104 116
#
# _framework density 8.2868739999999992
#
# number of rings (size 3 to 8) (size 9 to 14) (size 15 to 20)
#    0.000    2.750    0.000    3.250    0.000    9.000 
#    0.000    2.500    0.000    0.000    0.000    0.000 
#    0.000    0.000    0.000    0.000    0.000    0.000 
#
# Total GULP energy -595113.678534 kJ/mol
# GULP energy per Si atom -12398.201636 kJ/mol
# Density = 0.826801 g / cm^3
# Si number density = 8.286874 Si / 1000 Ang^3
#
#
#
# Elastic Constant Matrix: (Units=GPa)
#
#
# Indices 1 2 3 4 5 6 
#
# 1 25.4610 21.6565 25.1219 0.0000 0.0000 0.0000
# 2 21.6565 25.4610 25.1219 0.0000 0.0000 0.0000
# 3 25.1219 25.1219 93.9355 0.0000 0.0000 0.0000
# 4 0.0000 0.0000 0.0000 11.0970 0.0000 0.0000
# 5 0.0000 0.0000 0.0000 0.0000 11.0970 0.0000
# 6 0.0000 0.0000 0.0000 0.0000 0.0000 1.9022
#
#
#
# Elastic Compliance Matrix: (Units=1/GPa)
#
#
# Indices 1 2 3 4 5 6 
#
# 1 0.146271 -0.116580 -0.007940 0.000000 0.000000 0.000000
# 2 -0.116580 0.146271 -0.007940 0.000000 0.000000 0.000000
# 3 -0.007940 -0.007940 0.014893 0.000000 0.000000 0.000000
# 4 0.000000 0.000000 0.000000 0.090114 0.000000 0.000000
# 5 0.000000 0.000000 0.000000 0.000000 0.090114 0.000000
# 6 0.000000 0.000000 0.000000 0.000000 0.000000 0.525702
#
#
# Mechanical properties :
#
#
# Convention : Reuss Voigt Hill
#
# Bulk Modulus (GPa) = 23.52244 32.07312 27.79778
# Shear Modulus (GPa) = 3.86860 9.68306 6.77583
#
# Velocity S-wave (km/s) = 2.16298 3.42201 2.86257
# Velocity P-wave (km/s) = 5.88938 7.37571 6.67405
#
# Compressibility (1/GPa) = 0.04251260
#
# Stress axis : x y z
#
# Youngs Moduli (GPa) = 6.83664 6.83664 67.14678
#
# Poissons Ratio (x) = 0.79701 0.53317
# Poissons Ratio (y) = 0.79701 0.53317
# Poissons Ratio (z) = 0.05429 0.05429
#
# Static dielectric constant tensor:
#      x y z
#    x 1.824170 0.000000 0.000000 
#    y 0.000000 1.824170 0.000000 
#    z 0.000000 0.000000 2.243160 
# 
# 
# High freq. dielectric constant tensor:
#      x y z
#    x 1.273990 0.000000 0.000000 
#    y 0.000000 1.273990 0.000000 
#    z 0.000000 0.000000 1.332380 
# 
# From -- ./inp_files/546.got.cif
#   From: 2010.03.12/outbox.cif.g09.slc.cpg/sg177_1_cif.got.tgz:546.got - 2010.04.02 07:00:27.
