data_PCOD8325412
_publ_section_title
;
Structure prediction by ZEFSAII (Michael W. Deem and Ramdas Pophale) SiO2 
 PCOD8325412
Probable space group: P 63/M
;
_chemical_formula_sum "Si O2"
_cell_formula_units_Z 72
_cell_length_a 23.378810
_cell_length_b 23.378810
_cell_length_c 8.931751
_cell_angle_alpha 90.000000
_cell_angle_beta 90.000000
_cell_angle_gamma 120.000000
_cell_volume 4227.776709
_symmetry_space_group_name_H-M "P 63/M"
_symmetry_group_IT_number 176
_symmetry_cell_setting 'hexagonal'
loop_
_space_group_symop_operation_xyz
x,y,z
x-y,x,1/2+z
-y,x-y,z
-x,-y,1/2+z
-x+y,-x,z
y,-x+y,1/2+z
-x,-y,-z
-x+y,-x,1/2-z
y,-x+y,-z
x,y,1/2-z
x-y,x,-z
-y,x-y,1/2-z
loop_
_atom_site_type_symbol
_atom_site_label
_atom_site_fract_x
_atom_site_fract_y
_atom_site_fract_z
Si Si1 0.194210 0.257495 0.579397
Si Si2 0.931897 0.731247 0.074708
Si Si3 0.333885 0.799318 0.571737
Si Si4 0.852428 0.253939 0.420581
Si Si5 0.335471 0.543666 0.922256
Si Si6 0.734770 0.136663 0.574829
O O1 0.189558 0.233999 0.750000
O O2 0.125734 0.253036 0.529396
O O3 0.207441 0.209379 0.475802
O O4 0.255029 0.333531 0.559868
O O5 0.931382 0.720184 0.250000
O O6 0.922918 0.665428 0.993922
O O7 0.334197 0.806957 0.750000
O O8 0.274343 0.728216 0.516378
O O9 0.401579 0.805863 0.504471
O O10 0.325599 0.858096 0.499106
O O11 0.825694 0.228870 0.250000
O O12 0.854871 0.324016 0.446078
O O13 0.802098 0.203687 0.540612
O O14 0.342512 0.563432 0.750000
O O15 0.722290 0.124868 0.750000
#
# Coordination Sequence:
#
# PCOD8325412 Si02
#       6
#    12  12  12  12  12  12
#     4   9  18  32  51  76 102 123 147 184 225 264
#     4  10  20  34  53  76 100 125 153 185 221 265
#     4   9  15  25  41  62  88 120 161 203 245 294
#     4   8  15  29  46  66  92 121 156 196 236 278
#     4   8  13  22  40  62  85 118 158 199 241 288
#     4  10  18  28  43  64  91 123 157 195 238 277
#
# _framework density 17.030228000000001
#
# number of rings (size 3 to 8) (size 9 to 14) (size 15 to 20)
#    0.000    3.000    0.000    4.333    0.000    4.667 
#    0.000    3.333    0.000    1.333    0.000    0.000 
#    0.000    0.000    0.000    0.000    0.000    0.000 
#
# Total GULP energy -891992.620353 kJ/mol
# GULP energy per Si atom -12388.786394 kJ/mol
# Density = 1.699147 g / cm^3
# Si number density = 17.030228 Si / 1000 Ang^3
#
#
#
# Elastic Constant Matrix: (Units=GPa)
#
#
# Indices 1 2 3 4 5 6 
#
# 1 92.7558 50.5609 33.6948 0.0000 0.0000 0.0000
# 2 50.5609 92.7558 33.6948 0.0000 0.0000 0.0000
# 3 33.6948 33.6948 62.6540 0.0000 0.0000 0.0000
# 4 0.0000 0.0000 0.0000 18.3972 0.0000 0.0000
# 5 0.0000 0.0000 0.0000 0.0000 18.3972 0.0000
# 6 0.0000 0.0000 0.0000 0.0000 0.0000 21.0975
#
#
#
# Elastic Compliance Matrix: (Units=1/GPa)
#
#
# Indices 1 2 3 4 5 6 
#
# 1 0.016519 -0.007180 -0.005023 0.000000 0.000000 0.000000
# 2 -0.007180 0.016519 -0.005023 0.000000 0.000000 0.000000
# 3 -0.005023 -0.005023 0.021363 0.000000 0.000000 0.000000
# 4 0.000000 0.000000 0.000000 0.054356 0.000000 0.000000
# 5 0.000000 0.000000 0.000000 0.000000 0.054356 0.000000
# 6 0.000000 0.000000 0.000000 0.000000 0.000000 0.047399
#
#
# Mechanical properties :
#
#
# Convention : Reuss Voigt Hill
#
# Bulk Modulus (GPa) = 50.12261 53.78518 51.95390
# Shear Modulus (GPa) = 19.87173 20.25939 20.06556
#
# Velocity S-wave (km/s) = 3.41963 3.45282 3.43626
# Velocity P-wave (km/s) = 6.71470 6.89541 6.80566
#
# Compressibility (1/GPa) = 0.01995107
#
# Stress axis : x y z
#
# Youngs Moduli (GPa) = 60.53492 60.53492 46.81015
#
# Poissons Ratio (x) = 0.43465 0.23511
# Poissons Ratio (y) = 0.43465 0.23511
# Poissons Ratio (z) = 0.30404 0.30404
#
# Static dielectric constant tensor:
#      x y z
#    x 3.170630 0.000000 0.000000 
#    y 0.000000 3.170630 0.000000 
#    z 0.000000 0.000000 2.919950 
# 
# 
# High freq. dielectric constant tensor:
#      x y z
#    x 1.636510 0.000000 0.000000 
#    y 0.000000 1.636510 0.000000 
#    z 0.000000 0.000000 1.637540 
# 
# From -- ./inp_files/1228.got.cif
#   From: 2010.06.25/outbox.cif.g09.slc.cpg/sg176_1_cif.got.tgz:1228.got - 2010.06.28 12:15:01.
