data_PCOD8325261
_publ_section_title
;
Structure prediction by ZEFSAII (Michael W. Deem and Ramdas Pophale) SiO2 
 PCOD8325261
Probable space group: P 6/M
;
_chemical_formula_sum "Si O2"
_cell_formula_units_Z 78
_cell_length_a 23.546069
_cell_length_b 23.546069
_cell_length_c 7.876573
_cell_angle_alpha 90.000000
_cell_angle_beta 90.000000
_cell_angle_gamma 120.000000
_cell_volume 3781.854001
_symmetry_space_group_name_H-M "P 6/M"
_symmetry_group_IT_number 175
_symmetry_cell_setting 'hexagonal'
loop_
_space_group_symop_operation_xyz
x,y,z
x-y,x,z
-y,x-y,z
-x,-y,z
-x+y,-x,z
y,-x+y,z
-x,-y,-z
-x+y,-x,-z
y,-x+y,-z
x,y,-z
x-y,x,-z
-y,x-y,-z
loop_
_atom_site_type_symbol
_atom_site_label
_atom_site_fract_x
_atom_site_fract_y
_atom_site_fract_z
Si Si1 0.867621 0.988326 0.696925
Si Si2 0.443786 0.011890 0.307620
Si Si3 0.512601 0.744130 0.801745
Si Si4 0.274636 0.585260 0.500000
Si Si5 0.736246 0.983546 0.199925
Si Si6 0.406814 0.112412 0.192574
Si Si7 0.307840 0.917874 0.806579
O O1 0.881740 0.989471 0.500000
O O2 0.796847 0.981597 0.717790
O O3 0.925454 0.056415 0.778900
O O4 0.462620 0.036604 0.500000
O O5 0.373769 0.945416 0.303684
O O6 0.500000 0.000000 0.227276
O O7 0.440151 0.067697 0.201338
O O8 0.454442 0.697731 0.674374
O O9 0.542584 0.817587 0.726795
O O10 0.573439 0.732452 0.783310
O O11 0.487912 0.734244 0.000000
O O12 0.353608 0.614472 0.500000
O O13 0.737561 0.051272 0.248662
O O14 0.666648 0.924410 0.272860
O O15 0.740959 0.976890 0.000000
O O16 0.398592 0.127680 0.000000
O O17 0.330469 0.939457 0.000000
#
# Coordination Sequence:
#
# PCOD8325261 Si02
#       7
#    12  12  12   6  12  12  12
#     4  10  22  39  56  79 113 159 209 251 301 364
#     4  10  21  35  54  86 119 152 189 242 304 366
#     4  10  22  42  68  94 124 171 214 257 319 376
#     4  10  26  46  62  92 132 167 210 269 310 366
#     4   9  19  36  59  87 122 153 190 253 317 369
#     4   9  20  38  59  86 119 155 198 245 304 376
#     4   9  20  38  59  86 119 155 198 245 304 376
#
# _framework density 20.624804000000001
#
# number of rings (size 3 to 8) (size 9 to 14) (size 15 to 20)
#    0.154    2.308    0.000    1.538    4.308    6.769 
#    0.000    3.077    0.000    0.923    0.000    0.000 
#    0.000    0.000    0.000    0.000    0.000    0.000 
#
# Total GULP energy -966680.581742 kJ/mol
# GULP energy per Si atom -12393.340792 kJ/mol
# Density = 2.057786 g / cm^3
# Si number density = 20.624804 Si / 1000 Ang^3
#
#
#
# Elastic Constant Matrix: (Units=GPa)
#
#
# Indices 1 2 3 4 5 6 
#
# 1 88.1315 22.5061 13.3318 0.0000 0.0000 0.0000
# 2 22.5061 88.1315 13.3318 0.0000 0.0000 0.0000
# 3 13.3318 13.3318 54.3455 0.0000 0.0000 0.0000
# 4 0.0000 0.0000 0.0000 18.6535 0.0000 0.0000
# 5 0.0000 0.0000 0.0000 0.0000 18.6535 0.0000
# 6 0.0000 0.0000 0.0000 0.0000 0.0000 32.8127
#
#
#
# Elastic Compliance Matrix: (Units=1/GPa)
#
#
# Indices 1 2 3 4 5 6 
#
# 1 0.012422 -0.002816 -0.002357 0.000000 0.000000 0.000000
# 2 -0.002816 0.012422 -0.002357 0.000000 0.000000 0.000000
# 3 -0.002357 -0.002357 0.019557 0.000000 0.000000 0.000000
# 4 0.000000 0.000000 0.000000 0.053609 0.000000 0.000000
# 5 0.000000 0.000000 0.000000 0.000000 0.053609 0.000000
# 6 0.000000 0.000000 0.000000 0.000000 0.000000 0.030476
#
#
# Mechanical properties :
#
#
# Convention : Reuss Voigt Hill
#
# Bulk Modulus (GPa) = 34.07913 36.54977 35.31445
# Shear Modulus (GPa) = 24.16214 26.11985 25.14099
#
# Velocity S-wave (km/s) = 3.42644 3.56255 3.49516
# Velocity P-wave (km/s) = 5.67567 5.88915 5.78340
#
# Compressibility (1/GPa) = 0.02934348
#
# Stress axis : x y z
#
# Youngs Moduli (GPa) = 80.50086 80.50086 51.13254
#
# Poissons Ratio (x) = 0.22667 0.12050
# Poissons Ratio (y) = 0.22667 0.12050
# Poissons Ratio (z) = 0.18971 0.18971
#
# Static dielectric constant tensor:
#      x y z
#    x 3.796590 0.000000 0.000000 
#    y 0.000000 3.796590 0.000000 
#    z 0.000000 0.000000 3.552260 
# 
# 
# High freq. dielectric constant tensor:
#      x y z
#    x 1.807100 0.000000 0.000000 
#    y 0.000000 1.807100 0.000000 
#    z 0.000000 0.000000 1.789800 
# 
# From -- ./inp_files/1343.got.cif
#   From: 2010.03.12/outbox.cif.g09.slc.cpg/sg175_1_cif.got.tgz:1343.got - 2010.04.02 06:55:29.
