data_PCOD8325407
_publ_section_title
;
Structure prediction by ZEFSAII (Michael W. Deem and Ramdas Pophale) SiO2 
 PCOD8325407
Probable space group: P 63/M
;
_chemical_formula_sum "Si O2"
_cell_formula_units_Z 36
_cell_length_a 21.114351
_cell_length_b 21.114351
_cell_length_c 5.334477
_cell_angle_alpha 90.000000
_cell_angle_beta 90.000000
_cell_angle_gamma 120.000000
_cell_volume 2059.576617
_symmetry_space_group_name_H-M "P 63/M"
_symmetry_group_IT_number 176
_symmetry_cell_setting 'hexagonal'
loop_
_space_group_symop_operation_xyz
x,y,z
x-y,x,1/2+z
-y,x-y,z
-x,-y,1/2+z
-x+y,-x,z
y,-x+y,1/2+z
-x,-y,-z
-x+y,-x,1/2-z
y,-x+y,-z
x,y,1/2-z
x-y,x,-z
-y,x-y,1/2-z
loop_
_atom_site_type_symbol
_atom_site_label
_atom_site_fract_x
_atom_site_fract_y
_atom_site_fract_z
Si Si1 0.475894 0.597901 0.250000
Si Si2 0.360361 0.264810 0.750000
Si Si3 0.414355 0.434872 0.250000
Si Si4 0.619371 0.942698 0.750000
Si Si5 0.823953 0.615331 0.250000
Si Si6 0.486929 0.641006 0.750000
O O1 0.559321 0.663269 0.250000
O O2 0.475197 0.521363 0.250000
O O3 0.437560 0.607822 0.499956
O O4 0.304813 0.296254 0.750000
O O5 0.346472 0.216346 0.501451
O O6 0.366106 0.420762 0.497636
O O7 0.452499 0.385694 0.250000
O O8 0.620935 0.868541 0.750000
O O9 0.800739 0.529459 0.250000
#
# Coordination Sequence:
#
# PCOD8325407 Si02
#       6
#     6   6   6   6   6   6
#     4  10  18  28  49  68 101 124 150 201 239 277
#     4  10  19  35  47  70 100 127 157 190 244 288
#     4  12  19  30  47  76  99 120 163 197 232 279
#     4  12  21  31  49  71 100 128 161 196 233 292
#     4  10  20  33  47  65 100 130 153 193 243 289
#     4  10  17  31  45  66  98 129 148 187 245 281
#
# _framework density 17.479320999999999
#
# number of rings (size 3 to 8) (size 9 to 14) (size 15 to 20)
#    0.000    1.333    6.667    3.000    0.000    0.000 
#    0.000    0.000    0.000    0.000    0.000    0.000 
#  266.667    0.000    0.000   10.000    0.000    0.000 
#
# Total GULP energy -446029.999870 kJ/mol
# GULP energy per Si atom -12389.722219 kJ/mol
# Density = 1.743954 g / cm^3
# Si number density = 17.479321 Si / 1000 Ang^3
#
#
#
# Elastic Constant Matrix: (Units=GPa)
#
#
# Indices 1 2 3 4 5 6 
#
# 1 62.2547 20.8458 30.4457 0.0000 0.0000 0.0000
# 2 20.8458 62.2547 30.4457 0.0000 0.0000 0.0000
# 3 30.4457 30.4457 202.7018 0.0000 0.0000 0.0000
# 4 0.0000 0.0000 0.0000 12.6092 0.0000 0.0000
# 5 0.0000 0.0000 0.0000 0.0000 12.6092 0.0000
# 6 0.0000 0.0000 0.0000 0.0000 0.0000 20.7044
#
#
#
# Elastic Compliance Matrix: (Units=1/GPa)
#
#
# Indices 1 2 3 4 5 6 
#
# 1 0.018836 -0.005314 -0.002031 0.000000 0.000000 0.000000
# 2 -0.005314 0.018836 -0.002031 0.000000 0.000000 0.000000
# 3 -0.002031 -0.002031 0.005543 0.000000 0.000000 0.000000
# 4 0.000000 0.000000 0.000000 0.079307 0.000000 0.000000
# 5 0.000000 0.000000 0.000000 0.000000 0.079307 0.000000
# 6 0.000000 0.000000 0.000000 0.000000 0.000000 0.048299
#
#
# Mechanical properties :
#
#
# Convention : Reuss Voigt Hill
#
# Bulk Modulus (GPa) = 40.87774 54.52063 47.69918
# Shear Modulus (GPa) = 18.04832 25.54948 21.79890
#
# Velocity S-wave (km/s) = 3.21682 3.82736 3.53530
# Velocity P-wave (km/s) = 6.10200 7.12677 6.63420
#
# Compressibility (1/GPa) = 0.02446319
#
# Stress axis : x y z
#
# Youngs Moduli (GPa) = 53.09094 53.09094 180.39281
#
# Poissons Ratio (x) = 0.28211 0.36637
# Poissons Ratio (y) = 0.28211 0.36637
# Poissons Ratio (z) = 0.10783 0.10783
#
# Static dielectric constant tensor:
#      x y z
#    x 2.882530 0.000000 0.000000 
#    y 0.000000 2.882530 0.000000 
#    z 0.000000 0.000000 5.194500 
# 
# 
# High freq. dielectric constant tensor:
#      x y z
#    x 1.624250 0.000000 0.000000 
#    y 0.000000 1.624250 0.000000 
#    z 0.000000 0.000000 1.731260 
# 
# From -- ./inp_files/127.got.cif
#   From: 2010.06.25/outbox.cif.g09.slc.cpg/sg176_1_cif.got.tgz:127.got - 2010.06.28 12:15:01.
