data_PCOD8325668
_publ_section_title
;
Structure prediction by ZEFSAII (Michael W. Deem and Ramdas Pophale) SiO2 
 PCOD8325668
Probable space group: P 63/M
;
_chemical_formula_sum "Si O2"
_cell_formula_units_Z 70
_cell_length_a 15.178182
_cell_length_b 15.178182
_cell_length_c 18.003364
_cell_angle_alpha 90.000000
_cell_angle_beta 90.000000
_cell_angle_gamma 120.000000
_cell_volume 3591.896435
_symmetry_space_group_name_H-M "P 63/M"
_symmetry_group_IT_number 176
_symmetry_cell_setting 'hexagonal'
loop_
_space_group_symop_operation_xyz
x,y,z
x-y,x,1/2+z
-y,x-y,z
-x,-y,1/2+z
-x+y,-x,z
y,-x+y,1/2+z
-x,-y,-z
-x+y,-x,1/2-z
y,-x+y,-z
x,y,1/2-z
x-y,x,-z
-y,x-y,1/2-z
loop_
_atom_site_type_symbol
_atom_site_label
_atom_site_fract_x
_atom_site_fract_y
_atom_site_fract_z
Si Si1 0.983500 0.408184 0.250000
Si Si2 0.319266 0.454448 0.110050
Si Si3 0.103447 0.881783 0.605301
Si Si4 0.294906 0.288085 0.004593
Si Si5 0.000000 0.000000 0.839748
Si Si6 0.004650 0.384133 0.750000
Si Si7 0.187547 0.341747 0.750000
Si Si8 0.532579 0.654729 0.109824
O O1 0.957640 0.497411 0.250000
O O2 0.047841 0.412592 0.178272
O O3 0.873523 0.305195 0.250000
O O4 0.291772 0.385848 0.036069
O O5 0.329257 0.391871 0.178214
O O6 0.421493 0.559802 0.095735
O O7 0.230511 0.478600 0.128389
O O8 0.021075 0.800177 0.548988
O O9 0.097239 0.822944 0.679504
O O10 0.079085 0.969893 0.626658
O O11 0.216251 0.930110 0.572517
O O12 0.401896 0.327067 0.964121
O O13 0.000000 0.000000 0.750000
O O14 0.108155 0.381043 0.750000
#
# Coordination Sequence:
#
# PCOD8325668 Si02
#       8
#     6  12  12  12   4   6   6  12
#     4  10  23  41  66  95 127 167 215 273 324 394
#     4  11  23  41  65  94 127 166 214 269 330 393
#     4  12  25  42  66  95 131 177 219 272 319 388
#     4  12  23  41  64  94 130 170 212 269 331 390
#     4  12  27  43  62 100 135 175 236 274 315 385
#     4  10  23  41  66  95 127 167 215 273 324 394
#     4  12  22  44  70  92 130 176 226 260 324 400
#     4  11  23  41  65  94 127 166 214 269 330 393
#
# _framework density 19.488310999999999
#
# number of rings (size 3 to 8) (size 9 to 14) (size 15 to 20)
#    0.000    0.686    6.000    2.400    0.000    0.686 
#    3.600    1.714    0.000    0.000    0.000    0.000 
#    0.000    0.000    0.000    0.000    0.000    0.000 
#
# Total GULP energy -868303.622681 kJ/mol
# GULP energy per Si atom -12404.337467 kJ/mol
# Density = 1.944396 g / cm^3
# Si number density = 19.488311 Si / 1000 Ang^3
#
#
#
# Elastic Constant Matrix: (Units=GPa)
#
#
# Indices 1 2 3 4 5 6 
#
# 1 102.4698 45.2883 37.9174 0.0000 0.0000 0.0000
# 2 45.2883 102.4698 37.9174 0.0000 0.0000 0.0000
# 3 37.9174 37.9174 102.4117 0.0000 0.0000 0.0000
# 4 0.0000 0.0000 0.0000 -0.2444 0.0000 0.0000
# 5 0.0000 0.0000 0.0000 0.0000 -0.2444 0.0000
# 6 0.0000 0.0000 0.0000 0.0000 0.0000 28.5907
#
#
#
# Elastic Compliance Matrix: (Units=1/GPa)
#
#
# Indices 1 2 3 4 5 6 
#
# 1 0.012922 -0.004566 -0.003094 0.000000 0.000000 0.000000
# 2 -0.004566 0.012922 -0.003094 0.000000 0.000000 0.000000
# 3 -0.003094 -0.003094 0.012055 0.000000 0.000000 0.000000
# 4 0.000000 0.000000 0.000000 -4.092070 -0.000003 0.000000
# 5 0.000000 0.000000 0.000000 -0.000003 -4.092072 0.000000
# 6 0.000000 0.000000 0.000000 0.000000 0.000000 0.034976
#
#
# Mechanical properties :
#
#
# Convention : Reuss Voigt Hill
#
# Bulk Modulus (GPa) = 61.00534 61.06639 61.03587
# Shear Modulus (GPa) = -0.61848 18.03560 8.70856
#
# Velocity S-wave (km/s) = -0.56396 3.04543 2.11620
# Velocity P-wave (km/s) = 5.56304 6.61582 6.11214
#
# Compressibility (1/GPa) = 0.01639201
#
# Stress axis : x y z
#
# Youngs Moduli (GPa) = 77.38813 77.38813 82.95108
#
# Poissons Ratio (x) = 0.35338 0.25662
# Poissons Ratio (y) = 0.35338 0.25662
# Poissons Ratio (z) = 0.23941 0.23941
#
# Static dielectric constant tensor:
#      x y z
#    x 3.489770 0.000000 0.000000 
#    y 0.000000 3.489770 0.000000 
#    z 0.000000 0.000000 3.714310 
# 
# 
# High freq. dielectric constant tensor:
#      x y z
#    x 1.762290 0.000000 0.000000 
#    y 0.000000 1.762290 0.000000 
#    z 0.000000 0.000000 1.774000 
# 
# From -- ./inp_files/3423.got.cif
#   From: 2010.06.25/outbox.cif.g09.slc.cpg/sg176_2_cif.got.tgz:3423.got - 2010.06.28 12:15:01.
