data_PCOD8325562
_publ_section_title
;
Structure prediction by ZEFSAII (Michael W. Deem and Ramdas Pophale) SiO2 
 PCOD8325562
Probable space group: P 63/M
;
_chemical_formula_sum "Si O2"
_cell_formula_units_Z 48
_cell_length_a 12.517031
_cell_length_b 12.517031
_cell_length_c 17.371755
_cell_angle_alpha 90.000000
_cell_angle_beta 90.000000
_cell_angle_gamma 120.000000
_cell_volume 2357.094438
_symmetry_space_group_name_H-M "P 63/M"
_symmetry_group_IT_number 176
_symmetry_cell_setting 'hexagonal'
loop_
_space_group_symop_operation_xyz
x,y,z
x-y,x,1/2+z
-y,x-y,z
-x,-y,1/2+z
-x+y,-x,z
y,-x+y,1/2+z
-x,-y,-z
-x+y,-x,1/2-z
y,-x+y,-z
x,y,1/2-z
x-y,x,-z
-y,x-y,1/2-z
loop_
_atom_site_type_symbol
_atom_site_label
_atom_site_fract_x
_atom_site_fract_y
_atom_site_fract_z
Si Si1 0.666668 0.333334 0.341684
Si Si2 0.333334 0.666668 0.158461
Si Si3 0.103179 0.676274 0.658703
Si Si4 0.527954 0.932112 0.158298
Si Si5 0.055978 0.245837 0.841446
Si Si6 0.000000 0.000000 0.409397
O O1 0.666667 0.333334 0.250000
O O2 0.768135 0.303517 0.373591
O O3 0.333334 0.666668 0.250000
O O4 0.453479 0.791047 0.128802
O O5 0.099476 0.668828 0.750000
O O6 0.102705 0.800047 0.633147
O O7 0.995483 0.545335 0.626135
O O8 0.531936 0.939852 0.250000
O O9 0.669133 0.999082 0.127949
O O10 0.041075 0.232578 0.750000
O O11 0.981515 0.111273 0.878861
O O12 0.000000 0.000000 0.500000
#
# Coordination Sequence:
#
# PCOD8325562 Si02
#       6
#     4   4  12  12  12   4
#     4   9  12  21  39  75 121 146 163 204 271 320
#     4   9  18  27  39  69 118 152 163 198 268 329
#     4   9  15  25  46  81 119 143 170 219 271 319
#     4   9  17  28  46  79 116 143 168 214 274 325
#     4  10  20  35  59  86 108 140 188 231 272 332
#     4  12  28  44  55  72 109 155 193 237 292 332
#
# _framework density 20.364055
#
# number of rings (size 3 to 8) (size 9 to 14) (size 15 to 20)
#    0.000    2.500    2.500    0.750    3.500    0.000 
#    0.000    0.000    0.000    1.500    0.000    0.000 
#    0.000    0.000    0.000    0.000    0.000    0.000 
#
# Total GULP energy -594709.020655 kJ/mol
# GULP energy per Si atom -12389.771264 kJ/mol
# Density = 2.031771 g / cm^3
# Si number density = 20.364055 Si / 1000 Ang^3
#
#
#
# Elastic Constant Matrix: (Units=GPa)
#
#
# Indices 1 2 3 4 5 6 
#
# 1 135.3677 63.8798 18.9697 0.0000 0.0000 -0.0001
# 2 63.8798 135.3679 18.9695 0.0000 0.0000 0.0002
# 3 18.9697 18.9695 19.3806 0.0000 0.0000 0.0000
# 4 0.0000 0.0000 0.0000 2.3952 0.0000 0.0000
# 5 0.0000 0.0000 0.0000 0.0000 2.3949 0.0000
# 6 -0.0001 0.0002 0.0000 0.0000 0.0000 35.7432
#
#
#
# Elastic Compliance Matrix: (Units=1/GPa)
#
#
# Indices 1 2 3 4 5 6 
#
# 1 0.010078 -0.003910 -0.006038 0.000000 0.000000 0.000000
# 2 -0.003910 0.010078 -0.006038 0.000000 0.000000 0.000000
# 3 -0.006038 -0.006038 0.063417 0.000000 0.000000 0.000000
# 4 0.000000 0.000000 0.000000 0.417499 -0.000003 0.000000
# 5 0.000000 0.000000 0.000000 -0.000003 0.417561 0.000000
# 6 0.000000 0.000000 0.000000 0.000000 0.000000 0.027977
#
#
# Mechanical properties :
#
#
# Convention : Reuss Voigt Hill
#
# Bulk Modulus (GPa) = 19.37855 54.86158 37.12006
# Shear Modulus (GPa) = 5.02117 20.65979 12.84048
#
# Velocity S-wave (km/s) = 1.57196 3.18861 2.51379
# Velocity P-wave (km/s) = 3.58210 6.36830 5.16656
#
# Compressibility (1/GPa) = 0.05160346
#
# Stress axis : x y z
#
# Youngs Moduli (GPa) = 99.22141 99.22176 15.76859
#
# Poissons Ratio (x) = 0.38795 0.09521
# Poissons Ratio (y) = 0.38795 0.09521
# Poissons Ratio (z) = 0.59908 0.59907
#
# Static dielectric constant tensor:
#      x y z
#    x 3.970290 0.000000 0.000000 
#    y 0.000000 3.970300 0.000000 
#    z 0.000000 0.000000 2.770160 
# 
# 
# High freq. dielectric constant tensor:
#      x y z
#    x 1.809530 0.000000 0.000000 
#    y 0.000000 1.809530 0.000000 
#    z 0.000000 0.000000 1.695270 
# 
# From -- ./inp_files/3676.got.cif
#   From: 2010.06.25/outbox.cif.g09.slc.cpg/sg176_2_cif.got.tgz:3676.got - 2010.06.28 12:15:01.
