data_PCOD8325847
_publ_section_title
;
Structure prediction by ZEFSAII (Michael W. Deem and Ramdas Pophale) SiO2 
 PCOD8325847
Probable space group: P 61 2 2
;
_chemical_formula_sum "Si O2"
_cell_formula_units_Z 84
_cell_length_a 14.349205
_cell_length_b 14.349205
_cell_length_c 23.209979
_cell_angle_alpha 90.000000
_cell_angle_beta 90.000000
_cell_angle_gamma 120.000000
_cell_volume 4138.672483
_symmetry_space_group_name_H-M "P 61 2 2"
_symmetry_group_IT_number 178
_symmetry_cell_setting 'hexagonal'
loop_
_space_group_symop_operation_xyz
x,y,z
x-y,x,1/6+z
-y,x-y,1/3+z
-x,-y,1/2+z
-x+y,-x,2/3+z
y,-x+y,5/6+z
x-y,-y,-z
-x,-x+y,2/3-z
y,x,1/3-z
-y,-x,5/6-z
-x+y,y,1/2-z
x,x-y,1/6-z
loop_
_atom_site_type_symbol
_atom_site_label
_atom_site_fract_x
_atom_site_fract_y
_atom_site_fract_z
Si Si1 0.339513 0.561645 0.582503
Si Si2 0.100229 0.523225 0.489577
Si Si3 0.223094 0.526697 0.042627
Si Si4 0.700661 0.108382 0.767409
Si Si5 0.050394 0.432230 0.272042
Si Si6 0.284560 0.195646 0.912912
Si Si7 0.805444 0.767345 0.790420
O O1 0.301429 0.650715 0.583334
O O2 0.359094 0.531682 0.518483
O O3 0.236768 0.451895 0.607542
O O4 0.451437 0.608559 0.617173
O O5 0.221905 0.571885 0.466811
O O6 0.080233 0.430453 0.536124
O O7 0.075851 0.609987 0.517837
O O8 0.027309 0.482647 0.433381
O O9 0.203401 0.601701 0.083334
O O10 0.163468 0.411560 0.072616
O O11 0.754208 0.033084 0.776026
O O12 0.071810 0.347691 0.238346
O O13 0.000000 0.381962 0.333334
O O14 0.234733 0.088755 0.874052
O O15 0.252305 0.164799 0.979245
O O16 0.910410 0.820819 0.750000
#
# Coordination Sequence:
#
# PCOD8325847 Si02
#       7
#    12  12  12  12  12  12  12
#     4  11  22  39  58  91 128 175 218 267 324 391
#     4  10  20  38  55  87 126 162 212 261 313 384
#     4  11  22  34  61  92 124 168 218 256 320 391
#     4  10  20  40  62  85 121 164 218 273 309 388
#     4  12  24  37  58  89 135 175 209 261 342 410
#     4  12  23  41  67  93 128 171 225 274 335 400
#     4  12  25  42  61  95 134 171 215 282 342 399
#
# _framework density 20.296361999999998
#
# number of rings (size 3 to 8) (size 9 to 14) (size 15 to 20)
#    0.000    0.857    5.714    4.286    4.000    0.000 
#    0.000    0.000    0.000    1.714    0.000    4.000 
#    0.000    0.000    0.000    0.000    0.000    0.000 
#
# Total GULP energy -1041367.315199 kJ/mol
# GULP energy per Si atom -12397.229943 kJ/mol
# Density = 2.025017 g / cm^3
# Si number density = 20.296362 Si / 1000 Ang^3
#
#
#
# Elastic Constant Matrix: (Units=GPa)
#
#
# Indices 1 2 3 4 5 6 
#
# 1 84.8384 21.3533 5.0309 0.0000 0.0000 0.0000
# 2 21.3533 84.8384 5.0309 0.0000 0.0000 0.0000
# 3 5.0309 5.0309 73.3090 0.0000 0.0000 0.0000
# 4 0.0000 0.0000 0.0000 24.0531 0.0000 0.0000
# 5 0.0000 0.0000 0.0000 0.0000 24.0531 0.0000
# 6 0.0000 0.0000 0.0000 0.0000 0.0000 31.7426
#
#
#
# Elastic Compliance Matrix: (Units=1/GPa)
#
#
# Indices 1 2 3 4 5 6 
#
# 1 0.012615 -0.003137 -0.000650 0.000000 0.000000 0.000000
# 2 -0.003137 0.012615 -0.000650 0.000000 0.000000 0.000000
# 3 -0.000650 -0.000650 0.013730 0.000000 0.000000 0.000000
# 4 0.000000 0.000000 0.000000 0.041575 0.000000 0.000000
# 5 0.000000 0.000000 0.000000 0.000000 0.041575 0.000000
# 6 0.000000 0.000000 0.000000 0.000000 0.000000 0.031503
#
#
# Mechanical properties :
#
#
# Convention : Reuss Voigt Hill
#
# Bulk Modulus (GPa) = 33.23874 33.97958 33.60916
# Shear Modulus (GPa) = 28.98271 30.07448 29.52860
#
# Velocity S-wave (km/s) = 3.78296 3.85355 3.81842
# Velocity P-wave (km/s) = 5.95762 6.04796 6.00296
#
# Compressibility (1/GPa) = 0.03008538
#
# Stress axis : x y z
#
# Youngs Moduli (GPa) = 79.26984 79.26984 72.83233
#
# Poissons Ratio (x) = 0.24864 0.04738
# Poissons Ratio (y) = 0.24864 0.04738
# Poissons Ratio (z) = 0.05156 0.05156
#
# Static dielectric constant tensor:
#      x y z
#    x 3.896420 0.000000 0.000000 
#    y 0.000000 3.896420 0.000000 
#    z 0.000000 0.000000 3.741710 
# 
# 
# High freq. dielectric constant tensor:
#      x y z
#    x 1.781100 0.000000 0.000000 
#    y 0.000000 1.781100 0.000000 
#    z 0.000000 0.000000 1.789180 
# 
# From -- ./inp_files/8323.got.cif
#   From: 2010.03.12/outbox.cif.g09.slc.cpg/sg178_5_cif.got.tgz:8323.got - 2010.04.02 07:02:38.
