data_PCOD8325158
_publ_section_title
;
Structure prediction by ZEFSAII (Michael W. Deem and Ramdas Pophale) SiO2 
 PCOD8325158
Probable space group: P 6/M
;
_chemical_formula_sum "Si O2"
_cell_formula_units_Z 78
_cell_length_a 22.137645
_cell_length_b 22.137645
_cell_length_c 9.659991
_cell_angle_alpha 90.000000
_cell_angle_beta 90.000000
_cell_angle_gamma 120.000000
_cell_volume 4099.870990
_symmetry_space_group_name_H-M "P 6/M"
_symmetry_group_IT_number 175
_symmetry_cell_setting 'hexagonal'
loop_
_space_group_symop_operation_xyz
x,y,z
x-y,x,z
-y,x-y,z
-x,-y,z
-x+y,-x,z
y,-x+y,z
-x,-y,-z
-x+y,-x,-z
y,-x+y,-z
x,y,-z
x-y,x,-z
-y,x-y,-z
loop_
_atom_site_type_symbol
_atom_site_label
_atom_site_fract_x
_atom_site_fract_y
_atom_site_fract_z
Si Si1 0.656395 0.467372 0.664654
Si Si2 0.525162 0.321638 0.337926
Si Si3 0.011004 0.146466 0.500000
Si Si4 0.801984 0.717625 0.847745
Si Si5 0.339546 0.411443 0.833533
Si Si6 0.253937 0.197396 0.730454
Si Si7 0.669502 0.063038 0.340002
O O1 0.656789 0.483375 0.500000
O O2 0.728978 0.475975 0.719847
O O3 0.597491 0.389218 0.701321
O O4 0.639047 0.516485 0.758001
O O5 0.516810 0.312345 0.500000
O O6 0.459981 0.327296 0.280927
O O7 0.073450 0.131280 0.500000
O O8 0.011576 0.190672 0.629277
O O9 0.741447 0.642011 0.796308
O O10 0.768571 0.768538 0.853917
O O11 0.871599 0.744586 0.758971
O O12 0.825489 0.710999 0.000000
O O13 0.386795 0.383560 0.763126
O O14 0.352146 0.419734 0.000000
O O15 0.327578 0.253025 0.666110
O O16 0.643120 0.046735 0.500000
#
# Coordination Sequence:
#
# PCOD8325158 Si02
#       7
#    12  12   6  12  12  12  12
#     4  10  19  37  60  85 115 152 190 233 281 342
#     4   9  19  34  58  88 115 146 190 234 283 331
#     4  12  23  38  54  80 114 147 185 235 291 341
#     4  10  21  36  54  76 106 141 181 230 281 341
#     4  10  22  38  56  82 114 149 188 233 289 340
#     4  11  20  34  56  79 105 139 185 229 282 338
#     4  10  20  35  56  85 112 143 185 236 281 339
#
# _framework density 19.024988
#
# number of rings (size 3 to 8) (size 9 to 14) (size 15 to 20)
#    0.000    1.846    2.308    2.231    0.000    2.462 
#    1.385    5.385    0.000    0.000    0.000    2.154 
#    0.000    0.000    0.000    0.000    0.000    0.000 
#
# Total GULP energy -966786.591564 kJ/mol
# GULP energy per Si atom -12394.699892 kJ/mol
# Density = 1.898169 g / cm^3
# Si number density = 19.024988 Si / 1000 Ang^3
#
#
#
# Elastic Constant Matrix: (Units=GPa)
#
#
# Indices 1 2 3 4 5 6 
#
# 1 116.9963 52.6919 33.8002 0.0000 0.0000 0.0000
# 2 52.6919 116.9963 33.8002 0.0000 0.0000 0.0000
# 3 33.8002 33.8002 65.2103 0.0000 0.0000 0.0000
# 4 0.0000 0.0000 0.0000 22.6160 0.0000 0.0000
# 5 0.0000 0.0000 0.0000 0.0000 22.6160 0.0000
# 6 0.0000 0.0000 0.0000 0.0000 0.0000 32.1522
#
#
#
# Elastic Compliance Matrix: (Units=1/GPa)
#
#
# Indices 1 2 3 4 5 6 
#
# 1 0.011489 -0.004062 -0.003849 0.000000 0.000000 0.000000
# 2 -0.004062 0.011489 -0.003849 0.000000 0.000000 0.000000
# 3 -0.003849 -0.003849 0.019326 0.000000 0.000000 0.000000
# 4 0.000000 0.000000 0.000000 0.044216 0.000000 0.000000
# 5 0.000000 0.000000 0.000000 0.000000 0.044216 0.000000
# 6 0.000000 0.000000 0.000000 0.000000 0.000000 0.031102
#
#
# Mechanical properties :
#
#
# Convention : Reuss Voigt Hill
#
# Bulk Modulus (GPa) = 53.24490 59.97637 56.61063
# Shear Modulus (GPa) = 26.09320 27.40421 26.74870
#
# Velocity S-wave (km/s) = 3.70742 3.79942 3.75370
# Velocity P-wave (km/s) = 6.80986 7.13028 6.97191
#
# Compressibility (1/GPa) = 0.01878114
#
# Stress axis : x y z
#
# Youngs Moduli (GPa) = 87.04069 87.04069 51.74504
#
# Poissons Ratio (x) = 0.35357 0.19919
# Poissons Ratio (y) = 0.35357 0.19919
# Poissons Ratio (z) = 0.33506 0.33506
#
# Static dielectric constant tensor:
#      x y z
#    x 3.514390 0.000000 0.000000 
#    y 0.000000 3.514390 0.000000 
#    z 0.000000 0.000000 3.263610 
# 
# 
# High freq. dielectric constant tensor:
#      x y z
#    x 1.747090 0.000000 0.000000 
#    y 0.000000 1.747090 0.000000 
#    z 0.000000 0.000000 1.718230 
# 
# From -- ./inp_files/1372.got.cif
#   From: 2010.03.12/outbox.cif.g09.slc.cpg/sg175_1_cif.got.tgz:1372.got - 2010.04.02 06:55:29.
