data_PCOD8325200
_publ_section_title
;
Structure prediction by ZEFSAII (Michael W. Deem and Ramdas Pophale) SiO2 
 PCOD8325200
Probable space group: P 6/M
;
_chemical_formula_sum "Si O2"
_cell_formula_units_Z 66
_cell_length_a 20.744763
_cell_length_b 20.744763
_cell_length_c 7.920539
_cell_angle_alpha 90.000000
_cell_angle_beta 90.000000
_cell_angle_gamma 120.000000
_cell_volume 2951.904639
_symmetry_space_group_name_H-M "P 6/M"
_symmetry_group_IT_number 175
_symmetry_cell_setting 'hexagonal'
loop_
_space_group_symop_operation_xyz
x,y,z
x-y,x,z
-y,x-y,z
-x,-y,z
-x+y,-x,z
y,-x+y,z
-x,-y,-z
-x+y,-x,-z
y,-x+y,-z
x,y,-z
x-y,x,-z
-y,x-y,-z
loop_
_atom_site_type_symbol
_atom_site_label
_atom_site_fract_x
_atom_site_fract_y
_atom_site_fract_z
Si Si1 0.660628 0.814713 0.199182
Si Si2 0.435217 0.115341 0.200793
Si Si3 0.914810 0.084249 0.699809
Si Si4 0.401351 0.841757 0.807504
Si Si5 0.952566 0.605338 0.192948
Si Si6 0.251287 0.586454 0.500000
O O1 0.603002 0.839056 0.272973
O O2 0.745289 0.873831 0.242688
O O3 0.634982 0.733659 0.279551
O O4 0.650474 0.808911 0.000000
O O5 0.521035 0.150123 0.253951
O O6 0.388544 0.032873 0.281374
O O7 0.431668 0.110200 0.000000
O O8 0.916142 0.082152 0.500000
O O9 0.999536 0.127554 0.770793
O O10 0.402913 0.919753 0.796103
O O11 0.337375 0.789237 0.675354
O O12 0.380369 0.809780 0.000000
O O13 0.962202 0.631358 0.000000
O O14 0.330687 0.591399 0.500000
#
# Coordination Sequence:
#
# PCOD8325200 Si02
#       6
#    12  12  12  12  12   6
#     4  10  20  34  58  88 119 149 188 241 295 351
#     4   9  18  34  58  88 119 154 196 241 290 349
#     4  10  21  38  57  79 110 152 198 241 290 352
#     4  10  21  40  66  87 117 162 203 242 300 362
#     4   9  18  34  58  88 119 154 196 241 290 349
#     4  10  26  42  57  90 128 152 194 256 300 350
#
# _framework density 22.358447000000002
#
# number of rings (size 3 to 8) (size 9 to 14) (size 15 to 20)
#    0.182    2.182    0.000    1.818    2.545    5.818 
#    3.273    1.818    0.000    1.091    0.000    0.000 
#    0.000    0.000    0.000    0.000    0.000    0.000 
#
# Total GULP energy -817924.556861 kJ/mol
# GULP energy per Si atom -12392.796316 kJ/mol
# Density = 2.230756 g / cm^3
# Si number density = 22.358447 Si / 1000 Ang^3
#
#
#
# Elastic Constant Matrix: (Units=GPa)
#
#
# Indices 1 2 3 4 5 6 
#
# 1 83.2261 -4.9979 6.8262 0.0000 0.0000 0.0000
# 2 -4.9979 83.2261 6.8262 0.0000 0.0000 0.0000
# 3 6.8262 6.8262 51.8999 0.0000 0.0000 0.0000
# 4 0.0000 0.0000 0.0000 16.5259 0.0000 0.0000
# 5 0.0000 0.0000 0.0000 0.0000 16.5259 0.0000
# 6 0.0000 0.0000 0.0000 0.0000 0.0000 44.1120
#
#
#
# Elastic Compliance Matrix: (Units=1/GPa)
#
#
# Indices 1 2 3 4 5 6 
#
# 1 0.012209 0.000874 -0.001721 0.000000 0.000000 0.000000
# 2 0.000874 0.012209 -0.001721 0.000000 0.000000 0.000000
# 3 -0.001721 -0.001721 0.019721 0.000000 0.000000 0.000000
# 4 0.000000 0.000000 0.000000 0.060511 0.000000 0.000000
# 5 0.000000 0.000000 0.000000 0.000000 0.060511 0.000000
# 6 0.000000 0.000000 0.000000 0.000000 0.000000 0.022670
#
#
# Mechanical properties :
#
#
# Convention : Reuss Voigt Hill
#
# Bulk Modulus (GPa) = 25.63831 26.18456 25.91144
# Shear Modulus (GPa) = 24.27577 29.41259 26.84418
#
# Velocity S-wave (km/s) = 3.29865 3.63092 3.46877
# Velocity P-wave (km/s) = 5.09902 5.41431 5.25903
#
# Compressibility (1/GPa) = 0.03900413
#
# Stress axis : x y z
#
# Youngs Moduli (GPa) = 81.90607 81.90607 50.70858
#
# Poissons Ratio (x) = -0.07161 0.08726
# Poissons Ratio (y) = -0.07161 0.08726
# Poissons Ratio (z) = 0.14095 0.14095
#
# Static dielectric constant tensor:
#      x y z
#    x 4.207060 0.000000 0.000000 
#    y 0.000000 4.207060 0.000000 
#    z 0.000000 0.000000 3.523640 
# 
# 
# High freq. dielectric constant tensor:
#      x y z
#    x 1.887680 0.000000 0.000000 
#    y 0.000000 1.887680 0.000000 
#    z 0.000000 0.000000 1.840510 
# 
# From -- ./inp_files/995.got.cif
#   From: 2010.03.12/outbox.cif.g09.slc.cpg/sg175_1_cif.got.tgz:995.got - 2010.04.02 06:55:29.
