data_PCOD8325636
_publ_section_title
;
Structure prediction by ZEFSAII (Michael W. Deem and Ramdas Pophale) SiO2 
 PCOD8325636
Probable space group: P 63/M
;
_chemical_formula_sum "Si O2"
_cell_formula_units_Z 58
_cell_length_a 14.410690
_cell_length_b 14.410690
_cell_length_c 15.571591
_cell_angle_alpha 90.000000
_cell_angle_beta 90.000000
_cell_angle_gamma 120.000000
_cell_volume 2800.484488
_symmetry_space_group_name_H-M "P 63/M"
_symmetry_group_IT_number 176
_symmetry_cell_setting 'hexagonal'
loop_
_space_group_symop_operation_xyz
x,y,z
x-y,x,1/2+z
-y,x-y,z
-x,-y,1/2+z
-x+y,-x,z
y,-x+y,1/2+z
-x,-y,-z
-x+y,-x,1/2-z
y,-x+y,-z
x,y,1/2-z
x-y,x,-z
-y,x-y,1/2-z
loop_
_atom_site_type_symbol
_atom_site_label
_atom_site_fract_x
_atom_site_fract_y
_atom_site_fract_z
Si Si1 0.238120 0.533264 0.750000
Si Si2 0.898124 0.416520 0.651475
Si Si3 0.826057 0.769214 0.648395
Si Si4 0.096050 0.410142 0.903701
Si Si5 0.439684 0.253867 0.591025
Si Si6 0.000000 0.000000 0.648175
O O1 0.366970 0.581633 0.750000
O O2 0.188801 0.460281 0.833158
O O3 0.903413 0.384252 0.750000
O O4 0.804860 0.313803 0.602309
O O5 0.871926 0.511935 0.649166
O O6 0.012927 0.453852 0.607603
O O7 0.810563 0.768185 0.750000
O O8 0.717911 0.748645 0.602913
O O9 0.858071 0.681360 0.621628
O O10 0.919965 0.881716 0.613407
O O11 0.156148 0.446244 0.993471
O O12 0.000000 0.000000 0.750000
#
# Coordination Sequence:
#
# PCOD8325636 Si02
#       6
#     6  12  12  12  12   4
#     4  10  24  42  66  86 126 174 214 246 326 390
#     4  11  22  42  64  91 134 171 208 264 325 385
#     4  10  21  45  65  91 132 169 213 267 327 381
#     4  11  22  43  61  94 130 169 209 274 314 380
#     4  11  24  37  65  97 125 167 221 263 316 381
#     4   9  21  39  67  95 121 169 218 262 312 385
#
# _framework density 20.710702000000001
#
# number of rings (size 3 to 8) (size 9 to 14) (size 15 to 20)
#    0.207    1.241    2.069    4.138    2.897    3.310 
#    3.724    1.034    0.000    0.000    0.000    0.000 
#    0.000    0.000    0.000    0.000    0.000    0.000 
#
# Total GULP energy -719387.504954 kJ/mol
# GULP energy per Si atom -12403.232844 kJ/mol
# Density = 2.066356 g / cm^3
# Si number density = 20.710702 Si / 1000 Ang^3
#
#
#
# Elastic Constant Matrix: (Units=GPa)
#
#
# Indices 1 2 3 4 5 6 
#
# 1 119.2036 54.2120 26.2045 0.0000 0.0000 0.0000
# 2 54.2120 119.2036 26.2045 0.0000 0.0000 0.0000
# 3 26.2045 26.2045 108.5950 0.0000 0.0000 0.0000
# 4 0.0000 0.0000 0.0000 27.5900 0.0000 0.0000
# 5 0.0000 0.0000 0.0000 0.0000 27.5900 0.0000
# 6 0.0000 0.0000 0.0000 0.0000 0.0000 32.4958
#
#
#
# Elastic Compliance Matrix: (Units=1/GPa)
#
#
# Indices 1 2 3 4 5 6 
#
# 1 0.010803 -0.004583 -0.001501 0.000000 0.000000 0.000000
# 2 -0.004583 0.010803 -0.001501 0.000000 0.000000 0.000000
# 3 -0.001501 -0.001501 0.009933 0.000000 0.000000 0.000000
# 4 0.000000 0.000000 0.000000 0.036245 0.000000 0.000000
# 5 0.000000 0.000000 0.000000 0.000000 0.036245 0.000000
# 6 0.000000 0.000000 0.000000 0.000000 0.000000 0.030773
#
#
# Mechanical properties :
#
#
# Convention : Reuss Voigt Hill
#
# Bulk Modulus (GPa) = 61.08984 62.24936 61.66960
# Shear Modulus (GPa) = 32.16893 33.56058 32.86475
#
# Velocity S-wave (km/s) = 3.94541 4.02984 3.98785
# Velocity P-wave (km/s) = 7.09336 7.19547 7.14460
#
# Compressibility (1/GPa) = 0.01636933
#
# Stress axis : x y z
#
# Youngs Moduli (GPa) = 92.56384 92.56385 100.67558
#
# Poissons Ratio (x) = 0.42424 0.15111
# Poissons Ratio (y) = 0.42424 0.15111
# Poissons Ratio (z) = 0.13893 0.13893
#
# Static dielectric constant tensor:
#      x y z
#    x 3.791350 0.000000 0.000000 
#    y 0.000000 3.791350 0.000000 
#    z 0.000000 0.000000 3.640480 
# 
# 
# High freq. dielectric constant tensor:
#      x y z
#    x 1.813150 0.000000 0.000000 
#    y 0.000000 1.813150 0.000000 
#    z 0.000000 0.000000 1.810800 
# 
# From -- ./inp_files/2680.got.cif
#   From: 2010.06.25/outbox.cif.g09.slc.cpg/sg176_2_cif.got.tgz:2680.got - 2010.06.28 12:15:01.
