data_PCOD8325161
_publ_section_title
;
Structure prediction by ZEFSAII (Michael W. Deem and Ramdas Pophale) SiO2 
 PCOD8325161
Probable space group: P 6/M
;
_chemical_formula_sum "Si O2"
_cell_formula_units_Z 60
_cell_length_a 21.593474
_cell_length_b 21.593474
_cell_length_c 7.922257
_cell_angle_alpha 90.000000
_cell_angle_beta 90.000000
_cell_angle_gamma 120.000000
_cell_volume 3199.076273
_symmetry_space_group_name_H-M "P 6/M"
_symmetry_group_IT_number 175
_symmetry_cell_setting 'hexagonal'
loop_
_space_group_symop_operation_xyz
x,y,z
x-y,x,z
-y,x-y,z
-x,-y,z
-x+y,-x,z
y,-x+y,z
-x,-y,-z
-x+y,-x,-z
y,-x+y,-z
x,y,-z
x-y,x,-z
-y,x-y,-z
loop_
_atom_site_type_symbol
_atom_site_label
_atom_site_fract_x
_atom_site_fract_y
_atom_site_fract_z
Si Si1 0.851127 0.867527 0.799827
Si Si2 0.525144 0.341235 0.500000
Si Si3 0.296556 0.872364 0.185945
Si Si4 0.277848 0.996710 0.696252
Si Si5 0.389726 0.151431 0.311164
Si Si6 0.805833 0.324411 0.500000
O O1 0.917969 0.860301 0.733432
O O2 0.777091 0.804399 0.727752
O O3 0.848464 0.864443 0.000000
O O4 0.481827 0.338289 0.331945
O O5 0.596731 0.416502 0.500000
O O6 0.544943 0.278801 0.500000
O O7 0.303871 0.949310 0.206460
O O8 0.212258 0.815866 0.187280
O O9 0.326348 0.868775 0.000000
O O10 0.291423 0.992515 0.500000
O O11 0.329644 0.076688 0.764935
O O12 0.367270 0.164935 0.500000
O O13 0.468041 0.157642 0.334131
#
# Coordination Sequence:
#
# PCOD8325161 Si02
#       6
#    12   6  12  12  12   6
#     4  10  21  35  51  73 105 147 192 240 292 340
#     4  10  19  39  61  89 116 142 184 223 271 337
#     4  11  21  35  57  83 115 151 187 233 281 328
#     4  11  20  34  54  79 109 144 190 238 280 338
#     4   8  18  36  55  81 108 147 189 228 280 326
#     4   8  17  35  63  83 108 148 176 217 279 327
#
# _framework density 18.755414999999999
#
# number of rings (size 3 to 8) (size 9 to 14) (size 15 to 20)
#    0.600    1.600    2.000    2.200    0.000    6.400 
#    0.000    6.000    0.000    2.400    0.000    0.000 
#    0.000    0.000    0.000    0.000    0.000    0.000 
#
# Total GULP energy -743631.256822 kJ/mol
# GULP energy per Si atom -12393.854280 kJ/mol
# Density = 1.871273 g / cm^3
# Si number density = 18.755415 Si / 1000 Ang^3
#
#
#
# Elastic Constant Matrix: (Units=GPa)
#
#
# Indices 1 2 3 4 5 6 
#
# 1 60.6059 0.9152 6.5775 0.0000 0.0000 0.0000
# 2 0.9152 60.6059 6.5775 0.0000 0.0000 0.0000
# 3 6.5775 6.5775 76.6590 0.0000 0.0000 0.0000
# 4 0.0000 0.0000 0.0000 10.7396 0.0000 0.0000
# 5 0.0000 0.0000 0.0000 0.0000 10.7396 0.0000
# 6 0.0000 0.0000 0.0000 0.0000 0.0000 29.8454
#
#
#
# Elastic Compliance Matrix: (Units=1/GPa)
#
#
# Indices 1 2 3 4 5 6 
#
# 1 0.016656 -0.000097 -0.001421 0.000000 0.000000 0.000000
# 2 -0.000097 0.016656 -0.001421 0.000000 0.000000 0.000000
# 3 -0.001421 -0.001421 0.013289 0.000000 0.000000 0.000000
# 4 0.000000 0.000000 0.000000 0.093114 0.000000 0.000000
# 5 0.000000 0.000000 0.000000 0.000000 0.093114 0.000000
# 6 0.000000 0.000000 0.000000 0.000000 0.000000 0.033506
#
#
# Mechanical properties :
#
#
# Convention : Reuss Voigt Hill
#
# Bulk Modulus (GPa) = 24.55650 25.11233 24.83442
# Shear Modulus (GPa) = 17.49566 22.51828 20.00697
#
# Velocity S-wave (km/s) = 3.05754 3.46877 3.26963
# Velocity P-wave (km/s) = 5.05828 5.42785 5.24632
#
# Compressibility (1/GPa) = 0.04072241
#
# Stress axis : x y z
#
# Youngs Moduli (GPa) = 60.03950 60.03950 75.25253
#
# Poissons Ratio (x) = 0.00584 0.10691
# Poissons Ratio (y) = 0.00584 0.10691
# Poissons Ratio (z) = 0.08530 0.08530
#
# Static dielectric constant tensor:
#      x y z
#    x 3.355810 0.000000 0.000000 
#    y 0.000000 3.355810 0.000000 
#    z 0.000000 0.000000 3.244100 
# 
# 
# High freq. dielectric constant tensor:
#      x y z
#    x 1.719550 0.000000 0.000000 
#    y 0.000000 1.719550 0.000000 
#    z 0.000000 0.000000 1.713800 
# 
# From -- ./inp_files/910.got.cif
#   From: 2010.03.12/outbox.cif.g09.slc.cpg/sg175_1_cif.got.tgz:910.got - 2010.04.02 06:55:29.
