data_PCOD8325773
_publ_section_title
;
Structure prediction by ZEFSAII (Michael W. Deem and Ramdas Pophale) SiO2 
 PCOD8325773
Probable space group: P 61 2 2
;
_chemical_formula_sum "Si O2"
_cell_formula_units_Z 60
_cell_length_a 30.200972
_cell_length_b 30.200972
_cell_length_c 5.121540
_cell_angle_alpha 90.000000
_cell_angle_beta 90.000000
_cell_angle_gamma 120.000000
_cell_volume 4045.507792
_symmetry_space_group_name_H-M "P 61 2 2"
_symmetry_group_IT_number 178
_symmetry_cell_setting 'hexagonal'
loop_
_space_group_symop_operation_xyz
x,y,z
x-y,x,1/6+z
-y,x-y,1/3+z
-x,-y,1/2+z
-x+y,-x,2/3+z
y,-x+y,5/6+z
x-y,-y,-z
-x,-x+y,2/3-z
y,x,1/3-z
-y,-x,5/6-z
-x+y,y,1/2-z
x,x-y,1/6-z
loop_
_atom_site_type_symbol
_atom_site_label
_atom_site_fract_x
_atom_site_fract_y
_atom_site_fract_z
Si Si1 0.111017 0.790304 0.428149
Si Si2 0.881889 0.323281 0.427698
Si Si3 0.941943 0.679511 0.748062
Si Si4 0.729492 0.171529 0.914071
Si Si5 0.431771 0.464451 0.411770
O O1 0.148618 0.851383 0.416667
O O2 0.083295 0.781541 0.703268
O O3 0.144127 0.762733 0.432668
O O4 0.069026 0.767000 0.195541
O O5 0.919655 0.300563 0.420770
O O6 0.837981 0.297097 0.641392
O O7 0.913363 0.381228 0.531181
O O8 0.851664 0.313033 0.151917
O O9 0.000000 0.703854 0.833334
O O10 0.767210 0.232791 0.916667
O O11 0.432966 0.432966 0.666667
O O12 0.477881 0.522120 0.416667
O O13 0.433630 0.433630 0.166667
#
# Coordination Sequence:
#
# PCOD8325773 Si02
#       5
#    12  12  12  12  12
#     4   9  17  28  39  52  74 102 127 155 200 246
#     4  10  18  28  43  59  80 108 134 167 209 247
#     4  10  18  26  39  58  76  96 130 172 203 228
#     4   9  17  28  42  60  79 101 130 162 202 253
#     4  10  20  32  44  59  82 113 148 178 203 240
#
# _framework density 14.831265999999999
#
# number of rings (size 3 to 8) (size 9 to 14) (size 15 to 20)
#    0.000    2.400    0.000    3.600    0.000    8.000 
#    0.000    0.000    0.000    0.000    0.000    0.000 
#    0.000    0.000    0.000    9.000    0.000    0.600 
#
# Total GULP energy -743411.759861 kJ/mol
# GULP energy per Si atom -12390.195998 kJ/mol
# Density = 1.479751 g / cm^3
# Si number density = 14.831266 Si / 1000 Ang^3
#
#
#
# Elastic Constant Matrix: (Units=GPa)
#
#
# Indices 1 2 3 4 5 6 
#
# 1 49.1896 23.1605 24.3543 0.0000 0.0000 0.0000
# 2 23.1605 49.1896 24.3543 0.0000 0.0000 0.0000
# 3 24.3543 24.3543 105.3687 0.0000 0.0000 0.0000
# 4 0.0000 0.0000 0.0000 27.2044 0.0000 0.0000
# 5 0.0000 0.0000 0.0000 0.0000 27.2044 0.0000
# 6 0.0000 0.0000 0.0000 0.0000 0.0000 13.0145
#
#
#
# Elastic Compliance Matrix: (Units=1/GPa)
#
#
# Indices 1 2 3 4 5 6 
#
# 1 0.027394 -0.011025 -0.003783 0.000000 0.000000 0.000000
# 2 -0.011025 0.027394 -0.003783 0.000000 0.000000 0.000000
# 3 -0.003783 -0.003783 0.011239 0.000000 0.000000 0.000000
# 4 0.000000 0.000000 0.000000 0.036759 0.000000 0.000000
# 5 0.000000 0.000000 0.000000 0.000000 0.036759 0.000000
# 6 0.000000 0.000000 0.000000 0.000000 0.000000 0.076837
#
#
# Mechanical properties :
#
#
# Convention : Reuss Voigt Hill
#
# Bulk Modulus (GPa) = 34.66989 38.60956 36.63972
# Shear Modulus (GPa) = 18.99847 22.27660 20.63753
#
# Velocity S-wave (km/s) = 3.58295 3.87977 3.73431
# Velocity P-wave (km/s) = 6.36739 6.79406 6.58418
#
# Compressibility (1/GPa) = 0.02884347
#
# Stress axis : x y z
#
# Youngs Moduli (GPa) = 36.50479 36.50479 88.97257
#
# Poissons Ratio (x) = 0.40246 0.33662
# Poissons Ratio (y) = 0.40246 0.33662
# Poissons Ratio (z) = 0.13811 0.13811
#
# Static dielectric constant tensor:
#      x y z
#    x 2.675270 0.000000 0.000000 
#    y 0.000000 2.675270 0.000000 
#    z 0.000000 0.000000 3.262380 
# 
# 
# High freq. dielectric constant tensor:
#      x y z
#    x 1.532820 0.000000 0.000000 
#    y 0.000000 1.532820 0.000000 
#    z 0.000000 0.000000 1.595240 
# 
# From -- ./inp_files/1488.got.cif
#   From: 2010.03.12/outbox.cif.g09.slc.cpg/sg178_1_cif.got.tgz:1488.got - 2010.04.02 07:02:38.
