data_PCOD8325606
_publ_section_title
;
Structure prediction by ZEFSAII (Michael W. Deem and Ramdas Pophale) SiO2 
 PCOD8325606
Probable space group: P 63/M
;
_chemical_formula_sum "Si O2"
_cell_formula_units_Z 84
_cell_length_a 15.160966
_cell_length_b 15.160966
_cell_length_c 21.913364
_cell_angle_alpha 90.000000
_cell_angle_beta 90.000000
_cell_angle_gamma 120.000000
_cell_volume 4362.078050
_symmetry_space_group_name_H-M "P 63/M"
_symmetry_group_IT_number 176
_symmetry_cell_setting 'hexagonal'
loop_
_space_group_symop_operation_xyz
x,y,z
x-y,x,1/2+z
-y,x-y,z
-x,-y,1/2+z
-x+y,-x,z
y,-x+y,1/2+z
-x,-y,-z
-x+y,-x,1/2-z
y,-x+y,-z
x,y,1/2-z
x-y,x,-z
-y,x-y,1/2-z
loop_
_atom_site_type_symbol
_atom_site_label
_atom_site_fract_x
_atom_site_fract_y
_atom_site_fract_z
Si Si1 0.862639 0.521374 0.141932
Si Si2 0.058035 0.448946 0.394594
Si Si3 0.857939 0.327401 0.177322
Si Si4 0.551365 0.926149 0.183550
Si Si5 0.369172 0.160254 0.595756
Si Si6 0.365762 0.986485 0.524152
Si Si7 0.151009 0.939352 0.017114
O O1 0.815891 0.402643 0.158251
O O2 0.781482 0.558820 0.149032
O O3 0.914592 0.541071 0.075218
O O4 0.953551 0.582987 0.189894
O O5 0.096729 0.559560 0.365593
O O6 0.157384 0.438873 0.403055
O O7 0.012078 0.439486 0.463074
O O8 0.969396 0.363344 0.351579
O O9 0.865300 0.320873 0.250000
O O10 0.503265 0.883016 0.250000
O O11 0.618137 0.875591 0.162583
O O12 0.250908 0.127325 0.581159
O O13 0.405412 0.102578 0.547079
O O14 0.245346 0.934068 0.511080
O O15 0.053611 0.880123 0.972123
#
# Coordination Sequence:
#
# PCOD8325606 Si02
#       7
#    12  12  12  12  12  12  12
#     4  10  21  36  57  83 112 151 183 238 288 346
#     4  10  21  36  59  82 114 146 193 241 277 348
#     4  11  22  35  57  84 114 149 193 238 284 341
#     4  10  21  39  58  79 112 154 195 234 290 339
#     4   9  20  35  55  80 112 150 183 239 282 340
#     4   9  20  36  56  84 117 150 186 227 306 347
#     4   9  17  31  55  84 115 146 184 231 282 345
#
# _framework density 19.256878
#
# number of rings (size 3 to 8) (size 9 to 14) (size 15 to 20)
#    0.000    2.286    0.000    3.000    8.000    6.286 
#    0.857    0.000    0.000    0.000    0.000    0.000 
#    0.000    0.000    0.000    0.000    0.000    0.000 
#
# Total GULP energy -1040596.522883 kJ/mol
# GULP energy per Si atom -12388.053844 kJ/mol
# Density = 1.921305 g / cm^3
# Si number density = 19.256878 Si / 1000 Ang^3
#
#
#
# Elastic Constant Matrix: (Units=GPa)
#
#
# Indices 1 2 3 4 5 6 
#
# 1 82.3853 34.4949 51.7409 0.0000 0.0000 0.0000
# 2 34.4949 82.3853 51.7409 0.0000 0.0000 0.0000
# 3 51.7409 51.7409 143.7150 0.0000 0.0000 0.0000
# 4 0.0000 0.0000 0.0000 17.9859 0.0000 0.0000
# 5 0.0000 0.0000 0.0000 0.0000 17.9859 0.0000
# 6 0.0000 0.0000 0.0000 0.0000 0.0000 23.9452
#
#
#
# Elastic Compliance Matrix: (Units=1/GPa)
#
#
# Indices 1 2 3 4 5 6 
#
# 1 0.016720 -0.004161 -0.004522 0.000000 0.000000 0.000000
# 2 -0.004161 0.016720 -0.004522 0.000000 0.000000 0.000000
# 3 -0.004522 -0.004522 0.010214 0.000000 0.000000 0.000000
# 4 0.000000 0.000000 0.000000 0.055599 0.000000 0.000000
# 5 0.000000 0.000000 0.000000 0.000000 0.055599 0.000000
# 6 0.000000 0.000000 0.000000 0.000000 0.000000 0.041762
#
#
# Mechanical properties :
#
#
# Convention : Reuss Voigt Hill
#
# Bulk Modulus (GPa) = 57.98526 64.93765 61.46145
# Shear Modulus (GPa) = 21.85593 23.35068 22.60330
#
# Velocity S-wave (km/s) = 3.37258 3.48600 3.42976
# Velocity P-wave (km/s) = 6.73369 7.07092 6.90437
#
# Compressibility (1/GPa) = 0.01724576
#
# Stress axis : x y z
#
# Youngs Moduli (GPa) = 59.80869 59.80869 97.90547
#
# Poissons Ratio (x) = 0.24886 0.44268
# Poissons Ratio (y) = 0.24886 0.44268
# Poissons Ratio (z) = 0.27043 0.27043
#
# Static dielectric constant tensor:
#      x y z
#    x 3.569280 0.000000 0.000000 
#    y 0.000000 3.569280 0.000000 
#    z 0.000000 0.000000 3.625850 
# 
# 
# High freq. dielectric constant tensor:
#      x y z
#    x 1.743630 0.000000 0.000000 
#    y 0.000000 1.743630 0.000000 
#    z 0.000000 0.000000 1.742070 
# 
# From -- ./inp_files/4110.got.cif
#   From: 2010.06.25/outbox.cif.g09.slc.cpg/sg176_3_cif.got.tgz:4110.got - 2010.06.28 12:15:01.
