data_PCOD8325797
_publ_section_title
;
Structure prediction by ZEFSAII (Michael W. Deem and Ramdas Pophale) SiO2 
 PCOD8325797
Probable space group: P 61 2 2
;
_chemical_formula_sum "Si O2"
_cell_formula_units_Z 60
_cell_length_a 14.378494
_cell_length_b 14.378494
_cell_length_c 20.016528
_cell_angle_alpha 90.000000
_cell_angle_beta 90.000000
_cell_angle_gamma 120.000000
_cell_volume 3583.819937
_symmetry_space_group_name_H-M "P 61 2 2"
_symmetry_group_IT_number 178
_symmetry_cell_setting 'hexagonal'
loop_
_space_group_symop_operation_xyz
x,y,z
x-y,x,1/6+z
-y,x-y,1/3+z
-x,-y,1/2+z
-x+y,-x,2/3+z
y,-x+y,5/6+z
x-y,-y,-z
-x,-x+y,2/3-z
y,x,1/3-z
-y,-x,5/6-z
-x+y,y,1/2-z
x,x-y,1/6-z
loop_
_atom_site_type_symbol
_atom_site_label
_atom_site_fract_x
_atom_site_fract_y
_atom_site_fract_z
Si Si1 0.849162 0.198244 0.229032
Si Si2 0.000222 0.326210 0.117289
Si Si3 0.870541 0.435271 0.083334
Si Si4 0.149179 0.495296 0.223518
Si Si5 0.292878 0.708351 0.687768
Si Si6 0.000000 0.371424 0.333334
O O1 0.916680 0.224177 0.160852
O O2 0.754602 0.224946 0.221703
O O3 0.925405 0.264988 0.290268
O O4 0.783786 0.069067 0.241371
O O5 0.940004 0.375601 0.074146
O O6 0.082656 0.424022 0.162348
O O7 0.799310 0.395451 0.150220
O O8 0.226878 0.453755 0.250000
O O9 0.216281 0.618488 0.200229
O O10 0.068127 0.474915 0.285451
O O11 0.333723 0.667446 0.750000
#
# Coordination Sequence:
#
# PCOD8325797 Si02
#       6
#    12  12   6  12  12   6
#     4  10  20  31  51  74 109 137 171 224 273 312
#     4  10  19  33  48  77 106 143 175 222 267 320
#     4  10  22  32  50  74 112 146 188 206 262 330
#     4  11  18  31  52  71 109 138 175 211 265 313
#     4  11  19  32  51  76 109 150 179 213 257 326
#     4  10  20  32  50  80 102 140 170 220 270 326
#
# _framework density 16.741913
#
# number of rings (size 3 to 8) (size 9 to 14) (size 15 to 20)
#    0.000    1.600    5.000    1.200    0.000    0.000 
#    0.000    0.000    0.000    0.000    0.000    0.000 
#   12.000    0.000    0.000    0.000    0.000    0.000 
#
# Total GULP energy -743625.712875 kJ/mol
# GULP energy per Si atom -12393.761881 kJ/mol
# Density = 1.670381 g / cm^3
# Si number density = 16.741913 Si / 1000 Ang^3
#
#
#
# Elastic Constant Matrix: (Units=GPa)
#
#
# Indices 1 2 3 4 5 6 
#
# 1 92.3993 45.4958 46.8910 0.0000 0.0000 0.0000
# 2 45.4958 92.3993 46.8910 0.0000 0.0000 0.0000
# 3 46.8910 46.8910 78.7744 0.0000 0.0000 0.0000
# 4 0.0000 0.0000 0.0000 29.6672 0.0000 0.0000
# 5 0.0000 0.0000 0.0000 0.0000 29.6672 0.0000
# 6 0.0000 0.0000 0.0000 0.0000 0.0000 23.4518
#
#
#
# Elastic Compliance Matrix: (Units=1/GPa)
#
#
# Indices 1 2 3 4 5 6 
#
# 1 0.016752 -0.004568 -0.007253 0.000000 0.000000 0.000000
# 2 -0.004568 0.016752 -0.007253 0.000000 0.000000 0.000000
# 3 -0.007253 -0.007253 0.021329 0.000000 0.000000 0.000000
# 4 0.000000 0.000000 0.000000 0.033707 0.000000 0.000000
# 5 0.000000 0.000000 0.000000 0.000000 0.033707 0.000000
# 6 0.000000 0.000000 0.000000 0.000000 0.000000 0.042641
#
#
# Mechanical properties :
#
#
# Convention : Reuss Voigt Hill
#
# Bulk Modulus (GPa) = 59.92843 60.23652 60.08248
# Shear Modulus (GPa) = 23.96941 24.84360 24.40650
#
# Velocity S-wave (km/s) = 3.78789 3.85634 3.82227
# Velocity P-wave (km/s) = 7.41646 7.47570 7.44614
#
# Compressibility (1/GPa) = 0.01668657
#
# Stress axis : x y z
#
# Youngs Moduli (GPa) = 59.69264 59.69264 46.88396
#
# Poissons Ratio (x) = 0.27267 0.34005
# Poissons Ratio (y) = 0.27267 0.34005
# Poissons Ratio (z) = 0.43295 0.43295
#
# Static dielectric constant tensor:
#      x y z
#    x 3.393960 0.000000 0.000000 
#    y 0.000000 3.393960 0.000000 
#    z 0.000000 0.000000 3.413450 
# 
# 
# High freq. dielectric constant tensor:
#      x y z
#    x 1.629790 0.000000 0.000000 
#    y 0.000000 1.629790 0.000000 
#    z 0.000000 0.000000 1.651770 
# 
# From -- ./inp_files/7593.got.cif
#   From: 2010.03.12/outbox.cif.g09.slc.cpg/sg178_4_cif.got.tgz:7593.got - 2010.04.02 07:02:38.
