data_PCOD8325768
_publ_section_title
;
Structure prediction by ZEFSAII (Michael W. Deem and Ramdas Pophale) SiO2 
 PCOD8325768
Probable space group: P 61 2 2
;
_chemical_formula_sum "Si O2"
_cell_formula_units_Z 60
_cell_length_a 16.290283
_cell_length_b 16.290283
_cell_length_c 14.174937
_cell_angle_alpha 90.000000
_cell_angle_beta 90.000000
_cell_angle_gamma 120.000000
_cell_volume 3257.684543
_symmetry_space_group_name_H-M "P 61 2 2"
_symmetry_group_IT_number 178
_symmetry_cell_setting 'hexagonal'
loop_
_space_group_symop_operation_xyz
x,y,z
x-y,x,1/6+z
-y,x-y,1/3+z
-x,-y,1/2+z
-x+y,-x,2/3+z
y,-x+y,5/6+z
x-y,-y,-z
-x,-x+y,2/3-z
y,x,1/3-z
-y,-x,5/6-z
-x+y,y,1/2-z
x,x-y,1/6-z
loop_
_atom_site_type_symbol
_atom_site_label
_atom_site_fract_x
_atom_site_fract_y
_atom_site_fract_z
Si Si1 0.675369 0.584205 0.607291
Si Si2 0.385234 0.419833 0.908121
Si Si3 0.586592 0.354436 0.774973
Si Si4 0.825467 0.533333 0.616036
Si Si5 0.387509 0.902712 0.454265
O O1 0.660887 0.660887 0.666667
O O2 0.686466 0.604441 0.494927
O O3 0.771828 0.590262 0.646577
O O4 0.584687 0.481950 0.614129
O O5 0.490028 0.509973 0.916667
O O6 0.400101 0.328661 0.904437
O O7 0.340105 0.438948 0.813931
O O8 0.660208 0.320415 0.750000
O O9 0.537482 0.295864 0.868368
O O10 0.640812 0.469271 0.796573
O O11 0.508857 0.323835 0.690854
O O12 0.406343 0.000000 0.500000
#
# Coordination Sequence:
#
# PCOD8325768 Si02
#       5
#    12  12  12  12  12
#     4  10  21  32  50  70  95 128 176 226 272 328
#     4  10  19  32  51  70  94 136 175 217 273 332
#     4  11  20  31  49  71  98 132 175 234 277 307
#     4  11  20  34  48  73  99 131 185 228 267 324
#     4  10  17  32  50  65  92 135 171 215 276 323
#
# _framework density 18.417988999999999
#
# number of rings (size 3 to 8) (size 9 to 14) (size 15 to 20)
#    0.000    1.600    6.000    2.400    0.000    2.400 
#    0.000    0.000    0.000    0.000    0.000    0.000 
#    0.000    0.000    0.000    0.000   38.000    0.000 
#
# Total GULP energy -743376.921205 kJ/mol
# GULP energy per Si atom -12389.615353 kJ/mol
# Density = 1.837607 g / cm^3
# Si number density = 18.417989 Si / 1000 Ang^3
#
#
#
# Elastic Constant Matrix: (Units=GPa)
#
#
# Indices 1 2 3 4 5 6 
#
# 1 47.8625 14.2986 15.2539 0.0000 0.0000 0.0000
# 2 14.2986 47.8625 15.2539 0.0000 0.0000 0.0000
# 3 15.2539 15.2539 121.8231 0.0000 0.0000 0.0000
# 4 0.0000 0.0000 0.0000 21.4965 0.0000 0.0000
# 5 0.0000 0.0000 0.0000 0.0000 21.4965 0.0000
# 6 0.0000 0.0000 0.0000 0.0000 0.0000 16.7819
#
#
#
# Elastic Compliance Matrix: (Units=1/GPa)
#
#
# Indices 1 2 3 4 5 6 
#
# 1 0.023467 -0.006327 -0.002146 0.000000 0.000000 0.000000
# 2 -0.006327 0.023467 -0.002146 0.000000 0.000000 0.000000
# 3 -0.002146 -0.002146 0.008746 0.000000 0.000000 0.000000
# 4 0.000000 0.000000 0.000000 0.046519 0.000000 0.000000
# 5 0.000000 0.000000 0.000000 0.000000 0.046519 0.000000
# 6 0.000000 0.000000 0.000000 0.000000 0.000000 0.059588
#
#
# Mechanical properties :
#
#
# Convention : Reuss Voigt Hill
#
# Bulk Modulus (GPa) = 29.03403 34.12898 31.58150
# Shear Modulus (GPa) = 20.74467 23.47111 22.10789
#
# Velocity S-wave (km/s) = 3.35972 3.57369 3.46835
# Velocity P-wave (km/s) = 5.55414 5.96647 5.76399
#
# Compressibility (1/GPa) = 0.03444235
#
# Stress axis : x y z
#
# Youngs Moduli (GPa) = 42.61255 42.61255 114.33664
#
# Poissons Ratio (x) = 0.26960 0.24539
# Poissons Ratio (y) = 0.26960 0.24539
# Poissons Ratio (z) = 0.09146 0.09146
#
# Static dielectric constant tensor:
#      x y z
#    x 3.058390 0.000000 0.000000 
#    y 0.000000 3.058390 0.000000 
#    z 0.000000 0.000000 4.106820 
# 
# 
# High freq. dielectric constant tensor:
#      x y z
#    x 1.659520 0.000000 0.000000 
#    y 0.000000 1.659520 0.000000 
#    z 0.000000 0.000000 1.749150 
# 
# From -- ./inp_files/5846.got.cif
#   From: 2010.03.12/outbox.cif.g09.slc.cpg/sg178_3_cif.got.tgz:5846.got - 2010.04.02 07:02:38.
