data_PCOD8325422
_publ_section_title
;
Structure prediction by ZEFSAII (Michael W. Deem and Ramdas Pophale) SiO2 
 PCOD8325422
Probable space group: P 63/M
;
_chemical_formula_sum "Si O2"
_cell_formula_units_Z 60
_cell_length_a 22.159357
_cell_length_b 22.159357
_cell_length_c 7.938812
_cell_angle_alpha 90.000000
_cell_angle_beta 90.000000
_cell_angle_gamma 120.000000
_cell_volume 3375.984607
_symmetry_space_group_name_H-M "P 63/M"
_symmetry_group_IT_number 176
_symmetry_cell_setting 'hexagonal'
loop_
_space_group_symop_operation_xyz
x,y,z
x-y,x,1/2+z
-y,x-y,z
-x,-y,1/2+z
-x+y,-x,z
y,-x+y,1/2+z
-x,-y,-z
-x+y,-x,1/2-z
y,-x+y,-z
x,y,1/2-z
x-y,x,-z
-y,x-y,1/2-z
loop_
_atom_site_type_symbol
_atom_site_label
_atom_site_fract_x
_atom_site_fract_y
_atom_site_fract_z
Si Si1 0.560947 0.708570 0.063349
Si Si2 0.560101 0.849666 0.067295
Si Si3 0.075225 0.786774 0.557514
Si Si4 0.920704 0.718740 0.945979
Si Si5 0.524609 0.191286 0.250000
Si Si6 0.189914 0.526044 0.750000
O O1 0.544524 0.672642 0.250000
O O2 0.546959 0.772258 0.069915
O O3 0.640839 0.736395 0.011316
O O4 0.511804 0.656204 0.917495
O O5 0.537314 0.865331 0.250000
O O6 0.642051 0.902998 0.047231
O O7 0.514548 0.854800 0.915472
O O8 0.069798 0.763219 0.750000
O O9 0.130865 0.868705 0.542434
O O10 0.999579 0.772046 0.495165
O O11 0.908774 0.725095 0.750000
O O12 0.603601 0.209080 0.250000
O O13 0.523272 0.262662 0.250000
#
# Coordination Sequence:
#
# PCOD8325422 Si02
#       6
#    12  12  12  12   6   6
#     4   8  16  31  47  68  97 127 165 208 249 293
#     4   9  17  31  49  70  98 131 168 211 255 294
#     4  10  18  31  52  78 105 132 166 210 252 295
#     4   9  19  32  49  78 107 130 166 212 251 295
#     4  10  19  32  48  74 101 128 168 212 256 314
#     4  10  19  30  50  72  97 130 166 204 258 310
#
# _framework density 17.772594000000002
#
# number of rings (size 3 to 8) (size 9 to 14) (size 15 to 20)
#    0.000    2.800    1.000    2.000    4.200    2.400 
#    0.000    0.000    0.000    4.000    0.000    0.000 
#    0.000    0.000    0.000    0.000    0.000    0.000 
#
# Total GULP energy -743625.105831 kJ/mol
# GULP energy per Si atom -12393.751764 kJ/mol
# Density = 1.773214 g / cm^3
# Si number density = 17.772594 Si / 1000 Ang^3
#
#
#
# Elastic Constant Matrix: (Units=GPa)
#
#
# Indices 1 2 3 4 5 6 
#
# 1 64.3031 28.8235 39.1589 0.0000 0.0000 0.0000
# 2 28.8235 64.3031 39.1589 0.0000 0.0000 0.0000
# 3 39.1589 39.1589 126.2956 0.0000 0.0000 0.0000
# 4 0.0000 0.0000 0.0000 19.7887 0.0000 0.0000
# 5 0.0000 0.0000 0.0000 0.0000 19.7887 0.0000
# 6 0.0000 0.0000 0.0000 0.0000 0.0000 17.7398
#
#
#
# Elastic Compliance Matrix: (Units=1/GPa)
#
#
# Indices 1 2 3 4 5 6 
#
# 1 0.021355 -0.006830 -0.004504 0.000000 0.000000 0.000000
# 2 -0.006830 0.021355 -0.004504 0.000000 0.000000 0.000000
# 3 -0.004504 -0.004504 0.010711 0.000000 0.000000 0.000000
# 4 0.000000 0.000000 0.000000 0.050534 0.000000 0.000000
# 5 0.000000 0.000000 0.000000 0.000000 0.050534 0.000000
# 6 0.000000 0.000000 0.000000 0.000000 0.000000 0.056370
#
#
# Mechanical properties :
#
#
# Convention : Reuss Voigt Hill
#
# Bulk Modulus (GPa) = 45.98337 52.13157 49.05747
# Shear Modulus (GPa) = 20.01733 21.31414 20.66573
#
# Velocity S-wave (km/s) = 3.35968 3.46680 3.41367
# Velocity P-wave (km/s) = 6.40151 6.73953 6.57269
#
# Compressibility (1/GPa) = 0.02174699
#
# Stress axis : x y z
#
# Youngs Moduli (GPa) = 46.82644 46.82644 93.36364
#
# Poissons Ratio (x) = 0.31981 0.42049
# Poissons Ratio (y) = 0.31981 0.42049
# Poissons Ratio (z) = 0.21090 0.21090
#
# Static dielectric constant tensor:
#      x y z
#    x 3.042000 0.000000 0.000000 
#    y 0.000000 3.042000 0.000000 
#    z 0.000000 0.000000 3.747870 
# 
# 
# High freq. dielectric constant tensor:
#      x y z
#    x 1.652570 0.000000 0.000000 
#    y 0.000000 1.652570 0.000000 
#    z 0.000000 0.000000 1.707920 
# 
# From -- ./inp_files/910.got.cif
#   From: 2010.06.25/outbox.cif.g09.slc.cpg/sg176_1_cif.got.tgz:910.got - 2010.06.28 12:15:01.
