data_PCOD8325593
_publ_section_title
;
Structure prediction by ZEFSAII (Michael W. Deem and Ramdas Pophale) SiO2 
 PCOD8325593
Probable space group: P 63/M
;
_chemical_formula_sum "Si O2"
_cell_formula_units_Z 48
_cell_length_a 12.115450
_cell_length_b 12.115450
_cell_length_c 18.414179
_cell_angle_alpha 90.000000
_cell_angle_beta 90.000000
_cell_angle_gamma 120.000000
_cell_volume 2340.788049
_symmetry_space_group_name_H-M "P 63/M"
_symmetry_group_IT_number 176
_symmetry_cell_setting 'hexagonal'
loop_
_space_group_symop_operation_xyz
x,y,z
x-y,x,1/2+z
-y,x-y,z
-x,-y,1/2+z
-x+y,-x,z
y,-x+y,1/2+z
-x,-y,-z
-x+y,-x,1/2-z
y,-x+y,-z
x,y,1/2-z
x-y,x,-z
-y,x-y,1/2-z
loop_
_atom_site_type_symbol
_atom_site_label
_atom_site_fract_x
_atom_site_fract_y
_atom_site_fract_z
Si Si1 0.666668 0.333335 0.411702
Si Si2 0.333335 0.666668 0.083680
Si Si3 0.147734 0.728857 0.833871
Si Si4 0.568958 0.716342 0.167886
Si Si5 0.991360 0.214112 0.832152
Si Si6 0.000000 0.000000 0.414725
O O1 0.666668 0.333334 0.497812
O O2 0.544025 0.205623 0.383208
O O3 0.451085 0.653017 0.112989
O O4 0.167577 0.706329 0.750000
O O5 0.222029 0.879334 0.852706
O O6 0.998816 0.668454 0.852620
O O7 0.518385 0.673753 0.250000
O O8 0.636300 0.869817 0.161356
O O9 0.003357 0.173087 0.750000
O O10 0.964093 0.102366 0.887078
O O11 0.000000 0.000000 0.500000
#
# Coordination Sequence:
#
# PCOD8325593 Si02
#       6
#     4   4  12  12  12   4
#     4  12  28  44  61  90 136 173 202 252 316 389
#     4  12  28  44  61  90 136 173 202 252 316 389
#     4  10  22  42  69  94 120 162 218 267 305 362
#     4  10  22  42  69  94 120 162 218 267 305 362
#     4  10  20  40  66  94 126 162 214 268 310 362
#     4  12  22  32  55  96 139 170 199 249 319 389
#
# _framework density 20.505915000000002
#
# number of rings (size 3 to 8) (size 9 to 14) (size 15 to 20)
#    0.000    1.500    2.500    2.250    3.500    3.000 
#    0.000    0.000    0.000    0.000    0.000    0.000 
#    0.000    0.000    0.000    0.000    0.000    0.000 
#
# Total GULP energy -595397.894258 kJ/mol
# GULP energy per Si atom -12404.122797 kJ/mol
# Density = 2.045924 g / cm^3
# Si number density = 20.505915 Si / 1000 Ang^3
#
#
#
# Elastic Constant Matrix: (Units=GPa)
#
#
# Indices 1 2 3 4 5 6 
#
# 1 97.8143 37.5832 46.6603 0.0000 0.0000 -0.0004
# 2 37.5832 97.8119 46.6602 0.0000 0.0000 -0.0010
# 3 46.6603 46.6602 115.4399 0.0000 0.0000 -0.0004
# 4 0.0000 0.0000 0.0000 13.8740 0.0000 0.0000
# 5 0.0000 0.0000 0.0000 0.0000 13.8757 0.0000
# 6 -0.0004 -0.0010 -0.0004 0.0000 0.0000 30.1143
#
#
#
# Elastic Compliance Matrix: (Units=1/GPa)
#
#
# Indices 1 2 3 4 5 6 
#
# 1 0.013420 -0.003183 -0.004138 0.000000 0.000000 0.000000
# 2 -0.003183 0.013421 -0.004138 0.000000 0.000000 0.000000
# 3 -0.004138 -0.004138 0.012008 0.000000 0.000000 0.000000
# 4 0.000000 0.000000 0.000000 0.072077 0.000000 0.000000
# 5 0.000000 0.000000 0.000000 0.000000 0.072069 0.000000
# 6 0.000000 0.000000 0.000000 0.000000 0.000000 0.033207
#
#
# Mechanical properties :
#
#
# Convention : Reuss Voigt Hill
#
# Bulk Modulus (GPa) = 62.77044 63.65259 63.21152
# Shear Modulus (GPa) = 20.45582 23.58362 22.01972
#
# Velocity S-wave (km/s) = 3.16184 3.39497 3.28048
# Velocity P-wave (km/s) = 6.63378 6.81735 6.72619
#
# Compressibility (1/GPa) = 0.01593107
#
# Stress axis : x y z
#
# Youngs Moduli (GPa) = 74.51418 74.51205 83.27988
#
# Poissons Ratio (x) = 0.23714 0.34461
# Poissons Ratio (y) = 0.23715 0.34463
# Poissons Ratio (z) = 0.30834 0.30834
#
# Static dielectric constant tensor:
#      x y z
#    x 3.673970 0.000020 0.000000 
#    y 0.000020 3.673990 0.000000 
#    z 0.000000 0.000000 3.475710 
# 
# 
# High freq. dielectric constant tensor:
#      x y z
#    x 1.805130 0.000000 0.000000 
#    y 0.000000 1.805130 0.000000 
#    z 0.000000 0.000000 1.777490 
# 
# From -- ./inp_files/3675.got.cif
#   From: 2010.06.25/outbox.cif.g09.slc.cpg/sg176_2_cif.got.tgz:3675.got - 2010.06.28 12:15:01.
