data_PCOD8325787
_publ_section_title
;
Structure prediction by ZEFSAII (Michael W. Deem and Ramdas Pophale) SiO2 
 PCOD8325787
Probable space group: P 61 2 2
;
_chemical_formula_sum "Si O2"
_cell_formula_units_Z 42
_cell_length_a 12.091586
_cell_length_b 12.091586
_cell_length_c 17.321161
_cell_angle_alpha 90.000000
_cell_angle_beta 90.000000
_cell_angle_gamma 120.000000
_cell_volume 2193.179452
_symmetry_space_group_name_H-M "P 61 2 2"
_symmetry_group_IT_number 178
_symmetry_cell_setting 'hexagonal'
loop_
_space_group_symop_operation_xyz
x,y,z
x-y,x,1/6+z
-y,x-y,1/3+z
-x,-y,1/2+z
-x+y,-x,2/3+z
y,-x+y,5/6+z
x-y,-y,-z
-x,-x+y,2/3-z
y,x,1/3-z
-y,-x,5/6-z
-x+y,y,1/2-z
x,x-y,1/6-z
loop_
_atom_site_type_symbol
_atom_site_label
_atom_site_fract_x
_atom_site_fract_y
_atom_site_fract_z
Si Si1 0.285195 0.714806 0.416667
Si Si2 0.215302 0.432192 0.446797
Si Si3 0.924950 0.297607 0.456993
Si Si4 0.192395 0.647690 0.260211
O O1 0.223576 0.566487 0.435385
O O2 0.200555 0.714739 0.343511
O O3 0.291911 0.406459 0.379938
O O4 0.280072 0.436259 0.529055
O O5 0.067791 0.323805 0.449556
O O6 0.838019 0.161982 0.416667
O O7 0.910662 0.407511 0.411818
O O8 0.330558 0.661116 0.250000
#
# Coordination Sequence:
#
# PCOD8325787 Si02
#       4
#     6  12  12  12
#     4  10  18  34  48  78 112 154 184 230 296 358
#     4  11  20  34  53  80 118 147 196 238 299 356
#     4  11  20  34  54  79 117 149 194 245 293 353
#     4   9  18  32  49  73 113 150 186 230 293 351
#
# _framework density 19.150278
#
# number of rings (size 3 to 8) (size 9 to 14) (size 15 to 20)
#    0.000    1.714    8.571    0.857    0.000    6.857 
#    0.000    0.000    0.000    0.000    0.000    0.000 
#   68.571    0.000    0.000    0.000    0.000    0.000 
#
# Total GULP energy -520485.203034 kJ/mol
# GULP energy per Si atom -12392.504834 kJ/mol
# Density = 1.910669 g / cm^3
# Si number density = 19.150278 Si / 1000 Ang^3
#
#
#
# Elastic Constant Matrix: (Units=GPa)
#
#
# Indices 1 2 3 4 5 6 
#
# 1 44.8759 20.7445 8.9431 0.0000 0.0000 0.0000
# 2 20.7445 44.8759 8.9431 0.0000 0.0000 0.0000
# 3 8.9431 8.9431 139.0181 0.0000 0.0000 0.0000
# 4 0.0000 0.0000 0.0000 8.4901 0.0000 0.0000
# 5 0.0000 0.0000 0.0000 0.0000 8.4901 0.0000
# 6 0.0000 0.0000 0.0000 0.0000 0.0000 12.0657
#
#
#
# Elastic Compliance Matrix: (Units=1/GPa)
#
#
# Indices 1 2 3 4 5 6 
#
# 1 0.028475 -0.012964 -0.000998 0.000000 0.000000 0.000000
# 2 -0.012964 0.028475 -0.000998 0.000000 0.000000 0.000000
# 3 -0.000998 -0.000998 0.007322 0.000000 0.000000 0.000000
# 4 0.000000 0.000000 0.000000 0.117785 0.000000 0.000000
# 5 0.000000 0.000000 0.000000 0.000000 0.117785 0.000000
# 6 0.000000 0.000000 0.000000 0.000000 0.000000 0.082880
#
#
# Mechanical properties :
#
#
# Convention : Reuss Voigt Hill
#
# Bulk Modulus (GPa) = 29.10986 34.00348 31.55667
# Shear Modulus (GPa) = 11.78989 18.48511 15.13750
#
# Velocity S-wave (km/s) = 2.48392 3.11024 2.81456
# Velocity P-wave (km/s) = 4.84358 5.54011 5.20351
#
# Compressibility (1/GPa) = 0.03435262
#
# Stress axis : x y z
#
# Youngs Moduli (GPa) = 35.11795 35.11795 136.58044
#
# Poissons Ratio (x) = 0.45528 0.13629
# Poissons Ratio (y) = 0.45528 0.13629
# Poissons Ratio (z) = 0.03504 0.03504
#
# Static dielectric constant tensor:
#      x y z
#    x 3.151200 0.000000 0.000000 
#    y 0.000000 3.151200 0.000000 
#    z 0.000000 0.000000 4.471920 
# 
# 
# High freq. dielectric constant tensor:
#      x y z
#    x 1.694230 0.000000 0.000000 
#    y 0.000000 1.694230 0.000000 
#    z 0.000000 0.000000 1.775610 
# 
# From -- ./inp_files/6358.got.cif
#   From: 2010.03.12/outbox.cif.g09.slc.cpg/sg178_4_cif.got.tgz:6358.got - 2010.04.02 07:02:38.
