data_PCOD8325758
_publ_section_title
;
Structure prediction by ZEFSAII (Michael W. Deem and Ramdas Pophale) SiO2 
 PCOD8325758
Probable space group: P 61 2 2
;
_chemical_formula_sum "Si O2"
_cell_formula_units_Z 60
_cell_length_a 13.425886
_cell_length_b 13.425886
_cell_length_c 19.242002
_cell_angle_alpha 90.000000
_cell_angle_beta 90.000000
_cell_angle_gamma 120.000000
_cell_volume 3003.770845
_symmetry_space_group_name_H-M "P 61 2 2"
_symmetry_group_IT_number 178
_symmetry_cell_setting 'hexagonal'
loop_
_space_group_symop_operation_xyz
x,y,z
x-y,x,1/6+z
-y,x-y,1/3+z
-x,-y,1/2+z
-x+y,-x,2/3+z
y,-x+y,5/6+z
x-y,-y,-z
-x,-x+y,2/3-z
y,x,1/3-z
-y,-x,5/6-z
-x+y,y,1/2-z
x,x-y,1/6-z
loop_
_atom_site_type_symbol
_atom_site_label
_atom_site_fract_x
_atom_site_fract_y
_atom_site_fract_z
Si Si1 0.608625 0.237565 0.174717
Si Si2 0.261152 0.412838 0.580799
Si Si3 0.602446 0.457719 0.205955
Si Si4 0.354522 0.000000 0.000000
Si Si5 0.656076 0.910488 0.135508
Si Si6 0.591276 0.795638 0.583334
O O1 0.588005 0.176009 0.250000
O O2 0.712295 0.232518 0.135368
O O3 0.648836 0.371076 0.186618
O O4 0.490187 0.175896 0.131442
O O5 0.359891 0.454392 0.640252
O O6 0.266865 0.315359 0.533969
O O7 0.136321 0.356161 0.618679
O O8 0.464769 0.385740 0.215116
O O9 0.658792 0.525691 0.276549
O O10 0.240628 0.914327 0.956661
O O11 0.711411 0.855706 0.083334
#
# Coordination Sequence:
#
# PCOD8325758 Si02
#       6
#    12  12  12   6  12   6
#     4  11  20  32  51  79 113 158 199 237 287 360
#     4  11  19  34  48  79 114 159 204 243 294 354
#     4  10  16  29  52  76 110 155 206 239 282 357
#     4  10  16  32  50  76 110 156 208 242 300 344
#     4  10  19  31  55  75 110 159 199 246 281 360
#     4  10  20  32  54  74 112 158 204 248 282 370
#
# _framework density 19.974893999999999
#
# number of rings (size 3 to 8) (size 9 to 14) (size 15 to 20)
#    0.000    1.600    6.000    3.600    0.000    0.000 
#    0.000   10.000    0.000    0.000    0.000    0.000 
#    0.000    0.000  153.000    8.200   10.600    0.000 
#
# Total GULP energy -743482.005847 kJ/mol
# GULP energy per Si atom -12391.366764 kJ/mol
# Density = 1.992943 g / cm^3
# Si number density = 19.974894 Si / 1000 Ang^3
#
#
#
# Elastic Constant Matrix: (Units=GPa)
#
#
# Indices 1 2 3 4 5 6 
#
# 1 94.5771 50.3573 44.3954 0.0000 0.0000 0.0000
# 2 50.3573 94.5771 44.3954 0.0000 0.0000 0.0000
# 3 44.3954 44.3954 108.8174 0.0000 0.0000 0.0000
# 4 0.0000 0.0000 0.0000 33.1052 0.0000 0.0000
# 5 0.0000 0.0000 0.0000 0.0000 33.1052 0.0000
# 6 0.0000 0.0000 0.0000 0.0000 0.0000 22.1099
#
#
#
# Elastic Compliance Matrix: (Units=1/GPa)
#
#
# Indices 1 2 3 4 5 6 
#
# 1 0.015907 -0.006708 -0.003753 0.000000 0.000000 0.000000
# 2 -0.006708 0.015907 -0.003753 0.000000 0.000000 0.000000
# 3 -0.003753 -0.003753 0.012252 0.000000 0.000000 0.000000
# 4 0.000000 0.000000 0.000000 0.030207 0.000000 0.000000
# 5 0.000000 0.000000 0.000000 0.000000 0.030207 0.000000
# 6 0.000000 0.000000 0.000000 0.000000 0.000000 0.045229
#
#
# Mechanical properties :
#
#
# Convention : Reuss Voigt Hill
#
# Bulk Modulus (GPa) = 63.94744 64.02976 63.98860
# Shear Modulus (GPa) = 27.27068 28.25230 27.76149
#
# Velocity S-wave (km/s) = 3.69893 3.76492 3.73207
# Velocity P-wave (km/s) = 7.09410 7.14312 7.11865
#
# Compressibility (1/GPa) = 0.01563784
#
# Stress axis : x y z
#
# Youngs Moduli (GPa) = 62.86706 62.86706 81.61961
#
# Poissons Ratio (x) = 0.42170 0.30631
# Poissons Ratio (y) = 0.42170 0.30631
# Poissons Ratio (z) = 0.23594 0.23594
#
# Static dielectric constant tensor:
#      x y z
#    x 3.434320 0.000000 0.000000 
#    y 0.000000 3.434320 0.000000 
#    z 0.000000 0.000000 3.778670 
# 
# 
# High freq. dielectric constant tensor:
#      x y z
#    x 1.750210 0.000000 0.000000 
#    y 0.000000 1.750210 0.000000 
#    z 0.000000 0.000000 1.766710 
# 
# From -- ./inp_files/7602.got.cif
#   From: 2010.03.12/outbox.cif.g09.slc.cpg/sg178_4_cif.got.tgz:7602.got - 2010.04.02 07:02:38.
