data_PCOD8325311
_publ_section_title
;
Structure prediction by ZEFSAII (Michael W. Deem and Ramdas Pophale) SiO2 
 PCOD8325311
Probable space group: P 6/M
;
_chemical_formula_sum "Si O2"
_cell_formula_units_Z 72
_cell_length_a 15.067943
_cell_length_b 15.067943
_cell_length_c 17.082125
_cell_angle_alpha 90.000000
_cell_angle_beta 90.000000
_cell_angle_gamma 120.000000
_cell_volume 3358.771539
_symmetry_space_group_name_H-M "P 6/M"
_symmetry_group_IT_number 175
_symmetry_cell_setting 'hexagonal'
loop_
_space_group_symop_operation_xyz
x,y,z
x-y,x,z
-y,x-y,z
-x,-y,z
-x+y,-x,z
y,-x+y,z
-x,-y,-z
-x+y,-x,-z
y,-x+y,-z
x,y,-z
x-y,x,-z
-y,x-y,-z
loop_
_atom_site_type_symbol
_atom_site_label
_atom_site_fract_x
_atom_site_fract_y
_atom_site_fract_z
Si Si1 0.766480 0.912531 0.841810
Si Si2 0.117142 0.549678 0.841139
Si Si3 0.146051 0.233520 0.341810
Si Si4 0.549678 0.432536 0.341139
Si Si5 0.550626 0.783251 0.590595
Si Si6 0.216749 0.767375 0.090595
O O1 0.816262 0.844549 0.866962
O O2 0.743233 0.904137 0.750000
O O3 0.661577 0.877189 0.887718
O O4 0.130056 0.578243 0.750000
O O5 0.186447 0.651510 0.890535
O O6 0.154042 0.468681 0.858772
O O7 0.000000 0.500000 0.867690
O O8 0.183738 0.155451 0.366962
O O9 0.215612 0.338423 0.387718
O O10 0.500000 0.500000 0.367690
O O11 0.468681 0.314638 0.358772
O O12 0.651510 0.465063 0.390535
O O13 0.545034 0.755637 0.500000
O O14 0.244363 0.789396 0.000000
#
# Coordination Sequence:
#
# PCOD8325311 Si02
#       6
#    12  12  12  12  12  12
#     4  10  21  39  63  90 121 160 206 251 294 346
#     4  11  24  43  66  89 117 158 206 251 294 350
#     4  10  21  39  63  90 121 160 206 251 294 346
#     4  11  24  43  66  89 117 158 206 251 294 350
#     4  12  25  40  61  91 126 159 194 245 306 363
#     4  12  25  40  61  91 126 159 194 245 306 363
#
# _framework density 21.436409999999999
#
# number of rings (size 3 to 8) (size 9 to 14) (size 15 to 20)
#    0.000    1.000    0.000    7.000    0.000   13.333 
#    0.000    0.000    0.000    2.000    0.000    0.000 
#    0.000    0.000    0.000    0.000    0.000    0.000 
#
# Total GULP energy -893565.409646 kJ/mol
# GULP energy per Si atom -12410.630690 kJ/mol
# Density = 2.138762 g / cm^3
# Si number density = 21.436410 Si / 1000 Ang^3
#
#
#
# Elastic Constant Matrix: (Units=GPa)
#
#
# Indices 1 2 3 4 5 6 
#
# 1 89.0458 3.3911 25.2971 0.0000 0.0000 0.0000
# 2 3.3911 89.0458 25.2971 0.0000 0.0000 0.0000
# 3 25.2971 25.2971 54.7792 0.0000 0.0000 0.0000
# 4 0.0000 0.0000 0.0000 9.1058 0.0000 0.0000
# 5 0.0000 0.0000 0.0000 0.0000 9.1058 0.0000
# 6 0.0000 0.0000 0.0000 0.0000 0.0000 42.8274
#
#
#
# Elastic Compliance Matrix: (Units=1/GPa)
#
#
# Indices 1 2 3 4 5 6 
#
# 1 0.013076 0.001401 -0.006686 0.000000 0.000000 0.000000
# 2 0.001401 0.013076 -0.006686 0.000000 0.000000 0.000000
# 3 -0.006686 -0.006686 0.024430 0.000000 0.000000 0.000000
# 4 0.000000 0.000000 0.000000 0.109820 0.000000 0.000000
# 5 0.000000 0.000000 0.000000 0.000000 0.109820 0.000000
# 6 0.000000 0.000000 0.000000 0.000000 0.000000 0.023350
#
#
# Mechanical properties :
#
#
# Convention : Reuss Voigt Hill
#
# Bulk Modulus (GPa) = 37.53447 37.87127 37.70287
# Shear Modulus (GPa) = 15.31894 24.13349 19.72621
#
# Velocity S-wave (km/s) = 2.67614 3.35896 3.03680
# Velocity P-wave (km/s) = 5.20545 5.72264 5.47016
#
# Compressibility (1/GPa) = 0.02664218
#
# Stress axis : x y z
#
# Youngs Moduli (GPa) = 76.47492 76.47492 40.93307
#
# Poissons Ratio (x) = -0.10717 0.27367
# Poissons Ratio (y) = -0.10717 0.27367
# Poissons Ratio (z) = 0.51129 0.51129
#
# Static dielectric constant tensor:
#      x y z
#    x 3.897970 0.000000 0.000000 
#    y 0.000000 3.897970 0.000000 
#    z 0.000000 0.000000 3.660950 
# 
# 
# High freq. dielectric constant tensor:
#      x y z
#    x 1.854210 0.000000 0.000000 
#    y 0.000000 1.854210 0.000000 
#    z 0.000000 0.000000 1.833160 
# 
# From -- ./inp_files/2863.got.cif
#   From: 2010.03.12/outbox.cif.g09.slc.cpg/sg175_2_cif.got.tgz:2863.got - 2010.04.02 06:55:29.
