data_PCOD8325350
_publ_section_title
;
Structure prediction by ZEFSAII (Michael W. Deem and Ramdas Pophale) SiO2 
 PCOD8325350
Probable space group: P 6/M
;
_chemical_formula_sum "Si O2"
_cell_formula_units_Z 58
_cell_length_a 14.569960
_cell_length_b 14.569960
_cell_length_c 15.363548
_cell_angle_alpha 90.000000
_cell_angle_beta 90.000000
_cell_angle_gamma 120.000000
_cell_volume 2824.482396
_symmetry_space_group_name_H-M "P 6/M"
_symmetry_group_IT_number 175
_symmetry_cell_setting 'hexagonal'
loop_
_space_group_symop_operation_xyz
x,y,z
x-y,x,z
-y,x-y,z
-x,-y,z
-x+y,-x,z
y,-x+y,z
-x,-y,-z
-x+y,-x,-z
y,-x+y,-z
x,y,-z
x-y,x,-z
-y,x-y,-z
loop_
_atom_site_type_symbol
_atom_site_label
_atom_site_fract_x
_atom_site_fract_y
_atom_site_fract_z
Si Si1 0.107436 0.245591 0.000000
Si Si2 0.449597 0.133700 0.400992
Si Si3 0.988665 0.392565 0.234816
Si Si4 0.666667 0.333334 0.397106
Si Si5 0.656855 0.822882 0.815044
Si Si6 0.128523 0.238817 0.355738
O O1 0.164356 0.178743 0.000000
O O2 0.135869 0.316681 0.085203
O O3 0.462205 0.104914 0.500000
O O4 0.416412 0.031849 0.339251
O O5 0.557786 0.232748 0.364064
O O6 0.357440 0.164847 0.394702
O O7 0.884176 0.294278 0.190487
O O8 0.000000 0.500000 0.196330
O O9 0.101228 0.399568 0.217960
O O10 0.666667 0.333334 0.500000
O O11 0.757011 0.889347 0.750425
O O12 0.182330 0.172877 0.390337
#
# Coordination Sequence:
#
# PCOD8325350 Si02
#       6
#     6  12  12   4  12  12
#     4  12  21  38  70 102 138 166 214 269 332 404
#     4  10  23  40  64  93 129 169 220 277 331 390
#     4  11  25  44  67  97 133 179 223 272 335 397
#     4   9  21  39  60  96 126 157 218 286 339 390
#     4  11  22  43  64 101 131 169 220 272 332 394
#     4  11  21  39  59  87 127 169 216 263 327 392
#
# _framework density 20.534737
#
# number of rings (size 3 to 8) (size 9 to 14) (size 15 to 20)
#    0.000    1.241    6.207    0.310    5.793    1.241 
#    1.241    4.138    0.000    1.241    0.000    0.000 
#    0.000    0.000    0.000    0.000    0.000    0.000 
#
# Total GULP energy -718836.146653 kJ/mol
# GULP energy per Si atom -12393.726666 kJ/mol
# Density = 2.048800 g / cm^3
# Si number density = 20.534737 Si / 1000 Ang^3
#
#
#
# Elastic Constant Matrix: (Units=GPa)
#
#
# Indices 1 2 3 4 5 6 
#
# 1 150.4822 61.0243 27.4948 0.0000 0.0000 0.0000
# 2 61.0243 150.4806 27.4948 0.0000 0.0000 0.0002
# 3 27.4948 27.4948 108.2529 0.0000 0.0000 0.0000
# 4 0.0000 0.0000 0.0000 16.7955 0.0000 0.0000
# 5 0.0000 0.0000 0.0000 0.0000 16.7955 0.0000
# 6 0.0000 0.0002 0.0000 0.0000 0.0000 44.7282
#
#
#
# Elastic Compliance Matrix: (Units=1/GPa)
#
#
# Indices 1 2 3 4 5 6 
#
# 1 0.008120 -0.003058 -0.001286 0.000000 0.000000 0.000000
# 2 -0.003058 0.008120 -0.001286 0.000000 0.000000 0.000000
# 3 -0.001286 -0.001286 0.009891 0.000000 0.000000 0.000000
# 4 0.000000 0.000000 0.000000 0.059540 0.000000 0.000000
# 5 0.000000 0.000000 0.000000 0.000000 0.059540 0.000000
# 6 0.000000 0.000000 0.000000 0.000000 0.000000 0.022357
#
#
# Mechanical properties :
#
#
# Convention : Reuss Voigt Hill
#
# Bulk Modulus (GPa) = 67.23901 71.24928 69.24414
# Shear Modulus (GPa) = 27.20572 35.21064 31.20818
#
# Velocity S-wave (km/s) = 3.64382 4.14537 3.90266
# Velocity P-wave (km/s) = 7.10762 7.59502 7.35536
#
# Compressibility (1/GPa) = 0.01487232
#
# Stress axis : x y z
#
# Youngs Moduli (GPa) = 123.14701 123.14564 101.10450
#
# Poissons Ratio (x) = 0.37660 0.12999
# Poissons Ratio (y) = 0.37660 0.13000
# Poissons Ratio (z) = 0.15834 0.15834
#
# Static dielectric constant tensor:
#      x y z
#    x 3.835270 0.000000 0.000000 
#    y 0.000000 3.835280 0.000000 
#    z 0.000000 0.000000 3.934210 
# 
# 
# High freq. dielectric constant tensor:
#      x y z
#    x 1.801570 0.000000 0.000000 
#    y 0.000000 1.801570 0.000000 
#    z 0.000000 0.000000 1.785200 
# 
# From -- ./inp_files/2416.got.cif
#   From: 2010.03.12/outbox.cif.g09.slc.cpg/sg175_2_cif.got.tgz:2416.got - 2010.04.02 06:55:29.
