data_PCOD8325999
_publ_section_title
;
Structure prediction by ZEFSAII (Michael W. Deem and Ramdas Pophale) SiO2 
 PCOD8325999
Probable space group: P 61 2 2
;
_chemical_formula_sum "Si O2"
_cell_formula_units_Z 36
_cell_length_a 6.667822
_cell_length_b 6.667822
_cell_length_c 29.580684
_cell_angle_alpha 90.000000
_cell_angle_beta 90.000000
_cell_angle_gamma 120.000000
_cell_volume 1138.955717
_symmetry_space_group_name_H-M "P 61 2 2"
_symmetry_group_IT_number 178
_symmetry_cell_setting 'hexagonal'
loop_
_space_group_symop_operation_xyz
x,y,z
x-y,x,1/6+z
-y,x-y,1/3+z
-x,-y,1/2+z
-x+y,-x,2/3+z
y,-x+y,5/6+z
x-y,-y,-z
-x,-x+y,2/3-z
y,x,1/3-z
-y,-x,5/6-z
-x+y,y,1/2-z
x,x-y,1/6-z
loop_
_atom_site_type_symbol
_atom_site_label
_atom_site_fract_x
_atom_site_fract_y
_atom_site_fract_z
Si Si1 0.114507 0.798717 0.158133
Si Si2 0.186345 0.368436 0.396718
Si Si3 0.364704 0.591300 0.632033
O O1 0.215921 0.952087 0.111620
O O2 0.204083 0.609912 0.166499
O O3 0.842790 0.647745 0.150656
O O4 0.174735 0.965398 0.201152
O O5 0.433237 0.566764 0.416667
O O6 0.036643 0.455443 0.368927
O O7 0.304695 0.652348 0.583334
#
# Coordination Sequence:
#
# PCOD8325999 Si02
#       3
#    12  12  12
#     4  12  24  58 100 141 202 266 337 423 508 608
#     4  12  29  57 100 149 204 266 342 426 510 618
#     4  12  27  57  99 143 204 265 337 418 512 613
#
# _framework density 31.607904000000001
#
# number of rings (size 3 to 8) (size 9 to 14) (size 15 to 20)
#    0.000    0.000    6.667    2.000    0.000    1.333 
#    6.000    5.000    7.333    0.000    0.000    0.000 
#    0.000    0.000    0.000    0.000    0.000    0.000 
#
# Total GULP energy -446615.051688 kJ/mol
# GULP energy per Si atom -12405.973658 kJ/mol
# Density = 3.153596 g / cm^3
# Si number density = 31.607904 Si / 1000 Ang^3
#
#
#
# Elastic Constant Matrix: (Units=GPa)
#
#
# Indices 1 2 3 4 5 6 
#
# 1 192.4410 87.2582 79.3909 0.0000 0.0000 0.0000
# 2 87.2582 192.4410 79.3909 0.0000 0.0000 0.0000
# 3 79.3909 79.3909 250.1263 0.0000 0.0000 0.0000
# 4 0.0000 0.0000 0.0000 50.0643 0.0000 0.0000
# 5 0.0000 0.0000 0.0000 0.0000 50.0643 0.0000
# 6 0.0000 0.0000 0.0000 0.0000 0.0000 52.5914
#
#
#
# Elastic Compliance Matrix: (Units=1/GPa)
#
#
# Indices 1 2 3 4 5 6 
#
# 1 0.006934 -0.002573 -0.001384 0.000000 0.000000 0.000000
# 2 -0.002573 0.006934 -0.001384 0.000000 0.000000 0.000000
# 3 -0.001384 -0.001384 0.004877 0.000000 0.000000 0.000000
# 4 0.000000 0.000000 0.000000 0.019974 0.000000 0.000000
# 5 0.000000 0.000000 0.000000 0.000000 0.019974 0.000000
# 6 0.000000 0.000000 0.000000 0.000000 0.000000 0.019015
#
#
# Mechanical properties :
#
#
# Convention : Reuss Voigt Hill
#
# Bulk Modulus (GPa) = 124.03926 125.23201 124.63563
# Shear Modulus (GPa) = 54.89768 56.47523 55.68646
#
# Velocity S-wave (km/s) = 4.17206 4.23158 4.20192
# Velocity P-wave (km/s) = 7.90799 7.97380 7.94096
#
# Compressibility (1/GPa) = 0.00806196
#
# Stress axis : x y z
#
# Youngs Moduli (GPa) = 144.21352 144.21352 205.05707
#
# Poissons Ratio (x) = 0.37107 0.28384
# Poissons Ratio (y) = 0.37107 0.28384
# Poissons Ratio (z) = 0.19962 0.19962
#
# Static dielectric constant tensor:
#      x y z
#    x 5.952410 0.000000 0.000000 
#    y 0.000000 5.952410 0.000000 
#    z 0.000000 0.000000 7.668720 
# 
# 
# High freq. dielectric constant tensor:
#      x y z
#    x 2.316930 0.000000 0.000000 
#    y 0.000000 2.316930 0.000000 
#    z 0.000000 0.000000 2.382230 
# 
# From -- ./inp_files/9125.got.cif
#   From: 2010.03.12/outbox.cif.g09.slc.cpg/sg178_5_cif.got.tgz:9125.got - 2010.04.02 07:02:38.
