data_PCOD8325947
_publ_section_title
;
Structure prediction by ZEFSAII (Michael W. Deem and Ramdas Pophale) SiO2 
 PCOD8325947
Probable space group: P 61 2 2
;
_chemical_formula_sum "Si O2"
_cell_formula_units_Z 60
_cell_length_a 13.963072
_cell_length_b 13.963072
_cell_length_c 14.827912
_cell_angle_alpha 90.000000
_cell_angle_beta 90.000000
_cell_angle_gamma 120.000000
_cell_volume 2503.644064
_symmetry_space_group_name_H-M "P 61 2 2"
_symmetry_group_IT_number 178
_symmetry_cell_setting 'hexagonal'
loop_
_space_group_symop_operation_xyz
x,y,z
x-y,x,1/6+z
-y,x-y,1/3+z
-x,-y,1/2+z
-x+y,-x,2/3+z
y,-x+y,5/6+z
x-y,-y,-z
-x,-x+y,2/3-z
y,x,1/3-z
-y,-x,5/6-z
-x+y,y,1/2-z
x,x-y,1/6-z
loop_
_atom_site_type_symbol
_atom_site_label
_atom_site_fract_x
_atom_site_fract_y
_atom_site_fract_z
Si Si1 0.793349 0.608858 0.070280
Si Si2 0.247979 0.495958 0.250000
Si Si3 0.518543 0.873313 0.421117
Si Si4 0.055391 0.133423 0.953802
Si Si5 0.517752 0.258876 0.583334
Si Si6 0.083582 0.553897 0.184868
O O1 0.863476 0.739522 0.070392
O O2 0.801450 0.561507 0.166027
O O3 0.669003 0.577715 0.043601
O O4 0.846696 0.560481 0.002475
O O5 0.270442 0.424831 0.173641
O O6 0.206066 0.570093 0.197543
O O7 0.388057 0.793752 0.436596
O O8 0.543442 0.999269 0.417633
O O9 0.112944 0.072373 0.896632
O O10 0.927701 0.072300 0.916667
O O11 0.041324 0.520662 0.083334
#
# Coordination Sequence:
#
# PCOD8325947 Si02
#       6
#    12   6  12  12   6  12
#     4  12  27  45  78 117 152 206 262 324 393 471
#     4  12  24  46  72 104 156 216 252 310 388 470
#     4  12  27  47  75 113 161 208 261 319 399 470
#     4  10  26  50  82 108 149 193 258 338 397 452
#     4  12  26  42  76 118 162 204 252 316 390 464
#     4  12  26  48  75 110 164 209 261 329 390 480
#
# _framework density 23.965067999999999
#
# number of rings (size 3 to 8) (size 9 to 14) (size 15 to 20)
#    0.000    0.400    4.000    3.600    9.800    0.000 
#    0.000    0.000   35.200    0.000    0.000    0.000 
#    0.000    0.000    0.000    0.000    0.000    0.000 
#
# Total GULP energy -743392.814462 kJ/mol
# GULP energy per Si atom -12389.880241 kJ/mol
# Density = 2.391052 g / cm^3
# Si number density = 23.965068 Si / 1000 Ang^3
#
#
#
# Elastic Constant Matrix: (Units=GPa)
#
#
# Indices 1 2 3 4 5 6 
#
# 1 90.0804 46.0475 25.5307 0.0000 0.0000 0.0000
# 2 46.0475 90.0804 25.5307 0.0000 0.0000 0.0000
# 3 25.5307 25.5307 135.1107 0.0000 0.0000 0.0000
# 4 0.0000 0.0000 0.0000 35.1217 0.0000 0.0000
# 5 0.0000 0.0000 0.0000 0.0000 35.1217 0.0000
# 6 0.0000 0.0000 0.0000 0.0000 0.0000 22.0165
#
#
#
# Elastic Compliance Matrix: (Units=1/GPa)
#
#
# Indices 1 2 3 4 5 6 
#
# 1 0.015308 -0.007402 -0.001494 0.000000 0.000000 0.000000
# 2 -0.007402 0.015308 -0.001494 0.000000 0.000000 0.000000
# 3 -0.001494 -0.001494 0.007966 0.000000 0.000000 0.000000
# 4 0.000000 0.000000 0.000000 0.028472 0.000000 0.000000
# 5 0.000000 0.000000 0.000000 0.000000 0.028472 0.000000
# 6 0.000000 0.000000 0.000000 0.000000 0.000000 0.045421
#
#
# Mechanical properties :
#
#
# Convention : Reuss Voigt Hill
#
# Bulk Modulus (GPa) = 56.17098 56.60992 56.39045
# Shear Modulus (GPa) = 29.82187 32.99616 31.40901
#
# Velocity S-wave (km/s) = 3.53142 3.71461 3.62417
# Velocity P-wave (km/s) = 6.33383 6.48621 6.41047
#
# Compressibility (1/GPa) = 0.01780279
#
# Stress axis : x y z
#
# Youngs Moduli (GPa) = 65.32378 65.32378 125.53413
#
# Poissons Ratio (x) = 0.48352 0.18755
# Poissons Ratio (y) = 0.48352 0.18755
# Poissons Ratio (z) = 0.09759 0.09759
#
# Static dielectric constant tensor:
#      x y z
#    x 4.232230 0.000000 0.000000 
#    y 0.000000 4.232230 0.000000 
#    z 0.000000 0.000000 4.791260 
# 
# 
# High freq. dielectric constant tensor:
#      x y z
#    x 1.934670 0.000000 0.000000 
#    y 0.000000 1.934670 0.000000 
#    z 0.000000 0.000000 1.986300 
# 
# From -- ./inp_files/5764.got.cif
#   From: 2010.03.12/outbox.cif.g09.slc.cpg/sg178_3_cif.got.tgz:5764.got - 2010.04.02 07:02:38.
