data_PCOD8325068
_publ_section_title
;
Structure prediction by ZEFSAII (Michael W. Deem and Ramdas Pophale) SiO2 
 PCOD8325068
Probable space group: P 6/M
;
_chemical_formula_sum "Si O2"
_cell_formula_units_Z 84
_cell_length_a 20.321866
_cell_length_b 20.321866
_cell_length_c 14.053844
_cell_angle_alpha 90.000000
_cell_angle_beta 90.000000
_cell_angle_gamma 120.000000
_cell_volume 5026.352319
_symmetry_space_group_name_H-M "P 6/M"
_symmetry_group_IT_number 175
_symmetry_cell_setting 'hexagonal'
loop_
_space_group_symop_operation_xyz
x,y,z
x-y,x,z
-y,x-y,z
-x,-y,z
-x+y,-x,z
y,-x+y,z
-x,-y,-z
-x+y,-x,-z
y,-x+y,-z
x,y,-z
x-y,x,-z
-y,x-y,-z
loop_
_atom_site_type_symbol
_atom_site_label
_atom_site_fract_x
_atom_site_fract_y
_atom_site_fract_z
Si Si1 0.680014 0.565764 0.710594
Si Si2 0.562571 0.084961 0.713059
Si Si3 0.619290 0.660214 0.391140
Si Si4 0.363006 0.827500 0.893337
Si Si5 0.696899 0.500589 0.105623
Si Si6 0.658913 0.828088 0.390093
Si Si7 0.171469 0.071488 0.613399
O O1 0.611431 0.481169 0.680428
O O2 0.658918 0.629755 0.682090
O O3 0.690111 0.559965 0.823985
O O4 0.760080 0.588714 0.661906
O O5 0.617829 0.089215 0.628021
O O6 0.609144 0.109762 0.811388
O O7 0.500000 0.000000 0.735152
O O8 0.633226 0.644450 0.500000
O O9 0.655752 0.748897 0.372257
O O10 0.415459 0.789281 0.888372
O O11 0.276700 0.768196 0.867510
O O12 0.368619 0.861531 0.000000
O O13 0.704551 0.534552 0.000000
O O14 0.649809 0.840977 0.500000
O O15 0.741298 0.893309 0.351981
O O16 0.135989 0.121955 0.652999
O O17 0.169877 0.073272 0.500000
#
# Coordination Sequence:
#
# PCOD8325068 Si02
#       7
#    12  12  12  12  12  12  12
#     4  10  19  31  48  66  89 119 152 190 231 275
#     4   9  19  31  44  65  88 117 155 191 229 274
#     4  10  20  33  47  65  91 122 158 197 234 275
#     4   9  16  28  46  67  91 115 142 179 226 276
#     4   9  17  29  47  70  93 118 148 185 230 283
#     4  10  19  30  46  67  90 119 159 199 233 277
#     4   9  16  26  41  63  91 120 149 184 231 287
#
# _framework density 16.711919999999999
#
# number of rings (size 3 to 8) (size 9 to 14) (size 15 to 20)
#    0.000    2.571    0.000    2.571    0.000    7.429 
#    0.000    2.143    0.000    1.429    0.000    0.000 
#    0.000    0.000    0.000    0.286    0.000    5.286 
#
# Total GULP energy -1040911.386326 kJ/mol
# GULP energy per Si atom -12391.802218 kJ/mol
# Density = 1.667388 g / cm^3
# Si number density = 16.711920 Si / 1000 Ang^3
#
#
#
# Elastic Constant Matrix: (Units=GPa)
#
#
# Indices 1 2 3 4 5 6 
#
# 1 70.3127 28.1493 44.5744 0.0000 0.0000 0.0000
# 2 28.1493 70.3127 44.5744 0.0000 0.0000 0.0000
# 3 44.5744 44.5744 75.2391 0.0000 0.0000 0.0000
# 4 0.0000 0.0000 0.0000 24.5302 0.0000 0.0000
# 5 0.0000 0.0000 0.0000 0.0000 24.5302 0.0000
# 6 0.0000 0.0000 0.0000 0.0000 0.0000 21.0817
#
#
#
# Elastic Compliance Matrix: (Units=1/GPa)
#
#
# Indices 1 2 3 4 5 6 
#
# 1 0.022812 -0.000905 -0.012979 0.000000 0.000000 0.000000
# 2 -0.000905 0.022812 -0.012979 0.000000 0.000000 0.000000
# 3 -0.012979 -0.012979 0.028669 0.000000 0.000000 0.000000
# 4 0.000000 0.000000 0.000000 0.040766 0.000000 0.000000
# 5 0.000000 0.000000 0.000000 0.000000 0.040766 0.000000
# 6 0.000000 0.000000 0.000000 0.000000 0.000000 0.047435
#
#
# Mechanical properties :
#
#
# Convention : Reuss Voigt Hill
#
# Bulk Modulus (GPa) = 48.61709 50.05118 49.33413
# Shear Modulus (GPa) = 18.95079 20.59951 19.77515
#
# Velocity S-wave (km/s) = 3.37110 3.51468 3.44364
# Velocity P-wave (km/s) = 6.65634 6.81800 6.73765
#
# Compressibility (1/GPa) = 0.02056890
#
# Stress axis : x y z
#
# Youngs Moduli (GPa) = 43.83607 43.83607 34.88085
#
# Poissons Ratio (x) = 0.03967 0.45271
# Poissons Ratio (y) = 0.03967 0.45271
# Poissons Ratio (z) = 0.56893 0.56893
#
# Static dielectric constant tensor:
#      x y z
#    x 3.256010 0.000000 0.000000 
#    y 0.000000 3.256010 0.000000 
#    z 0.000000 0.000000 3.074700 
# 
# 
# High freq. dielectric constant tensor:
#      x y z
#    x 1.643030 0.000000 0.000000 
#    y 0.000000 1.643030 0.000000 
#    z 0.000000 0.000000 1.615450 
# 
# From -- ./inp_files/1980.got.cif
#   From: 2010.03.12/outbox.cif.g09.slc.cpg/sg175_1_cif.got.tgz:1980.got - 2010.04.02 06:55:29.
