data_PCOD8325946
_publ_section_title
;
Structure prediction by ZEFSAII (Michael W. Deem and Ramdas Pophale) SiO2 
 PCOD8325946
Probable space group: P 61 2 2
;
_chemical_formula_sum "Si O2"
_cell_formula_units_Z 48
_cell_length_a 14.679997
_cell_length_b 14.679997
_cell_length_c 11.333877
_cell_angle_alpha 90.000000
_cell_angle_beta 90.000000
_cell_angle_gamma 120.000000
_cell_volume 2115.246867
_symmetry_space_group_name_H-M "P 61 2 2"
_symmetry_group_IT_number 178
_symmetry_cell_setting 'hexagonal'
loop_
_space_group_symop_operation_xyz
x,y,z
x-y,x,1/6+z
-y,x-y,1/3+z
-x,-y,1/2+z
-x+y,-x,2/3+z
y,-x+y,5/6+z
x-y,-y,-z
-x,-x+y,2/3-z
y,x,1/3-z
-y,-x,5/6-z
-x+y,y,1/2-z
x,x-y,1/6-z
loop_
_atom_site_type_symbol
_atom_site_label
_atom_site_fract_x
_atom_site_fract_y
_atom_site_fract_z
Si Si1 0.842786 0.839735 0.841837
Si Si2 0.420078 0.514396 0.740036
Si Si3 0.677747 0.432573 0.034848
Si Si4 0.894383 0.595283 0.039113
O O1 0.856590 0.951691 0.798712
O O2 0.898733 0.797466 0.750000
O O3 0.719751 0.754063 0.853847
O O4 0.426813 0.426813 0.666667
O O5 0.393181 0.580618 0.647865
O O6 0.533373 0.593121 0.798287
O O7 0.325066 0.440033 0.825695
O O8 0.733892 0.366946 0.083334
O O9 0.771360 0.550674 0.003655
O O10 0.609446 0.390555 0.916667
#
# Coordination Sequence:
#
# PCOD8325946 Si02
#       4
#    12  12  12  12
#     4  10  25  51  78 106 141 192 271 336 394 450
#     4  11  26  41  64 111 155 193 251 307 369 479
#     4  12  22  46  72 106 156 206 240 299 386 466
#     4  11  24  46  73 103 155 199 253 311 384 469
#
# _framework density 22.692385999999999
#
# number of rings (size 3 to 8) (size 9 to 14) (size 15 to 20)
#    0.000    1.000    5.000    0.750   10.500    0.000 
#    4.500   12.500    0.000    0.000    0.000    0.000 
#    0.000    0.000    0.000    0.000    0.000    0.000 
#
# Total GULP energy -594708.786108 kJ/mol
# GULP energy per Si atom -12389.766377 kJ/mol
# Density = 2.264074 g / cm^3
# Si number density = 22.692386 Si / 1000 Ang^3
#
#
#
# Elastic Constant Matrix: (Units=GPa)
#
#
# Indices 1 2 3 4 5 6 
#
# 1 144.3348 62.3945 57.1542 0.0000 0.0000 0.0000
# 2 62.3945 144.3348 57.1542 0.0000 0.0000 0.0000
# 3 57.1542 57.1542 127.5810 0.0000 0.0000 0.0000
# 4 0.0000 0.0000 0.0000 111.5958 0.0000 0.0000
# 5 0.0000 0.0000 0.0000 0.0000 111.5958 0.0000
# 6 0.0000 0.0000 0.0000 0.0000 0.0000 40.9702
#
#
#
# Elastic Compliance Matrix: (Units=1/GPa)
#
#
# Indices 1 2 3 4 5 6 
#
# 1 0.009317 -0.002887 -0.002881 0.000000 0.000000 0.000000
# 2 -0.002887 0.009317 -0.002881 0.000000 0.000000 0.000000
# 3 -0.002881 -0.002881 0.010419 0.000000 0.000000 0.000000
# 4 0.000000 0.000000 0.000000 0.008961 0.000000 0.000000
# 5 0.000000 0.000000 0.000000 0.000000 0.008961 0.000000
# 6 0.000000 0.000000 0.000000 0.000000 0.000000 0.024408
#
#
# Mechanical properties :
#
#
# Convention : Reuss Voigt Hill
#
# Bulk Modulus (GPa) = 85.05657 85.51739 85.28698
# Shear Modulus (GPa) = 53.99689 68.80220 61.39955
#
# Velocity S-wave (km/s) = 4.88332 5.51229 5.20731
# Velocity P-wave (km/s) = 8.32824 8.84766 8.59188
#
# Compressibility (1/GPa) = 0.01175688
#
# Stress axis : x y z
#
# Youngs Moduli (GPa) = 107.33071 107.33071 95.97831
#
# Poissons Ratio (x) = 0.30986 0.27647
# Poissons Ratio (y) = 0.30986 0.27647
# Poissons Ratio (z) = 0.30917 0.30917
#
# Static dielectric constant tensor:
#      x y z
#    x 2.320290 0.000000 0.000000 
#    y 0.000000 2.320290 0.000000 
#    z 0.000000 0.000000 4.335620 
# 
# 
# High freq. dielectric constant tensor:
#      x y z
#    x 1.887060 0.000000 0.000000 
#    y 0.000000 1.887060 0.000000 
#    z 0.000000 0.000000 1.907280 
# 
# From -- ./inp_files/4112.got.cif
#   From: 2010.03.12/outbox.cif.g09.slc.cpg/sg178_3_cif.got.tgz:4112.got - 2010.04.02 07:02:38.
