data_PCOD8325262
_publ_section_title
;
Structure prediction by ZEFSAII (Michael W. Deem and Ramdas Pophale) SiO2 
 PCOD8325262
Probable space group: P 6/M
;
_chemical_formula_sum "Si O2"
_cell_formula_units_Z 66
_cell_length_a 19.187960
_cell_length_b 19.187960
_cell_length_c 10.370307
_cell_angle_alpha 90.000000
_cell_angle_beta 90.000000
_cell_angle_gamma 120.000000
_cell_volume 3306.586238
_symmetry_space_group_name_H-M "P 6/M"
_symmetry_group_IT_number 175
_symmetry_cell_setting 'hexagonal'
loop_
_space_group_symop_operation_xyz
x,y,z
x-y,x,z
-y,x-y,z
-x,-y,z
-x+y,-x,z
y,-x+y,z
-x,-y,-z
-x+y,-x,-z
y,-x+y,-z
x,y,-z
x-y,x,-z
-y,x-y,-z
loop_
_atom_site_type_symbol
_atom_site_label
_atom_site_fract_x
_atom_site_fract_y
_atom_site_fract_z
Si Si1 0.534397 0.093099 0.137148
Si Si2 0.415461 0.057600 0.643384
Si Si3 0.846717 0.174254 0.349423
Si Si4 0.090132 0.188370 0.854687
Si Si5 0.584363 0.346213 0.500000
Si Si6 0.540575 0.670308 0.701776
O O1 0.486368 0.106218 0.253433
O O2 0.630230 0.131075 0.162195
O O3 0.500000 0.000000 0.121117
O O4 0.523725 0.128167 0.000000
O O5 0.453257 0.084306 0.500000
O O6 0.346986 0.081474 0.665474
O O7 0.373197 0.961586 0.650504
O O8 0.836534 0.146233 0.500000
O O9 0.864874 0.118837 0.257524
O O10 0.765311 0.167639 0.295178
O O11 0.131027 0.134857 0.835107
O O12 0.108567 0.226553 0.000000
O O13 0.582227 0.259930 0.500000
O O14 0.538315 0.352613 0.621447
#
# Coordination Sequence:
#
# PCOD8325262 Si02
#       6
#    12  12  12  12   6  12
#     4   9  21  37  57  83 114 152 197 244 296 358
#     4  10  21  35  61  90 117 156 200 250 305 368
#     4  11  23  37  61  94 126 156 204 259 319 372
#     4  10  22  41  64  90 124 169 214 255 305 374
#     4  10  24  36  61  89 119 154 207 250 295 358
#     4  11  21  38  60  83 122 156 199 249 311 359
#
# _framework density 19.960162
#
# number of rings (size 3 to 8) (size 9 to 14) (size 15 to 20)
#    0.182    1.636    1.818    1.273    3.818    5.455 
#    0.000    3.636    0.000    1.091    0.000    0.000 
#    0.000    0.000    0.000    0.000    0.000    0.000 
#
# Total GULP energy -817718.961395 kJ/mol
# GULP energy per Si atom -12389.681233 kJ/mol
# Density = 1.991473 g / cm^3
# Si number density = 19.960162 Si / 1000 Ang^3
#
#
#
# Elastic Constant Matrix: (Units=GPa)
#
#
# Indices 1 2 3 4 5 6 
#
# 1 88.7773 18.9588 44.0728 0.0000 0.0000 0.0000
# 2 18.9588 88.7773 44.0728 0.0000 0.0000 0.0000
# 3 44.0728 44.0728 128.7877 0.0000 0.0000 0.0000
# 4 0.0000 0.0000 0.0000 27.4553 0.0000 0.0000
# 5 0.0000 0.0000 0.0000 0.0000 27.4553 0.0000
# 6 0.0000 0.0000 0.0000 0.0000 0.0000 34.9092
#
#
#
# Elastic Compliance Matrix: (Units=1/GPa)
#
#
# Indices 1 2 3 4 5 6 
#
# 1 0.013607 -0.000716 -0.004412 0.000000 0.000000 0.000000
# 2 -0.000716 0.013607 -0.004412 0.000000 0.000000 0.000000
# 3 -0.004412 -0.004412 0.010784 0.000000 0.000000 0.000000
# 4 0.000000 0.000000 0.000000 0.036423 0.000000 0.000000
# 5 0.000000 0.000000 0.000000 0.000000 0.036423 0.000000
# 6 0.000000 0.000000 0.000000 0.000000 0.000000 0.028646
#
#
# Mechanical properties :
#
#
# Convention : Reuss Voigt Hill
#
# Bulk Modulus (GPa) = 52.85287 57.83903 55.34595
# Shear Modulus (GPa) = 30.32612 31.24648 30.78630
#
# Velocity S-wave (km/s) = 3.90209 3.96086 3.93158
# Velocity P-wave (km/s) = 6.84386 7.06810 6.95688
#
# Compressibility (1/GPa) = 0.01892045
#
# Stress axis : x y z
#
# Youngs Moduli (GPa) = 73.49111 73.49111 92.72905
#
# Poissons Ratio (x) = 0.05260 0.40908
# Poissons Ratio (y) = 0.05260 0.40908
# Poissons Ratio (z) = 0.32421 0.32421
#
# Static dielectric constant tensor:
#      x y z
#    x 3.620320 0.000000 0.000000 
#    y 0.000000 3.620320 0.000000 
#    z 0.000000 0.000000 4.635950 
# 
# 
# High freq. dielectric constant tensor:
#      x y z
#    x 1.776630 0.000000 0.000000 
#    y 0.000000 1.776630 0.000000 
#    z 0.000000 0.000000 1.780640 
# 
# From -- ./inp_files/989.got.cif
#   From: 2010.03.12/outbox.cif.g09.slc.cpg/sg175_1_cif.got.tgz:989.got - 2010.04.02 06:55:29.
