data_PCOD8325037
_publ_section_title
;
Structure prediction by ZEFSAII (Michael W. Deem and Ramdas Pophale) SiO2 
 PCOD8325037
Probable space group: P 6/M
;
_chemical_formula_sum "Si O2"
_cell_formula_units_Z 84
_cell_length_a 17.527333
_cell_length_b 17.527333
_cell_length_c 14.220908
_cell_angle_alpha 90.000000
_cell_angle_beta 90.000000
_cell_angle_gamma 120.000000
_cell_volume 3783.464246
_symmetry_space_group_name_H-M "P 6/M"
_symmetry_group_IT_number 175
_symmetry_cell_setting 'hexagonal'
loop_
_space_group_symop_operation_xyz
x,y,z
x-y,x,z
-y,x-y,z
-x,-y,z
-x+y,-x,z
y,-x+y,z
-x,-y,-z
-x+y,-x,-z
y,-x+y,-z
x,y,-z
x-y,x,-z
-y,x-y,-z
loop_
_atom_site_type_symbol
_atom_site_label
_atom_site_fract_x
_atom_site_fract_y
_atom_site_fract_z
Si Si1 0.440846 0.108347 0.101206
Si Si2 0.496495 0.854910 0.701816
Si Si3 0.481047 0.314996 0.702202
Si Si4 0.583396 0.731623 0.898754
Si Si5 0.021941 0.838440 0.703251
Si Si6 0.234946 0.998310 0.103645
Si Si7 0.333166 0.001462 0.609521
O O1 0.494559 0.106778 0.191928
O O2 0.458639 0.206750 0.095157
O O3 0.339010 0.040078 0.119427
O O4 0.471565 0.087921 0.000000
O O5 0.513064 0.773064 0.694311
O O6 0.398020 0.825448 0.668112
O O7 0.565108 0.933353 0.635521
O O8 0.459914 0.331847 0.809238
O O9 0.402442 0.303822 0.635562
O O10 0.689988 0.795894 0.886236
O O11 0.564800 0.680061 0.000000
O O12 0.025824 0.837512 0.817242
O O13 0.033421 0.759596 0.663668
O O14 0.930791 0.829398 0.667215
O O15 0.212377 0.020838 0.000000
O O16 0.318720 0.006631 0.500000
#
# Coordination Sequence:
#
# PCOD8325037 Si02
#       7
#    12  12  12  12  12  12  12
#     4   9  17  31  54  87 127 170 212 250 294 358
#     4  11  23  41  66  99 135 170 211 264 323 381
#     4  11  23  41  66  99 135 170 211 264 323 381
#     4   9  17  31  54  87 127 170 212 250 294 358
#     4  12  25  43  67  98 132 167 209 263 323 383
#     4  10  18  32  59  93 128 170 217 261 304 359
#     4  12  27  48  72  92 118 164 219 269 324 396
#
# _framework density 22.201875000000001
#
# number of rings (size 3 to 8) (size 9 to 14) (size 15 to 20)
#    0.000    1.429    2.857    2.571    0.000    5.714 
#    0.000    0.000    0.000    9.429    0.000    0.000 
#    0.000    0.000    0.000    0.000    0.000    0.000 
#
# Total GULP energy -1041228.363306 kJ/mol
# GULP energy per Si atom -12395.575754 kJ/mol
# Density = 2.215134 g / cm^3
# Si number density = 22.201875 Si / 1000 Ang^3
#
#
#
# Elastic Constant Matrix: (Units=GPa)
#
#
# Indices 1 2 3 4 5 6 
#
# 1 70.9335 4.2220 21.4664 0.0000 0.0000 0.0000
# 2 4.2220 70.9335 21.4664 0.0000 0.0000 0.0000
# 3 21.4664 21.4664 110.4203 0.0000 0.0000 0.0000
# 4 0.0000 0.0000 0.0000 10.4535 0.0000 0.0000
# 5 0.0000 0.0000 0.0000 0.0000 10.4535 0.0000
# 6 0.0000 0.0000 0.0000 0.0000 0.0000 33.3558
#
#
#
# Elastic Compliance Matrix: (Units=1/GPa)
#
#
# Indices 1 2 3 4 5 6 
#
# 1 0.014979 -0.000011 -0.002910 0.000000 0.000000 0.000000
# 2 -0.000011 0.014979 -0.002910 0.000000 0.000000 0.000000
# 3 -0.002910 -0.002910 0.010188 0.000000 0.000000 0.000000
# 4 0.000000 0.000000 0.000000 0.095661 0.000000 0.000000
# 5 0.000000 0.000000 0.000000 0.000000 0.095661 0.000000
# 6 0.000000 0.000000 0.000000 0.000000 0.000000 0.029980
#
#
# Mechanical properties :
#
#
# Convention : Reuss Voigt Hill
#
# Bulk Modulus (GPa) = 35.10715 38.51078 36.80896
# Shear Modulus (GPa) = 17.69259 24.52807 21.11033
#
# Velocity S-wave (km/s) = 2.82600 3.32742 3.08691
# Velocity P-wave (km/s) = 5.14737 5.66972 5.41484
#
# Compressibility (1/GPa) = 0.02848423
#
# Stress axis : x y z
#
# Youngs Moduli (GPa) = 66.76027 66.76027 98.15758
#
# Poissons Ratio (x) = 0.00073 0.28563
# Poissons Ratio (y) = 0.00073 0.28563
# Poissons Ratio (z) = 0.19426 0.19426
#
# Static dielectric constant tensor:
#      x y z
#    x 3.812110 0.000000 0.000000 
#    y 0.000000 3.812110 0.000000 
#    z 0.000000 0.000000 4.159820 
# 
# 
# High freq. dielectric constant tensor:
#      x y z
#    x 1.861750 0.000000 0.000000 
#    y 0.000000 1.861750 0.000000 
#    z 0.000000 0.000000 1.866510 
# 
# From -- ./inp_files/2633.got.cif
#   From: 2010.03.12/outbox.cif.g09.slc.cpg/sg175_2_cif.got.tgz:2633.got - 2010.04.02 06:55:29.
