data_PCOD8325316
_publ_section_title
;
Structure prediction by ZEFSAII (Michael W. Deem and Ramdas Pophale) SiO2 
 PCOD8325316
Probable space group: P 6/M
;
_chemical_formula_sum "Si O2"
_cell_formula_units_Z 46
_cell_length_a 13.397587
_cell_length_b 13.397587
_cell_length_c 16.090513
_cell_angle_alpha 90.000000
_cell_angle_beta 90.000000
_cell_angle_gamma 120.000000
_cell_volume 2501.230375
_symmetry_space_group_name_H-M "P 6/M"
_symmetry_group_IT_number 175
_symmetry_cell_setting 'hexagonal'
loop_
_space_group_symop_operation_xyz
x,y,z
x-y,x,z
-y,x-y,z
-x,-y,z
-x+y,-x,z
y,-x+y,z
-x,-y,-z
-x+y,-x,-z
y,-x+y,-z
x,y,-z
x-y,x,-z
-y,x-y,-z
loop_
_atom_site_type_symbol
_atom_site_label
_atom_site_fract_x
_atom_site_fract_y
_atom_site_fract_z
Si Si1 0.227533 0.422228 0.340500
Si Si2 0.877080 0.729049 0.500000
Si Si3 0.005525 0.234393 0.096239
Si Si4 0.392743 0.372757 0.762003
Si Si5 0.333333 0.666666 0.597635
O O1 0.154020 0.349299 0.418702
O O2 0.295160 0.364708 0.299822
O O3 0.146460 0.434578 0.273035
O O4 0.322792 0.548721 0.370278
O O5 0.815291 0.803480 0.500000
O O6 0.114541 0.221151 0.119857
O O7 0.007899 0.338241 0.147175
O O8 0.006073 0.264932 0.000000
O O9 0.500000 0.500000 0.771365
O O10 0.333334 0.666668 0.500000
#
# Coordination Sequence:
#
# PCOD8325316 Si02
#       5
#    12   6  12  12   4
#     4  12  24  39  60  90 120 159 206 253 305 363
#     4  12  25  40  60  86 124 157 202 256 310 368
#     4  10  21  39  65  96 126 158 199 252 311 372
#     4  12  24  39  63  89 122 162 206 251 305 370
#     4  12  24  39  63  93 118 158 214 264 300 357
#
# _framework density 18.390948000000002
#
# number of rings (size 3 to 8) (size 9 to 14) (size 15 to 20)
#    0.000    0.522    9.130    0.391    0.000    1.565 
#    0.000    3.913    0.000    0.000    0.000    0.000 
#    0.000    0.000    0.000    0.000    0.000    0.000 
#
# Total GULP energy -570666.680254 kJ/mol
# GULP energy per Si atom -12405.797397 kJ/mol
# Density = 1.834909 g / cm^3
# Si number density = 18.390948 Si / 1000 Ang^3
#
#
#
# Elastic Constant Matrix: (Units=GPa)
#
#
# Indices 1 2 3 4 5 6 
#
# 1 95.8324 16.1984 37.2000 0.0000 0.0000 -0.0002
# 2 16.1984 95.8330 37.2005 0.0000 0.0000 -0.0004
# 3 37.2000 37.2005 96.0277 0.0000 0.0000 0.0000
# 4 0.0000 0.0000 0.0000 35.4464 0.0000 0.0000
# 5 0.0000 0.0000 0.0000 0.0000 35.4464 0.0000
# 6 -0.0002 -0.0004 0.0000 0.0000 0.0000 39.8173
#
#
#
# Elastic Compliance Matrix: (Units=1/GPa)
#
#
# Indices 1 2 3 4 5 6 
#
# 1 0.012288 -0.000270 -0.004656 0.000000 0.000000 0.000000
# 2 -0.000270 0.012288 -0.004656 0.000000 0.000000 0.000000
# 3 -0.004656 -0.004656 0.014021 0.000000 0.000000 0.000000
# 4 0.000000 0.000000 0.000000 0.028212 0.000000 0.000000
# 5 0.000000 0.000000 0.000000 0.000000 0.028212 0.000000
# 6 0.000000 0.000000 0.000000 0.000000 0.000000 0.025115
#
#
# Mechanical properties :
#
#
# Convention : Reuss Voigt Hill
#
# Bulk Modulus (GPa) = 51.45601 52.09899 51.77750
# Shear Modulus (GPa) = 34.29966 35.28164 34.79065
#
# Velocity S-wave (km/s) = 4.32328 4.38473 4.35412
# Velocity P-wave (km/s) = 7.27741 7.35014 7.31387
#
# Compressibility (1/GPa) = 0.01943408
#
# Stress axis : x y z
#
# Youngs Moduli (GPa) = 81.38231 81.38255 71.32276
#
# Poissons Ratio (x) = 0.02195 0.33205
# Poissons Ratio (y) = 0.02195 0.33205
# Poissons Ratio (z) = 0.37888 0.37889
#
# Static dielectric constant tensor:
#      x y z
#    x 3.436410 0.000000 0.000000 
#    y 0.000000 3.436400 0.000000 
#    z 0.000000 0.000000 3.408930 
# 
# 
# High freq. dielectric constant tensor:
#      x y z
#    x 1.720520 0.000000 0.000000 
#    y 0.000000 1.720520 0.000000 
#    z 0.000000 0.000000 1.718990 
# 
# From -- ./inp_files/1637.got.cif
#   From: 2010.03.12/outbox.cif.g09.slc.cpg/sg175_1_cif.got.tgz:1637.got - 2010.04.02 06:55:29.
