data_PCOD8325791
_publ_section_title
;
Structure prediction by ZEFSAII (Michael W. Deem and Ramdas Pophale) SiO2 
 PCOD8325791
Probable space group: P 61 2 2
;
_chemical_formula_sum "Si O2"
_cell_formula_units_Z 66
_cell_length_a 13.791373
_cell_length_b 13.791373
_cell_length_c 17.919574
_cell_angle_alpha 90.000000
_cell_angle_beta 90.000000
_cell_angle_gamma 120.000000
_cell_volume 2951.707520
_symmetry_space_group_name_H-M "P 61 2 2"
_symmetry_group_IT_number 178
_symmetry_cell_setting 'hexagonal'
loop_
_space_group_symop_operation_xyz
x,y,z
x-y,x,1/6+z
-y,x-y,1/3+z
-x,-y,1/2+z
-x+y,-x,2/3+z
y,-x+y,5/6+z
x-y,-y,-z
-x,-x+y,2/3-z
y,x,1/3-z
-y,-x,5/6-z
-x+y,y,1/2-z
x,x-y,1/6-z
loop_
_atom_site_type_symbol
_atom_site_label
_atom_site_fract_x
_atom_site_fract_y
_atom_site_fract_z
Si Si1 0.239301 0.829965 0.090994
Si Si2 0.273976 0.209632 0.022600
Si Si3 0.031425 0.031425 0.166667
Si Si4 0.539452 0.419195 0.638933
Si Si5 0.346309 0.266964 0.538676
Si Si6 0.827225 0.592378 0.421218
O O1 0.328723 0.813914 0.043116
O O2 0.230591 0.766656 0.168089
O O3 0.279191 0.958961 0.111136
O O4 0.118458 0.767911 0.050717
O O5 0.327012 0.163506 0.083334
O O6 0.148727 0.113465 0.005583
O O7 0.985337 0.970674 0.250000
O O8 0.512061 0.512061 0.666667
O O9 0.471004 0.360630 0.563849
O O10 0.505124 0.324885 0.702130
O O11 0.304067 0.152034 0.583334
O O12 0.259894 0.308072 0.559233
O O13 0.350101 0.238449 0.451260
#
# Coordination Sequence:
#
# PCOD8325791 Si02
#       6
#    12  12   6  12  12  12
#     4  12  22  37  67  95 130 179 218 276 336 406
#     4  11  20  36  63  98 137 180 221 263 338 411
#     4  10  18  36  60  94 148 192 226 278 324 402
#     4   9  20  39  66  87 121 169 216 274 336 388
#     4   9  18  39  68  90 127 171 212 266 331 399
#     4  10  21  38  65  98 129 170 225 269 339 410
#
# _framework density 22.359938
#
# number of rings (size 3 to 8) (size 9 to 14) (size 15 to 20)
#    0.000    1.818    3.636    3.818    0.000    0.727 
#    0.000    0.909   66.000    0.000    0.000    0.000 
#    0.000    0.000    0.000    0.000    0.000    0.000 
#
# Total GULP energy -817700.316031 kJ/mol
# GULP energy per Si atom -12389.398728 kJ/mol
# Density = 2.230905 g / cm^3
# Si number density = 22.359938 Si / 1000 Ang^3
#
#
#
# Elastic Constant Matrix: (Units=GPa)
#
#
# Indices 1 2 3 4 5 6 
#
# 1 86.4890 37.7539 31.6960 0.0000 0.0000 0.0000
# 2 37.7539 86.4890 31.6960 0.0000 0.0000 0.0000
# 3 31.6960 31.6960 143.6036 0.0000 0.0000 0.0000
# 4 0.0000 0.0000 0.0000 27.1115 0.0000 0.0000
# 5 0.0000 0.0000 0.0000 0.0000 27.1115 0.0000
# 6 0.0000 0.0000 0.0000 0.0000 0.0000 24.3675
#
#
#
# Elastic Compliance Matrix: (Units=1/GPa)
#
#
# Indices 1 2 3 4 5 6 
#
# 1 0.014795 -0.005724 -0.002002 0.000000 0.000000 0.000000
# 2 -0.005724 0.014795 -0.002002 0.000000 0.000000 0.000000
# 3 -0.002002 -0.002002 0.007847 0.000000 0.000000 0.000000
# 4 0.000000 0.000000 0.000000 0.036885 0.000000 0.000000
# 5 0.000000 0.000000 0.000000 0.000000 0.036885 0.000000
# 6 0.000000 0.000000 0.000000 0.000000 0.000000 0.041038
#
#
# Mechanical properties :
#
#
# Convention : Reuss Voigt Hill
#
# Bulk Modulus (GPa) = 55.61762 57.65259 56.63510
# Shear Modulus (GPa) = 28.13822 30.08050 29.10936
#
# Velocity S-wave (km/s) = 3.55127 3.67179 3.61203
# Velocity P-wave (km/s) = 6.46089 6.61936 6.54061
#
# Compressibility (1/GPa) = 0.01797992
#
# Stress axis : x y z
#
# Youngs Moduli (GPa) = 67.59196 67.59196 127.43154
#
# Poissons Ratio (x) = 0.38693 0.25511
# Poissons Ratio (y) = 0.38693 0.25511
# Poissons Ratio (z) = 0.13532 0.13532
#
# Static dielectric constant tensor:
#      x y z
#    x 3.818100 0.000000 0.000000 
#    y 0.000000 3.818100 0.000000 
#    z 0.000000 0.000000 4.770380 
# 
# 
# High freq. dielectric constant tensor:
#      x y z
#    x 1.856240 0.000000 0.000000 
#    y 0.000000 1.856240 0.000000 
#    z 0.000000 0.000000 1.901680 
# 
# From -- ./inp_files/6694.got.cif
#   From: 2010.03.12/outbox.cif.g09.slc.cpg/sg178_4_cif.got.tgz:6694.got - 2010.04.02 07:02:38.
