data_PCOD8325688
_publ_section_title
;
Structure prediction by ZEFSAII (Michael W. Deem and Ramdas Pophale) SiO2 
 PCOD8325688
Probable space group: P 63/M
;
_chemical_formula_sum "Si O2"
_cell_formula_units_Z 80
_cell_length_a 18.029193
_cell_length_b 18.029193
_cell_length_c 18.401560
_cell_angle_alpha 90.000000
_cell_angle_beta 90.000000
_cell_angle_gamma 120.000000
_cell_volume 5180.096489
_symmetry_space_group_name_H-M "P 63/M"
_symmetry_group_IT_number 176
_symmetry_cell_setting 'hexagonal'
loop_
_space_group_symop_operation_xyz
x,y,z
x-y,x,1/2+z
-y,x-y,z
-x,-y,1/2+z
-x+y,-x,z
y,-x+y,1/2+z
-x,-y,-z
-x+y,-x,1/2-z
y,-x+y,-z
x,y,1/2-z
x-y,x,-z
-y,x-y,1/2-z
loop_
_atom_site_type_symbol
_atom_site_label
_atom_site_fract_x
_atom_site_fract_y
_atom_site_fract_z
Si Si1 0.333334 0.666668 0.519571
Si Si2 0.911421 0.350934 0.422145
Si Si3 0.666667 0.333334 0.849285
Si Si4 0.490408 0.083263 0.583610
Si Si5 0.207698 0.476431 0.934594
Si Si6 0.747886 0.525417 0.670355
Si Si7 0.329900 0.898884 0.422010
Si Si8 0.503485 0.414554 0.336275
O O1 0.333334 0.666667 0.434620
O O2 0.283390 0.714179 0.544921
O O3 0.923568 0.400747 0.497548
O O4 0.833987 0.252621 0.421241
O O5 0.892769 0.402654 0.360023
O O6 0.002733 0.355024 0.411100
O O7 0.701419 0.272965 0.819928
O O8 0.469937 0.153264 0.614311
O O9 0.588113 0.110284 0.597392
O O10 0.427590 0.996270 0.625006
O O11 0.164882 0.486340 0.861309
O O12 0.136333 0.433262 0.997076
O O13 0.744959 0.561872 0.750000
O O14 0.842217 0.584384 0.636839
O O15 0.495175 0.415187 0.250000
#
# Coordination Sequence:
#
# PCOD8325688 Si02
#       8
#     4  12   4  12  12  12  12  12
#     4  12  18  31  50  70  81 124 176 211 231 274
#     4  11  21  35  55  69  91 130 172 211 252 294
#     4  12  19  28  42  67  94 121 167 199 238 295
#     4  11  19  35  53  70  94 129 168 205 253 301
#     4  12  19  35  52  68  93 127 171 211 248 291
#     4  12  22  30  46  72 101 126 156 205 255 295
#     4  11  20  32  50  71  94 123 165 207 249 297
#     4  11  23  35  49  72 101 129 168 215 254 298
#
# _framework density 15.443727000000001
#
# number of rings (size 3 to 8) (size 9 to 14) (size 15 to 20)
#    0.000    0.600    9.000    1.800    0.000    3.000 
#    0.000    0.000    0.000    0.000    0.000    0.000 
#    0.000    0.000    0.000    8.100    0.000    5.100 
#
# Total GULP energy -991956.373985 kJ/mol
# GULP energy per Si atom -12399.454675 kJ/mol
# Density = 1.540858 g / cm^3
# Si number density = 15.443727 Si / 1000 Ang^3
#
#
#
# Elastic Constant Matrix: (Units=GPa)
#
#
# Indices 1 2 3 4 5 6 
#
# 1 74.8031 28.8876 12.8838 0.0000 0.0000 0.0000
# 2 28.8876 74.8033 12.8840 0.0000 0.0000 0.0000
# 3 12.8838 12.8840 78.4476 0.0000 0.0000 0.0000
# 4 0.0000 0.0000 0.0000 17.4087 -0.0003 0.0000
# 5 0.0000 0.0000 0.0000 -0.0003 17.4084 0.0000
# 6 0.0000 0.0000 0.0000 0.0000 0.0000 22.9580
#
#
#
# Elastic Compliance Matrix: (Units=1/GPa)
#
#
# Indices 1 2 3 4 5 6 
#
# 1 0.015917 -0.005862 -0.001651 0.000000 0.000000 0.000000
# 2 -0.005862 0.015917 -0.001651 0.000000 0.000000 0.000000
# 3 -0.001651 -0.001651 0.013290 0.000000 0.000000 0.000000
# 4 0.000000 0.000000 0.000000 0.057443 0.000001 0.000000
# 5 0.000000 0.000000 0.000000 0.000001 0.057443 0.000000
# 6 0.000000 0.000000 0.000000 0.000000 0.000000 0.043558
#
#
# Mechanical properties :
#
#
# Convention : Reuss Voigt Hill
#
# Bulk Modulus (GPa) = 37.32261 37.48499 37.40380
# Shear Modulus (GPa) = 21.66115 23.11494 22.38804
#
# Velocity S-wave (km/s) = 3.74917 3.87294 3.81156
# Velocity P-wave (km/s) = 6.55447 6.65765 6.60626
#
# Compressibility (1/GPa) = 0.02679341
#
# Stress axis : x y z
#
# Youngs Moduli (GPa) = 62.82684 62.82692 75.24591
#
# Poissons Ratio (x) = 0.36831 0.12425
# Poissons Ratio (y) = 0.36831 0.12425
# Poissons Ratio (z) = 0.10374 0.10375
#
# Static dielectric constant tensor:
#      x y z
#    x 2.865910 0.000000 0.000000 
#    y 0.000000 2.865900 0.000000 
#    z 0.000000 0.000000 3.033920 
# 
# 
# High freq. dielectric constant tensor:
#      x y z
#    x 1.565190 0.000000 0.000000 
#    y 0.000000 1.565190 0.000000 
#    z 0.000000 0.000000 1.601780 
# 
# From -- ./inp_files/3517.got.cif
#   From: 2010.06.25/outbox.cif.g09.slc.cpg/sg176_2_cif.got.tgz:3517.got - 2010.06.28 12:15:01.
