data_PCOD8325677
_publ_section_title
;
Structure prediction by ZEFSAII (Michael W. Deem and Ramdas Pophale) SiO2 
 PCOD8325677
Probable space group: P 63/M
;
_chemical_formula_sum "Si O2"
_cell_formula_units_Z 70
_cell_length_a 14.486496
_cell_length_b 14.486496
_cell_length_c 15.946535
_cell_angle_alpha 90.000000
_cell_angle_beta 90.000000
_cell_angle_gamma 120.000000
_cell_volume 2898.168713
_symmetry_space_group_name_H-M "P 63/M"
_symmetry_group_IT_number 176
_symmetry_cell_setting 'hexagonal'
loop_
_space_group_symop_operation_xyz
x,y,z
x-y,x,1/2+z
-y,x-y,z
-x,-y,1/2+z
-x+y,-x,z
y,-x+y,1/2+z
-x,-y,-z
-x+y,-x,1/2-z
y,-x+y,-z
x,y,1/2-z
x-y,x,-z
-y,x-y,1/2-z
loop_
_atom_site_type_symbol
_atom_site_label
_atom_site_fract_x
_atom_site_fract_y
_atom_site_fract_z
Si Si1 0.936892 0.622104 0.843303
Si Si2 0.162195 0.243756 0.113641
Si Si3 0.506359 0.089957 0.594076
Si Si4 0.000000 0.000000 0.901963
Si Si5 0.696083 0.092619 0.346045
Si Si6 0.548922 0.216107 0.750000
Si Si7 0.129107 0.746924 0.543572
O O1 0.957979 0.593266 0.750000
O O2 0.046064 0.712458 0.881672
O O3 0.859914 0.671874 0.837223
O O4 0.891281 0.517273 0.904011
O O5 0.269366 0.253104 0.149715
O O6 0.068512 0.122489 0.128759
O O7 0.177454 0.281689 0.016145
O O8 0.488601 0.158308 0.665874
O O9 0.476342 0.121723 0.505840
O O10 0.424504 0.967257 0.618217
O O11 0.000000 0.000000 0.000000
O O12 0.699616 0.130550 0.250000
O O13 0.757195 0.190019 0.410740
O O14 0.667439 0.227075 0.750000
#
# Coordination Sequence:
#
# PCOD8325677 Si02
#       7
#    12  12  12   4  12   6  12
#     4  12  24  44  71  99 134 184 238 298 352 417
#     4  11  24  39  67  98 142 188 236 287 346 415
#     4  11  24  44  71 101 136 186 233 290 360 423
#     4  12  21  39  61  95 139 189 229 272 328 415
#     4  11  22  42  66  96 135 182 227 284 349 423
#     4  10  24  42  70 104 138 170 230 300 358 408
#     4  11  25  40  64 101 137 180 233 285 353 420
#
# _framework density 24.153185000000001
#
# number of rings (size 3 to 8) (size 9 to 14) (size 15 to 20)
#    0.171    0.686    1.714    6.686    4.800    0.000 
#    0.000    2.571    0.000    0.686    0.000    2.400 
#    0.000    0.000    0.000    0.000    0.000    0.000 
#
# Total GULP energy -867829.301187 kJ/mol
# GULP energy per Si atom -12397.561446 kJ/mol
# Density = 2.409821 g / cm^3
# Si number density = 24.153185 Si / 1000 Ang^3
#
#
#
# Elastic Constant Matrix: (Units=GPa)
#
#
# Indices 1 2 3 4 5 6 
#
# 1 94.1069 21.6557 27.0163 0.0000 0.0000 0.0000
# 2 21.6557 94.1069 27.0163 0.0000 0.0000 0.0000
# 3 27.0163 27.0163 126.5560 0.0000 0.0000 0.0000
# 4 0.0000 0.0000 0.0000 20.8888 0.0000 0.0000
# 5 0.0000 0.0000 0.0000 0.0000 20.8888 0.0000
# 6 0.0000 0.0000 0.0000 0.0000 0.0000 36.2256
#
#
#
# Elastic Compliance Matrix: (Units=1/GPa)
#
#
# Indices 1 2 3 4 5 6 
#
# 1 0.011698 -0.002104 -0.002048 0.000000 0.000000 0.000000
# 2 -0.002104 0.011698 -0.002048 0.000000 0.000000 0.000000
# 3 -0.002048 -0.002048 0.008776 0.000000 0.000000 0.000000
# 4 0.000000 0.000000 0.000000 0.047873 0.000000 0.000000
# 5 0.000000 0.000000 0.000000 0.000000 0.047873 0.000000
# 6 0.000000 0.000000 0.000000 0.000000 0.000000 0.027605
#
#
# Mechanical properties :
#
#
# Convention : Reuss Voigt Hill
#
# Bulk Modulus (GPa) = 50.57599 51.79406 51.18503
# Shear Modulus (GPa) = 28.65095 31.53937 30.09516
#
# Velocity S-wave (km/s) = 3.44789 3.61751 3.53372
# Velocity P-wave (km/s) = 6.06924 6.24012 6.15527
#
# Compressibility (1/GPa) = 0.01977223
#
# Stress axis : x y z
#
# Youngs Moduli (GPa) = 85.48195 85.48195 113.94596
#
# Poissons Ratio (x) = 0.17986 0.23338
# Poissons Ratio (y) = 0.17986 0.23338
# Poissons Ratio (z) = 0.17508 0.17508
#
# Static dielectric constant tensor:
#      x y z
#    x 4.356550 0.000000 0.000000 
#    y 0.000000 4.356550 0.000000 
#    z 0.000000 0.000000 4.413040 
# 
# 
# High freq. dielectric constant tensor:
#      x y z
#    x 1.954700 0.000000 0.000000 
#    y 0.000000 1.954700 0.000000 
#    z 0.000000 0.000000 1.960750 
# 
# From -- ./inp_files/3412.got.cif
#   From: 2010.06.25/outbox.cif.g09.slc.cpg/sg176_2_cif.got.tgz:3412.got - 2010.06.28 12:15:01.
