data_PCOD8325383
_publ_section_title
;
Structure prediction by ZEFSAII (Michael W. Deem and Ramdas Pophale) SiO2 
 PCOD8325383
Probable space group: P 6/M
;
_chemical_formula_sum "Si O2"
_cell_formula_units_Z 52
_cell_length_a 13.580224
_cell_length_b 13.580224
_cell_length_c 13.566992
_cell_angle_alpha 90.000000
_cell_angle_beta 90.000000
_cell_angle_gamma 120.000000
_cell_volume 2166.846105
_symmetry_space_group_name_H-M "P 6/M"
_symmetry_group_IT_number 175
_symmetry_cell_setting 'hexagonal'
loop_
_space_group_symop_operation_xyz
x,y,z
x-y,x,z
-y,x-y,z
-x,-y,z
-x+y,-x,z
y,-x+y,z
-x,-y,-z
-x+y,-x,-z
y,-x+y,-z
x,y,-z
x-y,x,-z
-y,x-y,-z
loop_
_atom_site_type_symbol
_atom_site_label
_atom_site_fract_x
_atom_site_fract_y
_atom_site_fract_z
Si Si1 0.792088 0.112596 0.000000
Si Si2 0.500000 0.500000 0.824241
Si Si3 0.945202 0.737702 0.500000
Si Si4 0.133842 0.253044 0.209132
Si Si5 0.458808 0.106354 0.000000
Si Si6 0.333335 0.666668 0.615525
Si Si7 0.429690 0.298529 0.681629
O O1 0.872055 0.123702 0.091672
O O2 0.781991 0.227820 0.000000
O O3 0.667917 0.006138 0.000000
O O4 0.428660 0.391456 0.755116
O O5 0.416912 0.519230 0.898860
O O6 0.848628 0.775832 0.500000
O O7 0.930497 0.655532 0.591259
O O8 0.191969 0.185780 0.252285
O O9 0.197784 0.380329 0.254112
O O10 0.333334 0.666668 0.500000
O O11 0.218539 0.557490 0.650744
#
# Coordination Sequence:
#
# PCOD8325383 Si02
#       7
#     6   6   6  12   6   4  12
#     4  12  20  38  65  99 143 189 243 300 370 439
#     4  11  26  45  72 104 140 205 250 305 374 432
#     4  12  29  53  83 117 153 192 237 301 377 455
#     4  12  24  43  70 108 149 197 246 307 376 453
#     4  11  24  42  68  98 149 189 251 301 370 438
#     4  12  30  51  72 112 149 187 258 318 378 439
#     4  12  28  47  78 105 148 194 253 305 374 446
#
# _framework density 23.998014000000001
#
# number of rings (size 3 to 8) (size 9 to 14) (size 15 to 20)
#    0.000    0.231    5.769    1.731    9.692    0.462 
#    0.000    3.462    0.000    0.000    0.000    0.000 
#    0.000    0.000    0.000    0.000    0.000    0.000 
#
# Total GULP energy -644405.611104 kJ/mol
# GULP energy per Si atom -12392.415598 kJ/mol
# Density = 2.394339 g / cm^3
# Si number density = 23.998014 Si / 1000 Ang^3
#
#
#
# Elastic Constant Matrix: (Units=GPa)
#
#
# Indices 1 2 3 4 5 6 
#
# 1 100.8635 1.8213 43.5850 0.0000 0.0000 -0.0289
# 2 1.8213 100.8459 43.5771 0.0000 0.0000 0.0342
# 3 43.5850 43.5771 147.5083 0.0000 0.0000 -0.0012
# 4 0.0000 0.0000 0.0000 30.3232 0.0000 0.0000
# 5 0.0000 0.0000 0.0000 0.0000 30.3233 0.0000
# 6 -0.0289 0.0342 -0.0012 0.0000 0.0000 49.6246
#
#
#
# Elastic Compliance Matrix: (Units=1/GPa)
#
#
# Indices 1 2 3 4 5 6 
#
# 1 0.011548 0.001451 -0.003841 0.000000 0.000000 0.000006
# 2 0.001451 0.011550 -0.003841 0.000000 0.000000 -0.000007
# 3 -0.003841 -0.003841 0.009049 0.000000 0.000000 0.000001
# 4 0.000000 0.000000 0.000000 0.032978 0.000000 0.000000
# 5 0.000000 0.000000 0.000000 0.000000 0.032978 0.000000
# 6 0.000006 -0.000007 0.000001 0.000000 0.000000 0.020151
#
#
# Mechanical properties :
#
#
# Convention : Reuss Voigt Hill
#
# Bulk Modulus (GPa) = 50.79927 58.57606 54.68767
# Shear Modulus (GPa) = 36.42293 39.40317 37.91305
#
# Velocity S-wave (km/s) = 3.90005 4.05648 3.97903
# Velocity P-wave (km/s) = 6.44163 6.81188 6.62934
#
# Compressibility (1/GPa) = 0.01968532
#
# Stress axis : x y z
#
# Youngs Moduli (GPa) = 86.59614 86.58337 110.51217
#
# Poissons Ratio (x) = -0.12564 0.42445
# Poissons Ratio (y) = -0.12566 0.42445
# Poissons Ratio (z) = 0.33260 0.33255
#
# Static dielectric constant tensor:
#      x y z
#    x 4.460090 0.000000 0.000000 
#    y 0.000000 4.460100 0.000000 
#    z 0.000000 0.000000 4.660050 
# 
# 
# High freq. dielectric constant tensor:
#      x y z
#    x 1.949270 0.000000 0.000000 
#    y 0.000000 1.949270 0.000000 
#    z 0.000000 0.000000 1.977270 
# 
# From -- ./inp_files/2345.got.cif
#   From: 2010.03.12/outbox.cif.g09.slc.cpg/sg175_2_cif.got.tgz:2345.got - 2010.04.02 06:55:29.
