data_PCOD8325726
_publ_section_title
;
Structure prediction by ZEFSAII (Michael W. Deem and Ramdas Pophale) SiO2 
 PCOD8325726
Probable space group: P 63/M
;
_chemical_formula_sum "Si O2"
_cell_formula_units_Z 96
_cell_length_a 27.516398
_cell_length_b 27.516398
_cell_length_c 9.711613
_cell_angle_alpha 90.000000
_cell_angle_beta 90.000000
_cell_angle_gamma 120.000000
_cell_volume 6368.030935
_symmetry_space_group_name_H-M "P 63/M"
_symmetry_group_IT_number 176
_symmetry_cell_setting 'hexagonal'
loop_
_space_group_symop_operation_xyz
x,y,z
x-y,x,1/2+z
-y,x-y,z
-x,-y,1/2+z
-x+y,-x,z
y,-x+y,1/2+z
-x,-y,-z
-x+y,-x,1/2-z
y,-x+y,-z
x,y,1/2-z
x-y,x,-z
-y,x-y,1/2-z
loop_
_atom_site_type_symbol
_atom_site_label
_atom_site_fract_x
_atom_site_fract_y
_atom_site_fract_z
Si Si1 0.175051 0.824949 0.913188
Si Si2 0.238529 0.477058 0.585125
Si Si3 0.738935 0.686433 0.091451
Si Si4 0.051011 0.624325 0.592368
Si Si5 0.636934 0.166268 0.086383
Si Si6 0.363066 0.529334 0.586383
Si Si7 0.375675 0.948989 0.592368
Si Si8 0.947499 0.686433 0.408549
O O1 0.178051 0.821949 0.750000
O O2 0.206732 0.793268 0.974106
O O3 0.109766 0.793937 0.959788
O O4 0.206063 0.890234 0.959789
O O5 0.237457 0.474915 0.750000
O O6 0.209507 0.511342 0.527172
O O7 0.301835 0.511342 0.527173
O O8 0.744953 0.705897 0.250000
O O9 0.687360 0.623949 0.072516
O O10 0.730787 0.730787 1.000000
O O11 0.036475 0.605326 0.750000
O O12 0.000000 0.580834 0.500000
O O13 0.104179 0.620810 0.539556
O O14 0.638947 0.169367 0.250000
O O15 0.590373 0.180746 0.028998
O O16 0.620810 0.104179 0.039556
O O17 0.361053 0.530420 0.750000
O O18 0.394674 0.963526 0.750000
O O19 0.312640 0.936590 0.572516
O O20 0.960944 0.705897 0.250000
#
# Coordination Sequence:
#
# PCOD8325726 Si02
#       8
#    12  12  12  12  12  12  12  12
#     4   9  14  24  43  59  75 109 148 170 193 244
#     4   9  14  24  38  53  73 101 137 168 199 250
#     4   9  16  26  41  61  83 108 140 173 202 237
#     4   9  16  26  40  58  81 105 130 162 199 240
#     4   9  16  25  37  54  76 100 129 167 207 244
#     4   9  16  25  37  54  76 100 129 167 207 244
#     4   9  16  26  40  58  81 105 130 162 199 240
#     4   9  16  26  41  61  83 108 140 173 202 237
#
# _framework density 15.075303
#
# number of rings (size 3 to 8) (size 9 to 14) (size 15 to 20)
#    0.000    3.000    2.500    0.000    0.000    0.500 
#    0.750    0.625    0.000    0.000    0.000    0.875 
#    0.000    0.000    0.000    0.375    0.250    4.750 
#
# Total GULP energy -1189904.218674 kJ/mol
# GULP energy per Si atom -12394.835611 kJ/mol
# Density = 1.504099 g / cm^3
# Si number density = 15.075303 Si / 1000 Ang^3
#
#
#
# Elastic Constant Matrix: (Units=GPa)
#
#
# Indices 1 2 3 4 5 6 
#
# 1 116.3521 69.9459 30.2299 0.0000 0.0000 0.0000
# 2 69.9459 116.3521 30.2299 0.0000 0.0000 0.0000
# 3 30.2299 30.2299 28.4465 0.0000 0.0000 0.0000
# 4 0.0000 0.0000 0.0000 13.3701 0.0000 0.0000
# 5 0.0000 0.0000 0.0000 0.0000 13.3701 0.0000
# 6 0.0000 0.0000 0.0000 0.0000 0.0000 23.2031
#
#
#
# Elastic Compliance Matrix: (Units=1/GPa)
#
#
# Indices 1 2 3 4 5 6 
#
# 1 0.014871 -0.006678 -0.008707 0.000000 0.000000 0.000000
# 2 -0.006678 0.014871 -0.008707 0.000000 0.000000 0.000000
# 3 -0.008707 -0.008707 0.053660 0.000000 0.000000 0.000000
# 4 0.000000 0.000000 0.000000 0.074794 0.000000 0.000000
# 5 0.000000 0.000000 0.000000 0.000000 0.074794 0.000000
# 6 0.000000 0.000000 0.000000 0.000000 0.000000 0.043098
#
#
# Mechanical properties :
#
#
# Convention : Reuss Voigt Hill
#
# Bulk Modulus (GPa) = 28.39443 57.99578 43.19511
# Shear Modulus (GPa) = 14.88046 18.70500 16.79273
#
# Velocity S-wave (km/s) = 3.14518 3.52628 3.34117
# Velocity P-wave (km/s) = 5.66264 7.42521 6.60300
#
# Compressibility (1/GPa) = 0.03521818
#
# Stress axis : x y z
#
# Youngs Moduli (GPa) = 67.24422 67.24422 18.63587
#
# Poissons Ratio (x) = 0.44903 0.16227
# Poissons Ratio (y) = 0.44903 0.16227
# Poissons Ratio (z) = 0.58551 0.58551
#
# Static dielectric constant tensor:
#      x y z
#    x 2.986580 0.000000 0.000000 
#    y 0.000000 2.986580 0.000000 
#    z 0.000000 0.000000 2.508300 
# 
# 
# High freq. dielectric constant tensor:
#      x y z
#    x 1.568890 0.000000 0.000000 
#    y 0.000000 1.568890 0.000000 
#    z 0.000000 0.000000 1.525710 
# 
# From -- ./inp_files/2209.got.cif
#   From: 2010.06.25/outbox.cif.g09.slc.cpg/sg176_2_cif.got.tgz:2209.got - 2010.06.28 12:15:01.
