data_PCOD8325629
_publ_section_title
;
Structure prediction by ZEFSAII (Michael W. Deem and Ramdas Pophale) SiO2 
 PCOD8325629
Probable space group: P 63/M
;
_chemical_formula_sum "Si O2"
_cell_formula_units_Z 52
_cell_length_a 14.068878
_cell_length_b 14.068878
_cell_length_c 14.440573
_cell_angle_alpha 90.000000
_cell_angle_beta 90.000000
_cell_angle_gamma 120.000000
_cell_volume 2475.335015
_symmetry_space_group_name_H-M "P 63/M"
_symmetry_group_IT_number 176
_symmetry_cell_setting 'hexagonal'
loop_
_space_group_symop_operation_xyz
x,y,z
x-y,x,1/2+z
-y,x-y,z
-x,-y,1/2+z
-x+y,-x,z
y,-x+y,1/2+z
-x,-y,-z
-x+y,-x,1/2-z
y,-x+y,-z
x,y,1/2-z
x-y,x,-z
-y,x-y,1/2-z
loop_
_atom_site_type_symbol
_atom_site_label
_atom_site_fract_x
_atom_site_fract_y
_atom_site_fract_z
Si Si1 0.137367 0.432924 0.859466
Si Si2 0.599428 0.504341 0.858905
Si Si3 0.265931 0.841332 0.359726
Si Si4 0.666667 0.333333 0.359627
Si Si5 0.916762 0.751249 0.000605
O O1 0.141893 0.413828 0.750000
O O2 0.240958 0.546545 0.894103
O O3 0.028513 0.437128 0.887229
O O4 0.135907 0.332188 0.912943
O O5 0.602789 0.493451 0.750000
O O6 0.512812 0.385362 0.898195
O O7 0.719721 0.539362 0.896754
O O8 0.262714 0.854870 0.250000
O O9 0.233514 0.923156 0.408668
O O10 0.666667 0.333334 0.250000
O O11 0.845216 0.806916 0.975231
#
# Coordination Sequence:
#
# PCOD8325629 Si02
#       5
#    12  12  12   4  12
#     4  10  22  42  65  93 128 164 203 254 314 381
#     4   9  18  36  63  93 126 160 199 247 306 371
#     4  10  21  39  65  96 127 162 203 255 315 374
#     4   9  21  39  63  96 133 167 199 246 312 384
#     4  12  27  44  64  88 121 166 219 269 313 365
#
# _framework density 21.007259000000001
#
# number of rings (size 3 to 8) (size 9 to 14) (size 15 to 20)
#    0.000    1.846    2.308    0.692    3.231    5.538 
#    0.000    0.000    0.000    2.769    0.000    0.000 
#    0.000    0.000    0.000    0.000    0.000    0.000 
#
# Total GULP energy -644906.042655 kJ/mol
# GULP energy per Si atom -12402.039282 kJ/mol
# Density = 2.095945 g / cm^3
# Si number density = 21.007259 Si / 1000 Ang^3
#
#
#
# Elastic Constant Matrix: (Units=GPa)
#
#
# Indices 1 2 3 4 5 6 
#
# 1 112.7897 46.1949 28.6340 0.0000 0.0000 -0.0001
# 2 46.1949 112.7892 28.6340 0.0000 0.0000 -0.0003
# 3 28.6340 28.6340 66.9647 0.0000 0.0000 0.0000
# 4 0.0000 0.0000 0.0000 25.5686 0.0000 0.0000
# 5 0.0000 0.0000 0.0000 0.0000 25.5686 0.0000
# 6 -0.0001 -0.0003 0.0000 0.0000 0.0000 33.2973
#
#
#
# Elastic Compliance Matrix: (Units=1/GPa)
#
#
# Indices 1 2 3 4 5 6 
#
# 1 0.011226 -0.003791 -0.003179 0.000000 0.000000 0.000000
# 2 -0.003791 0.011226 -0.003179 0.000000 0.000000 0.000000
# 3 -0.003179 -0.003179 0.017652 0.000000 0.000000 0.000000
# 4 0.000000 0.000000 0.000000 0.039110 0.000000 0.000000
# 5 0.000000 0.000000 0.000000 0.000000 0.039110 0.000000
# 6 0.000000 0.000000 0.000000 0.000000 0.000000 0.030032
#
#
# Mechanical properties :
#
#
# Convention : Reuss Voigt Hill
#
# Bulk Modulus (GPa) = 50.49132 55.49659 52.99395
# Shear Modulus (GPa) = 28.52959 29.49231 29.01095
#
# Velocity S-wave (km/s) = 3.68921 3.75094 3.72021
# Velocity P-wave (km/s) = 6.49880 6.72567 6.61321
#
# Compressibility (1/GPa) = 0.01980539
#
# Stress axis : x y z
#
# Youngs Moduli (GPa) = 89.08168 89.08124 56.65047
#
# Poissons Ratio (x) = 0.33767 0.18010
# Poissons Ratio (y) = 0.33767 0.18011
# Poissons Ratio (z) = 0.28321 0.28321
#
# Static dielectric constant tensor:
#      x y z
#    x 3.888490 0.000010 0.000000 
#    y 0.000010 3.888490 0.000000 
#    z 0.000000 0.000000 3.563660 
# 
# 
# High freq. dielectric constant tensor:
#      x y z
#    x 1.826280 0.000000 0.000000 
#    y 0.000000 1.826280 0.000000 
#    z 0.000000 0.000000 1.814970 
# 
# From -- ./inp_files/2578.got.cif
#   From: 2010.06.25/outbox.cif.g09.slc.cpg/sg176_2_cif.got.tgz:2578.got - 2010.06.28 12:15:01.
