data_PCOD8325531
_publ_section_title
;
Structure prediction by ZEFSAII (Michael W. Deem and Ramdas Pophale) SiO2 
 PCOD8325531
Probable space group: P 63/M
;
_chemical_formula_sum "Si O2"
_cell_formula_units_Z 72
_cell_length_a 23.755775
_cell_length_b 23.755775
_cell_length_c 8.828749
_cell_angle_alpha 90.000000
_cell_angle_beta 90.000000
_cell_angle_gamma 120.000000
_cell_volume 4314.874894
_symmetry_space_group_name_H-M "P 63/M"
_symmetry_group_IT_number 176
_symmetry_cell_setting 'hexagonal'
loop_
_space_group_symop_operation_xyz
x,y,z
x-y,x,1/2+z
-y,x-y,z
-x,-y,1/2+z
-x+y,-x,z
y,-x+y,1/2+z
-x,-y,-z
-x+y,-x,1/2-z
y,-x+y,-z
x,y,1/2-z
x-y,x,-z
-y,x-y,1/2-z
loop_
_atom_site_type_symbol
_atom_site_label
_atom_site_fract_x
_atom_site_fract_y
_atom_site_fract_z
Si Si1 0.625457 0.134640 0.928097
Si Si2 0.818885 0.637311 0.580631
Si Si3 0.737919 0.483429 0.583226
Si Si4 0.627536 0.484683 0.076025
Si Si5 0.067894 0.704712 0.573222
Si Si6 0.069748 0.370372 0.571049
O O1 0.627372 0.123030 0.750000
O O2 0.672239 0.211093 0.970629
O O3 0.553007 0.114615 0.979444
O O4 0.647633 0.089364 0.011754
O O5 0.831782 0.667501 0.750000
O O6 0.778862 0.560439 0.591950
O O7 0.778101 0.661561 0.481921
O O8 0.886770 0.657905 0.498776
O O9 0.709513 0.455005 0.750000
O O10 0.678205 0.460427 0.468204
O O11 0.609471 0.468052 0.250000
O O12 0.658365 0.560460 0.040673
O O13 0.053071 0.705489 0.750000
O O14 0.003562 0.678931 0.475422
O O15 0.077728 0.373321 0.750000
#
# Coordination Sequence:
#
# PCOD8325531 Si02
#       6
#    12  12  12  12  12  12
#     4  10  20  34  50  66  89 121 156 200 250 300
#     4   9  17  32  52  72  95 123 154 191 233 279
#     4   8  16  31  48  63  81 112 149 186 235 294
#     4  10  20  32  48  68  90 117 152 200 251 297
#     4  10  20  34  51  73  99 128 162 198 238 290
#     4  11  21  33  51  74  98 127 162 198 239 290
#
# _framework density 16.686461999999999
#
# number of rings (size 3 to 8) (size 9 to 14) (size 15 to 20)
#    0.000    2.333    0.000    4.500    0.000    7.333 
#    1.000    0.000    0.000    0.000    0.000    0.000 
#    0.000    0.000    0.000    0.500    0.000    7.000 
#
# Total GULP energy -892724.459839 kJ/mol
# GULP energy per Si atom -12398.950831 kJ/mol
# Density = 1.664848 g / cm^3
# Si number density = 16.686462 Si / 1000 Ang^3
#
#
#
# Elastic Constant Matrix: (Units=GPa)
#
#
# Indices 1 2 3 4 5 6 
#
# 1 61.8596 34.8679 32.3222 0.0000 0.0000 0.0000
# 2 34.8679 61.8596 32.3222 0.0000 0.0000 0.0000
# 3 32.3222 32.3222 97.6053 0.0000 0.0000 0.0000
# 4 0.0000 0.0000 0.0000 26.9197 0.0000 0.0000
# 5 0.0000 0.0000 0.0000 0.0000 26.9197 0.0000
# 6 0.0000 0.0000 0.0000 0.0000 0.0000 13.4959
#
#
#
# Elastic Compliance Matrix: (Units=1/GPa)
#
#
# Indices 1 2 3 4 5 6 
#
# 1 0.025163 -0.011886 -0.004397 0.000000 0.000000 0.000000
# 2 -0.011886 0.025163 -0.004397 0.000000 0.000000 0.000000
# 3 -0.004397 -0.004397 0.013157 0.000000 0.000000 0.000000
# 4 0.000000 0.000000 0.000000 0.037148 0.000000 0.000000
# 5 0.000000 0.000000 0.000000 0.000000 0.037148 0.000000
# 6 0.000000 0.000000 0.000000 0.000000 0.000000 0.074097
#
#
# Mechanical properties :
#
#
# Convention : Reuss Voigt Hill
#
# Bulk Modulus (GPa) = 45.19952 46.70546 45.95249
# Shear Modulus (GPa) = 19.18599 21.58787 20.38693
#
# Velocity S-wave (km/s) = 3.39454 3.60076 3.49917
# Velocity P-wave (km/s) = 6.51999 6.73335 6.62753
#
# Compressibility (1/GPa) = 0.02212413
#
# Stress axis : x y z
#
# Youngs Moduli (GPa) = 39.74167 39.74167 76.00397
#
# Poissons Ratio (x) = 0.47237 0.33416
# Poissons Ratio (y) = 0.47237 0.33416
# Poissons Ratio (z) = 0.17473 0.17473
#
# Static dielectric constant tensor:
#      x y z
#    x 3.037910 0.000000 0.000000 
#    y 0.000000 3.037910 0.000000 
#    z 0.000000 0.000000 3.276450 
# 
# 
# High freq. dielectric constant tensor:
#      x y z
#    x 1.615790 0.000000 0.000000 
#    y 0.000000 1.615790 0.000000 
#    z 0.000000 0.000000 1.659420 
# 
# From -- ./inp_files/1144.got.cif
#   From: 2010.06.25/outbox.cif.g09.slc.cpg/sg176_1_cif.got.tgz:1144.got - 2010.06.28 12:15:01.
