data_PCOD8325436
_publ_section_title
;
Structure prediction by ZEFSAII (Michael W. Deem and Ramdas Pophale) SiO2 
 PCOD8325436
Probable space group: P 63/M
;
_chemical_formula_sum "Si O2"
_cell_formula_units_Z 66
_cell_length_a 13.774384
_cell_length_b 13.774384
_cell_length_c 21.266934
_cell_angle_alpha 90.000000
_cell_angle_beta 90.000000
_cell_angle_gamma 120.000000
_cell_volume 3494.458498
_symmetry_space_group_name_H-M "P 63/M"
_symmetry_group_IT_number 176
_symmetry_cell_setting 'hexagonal'
loop_
_space_group_symop_operation_xyz
x,y,z
x-y,x,1/2+z
-y,x-y,z
-x,-y,1/2+z
-x+y,-x,z
y,-x+y,1/2+z
-x,-y,-z
-x+y,-x,1/2-z
y,-x+y,-z
x,y,1/2-z
x-y,x,-z
-y,x-y,1/2-z
loop_
_atom_site_type_symbol
_atom_site_label
_atom_site_fract_x
_atom_site_fract_y
_atom_site_fract_z
Si Si1 0.894816 0.153827 0.984855
Si Si2 0.895238 0.343157 0.055475
Si Si3 0.791472 0.335103 0.318514
Si Si4 0.822469 0.256838 0.615145
Si Si5 0.594816 0.133416 0.551058
Si Si6 0.276037 0.522104 0.250000
O O1 0.872557 0.180272 0.912527
O O2 0.850516 0.218519 0.029219
O O3 0.024335 0.196592 0.997473
O O4 0.873831 0.335432 0.129379
O O5 0.028135 0.414045 0.044229
O O6 0.835325 0.402092 0.017995
O O7 0.775941 0.444183 0.324753
O O8 0.843202 0.335851 0.250000
O O9 0.706878 0.232268 0.581023
O O10 0.901541 0.387707 0.596390
O O11 0.803152 0.242387 0.690020
O O12 0.409459 0.616785 0.250000
#
# Coordination Sequence:
#
# PCOD8325436 Si02
#       6
#    12  12  12  12  12   6
#     4  11  24  42  63  84 114 155 216 267 311 343
#     4  10  21  34  58  84 112 145 193 249 292 353
#     4   8  18  34  52  78 115 155 187 218 287 360
#     4  11  20  36  58  87 126 156 193 236 299 377
#     4  10  20  33  53  89 113 147 188 233 296 359
#     4  10  18  34  58  88 126 172 186 218 296 380
#
# _framework density 18.887046000000002
#
# number of rings (size 3 to 8) (size 9 to 14) (size 15 to 20)
#    0.545    1.455    3.636    0.545    5.091    0.000 
#    3.273    0.000    2.000    0.000    0.000    0.000 
#    0.000    0.000    0.000    0.000    0.000    0.000 
#
# Total GULP energy -817792.052850 kJ/mol
# GULP energy per Si atom -12390.788680 kJ/mol
# Density = 1.884406 g / cm^3
# Si number density = 18.887046 Si / 1000 Ang^3
#
#
#
# Elastic Constant Matrix: (Units=GPa)
#
#
# Indices 1 2 3 4 5 6 
#
# 1 62.7887 20.0495 42.1378 0.0000 0.0000 0.0000
# 2 20.0495 62.7887 42.1378 0.0000 0.0000 0.0000
# 3 42.1378 42.1378 171.9999 0.0000 0.0000 0.0000
# 4 0.0000 0.0000 0.0000 18.9792 0.0000 0.0000
# 5 0.0000 0.0000 0.0000 0.0000 18.9792 0.0000
# 6 0.0000 0.0000 0.0000 0.0000 0.0000 21.3696
#
#
#
# Elastic Compliance Matrix: (Units=1/GPa)
#
#
# Indices 1 2 3 4 5 6 
#
# 1 0.019739 -0.003659 -0.003939 0.000000 0.000000 0.000000
# 2 -0.003659 0.019739 -0.003939 0.000000 0.000000 0.000000
# 3 -0.003939 -0.003939 0.007744 0.000000 0.000000 0.000000
# 4 0.000000 0.000000 0.000000 0.052689 0.000000 0.000000
# 5 0.000000 0.000000 0.000000 0.000000 0.052689 0.000000
# 6 0.000000 0.000000 0.000000 0.000000 0.000000 0.046795
#
#
# Mechanical properties :
#
#
# Convention : Reuss Voigt Hill
#
# Bulk Modulus (GPa) = 41.41509 56.24750 48.83130
# Shear Modulus (GPa) = 21.69018 24.74907 23.21963
#
# Velocity S-wave (km/s) = 3.39250 3.62383 3.51008
# Velocity P-wave (km/s) = 6.10908 6.88151 6.50677
#
# Compressibility (1/GPa) = 0.02414579
#
# Stress axis : x y z
#
# Youngs Moduli (GPa) = 50.66234 50.66234 129.13088
#
# Poissons Ratio (x) = 0.18538 0.50868
# Poissons Ratio (y) = 0.18538 0.50868
# Poissons Ratio (z) = 0.19957 0.19957
#
# Static dielectric constant tensor:
#      x y z
#    x 3.237820 0.000000 0.000000 
#    y 0.000000 3.237820 0.000000 
#    z 0.000000 0.000000 3.422400 
# 
# 
# High freq. dielectric constant tensor:
#      x y z
#    x 1.711740 0.000000 0.000000 
#    y 0.000000 1.711740 0.000000 
#    z 0.000000 0.000000 1.729430 
# 
# From -- ./inp_files/3806.got.cif
#   From: 2010.06.25/outbox.cif.g09.slc.cpg/sg176_2_cif.got.tgz:3806.got - 2010.06.28 12:15:01.
