data_PCOD8325583
_publ_section_title
;
Structure prediction by ZEFSAII (Michael W. Deem and Ramdas Pophale) SiO2 
 PCOD8325583
Probable space group: P 63/M
;
_chemical_formula_sum "Si O2"
_cell_formula_units_Z 66
_cell_length_a 11.723286
_cell_length_b 11.723286
_cell_length_c 27.415613
_cell_angle_alpha 90.000000
_cell_angle_beta 90.000000
_cell_angle_gamma 120.000000
_cell_volume 3263.076931
_symmetry_space_group_name_H-M "P 63/M"
_symmetry_group_IT_number 176
_symmetry_cell_setting 'hexagonal'
loop_
_space_group_symop_operation_xyz
x,y,z
x-y,x,1/2+z
-y,x-y,z
-x,-y,1/2+z
-x+y,-x,z
y,-x+y,1/2+z
-x,-y,-z
-x+y,-x,1/2-z
y,-x+y,-z
x,y,1/2-z
x-y,x,-z
-y,x-y,1/2-z
loop_
_atom_site_type_symbol
_atom_site_label
_atom_site_fract_x
_atom_site_fract_y
_atom_site_fract_z
Si Si1 0.314045 0.898848 0.087376
Si Si2 0.031877 0.270259 0.696491
Si Si3 0.964585 0.730559 0.821348
Si Si4 0.194324 0.507451 0.250000
Si Si5 0.963275 0.726839 0.491181
Si Si6 0.648370 0.589302 0.604118
O O1 0.263337 0.978441 0.120701
O O2 0.216770 0.746862 0.102849
O O3 0.466099 0.960522 0.098948
O O4 0.306825 0.915597 0.029719
O O5 0.009345 0.314797 0.750000
O O6 0.177867 0.289543 0.697791
O O7 0.922703 0.117185 0.687969
O O8 0.012302 0.354572 0.654612
O O9 0.884488 0.583875 0.796645
O O10 0.351452 0.547968 0.250000
O O11 0.850294 0.762989 0.484470
O O12 0.990615 0.683754 0.439350
#
# Coordination Sequence:
#
# PCOD8325583 Si02
#       6
#    12  12  12   6  12  12
#     4  10  22  36  57  87 118 159 200 253 308 362
#     4  11  21  37  57  90 120 163 206 253 313 352
#     4  11  22  38  61  90 126 164 206 265 304 374
#     4  10  24  36  60  96 124 164 202 254 320 356
#     4  10  20  38  61  89 115 148 191 252 313 369
#     4  10  22  37  59  85 122 159 205 253 302 377
#
# _framework density 20.226306999999998
#
# number of rings (size 3 to 8) (size 9 to 14) (size 15 to 20)
#    0.182    1.455    1.818    2.545    5.091    0.000 
#    0.000    3.636    0.000    8.000    0.000    0.000 
#    0.000    0.000    0.000    0.000    0.000    0.000 
#
# Total GULP energy -817843.021148 kJ/mol
# GULP energy per Si atom -12391.560926 kJ/mol
# Density = 2.018027 g / cm^3
# Si number density = 20.226307 Si / 1000 Ang^3
#
#
#
# Elastic Constant Matrix: (Units=GPa)
#
#
# Indices 1 2 3 4 5 6 
#
# 1 64.4292 63.9684 30.5004 0.0000 0.0000 0.0000
# 2 63.9684 64.4292 30.5004 0.0000 0.0000 0.0000
# 3 30.5004 30.5004 126.4708 0.0000 0.0000 0.0000
# 4 0.0000 0.0000 0.0000 5.8818 0.0000 0.0000
# 5 0.0000 0.0000 0.0000 0.0000 5.8818 0.0000
# 6 0.0000 0.0000 0.0000 0.0000 0.0000 0.2304
#
#
#
# Elastic Compliance Matrix: (Units=1/GPa)
#
#
# Indices 1 2 3 4 5 6 
#
# 1 1.089497 -1.080701 -0.002121 0.000000 0.000000 0.000000
# 2 -1.080701 1.089497 -0.002121 0.000000 0.000000 0.000000
# 3 -0.002121 -0.002121 0.008930 0.000000 0.000000 0.000000
# 4 0.000000 0.000000 0.000000 0.170017 0.000000 0.000000
# 5 0.000000 0.000000 0.000000 0.000000 0.170017 0.000000
# 6 0.000000 0.000000 0.000000 0.000000 0.000000 4.340393
#
#
# Mechanical properties :
#
#
# Convention : Reuss Voigt Hill
#
# Bulk Modulus (GPa) = 55.44122 56.14083 55.79102
# Shear Modulus (GPa) = 0.55284 11.08946 5.82115
#
# Velocity S-wave (km/s) = 0.52337 2.34405 1.69831
# Velocity P-wave (km/s) = 5.27591 5.92813 5.61150
#
# Compressibility (1/GPa) = 0.01803712
#
# Stress axis : x y z
#
# Youngs Moduli (GPa) = 0.91785 0.91785 111.98029
#
# Poissons Ratio (x) = 0.99193 0.23755
# Poissons Ratio (y) = 0.99193 0.23755
# Poissons Ratio (z) = 0.00195 0.00195
#
# Static dielectric constant tensor:
#      x y z
#    x 3.453460 0.000000 0.000000 
#    y 0.000000 3.453460 0.000000 
#    z 0.000000 0.000000 3.957010 
# 
# 
# High freq. dielectric constant tensor:
#      x y z
#    x 1.772770 0.000000 0.000000 
#    y 0.000000 1.772770 0.000000 
#    z 0.000000 0.000000 1.815140 
# 
# From -- ./inp_files/4474.got.cif
#   From: 2010.06.25/outbox.cif.g09.slc.cpg/sg176_3_cif.got.tgz:4474.got - 2010.06.28 12:15:01.
