data_PCOD8325128
_publ_section_title
;
Structure prediction by ZEFSAII (Michael W. Deem and Ramdas Pophale) SiO2 
 PCOD8325128
Probable space group: P 6/M
;
_chemical_formula_sum "Si O2"
_cell_formula_units_Z 46
_cell_length_a 12.539973
_cell_length_b 12.539973
_cell_length_c 18.423081
_cell_angle_alpha 90.000000
_cell_angle_beta 90.000000
_cell_angle_gamma 120.000000
_cell_volume 2508.915855
_symmetry_space_group_name_H-M "P 6/M"
_symmetry_group_IT_number 175
_symmetry_cell_setting 'hexagonal'
loop_
_space_group_symop_operation_xyz
x,y,z
x-y,x,z
-y,x-y,z
-x,-y,z
-x+y,-x,z
y,-x+y,z
-x,-y,-z
-x+y,-x,-z
y,-x+y,-z
x,y,-z
x-y,x,-z
-y,x-y,-z
loop_
_atom_site_type_symbol
_atom_site_label
_atom_site_fract_x
_atom_site_fract_y
_atom_site_fract_z
Si Si1 0.762557 0.025492 0.000000
Si Si2 0.084288 0.439500 0.132459
Si Si3 0.273972 0.213362 0.576578
Si Si4 0.722495 0.783794 0.265881
Si Si5 0.666666 0.333333 0.085909
O O1 0.765370 0.900564 0.000000
O O2 0.690827 0.026827 0.071166
O O3 0.086158 0.382760 0.209325
O O4 0.223948 0.537971 0.113889
O O5 0.000000 0.500000 0.138473
O O6 0.225662 0.070728 0.575999
O O7 0.350136 0.272619 0.500000
O O8 0.341725 0.266100 0.654025
O O9 0.840169 0.767117 0.254586
O O10 0.666667 0.333334 0.000000
#
# Coordination Sequence:
#
# PCOD8325128 Si02
#       5
#     6  12  12  12   4
#     4  12  24  40  60  84 111 138 170 212 268 330
#     4  12  25  40  59  81 106 140 183 228 272 321
#     4   8  13  22  41  71 107 144 178 213 257 313
#     4  10  19  33  53  81 115 147 180 220 270 325
#     4  12  24  42  63  81 103 140 184 228 276 318
#
# _framework density 18.334612
#
# number of rings (size 3 to 8) (size 9 to 14) (size 15 to 20)
#    0.000    1.565    1.304    5.739    0.000    3.130 
#    0.000    2.609    0.000    0.783    0.000    1.826 
#    0.000    0.000    0.000    0.000    0.000    0.000 
#
# Total GULP energy -569917.577988 kJ/mol
# GULP energy per Si atom -12389.512565 kJ/mol
# Density = 1.829288 g / cm^3
# Si number density = 18.334612 Si / 1000 Ang^3
#
#
#
# Elastic Constant Matrix: (Units=GPa)
#
#
# Indices 1 2 3 4 5 6 
#
# 1 92.0997 34.7648 68.2732 0.0000 0.0000 0.0003
# 2 34.7648 92.0998 68.2734 0.0000 0.0000 0.0004
# 3 68.2732 68.2734 221.2760 0.0000 0.0000 0.0003
# 4 0.0000 0.0000 0.0000 27.1604 -0.0001 0.0000
# 5 0.0000 0.0000 0.0000 -0.0001 27.1608 0.0000
# 6 0.0003 0.0004 0.0003 0.0000 0.0000 28.6672
#
#
#
# Elastic Compliance Matrix: (Units=1/GPa)
#
#
# Indices 1 2 3 4 5 6 
#
# 1 0.014621 -0.002820 -0.003641 0.000000 0.000000 0.000000
# 2 -0.002820 0.014622 -0.003641 0.000000 0.000000 0.000000
# 3 -0.003641 -0.003641 0.006766 0.000000 0.000000 0.000000
# 4 0.000000 0.000000 0.000000 0.036818 0.000000 0.000000
# 5 0.000000 0.000000 0.000000 0.000000 0.036818 0.000000
# 6 0.000000 0.000000 0.000000 0.000000 0.000000 0.034883
#
#
# Mechanical properties :
#
#
# Convention : Reuss Voigt Hill
#
# Bulk Modulus (GPa) = 63.27409 83.12202 73.19806
# Shear Modulus (GPa) = 29.41151 32.20863 30.81007
#
# Velocity S-wave (km/s) = 4.00953 4.19586 4.10375
# Velocity P-wave (km/s) = 7.48470 8.30110 7.90345
#
# Compressibility (1/GPa) = 0.01580426
#
# Stress axis : x y z
#
# Youngs Moduli (GPa) = 68.39245 68.39243 147.79226
#
# Poissons Ratio (x) = 0.19286 0.53816
# Poissons Ratio (y) = 0.19286 0.53816
# Poissons Ratio (z) = 0.24904 0.24904
#
# Static dielectric constant tensor:
#      x y z
#    x 3.099410 -0.000120 0.000000 
#    y -0.000120 3.099360 0.000000 
#    z 0.000000 0.000000 4.375120 
# 
# 
# High freq. dielectric constant tensor:
#      x y z
#    x 1.693050 0.000000 0.000000 
#    y 0.000000 1.693050 0.000000 
#    z 0.000000 0.000000 1.744560 
# 
# From -- ./inp_files/2776.got.cif
#   From: 2010.03.12/outbox.cif.g09.slc.cpg/sg175_2_cif.got.tgz:2776.got - 2010.04.02 06:55:29.
