data_PCOD8325322
_publ_section_title
;
Structure prediction by ZEFSAII (Michael W. Deem and Ramdas Pophale) SiO2 
 PCOD8325322
Probable space group: P 6/M
;
_chemical_formula_sum "Si O2"
_cell_formula_units_Z 48
_cell_length_a 18.616265
_cell_length_b 18.616265
_cell_length_c 7.700029
_cell_angle_alpha 90.000000
_cell_angle_beta 90.000000
_cell_angle_gamma 120.000000
_cell_volume 2311.043379
_symmetry_space_group_name_H-M "P 6/M"
_symmetry_group_IT_number 175
_symmetry_cell_setting 'hexagonal'
loop_
_space_group_symop_operation_xyz
x,y,z
x-y,x,z
-y,x-y,z
-x,-y,z
-x+y,-x,z
y,-x+y,z
-x,-y,-z
-x+y,-x,-z
y,-x+y,-z
x,y,-z
x-y,x,-z
-y,x-y,-z
loop_
_atom_site_type_symbol
_atom_site_label
_atom_site_fract_x
_atom_site_fract_y
_atom_site_fract_z
Si Si1 0.265540 0.366178 0.804516
Si Si2 0.043772 0.446222 0.803759
Si Si3 0.288939 0.483596 0.500000
Si Si4 0.870225 0.814207 0.294876
Si Si5 0.629603 0.160232 0.500000
O O1 0.350300 0.367366 0.760369
O O2 0.255725 0.426248 0.670338
O O3 0.189635 0.273233 0.793979
O O4 0.269293 0.399837 0.000000
O O5 0.119146 0.477407 0.671980
O O6 0.000000 0.500000 0.772421
O O7 0.077990 0.457733 0.000000
O O8 0.387594 0.540244 0.500000
O O9 0.253304 0.546621 0.500000
O O10 0.845520 0.881649 0.233347
O O11 0.861309 0.802435 0.500000
#
# Coordination Sequence:
#
# PCOD8325322 Si02
#       5
#    12  12   6  12   6
#     4  11  24  41  65  97 129 165 218 276 326 380
#     4  10  21  40  67  94 120 159 212 269 325 376
#     4  12  26  44  63  94 133 171 213 263 325 390
#     4  10  22  40  65  96 135 176 220 264 320 386
#     4  12  25  41  68  91 129 173 212 256 322 395
#
# _framework density 20.769839999999999
#
# number of rings (size 3 to 8) (size 9 to 14) (size 15 to 20)
#    0.000    1.250    3.750    1.625    3.500    3.000 
#    0.000    0.000    0.000    4.500    0.000    0.000 
#    0.000    0.000    0.000    0.000    0.000    0.000 
#
# Total GULP energy -595353.230799 kJ/mol
# GULP energy per Si atom -12403.192308 kJ/mol
# Density = 2.072257 g / cm^3
# Si number density = 20.769840 Si / 1000 Ang^3
#
#
#
# Elastic Constant Matrix: (Units=GPa)
#
#
# Indices 1 2 3 4 5 6 
#
# 1 109.5514 35.6858 39.2858 0.0000 0.0000 0.0000
# 2 35.6858 109.5514 39.2858 0.0000 0.0000 0.0000
# 3 39.2858 39.2858 110.9088 0.0000 0.0000 0.0000
# 4 0.0000 0.0000 0.0000 9.8124 0.0000 0.0000
# 5 0.0000 0.0000 0.0000 0.0000 9.8124 0.0000
# 6 0.0000 0.0000 0.0000 0.0000 0.0000 36.9328
#
#
#
# Elastic Compliance Matrix: (Units=1/GPa)
#
#
# Indices 1 2 3 4 5 6 
#
# 1 0.011028 -0.002510 -0.003017 0.000000 0.000000 0.000000
# 2 -0.002510 0.011028 -0.003017 0.000000 0.000000 0.000000
# 3 -0.003017 -0.003017 0.011154 0.000000 0.000000 0.000000
# 4 0.000000 0.000000 0.000000 0.101912 0.000000 0.000000
# 5 0.000000 0.000000 0.000000 0.000000 0.101912 0.000000
# 6 0.000000 0.000000 0.000000 0.000000 0.000000 0.027076
#
#
# Mechanical properties :
#
#
# Convention : Reuss Voigt Hill
#
# Bulk Modulus (GPa) = 62.03248 62.05850 62.04549
# Shear Modulus (GPa) = 17.44759 25.69512 21.57135
#
# Velocity S-wave (km/s) = 2.90150 3.52111 3.22621
# Velocity P-wave (km/s) = 6.41532 6.81725 6.61934
#
# Compressibility (1/GPa) = 0.01612059
#
# Stress axis : x y z
#
# Youngs Moduli (GPa) = 90.68004 90.68004 89.65568
#
# Poissons Ratio (x) = 0.22764 0.27049
# Poissons Ratio (y) = 0.22764 0.27049
# Poissons Ratio (z) = 0.27358 0.27358
#
# Static dielectric constant tensor:
#      x y z
#    x 3.667310 0.000000 0.000000 
#    y 0.000000 3.667310 0.000000 
#    z 0.000000 0.000000 3.894870 
# 
# 
# High freq. dielectric constant tensor:
#      x y z
#    x 1.811000 0.000000 0.000000 
#    y 0.000000 1.811000 0.000000 
#    z 0.000000 0.000000 1.823150 
# 
# From -- ./inp_files/644.got.cif
#   From: 2010.03.12/outbox.cif.g09.slc.cpg/sg175_1_cif.got.tgz:644.got - 2010.04.02 06:55:29.
