data_PCOD8325908
_publ_section_title
;
Structure prediction by ZEFSAII (Michael W. Deem and Ramdas Pophale) SiO2 
 PCOD8325908
Probable space group: P 61 2 2
;
_chemical_formula_sum "Si O2"
_cell_formula_units_Z 42
_cell_length_a 15.589807
_cell_length_b 15.589807
_cell_length_c 10.008771
_cell_angle_alpha 90.000000
_cell_angle_beta 90.000000
_cell_angle_gamma 120.000000
_cell_volume 2106.652300
_symmetry_space_group_name_H-M "P 61 2 2"
_symmetry_group_IT_number 178
_symmetry_cell_setting 'hexagonal'
loop_
_space_group_symop_operation_xyz
x,y,z
x-y,x,1/6+z
-y,x-y,1/3+z
-x,-y,1/2+z
-x+y,-x,2/3+z
y,-x+y,5/6+z
x-y,-y,-z
-x,-x+y,2/3-z
y,x,1/3-z
-y,-x,5/6-z
-x+y,y,1/2-z
x,x-y,1/6-z
loop_
_atom_site_type_symbol
_atom_site_label
_atom_site_fract_x
_atom_site_fract_y
_atom_site_fract_z
Si Si1 0.835571 0.835571 0.666667
Si Si2 0.250786 0.749215 0.916667
Si Si3 0.986980 0.339684 0.684644
Si Si4 0.856240 0.650900 0.989350
Si Si5 0.431052 0.568949 0.416667
O O1 0.931235 0.862469 0.750000
O O2 0.746522 0.797441 0.767367
O O3 0.188623 0.752501 0.788556
O O4 0.365525 0.792004 0.873297
O O5 0.907807 0.222210 0.694967
O O6 0.933890 0.387918 0.605345
O O7 0.000000 0.380611 0.833334
O O8 0.094393 0.372560 0.617565
#
# Coordination Sequence:
#
# PCOD8325908 Si02
#       5
#     6   6  12  12   6
#     4  12  20  38  60  88 116 170 210 250 308 374
#     4  10  22  44  65  94 126 166 215 280 324 402
#     4  11  24  41  64  97 128 170 214 273 326 391
#     4  11  21  40  66  88 130 164 213 261 323 385
#     4  10  24  42  65  92 120 170 221 264 338 396
#
# _framework density 19.936845000000002
#
# number of rings (size 3 to 8) (size 9 to 14) (size 15 to 20)
#    0.000    1.143    4.286    2.571    4.000    0.000 
#   12.857    0.000    0.000    0.000    0.000    0.000 
#    0.000    0.000    0.000    0.000    0.000    0.000 
#
# Total GULP energy -520411.775080 kJ/mol
# GULP energy per Si atom -12390.756550 kJ/mol
# Density = 1.989147 g / cm^3
# Si number density = 19.936845 Si / 1000 Ang^3
#
#
#
# Elastic Constant Matrix: (Units=GPa)
#
#
# Indices 1 2 3 4 5 6 
#
# 1 71.0688 19.9687 11.5289 0.0000 0.0000 0.0000
# 2 19.9687 71.0688 11.5289 0.0000 0.0000 0.0000
# 3 11.5289 11.5289 85.6325 0.0000 0.0000 0.0000
# 4 0.0000 0.0000 0.0000 38.2979 0.0000 0.0000
# 5 0.0000 0.0000 0.0000 0.0000 38.2979 0.0000
# 6 0.0000 0.0000 0.0000 0.0000 0.0000 25.5501
#
#
#
# Elastic Compliance Matrix: (Units=1/GPa)
#
#
# Indices 1 2 3 4 5 6 
#
# 1 0.015471 -0.004099 -0.001531 0.000000 0.000000 0.000000
# 2 -0.004099 0.015471 -0.001531 0.000000 0.000000 0.000000
# 3 -0.001531 -0.001531 0.012090 0.000000 0.000000 0.000000
# 4 0.000000 0.000000 0.000000 0.026111 0.000000 0.000000
# 5 0.000000 0.000000 0.000000 0.000000 0.026111 0.000000
# 6 0.000000 0.000000 0.000000 0.000000 0.000000 0.039139
#
#
# Mechanical properties :
#
#
# Convention : Reuss Voigt Hill
#
# Bulk Modulus (GPa) = 34.83068 34.86922 34.84995
# Shear Modulus (GPa) = 31.58873 32.74542 32.16707
#
# Velocity S-wave (km/s) = 3.98482 4.05712 4.02113
# Velocity P-wave (km/s) = 6.21934 6.28290 6.25120
#
# Compressibility (1/GPa) = 0.02871032
#
# Stress axis : x y z
#
# Youngs Moduli (GPa) = 64.63774 64.63774 82.71254
#
# Poissons Ratio (x) = 0.26492 0.12664
# Poissons Ratio (y) = 0.26492 0.12664
# Poissons Ratio (z) = 0.09896 0.09896
#
# Static dielectric constant tensor:
#      x y z
#    x 3.835400 0.000000 0.000000 
#    y 0.000000 3.835400 0.000000 
#    z 0.000000 0.000000 3.773290 
# 
# 
# High freq. dielectric constant tensor:
#      x y z
#    x 1.779860 0.000000 0.000000 
#    y 0.000000 1.779860 0.000000 
#    z 0.000000 0.000000 1.780740 
# 
# From -- ./inp_files/3897.got.cif
#   From: 2010.03.12/outbox.cif.g09.slc.cpg/sg178_2_cif.got.tgz:3897.got - 2010.04.02 07:02:38.
