data_PCOD8325012
_publ_section_title
;
Structure prediction by ZEFSAII (Michael W. Deem and Ramdas Pophale) SiO2 
 PCOD8325012
Probable space group: P 6/M
;
_chemical_formula_sum "Si O2"
_cell_formula_units_Z 78
_cell_length_a 19.763579
_cell_length_b 19.763579
_cell_length_c 18.322977
_cell_angle_alpha 90.000000
_cell_angle_beta 90.000000
_cell_angle_gamma 120.000000
_cell_volume 6198.089687
_symmetry_space_group_name_H-M "P 6/M"
_symmetry_group_IT_number 175
_symmetry_cell_setting 'hexagonal'
loop_
_space_group_symop_operation_xyz
x,y,z
x-y,x,z
-y,x-y,z
-x,-y,z
-x+y,-x,z
y,-x+y,z
-x,-y,-z
-x+y,-x,-z
y,-x+y,-z
x,y,-z
x-y,x,-z
-y,x-y,-z
loop_
_atom_site_type_symbol
_atom_site_label
_atom_site_fract_x
_atom_site_fract_y
_atom_site_fract_z
Si Si1 0.844880 0.839331 0.576972
Si Si2 0.157988 0.163596 0.735889
Si Si3 0.011970 0.846193 0.000000
Si Si4 0.537995 0.450829 0.086422
Si Si5 0.865217 0.583132 0.085094
Si Si6 0.294201 0.426675 0.915117
Si Si7 0.741060 0.737342 0.866828
O O1 0.853915 0.923107 0.576346
O O2 0.801682 0.794589 0.500000
O O3 0.806901 0.800003 0.654951
O O4 0.152218 0.080093 0.748625
O O5 0.219862 0.227991 0.789783
O O6 0.933360 0.849712 0.000000
O O7 0.018173 0.803152 0.929129
O O8 0.500000 0.500000 0.117629
O O9 0.487966 0.362752 0.116970
O O10 0.628347 0.494574 0.111356
O O11 0.532864 0.446359 0.000000
O O12 0.776026 0.557380 0.099155
O O13 0.919509 0.663764 0.126592
O O14 0.888058 0.598511 0.000000
O O15 0.283339 0.353170 0.869198
O O16 0.301199 0.409168 0.000000
#
# Coordination Sequence:
#
# PCOD8325012 Si02
#       7
#    12  12   6  12  12  12  12
#     4   8  13  22  36  51  66  87 116 150 189 230
#     4  10  19  28  37  51  72  96 125 162 197 223
#     4  12  23  32  38  47  66  96 132 168 196 215
#     4   9  16  28  42  58  70  88 118 154 198 232
#     4  10  18  29  43  56  72  94 122 156 191 230
#     4  10  18  29  43  56  72  94 122 156 191 230
#     4  12  20  29  40  54  70  98 134 158 184 217
#
# _framework density 12.584523000000001
#
# number of rings (size 3 to 8) (size 9 to 14) (size 15 to 20)
#    0.000    2.000    3.077    3.154    0.000    1.846 
#    0.923    1.538    0.000    0.000    0.000    0.000 
#    0.000    0.000    0.000    2.769    0.000    2.769 
#
# Total GULP energy -966485.858956 kJ/mol
# GULP energy per Si atom -12390.844346 kJ/mol
# Density = 1.255588 g / cm^3
# Si number density = 12.584523 Si / 1000 Ang^3
#
#
#
# Elastic Constant Matrix: (Units=GPa)
#
#
# Indices 1 2 3 4 5 6 
#
# 1 56.4917 16.5735 18.7425 0.0000 0.0000 0.0000
# 2 16.5735 56.4917 18.7425 0.0000 0.0000 0.0000
# 3 18.7425 18.7425 75.8243 0.0000 0.0000 0.0000
# 4 0.0000 0.0000 0.0000 1.1009 0.0000 0.0000
# 5 0.0000 0.0000 0.0000 0.0000 1.1009 0.0000
# 6 0.0000 0.0000 0.0000 0.0000 0.0000 19.9591
#
#
#
# Elastic Compliance Matrix: (Units=1/GPa)
#
#
# Indices 1 2 3 4 5 6 
#
# 1 0.020363 -0.004689 -0.003874 0.000000 0.000000 0.000000
# 2 -0.004689 0.020363 -0.003874 0.000000 0.000000 0.000000
# 3 -0.003874 -0.003874 0.015104 0.000000 0.000000 0.000000
# 4 0.000000 0.000000 0.000000 0.908357 0.000000 0.000000
# 5 0.000000 0.000000 0.000000 0.000000 0.908357 0.000000
# 6 0.000000 0.000000 0.000000 0.000000 0.000000 0.050103
#
#
# Mechanical properties :
#
#
# Convention : Reuss Voigt Hill
#
# Bulk Modulus (GPa) = 32.30554 32.99163 32.64858
# Shear Modulus (GPa) = 2.55384 13.41544 7.98464
#
# Velocity S-wave (km/s) = 1.42610 3.26855 2.52162
# Velocity P-wave (km/s) = 5.33275 6.36534 5.87179
#
# Compressibility (1/GPa) = 0.03095445
#
# Stress axis : x y z
#
# Youngs Moduli (GPa) = 49.10943 49.10943 66.20881
#
# Poissons Ratio (x) = 0.23025 0.25652
# Poissons Ratio (y) = 0.23025 0.25652
# Poissons Ratio (z) = 0.19027 0.19027
#
# Static dielectric constant tensor:
#      x y z
#    x 2.590310 0.000000 0.000000 
#    y 0.000000 2.590310 0.000000 
#    z 0.000000 0.000000 2.691540 
# 
# 
# High freq. dielectric constant tensor:
#      x y z
#    x 1.472010 0.000000 0.000000 
#    y 0.000000 1.472010 0.000000 
#    z 0.000000 0.000000 1.439620 
# 
# From -- ./inp_files/2961.got.cif
#   From: 2010.03.12/outbox.cif.g09.slc.cpg/sg175_2_cif.got.tgz:2961.got - 2010.04.02 06:55:29.
