data_PCOD8325348
_publ_section_title
;
Structure prediction by ZEFSAII (Michael W. Deem and Ramdas Pophale) SiO2 
 PCOD8325348
Probable space group: P 6/M
;
_chemical_formula_sum "Si O2"
_cell_formula_units_Z 54
_cell_length_a 16.332579
_cell_length_b 16.332579
_cell_length_c 11.914128
_cell_angle_alpha 90.000000
_cell_angle_beta 90.000000
_cell_angle_gamma 120.000000
_cell_volume 2752.342197
_symmetry_space_group_name_H-M "P 6/M"
_symmetry_group_IT_number 175
_symmetry_cell_setting 'hexagonal'
loop_
_space_group_symop_operation_xyz
x,y,z
x-y,x,z
-y,x-y,z
-x,-y,z
-x+y,-x,z
y,-x+y,z
-x,-y,-z
-x+y,-x,-z
y,-x+y,-z
x,y,-z
x-y,x,-z
-y,x-y,-z
loop_
_atom_site_type_symbol
_atom_site_label
_atom_site_fract_x
_atom_site_fract_y
_atom_site_fract_z
Si Si1 0.037411 0.830280 0.869979
Si Si2 0.452467 0.739576 0.873106
Si Si3 0.277741 0.451804 0.500000
Si Si4 0.603561 0.897191 0.259966
Si Si5 0.388116 0.869056 0.500000
Si Si6 0.000000 0.500000 0.693673
O O1 0.049417 0.756577 0.792761
O O2 0.936680 0.819611 0.841059
O O3 0.042893 0.806651 0.000000
O O4 0.374074 0.772816 0.852476
O O5 0.541658 0.791840 0.791475
O O6 0.490546 0.763427 0.000000
O O7 0.278139 0.391148 0.393578
O O8 0.188695 0.465120 0.500000
O O9 0.367004 0.557922 0.500000
O O10 0.546740 0.952401 0.229911
O O11 0.415188 0.928956 0.613390
#
# Coordination Sequence:
#
# PCOD8325348 Si02
#       6
#    12  12   6  12   6   6
#     4  10  23  44  69  93 117 151 204 264 322 376
#     4   8  18  34  53  81 120 161 200 242 293 355
#     4  10  23  32  59  87 119 163 215 244 291 359
#     4  11  22  37  60  92 119 167 197 256 300 369
#     4   9  19  38  51  77 120 161 200 246 281 340
#     4   9  22  36  51  80 130 156 197 243 296 340
#
# _framework density 19.619653
#
# number of rings (size 3 to 8) (size 9 to 14) (size 15 to 20)
#    0.444    2.000    0.000    1.778    9.333    0.889 
#    0.000    4.444    0.000    0.000    0.000    1.556 
#    0.000    0.000    0.000    0.000    0.000    0.000 
#
# Total GULP energy -669348.701615 kJ/mol
# GULP energy per Si atom -12395.346326 kJ/mol
# Density = 1.957500 g / cm^3
# Si number density = 19.619653 Si / 1000 Ang^3
#
#
#
# Elastic Constant Matrix: (Units=GPa)
#
#
# Indices 1 2 3 4 5 6 
#
# 1 96.2870 48.9130 41.3677 0.0000 0.0000 0.0000
# 2 48.9130 96.2870 41.3677 0.0000 0.0000 0.0000
# 3 41.3677 41.3677 95.0734 0.0000 0.0000 0.0000
# 4 0.0000 0.0000 0.0000 23.0627 0.0000 0.0000
# 5 0.0000 0.0000 0.0000 0.0000 23.0627 0.0000
# 6 0.0000 0.0000 0.0000 0.0000 0.0000 23.6870
#
#
#
# Elastic Compliance Matrix: (Units=1/GPa)
#
#
# Indices 1 2 3 4 5 6 
#
# 1 0.015133 -0.005976 -0.003985 0.000000 0.000000 0.000000
# 2 -0.005976 0.015133 -0.003985 0.000000 0.000000 0.000000
# 3 -0.003985 -0.003985 0.013986 0.000000 0.000000 0.000000
# 4 0.000000 0.000000 0.000000 0.043360 0.000000 0.000000
# 5 0.000000 0.000000 0.000000 0.000000 0.043360 0.000000
# 6 0.000000 0.000000 0.000000 0.000000 0.000000 0.042217
#
#
# Mechanical properties :
#
#
# Convention : Reuss Voigt Hill
#
# Bulk Modulus (GPa) = 61.11566 61.21602 61.16584
# Shear Modulus (GPa) = 24.20926 24.36241 24.28584
#
# Velocity S-wave (km/s) = 3.51654 3.52765 3.52210
# Velocity P-wave (km/s) = 6.90695 6.91820 6.91258
#
# Compressibility (1/GPa) = 0.01636242
#
# Stress axis : x y z
#
# Youngs Moduli (GPa) = 66.08058 66.08058 71.50195
#
# Poissons Ratio (x) = 0.39487 0.28490
# Poissons Ratio (y) = 0.39487 0.28490
# Poissons Ratio (z) = 0.26330 0.26330
#
# Static dielectric constant tensor:
#      x y z
#    x 3.456820 0.000000 0.000000 
#    y 0.000000 3.456820 0.000000 
#    z 0.000000 0.000000 3.512470 
# 
# 
# High freq. dielectric constant tensor:
#      x y z
#    x 1.754310 0.000000 0.000000 
#    y 0.000000 1.754310 0.000000 
#    z 0.000000 0.000000 1.758000 
# 
# From -- ./inp_files/1771.got.cif
#   From: 2010.03.12/outbox.cif.g09.slc.cpg/sg175_1_cif.got.tgz:1771.got - 2010.04.02 06:55:29.
