data_PCOD8325698
_publ_section_title
;
Structure prediction by ZEFSAII (Michael W. Deem and Ramdas Pophale) SiO2 
 PCOD8325698
Probable space group: P 63/M
;
_chemical_formula_sum "Si O2"
_cell_formula_units_Z 68
_cell_length_a 12.703333
_cell_length_b 12.703333
_cell_length_c 25.408588
_cell_angle_alpha 90.000000
_cell_angle_beta 90.000000
_cell_angle_gamma 120.000000
_cell_volume 3550.966116
_symmetry_space_group_name_H-M "P 63/M"
_symmetry_group_IT_number 176
_symmetry_cell_setting 'hexagonal'
loop_
_space_group_symop_operation_xyz
x,y,z
x-y,x,1/2+z
-y,x-y,z
-x,-y,1/2+z
-x+y,-x,z
y,-x+y,1/2+z
-x,-y,-z
-x+y,-x,1/2-z
y,-x+y,-z
x,y,1/2-z
x-y,x,-z
-y,x-y,1/2-z
loop_
_atom_site_type_symbol
_atom_site_label
_atom_site_fract_x
_atom_site_fract_y
_atom_site_fract_z
Si Si1 0.026883 0.781374 0.944517
Si Si2 0.333334 0.666667 0.313466
Si Si3 0.000000 0.000000 0.686422
Si Si4 0.119202 0.706580 0.161903
Si Si5 0.769857 0.740032 0.942665
Si Si6 0.744374 0.770060 0.165587
Si Si7 0.934641 0.554065 0.250000
Si Si8 0.128100 0.716148 0.750000
O O1 0.990548 0.698216 0.892121
O O2 0.915603 0.808276 0.950943
O O3 0.155752 0.895592 0.928597
O O4 0.033963 0.716621 0.998809
O O5 0.333334 0.666668 0.250000
O O6 0.442345 0.792983 0.336131
O O7 0.982697 0.875032 0.663265
O O8 0.000000 0.000000 0.750000
O O9 0.078668 0.714463 0.102077
O O10 0.001424 0.626783 0.197428
O O11 0.193303 0.841225 0.187386
O O12 0.754854 0.672613 0.199675
O O13 0.928070 0.426372 0.250000
O O14 0.795279 0.522238 0.250000
#
# Coordination Sequence:
#
# PCOD8325698 Si02
#       8
#    12   4   4  12  12  12   6   6
#     4   9  16  29  51  82 119 152 189 227 282 343
#     4  12  24  42  63  81 108 150 198 247 287 340
#     4  12  21  30  51  91 137 157 180 232 302 355
#     4  11  23  38  60  85 113 148 195 238 288 338
#     4   9  17  30  53  84 118 154 188 232 280 341
#     4  11  21  34  55  85 119 156 187 232 291 351
#     4  12  24  40  58  80 111 148 190 234 282 350
#     4  12  24  38  56  78 111 150 192 234 288 344
#
# _framework density 19.149716999999999
#
# number of rings (size 3 to 8) (size 9 to 14) (size 15 to 20)
#    0.000    1.412    1.765    6.353    0.000    1.412 
#    0.000    0.000    0.000   19.059    0.000    0.000 
#    0.000    0.000    0.000    0.000    0.000    0.000 
#
# Total GULP energy -842543.487867 kJ/mol
# GULP energy per Si atom -12390.345410 kJ/mol
# Density = 1.910613 g / cm^3
# Si number density = 19.149717 Si / 1000 Ang^3
#
#
#
# Elastic Constant Matrix: (Units=GPa)
#
#
# Indices 1 2 3 4 5 6 
#
# 1 74.3913 14.3852 32.1090 0.0000 0.0000 0.0000
# 2 14.3852 74.3924 32.1092 0.0000 0.0000 0.0001
# 3 32.1090 32.1092 145.6634 0.0000 0.0000 0.0000
# 4 0.0000 0.0000 0.0000 25.6671 0.0000 0.0000
# 5 0.0000 0.0000 0.0000 0.0000 25.6670 0.0000
# 6 0.0000 0.0001 0.0000 0.0000 0.0000 30.0036
#
#
#
# Elastic Compliance Matrix: (Units=1/GPa)
#
#
# Indices 1 2 3 4 5 6 
#
# 1 0.015033 -0.001632 -0.002954 0.000000 0.000000 0.000000
# 2 -0.001632 0.015033 -0.002954 0.000000 0.000000 0.000000
# 3 -0.002954 -0.002954 0.008167 0.000000 0.000000 0.000000
# 4 0.000000 0.000000 0.000000 0.038960 0.000000 0.000000
# 5 0.000000 0.000000 0.000000 0.000000 0.038960 0.000000
# 6 0.000000 0.000000 0.000000 0.000000 0.000000 0.033329
#
#
# Mechanical properties :
#
#
# Convention : Reuss Voigt Hill
#
# Bulk Modulus (GPa) = 43.19023 50.18376 46.68700
# Shear Modulus (GPa) = 29.02232 30.65713 29.83972
#
# Velocity S-wave (km/s) = 3.89723 4.00549 3.95173
# Velocity P-wave (km/s) = 6.54631 6.90325 6.72714
#
# Compressibility (1/GPa) = 0.02315338
#
# Stress axis : x y z
#
# Youngs Moduli (GPa) = 66.52021 66.52116 122.43673
#
# Poissons Ratio (x) = 0.10856 0.36168
# Poissons Ratio (y) = 0.10855 0.36168
# Poissons Ratio (z) = 0.19650 0.19651
#
# Static dielectric constant tensor:
#      x y z
#    x 3.253350 0.000000 0.000000 
#    y 0.000000 3.253340 0.000000 
#    z 0.000000 0.000000 3.975400 
# 
# 
# High freq. dielectric constant tensor:
#      x y z
#    x 1.719190 0.000000 0.000000 
#    y 0.000000 1.719190 0.000000 
#    z 0.000000 0.000000 1.768540 
# 
# From -- ./inp_files/4509.got.cif
#   From: 2010.06.25/outbox.cif.g09.slc.cpg/sg176_3_cif.got.tgz:4509.got - 2010.06.28 12:15:01.
