data_PCOD8325963
_publ_section_title
;
Structure prediction by ZEFSAII (Michael W. Deem and Ramdas Pophale) SiO2 
 PCOD8325963
Probable space group: P 61 2 2
;
_chemical_formula_sum "Si O2"
_cell_formula_units_Z 48
_cell_length_a 11.636272
_cell_length_b 11.636272
_cell_length_c 19.196735
_cell_angle_alpha 90.000000
_cell_angle_beta 90.000000
_cell_angle_gamma 120.000000
_cell_volume 2251.053051
_symmetry_space_group_name_H-M "P 61 2 2"
_symmetry_group_IT_number 178
_symmetry_cell_setting 'hexagonal'
loop_
_space_group_symop_operation_xyz
x,y,z
x-y,x,1/6+z
-y,x-y,1/3+z
-x,-y,1/2+z
-x+y,-x,2/3+z
y,-x+y,5/6+z
x-y,-y,-z
-x,-x+y,2/3-z
y,x,1/3-z
-y,-x,5/6-z
-x+y,y,1/2-z
x,x-y,1/6-z
loop_
_atom_site_type_symbol
_atom_site_label
_atom_site_fract_x
_atom_site_fract_y
_atom_site_fract_z
Si Si1 0.833801 0.405782 0.236144
Si Si2 0.090615 0.708603 0.617622
Si Si3 0.180448 0.717195 0.992749
Si Si4 0.059964 0.641101 0.187589
O O1 0.719451 0.438902 0.250000
O O2 0.843953 0.370580 0.155014
O O3 0.818630 0.286981 0.285338
O O4 0.972964 0.542965 0.250845
O O5 0.206051 0.863120 0.620256
O O6 0.958106 0.674169 0.662264
O O7 0.044900 0.666485 0.539049
O O8 0.233626 0.766375 0.916667
O O9 0.160521 0.569535 0.006281
#
# Coordination Sequence:
#
# PCOD8325963 Si02
#       4
#    12  12  12  12
#     4  11  21  39  66 105 141 181 243 296 383 437
#     4  11  22  45  64 101 148 196 233 309 382 438
#     4  11  23  39  67 106 147 187 240 307 380 450
#     4  11  25  42  72 101 152 189 244 312 379 450
#
# _framework density 21.323354999999999
#
# number of rings (size 3 to 8) (size 9 to 14) (size 15 to 20)
#    0.000    1.000    5.000    3.000    3.500    4.000 
#    0.000    0.000    0.000    4.500    0.000    0.000 
#    0.000    0.000    0.000    0.000    0.000    0.000 
#
# Total GULP energy -594664.549339 kJ/mol
# GULP energy per Si atom -12388.844778 kJ/mol
# Density = 2.127482 g / cm^3
# Si number density = 21.323355 Si / 1000 Ang^3
#
#
#
# Elastic Constant Matrix: (Units=GPa)
#
#
# Indices 1 2 3 4 5 6 
#
# 1 152.1066 61.0151 62.4667 0.0000 0.0000 0.0000
# 2 61.0151 152.1066 62.4667 0.0000 0.0000 0.0000
# 3 62.4667 62.4667 88.3670 0.0000 0.0000 0.0000
# 4 0.0000 0.0000 0.0000 39.8349 0.0000 0.0000
# 5 0.0000 0.0000 0.0000 0.0000 39.8349 0.0000
# 6 0.0000 0.0000 0.0000 0.0000 0.0000 45.5457
#
#
#
# Elastic Compliance Matrix: (Units=1/GPa)
#
#
# Indices 1 2 3 4 5 6 
#
# 1 0.009495 -0.001483 -0.005664 0.000000 0.000000 0.000000
# 2 -0.001483 0.009495 -0.005664 0.000000 0.000000 0.000000
# 3 -0.005664 -0.005664 0.019324 0.000000 0.000000 0.000000
# 4 0.000000 0.000000 0.000000 0.025104 0.000000 0.000000
# 5 0.000000 0.000000 0.000000 0.000000 0.025104 0.000000
# 6 0.000000 0.000000 0.000000 0.000000 0.000000 0.021956
#
#
# Mechanical properties :
#
#
# Convention : Reuss Voigt Hill
#
# Bulk Modulus (GPa) = 78.78304 84.94192 81.86248
# Shear Modulus (GPa) = 35.63021 38.81853 37.22437
#
# Velocity S-wave (km/s) = 4.09216 4.27133 4.18270
# Velocity P-wave (km/s) = 7.70420 8.01544 7.86136
#
# Compressibility (1/GPa) = 0.01269309
#
# Stress axis : x y z
#
# Youngs Moduli (GPa) = 105.31634 105.31634 51.74860
#
# Poissons Ratio (x) = 0.15616 0.29310
# Poissons Ratio (y) = 0.15616 0.29310
# Poissons Ratio (z) = 0.59651 0.59651
#
# Static dielectric constant tensor:
#      x y z
#    x 4.065570 0.000000 0.000000 
#    y 0.000000 4.065570 0.000000 
#    z 0.000000 0.000000 3.862050 
# 
# 
# High freq. dielectric constant tensor:
#      x y z
#    x 1.822050 0.000000 0.000000 
#    y 0.000000 1.822050 0.000000 
#    z 0.000000 0.000000 1.833740 
# 
# From -- ./inp_files/7276.got.cif
#   From: 2010.03.12/outbox.cif.g09.slc.cpg/sg178_4_cif.got.tgz:7276.got - 2010.04.02 07:02:38.
