data_PCOD8325816
_publ_section_title
;
Structure prediction by ZEFSAII (Michael W. Deem and Ramdas Pophale) SiO2 
 PCOD8325816
Probable space group: P 61 2 2
;
_chemical_formula_sum "Si O2"
_cell_formula_units_Z 42
_cell_length_a 13.358469
_cell_length_b 13.358469
_cell_length_c 13.291046
_cell_angle_alpha 90.000000
_cell_angle_beta 90.000000
_cell_angle_gamma 120.000000
_cell_volume 2054.012900
_symmetry_space_group_name_H-M "P 61 2 2"
_symmetry_group_IT_number 178
_symmetry_cell_setting 'hexagonal'
loop_
_space_group_symop_operation_xyz
x,y,z
x-y,x,1/6+z
-y,x-y,1/3+z
-x,-y,1/2+z
-x+y,-x,2/3+z
y,-x+y,5/6+z
x-y,-y,-z
-x,-x+y,2/3-z
y,x,1/3-z
-y,-x,5/6-z
-x+y,y,1/2-z
x,x-y,1/6-z
loop_
_atom_site_type_symbol
_atom_site_label
_atom_site_fract_x
_atom_site_fract_y
_atom_site_fract_z
Si Si1 0.376147 0.969906 0.706096
Si Si2 0.863778 0.237909 0.204054
Si Si3 0.430861 0.822531 0.130529
Si Si4 0.000000 0.842967 0.833334
O O1 0.464723 0.929446 0.750000
O O2 0.260551 0.862276 0.660859
O O3 0.339554 0.037185 0.787285
O O4 0.444553 0.061641 0.616831
O O5 0.838939 0.332322 0.257798
O O6 0.901290 0.177664 0.287386
O O7 0.402054 0.804108 0.250000
O O8 0.435328 0.717664 0.083334
O O9 0.943188 0.886375 0.750000
#
# Coordination Sequence:
#
# PCOD8325816 Si02
#       4
#    12  12  12   6
#     4   9  19  36  58  81 117 157 193 251 306 364
#     4  10  19  37  59  83 120 157 196 258 302 358
#     4   9  20  38  58  88 123 156 200 246 306 376
#     4  12  24  40  64  90 126 164 222 262 316 372
#
# _framework density 20.447778
#
# number of rings (size 3 to 8) (size 9 to 14) (size 15 to 20)
#    0.000    2.857    2.857    0.857    0.000    1.143 
#   20.571    1.429    0.000    0.000    0.000    0.000 
#    0.000    0.000    0.000    0.000    0.000    0.000 
#
# Total GULP energy -520319.226533 kJ/mol
# GULP energy per Si atom -12388.553013 kJ/mol
# Density = 2.040124 g / cm^3
# Si number density = 20.447778 Si / 1000 Ang^3
#
#
#
# Elastic Constant Matrix: (Units=GPa)
#
#
# Indices 1 2 3 4 5 6 
#
# 1 122.9188 56.6842 31.7010 0.0000 0.0000 0.0000
# 2 56.6842 122.9188 31.7010 0.0000 0.0000 0.0000
# 3 31.7010 31.7010 45.1784 0.0000 0.0000 0.0000
# 4 0.0000 0.0000 0.0000 9.3309 0.0000 0.0000
# 5 0.0000 0.0000 0.0000 0.0000 9.3309 0.0000
# 6 0.0000 0.0000 0.0000 0.0000 0.0000 33.1173
#
#
#
# Elastic Compliance Matrix: (Units=1/GPa)
#
#
# Indices 1 2 3 4 5 6 
#
# 1 0.011249 -0.003848 -0.005193 0.000000 0.000000 0.000000
# 2 -0.003848 0.011249 -0.005193 0.000000 0.000000 0.000000
# 3 -0.005193 -0.005193 0.029423 0.000000 0.000000 0.000000
# 4 0.000000 0.000000 0.000000 0.107170 0.000000 0.000000
# 5 0.000000 0.000000 0.000000 0.000000 0.107170 0.000000
# 6 0.000000 0.000000 0.000000 0.000000 0.000000 0.030196
#
#
# Mechanical properties :
#
#
# Convention : Reuss Voigt Hill
#
# Bulk Modulus (GPa) = 42.64076 59.02095 50.83086
# Shear Modulus (GPa) = 15.02651 21.75114 18.38883
#
# Velocity S-wave (km/s) = 2.71379 3.26504 3.00210
# Velocity P-wave (km/s) = 5.54241 6.56817 6.07697
#
# Compressibility (1/GPa) = 0.02345174
#
# Stress axis : x y z
#
# Youngs Moduli (GPa) = 88.89294 88.89294 33.98755
#
# Poissons Ratio (x) = 0.34209 0.17651
# Poissons Ratio (y) = 0.34209 0.17651
# Poissons Ratio (z) = 0.46164 0.46164
#
# Static dielectric constant tensor:
#      x y z
#    x 3.905450 0.000000 0.000000 
#    y 0.000000 3.905450 0.000000 
#    z 0.000000 0.000000 3.289560 
# 
# 
# High freq. dielectric constant tensor:
#      x y z
#    x 1.812510 0.000000 0.000000 
#    y 0.000000 1.812510 0.000000 
#    z 0.000000 0.000000 1.750960 
# 
# From -- ./inp_files/5292.got.cif
#   From: 2010.03.12/outbox.cif.g09.slc.cpg/sg178_3_cif.got.tgz:5292.got - 2010.04.02 07:02:38.
