data_PCOD8325100
_publ_section_title
;
Structure prediction by ZEFSAII (Michael W. Deem and Ramdas Pophale) SiO2 
 PCOD8325100
Probable space group: P 6/M
;
_chemical_formula_sum "Si O2"
_cell_formula_units_Z 96
_cell_length_a 24.131993
_cell_length_b 24.131993
_cell_length_c 10.575646
_cell_angle_alpha 90.000000
_cell_angle_beta 90.000000
_cell_angle_gamma 120.000000
_cell_volume 5333.642690
_symmetry_space_group_name_H-M "P 6/M"
_symmetry_group_IT_number 175
_symmetry_cell_setting 'hexagonal'
loop_
_space_group_symop_operation_xyz
x,y,z
x-y,x,z
-y,x-y,z
-x,-y,z
-x+y,-x,z
y,-x+y,z
-x,-y,-z
-x+y,-x,-z
y,-x+y,-z
x,y,-z
x-y,x,-z
-y,x-y,-z
loop_
_atom_site_type_symbol
_atom_site_label
_atom_site_fract_x
_atom_site_fract_y
_atom_site_fract_z
Si Si1 0.519066 0.569373 0.149581
Si Si2 0.578379 0.388318 0.151159
Si Si3 0.693126 0.047218 0.855883
Si Si4 0.259266 0.116024 0.284624
Si Si5 0.139108 0.063947 0.145654
Si Si6 0.474522 0.753607 0.150235
Si Si7 0.237940 0.983591 0.637969
Si Si8 0.188540 0.384350 0.143405
O O1 0.500000 0.500000 0.206775
O O2 0.470340 0.590341 0.206376
O O3 0.592371 0.621326 0.183671
O O4 0.511020 0.564687 0.000000
O O5 0.649025 0.437485 0.203322
O O6 0.558194 0.318263 0.204544
O O7 0.577582 0.388047 0.000000
O O8 0.718638 0.015057 0.755492
O O9 0.736248 0.123630 0.851317
O O10 0.694612 0.023384 0.000000
O O11 0.215153 0.098962 0.160606
O O12 0.247918 0.167737 0.360294
O O13 0.331873 0.145323 0.238624
O O14 0.236555 0.050156 0.360453
O O15 0.111273 0.105449 0.210804
O O16 0.122665 0.056988 0.000000
O O17 0.548275 0.794055 0.193199
O O18 0.471247 0.749687 0.000000
O O19 0.267034 0.981926 0.500000
O O20 0.201343 0.370423 0.000000
#
# Coordination Sequence:
#
# PCOD8325100 Si02
#       8
#    12  12  12  12  12  12  12  12
#     4   9  16  27  45  71 103 137 174 214 260 312
#     4   9  15  23  37  60  93 137 176 207 251 311
#     4   9  18  34  55  76 104 142 178 218 264 315
#     4  11  21  36  55  74  99 134 177 218 269 323
#     4  10  19  32  51  77 107 136 168 210 263 322
#     4   9  15  24  39  62  99 140 176 211 254 309
#     4  11  24  40  58  78 104 138 178 224 270 323
#     4   9  17  29  46  71 103 138 174 218 263 307
#
# _framework density 17.998956
#
# number of rings (size 3 to 8) (size 9 to 14) (size 15 to 20)
#    0.000    2.375    2.500    1.125    0.000    4.000 
#    0.000    2.500    0.000    0.375    0.000    1.750 
#    0.000    0.000    0.000    0.000    0.000    0.000 
#
# Total GULP energy -1189650.919987 kJ/mol
# GULP energy per Si atom -12392.197083 kJ/mol
# Density = 1.795799 g / cm^3
# Si number density = 17.998956 Si / 1000 Ang^3
#
#
#
# Elastic Constant Matrix: (Units=GPa)
#
#
# Indices 1 2 3 4 5 6 
#
# 1 115.3731 57.1808 32.2473 0.0000 0.0000 0.0000
# 2 57.1808 115.3731 32.2473 0.0000 0.0000 0.0000
# 3 32.2473 32.2473 57.5691 0.0000 0.0000 0.0000
# 4 0.0000 0.0000 0.0000 5.2410 0.0000 0.0000
# 5 0.0000 0.0000 0.0000 0.0000 5.2410 0.0000
# 6 0.0000 0.0000 0.0000 0.0000 0.0000 29.0962
#
#
#
# Elastic Compliance Matrix: (Units=1/GPa)
#
#
# Indices 1 2 3 4 5 6 
#
# 1 0.012257 -0.004927 -0.004106 0.000000 0.000000 0.000000
# 2 -0.004927 0.012257 -0.004106 0.000000 0.000000 0.000000
# 3 -0.004106 -0.004106 0.021970 0.000000 0.000000 0.000000
# 4 0.000000 0.000000 0.000000 0.190802 0.000000 0.000000
# 5 0.000000 0.000000 0.000000 0.000000 0.190802 0.000000
# 6 0.000000 0.000000 0.000000 0.000000 0.000000 0.034369
#
#
# Mechanical properties :
#
#
# Convention : Reuss Voigt Hill
#
# Bulk Modulus (GPa) = 49.48866 59.07399 54.28132
# Shear Modulus (GPa) = 10.09143 19.02499 14.55821
#
# Velocity S-wave (km/s) = 2.37041 3.25469 2.84709
# Velocity P-wave (km/s) = 5.92003 6.85682 6.40558
#
# Compressibility (1/GPa) = 0.02020665
#
# Stress axis : x y z
#
# Youngs Moduli (GPa) = 81.58502 81.58502 45.51623
#
# Poissons Ratio (x) = 0.40199 0.18688
# Poissons Ratio (y) = 0.40199 0.18688
# Poissons Ratio (z) = 0.33497 0.33497
#
# Static dielectric constant tensor:
#      x y z
#    x 3.470500 0.000000 0.000000 
#    y 0.000000 3.470500 0.000000 
#    z 0.000000 0.000000 2.711910 
# 
# 
# High freq. dielectric constant tensor:
#      x y z
#    x 1.705330 0.000000 0.000000 
#    y 0.000000 1.705330 0.000000 
#    z 0.000000 0.000000 1.622550 
# 
# From -- ./inp_files/2177.got.cif
#   From: 2010.03.12/outbox.cif.g09.slc.cpg/sg175_2_cif.got.tgz:2177.got - 2010.04.02 06:55:29.
