data_PCOD8325560
_publ_section_title
;
Structure prediction by ZEFSAII (Michael W. Deem and Ramdas Pophale) SiO2 
 PCOD8325560
Probable space group: P 63/M
;
_chemical_formula_sum "Si O2"
_cell_formula_units_Z 52
_cell_length_a 14.347716
_cell_length_b 14.347716
_cell_length_c 14.152261
_cell_angle_alpha 90.000000
_cell_angle_beta 90.000000
_cell_angle_gamma 120.000000
_cell_volume 2523.027617
_symmetry_space_group_name_H-M "P 63/M"
_symmetry_group_IT_number 176
_symmetry_cell_setting 'hexagonal'
loop_
_space_group_symop_operation_xyz
x,y,z
x-y,x,1/2+z
-y,x-y,z
-x,-y,1/2+z
-x+y,-x,z
y,-x+y,1/2+z
-x,-y,-z
-x+y,-x,1/2-z
y,-x+y,-z
x,y,1/2-z
x-y,x,-z
-y,x-y,1/2-z
loop_
_atom_site_type_symbol
_atom_site_label
_atom_site_fract_x
_atom_site_fract_y
_atom_site_fract_z
Si Si1 0.414017 0.882881 0.858657
Si Si2 0.240436 0.156613 0.354414
Si Si3 0.188973 0.747497 0.952499
Si Si4 0.305485 0.392468 0.356254
Si Si5 0.000000 0.000000 0.889815
O O1 0.393229 0.844246 0.750000
O O2 0.312092 0.800150 0.920925
O O3 0.518141 0.883309 0.899374
O O4 0.435274 0.003203 0.867618
O O5 0.291792 0.170695 0.250000
O O6 0.315922 0.138589 0.426512
O O7 0.238283 0.265072 0.378438
O O8 0.121383 0.055257 0.353421
O O9 0.181070 0.730314 0.066133
O O10 0.280643 0.417213 0.250000
O O11 0.000000 0.000000 0.000000
#
# Coordination Sequence:
#
# PCOD8325560 Si02
#       5
#    12  12  12  12   4
#     4  10  20  35  57  85 112 143 191 248 293 335
#     4  10  21  37  57  83 115 151 193 242 290 341
#     4  11  20  36  60  85 112 152 195 240 293 346
#     4   9  20  37  54  77 115 153 186 234 293 350
#     4  12  22  35  55  84 121 161 197 236 286 354
#
# _framework density 20.610158999999999
#
# number of rings (size 3 to 8) (size 9 to 14) (size 15 to 20)
#    0.000    1.846    0.000    6.692    0.000    1.846 
#    0.000    1.154    0.000   11.077    0.000    0.000 
#    0.000    0.000    0.000    0.000    0.000    0.000 
#
# Total GULP energy -644847.762237 kJ/mol
# GULP energy per Si atom -12400.918505 kJ/mol
# Density = 2.056325 g / cm^3
# Si number density = 20.610159 Si / 1000 Ang^3
#
#
#
# Elastic Constant Matrix: (Units=GPa)
#
#
# Indices 1 2 3 4 5 6 
#
# 1 72.1510 28.6485 42.6870 0.0000 0.0000 0.0000
# 2 28.6485 72.1510 42.6870 0.0000 0.0000 0.0000
# 3 42.6870 42.6870 185.5316 0.0000 0.0000 0.0000
# 4 0.0000 0.0000 0.0000 30.8601 0.0000 0.0000
# 5 0.0000 0.0000 0.0000 0.0000 30.8601 0.0000
# 6 0.0000 0.0000 0.0000 0.0000 0.0000 21.7513
#
#
#
# Elastic Compliance Matrix: (Units=1/GPa)
#
#
# Indices 1 2 3 4 5 6 
#
# 1 0.017655 -0.005333 -0.002835 0.000000 0.000000 0.000000
# 2 -0.005333 0.017655 -0.002835 0.000000 0.000000 0.000000
# 3 -0.002835 -0.002835 0.006694 0.000000 0.000000 0.000000
# 4 0.000000 0.000000 0.000000 0.032404 0.000000 0.000000
# 5 0.000000 0.000000 0.000000 0.000000 0.032404 0.000000
# 6 0.000000 0.000000 0.000000 0.000000 0.000000 0.045974
#
#
# Mechanical properties :
#
#
# Convention : Reuss Voigt Hill
#
# Bulk Modulus (GPa) = 50.00462 61.98650 55.99556
# Shear Modulus (GPa) = 27.55460 31.08169 29.31815
#
# Velocity S-wave (km/s) = 3.66039 3.88761 3.77571
# Velocity P-wave (km/s) = 6.49457 7.09171 6.79970
#
# Compressibility (1/GPa) = 0.01999815
#
# Stress axis : x y z
#
# Youngs Moduli (GPa) = 56.64277 56.64277 149.37708
#
# Poissons Ratio (x) = 0.30206 0.42348
# Poissons Ratio (y) = 0.30206 0.42348
# Poissons Ratio (z) = 0.16058 0.16058
#
# Static dielectric constant tensor:
#      x y z
#    x 3.247690 0.000000 0.000000 
#    y 0.000000 3.247690 0.000000 
#    z 0.000000 0.000000 3.940210 
# 
# 
# High freq. dielectric constant tensor:
#      x y z
#    x 1.790100 0.000000 0.000000 
#    y 0.000000 1.790100 0.000000 
#    z 0.000000 0.000000 1.822210 
# 
# From -- ./inp_files/2569.got.cif
#   From: 2010.06.25/outbox.cif.g09.slc.cpg/sg176_2_cif.got.tgz:2569.got - 2010.06.28 12:15:01.
