data_PCOD8325144
_publ_section_title
;
Structure prediction by ZEFSAII (Michael W. Deem and Ramdas Pophale) SiO2 
 PCOD8325144
Probable space group: P 6/M
;
_chemical_formula_sum "Si O2"
_cell_formula_units_Z 48
_cell_length_a 16.602379
_cell_length_b 16.602379
_cell_length_c 10.231127
_cell_angle_alpha 90.000000
_cell_angle_beta 90.000000
_cell_angle_gamma 120.000000
_cell_volume 2442.276074
_symmetry_space_group_name_H-M "P 6/M"
_symmetry_group_IT_number 175
_symmetry_cell_setting 'hexagonal'
loop_
_space_group_symop_operation_xyz
x,y,z
x-y,x,z
-y,x-y,z
-x,-y,z
-x+y,-x,z
y,-x+y,z
-x,-y,-z
-x+y,-x,-z
y,-x+y,-z
x,y,-z
x-y,x,-z
-y,x-y,-z
loop_
_atom_site_type_symbol
_atom_site_label
_atom_site_fract_x
_atom_site_fract_y
_atom_site_fract_z
Si Si1 0.010638 0.814191 0.000000
Si Si2 0.200138 0.024308 0.500000
Si Si3 0.996676 0.296236 0.744795
Si Si4 0.139237 0.644519 0.651653
Si Si5 0.688351 0.161729 0.650860
O O1 0.015757 0.759036 0.123789
O O2 0.918030 0.821050 0.000000
O O3 0.105048 0.929220 0.500000
O O4 0.260193 0.036584 0.627227
O O5 0.932591 0.343707 0.742953
O O6 0.103462 0.378465 0.732362
O O7 0.109318 0.637336 0.500000
O O8 0.242832 0.729588 0.673282
O O9 0.137656 0.551293 0.697250
O O10 0.686405 0.134023 0.500000
#
# Coordination Sequence:
#
# PCOD8325144 Si02
#       5
#     6   6  12  12  12
#     4  12  27  46  65  86 116 158 202 248 303 366
#     4  12  23  38  59  86 114 144 184 242 305 360
#     4  12  23  39  63  87 118 155 199 251 300 350
#     4  10  19  34  58  91 127 162 199 243 295 354
#     4  10  19  34  58  91 127 162 199 243 295 354
#
# _framework density 19.653797000000001
#
# number of rings (size 3 to 8) (size 9 to 14) (size 15 to 20)
#    0.000    1.000    2.500    6.000    0.000    4.000 
#    0.000    5.000    0.000    0.000    0.000    3.500 
#    0.000    0.000    0.000    0.000    0.000    0.000 
#
# Total GULP energy -595450.610005 kJ/mol
# GULP energy per Si atom -12405.221042 kJ/mol
# Density = 1.960906 g / cm^3
# Si number density = 19.653797 Si / 1000 Ang^3
#
#
#
# Elastic Constant Matrix: (Units=GPa)
#
#
# Indices 1 2 3 4 5 6 
#
# 1 96.1980 11.8275 33.2813 0.0000 0.0000 0.0000
# 2 11.8275 96.1980 33.2813 0.0000 0.0000 0.0000
# 3 33.2813 33.2813 104.7709 0.0000 0.0000 0.0000
# 4 0.0000 0.0000 0.0000 21.3937 0.0000 0.0000
# 5 0.0000 0.0000 0.0000 0.0000 21.3937 0.0000
# 6 0.0000 0.0000 0.0000 0.0000 0.0000 42.1853
#
#
#
# Elastic Compliance Matrix: (Units=1/GPa)
#
#
# Indices 1 2 3 4 5 6 
#
# 1 0.011681 -0.000171 -0.003656 0.000000 0.000000 0.000000
# 2 -0.000171 0.011681 -0.003656 0.000000 0.000000 0.000000
# 3 -0.003656 -0.003656 0.011868 0.000000 0.000000 0.000000
# 4 0.000000 0.000000 0.000000 0.046743 0.000000 0.000000
# 5 0.000000 0.000000 0.000000 0.000000 0.046743 0.000000
# 6 0.000000 0.000000 0.000000 0.000000 0.000000 0.023705
#
#
# Mechanical properties :
#
#
# Convention : Reuss Voigt Hill
#
# Bulk Modulus (GPa) = 49.35228 50.43856 49.89542
# Shear Modulus (GPa) = 28.71219 31.57965 30.14592
#
# Velocity S-wave (km/s) = 3.82632 4.01283 3.92068
# Velocity P-wave (km/s) = 6.68478 6.86948 6.77776
#
# Compressibility (1/GPa) = 0.02026249
#
# Stress axis : x y z
#
# Youngs Moduli (GPa) = 85.60753 85.60753 84.26374
#
# Poissons Ratio (x) = 0.01466 0.30809
# Poissons Ratio (y) = 0.01466 0.30809
# Poissons Ratio (z) = 0.31300 0.31300
#
# Static dielectric constant tensor:
#      x y z
#    x 3.769020 0.000000 0.000000 
#    y 0.000000 3.769020 0.000000 
#    z 0.000000 0.000000 3.209190 
# 
# 
# High freq. dielectric constant tensor:
#      x y z
#    x 1.787340 0.000000 0.000000 
#    y 0.000000 1.787340 0.000000 
#    z 0.000000 0.000000 1.718870 
# 
# From -- ./inp_files/629.got.cif
#   From: 2010.03.12/outbox.cif.g09.slc.cpg/sg175_1_cif.got.tgz:629.got - 2010.04.02 06:55:29.
