data_PCOD8325126
_publ_section_title
;
Structure prediction by ZEFSAII (Michael W. Deem and Ramdas Pophale) SiO2 
 PCOD8325126
Probable space group: P 6/M
;
_chemical_formula_sum "Si O2"
_cell_formula_units_Z 64
_cell_length_a 14.013866
_cell_length_b 14.013866
_cell_length_c 18.513406
_cell_angle_alpha 90.000000
_cell_angle_beta 90.000000
_cell_angle_gamma 120.000000
_cell_volume 3148.711556
_symmetry_space_group_name_H-M "P 6/M"
_symmetry_group_IT_number 175
_symmetry_cell_setting 'hexagonal'
loop_
_space_group_symop_operation_xyz
x,y,z
x-y,x,z
-y,x-y,z
-x,-y,z
-x+y,-x,z
y,-x+y,z
-x,-y,-z
-x+y,-x,-z
y,-x+y,-z
x,y,-z
x-y,x,-z
-y,x-y,-z
loop_
_atom_site_type_symbol
_atom_site_label
_atom_site_fract_x
_atom_site_fract_y
_atom_site_fract_z
Si Si1 0.761642 0.954490 0.318107
Si Si2 0.905340 0.379990 0.085680
Si Si3 0.891590 0.484801 0.417897
Si Si4 0.803336 0.755859 0.150160
Si Si5 0.333334 0.666668 0.914074
Si Si6 0.423967 0.172864 0.417963
O O1 0.793952 0.863802 0.339290
O O2 0.730103 0.948102 0.234672
O O3 0.657879 0.930057 0.368359
O O4 0.930791 0.284960 0.109829
O O5 0.785538 0.355188 0.114734
O O6 0.000000 0.500000 0.114494
O O7 0.904808 0.380219 0.000000
O O8 0.922768 0.529579 0.500000
O O9 0.807248 0.354723 0.417434
O O10 0.843867 0.556989 0.381995
O O11 0.000000 0.500000 0.376858
O O12 0.786731 0.858907 0.128780
O O13 0.333334 0.666668 0.000000
O O14 0.378354 0.153296 0.500000
#
# Coordination Sequence:
#
# PCOD8325126 Si02
#       6
#    12  12  12  12   4  12
#     4  10  21  37  55  76 104 140 179 223 276 331
#     4  10  20  36  60  88 118 151 187 229 277 332
#     4   9  17  29  46  69  96 125 159 205 262 319
#     4  10  21  38  58  81 112 152 195 236 282 336
#     4   9  18  33  54  84 120 153 181 218 280 342
#     4  10  19  33  53  75 100 133 175 222 273 330
#
# _framework density 20.325775
#
# number of rings (size 3 to 8) (size 9 to 14) (size 15 to 20)
#    0.000    2.250    0.000    3.000    0.000    7.500 
#    0.000    6.562    0.000    2.250    0.000    0.000 
#    0.000    0.000    0.000    0.000    0.000    0.000 
#
# Total GULP energy -793026.236636 kJ/mol
# GULP energy per Si atom -12391.034947 kJ/mol
# Density = 2.027951 g / cm^3
# Si number density = 20.325775 Si / 1000 Ang^3
#
#
#
# Elastic Constant Matrix: (Units=GPa)
#
#
# Indices 1 2 3 4 5 6 
#
# 1 129.6545 49.5078 19.6202 0.0000 0.0000 0.0000
# 2 49.5078 129.6549 19.6201 0.0000 0.0000 0.0004
# 3 19.6202 19.6201 24.4893 0.0000 0.0000 0.0000
# 4 0.0000 0.0000 0.0000 23.2925 0.0000 0.0000
# 5 0.0000 0.0000 0.0000 0.0000 23.2924 0.0000
# 6 0.0000 0.0004 0.0000 0.0000 0.0000 40.0734
#
#
#
# Elastic Compliance Matrix: (Units=1/GPa)
#
#
# Indices 1 2 3 4 5 6 
#
# 1 0.009623 -0.002854 -0.005423 0.000000 0.000000 0.000000
# 2 -0.002854 0.009623 -0.005423 0.000000 0.000000 0.000000
# 3 -0.005423 -0.005423 0.049524 0.000000 0.000000 0.000000
# 4 0.000000 0.000000 0.000000 0.042932 0.000000 0.000000
# 5 0.000000 0.000000 0.000000 0.000000 0.042932 0.000000
# 6 0.000000 0.000000 0.000000 0.000000 0.000000 0.024954
#
#
# Mechanical properties :
#
#
# Convention : Reuss Voigt Hill
#
# Bulk Modulus (GPa) = 24.17248 51.25497 37.71372
# Shear Modulus (GPa) = 22.64688 30.33504 26.49096
#
# Velocity S-wave (km/s) = 3.34158 3.86740 3.61407
# Velocity P-wave (km/s) = 5.17750 6.72413 6.00085
#
# Compressibility (1/GPa) = 0.04136937
#
# Stress axis : x y z
#
# Youngs Moduli (GPa) = 103.91506 103.91549 20.19210
#
# Poissons Ratio (x) = 0.29656 0.10951
# Poissons Ratio (y) = 0.29656 0.10951
# Poissons Ratio (z) = 0.56358 0.56357
#
# Static dielectric constant tensor:
#      x y z
#    x 3.975660 0.000000 0.000000 
#    y 0.000000 3.975650 0.000000 
#    z 0.000000 0.000000 3.252000 
# 
# 
# High freq. dielectric constant tensor:
#      x y z
#    x 1.813940 0.000000 0.000000 
#    y 0.000000 1.813940 0.000000 
#    z 0.000000 0.000000 1.743310 
# 
# From -- ./inp_files/2829.got.cif
#   From: 2010.03.12/outbox.cif.g09.slc.cpg/sg175_2_cif.got.tgz:2829.got - 2010.04.02 06:55:29.
