data_PCOD8325233
_publ_section_title
;
Structure prediction by ZEFSAII (Michael W. Deem and Ramdas Pophale) SiO2 
 PCOD8325233
Probable space group: P 6/M
;
_chemical_formula_sum "Si O2"
_cell_formula_units_Z 40
_cell_length_a 16.252914
_cell_length_b 16.252914
_cell_length_c 8.453650
_cell_angle_alpha 90.000000
_cell_angle_beta 90.000000
_cell_angle_gamma 120.000000
_cell_volume 1933.914945
_symmetry_space_group_name_H-M "P 6/M"
_symmetry_group_IT_number 175
_symmetry_cell_setting 'hexagonal'
loop_
_space_group_symop_operation_xyz
x,y,z
x-y,x,z
-y,x-y,z
-x,-y,z
-x+y,-x,z
y,-x+y,z
-x,-y,-z
-x+y,-x,-z
y,-x+y,-z
x,y,-z
x-y,x,-z
-y,x-y,-z
loop_
_atom_site_type_symbol
_atom_site_label
_atom_site_fract_x
_atom_site_fract_y
_atom_site_fract_z
Si Si1 0.617268 0.980496 0.185355
Si Si2 0.666667 0.333333 0.813625
Si Si3 0.418436 0.862635 0.315623
Si Si4 0.826027 0.803103 0.188034
O O1 0.622031 0.067516 0.281408
O O2 0.515383 0.888972 0.221720
O O3 0.702349 0.964140 0.244430
O O4 0.626656 0.004043 0.000000
O O5 0.661934 0.239047 0.745720
O O6 0.666667 0.333334 0.000000
O O7 0.438483 0.862670 0.500000
O O8 0.813338 0.889448 0.254806
O O9 0.829823 0.807096 0.000000
#
# Coordination Sequence:
#
# PCOD8325233 Si02
#       4
#    12   4  12  12
#     4  10  20  36  60  88 119 162 209 248 293 352
#     4  12  25  41  64  90 121 155 199 252 301 368
#     4  11  23  40  59  86 122 160 201 247 303 360
#     4   9  18  32  54  85 119 154 198 249 298 347
#
# _framework density 20.683433999999998
#
# number of rings (size 3 to 8) (size 9 to 14) (size 15 to 20)
#    0.000    1.800    0.000    6.600    4.200    1.200 
#    0.000    0.000    0.000    0.000    0.000    0.000 
#    0.000    9.600    0.000    0.000    0.000    0.000 
#
# Total GULP energy -496066.815346 kJ/mol
# GULP energy per Si atom -12401.670384 kJ/mol
# Density = 2.063636 g / cm^3
# Si number density = 20.683434 Si / 1000 Ang^3
#
#
#
# Elastic Constant Matrix: (Units=GPa)
#
#
# Indices 1 2 3 4 5 6 
#
# 1 80.9691 48.2775 18.5870 0.0000 0.0000 -0.0009
# 2 48.2775 80.9745 18.5853 0.0000 0.0000 -0.0011
# 3 18.5870 18.5853 69.0887 0.0000 0.0000 0.0009
# 4 0.0000 0.0000 0.0000 12.0260 -0.0002 0.0000
# 5 0.0000 0.0000 0.0000 -0.0002 12.0263 0.0000
# 6 -0.0009 -0.0011 0.0009 0.0000 0.0000 16.3431
#
#
#
# Elastic Compliance Matrix: (Units=1/GPa)
#
#
# Indices 1 2 3 4 5 6 
#
# 1 0.019487 -0.011100 -0.002257 0.000000 0.000000 0.000000
# 2 -0.011100 0.019485 -0.002255 0.000000 0.000000 0.000001
# 3 -0.002257 -0.002255 0.015688 0.000000 0.000000 -0.000001
# 4 0.000000 0.000000 0.000000 0.083153 0.000001 0.000000
# 5 0.000000 0.000000 0.000000 0.000001 0.083151 0.000000
# 6 0.000000 0.000001 -0.000001 0.000000 0.000000 0.061188
#
#
# Mechanical properties :
#
#
# Convention : Reuss Voigt Hill
#
# Bulk Modulus (GPa) = 42.66981 44.65910 43.66445
# Shear Modulus (GPa) = 15.56716 17.78455 16.67585
#
# Velocity S-wave (km/s) = 2.74640 2.93549 2.84252
# Velocity P-wave (km/s) = 5.54362 5.75570 5.65065
#
# Compressibility (1/GPa) = 0.02343578
#
# Stress axis : x y z
#
# Youngs Moduli (GPa) = 51.31652 51.32077 63.74325
#
# Poissons Ratio (x) = 0.56968 0.14384
# Poissons Ratio (y) = 0.56963 0.14376
# Poissons Ratio (z) = 0.11580 0.11575
#
# Static dielectric constant tensor:
#      x y z
#    x 3.821390 -0.000020 0.000000 
#    y -0.000020 3.821400 0.000000 
#    z 0.000000 0.000000 3.460310 
# 
# 
# High freq. dielectric constant tensor:
#      x y z
#    x 1.815210 0.000000 0.000000 
#    y 0.000000 1.815210 0.000000 
#    z 0.000000 0.000000 1.785430 
# 
# From -- ./inp_files/444.got.cif
#   From: 2010.03.12/outbox.cif.g09.slc.cpg/sg175_1_cif.got.tgz:444.got - 2010.04.02 06:55:29.
