data_PCOD8325328
_publ_section_title
;
Structure prediction by ZEFSAII (Michael W. Deem and Ramdas Pophale) SiO2 
 PCOD8325328
Probable space group: P 6/M
;
_chemical_formula_sum "Si O2"
_cell_formula_units_Z 72
_cell_length_a 23.944137
_cell_length_b 23.944137
_cell_length_c 7.520064
_cell_angle_alpha 90.000000
_cell_angle_beta 90.000000
_cell_angle_gamma 120.000000
_cell_volume 3733.795654
_symmetry_space_group_name_H-M "P 6/M"
_symmetry_group_IT_number 175
_symmetry_cell_setting 'hexagonal'
loop_
_space_group_symop_operation_xyz
x,y,z
x-y,x,z
-y,x-y,z
-x,-y,z
-x+y,-x,z
y,-x+y,z
-x,-y,-z
-x+y,-x,-z
y,-x+y,-z
x,y,-z
x-y,x,-z
-y,x-y,-z
loop_
_atom_site_type_symbol
_atom_site_label
_atom_site_fract_x
_atom_site_fract_y
_atom_site_fract_z
Si Si1 0.387768 0.809944 0.712412
Si Si2 0.953951 0.647319 0.298234
Si Si3 0.281125 0.126691 0.000000
Si Si4 0.278936 0.523614 0.288842
Si Si5 0.381331 0.194094 0.298263
Si Si6 0.014105 0.252090 0.000000
Si Si7 0.570253 0.049494 0.288740
O O1 0.387814 0.810046 0.500000
O O2 0.317092 0.760198 0.787604
O O3 0.438064 0.789342 0.786209
O O4 0.408914 0.880351 0.789284
O O5 0.977817 0.669909 0.500000
O O6 0.876772 0.613076 0.286511
O O7 0.987454 0.709638 0.173701
O O8 0.972278 0.594113 0.232640
O O9 0.324632 0.142904 0.175144
O O10 0.242548 0.166134 0.000000
O O11 0.231319 0.049848 0.000000
O O12 0.277803 0.526220 0.500000
O O13 0.245821 0.449095 0.228701
O O14 0.366364 0.167554 0.500000
O O15 0.568095 0.051782 0.500000
O O16 0.500000 0.000000 0.210034
#
# Coordination Sequence:
#
# PCOD8325328 Si02
#       7
#    12  12   6  12  12   6  12
#     4   9  15  23  37  63  95 128 171 221 269 318
#     4   9  17  33  54  75 105 144 180 217 265 316
#     4  10  22  38  58  85 112 136 172 212 256 312
#     4   9  15  24  42  67  97 133 177 226 274 320
#     4   9  17  32  54  76 103 142 182 223 269 315
#     4  10  22  38  59  85 110 140 172 210 256 308
#     4   9  16  26  42  65  97 135 173 217 269 320
#
# _framework density 19.283327
#
# number of rings (size 3 to 8) (size 9 to 14) (size 15 to 20)
#    0.000    2.833    1.667    0.333    0.000    3.333 
#    0.000    3.750    0.000    2.167    0.000    0.000 
#    0.000    0.000    0.000    8.333    0.000    0.000 
#
# Total GULP energy -892614.992653 kJ/mol
# GULP energy per Si atom -12397.430454 kJ/mol
# Density = 1.923944 g / cm^3
# Si number density = 19.283327 Si / 1000 Ang^3
#
#
#
# Elastic Constant Matrix: (Units=GPa)
#
#
# Indices 1 2 3 4 5 6 
#
# 1 118.8203 61.9426 25.8603 0.0000 0.0000 0.0000
# 2 61.9426 118.8203 25.8603 0.0000 0.0000 0.0000
# 3 25.8603 25.8603 62.0718 0.0000 0.0000 0.0000
# 4 0.0000 0.0000 0.0000 2.9873 0.0000 0.0000
# 5 0.0000 0.0000 0.0000 0.0000 2.9873 0.0000
# 6 0.0000 0.0000 0.0000 0.0000 0.0000 28.4389
#
#
#
# Elastic Compliance Matrix: (Units=1/GPa)
#
#
# Indices 1 2 3 4 5 6 
#
# 1 0.011931 -0.005650 -0.002617 0.000000 0.000000 0.000000
# 2 -0.005650 0.011931 -0.002617 0.000000 0.000000 0.000000
# 3 -0.002617 -0.002617 0.018291 0.000000 0.000000 0.000000
# 4 0.000000 0.000000 0.000000 0.334754 0.000000 0.000000
# 5 0.000000 0.000000 0.000000 0.000000 0.334754 0.000000
# 6 0.000000 0.000000 0.000000 0.000000 0.000000 0.035163
#
#
# Mechanical properties :
#
#
# Convention : Reuss Voigt Hill
#
# Bulk Modulus (GPa) = 49.05447 58.55989 53.80718
# Shear Modulus (GPa) = 6.44840 19.28596 12.86718
#
# Velocity S-wave (km/s) = 1.83065 3.16592 2.58596
# Velocity P-wave (km/s) = 5.47379 6.61802 6.07292
#
# Compressibility (1/GPa) = 0.02038550
#
# Stress axis : x y z
#
# Youngs Moduli (GPa) = 83.81392 83.81392 54.67257
#
# Poissons Ratio (x) = 0.47358 0.14306
# Poissons Ratio (y) = 0.47358 0.14306
# Poissons Ratio (z) = 0.21932 0.21932
#
# Static dielectric constant tensor:
#      x y z
#    x 3.430370 0.000000 0.000000 
#    y 0.000000 3.430370 0.000000 
#    z 0.000000 0.000000 3.341140 
# 
# 
# High freq. dielectric constant tensor:
#      x y z
#    x 1.730720 0.000000 0.000000 
#    y 0.000000 1.730720 0.000000 
#    z 0.000000 0.000000 1.734140 
# 
# From -- ./inp_files/1255.got.cif
#   From: 2010.03.12/outbox.cif.g09.slc.cpg/sg175_1_cif.got.tgz:1255.got - 2010.04.02 06:55:29.
