data_PCOD8325738
_publ_section_title
;
Structure prediction by ZEFSAII (Michael W. Deem and Ramdas Pophale) SiO2 
 PCOD8325738
Probable space group: P 6 2 2
;
_chemical_formula_sum "Si O2"
_cell_formula_units_Z 96
_cell_length_a 20.803553
_cell_length_b 20.803553
_cell_length_c 16.480814
_cell_angle_alpha 90.000000
_cell_angle_beta 90.000000
_cell_angle_gamma 120.000000
_cell_volume 6177.095518
_symmetry_space_group_name_H-M "P 6 2 2"
_symmetry_group_IT_number 177
_symmetry_cell_setting 'hexagonal'
loop_
_space_group_symop_operation_xyz
x,y,z
x-y,x,z
-y,x-y,z
-x,-y,z
-x+y,-x,z
y,-x+y,z
x-y,-y,-z
-x,-x+y,-z
y,x,-z
-y,-x,-z
-x+y,y,-z
x,x-y,-z
loop_
_atom_site_type_symbol
_atom_site_label
_atom_site_fract_x
_atom_site_fract_y
_atom_site_fract_z
Si Si1 0.181896 0.666474 0.000000
Si Si2 0.383446 0.468452 0.153044
Si Si3 0.913147 0.329303 0.675673
Si Si4 0.085006 0.468452 0.153044
Si Si5 0.911726 0.455863 0.408589
Si Si6 0.913147 0.583844 0.675673
Si Si7 0.916450 0.083551 0.596202
Si Si8 0.169103 0.830898 0.597053
O O1 0.136254 0.664427 0.079199
O O2 0.259150 0.740851 0.000000
O O3 0.196778 0.598389 0.000000
O O4 0.136254 0.664427 0.920801
O O5 0.449989 0.550011 0.178492
O O6 0.418402 0.418402 0.125224
O O7 0.327772 0.430407 0.228400
O O8 0.897365 0.327772 0.771600
O O9 0.879998 0.376473 0.633965
O O10 0.873790 0.249217 0.636584
O O11 1.000000 0.365734 0.657639
O O12 0.883168 0.441584 0.500000
O O13 0.879998 0.376473 0.366035
O O14 0.000000 0.500000 0.401551
O O15 0.873791 0.624574 0.636585
O O16 0.919371 0.080630 0.500000
O O17 0.873793 0.126209 0.623032
O O18 0.000000 0.126630 0.631736
O O19 0.174196 0.825805 0.500000
#
# Coordination Sequence:
#
# PCOD8325738 Si02
#       8
#    12  12  12  12  12  12  12  12
#     4  10  20  31  49  73  98 123 148 182 228 285
#     4   9  17  32  51  71  92 118 155 196 234 277
#     4  10  19  32  49  69  94 124 160 200 243 289
#     4   9  17  32  51  71  92 118 155 196 234 277
#     4   9  16  28  48  68  86 115 158 201 233 267
#     4  10  19  32  49  69  94 124 160 200 243 289
#     4   9  17  30  47  66  90 123 161 198 242 301
#     4  11  22  31  44  69 101 129 160 208 256 291
#
# _framework density 15.541283999999999
#
# number of rings (size 3 to 8) (size 9 to 14) (size 15 to 20)
#    0.000    2.375    1.250    2.125    1.750    4.500 
#    0.000    0.000    0.000    0.500    0.000    1.750 
#    0.000    0.000    0.000    0.000    0.000    0.000 
#
# Total GULP energy -1190295.430855 kJ/mol
# GULP energy per Si atom -12398.910738 kJ/mol
# Density = 1.550591 g / cm^3
# Si number density = 15.541284 Si / 1000 Ang^3
#
#
#
# Elastic Constant Matrix: (Units=GPa)
#
#
# Indices 1 2 3 4 5 6 
#
# 1 105.2111 56.1461 56.4137 0.0000 0.0000 0.0000
# 2 56.1461 105.2111 56.4137 0.0000 0.0000 0.0000
# 3 56.4137 56.4137 99.4333 0.0000 0.0000 0.0000
# 4 0.0000 0.0000 0.0000 19.5380 0.0000 0.0000
# 5 0.0000 0.0000 0.0000 0.0000 19.5380 0.0000
# 6 0.0000 0.0000 0.0000 0.0000 0.0000 24.5325
#
#
#
# Elastic Compliance Matrix: (Units=1/GPa)
#
#
# Indices 1 2 3 4 5 6 
#
# 1 0.015327 -0.005054 -0.005828 0.000000 0.000000 0.000000
# 2 -0.005054 0.015327 -0.005828 0.000000 0.000000 0.000000
# 3 -0.005828 -0.005828 0.016670 0.000000 0.000000 0.000000
# 4 0.000000 0.000000 0.000000 0.051182 0.000000 0.000000
# 5 0.000000 0.000000 0.000000 0.000000 0.051182 0.000000
# 6 0.000000 0.000000 0.000000 0.000000 0.000000 0.040762
#
#
# Mechanical properties :
#
#
# Convention : Reuss Voigt Hill
#
# Bulk Modulus (GPa) = 71.92793 71.97807 71.95300
# Shear Modulus (GPa) = 21.88119 22.11385 21.99752
#
# Velocity S-wave (km/s) = 3.75632 3.77624 3.76630
# Velocity P-wave (km/s) = 8.07438 8.08876 8.08157
#
# Compressibility (1/GPa) = 0.01390280
#
# Stress axis : x y z
#
# Youngs Moduli (GPa) = 65.24448 65.24448 59.98663
#
# Poissons Ratio (x) = 0.32976 0.34962
# Poissons Ratio (y) = 0.32976 0.34962
# Poissons Ratio (z) = 0.38026 0.38026
#
# Static dielectric constant tensor:
#      x y z
#    x 2.923230 0.000000 0.000000 
#    y 0.000000 2.923230 0.000000 
#    z 0.000000 0.000000 2.953400 
# 
# 
# High freq. dielectric constant tensor:
#      x y z
#    x 1.586590 0.000000 0.000000 
#    y 0.000000 1.586590 0.000000 
#    z 0.000000 0.000000 1.591000 
# 
# From -- ./inp_files/2958.got.cif
#   From: 2010.03.12/outbox.cif.g09.slc.cpg/sg177_2_cif.got.tgz:2958.got - 2010.04.02 07:00:27.
