data_PCOD8325122
_publ_section_title
;
Structure prediction by ZEFSAII (Michael W. Deem and Ramdas Pophale) SiO2 
 PCOD8325122
Probable space group: P 6/M
;
_chemical_formula_sum "Si O2"
_cell_formula_units_Z 72
_cell_length_a 23.793638
_cell_length_b 23.793638
_cell_length_c 8.409487
_cell_angle_alpha 90.000000
_cell_angle_beta 90.000000
_cell_angle_gamma 120.000000
_cell_volume 4123.080698
_symmetry_space_group_name_H-M "P 6/M"
_symmetry_group_IT_number 175
_symmetry_cell_setting 'hexagonal'
loop_
_space_group_symop_operation_xyz
x,y,z
x-y,x,z
-y,x-y,z
-x,-y,z
-x+y,-x,z
y,-x+y,z
-x,-y,-z
-x+y,-x,-z
y,-x+y,-z
x,y,-z
x-y,x,-z
-y,x-y,-z
loop_
_atom_site_type_symbol
_atom_site_label
_atom_site_fract_x
_atom_site_fract_y
_atom_site_fract_z
Si Si1 0.587939 0.857122 0.185427
Si Si2 0.071880 0.266291 0.312411
Si Si3 0.730959 0.928255 0.310490
Si Si4 0.591978 0.521428 0.315627
Si Si5 0.149274 0.412816 0.312326
Si Si6 0.932328 0.529944 0.814390
O O1 0.661388 0.905960 0.236343
O O2 0.540630 0.875512 0.278223
O O3 0.565407 0.783175 0.229123
O O4 0.580092 0.864006 0.000000
O O5 0.066698 0.262883 0.500000
O O6 0.122960 0.243934 0.256131
O O7 0.097291 0.339851 0.255916
O O8 0.999983 0.218496 0.243361
O O9 0.723116 0.926909 0.500000
O O10 0.576724 0.504651 0.500000
O O11 0.580126 0.580592 0.271039
O O12 0.543901 0.458082 0.214648
O O13 0.159759 0.415711 0.500000
O O14 0.125108 0.461343 0.257673
O O15 0.939700 0.545343 0.000000
#
# Coordination Sequence:
#
# PCOD8325122 Si02
#       6
#    12  12  12  12  12  12
#     4  11  21  33  49  73 100 128 162 209 257 296
#     4   8  15  26  45  67  91 123 163 202 240 289
#     4   9  16  29  46  67  93 127 165 203 248 305
#     4  11  21  35  53  74 101 137 172 204 245 301
#     4  10  19  33  51  73  99 133 168 200 244 304
#     4  11  21  34  52  78 106 132 164 208 251 291
#
# _framework density 17.462669999999999
#
# number of rings (size 3 to 8) (size 9 to 14) (size 15 to 20)
#    0.000    2.000    0.000    8.000    0.000    1.333 
#    0.000    3.333    0.000    1.000    0.000    7.000 
#    0.000    0.000    0.000    6.000    0.000    6.667 
#
# Total GULP energy -892830.048433 kJ/mol
# GULP energy per Si atom -12400.417339 kJ/mol
# Density = 1.742292 g / cm^3
# Si number density = 17.462670 Si / 1000 Ang^3
#
#
#
# Elastic Constant Matrix: (Units=GPa)
#
#
# Indices 1 2 3 4 5 6 
#
# 1 99.6357 45.9114 2.0845 0.0000 0.0000 0.0000
# 2 45.9114 99.6357 2.0845 0.0000 0.0000 0.0000
# 3 2.0845 2.0845 55.1608 0.0000 0.0000 0.0000
# 4 0.0000 0.0000 0.0000 20.2063 0.0000 0.0000
# 5 0.0000 0.0000 0.0000 0.0000 20.2063 0.0000
# 6 0.0000 0.0000 0.0000 0.0000 0.0000 26.8621
#
#
#
# Elastic Compliance Matrix: (Units=1/GPa)
#
#
# Indices 1 2 3 4 5 6 
#
# 1 0.012746 -0.005868 -0.000260 0.000000 0.000000 0.000000
# 2 -0.005868 0.012746 -0.000260 0.000000 0.000000 0.000000
# 3 -0.000260 -0.000260 0.018148 0.000000 0.000000 0.000000
# 4 0.000000 0.000000 0.000000 0.049490 0.000000 0.000000
# 5 0.000000 0.000000 0.000000 0.000000 0.049490 0.000000
# 6 0.000000 0.000000 0.000000 0.000000 0.000000 0.037227
#
#
# Mechanical properties :
#
#
# Convention : Reuss Voigt Hill
#
# Bulk Modulus (GPa) = 32.39924 39.39923 35.89924
# Shear Modulus (GPa) = 24.64147 27.07837 25.85992
#
# Velocity S-wave (km/s) = 3.76053 3.94209 3.85238
# Velocity P-wave (km/s) = 6.11957 6.58263 6.35532
#
# Compressibility (1/GPa) = 0.03086492
#
# Stress axis : x y z
#
# Youngs Moduli (GPa) = 78.45711 78.45711 55.10108
#
# Poissons Ratio (x) = 0.46037 0.01432
# Poissons Ratio (y) = 0.46037 0.01432
# Poissons Ratio (z) = 0.02039 0.02039
#
# Static dielectric constant tensor:
#      x y z
#    x 3.390150 0.000000 0.000000 
#    y 0.000000 3.390150 0.000000 
#    z 0.000000 0.000000 3.170260 
# 
# 
# High freq. dielectric constant tensor:
#      x y z
#    x 1.665280 0.000000 0.000000 
#    y 0.000000 1.665280 0.000000 
#    z 0.000000 0.000000 1.674140 
# 
# From -- ./inp_files/1158.got.cif
#   From: 2010.03.12/outbox.cif.g09.slc.cpg/sg175_1_cif.got.tgz:1158.got - 2010.04.02 06:55:29.
