data_PCOD8325694
_publ_section_title
;
Structure prediction by ZEFSAII (Michael W. Deem and Ramdas Pophale) SiO2 
 PCOD8325694
Probable space group: P 63/M
;
_chemical_formula_sum "Si O2"
_cell_formula_units_Z 46
_cell_length_a 13.759719
_cell_length_b 13.759719
_cell_length_c 13.824349
_cell_angle_alpha 90.000000
_cell_angle_beta 90.000000
_cell_angle_gamma 120.000000
_cell_volume 2266.702119
_symmetry_space_group_name_H-M "P 63/M"
_symmetry_group_IT_number 176
_symmetry_cell_setting 'hexagonal'
loop_
_space_group_symop_operation_xyz
x,y,z
x-y,x,1/2+z
-y,x-y,z
-x,-y,1/2+z
-x+y,-x,z
y,-x+y,1/2+z
-x,-y,-z
-x+y,-x,1/2-z
y,-x+y,-z
x,y,1/2-z
x-y,x,-z
-y,x-y,1/2-z
loop_
_atom_site_type_symbol
_atom_site_label
_atom_site_fract_x
_atom_site_fract_y
_atom_site_fract_z
Si Si1 0.620145 0.645018 0.750000
Si Si2 0.579772 0.786642 0.897031
Si Si3 0.682464 0.824771 0.250000
Si Si4 0.961599 0.379656 0.250000
Si Si5 0.879193 0.760945 0.542146
Si Si6 0.333333 0.666667 0.867138
O O1 0.636589 0.724069 0.841822
O O2 0.721274 0.616067 0.750000
O O3 0.500671 0.530385 0.750000
O O4 0.586712 0.893514 0.842508
O O5 0.451313 0.692009 0.909251
O O6 0.633674 0.828326 0.002430
O O7 0.601380 0.689492 0.250000
O O8 0.761815 0.857164 0.155628
O O9 0.816874 0.829271 0.524364
O O10 0.333334 0.666668 0.750000
#
# Coordination Sequence:
#
# PCOD8325694 Si02
#       6
#     6  12   6   6  12   4
#     4  11  21  41  72  99 134 175 226 288 334 401
#     4  11  20  39  69 104 129 167 234 283 338 391
#     4  12  26  46  66  94 142 178 222 284 344 414
#     4  11  21  41  72  99 134 175 226 288 334 401
#     4  12  26  44  67  99 134 185 232 277 344 401
#     4  12  18  36  72 109 128 166 234 300 330 388
#
# _framework density 20.293799
#
# number of rings (size 3 to 8) (size 9 to 14) (size 15 to 20)
#    0.000    0.522   10.435    0.261    0.000    1.043 
#    5.478    3.913    0.000    0.000    0.000    0.000 
#    0.000    0.000    0.000    0.000    0.000    0.000 
#
# Total GULP energy -570212.161199 kJ/mol
# GULP energy per Si atom -12395.916548 kJ/mol
# Density = 2.024761 g / cm^3
# Si number density = 20.293799 Si / 1000 Ang^3
#
#
#
# Elastic Constant Matrix: (Units=GPa)
#
#
# Indices 1 2 3 4 5 6 
#
# 1 91.2379 48.9923 21.5321 0.0000 0.0000 -0.0002
# 2 48.9923 91.2395 21.5318 0.0000 0.0000 0.0005
# 3 21.5321 21.5318 106.6102 0.0000 0.0000 0.0002
# 4 0.0000 0.0000 0.0000 -14.9620 0.0002 0.0000
# 5 0.0000 0.0000 0.0000 0.0002 -14.9613 0.0000
# 6 -0.0002 0.0005 0.0002 0.0000 0.0000 21.1249
#
#
#
# Elastic Compliance Matrix: (Units=1/GPa)
#
#
# Indices 1 2 3 4 5 6 
#
# 1 0.015637 -0.008034 -0.001536 0.000000 0.000000 0.000000
# 2 -0.008034 0.015636 -0.001535 0.000000 0.000000 0.000000
# 3 -0.001536 -0.001535 0.010000 0.000000 0.000000 0.000000
# 4 0.000000 0.000000 0.000000 -0.066836 -0.000001 0.000000
# 5 0.000000 0.000000 0.000000 -0.000001 -0.066839 0.000000
# 6 0.000000 0.000000 0.000000 0.000000 0.000000 0.047338
#
#
# Mechanical properties :
#
#
# Convention : Reuss Voigt Hill
#
# Bulk Modulus (GPa) = 52.45631 52.57780 52.51706
# Shear Modulus (GPa) = -303.03677 11.37574 -145.83051
#
# Velocity S-wave (km/s) = -12.23311 2.37017 -8.48620
# Velocity P-wave (km/s) = 13.17678 5.78401 8.37176
#
# Compressibility (1/GPa) = 0.01906348
#
# Stress axis : x y z
#
# Youngs Moduli (GPa) = 63.95172 63.95297 99.99789
#
# Poissons Ratio (x) = 0.51380 0.15355
# Poissons Ratio (y) = 0.51379 0.15354
# Poissons Ratio (z) = 0.09820 0.09820
#
# Static dielectric constant tensor:
#      x y z
#    x 3.774140 0.000010 0.000000 
#    y 0.000010 3.774140 0.000000 
#    z 0.000000 0.000000 3.519410 
# 
# 
# High freq. dielectric constant tensor:
#      x y z
#    x 1.794090 0.000000 0.000000 
#    y 0.000000 1.794090 0.000000 
#    z 0.000000 0.000000 1.777680 
# 
# From -- ./inp_files/1732.got.cif
#   From: 2010.06.25/outbox.cif.g09.slc.cpg/sg176_1_cif.got.tgz:1732.got - 2010.06.28 12:15:01.
