data_PCOD8325385
_publ_section_title
;
Structure prediction by ZEFSAII (Michael W. Deem and Ramdas Pophale) SiO2 
 PCOD8325385
Probable space group: P 6/M
;
_chemical_formula_sum "Si O2"
_cell_formula_units_Z 72
_cell_length_a 21.847123
_cell_length_b 21.847123
_cell_length_c 9.168108
_cell_angle_alpha 90.000000
_cell_angle_beta 90.000000
_cell_angle_gamma 120.000000
_cell_volume 3789.647889
_symmetry_space_group_name_H-M "P 6/M"
_symmetry_group_IT_number 175
_symmetry_cell_setting 'hexagonal'
loop_
_space_group_symop_operation_xyz
x,y,z
x-y,x,z
-y,x-y,z
-x,-y,z
-x+y,-x,z
y,-x+y,z
-x,-y,-z
-x+y,-x,-z
y,-x+y,-z
x,y,-z
x-y,x,-z
-y,x-y,-z
loop_
_atom_site_type_symbol
_atom_site_label
_atom_site_fract_x
_atom_site_fract_y
_atom_site_fract_z
Si Si1 0.780137 0.217850 0.171219
Si Si2 0.395261 0.390907 0.166062
Si Si3 0.766513 0.073488 0.826990
Si Si4 0.870020 0.361455 0.671997
Si Si5 0.621061 0.154232 0.163668
Si Si6 0.153083 0.119762 0.173935
O O1 0.787828 0.151839 0.227329
O O2 0.835038 0.283577 0.263591
O O3 0.702536 0.205988 0.204340
O O4 0.797538 0.230997 0.000000
O O5 0.332451 0.314066 0.220003
O O6 0.401530 0.451060 0.273647
O O7 0.469722 0.394851 0.174815
O O8 0.380734 0.405626 0.000000
O O9 0.820468 0.049716 0.763631
O O10 0.769302 0.075448 0.000000
O O11 0.866361 0.358132 0.500000
O O12 0.831342 0.403563 0.727497
O O13 0.605435 0.169599 0.000000
O O14 0.092940 0.135986 0.231974
O O15 0.154364 0.120704 0.000000
#
# Coordination Sequence:
#
# PCOD8325385 Si02
#       6
#    12  12  12  12  12  12
#     4   9  19  37  58  78 104 139 185 232 270 313
#     4   9  18  34  57  81 106 136 179 230 272 315
#     4   8  16  30  51  78 102 137 184 230 276 314
#     4  12  24  34  52  83 114 145 177 211 270 334
#     4   9  19  38  59  80 103 137 183 228 273 315
#     4   9  16  24  38  68 111 149 176 213 272 331
#
# _framework density 18.999127999999999
#
# number of rings (size 3 to 8) (size 9 to 14) (size 15 to 20)
#    0.000    2.667    0.000    4.167    2.333    4.000 
#    1.000    2.500    0.000    0.000    0.000    0.000 
#    0.000    0.000    0.000    1.500    0.000    1.667 
#
# Total GULP energy -892671.194984 kJ/mol
# GULP energy per Si atom -12398.211041 kJ/mol
# Density = 1.895588 g / cm^3
# Si number density = 18.999128 Si / 1000 Ang^3
#
#
#
# Elastic Constant Matrix: (Units=GPa)
#
#
# Indices 1 2 3 4 5 6 
#
# 1 67.4501 14.2091 15.8163 0.0000 0.0000 0.0000
# 2 14.2091 67.4501 15.8163 0.0000 0.0000 0.0000
# 3 15.8163 15.8163 57.9572 0.0000 0.0000 0.0000
# 4 0.0000 0.0000 0.0000 3.2661 0.0000 0.0000
# 5 0.0000 0.0000 0.0000 0.0000 3.2661 0.0000
# 6 0.0000 0.0000 0.0000 0.0000 0.0000 26.6205
#
#
#
# Elastic Compliance Matrix: (Units=1/GPa)
#
#
# Indices 1 2 3 4 5 6 
#
# 1 0.016238 -0.002544 -0.003737 0.000000 0.000000 0.000000
# 2 -0.002544 0.016238 -0.003737 0.000000 0.000000 0.000000
# 3 -0.003737 -0.003737 0.019294 0.000000 0.000000 0.000000
# 4 0.000000 0.000000 0.000000 0.306173 0.000000 0.000000
# 5 0.000000 0.000000 0.000000 0.000000 0.306173 0.000000
# 6 0.000000 0.000000 0.000000 0.000000 0.000000 0.037565
#
#
# Mechanical properties :
#
#
# Convention : Reuss Voigt Hill
#
# Bulk Modulus (GPa) = 31.51277 31.61566 31.56422
# Shear Modulus (GPa) = 6.82785 16.43159 11.62972
#
# Velocity S-wave (km/s) = 1.89778 2.94404 2.47679
# Velocity P-wave (km/s) = 4.62866 5.31349 4.98286
#
# Compressibility (1/GPa) = 0.03173317
#
# Stress axis : x y z
#
# Youngs Moduli (GPa) = 61.58370 61.58370 51.83034
#
# Poissons Ratio (x) = 0.15670 0.19369
# Poissons Ratio (y) = 0.15670 0.19369
# Poissons Ratio (z) = 0.23013 0.23013
#
# Static dielectric constant tensor:
#      x y z
#    x 3.679860 0.000000 0.000000 
#    y 0.000000 3.679860 0.000000 
#    z 0.000000 0.000000 2.982140 
# 
# 
# High freq. dielectric constant tensor:
#      x y z
#    x 1.745520 0.000000 0.000000 
#    y 0.000000 1.745520 0.000000 
#    z 0.000000 0.000000 1.679880 
# 
# From -- ./inp_files/1170.got.cif
#   From: 2010.03.12/outbox.cif.g09.slc.cpg/sg175_1_cif.got.tgz:1170.got - 2010.04.02 06:55:29.
