data_PCOD8325115
_publ_section_title
;
Structure prediction by ZEFSAII (Michael W. Deem and Ramdas Pophale) SiO2 
 PCOD8325115
Probable space group: P 6/M
;
_chemical_formula_sum "Si O2"
_cell_formula_units_Z 54
_cell_length_a 11.203876
_cell_length_b 11.203876
_cell_length_c 23.708930
_cell_angle_alpha 90.000000
_cell_angle_beta 90.000000
_cell_angle_gamma 120.000000
_cell_volume 2577.384268
_symmetry_space_group_name_H-M "P 6/M"
_symmetry_group_IT_number 175
_symmetry_cell_setting 'hexagonal'
loop_
_space_group_symop_operation_xyz
x,y,z
x-y,x,z
-y,x-y,z
-x,-y,z
-x+y,-x,z
y,-x+y,z
-x,-y,-z
-x+y,-x,-z
y,-x+y,-z
x,y,-z
x-y,x,-z
-y,x-y,-z
loop_
_atom_site_type_symbol
_atom_site_label
_atom_site_fract_x
_atom_site_fract_y
_atom_site_fract_z
Si Si1 0.100210 0.784771 0.559500
Si Si2 0.319159 0.101823 0.318344
Si Si3 0.691797 0.497267 0.000000
Si Si4 0.907665 0.222896 0.893864
Si Si5 0.696332 0.498583 0.787535
O O1 0.127677 0.724716 0.500000
O O2 0.125107 0.731095 0.619604
O O3 0.946698 0.754183 0.559110
O O4 0.252289 0.198031 0.309950
O O5 0.437578 0.138329 0.273141
O O6 0.543191 0.355985 0.000000
O O7 0.700101 0.580763 0.055446
O O8 0.889621 0.283475 0.835554
O O9 0.060889 0.251439 0.898081
O O10 0.546041 0.360160 0.792983
#
# Coordination Sequence:
#
# PCOD8325115 Si02
#       5
#    12  12   6  12  12
#     4   8  13  22  40  70 106 141 175 215 272 338
#     4  10  19  32  54  82 113 144 178 230 288 346
#     4  10  24  44  64 100 122 164 206 234 264 306
#     4  12  25  42  66  93 124 154 186 237 293 345
#     4  10  24  42  57  83 106 149 200 237 282 329
#
# _framework density 20.951473
#
# number of rings (size 3 to 8) (size 9 to 14) (size 15 to 20)
#    0.667    1.333    0.000    4.000    0.000    9.778 
#    0.000    3.333    0.000    1.333    0.000    6.222 
#    0.000    0.000    0.000    0.000    0.000    0.000 
#
# Total GULP energy -668969.052838 kJ/mol
# GULP energy per Si atom -12388.315793 kJ/mol
# Density = 2.090379 g / cm^3
# Si number density = 20.951473 Si / 1000 Ang^3
#
#
#
# Elastic Constant Matrix: (Units=GPa)
#
#
# Indices 1 2 3 4 5 6 
#
# 1 -18.2428 48.9278 16.5270 0.0000 0.0000 0.0000
# 2 48.9278 -18.2428 16.5270 0.0000 0.0000 0.0000
# 3 16.5270 16.5270 167.9803 0.0000 0.0000 0.0000
# 4 0.0000 0.0000 0.0000 -24.7383 0.0000 0.0000
# 5 0.0000 0.0000 0.0000 0.0000 -24.7383 0.0000
# 6 0.0000 0.0000 0.0000 0.0000 0.0000 -33.5853
#
#
#
# Elastic Compliance Matrix: (Units=1/GPa)
#
#
# Indices 1 2 3 4 5 6 
#
# 1 0.010783 0.025670 -0.003586 0.000000 0.000000 0.000000
# 2 0.025670 0.010783 -0.003586 0.000000 0.000000 0.000000
# 3 -0.003586 -0.003586 0.006659 0.000000 0.000000 0.000000
# 4 0.000000 0.000000 0.000000 -0.040423 0.000000 0.000000
# 5 0.000000 0.000000 0.000000 0.000000 -0.040423 0.000000
# 6 0.000000 0.000000 0.000000 0.000000 0.000000 -0.029775
#
#
# Mechanical properties :
#
#
# Convention : Reuss Voigt Hill
#
# Bulk Modulus (GPa) = 15.33317 32.82870 24.08094
# Shear Modulus (GPa) = -51.20203 -13.31150 -32.25676
#
# Velocity S-wave (km/s) = -4.94888 -2.52335 -3.92802
# Velocity P-wave (km/s) = 5.03199 2.68575 3.00896
#
# Compressibility (1/GPa) = 0.06521807
#
# Stress axis : x y z
#
# Youngs Moduli (GPa) = 92.74273 92.74273 150.17739
#
# Poissons Ratio (x) = -2.38071 0.53860
# Poissons Ratio (y) = -2.38071 0.53860
# Poissons Ratio (z) = 0.33262 0.33262
#
# Static dielectric constant tensor:
#      x y z
#    x 3.548310 0.000000 0.000000 
#    y 0.000000 3.548310 0.000000 
#    z 0.000000 0.000000 4.641390 
# 
# 
# High freq. dielectric constant tensor:
#      x y z
#    x 1.800630 0.000000 0.000000 
#    y 0.000000 1.800630 0.000000 
#    z 0.000000 0.000000 1.852530 
# 
# From -- ./inp_files/3206.got.cif
#   From: 2010.03.12/outbox.cif.g09.slc.cpg/sg175_2_cif.got.tgz:3206.got - 2010.04.02 06:55:29.
