data_PCOD8325091
_publ_section_title
;
Structure prediction by ZEFSAII (Michael W. Deem and Ramdas Pophale) SiO2 
 PCOD8325091
Probable space group: P 6/M
;
_chemical_formula_sum "Si O2"
_cell_formula_units_Z 72
_cell_length_a 22.844211
_cell_length_b 22.844211
_cell_length_c 8.692316
_cell_angle_alpha 90.000000
_cell_angle_beta 90.000000
_cell_angle_gamma 120.000000
_cell_volume 3928.424977
_symmetry_space_group_name_H-M "P 6/M"
_symmetry_group_IT_number 175
_symmetry_cell_setting 'hexagonal'
loop_
_space_group_symop_operation_xyz
x,y,z
x-y,x,z
-y,x-y,z
-x,-y,z
-x+y,-x,z
y,-x+y,z
-x,-y,-z
-x+y,-x,-z
y,-x+y,-z
x,y,-z
x-y,x,-z
-y,x-y,-z
loop_
_atom_site_type_symbol
_atom_site_label
_atom_site_fract_x
_atom_site_fract_y
_atom_site_fract_z
Si Si1 0.665340 0.199533 0.682826
Si Si2 0.203059 0.668343 0.682318
Si Si3 0.335730 0.927953 0.817630
Si Si4 0.596709 0.930297 0.317916
Si Si5 0.277134 0.202730 0.181153
Si Si6 0.279328 0.074334 0.182684
O O1 0.665856 0.194046 0.500000
O O2 0.605595 0.212264 0.739994
O O3 0.735608 0.261197 0.746987
O O4 0.651064 0.129225 0.752800
O O5 0.206208 0.672121 0.500000
O O6 0.131324 0.656915 0.740917
O O7 0.263058 0.914665 0.756045
O O8 0.393396 0.001003 0.757354
O O9 0.338491 0.928493 0.000000
O O10 0.598641 0.938197 0.500000
O O11 0.653139 0.912790 0.264987
O O12 0.261881 0.130382 0.246476
O O13 0.217040 0.217298 0.228249
O O14 0.282317 0.200584 0.000000
O O15 0.291813 0.078854 0.000000
#
# Coordination Sequence:
#
# PCOD8325091 Si02
#       6
#    12  12  12  12  12  12
#     4  10  19  35  55  74  97 129 164 202 241 288
#     4   9  19  33  53  76  98 126 164 202 243 289
#     4  10  20  34  50  73  99 128 162 200 246 293
#     4  10  19  32  49  73  98 123 155 197 243 290
#     4   8  15  27  46  67  92 123 157 192 234 284
#     4   9  16  29  47  69  94 125 159 195 237 286
#
# _framework density 18.327956
#
# number of rings (size 3 to 8) (size 9 to 14) (size 15 to 20)
#    0.000    2.667    0.000    3.333    0.000    2.000 
#    0.000   10.000    0.000    0.333    0.000    2.333 
#    0.000    0.000    0.000    6.000    0.000    6.667 
#
# Total GULP energy -892589.219127 kJ/mol
# GULP energy per Si atom -12397.072488 kJ/mol
# Density = 1.828624 g / cm^3
# Si number density = 18.327956 Si / 1000 Ang^3
#
#
#
# Elastic Constant Matrix: (Units=GPa)
#
#
# Indices 1 2 3 4 5 6 
#
# 1 147.2201 86.6758 25.9199 0.0000 0.0000 0.0000
# 2 86.6758 147.2201 25.9199 0.0000 0.0000 0.0000
# 3 25.9199 25.9199 33.5990 0.0000 0.0000 0.0000
# 4 0.0000 0.0000 0.0000 20.5548 0.0000 0.0000
# 5 0.0000 0.0000 0.0000 0.0000 20.5548 0.0000
# 6 0.0000 0.0000 0.0000 0.0000 0.0000 30.2721
#
#
#
# Elastic Compliance Matrix: (Units=1/GPa)
#
#
# Indices 1 2 3 4 5 6 
#
# 1 0.010837 -0.005680 -0.003979 0.000000 0.000000 0.000000
# 2 -0.005680 0.010837 -0.003979 0.000000 0.000000 0.000000
# 3 -0.003979 -0.003979 0.035901 0.000000 0.000000 0.000000
# 4 0.000000 0.000000 0.000000 0.048650 0.000000 0.000000
# 5 0.000000 0.000000 0.000000 0.000000 0.048650 0.000000
# 6 0.000000 0.000000 0.000000 0.000000 0.000000 0.033034
#
#
# Mechanical properties :
#
#
# Convention : Reuss Voigt Hill
#
# Bulk Modulus (GPa) = 33.00159 67.23006 50.11583
# Shear Modulus (GPa) = 22.19421 26.91124 24.55273
#
# Velocity S-wave (km/s) = 3.48364 3.83602 3.66407
# Velocity P-wave (km/s) = 5.85032 7.50875 6.73081
#
# Compressibility (1/GPa) = 0.03030157
#
# Stress axis : x y z
#
# Youngs Moduli (GPa) = 92.27626 92.27626 27.85419
#
# Poissons Ratio (x) = 0.52411 0.11082
# Poissons Ratio (y) = 0.52411 0.11082
# Poissons Ratio (z) = 0.36712 0.36712
#
# Static dielectric constant tensor:
#      x y z
#    x 3.638160 0.000000 0.000000 
#    y 0.000000 3.638160 0.000000 
#    z 0.000000 0.000000 3.059010 
# 
# 
# High freq. dielectric constant tensor:
#      x y z
#    x 1.713590 0.000000 0.000000 
#    y 0.000000 1.713590 0.000000 
#    z 0.000000 0.000000 1.680490 
# 
# From -- ./inp_files/1179.got.cif
#   From: 2010.03.12/outbox.cif.g09.slc.cpg/sg175_1_cif.got.tgz:1179.got - 2010.04.02 06:55:29.
