data_PCOD8325723
_publ_section_title
;
Structure prediction by ZEFSAII (Michael W. Deem and Ramdas Pophale) SiO2 
 PCOD8325723
Probable space group: P 63/M
;
_chemical_formula_sum "Si O2"
_cell_formula_units_Z 72
_cell_length_a 23.952550
_cell_length_b 23.952550
_cell_length_c 9.412268
_cell_angle_alpha 90.000000
_cell_angle_beta 90.000000
_cell_angle_gamma 120.000000
_cell_volume 4676.580636
_symmetry_space_group_name_H-M "P 63/M"
_symmetry_group_IT_number 176
_symmetry_cell_setting 'hexagonal'
loop_
_space_group_symop_operation_xyz
x,y,z
x-y,x,1/2+z
-y,x-y,z
-x,-y,1/2+z
-x+y,-x,z
y,-x+y,1/2+z
-x,-y,-z
-x+y,-x,1/2-z
y,-x+y,-z
x,y,1/2-z
x-y,x,-z
-y,x-y,1/2-z
loop_
_atom_site_type_symbol
_atom_site_label
_atom_site_fract_x
_atom_site_fract_y
_atom_site_fract_z
Si Si1 0.076447 0.693041 0.907664
Si Si2 0.816683 0.742994 0.083031
Si Si3 0.073689 0.257006 0.416969
Si Si4 0.616594 0.693041 0.092336
Si Si5 0.591031 0.076894 0.410179
Si Si6 0.076894 0.591031 0.089821
O O1 0.104741 0.695496 0.750000
O O2 0.094981 0.764422 0.959571
O O3 0.000000 0.650118 0.898720
O O4 0.103977 0.661161 0.017550
O O5 0.830026 0.747575 0.250000
O O6 0.790831 0.790831 0.037859
O O7 0.882560 0.765120 0.000000
O O8 0.082452 0.252425 0.250000
O O9 0.094981 0.330559 0.459570
O O10 0.590755 0.695496 0.250000
O O11 0.557184 0.661161 0.982450
O O12 0.600902 0.103977 0.250000
O O13 0.551323 0.102647 0.500000
O O14 0.552834 1.000000 0.408309
O O15 0.103977 0.600902 0.250000
#
# Coordination Sequence:
#
# PCOD8325723 Si02
#       6
#    12  12  12  12  12  12
#     4   8  14  25  38  52  74 102 130 161 196 235
#     4   9  18  31  46  64  84 106 134 171 217 268
#     4   9  18  31  46  64  84 106 134 171 217 268
#     4   8  14  25  38  52  74 102 130 161 196 235
#     4   9  15  21  31  49  73 102 134 162 186 214
#     4   9  15  21  31  49  73 102 134 162 186 214
#
# _framework density 15.395864
#
# number of rings (size 3 to 8) (size 9 to 14) (size 15 to 20)
#    0.000    3.333    0.000    3.000    0.000    6.000 
#    0.000    3.333    0.000    0.333    0.000    0.000 
#    0.000    0.000    0.000    1.000    0.000   16.667 
#
# Total GULP energy -892385.255939 kJ/mol
# GULP energy per Si atom -12394.239666 kJ/mol
# Density = 1.536082 g / cm^3
# Si number density = 15.395864 Si / 1000 Ang^3
#
#
#
# Elastic Constant Matrix: (Units=GPa)
#
#
# Indices 1 2 3 4 5 6 
#
# 1 69.3102 39.3617 48.5973 0.0000 0.0000 0.0000
# 2 39.3617 69.3102 48.5973 0.0000 0.0000 0.0000
# 3 48.5973 48.5973 103.7217 0.0000 0.0000 0.0000
# 4 0.0000 0.0000 0.0000 22.5949 0.0000 0.0000
# 5 0.0000 0.0000 0.0000 0.0000 22.5949 0.0000
# 6 0.0000 0.0000 0.0000 0.0000 0.0000 14.9743
#
#
#
# Elastic Compliance Matrix: (Units=1/GPa)
#
#
# Indices 1 2 3 4 5 6 
#
# 1 0.024615 -0.008775 -0.007421 0.000000 0.000000 0.000000
# 2 -0.008775 0.024615 -0.007421 0.000000 0.000000 0.000000
# 3 -0.007421 -0.007421 0.016596 0.000000 0.000000 0.000000
# 4 0.000000 0.000000 0.000000 0.044258 0.000000 0.000000
# 5 0.000000 0.000000 0.000000 0.000000 0.044258 0.000000
# 6 0.000000 0.000000 0.000000 0.000000 0.000000 0.066781
#
#
# Mechanical properties :
#
#
# Convention : Reuss Voigt Hill
#
# Bulk Modulus (GPa) = 53.79489 57.27277 55.53383
# Shear Modulus (GPa) = 18.21124 19.08520 18.64822
#
# Velocity S-wave (km/s) = 3.44301 3.52466 3.48408
# Velocity P-wave (km/s) = 7.12901 7.33793 7.23422
#
# Compressibility (1/GPa) = 0.01858913
#
# Stress axis : x y z
#
# Youngs Moduli (GPa) = 40.62542 40.62542 60.25695
#
# Poissons Ratio (x) = 0.35651 0.44719
# Poissons Ratio (y) = 0.35651 0.44719
# Poissons Ratio (z) = 0.30150 0.30150
#
# Static dielectric constant tensor:
#      x y z
#    x 2.701080 0.000000 0.000000 
#    y 0.000000 2.701080 0.000000 
#    z 0.000000 0.000000 3.117450 
# 
# 
# High freq. dielectric constant tensor:
#      x y z
#    x 1.550490 0.000000 0.000000 
#    y 0.000000 1.550490 0.000000 
#    z 0.000000 0.000000 1.599620 
# 
# From -- ./inp_files/1217.got.cif
#   From: 2010.06.25/outbox.cif.g09.slc.cpg/sg176_1_cif.got.tgz:1217.got - 2010.06.28 12:15:01.
