data_PCOD8325536
_publ_section_title
;
Structure prediction by ZEFSAII (Michael W. Deem and Ramdas Pophale) SiO2 
 PCOD8325536
Probable space group: P 63/M
;
_chemical_formula_sum "Si O2"
_cell_formula_units_Z 72
_cell_length_a 12.621265
_cell_length_b 12.621265
_cell_length_c 31.145102
_cell_angle_alpha 90.000000
_cell_angle_beta 90.000000
_cell_angle_gamma 120.000000
_cell_volume 4296.612228
_symmetry_space_group_name_H-M "P 63/M"
_symmetry_group_IT_number 176
_symmetry_cell_setting 'hexagonal'
loop_
_space_group_symop_operation_xyz
x,y,z
x-y,x,1/2+z
-y,x-y,z
-x,-y,1/2+z
-x+y,-x,z
y,-x+y,1/2+z
-x,-y,-z
-x+y,-x,1/2-z
y,-x+y,-z
x,y,1/2-z
x-y,x,-z
-y,x-y,1/2-z
loop_
_atom_site_type_symbol
_atom_site_label
_atom_site_fract_x
_atom_site_fract_y
_atom_site_fract_z
Si Si1 0.086617 0.418942 0.579877
Si Si2 0.246545 0.997570 0.156947
Si Si3 0.913383 0.332324 0.420123
Si Si4 0.237748 0.998351 0.250000
Si Si5 0.248976 0.002430 0.656947
Si Si6 0.000000 0.247902 1.000000
Si Si7 0.762252 0.760603 0.750000
O O1 0.077381 0.538691 0.574153
O O2 0.228016 0.456033 0.579573
O O3 0.022654 0.354489 0.624434
O O4 0.013597 0.328092 0.541411
O O5 0.289054 0.977631 0.204743
O O6 0.122863 0.877137 0.142217
O O7 0.354489 0.022654 0.124434
O O8 0.219458 0.109729 0.157030
O O9 0.986403 0.314495 0.458589
O O10 0.091038 0.908962 0.250000
O O11 0.273425 0.136713 0.250000
O O12 0.311423 0.022369 0.704743
O O13 0.115675 0.231350 0.007225
#
# Coordination Sequence:
#
# PCOD8325536 Si02
#       7
#    12  12  12   6  12  12   6
#     4  10  20  33  48  66  92 127 163 193 220 258
#     4   9  16  27  46  71  97 122 150 190 239 287
#     4  10  20  33  48  66  92 127 163 193 220 258
#     4   8  13  22  39  66  96 122 148 182 232 288
#     4   9  16  27  46  71  97 122 150 190 239 287
#     4  10  20  34  54  78 100 118 140 180 234 286
#     4   8  13  22  39  66  96 122 148 182 232 288
#
# _framework density 16.757387999999999
#
# number of rings (size 3 to 8) (size 9 to 14) (size 15 to 20)
#    0.000    2.667    0.000    2.500    0.000    2.667 
#    0.000    4.167    0.000    7.333    0.000    2.333 
#    0.000    0.000    0.000    0.000    0.000    0.000 
#
# Total GULP energy -892203.785002 kJ/mol
# GULP energy per Si atom -12391.719236 kJ/mol
# Density = 1.671925 g / cm^3
# Si number density = 16.757388 Si / 1000 Ang^3
#
#
#
# Elastic Constant Matrix: (Units=GPa)
#
#
# Indices 1 2 3 4 5 6 
#
# 1 86.5603 57.8568 62.3854 0.0000 0.0000 0.0000
# 2 57.8568 86.5603 62.3854 0.0000 0.0000 0.0000
# 3 62.3854 62.3854 147.7424 0.0000 0.0000 0.0000
# 4 0.0000 0.0000 0.0000 13.4184 0.0000 0.0000
# 5 0.0000 0.0000 0.0000 0.0000 13.4184 0.0000
# 6 0.0000 0.0000 0.0000 0.0000 0.0000 14.3518
#
#
#
# Elastic Compliance Matrix: (Units=1/GPa)
#
#
# Indices 1 2 3 4 5 6 
#
# 1 0.022870 -0.011969 -0.004603 0.000000 0.000000 0.000000
# 2 -0.011969 0.022870 -0.004603 0.000000 0.000000 0.000000
# 3 -0.004603 -0.004603 0.010656 0.000000 0.000000 0.000000
# 4 0.000000 0.000000 0.000000 0.074525 0.000000 0.000000
# 5 0.000000 0.000000 0.000000 0.000000 0.074525 0.000000
# 6 0.000000 0.000000 0.000000 0.000000 0.000000 0.069678
#
#
# Mechanical properties :
#
#
# Convention : Reuss Voigt Hill
#
# Bulk Modulus (GPa) = 71.19477 76.23536 73.71507
# Shear Modulus (GPa) = 15.52045 17.45341 16.48693
#
# Velocity S-wave (km/s) = 3.04663 3.23078 3.14006
# Velocity P-wave (km/s) = 7.41308 7.71425 7.56516
#
# Compressibility (1/GPa) = 0.01404597
#
# Stress axis : x y z
#
# Youngs Moduli (GPa) = 43.72512 43.72512 93.84385
#
# Poissons Ratio (x) = 0.52334 0.43198
# Poissons Ratio (y) = 0.52334 0.43198
# Poissons Ratio (z) = 0.20127 0.20127
#
# Static dielectric constant tensor:
#      x y z
#    x 2.868680 0.000000 0.000000 
#    y 0.000000 2.868680 0.000000 
#    z 0.000000 0.000000 3.696950 
# 
# 
# High freq. dielectric constant tensor:
#      x y z
#    x 1.620140 0.000000 0.000000 
#    y 0.000000 1.620140 0.000000 
#    z 0.000000 0.000000 1.674730 
# 
# From -- ./inp_files/4524.got.cif
#   From: 2010.06.25/outbox.cif.g09.slc.cpg/sg176_3_cif.got.tgz:4524.got - 2010.06.28 12:15:01.
