data_PCOD8325838
_publ_section_title
;
Structure prediction by ZEFSAII (Michael W. Deem and Ramdas Pophale) SiO2 
 PCOD8325838
Probable space group: P 61 2 2
;
_chemical_formula_sum "Si O2"
_cell_formula_units_Z 48
_cell_length_a 14.098036
_cell_length_b 14.098036
_cell_length_c 14.157399
_cell_angle_alpha 90.000000
_cell_angle_beta 90.000000
_cell_angle_gamma 120.000000
_cell_volume 2436.864236
_symmetry_space_group_name_H-M "P 61 2 2"
_symmetry_group_IT_number 178
_symmetry_cell_setting 'hexagonal'
loop_
_space_group_symop_operation_xyz
x,y,z
x-y,x,1/6+z
-y,x-y,1/3+z
-x,-y,1/2+z
-x+y,-x,2/3+z
y,-x+y,5/6+z
x-y,-y,-z
-x,-x+y,2/3-z
y,x,1/3-z
-y,-x,5/6-z
-x+y,y,1/2-z
x,x-y,1/6-z
loop_
_atom_site_type_symbol
_atom_site_label
_atom_site_fract_x
_atom_site_fract_y
_atom_site_fract_z
Si Si1 0.354392 0.542328 0.183449
Si Si2 0.128739 0.727607 0.332941
Si Si3 0.062743 0.736281 0.957810
Si Si4 0.812552 0.198605 0.206634
O O1 0.296633 0.593265 0.250000
O O2 0.476936 0.627849 0.155452
O O3 0.349723 0.439988 0.239751
O O4 0.289947 0.502211 0.083751
O O5 0.185473 0.814528 0.416667
O O6 0.183519 0.787948 0.236185
O O7 0.000000 0.685580 0.333334
O O8 0.142752 0.857249 0.916667
O O9 0.938950 0.703540 0.940685
O O10 0.085186 0.738200 0.070433
#
# Coordination Sequence:
#
# PCOD8325838 Si02
#       4
#    12  12  12  12
#     4   9  21  38  61  91 117 149 197 244 296 368
#     4  12  26  40  59  86 125 162 202 246 302 366
#     4   9  17  35  62  86 112 146 198 246 289 353
#     4  10  20  36  59  82 116 153 192 244 300 346
#
# _framework density 19.697445999999999
#
# number of rings (size 3 to 8) (size 9 to 14) (size 15 to 20)
#    0.000    2.500    0.000    6.000    3.500    3.000 
#    0.000    7.500    0.000   15.000    0.000    0.000 
#    0.000    0.000    0.000    0.000    0.000    0.000 
#
# Total GULP energy -594974.947741 kJ/mol
# GULP energy per Si atom -12395.311411 kJ/mol
# Density = 1.965261 g / cm^3
# Si number density = 19.697446 Si / 1000 Ang^3
#
#
#
# Elastic Constant Matrix: (Units=GPa)
#
#
# Indices 1 2 3 4 5 6 
#
# 1 82.2418 56.3824 40.8285 0.0000 0.0000 0.0000
# 2 56.3824 82.2418 40.8285 0.0000 0.0000 0.0000
# 3 40.8285 40.8285 157.2155 0.0000 0.0000 0.0000
# 4 0.0000 0.0000 0.0000 26.2593 0.0000 0.0000
# 5 0.0000 0.0000 0.0000 0.0000 26.2593 0.0000
# 6 0.0000 0.0000 0.0000 0.0000 0.0000 12.9297
#
#
#
# Elastic Compliance Matrix: (Units=1/GPa)
#
#
# Indices 1 2 3 4 5 6 
#
# 1 0.023594 -0.015077 -0.002212 0.000000 0.000000 0.000000
# 2 -0.015077 0.023594 -0.002212 0.000000 0.000000 0.000000
# 3 -0.002212 -0.002212 0.007509 0.000000 0.000000 0.000000
# 4 0.000000 0.000000 0.000000 0.038082 0.000000 0.000000
# 5 0.000000 0.000000 0.000000 0.000000 0.038082 0.000000
# 6 0.000000 0.000000 0.000000 0.000000 0.000000 0.077341
#
#
# Mechanical properties :
#
#
# Convention : Reuss Voigt Hill
#
# Bulk Modulus (GPa) = 63.71183 66.41977 65.06580
# Shear Modulus (GPa) = 19.80710 25.33363 22.57037
#
# Velocity S-wave (km/s) = 3.17451 3.59017 3.38872
# Velocity P-wave (km/s) = 6.77142 7.13995 6.95813
#
# Compressibility (1/GPa) = 0.01569567
#
# Stress axis : x y z
#
# Youngs Moduli (GPa) = 42.38427 42.38427 133.16532
#
# Poissons Ratio (x) = 0.63903 0.29453
# Poissons Ratio (y) = 0.63903 0.29453
# Poissons Ratio (z) = 0.09374 0.09374
#
# Static dielectric constant tensor:
#      x y z
#    x 3.433600 0.000000 0.000000 
#    y 0.000000 3.433600 0.000000 
#    z 0.000000 0.000000 3.814200 
# 
# 
# High freq. dielectric constant tensor:
#      x y z
#    x 1.751310 0.000000 0.000000 
#    y 0.000000 1.751310 0.000000 
#    z 0.000000 0.000000 1.785100 
# 
# From -- ./inp_files/4084.got.cif
#   From: 2010.03.12/outbox.cif.g09.slc.cpg/sg178_3_cif.got.tgz:4084.got - 2010.04.02 07:02:38.
