data_PCOD8325900
_publ_section_title
;
Structure prediction by ZEFSAII (Michael W. Deem and Ramdas Pophale) SiO2 
 PCOD8325900
Probable space group: P 61 2 2
;
_chemical_formula_sum "Si O2"
_cell_formula_units_Z 78
_cell_length_a 18.222162
_cell_length_b 18.222162
_cell_length_c 12.567462
_cell_angle_alpha 90.000000
_cell_angle_beta 90.000000
_cell_angle_gamma 120.000000
_cell_volume 3613.915711
_symmetry_space_group_name_H-M "P 61 2 2"
_symmetry_group_IT_number 178
_symmetry_cell_setting 'hexagonal'
loop_
_space_group_symop_operation_xyz
x,y,z
x-y,x,1/6+z
-y,x-y,1/3+z
-x,-y,1/2+z
-x+y,-x,2/3+z
y,-x+y,5/6+z
x-y,-y,-z
-x,-x+y,2/3-z
y,x,1/3-z
-y,-x,5/6-z
-x+y,y,1/2-z
x,x-y,1/6-z
loop_
_atom_site_type_symbol
_atom_site_label
_atom_site_fract_x
_atom_site_fract_y
_atom_site_fract_z
Si Si1 0.016750 0.882865 0.510133
Si Si2 0.262192 0.734746 0.695068
Si Si3 0.565899 0.893499 0.915450
Si Si4 0.000000 0.508335 0.833334
Si Si5 0.076442 0.462351 0.523780
Si Si6 0.303921 0.607841 0.250000
Si Si7 0.276513 0.299350 0.852993
Si Si8 0.803874 0.607748 0.250000
O O1 0.940712 0.890031 0.450351
O O2 0.987279 0.786718 0.549762
O O3 0.088240 0.911761 0.416667
O O4 0.293648 0.835259 0.691212
O O5 0.175234 0.682279 0.630262
O O6 0.334129 0.732439 0.624200
O O7 0.251363 0.701405 0.815988
O O8 0.509783 0.938063 0.927446
O O9 0.665061 0.965346 0.910811
O O10 0.550146 0.832899 0.017789
O O11 0.056818 0.591413 0.765319
O O12 0.054190 0.527095 0.583334
O O13 0.019471 0.364389 0.561227
O O14 0.213383 0.334006 0.828640
#
# Coordination Sequence:
#
# PCOD8325900 Si02
#       8
#    12  12  12   6  12   6  12   6
#     4  10  22  40  70 111 148 176 220 286 359 432
#     4  11  24  42  65  94 130 180 231 289 340 405
#     4  12  24  38  67  98 135 180 231 289 346 401
#     4  12  26  44  66  96 142 182 236 286 348 416
#     4  12  24  44  65  95 138 181 230 287 348 405
#     4  10  24  42  64  90 130 179 245 286 338 398
#     4  12  23  39  67 105 143 179 226 290 351 416
#     4  12  20  38  62 100 134 169 217 280 348 398
#
# _framework density 21.583237
#
# number of rings (size 3 to 8) (size 9 to 14) (size 15 to 20)
#    0.000    0.615    6.154    1.846    2.154    4.923 
#    0.000    0.000    0.000    5.538   10.000    0.000 
#    0.000    0.000    0.000    0.000    0.000    0.000 
#
# Total GULP energy -966475.562831 kJ/mol
# GULP energy per Si atom -12390.712344 kJ/mol
# Density = 2.153411 g / cm^3
# Si number density = 21.583237 Si / 1000 Ang^3
#
#
#
# Elastic Constant Matrix: (Units=GPa)
#
#
# Indices 1 2 3 4 5 6 
#
# 1 101.6335 41.4236 44.1592 0.0000 0.0000 0.0000
# 2 41.4236 101.6335 44.1592 0.0000 0.0000 0.0000
# 3 44.1592 44.1592 88.4836 0.0000 0.0000 0.0000
# 4 0.0000 0.0000 0.0000 32.2945 0.0000 0.0000
# 5 0.0000 0.0000 0.0000 0.0000 32.2945 0.0000
# 6 0.0000 0.0000 0.0000 0.0000 0.0000 30.1049
#
#
#
# Elastic Compliance Matrix: (Units=1/GPa)
#
#
# Indices 1 2 3 4 5 6 
#
# 1 0.013356 -0.003253 -0.005042 0.000000 0.000000 0.000000
# 2 -0.003253 0.013356 -0.005042 0.000000 0.000000 0.000000
# 3 -0.005042 -0.005042 0.016334 0.000000 0.000000 0.000000
# 4 0.000000 0.000000 0.000000 0.030965 0.000000 0.000000
# 5 0.000000 0.000000 0.000000 0.000000 0.030965 0.000000
# 6 0.000000 0.000000 0.000000 0.000000 0.000000 0.033217
#
#
# Mechanical properties :
#
#
# Convention : Reuss Voigt Hill
#
# Bulk Modulus (GPa) = 61.08017 61.24826 61.16421
# Shear Modulus (GPa) = 29.35578 29.73934 29.54756
#
# Velocity S-wave (km/s) = 3.69198 3.71602 3.70402
# Velocity P-wave (km/s) = 6.82170 6.84478 6.83325
#
# Compressibility (1/GPa) = 0.01637193
#
# Stress axis : x y z
#
# Youngs Moduli (GPa) = 74.87388 74.87388 61.22126
#
# Poissons Ratio (x) = 0.24355 0.30868
# Poissons Ratio (y) = 0.24355 0.30868
# Poissons Ratio (z) = 0.37752 0.37752
#
# Static dielectric constant tensor:
#      x y z
#    x 3.971360 0.000000 0.000000 
#    y 0.000000 3.971360 0.000000 
#    z 0.000000 0.000000 3.871500 
# 
# 
# High freq. dielectric constant tensor:
#      x y z
#    x 1.847970 0.000000 0.000000 
#    y 0.000000 1.847970 0.000000 
#    z 0.000000 0.000000 1.817960 
# 
# From -- ./inp_files/6011.got.cif
#   From: 2010.03.12/outbox.cif.g09.slc.cpg/sg178_4_cif.got.tgz:6011.got - 2010.04.02 07:02:38.
