data_PCOD8325891
_publ_section_title
;
Structure prediction by ZEFSAII (Michael W. Deem and Ramdas Pophale) SiO2 
 PCOD8325891
Probable space group: P 61 2 2
;
_chemical_formula_sum "Si O2"
_cell_formula_units_Z 66
_cell_length_a 16.938892
_cell_length_b 16.938892
_cell_length_c 13.434803
_cell_angle_alpha 90.000000
_cell_angle_beta 90.000000
_cell_angle_gamma 120.000000
_cell_volume 3338.350501
_symmetry_space_group_name_H-M "P 61 2 2"
_symmetry_group_IT_number 178
_symmetry_cell_setting 'hexagonal'
loop_
_space_group_symop_operation_xyz
x,y,z
x-y,x,1/6+z
-y,x-y,1/3+z
-x,-y,1/2+z
-x+y,-x,2/3+z
y,-x+y,5/6+z
x-y,-y,-z
-x,-x+y,2/3-z
y,x,1/3-z
-y,-x,5/6-z
-x+y,y,1/2-z
x,x-y,1/6-z
loop_
_atom_site_type_symbol
_atom_site_label
_atom_site_fract_x
_atom_site_fract_y
_atom_site_fract_z
Si Si1 0.659974 0.489723 0.478483
Si Si2 0.496515 0.897791 0.526655
Si Si3 0.694613 0.668883 0.380340
Si Si4 0.682920 0.750796 0.575428
Si Si5 0.816780 0.633559 0.250000
Si Si6 0.310760 0.855719 0.592954
O O1 0.604036 0.395965 0.416667
O O2 0.629650 0.472422 0.591512
O O3 0.644388 0.566149 0.424211
O O4 0.766801 0.524967 0.487052
O O5 0.573701 0.890085 0.588745
O O6 0.407165 0.859157 0.594467
O O7 0.525458 0.000000 0.500000
O O8 0.723705 0.738580 0.472348
O O9 0.788563 0.692282 0.322209
O O10 0.627178 0.681612 0.307875
O O11 0.728334 0.728334 0.666667
O O12 0.709133 0.854567 0.583334
O O13 0.845163 0.570804 0.313325
#
# Coordination Sequence:
#
# PCOD8325891 Si02
#       6
#    12  12  12  12   6  12
#     4  11  22  38  61  88 128 174 219 270 316 372
#     4  11  20  39  59  88 126 168 221 259 311 379
#     4  11  22  39  65  91 129 164 224 262 324 378
#     4  11  24  42  66  97 128 166 209 260 316 382
#     4  10  22  38  60  94 124 166 214 278 316 372
#     4  11  23  38  61  91 127 175 215 269 323 379
#
# _framework density 19.770242
#
# number of rings (size 3 to 8) (size 9 to 14) (size 15 to 20)
#    0.000    1.091    3.636    6.000    2.545    0.727 
#    0.000    1.818    0.000    0.000    2.364    0.000 
#    0.000    0.000    0.000    0.000    0.000    0.000 
#
# Total GULP energy -818506.235574 kJ/mol
# GULP energy per Si atom -12401.609630 kJ/mol
# Density = 1.972524 g / cm^3
# Si number density = 19.770242 Si / 1000 Ang^3
#
#
#
# Elastic Constant Matrix: (Units=GPa)
#
#
# Indices 1 2 3 4 5 6 
#
# 1 96.5824 51.1607 37.9262 0.0000 0.0000 0.0000
# 2 51.1607 96.5824 37.9262 0.0000 0.0000 0.0000
# 3 37.9262 37.9262 108.2610 0.0000 0.0000 0.0000
# 4 0.0000 0.0000 0.0000 24.2731 0.0000 0.0000
# 5 0.0000 0.0000 0.0000 0.0000 24.2731 0.0000
# 6 0.0000 0.0000 0.0000 0.0000 0.0000 22.7109
#
#
#
# Elastic Compliance Matrix: (Units=1/GPa)
#
#
# Indices 1 2 3 4 5 6 
#
# 1 0.015134 -0.006882 -0.002891 0.000000 0.000000 0.000000
# 2 -0.006882 0.015134 -0.002891 0.000000 0.000000 0.000000
# 3 -0.002891 -0.002891 0.011263 0.000000 0.000000 0.000000
# 4 0.000000 0.000000 0.000000 0.041198 0.000000 0.000000
# 5 0.000000 0.000000 0.000000 0.000000 0.041198 0.000000
# 6 0.000000 0.000000 0.000000 0.000000 0.000000 0.044032
#
#
# Mechanical properties :
#
#
# Convention : Reuss Voigt Hill
#
# Bulk Modulus (GPa) = 61.71434 61.71687 61.71561
# Shear Modulus (GPa) = 25.16514 25.87896 25.52205
#
# Velocity S-wave (km/s) = 3.57161 3.62192 3.59685
# Velocity P-wave (km/s) = 6.94925 6.98397 6.96663
#
# Compressibility (1/GPa) = 0.01620369
#
# Stress axis : x y z
#
# Youngs Moduli (GPa) = 66.07480 66.07480 88.78944
#
# Poissons Ratio (x) = 0.45469 0.25670
# Poissons Ratio (y) = 0.45469 0.25670
# Poissons Ratio (z) = 0.19103 0.19103
#
# Static dielectric constant tensor:
#      x y z
#    x 3.572220 0.000000 0.000000 
#    y 0.000000 3.572220 0.000000 
#    z 0.000000 0.000000 3.747220 
# 
# 
# High freq. dielectric constant tensor:
#      x y z
#    x 1.757090 0.000000 0.000000 
#    y 0.000000 1.757090 0.000000 
#    z 0.000000 0.000000 1.787290 
# 
# From -- ./inp_files/5925.got.cif
#   From: 2010.03.12/outbox.cif.g09.slc.cpg/sg178_3_cif.got.tgz:5925.got - 2010.04.02 07:02:38.
