data_PCOD8325821
_publ_section_title
;
Structure prediction by ZEFSAII (Michael W. Deem and Ramdas Pophale) SiO2 
 PCOD8325821
Probable space group: P 61 2 2
;
_chemical_formula_sum "Si O2"
_cell_formula_units_Z 60
_cell_length_a 10.851333
_cell_length_b 10.851333
_cell_length_c 32.158172
_cell_angle_alpha 90.000000
_cell_angle_beta 90.000000
_cell_angle_gamma 120.000000
_cell_volume 3279.352997
_symmetry_space_group_name_H-M "P 61 2 2"
_symmetry_group_IT_number 178
_symmetry_cell_setting 'hexagonal'
loop_
_space_group_symop_operation_xyz
x,y,z
x-y,x,1/6+z
-y,x-y,1/3+z
-x,-y,1/2+z
-x+y,-x,2/3+z
y,-x+y,5/6+z
x-y,-y,-z
-x,-x+y,2/3-z
y,x,1/3-z
-y,-x,5/6-z
-x+y,y,1/2-z
x,x-y,1/6-z
loop_
_atom_site_type_symbol
_atom_site_label
_atom_site_fract_x
_atom_site_fract_y
_atom_site_fract_z
Si Si1 0.424375 0.836162 0.438492
Si Si2 0.103600 0.452806 0.118723
Si Si3 0.782027 0.151707 0.001525
Si Si4 0.549726 0.572591 0.302723
Si Si5 0.816645 0.263664 0.090725
O O1 0.299824 0.700177 0.416667
O O2 0.543094 0.797975 0.456129
O O3 0.360543 0.876562 0.477662
O O4 0.492053 0.962043 0.404220
O O5 0.130157 0.565079 0.083334
O O6 0.046944 0.487415 0.160868
O O7 0.975401 0.298238 0.104262
O O8 0.765071 0.172040 0.049620
O O9 0.921539 0.285040 0.982325
O O10 0.780353 0.000000 0.000000
O O11 0.530321 0.707053 0.293787
O O12 0.820792 0.410396 0.083334
#
# Coordination Sequence:
#
# PCOD8325821 Si02
#       5
#    12  12  12  12  12
#     4   9  20  34  54  80 113 147 184 239 290 334
#     4  10  20  33  53  81 112 144 190 236 283 339
#     4  11  20  36  54  84 113 147 193 235 291 347
#     4  11  21  35  57  84 117 151 190 242 294 339
#     4  11  21  35  57  85 115 151 191 241 290 346
#
# _framework density 18.296291
#
# number of rings (size 3 to 8) (size 9 to 14) (size 15 to 20)
#    0.000    1.600    6.000    1.200    5.600    0.000 
#    0.000    0.000    0.000    1.200    5.200    0.000 
#    0.000    0.000    0.000    0.000    0.000    0.000 
#
# Total GULP energy -743471.643543 kJ/mol
# GULP energy per Si atom -12391.194059 kJ/mol
# Density = 1.825465 g / cm^3
# Si number density = 18.296291 Si / 1000 Ang^3
#
#
#
# Elastic Constant Matrix: (Units=GPa)
#
#
# Indices 1 2 3 4 5 6 
#
# 1 75.1976 28.0388 21.2734 0.0000 0.0000 0.0000
# 2 28.0388 75.1976 21.2734 0.0000 0.0000 0.0000
# 3 21.2734 21.2734 81.8807 0.0000 0.0000 0.0000
# 4 0.0000 0.0000 0.0000 44.7335 0.0000 0.0000
# 5 0.0000 0.0000 0.0000 0.0000 44.7335 0.0000
# 6 0.0000 0.0000 0.0000 0.0000 0.0000 23.5794
#
#
#
# Elastic Compliance Matrix: (Units=1/GPa)
#
#
# Indices 1 2 3 4 5 6 
#
# 1 0.016027 -0.005178 -0.002818 0.000000 0.000000 0.000000
# 2 -0.005178 0.016027 -0.002818 0.000000 0.000000 0.000000
# 3 -0.002818 -0.002818 0.013677 0.000000 0.000000 0.000000
# 4 0.000000 0.000000 0.000000 0.022355 0.000000 0.000000
# 5 0.000000 0.000000 0.000000 0.000000 0.022355 0.000000
# 6 0.000000 0.000000 0.000000 0.000000 0.000000 0.042410
#
#
# Mechanical properties :
#
#
# Convention : Reuss Voigt Hill
#
# Bulk Modulus (GPa) = 41.49412 41.49413 41.49413
# Shear Modulus (GPa) = 30.76668 33.38862 32.07765
#
# Velocity S-wave (km/s) = 4.10516 4.27650 4.19170
# Velocity P-wave (km/s) = 6.72294 6.86388 6.79378
#
# Compressibility (1/GPa) = 0.02409980
#
# Stress axis : x y z
#
# Youngs Moduli (GPa) = 62.39662 62.39662 73.11330
#
# Poissons Ratio (x) = 0.32312 0.20607
# Poissons Ratio (y) = 0.32312 0.20607
# Poissons Ratio (z) = 0.17586 0.17586
#
# Static dielectric constant tensor:
#      x y z
#    x 3.630140 0.000000 0.000000 
#    y 0.000000 3.630140 0.000000 
#    z 0.000000 0.000000 3.495000 
# 
# 
# High freq. dielectric constant tensor:
#      x y z
#    x 1.688530 0.000000 0.000000 
#    y 0.000000 1.688530 0.000000 
#    z 0.000000 0.000000 1.727980 
# 
# From -- ./inp_files/9416.got.cif
#   From: 2010.03.12/outbox.cif.g09.slc.cpg/sg178_5_cif.got.tgz:9416.got - 2010.04.02 07:02:38.
