data_PCOD8325307
_publ_section_title
;
Structure prediction by ZEFSAII (Michael W. Deem and Ramdas Pophale) SiO2 
 PCOD8325307
Probable space group: P 6/M
;
_chemical_formula_sum "Si O2"
_cell_formula_units_Z 58
_cell_length_a 16.323551
_cell_length_b 16.323551
_cell_length_c 12.513849
_cell_angle_alpha 90.000000
_cell_angle_beta 90.000000
_cell_angle_gamma 120.000000
_cell_volume 2887.691688
_symmetry_space_group_name_H-M "P 6/M"
_symmetry_group_IT_number 175
_symmetry_cell_setting 'hexagonal'
loop_
_space_group_symop_operation_xyz
x,y,z
x-y,x,z
-y,x-y,z
-x,-y,z
-x+y,-x,z
y,-x+y,z
-x,-y,-z
-x+y,-x,-z
y,-x+y,-z
x,y,-z
x-y,x,-z
-y,x-y,-z
loop_
_atom_site_type_symbol
_atom_site_label
_atom_site_fract_x
_atom_site_fract_y
_atom_site_fract_z
Si Si1 0.691949 0.496539 0.726525
Si Si2 0.202669 0.173958 0.878996
Si Si3 0.501321 0.635632 0.376199
Si Si4 0.183354 0.205804 0.500000
Si Si5 0.698555 0.682803 0.705861
Si Si6 0.666668 0.333334 0.872864
O O1 0.592720 0.453437 0.666689
O O2 0.766993 0.497604 0.643686
O O3 0.721089 0.604033 0.754569
O O4 0.685741 0.435439 0.831281
O O5 0.177697 0.068711 0.854232
O O6 0.284281 0.243234 0.799392
O O7 0.238279 0.204110 0.000000
O O8 0.510972 0.623225 0.500000
O O9 0.588802 0.635935 0.319757
O O10 0.183828 0.107826 0.500000
O O11 0.235819 0.266944 0.603900
O O12 0.666667 0.333334 0.000000
#
# Coordination Sequence:
#
# PCOD8325307 Si02
#       6
#    12  12  12   6  12   4
#     4  10  23  39  61  92 124 158 211 258 305 381
#     4  10  21  39  62  86 115 155 205 260 314 372
#     4  11  22  38  61  89 122 166 205 254 310 372
#     4  12  25  40  59  86 128 176 216 260 313 388
#     4  12  24  38  60  92 128 162 208 261 321 372
#     4   9  21  45  70  92 121 168 213 261 325 386
#
# _framework density 20.085248
#
# number of rings (size 3 to 8) (size 9 to 14) (size 15 to 20)
#    0.000    1.241    1.034    5.690    2.897    2.483 
#    0.000    8.276    0.000    6.207    0.000    0.000 
#    0.000    0.000    0.000    0.000    0.000    0.000 
#
# Total GULP energy -719394.555068 kJ/mol
# GULP energy per Si atom -12403.354398 kJ/mol
# Density = 2.003953 g / cm^3
# Si number density = 20.085248 Si / 1000 Ang^3
#
#
#
# Elastic Constant Matrix: (Units=GPa)
#
#
# Indices 1 2 3 4 5 6 
#
# 1 104.9593 5.5321 28.4334 0.0000 0.0000 0.0001
# 2 5.5321 104.9634 28.4351 0.0000 0.0000 -0.0006
# 3 28.4334 28.4351 108.4228 0.0000 0.0000 0.0006
# 4 0.0000 0.0000 0.0000 24.1519 -0.0001 0.0000
# 5 0.0000 0.0000 0.0000 -0.0001 24.1520 0.0000
# 6 0.0001 -0.0006 0.0006 0.0000 0.0000 49.7160
#
#
#
# Elastic Compliance Matrix: (Units=1/GPa)
#
#
# Indices 1 2 3 4 5 6 
#
# 1 0.010260 0.000203 -0.002744 0.000000 0.000000 0.000000
# 2 0.000203 0.010260 -0.002744 0.000000 0.000000 0.000000
# 3 -0.002744 -0.002744 0.010662 0.000000 0.000000 0.000000
# 4 0.000000 0.000000 0.000000 0.041405 0.000000 0.000000
# 5 0.000000 0.000000 0.000000 0.000000 0.041405 0.000000
# 6 0.000000 0.000000 0.000000 0.000000 0.000000 0.020114
#
#
# Mechanical properties :
#
#
# Convention : Reuss Voigt Hill
#
# Bulk Modulus (GPa) = 48.51543 49.23852 48.87697
# Shear Modulus (GPa) = 32.99319 36.66697 34.83008
#
# Velocity S-wave (km/s) = 4.05737 4.27730 4.16879
# Velocity P-wave (km/s) = 6.79388 6.99727 6.89632
#
# Compressibility (1/GPa) = 0.02061200
#
# Stress axis : x y z
#
# Youngs Moduli (GPa) = 97.46482 97.46792 93.78835
#
# Poissons Ratio (x) = -0.01974 0.25734
# Poissons Ratio (y) = -0.01974 0.25734
# Poissons Ratio (z) = 0.26742 0.26744
#
# Static dielectric constant tensor:
#      x y z
#    x 3.950330 0.000010 0.000000 
#    y 0.000010 3.950300 0.000000 
#    z 0.000000 0.000000 3.613100 
# 
# 
# High freq. dielectric constant tensor:
#      x y z
#    x 1.799400 0.000000 0.000000 
#    y 0.000000 1.799400 0.000000 
#    z 0.000000 0.000000 1.771400 
# 
# From -- ./inp_files/2422.got.cif
#   From: 2010.03.12/outbox.cif.g09.slc.cpg/sg175_2_cif.got.tgz:2422.got - 2010.04.02 06:55:29.
