data_PCOD8325135
_publ_section_title
;
Structure prediction by ZEFSAII (Michael W. Deem and Ramdas Pophale) SiO2 
 PCOD8325135
Probable space group: P 6/M
;
_chemical_formula_sum "Si O2"
_cell_formula_units_Z 72
_cell_length_a 22.966793
_cell_length_b 22.966793
_cell_length_c 8.905496
_cell_angle_alpha 90.000000
_cell_angle_beta 90.000000
_cell_angle_gamma 120.000000
_cell_volume 4068.079738
_symmetry_space_group_name_H-M "P 6/M"
_symmetry_group_IT_number 175
_symmetry_cell_setting 'hexagonal'
loop_
_space_group_symop_operation_xyz
x,y,z
x-y,x,z
-y,x-y,z
-x,-y,z
-x+y,-x,z
y,-x+y,z
-x,-y,-z
-x+y,-x,-z
y,-x+y,-z
x,y,-z
x-y,x,-z
-y,x-y,-z
loop_
_atom_site_type_symbol
_atom_site_label
_atom_site_fract_x
_atom_site_fract_y
_atom_site_fract_z
Si Si1 0.392012 0.263305 0.677054
Si Si2 0.988320 0.864340 0.821202
Si Si3 0.249312 0.383550 0.825133
Si Si4 0.734415 0.743149 0.825190
Si Si5 0.080895 0.477616 0.822364
Si Si6 0.469192 0.071164 0.177298
O O1 0.394108 0.263287 0.500000
O O2 0.387108 0.195178 0.733789
O O3 0.330440 0.271917 0.731682
O O4 0.459760 0.327581 0.739519
O O5 0.925971 0.869398 0.755634
O O6 0.981084 0.794735 0.766908
O O7 0.990679 0.867950 0.000000
O O8 0.243829 0.312088 0.796097
O O9 0.322205 0.441737 0.764395
O O10 0.239374 0.393069 0.000000
O O11 0.718014 0.745393 0.000000
O O12 0.101114 0.553993 0.777508
O O13 0.004956 0.428078 0.763066
O O14 0.086629 0.470783 0.000000
O O15 0.461368 0.065205 0.000000
#
# Coordination Sequence:
#
# PCOD8325135 Si02
#       6
#    12  12  12  12  12  12
#     4  12  24  34  48  77 115 149 176 210 264 325
#     4   9  16  26  43  68  94 121 159 212 270 320
#     4  10  19  34  56  80 106 140 181 223 266 310
#     4  10  19  34  54  73  97 135 182 229 272 316
#     4   9  16  33  58  82 105 131 170 219 265 313
#     4   8  15  30  58  86 103 126 169 224 269 304
#
# _framework density 17.698768000000001
#
# number of rings (size 3 to 8) (size 9 to 14) (size 15 to 20)
#    0.000    2.333    1.667    3.667    0.000    4.000 
#    0.000    2.500    0.000    0.667    0.000    2.333 
#    0.000    2.667    0.000    0.000    0.000    0.000 
#
# Total GULP energy -892623.035317 kJ/mol
# GULP energy per Si atom -12397.542157 kJ/mol
# Density = 1.765849 g / cm^3
# Si number density = 17.698768 Si / 1000 Ang^3
#
#
#
# Elastic Constant Matrix: (Units=GPa)
#
#
# Indices 1 2 3 4 5 6 
#
# 1 86.9642 33.5736 34.0878 0.0000 0.0000 0.0000
# 2 33.5736 86.9642 34.0878 0.0000 0.0000 0.0000
# 3 34.0878 34.0878 63.7389 0.0000 0.0000 0.0000
# 4 0.0000 0.0000 0.0000 7.7530 0.0000 0.0000
# 5 0.0000 0.0000 0.0000 0.0000 7.7530 0.0000
# 6 0.0000 0.0000 0.0000 0.0000 0.0000 26.6953
#
#
#
# Elastic Compliance Matrix: (Units=1/GPa)
#
#
# Indices 1 2 3 4 5 6 
#
# 1 0.015312 -0.003418 -0.006361 0.000000 0.000000 0.000000
# 2 -0.003418 0.015312 -0.006361 0.000000 0.000000 0.000000
# 3 -0.006361 -0.006361 0.022493 0.000000 0.000000 0.000000
# 4 0.000000 0.000000 0.000000 0.128982 0.000000 0.000000
# 5 0.000000 0.000000 0.000000 0.000000 0.128982 0.000000
# 6 0.000000 0.000000 0.000000 0.000000 0.000000 0.037460
#
#
# Mechanical properties :
#
#
# Convention : Reuss Voigt Hill
#
# Bulk Modulus (GPa) = 47.99191 49.01839 48.50515
# Shear Modulus (GPa) = 12.89443 17.50148 15.19795
#
# Velocity S-wave (km/s) = 2.70209 3.14801 2.93354
# Velocity P-wave (km/s) = 6.07535 6.40073 6.24016
#
# Compressibility (1/GPa) = 0.02083685
#
# Stress axis : x y z
#
# Youngs Moduli (GPa) = 65.30885 65.30885 44.45901
#
# Poissons Ratio (x) = 0.22323 0.28280
# Poissons Ratio (y) = 0.22323 0.28280
# Poissons Ratio (z) = 0.41542 0.41542
#
# Static dielectric constant tensor:
#      x y z
#    x 3.509820 0.000000 0.000000 
#    y 0.000000 3.509820 0.000000 
#    z 0.000000 0.000000 2.868080 
# 
# 
# High freq. dielectric constant tensor:
#      x y z
#    x 1.685450 0.000000 0.000000 
#    y 0.000000 1.685450 0.000000 
#    z 0.000000 0.000000 1.638680 
# 
# From -- ./inp_files/1152.got.cif
#   From: 2010.03.12/outbox.cif.g09.slc.cpg/sg175_1_cif.got.tgz:1152.got - 2010.04.02 06:55:29.
