data_PCOD8325523
_publ_section_title
;
Structure prediction by ZEFSAII (Michael W. Deem and Ramdas Pophale) SiO2 
 PCOD8325523
Probable space group: P 63/M
;
_chemical_formula_sum "Si O2"
_cell_formula_units_Z 78
_cell_length_a 23.784201
_cell_length_b 23.784201
_cell_length_c 8.001719
_cell_angle_alpha 90.000000
_cell_angle_beta 90.000000
_cell_angle_gamma 120.000000
_cell_volume 3920.045073
_symmetry_space_group_name_H-M "P 63/M"
_symmetry_group_IT_number 176
_symmetry_cell_setting 'hexagonal'
loop_
_space_group_symop_operation_xyz
x,y,z
x-y,x,1/2+z
-y,x-y,z
-x,-y,1/2+z
-x+y,-x,z
y,-x+y,1/2+z
-x,-y,-z
-x+y,-x,1/2-z
y,-x+y,-z
x,y,1/2-z
x-y,x,-z
-y,x-y,1/2-z
loop_
_atom_site_type_symbol
_atom_site_label
_atom_site_fract_x
_atom_site_fract_y
_atom_site_fract_z
Si Si1 0.505115 0.744879 0.059738
Si Si2 0.054622 0.254799 0.559830
Si Si3 0.435245 0.437039 0.555016
Si Si4 0.702805 0.094399 0.558016
Si Si5 0.086101 0.811915 0.556612
Si Si6 0.691034 0.277176 0.250000
Si Si7 0.299150 0.413947 0.550137
O O1 0.477669 0.723970 0.250000
O O2 0.567835 0.738273 0.029940
O O3 0.452662 0.700950 0.921658
O O4 0.529216 0.819880 0.030719
O O5 0.045661 0.231822 0.750000
O O6 0.065039 0.326890 0.550799
O O7 0.117322 0.254471 0.477468
O O8 0.987733 0.204310 0.468596
O O9 0.500000 0.500000 0.500000
O O10 0.431021 0.440935 0.750000
O O11 0.436059 0.372050 0.500285
O O12 0.369532 0.430999 0.481067
O O13 0.705672 0.075298 0.750000
O O14 0.103030 0.817516 0.750000
O O15 0.097541 0.754937 0.482105
O O16 0.739179 0.355396 0.250000
O O17 0.295923 0.416774 0.750000
#
# Coordination Sequence:
#
# PCOD8325523 Si02
#       7
#    12  12  12  12  12   6  12
#     4  11  23  40  69  95 119 165 211 260 321 384
#     4  11  22  35  61  94 123 165 210 256 314 381
#     4  10  22  39  56  83 123 163 198 247 312 371
#     4  10  21  38  59  88 124 159 202 254 311 368
#     4  10  21  38  60  88 128 167 203 262 317 375
#     4  10  26  48  66  88 120 158 214 272 330 374
#     4  10  19  37  61  86 125 165 202 251 317 374
#
# _framework density 19.897729000000002
#
# number of rings (size 3 to 8) (size 9 to 14) (size 15 to 20)
#    0.154    1.538    3.846    0.462    1.077    4.923 
#    0.000    1.538    0.000    0.308    0.000    0.000 
#    0.000    0.000    0.000    0.000    0.000    0.000 
#
# Total GULP energy -966925.137391 kJ/mol
# GULP energy per Si atom -12396.476120 kJ/mol
# Density = 1.985244 g / cm^3
# Si number density = 19.897729 Si / 1000 Ang^3
#
#
#
# Elastic Constant Matrix: (Units=GPa)
#
#
# Indices 1 2 3 4 5 6 
#
# 1 102.8730 29.1672 12.0312 0.0000 0.0000 0.0000
# 2 29.1672 102.8730 12.0312 0.0000 0.0000 0.0000
# 3 12.0312 12.0312 55.9726 0.0000 0.0000 0.0000
# 4 0.0000 0.0000 0.0000 25.1858 0.0000 0.0000
# 5 0.0000 0.0000 0.0000 0.0000 25.1858 0.0000
# 6 0.0000 0.0000 0.0000 0.0000 0.0000 36.8529
#
#
#
# Elastic Compliance Matrix: (Units=1/GPa)
#
#
# Indices 1 2 3 4 5 6 
#
# 1 0.010725 -0.002843 -0.001694 0.000000 0.000000 0.000000
# 2 -0.002843 0.010725 -0.001694 0.000000 0.000000 0.000000
# 3 -0.001694 -0.001694 0.018594 0.000000 0.000000 0.000000
# 4 0.000000 0.000000 0.000000 0.039705 0.000000 0.000000
# 5 0.000000 0.000000 0.000000 0.000000 0.039705 0.000000
# 6 0.000000 0.000000 0.000000 0.000000 0.000000 0.027135
#
#
# Mechanical properties :
#
#
# Convention : Reuss Voigt Hill
#
# Bulk Modulus (GPa) = 36.25606 40.90865 38.58236
# Shear Modulus (GPa) = 29.71863 31.34419 30.53141
#
# Velocity S-wave (km/s) = 3.86886 3.97327 3.92141
# Velocity P-wave (km/s) = 6.18209 6.45393 6.31947
#
# Compressibility (1/GPa) = 0.02758159
#
# Stress axis : x y z
#
# Youngs Moduli (GPa) = 93.24162 93.24162 53.78012
#
# Poissons Ratio (x) = 0.26505 0.09112
# Poissons Ratio (y) = 0.26505 0.09112
# Poissons Ratio (z) = 0.15798 0.15798
#
# Static dielectric constant tensor:
#      x y z
#    x 3.521140 0.000000 0.000000 
#    y 0.000000 3.521140 0.000000 
#    z 0.000000 0.000000 3.486340 
# 
# 
# High freq. dielectric constant tensor:
#      x y z
#    x 1.771390 0.000000 0.000000 
#    y 0.000000 1.771390 0.000000 
#    z 0.000000 0.000000 1.764810 
# 
# From -- ./inp_files/1278.got.cif
#   From: 2010.06.25/outbox.cif.g09.slc.cpg/sg176_1_cif.got.tgz:1278.got - 2010.06.28 12:15:01.
