data_PCOD8325874
_publ_section_title
;
Structure prediction by ZEFSAII (Michael W. Deem and Ramdas Pophale) SiO2 
 PCOD8325874
Probable space group: P 61 2 2
;
_chemical_formula_sum "Si O2"
_cell_formula_units_Z 60
_cell_length_a 12.514621
_cell_length_b 12.514621
_cell_length_c 23.388257
_cell_angle_alpha 90.000000
_cell_angle_beta 90.000000
_cell_angle_gamma 120.000000
_cell_volume 3172.224336
_symmetry_space_group_name_H-M "P 61 2 2"
_symmetry_group_IT_number 178
_symmetry_cell_setting 'hexagonal'
loop_
_space_group_symop_operation_xyz
x,y,z
x-y,x,1/6+z
-y,x-y,1/3+z
-x,-y,1/2+z
-x+y,-x,2/3+z
y,-x+y,5/6+z
x-y,-y,-z
-x,-x+y,2/3-z
y,x,1/3-z
-y,-x,5/6-z
-x+y,y,1/2-z
x,x-y,1/6-z
loop_
_atom_site_type_symbol
_atom_site_label
_atom_site_fract_x
_atom_site_fract_y
_atom_site_fract_z
Si Si1 0.835839 0.149417 0.649084
Si Si2 0.658656 0.385076 0.165432
Si Si3 0.590139 0.117188 0.603361
Si Si4 0.148129 0.634532 0.217551
Si Si5 0.868890 0.953998 0.716876
O O1 0.694125 0.101109 0.635555
O O2 0.887898 0.280651 0.679867
O O3 0.894722 0.147829 0.588566
O O4 0.868785 0.071725 0.692019
O O5 0.551927 0.380815 0.205717
O O6 0.792218 0.441497 0.194550
O O7 0.689707 0.476100 0.111597
O O8 0.603722 0.240665 0.150518
O O9 0.482301 0.979336 0.600740
O O10 0.859240 0.859240 0.666667
O O11 0.997681 0.995361 0.750000
#
# Coordination Sequence:
#
# PCOD8325874 Si02
#       5
#    12  12  12  12  12
#     4  10  22  37  63  90 112 164 200 237 307 361
#     4   9  21  40  54  89 126 143 205 255 285 355
#     4  10  21  38  59  85 118 160 194 249 295 354
#     4  10  21  38  60  86 118 160 193 247 300 353
#     4   9  20  41  58  87 125 146 195 257 291 354
#
# _framework density 18.914173000000002
#
# number of rings (size 3 to 8) (size 9 to 14) (size 15 to 20)
#    0.000    2.400    0.000    0.600    5.600    1.600 
#   10.800    2.000    0.000    0.000    0.000    0.000 
#    0.000    0.000    0.000    0.000    0.000    0.000 
#
# Total GULP energy -743408.497925 kJ/mol
# GULP energy per Si atom -12390.141632 kJ/mol
# Density = 1.887112 g / cm^3
# Si number density = 18.914173 Si / 1000 Ang^3
#
#
#
# Elastic Constant Matrix: (Units=GPa)
#
#
# Indices 1 2 3 4 5 6 
#
# 1 69.7946 30.6801 34.5475 0.0000 0.0000 0.0000
# 2 30.6801 69.7946 34.5475 0.0000 0.0000 0.0000
# 3 34.5475 34.5475 111.6936 0.0000 0.0000 0.0000
# 4 0.0000 0.0000 0.0000 24.0905 0.0000 0.0000
# 5 0.0000 0.0000 0.0000 0.0000 24.0905 0.0000
# 6 0.0000 0.0000 0.0000 0.0000 0.0000 19.5573
#
#
#
# Elastic Compliance Matrix: (Units=1/GPa)
#
#
# Indices 1 2 3 4 5 6 
#
# 1 0.019104 -0.006462 -0.003910 0.000000 0.000000 0.000000
# 2 -0.006462 0.019104 -0.003910 0.000000 0.000000 0.000000
# 3 -0.003910 -0.003910 0.011372 0.000000 0.000000 0.000000
# 4 0.000000 0.000000 0.000000 0.041510 0.000000 0.000000
# 5 0.000000 0.000000 0.000000 0.000000 0.041510 0.000000
# 6 0.000000 0.000000 0.000000 0.000000 0.000000 0.051132
#
#
# Mechanical properties :
#
#
# Convention : Reuss Voigt Hill
#
# Bulk Modulus (GPa) = 47.58566 50.09255 48.83911
# Shear Modulus (GPa) = 22.79964 23.64815 23.22390
#
# Velocity S-wave (km/s) = 3.47569 3.53978 3.50788
# Velocity P-wave (km/s) = 6.42811 6.57635 6.50265
#
# Compressibility (1/GPa) = 0.02101473
#
# Stress axis : x y z
#
# Youngs Moduli (GPa) = 52.34549 52.34549 87.93573
#
# Poissons Ratio (x) = 0.33826 0.34384
# Poissons Ratio (y) = 0.33826 0.34384
# Poissons Ratio (z) = 0.20468 0.20468
#
# Static dielectric constant tensor:
#      x y z
#    x 3.574850 0.000000 0.000000 
#    y 0.000000 3.574850 0.000000 
#    z 0.000000 0.000000 2.890460 
# 
# 
# High freq. dielectric constant tensor:
#      x y z
#    x 1.728050 0.000000 0.000000 
#    y 0.000000 1.728050 0.000000 
#    z 0.000000 0.000000 1.756950 
# 
# From -- ./inp_files/8763.got.cif
#   From: 2010.03.12/outbox.cif.g09.slc.cpg/sg178_5_cif.got.tgz:8763.got - 2010.04.02 07:02:38.
