data_PCOD8325463
_publ_section_title
;
Structure prediction by ZEFSAII (Michael W. Deem and Ramdas Pophale) SiO2 
 PCOD8325463
Probable space group: P 63/M
;
_chemical_formula_sum "Si O2"
_cell_formula_units_Z 72
_cell_length_a 23.137345
_cell_length_b 23.137345
_cell_length_c 9.063693
_cell_angle_alpha 90.000000
_cell_angle_beta 90.000000
_cell_angle_gamma 120.000000
_cell_volume 4202.065942
_symmetry_space_group_name_H-M "P 63/M"
_symmetry_group_IT_number 176
_symmetry_cell_setting 'hexagonal'
loop_
_space_group_symop_operation_xyz
x,y,z
x-y,x,1/2+z
-y,x-y,z
-x,-y,1/2+z
-x+y,-x,z
y,-x+y,1/2+z
-x,-y,-z
-x+y,-x,1/2-z
y,-x+y,-z
x,y,1/2-z
x-y,x,-z
-y,x-y,1/2-z
loop_
_atom_site_type_symbol
_atom_site_label
_atom_site_fract_x
_atom_site_fract_y
_atom_site_fract_z
Si Si1 0.510390 0.593837 0.083071
Si Si2 0.378950 0.289103 0.077237
Si Si3 0.597611 0.522183 0.416442
Si Si4 0.144502 0.297756 0.419533
Si Si5 0.142899 0.079556 0.925137
Si Si6 0.702890 0.639966 0.919542
O O1 0.496670 0.606352 0.250000
O O2 0.553441 0.557417 0.075868
O O3 0.549851 0.664844 0.000796
O O4 0.439449 0.547638 0.004097
O O5 0.392033 0.291814 0.250000
O O6 0.328309 0.314658 0.033820
O O7 0.346278 0.213978 0.022304
O O8 0.608554 0.506653 0.250000
O O9 0.669705 0.571408 0.487678
O O10 0.134956 0.311529 0.250000
O O11 0.095404 0.220955 0.460243
O O12 0.219343 0.314918 0.452535
O O13 0.129416 0.067134 0.750000
O O14 0.106082 0.116378 0.990791
O O15 0.687536 0.618393 0.750000
#
# Coordination Sequence:
#
# PCOD8325463 Si02
#       6
#    12  12  12  12  12  12
#     4   9  16  27  44  66  94 125 153 182 221 269
#     4  10  19  31  48  69  95 126 161 201 243 289
#     4   9  16  26  43  68  94 120 152 186 220 263
#     4  10  21  35  50  69  96 129 164 203 253 313
#     4  11  23  39  57  75  95 123 165 219 276 331
#     4   9  18  32  47  65  93 127 159 194 240 293
#
# _framework density 17.134429000000001
#
# number of rings (size 3 to 8) (size 9 to 14) (size 15 to 20)
#    0.000    2.333    0.000    3.167    0.000    8.000 
#    0.000    0.000    0.000    0.000    0.000    0.000 
#    1.667    0.000    3.000    0.000    3.000    0.000 
#
# Total GULP energy -892885.102582 kJ/mol
# GULP energy per Si atom -12401.181980 kJ/mol
# Density = 1.709543 g / cm^3
# Si number density = 17.134429 Si / 1000 Ang^3
#
#
#
# Elastic Constant Matrix: (Units=GPa)
#
#
# Indices 1 2 3 4 5 6 
#
# 1 50.3581 4.8378 21.6928 0.0000 0.0000 0.0000
# 2 4.8378 50.3581 21.6928 0.0000 0.0000 0.0000
# 3 21.6928 21.6928 85.6364 0.0000 0.0000 0.0000
# 4 0.0000 0.0000 0.0000 25.5527 0.0000 0.0000
# 5 0.0000 0.0000 0.0000 0.0000 25.5527 0.0000
# 6 0.0000 0.0000 0.0000 0.0000 0.0000 22.7602
#
#
#
# Elastic Compliance Matrix: (Units=1/GPa)
#
#
# Indices 1 2 3 4 5 6 
#
# 1 0.022295 0.000327 -0.005730 0.000000 0.000000 0.000000
# 2 0.000327 0.022295 -0.005730 0.000000 0.000000 0.000000
# 3 -0.005730 -0.005730 0.014580 0.000000 0.000000 0.000000
# 4 0.000000 0.000000 0.000000 0.039135 0.000000 0.000000
# 5 0.000000 0.000000 0.000000 0.000000 0.039135 0.000000
# 6 0.000000 0.000000 0.000000 0.000000 0.000000 0.043936
#
#
# Mechanical properties :
#
#
# Convention : Reuss Voigt Hill
#
# Bulk Modulus (GPa) = 27.09869 31.42215 29.26042
# Shear Modulus (GPa) = 23.15407 23.98174 23.56791
#
# Velocity S-wave (km/s) = 3.68002 3.74521 3.71276
# Velocity P-wave (km/s) = 5.82292 6.08938 5.95764
#
# Compressibility (1/GPa) = 0.03690215
#
# Stress axis : x y z
#
# Youngs Moduli (GPa) = 44.85337 44.85337 68.58523
#
# Poissons Ratio (x) = -0.01465 0.39302
# Poissons Ratio (y) = -0.01465 0.39302
# Poissons Ratio (z) = 0.25702 0.25702
#
# Static dielectric constant tensor:
#      x y z
#    x 3.075330 0.000000 0.000000 
#    y 0.000000 3.075330 0.000000 
#    z 0.000000 0.000000 3.377830 
# 
# 
# High freq. dielectric constant tensor:
#      x y z
#    x 1.640160 0.000000 0.000000 
#    y 0.000000 1.640160 0.000000 
#    z 0.000000 0.000000 1.675680 
# 
# From -- ./inp_files/1205.got.cif
#   From: 2010.06.25/outbox.cif.g09.slc.cpg/sg176_1_cif.got.tgz:1205.got - 2010.06.28 12:15:01.
