data_PCOD8325433
_publ_section_title
;
Structure prediction by ZEFSAII (Michael W. Deem and Ramdas Pophale) SiO2 
 PCOD8325433
Probable space group: P 63/M
;
_chemical_formula_sum "Si O2"
_cell_formula_units_Z 60
_cell_length_a 17.343776
_cell_length_b 17.343776
_cell_length_c 11.673445
_cell_angle_alpha 90.000000
_cell_angle_beta 90.000000
_cell_angle_gamma 120.000000
_cell_volume 3041.003954
_symmetry_space_group_name_H-M "P 63/M"
_symmetry_group_IT_number 176
_symmetry_cell_setting 'hexagonal'
loop_
_space_group_symop_operation_xyz
x,y,z
x-y,x,1/2+z
-y,x-y,z
-x,-y,1/2+z
-x+y,-x,z
y,-x+y,1/2+z
-x,-y,-z
-x+y,-x,1/2-z
y,-x+y,-z
x,y,1/2-z
x-y,x,-z
-y,x-y,1/2-z
loop_
_atom_site_type_symbol
_atom_site_label
_atom_site_fract_x
_atom_site_fract_y
_atom_site_fract_z
Si Si1 0.818701 0.907931 0.541032
Si Si2 0.926016 0.387739 0.382315
Si Si3 0.374942 0.196286 0.117609
Si Si4 0.120155 0.490347 0.023194
Si Si5 0.231238 0.572144 0.250000
Si Si6 0.999403 0.901778 0.750000
O O1 0.875119 0.856554 0.562006
O O2 0.713943 0.839892 0.541055
O O3 0.840954 0.984392 0.639251
O O4 0.936545 0.419460 0.250000
O O5 0.871537 0.282466 0.391770
O O6 0.874616 0.426930 0.454558
O O7 0.020896 0.419552 0.439481
O O8 0.356093 0.209234 0.250000
O O9 0.446475 0.289431 0.065039
O O10 0.179457 0.522394 0.136487
O O11 0.326536 0.575336 0.250000
O O12 0.912647 0.911161 0.750000
#
# Coordination Sequence:
#
# PCOD8325433 Si02
#       6
#    12  12  12  12   6   6
#     4  12  21  36  59  86 123 165 206 254 308 363
#     4  10  22  41  65  90 122 168 204 252 321 375
#     4  11  24  39  60  92 123 158 211 263 305 376
#     4  11  21  42  65  89 127 164 203 256 320 382
#     4  10  22  38  66  99 126 155 206 266 312 372
#     4  10  18  34  54  83 114 163 214 246 296 362
#
# _framework density 19.730326999999999
#
# number of rings (size 3 to 8) (size 9 to 14) (size 15 to 20)
#    0.400    0.800    4.000    3.200    0.000    0.000 
#    1.200    1.000    0.000    0.000    0.000    0.000 
#    0.000    0.000    0.000    0.000    0.000    0.000 
#
# Total GULP energy -743468.697946 kJ/mol
# GULP energy per Si atom -12391.144966 kJ/mol
# Density = 1.968542 g / cm^3
# Si number density = 19.730327 Si / 1000 Ang^3
#
#
#
# Elastic Constant Matrix: (Units=GPa)
#
#
# Indices 1 2 3 4 5 6 
#
# 1 84.8662 33.0080 29.7929 0.0000 0.0000 0.0000
# 2 33.0080 84.8662 29.7929 0.0000 0.0000 0.0000
# 3 29.7929 29.7929 90.6877 0.0000 0.0000 0.0000
# 4 0.0000 0.0000 0.0000 24.8257 0.0000 0.0000
# 5 0.0000 0.0000 0.0000 0.0000 24.8257 0.0000
# 6 0.0000 0.0000 0.0000 0.0000 0.0000 25.9291
#
#
#
# Elastic Compliance Matrix: (Units=1/GPa)
#
#
# Indices 1 2 3 4 5 6 
#
# 1 0.014728 -0.004555 -0.003342 0.000000 0.000000 0.000000
# 2 -0.004555 0.014728 -0.003342 0.000000 0.000000 0.000000
# 3 -0.003342 -0.003342 0.013223 0.000000 0.000000 0.000000
# 4 0.000000 0.000000 0.000000 0.040281 0.000000 0.000000
# 5 0.000000 0.000000 0.000000 0.000000 0.040281 0.000000
# 6 0.000000 0.000000 0.000000 0.000000 0.000000 0.038567
#
#
# Mechanical properties :
#
#
# Convention : Reuss Voigt Hill
#
# Bulk Modulus (GPa) = 49.50358 49.51197 49.50777
# Shear Modulus (GPa) = 26.17534 26.30454 26.23994
#
# Velocity S-wave (km/s) = 3.64628 3.65527 3.65078
# Velocity P-wave (km/s) = 6.54765 6.55465 6.55115
#
# Compressibility (1/GPa) = 0.02020056
#
# Stress axis : x y z
#
# Youngs Moduli (GPa) = 67.89700 67.89700 75.62730
#
# Poissons Ratio (x) = 0.30928 0.25275
# Poissons Ratio (y) = 0.30928 0.25275
# Poissons Ratio (z) = 0.22692 0.22692
#
# Static dielectric constant tensor:
#      x y z
#    x 3.429750 0.000000 0.000000 
#    y 0.000000 3.429750 0.000000 
#    z 0.000000 0.000000 3.803520 
# 
# 
# High freq. dielectric constant tensor:
#      x y z
#    x 1.761450 0.000000 0.000000 
#    y 0.000000 1.761450 0.000000 
#    z 0.000000 0.000000 1.789730 
# 
# From -- ./inp_files/1898.got.cif
#   From: 2010.06.25/outbox.cif.g09.slc.cpg/sg176_1_cif.got.tgz:1898.got - 2010.06.28 12:15:01.
