data_PCOD8325801
_publ_section_title
;
Structure prediction by ZEFSAII (Michael W. Deem and Ramdas Pophale) SiO2 
 PCOD8325801
Probable space group: P 61 2 2
;
_chemical_formula_sum "Si O2"
_cell_formula_units_Z 54
_cell_length_a 24.837887
_cell_length_b 24.837887
_cell_length_c 4.918248
_cell_angle_alpha 90.000000
_cell_angle_beta 90.000000
_cell_angle_gamma 120.000000
_cell_volume 2627.667137
_symmetry_space_group_name_H-M "P 61 2 2"
_symmetry_group_IT_number 178
_symmetry_cell_setting 'hexagonal'
loop_
_space_group_symop_operation_xyz
x,y,z
x-y,x,1/6+z
-y,x-y,1/3+z
-x,-y,1/2+z
-x+y,-x,2/3+z
y,-x+y,5/6+z
x-y,-y,-z
-x,-x+y,2/3-z
y,x,1/3-z
-y,-x,5/6-z
-x+y,y,1/2-z
x,x-y,1/6-z
loop_
_atom_site_type_symbol
_atom_site_label
_atom_site_fract_x
_atom_site_fract_y
_atom_site_fract_z
Si Si1 0.671381 0.742296 0.168123
Si Si2 0.813290 0.070851 0.504328
Si Si3 0.623246 0.489392 0.758876
Si Si4 0.703249 0.170159 0.919244
Si Si5 0.535618 0.535618 0.666667
O O1 0.685442 0.685442 0.166667
O O2 0.684276 0.769458 0.473081
O O3 0.603167 0.718151 0.046684
O O4 0.716981 0.799720 0.976725
O O5 0.884757 0.115244 0.416667
O O6 0.798633 0.000000 0.500000
O O7 0.647983 0.485936 0.455929
O O8 0.599660 0.539814 0.756714
O O9 0.572962 0.427039 0.916667
O O10 0.683820 0.516747 0.937746
O O11 0.762829 0.237172 0.916667
O O12 0.512603 0.487397 0.416667
#
# Coordination Sequence:
#
# PCOD8325801 Si02
#       5
#    12  12  12  12   6
#     4  10  22  36  57  85 120 158 195 240 297 363
#     4  10  19  34  53  78 112 155 202 248 295 355
#     4  11  24  41  64  89 123 157 199 250 300 365
#     4  12  24  39  63  91 125 161 200 248 304 357
#     4  10  20  38  62  92 118 152 194 246 310 366
#
# _framework density 20.550550000000001
#
# number of rings (size 3 to 8) (size 9 to 14) (size 15 to 20)
#    0.000    1.333    0.000    7.333    3.111    0.000 
#    0.000    0.000    0.000    6.667    0.000    4.667 
#    0.000    0.000    0.000    0.000    0.000    0.000 
#
# Total GULP energy -669114.441668 kJ/mol
# GULP energy per Si atom -12391.008179 kJ/mol
# Density = 2.050378 g / cm^3
# Si number density = 20.550550 Si / 1000 Ang^3
#
#
#
# Elastic Constant Matrix: (Units=GPa)
#
#
# Indices 1 2 3 4 5 6 
#
# 1 53.3377 81.2953 19.4938 0.0000 0.0000 0.0000
# 2 81.2953 53.3377 19.4938 0.0000 0.0000 0.0000
# 3 19.4938 19.4938 96.3633 0.0000 0.0000 0.0000
# 4 0.0000 0.0000 0.0000 31.9890 0.0000 0.0000
# 5 0.0000 0.0000 0.0000 0.0000 31.9890 0.0000
# 6 0.0000 0.0000 0.0000 0.0000 0.0000 -13.9788
#
#
#
# Elastic Compliance Matrix: (Units=1/GPa)
#
#
# Indices 1 2 3 4 5 6 
#
# 1 -0.013939 0.021829 -0.001596 0.000000 0.000000 0.000000
# 2 0.021829 -0.013939 -0.001596 0.000000 0.000000 0.000000
# 3 -0.001596 -0.001596 0.011023 0.000000 0.000000 0.000000
# 4 0.000000 0.000000 0.000000 0.031261 0.000000 0.000000
# 5 0.000000 0.000000 0.000000 0.000000 0.031261 0.000000
# 6 0.000000 0.000000 0.000000 0.000000 0.000000 -0.071537
#
#
# Mechanical properties :
#
#
# Convention : Reuss Voigt Hill
#
# Bulk Modulus (GPa) = 48.97524 49.28938 49.13231
# Shear Modulus (GPa) = -88.74875 15.51689 -36.61593
#
# Velocity S-wave (km/s) = -6.57870 2.75082 -4.22566
# Velocity P-wave (km/s) = 5.81571 5.84173 0.38948
#
# Compressibility (1/GPa) = 0.02041848
#
# Stress axis : x y z
#
# Youngs Moduli (GPa) = -71.73938 -71.73938 90.71818
#
# Poissons Ratio (x) = 1.56601 0.14479
# Poissons Ratio (y) = 1.56601 0.14479
# Poissons Ratio (z) = -0.11450 -0.11450
#
# Static dielectric constant tensor:
#      x y z
#    x 3.558820 0.000000 0.000000 
#    y 0.000000 3.558820 0.000000 
#    z 0.000000 0.000000 4.068950 
# 
# 
# High freq. dielectric constant tensor:
#      x y z
#    x 1.782620 0.000000 0.000000 
#    y 0.000000 1.782620 0.000000 
#    z 0.000000 0.000000 1.834110 
# 
# From -- ./inp_files/1173.got.cif
#   From: 2010.03.12/outbox.cif.g09.slc.cpg/sg178_1_cif.got.tgz:1173.got - 2010.04.02 07:02:38.
