data_PCOD8325990
_publ_section_title
;
Structure prediction by ZEFSAII (Michael W. Deem and Ramdas Pophale) SiO2 
 PCOD8325990
Probable space group: P 61 2 2
;
_chemical_formula_sum "Si O2"
_cell_formula_units_Z 60
_cell_length_a 11.931469
_cell_length_b 11.931469
_cell_length_c 29.559528
_cell_angle_alpha 90.000000
_cell_angle_beta 90.000000
_cell_angle_gamma 120.000000
_cell_volume 3644.315441
_symmetry_space_group_name_H-M "P 61 2 2"
_symmetry_group_IT_number 178
_symmetry_cell_setting 'hexagonal'
loop_
_space_group_symop_operation_xyz
x,y,z
x-y,x,1/6+z
-y,x-y,1/3+z
-x,-y,1/2+z
-x+y,-x,2/3+z
y,-x+y,5/6+z
x-y,-y,-z
-x,-x+y,2/3-z
y,x,1/3-z
-y,-x,5/6-z
-x+y,y,1/2-z
x,x-y,1/6-z
loop_
_atom_site_type_symbol
_atom_site_label
_atom_site_fract_x
_atom_site_fract_y
_atom_site_fract_z
Si Si1 0.585865 0.471547 0.865590
Si Si2 0.969594 0.849793 0.199733
Si Si3 0.912569 0.663956 0.047950
Si Si4 0.323285 0.625043 0.967291
Si Si5 0.701740 0.604137 0.350583
O O1 0.578494 0.421507 0.916667
O O2 0.670255 0.626648 0.864459
O O3 0.660621 0.421757 0.833536
O O4 0.443029 0.421273 0.845882
O O5 0.927315 0.927315 0.166667
O O6 0.932473 0.864945 0.250000
O O7 0.900950 0.697275 0.188229
O O8 0.123295 0.908865 0.193553
O O9 0.792257 0.528946 0.031893
O O10 0.910845 0.672957 0.101955
O O11 0.324157 0.675844 0.916667
O O12 0.468485 0.698458 0.986574
#
# Coordination Sequence:
#
# PCOD8325990 Si02
#       5
#    12  12  12  12  12
#     4   9  17  31  56  75 100 131 171 215 245 309
#     4  12  22  33  53  74 105 137 171 213 254 307
#     4   9  18  34  51  77 100 133 177 204 254 307
#     4   9  17  31  56  77 103 132 167 216 259 304
#     4   9  18  33  51  78 100 131 170 209 259 299
#
# _framework density 16.463998
#
# number of rings (size 3 to 8) (size 9 to 14) (size 15 to 20)
#    0.000    2.400    4.000    2.400    0.000    0.800 
#    0.000    1.000    0.000    1.200    0.000    0.000 
#    0.000    0.000    0.000    0.000    0.000    0.000 
#
# Total GULP energy -743886.685162 kJ/mol
# GULP energy per Si atom -12398.111419 kJ/mol
# Density = 1.642652 g / cm^3
# Si number density = 16.463998 Si / 1000 Ang^3
#
#
#
# Elastic Constant Matrix: (Units=GPa)
#
#
# Indices 1 2 3 4 5 6 
#
# 1 94.7168 48.4928 53.9534 0.0000 0.0000 0.0000
# 2 48.4928 94.7168 53.9534 0.0000 0.0000 0.0000
# 3 53.9534 53.9534 94.8648 0.0000 0.0000 0.0000
# 4 0.0000 0.0000 0.0000 23.8633 0.0000 0.0000
# 5 0.0000 0.0000 0.0000 0.0000 23.8633 0.0000
# 6 0.0000 0.0000 0.0000 0.0000 0.0000 23.1120
#
#
#
# Elastic Compliance Matrix: (Units=1/GPa)
#
#
# Indices 1 2 3 4 5 6 
#
# 1 0.016926 -0.004707 -0.006950 0.000000 0.000000 0.000000
# 2 -0.004707 0.016926 -0.006950 0.000000 0.000000 0.000000
# 3 -0.006950 -0.006950 0.018446 0.000000 0.000000 0.000000
# 4 0.000000 0.000000 0.000000 0.041905 0.000000 0.000000
# 5 0.000000 0.000000 0.000000 0.000000 0.041905 0.000000
# 6 0.000000 0.000000 0.000000 0.000000 0.000000 0.043268
#
#
# Mechanical properties :
#
#
# Convention : Reuss Voigt Hill
#
# Bulk Modulus (GPa) = 66.28447 66.34415 66.31431
# Shear Modulus (GPa) = 22.56122 22.69428 22.62775
#
# Velocity S-wave (km/s) = 3.70582 3.71673 3.71128
# Velocity P-wave (km/s) = 7.65888 7.66830 7.66359
#
# Compressibility (1/GPa) = 0.01508649
#
# Stress axis : x y z
#
# Youngs Moduli (GPa) = 59.07902 59.07902 54.21158
#
# Poissons Ratio (x) = 0.27810 0.37674
# Poissons Ratio (y) = 0.27810 0.37674
# Poissons Ratio (z) = 0.41057 0.41057
#
# Static dielectric constant tensor:
#      x y z
#    x 3.008040 0.000000 0.000000 
#    y 0.000000 3.008040 0.000000 
#    z 0.000000 0.000000 3.020880 
# 
# 
# High freq. dielectric constant tensor:
#      x y z
#    x 1.623720 0.000000 0.000000 
#    y 0.000000 1.623720 0.000000 
#    z 0.000000 0.000000 1.628150 
# 
# From -- ./inp_files/8755.got.cif
#   From: 2010.03.12/outbox.cif.g09.slc.cpg/sg178_5_cif.got.tgz:8755.got - 2010.04.02 07:02:38.
