data_PCOD8325303
_publ_section_title
;
Structure prediction by ZEFSAII (Michael W. Deem and Ramdas Pophale) SiO2 
 PCOD8325303
Probable space group: P 6/M
;
_chemical_formula_sum "Si O2"
_cell_formula_units_Z 54
_cell_length_a 11.285624
_cell_length_b 11.285624
_cell_length_c 22.964785
_cell_angle_alpha 90.000000
_cell_angle_beta 90.000000
_cell_angle_gamma 120.000000
_cell_volume 2533.052373
_symmetry_space_group_name_H-M "P 6/M"
_symmetry_group_IT_number 175
_symmetry_cell_setting 'hexagonal'
loop_
_space_group_symop_operation_xyz
x,y,z
x-y,x,z
-y,x-y,z
-x,-y,z
-x+y,-x,z
y,-x+y,z
-x,-y,-z
-x+y,-x,-z
y,-x+y,-z
x,y,-z
x-y,x,-z
-y,x-y,-z
loop_
_atom_site_type_symbol
_atom_site_label
_atom_site_fract_x
_atom_site_fract_y
_atom_site_fract_z
Si Si1 0.697972 0.498429 0.109879
Si Si2 0.204680 0.313241 0.566304
Si Si3 0.903949 0.218291 0.000000
Si Si4 0.785784 0.685306 0.780976
Si Si5 0.204231 0.703820 0.328095
O O1 0.547824 0.361453 0.106943
O O2 0.707139 0.572053 0.170162
O O3 0.713920 0.594794 0.056546
O O4 0.244517 0.199203 0.580048
O O5 0.239522 0.365707 0.500000
O O6 0.289544 0.442961 0.607499
O O7 0.056994 0.248601 0.000000
O O8 0.751966 0.805180 0.788272
O O9 0.733003 0.615316 0.718638
O O10 0.184702 0.551707 0.320796
#
# Coordination Sequence:
#
# PCOD8325303 Si02
#       5
#    12  12   6  12  12
#     4  10  24  44  64 100 122 164 210 253 308 359
#     4  10  21  38  62  90 121 158 200 250 304 362
#     4  12  25  42  66  94 131 170 208 258 308 362
#     4  12  25  42  66  93 125 161 201 253 307 367
#     4  10  24  42  59  90 121 160 205 250 305 360
#
# _framework density 21.318152000000001
#
# number of rings (size 3 to 8) (size 9 to 14) (size 15 to 20)
#    0.889    0.444    0.000    5.222    0.000   11.556 
#    0.000    6.667    0.000    0.000    0.000    0.000 
#    0.000    0.000    0.000    0.000    0.000    0.000 
#
# Total GULP energy -669719.552455 kJ/mol
# GULP energy per Si atom -12402.213934 kJ/mol
# Density = 2.126963 g / cm^3
# Si number density = 21.318152 Si / 1000 Ang^3
#
#
#
# Elastic Constant Matrix: (Units=GPa)
#
#
# Indices 1 2 3 4 5 6 
#
# 1 90.2032 -46.4469 20.5700 0.0000 0.0000 0.0000
# 2 -46.4469 90.2032 20.5700 0.0000 0.0000 0.0000
# 3 20.5700 20.5700 115.7614 0.0000 0.0000 0.0000
# 4 0.0000 0.0000 0.0000 -22.6477 0.0000 0.0000
# 5 0.0000 0.0000 0.0000 0.0000 -22.6477 0.0000
# 6 0.0000 0.0000 0.0000 0.0000 0.0000 68.3251
#
#
#
# Elastic Compliance Matrix: (Units=1/GPa)
#
#
# Indices 1 2 3 4 5 6 
#
# 1 0.017378 0.010060 -0.004876 0.000000 0.000000 0.000000
# 2 0.010060 0.017378 -0.004876 0.000000 0.000000 0.000000
# 3 -0.004876 -0.004876 0.010371 0.000000 0.000000 0.000000
# 4 0.000000 0.000000 0.000000 -0.044155 0.000000 0.000000
# 5 0.000000 0.000000 0.000000 0.000000 -0.044155 0.000000
# 6 0.000000 0.000000 0.000000 0.000000 0.000000 0.014636
#
#
# Mechanical properties :
#
#
# Convention : Reuss Voigt Hill
#
# Bulk Modulus (GPa) = 21.86039 31.72822 26.79431
# Shear Modulus (GPa) = -359.30410 24.70425 -167.29993
#
# Velocity S-wave (km/s) = -12.99652 3.40786 -8.86837
# Velocity P-wave (km/s) = 14.66070 5.51364 9.60562
#
# Compressibility (1/GPa) = 0.04574483
#
# Stress axis : x y z
#
# Youngs Moduli (GPa) = 57.54426 57.54426 96.42129
#
# Poissons Ratio (x) = -0.57889 0.47010
# Poissons Ratio (y) = -0.57889 0.47010
# Poissons Ratio (z) = 0.28056 0.28056
#
# Static dielectric constant tensor:
#      x y z
#    x 3.819270 0.000000 0.000000 
#    y 0.000000 3.819270 0.000000 
#    z 0.000000 0.000000 4.291430 
# 
# 
# High freq. dielectric constant tensor:
#      x y z
#    x 1.839580 0.000000 0.000000 
#    y 0.000000 1.839580 0.000000 
#    z 0.000000 0.000000 1.847670 
# 
# From -- ./inp_files/3064.got.cif
#   From: 2010.03.12/outbox.cif.g09.slc.cpg/sg175_2_cif.got.tgz:3064.got - 2010.04.02 06:55:29.
