data_PCOD8325021
_publ_section_title
;
Structure prediction by ZEFSAII (Michael W. Deem and Ramdas Pophale) SiO2 
 PCOD8325021
Probable space group: P 6/M
;
_chemical_formula_sum "Si O2"
_cell_formula_units_Z 72
_cell_length_a 22.102581
_cell_length_b 22.102581
_cell_length_c 10.300535
_cell_angle_alpha 90.000000
_cell_angle_beta 90.000000
_cell_angle_gamma 120.000000
_cell_volume 4357.891321
_symmetry_space_group_name_H-M "P 6/M"
_symmetry_group_IT_number 175
_symmetry_cell_setting 'hexagonal'
loop_
_space_group_symop_operation_xyz
x,y,z
x-y,x,z
-y,x-y,z
-x,-y,z
-x+y,-x,z
y,-x+y,z
-x,-y,-z
-x+y,-x,-z
y,-x+y,-z
x,y,-z
x-y,x,-z
-y,x-y,-z
loop_
_atom_site_type_symbol
_atom_site_label
_atom_site_fract_x
_atom_site_fract_y
_atom_site_fract_z
Si Si1 0.471717 0.666306 0.846959
Si Si2 0.289906 0.074548 0.000000
Si Si3 0.381798 0.120193 0.758607
Si Si4 0.528283 0.194589 0.153041
Si Si5 0.921417 0.700277 0.500000
Si Si6 0.381798 0.261605 0.758607
Si Si7 0.925452 0.710094 0.000000
Si Si8 0.700277 0.921417 0.500000
O O1 0.456995 0.728497 0.808856
O O2 0.405862 0.594138 0.801232
O O3 0.539758 0.672757 0.773288
O O4 0.484956 0.667540 0.000000
O O5 0.332695 0.074138 0.874819
O O6 0.269887 0.134943 0.000000
O O7 0.217809 0.000000 0.000000
O O8 0.460242 0.132999 0.773288
O O9 0.390997 0.195498 0.773625
O O10 0.347253 0.085362 0.622612
O O11 0.515044 0.182584 0.000000
O O12 0.914638 0.652747 0.622612
O O13 0.861795 0.723589 0.500000
O O14 0.000000 0.768557 0.500000
O O15 0.332695 0.258557 0.874819
#
# Coordination Sequence:
#
# PCOD8325021 Si02
#       8
#    12   6  12  12   6  12   6   6
#     4   9  15  25  44  70  98 126 161 204 247 282
#     4  10  18  30  49  70  91 115 147 187 227 271
#     4   9  17  30  47  69  95 124 156 192 232 273
#     4   9  15  25  44  70  98 126 161 204 247 282
#     4  10  20  34  53  74  95 121 153 189 231 279
#     4   9  17  30  47  69  95 124 156 192 232 273
#     4  10  18  30  49  70  91 115 147 187 227 271
#     4  10  20  34  53  74  95 121 153 189 231 279
#
# _framework density 16.521751999999999
#
# number of rings (size 3 to 8) (size 9 to 14) (size 15 to 20)
#    0.000    2.667    1.667    1.333    0.000    1.333 
#    0.000    0.833    0.000    6.333    0.000    2.333 
#    0.000    8.000    0.000    0.000    0.000    1.333 
#
# Total GULP energy -892240.914999 kJ/mol
# GULP energy per Si atom -12392.234931 kJ/mol
# Density = 1.648415 g / cm^3
# Si number density = 16.521752 Si / 1000 Ang^3
#
#
#
# Elastic Constant Matrix: (Units=GPa)
#
#
# Indices 1 2 3 4 5 6 
#
# 1 104.3018 64.1924 37.3508 0.0000 0.0000 0.0000
# 2 64.1924 104.3018 37.3508 0.0000 0.0000 0.0000
# 3 37.3508 37.3508 106.3723 0.0000 0.0000 0.0000
# 4 0.0000 0.0000 0.0000 62.3044 0.0000 0.0000
# 5 0.0000 0.0000 0.0000 0.0000 62.3044 0.0000
# 6 0.0000 0.0000 0.0000 0.0000 0.0000 20.0547
#
#
#
# Elastic Compliance Matrix: (Units=1/GPa)
#
#
# Indices 1 2 3 4 5 6 
#
# 1 0.015981 -0.008951 -0.002468 0.000000 0.000000 0.000000
# 2 -0.008951 0.015981 -0.002468 0.000000 0.000000 0.000000
# 3 -0.002468 -0.002468 0.011134 0.000000 0.000000 0.000000
# 4 0.000000 0.000000 0.000000 0.016050 0.000000 0.000000
# 5 0.000000 0.000000 0.000000 0.000000 0.016050 0.000000
# 6 0.000000 0.000000 0.000000 0.000000 0.000000 0.049864
#
#
# Mechanical properties :
#
#
# Convention : Reuss Voigt Hill
#
# Bulk Modulus (GPa) = 65.27448 65.86264 65.56856
# Shear Modulus (GPa) = 31.65732 40.67148 36.16440
#
# Velocity S-wave (km/s) = 4.38208 4.96693 4.68364
# Velocity P-wave (km/s) = 8.07449 8.53490 8.30789
#
# Compressibility (1/GPa) = 0.01531992
#
# Stress axis : x y z
#
# Youngs Moduli (GPa) = 62.57626 62.57626 89.81295
#
# Poissons Ratio (x) = 0.56014 0.22167
# Poissons Ratio (y) = 0.56014 0.22167
# Poissons Ratio (z) = 0.15445 0.15445
#
# Static dielectric constant tensor:
#      x y z
#    x 3.063780 0.000000 0.000000 
#    y 0.000000 3.063780 0.000000 
#    z 0.000000 0.000000 3.182530 
# 
# 
# High freq. dielectric constant tensor:
#      x y z
#    x 1.621020 0.000000 0.000000 
#    y 0.000000 1.621020 0.000000 
#    z 0.000000 0.000000 1.629970 
# 
# From -- ./inp_files/1973.got.cif
#   From: 2010.03.12/outbox.cif.g09.slc.cpg/sg175_1_cif.got.tgz:1973.got - 2010.04.02 06:55:29.
