data_PCOD8325048
_publ_section_title
;
Structure prediction by ZEFSAII (Michael W. Deem and Ramdas Pophale) SiO2 
 PCOD8325048
Probable space group: P 6/M
;
_chemical_formula_sum "Si O2"
_cell_formula_units_Z 72
_cell_length_a 22.681687
_cell_length_b 22.681687
_cell_length_c 8.781291
_cell_angle_alpha 90.000000
_cell_angle_beta 90.000000
_cell_angle_gamma 120.000000
_cell_volume 3912.368081
_symmetry_space_group_name_H-M "P 6/M"
_symmetry_group_IT_number 175
_symmetry_cell_setting 'hexagonal'
loop_
_space_group_symop_operation_xyz
x,y,z
x-y,x,z
-y,x-y,z
-x,-y,z
-x+y,-x,z
y,-x+y,z
-x,-y,-z
-x+y,-x,-z
y,-x+y,-z
x,y,-z
x-y,x,-z
-y,x-y,-z
loop_
_atom_site_type_symbol
_atom_site_label
_atom_site_fract_x
_atom_site_fract_y
_atom_site_fract_z
Si Si1 0.499474 0.363388 0.823867
Si Si2 0.992487 0.380038 0.823092
Si Si3 0.638492 0.491284 0.180089
Si Si4 0.993291 0.743980 0.180889
Si Si5 0.152925 0.294120 0.180687
Si Si6 0.441911 0.220889 0.322048
O O1 0.454927 0.399508 0.794715
O O2 0.576717 0.416767 0.778582
O O3 0.470243 0.299249 0.714559
O O4 0.493306 0.340194 0.000000
O O5 0.005603 0.321850 0.750962
O O6 0.925710 0.377135 0.752979
O O7 0.979093 0.363640 0.000000
O O8 0.705540 0.500852 0.261742
O O9 0.649829 0.498190 0.000000
O O10 0.925013 0.742460 0.242739
O O11 0.062048 0.812507 0.233122
O O12 0.989135 0.739874 0.000000
O O13 0.197404 0.370223 0.242060
O O14 0.154534 0.300565 0.000000
O O15 0.431346 0.208402 0.500000
#
# Coordination Sequence:
#
# PCOD8325048 Si02
#       6
#    12  12  12  12  12  12
#     4  10  20  36  58  80 103 134 176 221 264 318
#     4   9  15  28  55  88 107 126 163 221 276 311
#     4  10  20  36  58  80 103 134 176 221 264 318
#     4   9  16  27  54  83 109 138 176 226 271 313
#     4  10  18  34  56  81 108 142 184 224 265 319
#     4  12  24  36  52  76 109 145 177 221 271 318
#
# _framework density 18.403176999999999
#
# number of rings (size 3 to 8) (size 9 to 14) (size 15 to 20)
#    0.000    2.000    3.333    2.000    0.000    2.667 
#    1.000    3.333    0.000    2.333    0.000    2.333 
#    0.000    0.000    0.000    1.500    0.000    1.667 
#
# Total GULP energy -892632.759622 kJ/mol
# GULP energy per Si atom -12397.677217 kJ/mol
# Density = 1.836129 g / cm^3
# Si number density = 18.403177 Si / 1000 Ang^3
#
#
#
# Elastic Constant Matrix: (Units=GPa)
#
#
# Indices 1 2 3 4 5 6 
#
# 1 85.2188 24.0513 18.3401 0.0000 0.0000 0.0000
# 2 24.0513 85.2188 18.3401 0.0000 0.0000 0.0000
# 3 18.3401 18.3401 28.8205 0.0000 0.0000 0.0000
# 4 0.0000 0.0000 0.0000 4.6722 0.0000 0.0000
# 5 0.0000 0.0000 0.0000 0.0000 4.6722 0.0000
# 6 0.0000 0.0000 0.0000 0.0000 0.0000 30.5838
#
#
#
# Elastic Compliance Matrix: (Units=1/GPa)
#
#
# Indices 1 2 3 4 5 6 
#
# 1 0.013993 -0.002355 -0.007406 0.000000 0.000000 0.000000
# 2 -0.002355 0.013993 -0.007406 0.000000 0.000000 0.000000
# 3 -0.007406 -0.007406 0.044123 0.000000 0.000000 0.000000
# 4 0.000000 0.000000 0.000000 0.214033 0.000000 0.000000
# 5 0.000000 0.000000 0.000000 0.000000 0.214033 0.000000
# 6 0.000000 0.000000 0.000000 0.000000 0.000000 0.032697
#
#
# Mechanical properties :
#
#
# Convention : Reuss Voigt Hill
#
# Bulk Modulus (GPa) = 26.47229 35.63567 31.05398
# Shear Modulus (GPa) = 8.62369 17.22073 12.92221
#
# Velocity S-wave (km/s) = 2.16706 3.06232 2.65273
# Velocity P-wave (km/s) = 4.54724 5.64886 5.12772
#
# Compressibility (1/GPa) = 0.03777535
#
# Stress axis : x y z
#
# Youngs Moduli (GPa) = 71.46397 71.46397 22.66405
#
# Poissons Ratio (x) = 0.16833 0.16784
# Poissons Ratio (y) = 0.16833 0.16784
# Poissons Ratio (z) = 0.52924 0.52924
#
# Static dielectric constant tensor:
#      x y z
#    x 3.571510 0.000000 0.000000 
#    y 0.000000 3.571510 0.000000 
#    z 0.000000 0.000000 2.939290 
# 
# 
# High freq. dielectric constant tensor:
#      x y z
#    x 1.714780 0.000000 0.000000 
#    y 0.000000 1.714780 0.000000 
#    z 0.000000 0.000000 1.664770 
# 
# From -- ./inp_files/1235.got.cif
#   From: 2010.03.12/outbox.cif.g09.slc.cpg/sg175_1_cif.got.tgz:1235.got - 2010.04.02 06:55:29.
