data_PCOD8325957
_publ_section_title
;
Structure prediction by ZEFSAII (Michael W. Deem and Ramdas Pophale) SiO2 
 PCOD8325957
Probable space group: P 61 2 2
;
_chemical_formula_sum "Si O2"
_cell_formula_units_Z 84
_cell_length_a 18.013360
_cell_length_b 18.013360
_cell_length_c 14.532393
_cell_angle_alpha 90.000000
_cell_angle_beta 90.000000
_cell_angle_gamma 120.000000
_cell_volume 4083.731902
_symmetry_space_group_name_H-M "P 61 2 2"
_symmetry_group_IT_number 178
_symmetry_cell_setting 'hexagonal'
loop_
_space_group_symop_operation_xyz
x,y,z
x-y,x,1/6+z
-y,x-y,1/3+z
-x,-y,1/2+z
-x+y,-x,2/3+z
y,-x+y,5/6+z
x-y,-y,-z
-x,-x+y,2/3-z
y,x,1/3-z
-y,-x,5/6-z
-x+y,y,1/2-z
x,x-y,1/6-z
loop_
_atom_site_type_symbol
_atom_site_label
_atom_site_fract_x
_atom_site_fract_y
_atom_site_fract_z
Si Si1 0.179909 0.848510 0.814622
Si Si2 0.973774 0.395120 0.931518
Si Si3 0.449589 0.154244 0.341794
Si Si4 0.042317 0.299207 0.491033
Si Si5 0.784107 0.152683 0.822360
Si Si6 0.913551 0.406379 0.174568
Si Si7 0.317561 0.716643 0.156470
O O1 0.235064 0.827825 0.745346
O O2 0.084168 0.798113 0.769282
O O3 0.216548 0.949622 0.828048
O O4 0.184573 0.815428 0.916667
O O5 0.953772 0.472532 0.914972
O O6 0.000000 0.372484 0.833334
O O7 0.891645 0.316107 0.981386
O O8 0.055830 0.423575 0.996123
O O9 0.427948 0.184186 0.439400
O O10 0.551415 0.213983 0.327998
O O11 0.093866 0.296607 0.581704
O O12 0.041034 0.389395 0.490578
O O13 0.836637 0.163364 0.916667
O O14 0.814373 0.343653 0.197662
O O15 0.928986 0.464493 0.083334
O O16 0.354007 0.708014 0.250000
O O17 0.353782 0.676891 0.083334
#
# Coordination Sequence:
#
# PCOD8325957 Si02
#       7
#    12  12  12  12  12  12  12
#     4  11  23  41  68  92 128 167 215 269 328 396
#     4  12  24  36  64  95 120 169 223 270 329 389
#     4  11  23  42  59  92 125 169 218 265 330 382
#     4  11  23  44  66  97 131 168 216 275 334 397
#     4  11  20  38  65  90 127 161 205 270 323 391
#     4  11  21  42  60  87 125 175 217 273 324 374
#     4  11  25  42  61  84 125 174 220 270 330 377
#
# _framework density 20.569421999999999
#
# number of rings (size 3 to 8) (size 9 to 14) (size 15 to 20)
#    0.000    0.857    7.143    1.286    2.000    4.571 
#    0.000    0.000    0.000    0.000    0.000    5.000 
#    0.000    0.000    0.000    0.000    0.000    0.000 
#
# Total GULP energy -1040797.789365 kJ/mol
# GULP energy per Si atom -12390.449873 kJ/mol
# Density = 2.052260 g / cm^3
# Si number density = 20.569422 Si / 1000 Ang^3
#
#
#
# Elastic Constant Matrix: (Units=GPa)
#
#
# Indices 1 2 3 4 5 6 
#
# 1 89.6473 35.0401 30.8315 0.0000 0.0000 0.0000
# 2 35.0401 89.6473 30.8315 0.0000 0.0000 0.0000
# 3 30.8315 30.8315 119.5149 0.0000 0.0000 0.0000
# 4 0.0000 0.0000 0.0000 34.6416 0.0000 0.0000
# 5 0.0000 0.0000 0.0000 0.0000 34.6416 0.0000
# 6 0.0000 0.0000 0.0000 0.0000 0.0000 27.3036
#
#
#
# Elastic Compliance Matrix: (Units=1/GPa)
#
#
# Indices 1 2 3 4 5 6 
#
# 1 0.013753 -0.004560 -0.002372 0.000000 0.000000 0.000000
# 2 -0.004560 0.013753 -0.002372 0.000000 0.000000 0.000000
# 3 -0.002372 -0.002372 0.009591 0.000000 0.000000 0.000000
# 4 0.000000 0.000000 0.000000 0.028867 0.000000 0.000000
# 5 0.000000 0.000000 0.000000 0.000000 0.028867 0.000000
# 6 0.000000 0.000000 0.000000 0.000000 0.000000 0.036625
#
#
# Mechanical properties :
#
#
# Convention : Reuss Voigt Hill
#
# Bulk Modulus (GPa) = 54.08203 54.69065 54.38634
# Shear Modulus (GPa) = 32.00521 32.79113 32.39817
#
# Velocity S-wave (km/s) = 3.94885 3.99704 3.97301
# Velocity P-wave (km/s) = 6.86591 6.92443 6.89523
#
# Compressibility (1/GPa) = 0.01849043
#
# Stress axis : x y z
#
# Youngs Moduli (GPa) = 72.71289 72.71289 104.26740
#
# Poissons Ratio (x) = 0.33156 0.24727
# Poissons Ratio (y) = 0.33156 0.24727
# Poissons Ratio (z) = 0.17244 0.17244
#
# Static dielectric constant tensor:
#      x y z
#    x 3.536200 0.000000 0.000000 
#    y 0.000000 3.536200 0.000000 
#    z 0.000000 0.000000 4.046150 
# 
# 
# High freq. dielectric constant tensor:
#      x y z
#    x 1.785460 0.000000 0.000000 
#    y 0.000000 1.785460 0.000000 
#    z 0.000000 0.000000 1.822330 
# 
# From -- ./inp_files/6028.got.cif
#   From: 2010.03.12/outbox.cif.g09.slc.cpg/sg178_4_cif.got.tgz:6028.got - 2010.04.02 07:02:38.
