data_PCOD8325308
_publ_section_title
;
Structure prediction by ZEFSAII (Michael W. Deem and Ramdas Pophale) SiO2 
 PCOD8325308
Probable space group: P 6/M
;
_chemical_formula_sum "Si O2"
_cell_formula_units_Z 42
_cell_length_a 17.513625
_cell_length_b 17.513625
_cell_length_c 7.319032
_cell_angle_alpha 90.000000
_cell_angle_beta 90.000000
_cell_angle_gamma 120.000000
_cell_volume 1944.179549
_symmetry_space_group_name_H-M "P 6/M"
_symmetry_group_IT_number 175
_symmetry_cell_setting 'hexagonal'
loop_
_space_group_symop_operation_xyz
x,y,z
x-y,x,z
-y,x-y,z
-x,-y,z
-x+y,-x,z
y,-x+y,z
-x,-y,-z
-x+y,-x,-z
y,-x+y,-z
x,y,-z
x-y,x,-z
-y,x-y,-z
loop_
_atom_site_type_symbol
_atom_site_label
_atom_site_fract_x
_atom_site_fract_y
_atom_site_fract_z
Si Si1 0.999985 0.819392 0.000000
Si Si2 0.000000 0.312296 0.716658
Si Si3 0.837441 0.503876 0.716822
Si Si4 0.503892 0.837424 0.283178
O O1 0.999978 0.768463 0.182794
O O2 0.915144 0.830308 0.000000
O O3 0.000008 0.296983 0.500000
O O4 0.915557 0.317937 0.782753
O O5 0.084414 0.402404 0.782758
O O6 0.836437 0.500153 0.500000
O O7 0.851052 0.425513 0.796314
O O8 0.745731 0.491439 0.792532
O O9 0.500167 0.836421 0.500000
#
# Coordination Sequence:
#
# PCOD8325308 Si02
#       4
#     6  12  12  12
#     4  12  27  46  67  90 116 146 184 234 293 354
#     4  10  21  39  63  89 117 153 197 241 286 341
#     4   9  16  28  50  82 120 160 200 242 288 338
#     4   9  16  28  50  82 120 160 200 242 288 338
#
# _framework density 21.602943
#
# number of rings (size 3 to 8) (size 9 to 14) (size 15 to 20)
#    0.000    2.286    0.000    3.286    0.000    9.143 
#    0.000    2.857    0.000    1.714    0.000    4.000 
#    0.000    0.000    0.000    0.000    0.000    0.000 
#
# Total GULP energy -520807.964408 kJ/mol
# GULP energy per Si atom -12400.189629 kJ/mol
# Density = 2.155377 g / cm^3
# Si number density = 21.602943 Si / 1000 Ang^3
#
#
#
# Elastic Constant Matrix: (Units=GPa)
#
#
# Indices 1 2 3 4 5 6 
#
# 1 202.7359 101.3446 34.1093 0.0000 0.0000 0.0000
# 2 101.3446 202.7359 34.1093 0.0000 0.0000 0.0000
# 3 34.1093 34.1093 67.4940 0.0000 0.0000 0.0000
# 4 0.0000 0.0000 0.0000 3.0904 0.0000 0.0000
# 5 0.0000 0.0000 0.0000 0.0000 3.0904 0.0000
# 6 0.0000 0.0000 0.0000 0.0000 0.0000 50.6956
#
#
#
# Elastic Compliance Matrix: (Units=1/GPa)
#
#
# Indices 1 2 3 4 5 6 
#
# 1 0.006786 -0.003077 -0.001874 0.000000 0.000000 0.000000
# 2 -0.003077 0.006786 -0.001874 0.000000 0.000000 0.000000
# 3 -0.001874 -0.001874 0.016711 0.000000 0.000000 0.000000
# 4 0.000000 0.000000 0.000000 0.323580 0.000000 0.000000
# 5 0.000000 0.000000 0.000000 0.000000 0.323580 0.000000
# 6 0.000000 0.000000 0.000000 0.000000 0.000000 0.019726
#
#
# Mechanical properties :
#
#
# Convention : Reuss Voigt Hill
#
# Bulk Modulus (GPa) = 60.12838 90.23248 75.18043
# Shear Modulus (GPa) = 6.97970 31.60213 19.29091
#
# Velocity S-wave (km/s) = 1.79942 3.82889 2.99151
# Velocity P-wave (km/s) = 5.67548 7.83623 6.84169
#
# Compressibility (1/GPa) = 0.01663108
#
# Stress axis : x y z
#
# Youngs Moduli (GPa) = 147.36314 147.36314 59.84181
#
# Poissons Ratio (x) = 0.45341 0.11217
# Poissons Ratio (y) = 0.45341 0.11217
# Poissons Ratio (z) = 0.27623 0.27623
#
# Static dielectric constant tensor:
#      x y z
#    x 4.078050 0.000000 0.000000 
#    y 0.000000 4.078050 0.000000 
#    z 0.000000 0.000000 3.503590 
# 
# 
# High freq. dielectric constant tensor:
#      x y z
#    x 1.855990 0.000000 0.000000 
#    y 0.000000 1.855990 0.000000 
#    z 0.000000 0.000000 1.830020 
# 
# From -- ./inp_files/427.got.cif
#   From: 2010.03.12/outbox.cif.g09.slc.cpg/sg175_1_cif.got.tgz:427.got - 2010.04.02 06:55:29.
