data_PCOD8325890
_publ_section_title
;
Structure prediction by ZEFSAII (Michael W. Deem and Ramdas Pophale) SiO2 
 PCOD8325890
Probable space group: P 61 2 2
;
_chemical_formula_sum "Si O2"
_cell_formula_units_Z 48
_cell_length_a 15.421510
_cell_length_b 15.421510
_cell_length_c 12.321610
_cell_angle_alpha 90.000000
_cell_angle_beta 90.000000
_cell_angle_gamma 120.000000
_cell_volume 2537.767842
_symmetry_space_group_name_H-M "P 61 2 2"
_symmetry_group_IT_number 178
_symmetry_cell_setting 'hexagonal'
loop_
_space_group_symop_operation_xyz
x,y,z
x-y,x,1/6+z
-y,x-y,1/3+z
-x,-y,1/2+z
-x+y,-x,2/3+z
y,-x+y,5/6+z
x-y,-y,-z
-x,-x+y,2/3-z
y,x,1/3-z
-y,-x,5/6-z
-x+y,y,1/2-z
x,x-y,1/6-z
loop_
_atom_site_type_symbol
_atom_site_label
_atom_site_fract_x
_atom_site_fract_y
_atom_site_fract_z
Si Si1 0.580440 0.460692 0.033278
Si Si2 0.000000 0.341344 0.833334
Si Si3 0.620760 0.810380 0.083334
Si Si4 0.784687 0.488109 0.046166
Si Si5 0.714492 0.599532 0.675188
O O1 0.628348 0.571161 0.080709
O O2 0.666096 0.429998 0.019478
O O3 0.492702 0.382016 0.107072
O O4 0.536170 0.463831 0.916667
O O5 0.926779 0.237643 0.892128
O O6 0.553132 0.802986 0.182560
O O7 0.819851 0.409926 0.083334
O O8 0.842876 0.561514 0.945503
O O9 0.694168 0.694168 0.666667
O O10 0.813407 0.626814 0.750000
#
# Coordination Sequence:
#
# PCOD8325890 Si02
#       5
#    12   6   6  12  12
#     4  11  22  36  61  86 128 163 208 254 311 380
#     4  10  22  38  54  90 118 164 204 254 308 376
#     4  10  24  36  60  84 122 162 200 264 314 370
#     4  11  23  38  59  90 129 167 215 256 318 382
#     4  12  26  41  62  92 131 178 220 270 330 395
#
# _framework density 18.914259999999999
#
# number of rings (size 3 to 8) (size 9 to 14) (size 15 to 20)
#    0.000    1.000    3.750    3.750    5.250    0.000 
#    0.000    0.000    0.000    0.000    0.000    0.000 
#   78.750    0.000    0.000    0.000    0.000    0.000 
#
# Total GULP energy -594787.899209 kJ/mol
# GULP energy per Si atom -12391.414567 kJ/mol
# Density = 1.887121 g / cm^3
# Si number density = 18.914260 Si / 1000 Ang^3
#
#
#
# Elastic Constant Matrix: (Units=GPa)
#
#
# Indices 1 2 3 4 5 6 
#
# 1 103.4814 59.4162 45.9064 0.0000 0.0000 0.0000
# 2 59.4162 103.4814 45.9064 0.0000 0.0000 0.0000
# 3 45.9064 45.9064 150.5718 0.0000 0.0000 0.0000
# 4 0.0000 0.0000 0.0000 23.3984 0.0000 0.0000
# 5 0.0000 0.0000 0.0000 0.0000 23.3984 0.0000
# 6 0.0000 0.0000 0.0000 0.0000 0.0000 22.0326
#
#
#
# Elastic Compliance Matrix: (Units=1/GPa)
#
#
# Indices 1 2 3 4 5 6 
#
# 1 0.015053 -0.007641 -0.002260 0.000000 0.000000 0.000000
# 2 -0.007641 0.015053 -0.002260 0.000000 0.000000 0.000000
# 3 -0.002260 -0.002260 0.008019 0.000000 0.000000 0.000000
# 4 0.000000 0.000000 0.000000 0.042738 0.000000 0.000000
# 5 0.000000 0.000000 0.000000 0.000000 0.042738 0.000000
# 6 0.000000 0.000000 0.000000 0.000000 0.000000 0.045387
#
#
# Mechanical properties :
#
#
# Convention : Reuss Voigt Hill
#
# Bulk Modulus (GPa) = 72.43887 73.33250 72.88569
# Shear Modulus (GPa) = 25.26385 27.51960 26.39173
#
# Velocity S-wave (km/s) = 3.65869 3.81854 3.73947
# Velocity P-wave (km/s) = 7.49865 7.63524 7.56725
#
# Compressibility (1/GPa) = 0.01380474
#
# Stress axis : x y z
#
# Youngs Moduli (GPa) = 66.43141 66.43141 124.69789
#
# Poissons Ratio (x) = 0.50757 0.28181
# Poissons Ratio (y) = 0.50757 0.28181
# Poissons Ratio (z) = 0.15013 0.15013
#
# Static dielectric constant tensor:
#      x y z
#    x 3.825360 0.000000 0.000000 
#    y 0.000000 3.825360 0.000000 
#    z 0.000000 0.000000 3.877400 
# 
# 
# High freq. dielectric constant tensor:
#      x y z
#    x 1.716340 0.000000 0.000000 
#    y 0.000000 1.716340 0.000000 
#    z 0.000000 0.000000 1.763370 
# 
# From -- ./inp_files/4181.got.cif
#   From: 2010.03.12/outbox.cif.g09.slc.cpg/sg178_3_cif.got.tgz:4181.got - 2010.04.02 07:02:38.
