data_PCOD8325466
_publ_section_title
;
Structure prediction by ZEFSAII (Michael W. Deem and Ramdas Pophale) SiO2 
 PCOD8325466
Probable space group: P 63/M
;
_chemical_formula_sum "Si O2"
_cell_formula_units_Z 72
_cell_length_a 22.595230
_cell_length_b 22.595230
_cell_length_c 9.525752
_cell_angle_alpha 90.000000
_cell_angle_beta 90.000000
_cell_angle_gamma 120.000000
_cell_volume 4211.758249
_symmetry_space_group_name_H-M "P 63/M"
_symmetry_group_IT_number 176
_symmetry_cell_setting 'hexagonal'
loop_
_space_group_symop_operation_xyz
x,y,z
x-y,x,1/2+z
-y,x-y,z
-x,-y,1/2+z
-x+y,-x,z
y,-x+y,1/2+z
-x,-y,-z
-x+y,-x,1/2-z
y,-x+y,-z
x,y,1/2-z
x-y,x,-z
-y,x-y,1/2-z
loop_
_atom_site_type_symbol
_atom_site_label
_atom_site_fract_x
_atom_site_fract_y
_atom_site_fract_z
Si Si1 0.592677 0.918122 0.914042
Si Si2 0.268937 0.079841 0.409633
Si Si3 0.923329 0.730020 0.912401
Si Si4 0.671886 0.070943 0.916751
Si Si5 0.198973 0.534839 0.083560
Si Si6 0.669295 0.470734 0.582899
O O1 0.572650 0.905847 0.750000
O O2 0.655907 0.906694 0.946223
O O3 0.613017 0.995101 0.961131
O O4 0.529929 0.867788 0.009347
O O5 0.267051 0.100711 0.250000
O O6 0.248530 0.123955 0.506825
O O7 0.212730 0.001259 0.435124
O O8 0.902858 0.721953 0.750000
O O9 0.912776 0.658530 0.973864
O O10 0.676432 0.072577 0.750000
O O11 0.655571 0.128059 0.976577
O O12 0.198217 0.532271 0.250000
O O13 0.206959 0.605929 0.032474
O O14 0.262494 0.527831 0.028767
O O15 0.669547 0.480202 0.750000
#
# Coordination Sequence:
#
# PCOD8325466 Si02
#       6
#    12  12  12  12  12  12
#     4   9  18  32  48  67  93 122 150 186 235 283
#     4   9  18  31  47  70  98 124 153 192 235 277
#     4   9  17  30  49  71  94 124 159 190 229 283
#     4   8  15  29  47  66  92 124 151 182 234 288
#     4   9  17  29  46  68  92 119 153 192 229 266
#     4  10  19  31  49  70  91 119 158 197 228 267
#
# _framework density 17.094998
#
# number of rings (size 3 to 8) (size 9 to 14) (size 15 to 20)
#    0.000    3.000    0.000    3.333    0.000    4.667 
#    0.000    3.333    0.000    2.333    0.000    0.000 
#    0.000    0.000    0.000    0.000    0.000    0.000 
#
# Total GULP energy -892622.121667 kJ/mol
# GULP energy per Si atom -12397.529468 kJ/mol
# Density = 1.705609 g / cm^3
# Si number density = 17.094998 Si / 1000 Ang^3
#
#
#
# Elastic Constant Matrix: (Units=GPa)
#
#
# Indices 1 2 3 4 5 6 
#
# 1 124.0274 76.3307 41.9871 0.0000 0.0000 0.0000
# 2 76.3307 124.0274 41.9871 0.0000 0.0000 0.0000
# 3 41.9871 41.9871 39.4606 0.0000 0.0000 0.0000
# 4 0.0000 0.0000 0.0000 23.8707 0.0000 0.0000
# 5 0.0000 0.0000 0.0000 0.0000 23.8707 0.0000
# 6 0.0000 0.0000 0.0000 0.0000 0.0000 23.8483
#
#
#
# Elastic Compliance Matrix: (Units=1/GPa)
#
#
# Indices 1 2 3 4 5 6 
#
# 1 0.014987 -0.005979 -0.009585 0.000000 0.000000 0.000000
# 2 -0.005979 0.014987 -0.009585 0.000000 0.000000 0.000000
# 3 -0.009585 -0.009585 0.045739 0.000000 0.000000 0.000000
# 4 0.000000 0.000000 0.000000 0.041892 0.000000 0.000000
# 5 0.000000 0.000000 0.000000 0.000000 0.041892 0.000000
# 6 0.000000 0.000000 0.000000 0.000000 0.000000 0.041932
#
#
# Mechanical properties :
#
#
# Convention : Reuss Voigt Hill
#
# Bulk Modulus (GPa) = 39.34592 67.56944 53.45768
# Shear Modulus (GPa) = 19.21600 22.79866 21.00733
#
# Velocity S-wave (km/s) = 3.35635 3.65587 3.50931
# Velocity P-wave (km/s) = 6.17140 7.57840 6.91080
#
# Compressibility (1/GPa) = 0.02541560
#
# Stress axis : x y z
#
# Youngs Moduli (GPa) = 66.72400 66.72400 21.86297
#
# Poissons Ratio (x) = 0.39892 0.20956
# Poissons Ratio (y) = 0.39892 0.20956
# Poissons Ratio (z) = 0.63956 0.63956
#
# Static dielectric constant tensor:
#      x y z
#    x 3.269710 0.000000 0.000000 
#    y 0.000000 3.269710 0.000000 
#    z 0.000000 0.000000 2.802060 
# 
# 
# High freq. dielectric constant tensor:
#      x y z
#    x 1.662810 0.000000 0.000000 
#    y 0.000000 1.662810 0.000000 
#    z 0.000000 0.000000 1.621570 
# 
# From -- ./inp_files/1199.got.cif
#   From: 2010.06.25/outbox.cif.g09.slc.cpg/sg176_1_cif.got.tgz:1199.got - 2010.06.28 12:15:01.
