data_PCOD8325837
_publ_section_title
;
Structure prediction by ZEFSAII (Michael W. Deem and Ramdas Pophale) SiO2 
 PCOD8325837
Probable space group: P 61 2 2
;
_chemical_formula_sum "Si O2"
_cell_formula_units_Z 84
_cell_length_a 14.688977
_cell_length_b 14.688977
_cell_length_c 22.026799
_cell_angle_alpha 90.000000
_cell_angle_beta 90.000000
_cell_angle_gamma 120.000000
_cell_volume 4115.902914
_symmetry_space_group_name_H-M "P 61 2 2"
_symmetry_group_IT_number 178
_symmetry_cell_setting 'hexagonal'
loop_
_space_group_symop_operation_xyz
x,y,z
x-y,x,1/6+z
-y,x-y,1/3+z
-x,-y,1/2+z
-x+y,-x,2/3+z
y,-x+y,5/6+z
x-y,-y,-z
-x,-x+y,2/3-z
y,x,1/3-z
-y,-x,5/6-z
-x+y,y,1/2-z
x,x-y,1/6-z
loop_
_atom_site_type_symbol
_atom_site_label
_atom_site_fract_x
_atom_site_fract_y
_atom_site_fract_z
Si Si1 0.622767 0.528270 0.252672
Si Si2 0.692950 0.705801 0.984952
Si Si3 0.879543 0.559203 0.739417
Si Si4 0.144012 0.671611 0.065754
Si Si5 0.320096 0.429254 0.059911
Si Si6 0.816866 0.653859 0.446741
Si Si7 0.143676 0.502354 0.878001
O O1 0.702976 0.604141 0.303664
O O2 0.545103 0.418099 0.284607
O O3 0.561871 0.583888 0.226852
O O4 0.676241 0.508480 0.193153
O O5 0.649624 0.597560 0.947143
O O6 0.722592 0.802380 0.939067
O O7 0.794434 0.726489 0.024116
O O8 0.804375 0.608750 0.750000
O O9 0.898226 0.544505 0.669000
O O10 0.822690 0.445874 0.773815
O O11 0.998487 0.640305 0.762956
O O12 0.188539 0.594270 0.083334
O O13 0.234025 0.793886 0.067381
O O14 0.273121 0.375409 0.995809
O O15 0.798929 0.543100 0.420175
#
# Coordination Sequence:
#
# PCOD8325837 Si02
#       7
#    12  12  12  12  12  12  12
#     4   9  18  35  56  79 116 154 190 248 293 354
#     4  10  21  36  61  84 122 156 201 250 301 365
#     4  11  21  36  58  86 121 163 203 252 301 359
#     4  11  21  37  58  82 121 163 205 243 303 365
#     4  10  20  36  56  83 119 163 204 247 298 362
#     4  10  20  37  58  87 119 157 204 248 304 364
#     4   9  19  36  54  81 119 155 194 243 301 355
#
# _framework density 20.408643999999999
#
# number of rings (size 3 to 8) (size 9 to 14) (size 15 to 20)
#    0.000    2.000    1.429    4.286    0.000    2.286 
#    7.714    0.000    0.000    0.000    0.000    0.000 
#  111.429    0.000    0.000    0.000    0.000    0.000 
#
# Total GULP energy -1041110.113645 kJ/mol
# GULP energy per Si atom -12394.168020 kJ/mol
# Density = 2.036219 g / cm^3
# Si number density = 20.408644 Si / 1000 Ang^3
#
#
#
# Elastic Constant Matrix: (Units=GPa)
#
#
# Indices 1 2 3 4 5 6 
#
# 1 79.5403 35.5443 29.4314 0.0000 0.0000 0.0000
# 2 35.5443 79.5403 29.4314 0.0000 0.0000 0.0000
# 3 29.4314 29.4314 110.3981 0.0000 0.0000 0.0000
# 4 0.0000 0.0000 0.0000 27.0981 0.0000 0.0000
# 5 0.0000 0.0000 0.0000 0.0000 27.0981 0.0000
# 6 0.0000 0.0000 0.0000 0.0000 0.0000 21.9980
#
#
#
# Elastic Compliance Matrix: (Units=1/GPa)
#
#
# Indices 1 2 3 4 5 6 
#
# 1 0.016395 -0.006334 -0.002682 0.000000 0.000000 0.000000
# 2 -0.006334 0.016395 -0.002682 0.000000 0.000000 0.000000
# 3 -0.002682 -0.002682 0.010488 0.000000 0.000000 0.000000
# 4 0.000000 0.000000 0.000000 0.036903 0.000000 0.000000
# 5 0.000000 0.000000 0.000000 0.000000 0.036903 0.000000
# 6 0.000000 0.000000 0.000000 0.000000 0.000000 0.045459
#
#
# Mechanical properties :
#
#
# Convention : Reuss Voigt Hill
#
# Bulk Modulus (GPa) = 50.29774 50.92147 50.60960
# Shear Modulus (GPa) = 25.96488 26.91026 26.43757
#
# Velocity S-wave (km/s) = 3.57073 3.63515 3.60309
# Velocity P-wave (km/s) = 6.45747 6.52872 6.49320
#
# Compressibility (1/GPa) = 0.01988161
#
# Stress axis : x y z
#
# Youngs Moduli (GPa) = 60.99328 60.99328 95.34472
#
# Poissons Ratio (x) = 0.38634 0.25574
# Poissons Ratio (y) = 0.38634 0.25574
# Poissons Ratio (z) = 0.16360 0.16360
#
# Static dielectric constant tensor:
#      x y z
#    x 3.575030 0.000000 0.000000 
#    y 0.000000 3.575030 0.000000 
#    z 0.000000 0.000000 4.073740 
# 
# 
# High freq. dielectric constant tensor:
#      x y z
#    x 1.771940 0.000000 0.000000 
#    y 0.000000 1.771940 0.000000 
#    z 0.000000 0.000000 1.817950 
# 
# From -- ./inp_files/8315.got.cif
#   From: 2010.03.12/outbox.cif.g09.slc.cpg/sg178_5_cif.got.tgz:8315.got - 2010.04.02 07:02:38.
