data_PCOD8325745
_publ_section_title
;
Structure prediction by ZEFSAII (Michael W. Deem and Ramdas Pophale) SiO2 
 PCOD8325745
Probable space group: P 6 2 2
;
_chemical_formula_sum "Si O2"
_cell_formula_units_Z 46
_cell_length_a 13.996804
_cell_length_b 13.996804
_cell_length_c 13.129602
_cell_angle_alpha 90.000000
_cell_angle_beta 90.000000
_cell_angle_gamma 120.000000
_cell_volume 2227.614086
_symmetry_space_group_name_H-M "P 6 2 2"
_symmetry_group_IT_number 177
_symmetry_cell_setting 'hexagonal'
loop_
_space_group_symop_operation_xyz
x,y,z
x-y,x,z
-y,x-y,z
-x,-y,z
-x+y,-x,z
y,-x+y,z
x-y,-y,-z
-x,-x+y,-z
y,x,-z
-y,-x,-z
-x+y,y,-z
x,x-y,-z
loop_
_atom_site_type_symbol
_atom_site_label
_atom_site_fract_x
_atom_site_fract_y
_atom_site_fract_z
Si Si1 0.636254 0.484621 0.100176
Si Si2 0.932860 0.754846 0.201231
Si Si3 0.286867 0.286867 0.000000
Si Si4 0.681318 0.510152 0.762840
Si Si5 0.666668 0.333335 0.620063
O O1 0.539805 0.440691 0.187145
O O2 0.738377 0.478844 0.147770
O O3 0.589478 0.410523 0.000000
O O4 0.681152 0.612249 0.076502
O O5 0.847149 0.792861 0.235766
O O6 0.901428 0.640439 0.258070
O O7 0.925633 0.739663 0.077383
O O8 0.678665 0.448720 0.658390
O O9 0.666668 0.333334 0.500000
#
# Coordination Sequence:
#
# PCOD8325745 Si02
#       5
#    12  12   6  12   4
#     4  11  20  33  51  83 121 164 205 253 304 376
#     4  12  25  40  55  81 123 177 231 262 295 337
#     4  12  23  34  51  78 126 178 225 260 299 350
#     4  10  22  37  61  91 123 162 203 250 320 398
#     4   9  21  45  73 104 130 147 177 252 349 419
#
# _framework density 20.649895999999998
#
# number of rings (size 3 to 8) (size 9 to 14) (size 15 to 20)
#    0.000    1.043    5.217    2.739    0.000    0.000 
#    0.000    1.304    0.000    3.130    0.000    0.000 
#    0.000    2.087    0.000    0.000    0.000    0.000 
#
# Total GULP energy -570180.165646 kJ/mol
# GULP energy per Si atom -12395.220992 kJ/mol
# Density = 2.060290 g / cm^3
# Si number density = 20.649896 Si / 1000 Ang^3
#
#
#
# Elastic Constant Matrix: (Units=GPa)
#
#
# Indices 1 2 3 4 5 6 
#
# 1 96.4616 38.2865 23.4361 0.0000 0.0001 -0.0001
# 2 38.2865 96.4611 23.4361 0.0000 0.0000 0.0000
# 3 23.4361 23.4361 92.5792 0.0003 0.0002 0.0000
# 4 0.0000 0.0000 0.0003 8.2564 -0.0001 0.0000
# 5 0.0001 0.0000 0.0002 -0.0001 8.2564 0.0000
# 6 -0.0001 0.0000 0.0000 0.0000 0.0000 29.0877
#
#
#
# Elastic Compliance Matrix: (Units=1/GPa)
#
#
# Indices 1 2 3 4 5 6 
#
# 1 0.012664 -0.004526 -0.002060 0.000000 0.000000 0.000000
# 2 -0.004526 0.012664 -0.002060 0.000000 0.000000 0.000000
# 3 -0.002060 -0.002060 0.011845 0.000000 0.000000 0.000000
# 4 0.000000 0.000000 0.000000 0.121118 0.000001 0.000000
# 5 0.000000 0.000000 0.000000 0.000001 0.121119 0.000000
# 6 0.000000 0.000000 0.000000 0.000000 0.000000 0.034379
#
#
# Mechanical properties :
#
#
# Convention : Reuss Voigt Hill
#
# Bulk Modulus (GPa) = 50.30181 50.64660 50.47421
# Shear Modulus (GPa) = 14.80579 22.47631 18.64105
#
# Velocity S-wave (km/s) = 2.68057 3.30274 3.00779
# Velocity P-wave (km/s) = 5.83034 6.25489 6.04634
#
# Compressibility (1/GPa) = 0.01988000
#
# Stress axis : x y z
#
# Youngs Moduli (GPa) = 78.96600 78.96550 84.42694
#
# Poissons Ratio (x) = 0.35739 0.17392
# Poissons Ratio (y) = 0.35739 0.17393
# Poissons Ratio (z) = 0.16268 0.16268
#
# Static dielectric constant tensor:
#      x y z
#    x 4.049690 0.000000 0.000000 
#    y 0.000000 4.049700 0.000000 
#    z 0.000000 0.000000 2.993640 
# 
# 
# High freq. dielectric constant tensor:
#      x y z
#    x 1.826170 0.000000 0.000000 
#    y 0.000000 1.826170 0.000000 
#    z 0.000000 0.000000 1.719090 
# 
# From -- ./inp_files/1822.got.cif
#   From: 2010.03.12/outbox.cif.g09.slc.cpg/sg177_1_cif.got.tgz:1822.got - 2010.04.02 07:00:27.
