data_PCOD8325112
_publ_section_title
;
Structure prediction by ZEFSAII (Michael W. Deem and Ramdas Pophale) SiO2 
 PCOD8325112
Probable space group: P 6/M
;
_chemical_formula_sum "Si O2"
_cell_formula_units_Z 72
_cell_length_a 22.630884
_cell_length_b 22.630884
_cell_length_c 8.758809
_cell_angle_alpha 90.000000
_cell_angle_beta 90.000000
_cell_angle_gamma 120.000000
_cell_volume 3884.889986
_symmetry_space_group_name_H-M "P 6/M"
_symmetry_group_IT_number 175
_symmetry_cell_setting 'hexagonal'
loop_
_space_group_symop_operation_xyz
x,y,z
x-y,x,z
-y,x-y,z
-x,-y,z
-x+y,-x,z
y,-x+y,z
-x,-y,-z
-x+y,-x,-z
y,-x+y,-z
x,y,-z
x-y,x,-z
-y,x-y,-z
loop_
_atom_site_type_symbol
_atom_site_label
_atom_site_fract_x
_atom_site_fract_y
_atom_site_fract_z
Si Si1 0.667180 0.200578 0.681733
Si Si2 0.199818 0.666470 0.681142
Si Si3 0.332827 0.933108 0.678019
Si Si4 0.595720 0.925245 0.177908
Si Si5 0.265440 0.193252 0.323352
Si Si6 0.265658 0.068548 0.177894
O O1 0.669664 0.202365 0.500000
O O2 0.602761 0.205125 0.743732
O O3 0.736228 0.264588 0.747236
O O4 0.661274 0.130504 0.740529
O O5 0.201478 0.667263 0.500000
O O6 0.129346 0.659215 0.733303
O O7 0.350960 0.947088 0.500000
O O8 0.256198 0.916028 0.710468
O O9 0.386785 0.999554 0.770208
O O10 0.657823 0.912882 0.221260
O O11 0.579771 0.916978 0.000000
O O12 0.256198 0.172081 0.500000
O O13 0.255047 0.130838 0.220470
O O14 0.208470 0.211978 0.274659
O O15 0.251300 0.051116 0.000000
#
# Coordination Sequence:
#
# PCOD8325112 Si02
#       6
#    12  12  12  12  12  12
#     4   9  18  32  53  78 100 129 171 214 255 302
#     4  10  19  34  55  76 101 133 171 214 257 304
#     4   9  18  33  52  75 102 132 168 211 260 309
#     4  10  21  35  51  75 104 134 169 209 258 311
#     4  10  19  32  53  79 105 134 173 217 257 302
#     4  10  20  34  52  75 106 140 172 209 258 312
#
# _framework density 18.533344
#
# number of rings (size 3 to 8) (size 9 to 14) (size 15 to 20)
#    0.000    2.333    0.000    2.833    0.000    6.000 
#    0.000    5.833    0.000    0.333    0.000    2.333 
#    0.000    0.000    0.000    0.000    0.000    0.000 
#
# Total GULP energy -893044.086467 kJ/mol
# GULP energy per Si atom -12403.390090 kJ/mol
# Density = 1.849116 g / cm^3
# Si number density = 18.533344 Si / 1000 Ang^3
#
#
#
# Elastic Constant Matrix: (Units=GPa)
#
#
# Indices 1 2 3 4 5 6 
#
# 1 115.4849 67.2039 16.6142 0.0000 0.0000 0.0000
# 2 67.2039 115.4849 16.6142 0.0000 0.0000 0.0000
# 3 16.6142 16.6142 25.8641 0.0000 0.0000 0.0000
# 4 0.0000 0.0000 0.0000 20.0191 0.0000 0.0000
# 5 0.0000 0.0000 0.0000 0.0000 20.0191 0.0000
# 6 0.0000 0.0000 0.0000 0.0000 0.0000 24.1405
#
#
#
# Elastic Compliance Matrix: (Units=1/GPa)
#
#
# Indices 1 2 3 4 5 6 
#
# 1 0.013455 -0.007257 -0.003981 0.000000 0.000000 0.000000
# 2 -0.007257 0.013455 -0.003981 0.000000 0.000000 0.000000
# 3 -0.003981 -0.003981 0.043779 0.000000 0.000000 0.000000
# 4 0.000000 0.000000 0.000000 0.049952 0.000000 0.000000
# 5 0.000000 0.000000 0.000000 0.000000 0.049952 0.000000
# 6 0.000000 0.000000 0.000000 0.000000 0.000000 0.041424
#
#
# Mechanical properties :
#
#
# Convention : Reuss Voigt Hill
#
# Bulk Modulus (GPa) = 24.84530 50.85539 37.85034
# Shear Modulus (GPa) = 19.54094 23.26252 21.40173
#
# Velocity S-wave (km/s) = 3.25062 3.54668 3.40188
# Velocity P-wave (km/s) = 5.24629 6.65368 5.99145
#
# Compressibility (1/GPa) = 0.04024907
#
# Stress axis : x y z
#
# Youngs Moduli (GPa) = 74.32182 74.32182 22.84224
#
# Poissons Ratio (x) = 0.53936 0.09094
# Poissons Ratio (y) = 0.53936 0.09094
# Poissons Ratio (z) = 0.29590 0.29590
#
# Static dielectric constant tensor:
#      x y z
#    x 3.447770 0.000000 0.000000 
#    y 0.000000 3.447770 0.000000 
#    z 0.000000 0.000000 3.188350 
# 
# 
# High freq. dielectric constant tensor:
#      x y z
#    x 1.720760 0.000000 0.000000 
#    y 0.000000 1.720760 0.000000 
#    z 0.000000 0.000000 1.702160 
# 
# From -- ./inp_files/1195.got.cif
#   From: 2010.03.12/outbox.cif.g09.slc.cpg/sg175_1_cif.got.tgz:1195.got - 2010.04.02 06:55:29.
