data_PCOD8325783
_publ_section_title
;
Structure prediction by ZEFSAII (Michael W. Deem and Ramdas Pophale) SiO2 
 PCOD8325783
Probable space group: P 61 2 2
;
_chemical_formula_sum "Si O2"
_cell_formula_units_Z 60
_cell_length_a 16.234177
_cell_length_b 16.234177
_cell_length_c 13.827852
_cell_angle_alpha 90.000000
_cell_angle_beta 90.000000
_cell_angle_gamma 120.000000
_cell_volume 3156.064773
_symmetry_space_group_name_H-M "P 61 2 2"
_symmetry_group_IT_number 178
_symmetry_cell_setting 'hexagonal'
loop_
_space_group_symop_operation_xyz
x,y,z
x-y,x,1/6+z
-y,x-y,1/3+z
-x,-y,1/2+z
-x+y,-x,2/3+z
y,-x+y,5/6+z
x-y,-y,-z
-x,-x+y,2/3-z
y,x,1/3-z
-y,-x,5/6-z
-x+y,y,1/2-z
x,x-y,1/6-z
loop_
_atom_site_type_symbol
_atom_site_label
_atom_site_fract_x
_atom_site_fract_y
_atom_site_fract_z
Si Si1 0.215316 0.784685 0.416667
Si Si2 0.193375 0.286403 0.905616
Si Si3 0.111690 0.111690 0.666667
Si Si4 0.245880 0.356874 0.450777
Si Si5 0.522811 0.619872 0.217737
Si Si6 0.660824 0.455594 0.830306
O O1 0.130630 0.762899 0.491090
O O2 0.313668 0.818928 0.475226
O O3 0.086970 0.210819 0.870353
O O4 0.263147 0.244356 0.923351
O O5 0.186086 0.327082 0.009915
O O6 0.034010 0.068019 0.750000
O O7 0.314816 0.393044 0.542958
O O8 0.274340 0.437406 0.369596
O O9 0.548927 0.548927 0.166667
O O10 0.429514 0.550600 0.277691
O O11 0.714875 0.429749 0.750000
O O12 0.623155 0.376846 0.916667
#
# Coordination Sequence:
#
# PCOD8325783 Si02
#       6
#     6  12   6  12  12  12
#     4  10  18  30  60  96 114 152 192 260 312 364
#     4  11  18  33  60  89 127 155 209 249 311 365
#     4  12  22  34  58  94 126 170 210 266 300 346
#     4  10  21  36  58  91 122 164 199 260 310 377
#     4  10  20  36  61  94 122 147 205 260 318 378
#     4  10  24  44  63  85 124 164 210 264 322 387
#
# _framework density 19.011018
#
# number of rings (size 3 to 8) (size 9 to 14) (size 15 to 20)
#    0.000    1.600    5.000    0.000    4.200    1.600 
#    0.000    1.000    0.000    0.000    0.000    0.000 
#    0.000    0.000    0.000    0.000    0.000    0.000 
#
# Total GULP energy -743866.669115 kJ/mol
# GULP energy per Si atom -12397.777819 kJ/mol
# Density = 1.896775 g / cm^3
# Si number density = 19.011018 Si / 1000 Ang^3
#
#
#
# Elastic Constant Matrix: (Units=GPa)
#
#
# Indices 1 2 3 4 5 6 
#
# 1 81.3025 43.4068 54.4836 0.0000 0.0000 0.0000
# 2 43.4068 81.3025 54.4836 0.0000 0.0000 0.0000
# 3 54.4836 54.4836 113.4633 0.0000 0.0000 0.0000
# 4 0.0000 0.0000 0.0000 36.3172 0.0000 0.0000
# 5 0.0000 0.0000 0.0000 0.0000 36.3172 0.0000
# 6 0.0000 0.0000 0.0000 0.0000 0.0000 18.9479
#
#
#
# Elastic Compliance Matrix: (Units=1/GPa)
#
#
# Indices 1 2 3 4 5 6 
#
# 1 0.020102 -0.006287 -0.006634 0.000000 0.000000 0.000000
# 2 -0.006287 0.020102 -0.006634 0.000000 0.000000 0.000000
# 3 -0.006634 -0.006634 0.015184 0.000000 0.000000 0.000000
# 4 0.000000 0.000000 0.000000 0.027535 0.000000 0.000000
# 5 0.000000 0.000000 0.000000 0.000000 0.027535 0.000000
# 6 0.000000 0.000000 0.000000 0.000000 0.000000 0.052776
#
#
# Mechanical properties :
#
#
# Convention : Reuss Voigt Hill
#
# Bulk Modulus (GPa) = 61.42791 64.53515 62.98153
# Shear Modulus (GPa) = 24.06517 26.56274 25.31395
#
# Velocity S-wave (km/s) = 3.56174 3.74201 3.65299
# Velocity P-wave (km/s) = 7.02115 7.25879 7.14096
#
# Compressibility (1/GPa) = 0.01627925
#
# Stress axis : x y z
#
# Youngs Moduli (GPa) = 49.74720 49.74720 65.85707
#
# Poissons Ratio (x) = 0.31274 0.43689
# Poissons Ratio (y) = 0.31274 0.43689
# Poissons Ratio (z) = 0.33001 0.33001
#
# Static dielectric constant tensor:
#      x y z
#    x 3.338950 0.000000 0.000000 
#    y 0.000000 3.338950 0.000000 
#    z 0.000000 0.000000 3.626710 
# 
# 
# High freq. dielectric constant tensor:
#      x y z
#    x 1.728000 0.000000 0.000000 
#    y 0.000000 1.728000 0.000000 
#    z 0.000000 0.000000 1.738290 
# 
# From -- ./inp_files/5747.got.cif
#   From: 2010.03.12/outbox.cif.g09.slc.cpg/sg178_3_cif.got.tgz:5747.got - 2010.04.02 07:02:38.
