data_PCOD8325196
_publ_section_title
;
Structure prediction by ZEFSAII (Michael W. Deem and Ramdas Pophale) SiO2 
 PCOD8325196
Probable space group: P 6/M
;
_chemical_formula_sum "Si O2"
_cell_formula_units_Z 52
_cell_length_a 13.858389
_cell_length_b 13.858389
_cell_length_c 16.532703
_cell_angle_alpha 90.000000
_cell_angle_beta 90.000000
_cell_angle_gamma 120.000000
_cell_volume 2749.792930
_symmetry_space_group_name_H-M "P 6/M"
_symmetry_group_IT_number 175
_symmetry_cell_setting 'hexagonal'
loop_
_space_group_symop_operation_xyz
x,y,z
x-y,x,z
-y,x-y,z
-x,-y,z
-x+y,-x,z
y,-x+y,z
-x,-y,-z
-x+y,-x,-z
y,-x+y,-z
x,y,-z
x-y,x,-z
-y,x-y,-z
loop_
_atom_site_type_symbol
_atom_site_label
_atom_site_fract_x
_atom_site_fract_y
_atom_site_fract_z
Si Si1 0.240149 0.132703 0.405821
Si Si2 0.792159 0.236500 0.686313
Si Si3 0.603116 0.620895 0.780844
Si Si4 0.666668 0.333334 0.599082
Si Si5 0.008954 0.227181 0.905068
O O1 0.178036 0.190722 0.364100
O O2 0.218316 0.123645 0.500000
O O3 0.369387 0.203842 0.388524
O O4 0.913480 0.309416 0.726596
O O5 0.765188 0.321391 0.639597
O O6 0.696743 0.143037 0.744274
O O7 0.500000 0.500000 0.802331
O O8 0.666453 0.680302 0.862815
O O9 0.666667 0.333334 0.500000
O O10 0.114427 0.215835 0.878394
O O11 0.009545 0.247542 0.000000
#
# Coordination Sequence:
#
# PCOD8325196 Si02
#       5
#    12  12  12   4  12
#     4  10  20  34  54  81 115 149 189 244 307 378
#     4  12  23  41  60  88 118 158 207 258 313 375
#     4  12  24  40  65  90 121 165 211 259 311 363
#     4  12  27  45  63  87 121 161 211 276 333 375
#     4  10  21  39  66 101 137 168 201 247 309 378
#
# _framework density 18.910513000000002
#
# number of rings (size 3 to 8) (size 9 to 14) (size 15 to 20)
#    0.000    0.923    6.923    1.154    0.000    2.308 
#    0.000    1.154    0.000    0.000    0.000    0.000 
#    0.000    0.000    0.000    0.000    0.000    0.000 
#
# Total GULP energy -644251.026110 kJ/mol
# GULP energy per Si atom -12389.442810 kJ/mol
# Density = 1.886747 g / cm^3
# Si number density = 18.910513 Si / 1000 Ang^3
#
#
#
# Elastic Constant Matrix: (Units=GPa)
#
#
# Indices 1 2 3 4 5 6 
#
# 1 99.3332 21.4651 37.7115 0.0000 0.0000 -0.0004
# 2 21.4651 99.3313 37.7114 0.0000 0.0000 -0.0003
# 3 37.7115 37.7114 63.5905 0.0000 0.0000 -0.0001
# 4 0.0000 0.0000 0.0000 33.3820 -0.0001 0.0000
# 5 0.0000 0.0000 0.0000 -0.0001 33.3821 0.0000
# 6 -0.0004 -0.0003 -0.0001 0.0000 0.0000 38.9332
#
#
#
# Elastic Compliance Matrix: (Units=1/GPa)
#
#
# Indices 1 2 3 4 5 6 
#
# 1 0.012994 0.000152 -0.007796 0.000000 0.000000 0.000000
# 2 0.000152 0.012994 -0.007796 0.000000 0.000000 0.000000
# 3 -0.007796 -0.007796 0.024972 0.000000 0.000000 0.000000
# 4 0.000000 0.000000 0.000000 0.029956 0.000000 0.000000
# 5 0.000000 0.000000 0.000000 0.000000 0.029956 0.000000
# 6 0.000000 0.000000 0.000000 0.000000 0.000000 0.025685
#
#
# Mechanical properties :
#
#
# Convention : Reuss Voigt Hill
#
# Bulk Modulus (GPa) = 49.80056 50.67010 50.23533
# Shear Modulus (GPa) = 28.71384 32.16393 30.43889
#
# Velocity S-wave (km/s) = 3.90090 4.12861 4.01637
# Velocity P-wave (km/s) = 6.83238 7.04131 6.93763
#
# Compressibility (1/GPa) = 0.02008009
#
# Stress axis : x y z
#
# Youngs Moduli (GPa) = 76.95835 76.95663 40.04438
#
# Poissons Ratio (x) = -0.01168 0.31219
# Poissons Ratio (y) = -0.01168 0.31219
# Poissons Ratio (z) = 0.59997 0.59996
#
# Static dielectric constant tensor:
#      x y z
#    x 3.655290 0.000010 0.000000 
#    y 0.000010 3.655290 0.000000 
#    z 0.000000 0.000000 3.220370 
# 
# 
# High freq. dielectric constant tensor:
#      x y z
#    x 1.749000 0.000000 0.000000 
#    y 0.000000 1.749000 0.000000 
#    z 0.000000 0.000000 1.718970 
# 
# From -- ./inp_files/2293.got.cif
#   From: 2010.03.12/outbox.cif.g09.slc.cpg/sg175_2_cif.got.tgz:2293.got - 2010.04.02 06:55:29.
