data_PCOD8325229
_publ_section_title
;
Structure prediction by ZEFSAII (Michael W. Deem and Ramdas Pophale) SiO2 
 PCOD8325229
Probable space group: P 6/M
;
_chemical_formula_sum "Si O2"
_cell_formula_units_Z 72
_cell_length_a 22.587392
_cell_length_b 22.587392
_cell_length_c 8.515743
_cell_angle_alpha 90.000000
_cell_angle_beta 90.000000
_cell_angle_gamma 120.000000
_cell_volume 3762.576650
_symmetry_space_group_name_H-M "P 6/M"
_symmetry_group_IT_number 175
_symmetry_cell_setting 'hexagonal'
loop_
_space_group_symop_operation_xyz
x,y,z
x-y,x,z
-y,x-y,z
-x,-y,z
-x+y,-x,z
y,-x+y,z
-x,-y,-z
-x+y,-x,-z
y,-x+y,-z
x,y,-z
x-y,x,-z
-y,x-y,-z
loop_
_atom_site_type_symbol
_atom_site_label
_atom_site_fract_x
_atom_site_fract_y
_atom_site_fract_z
Si Si1 0.151439 0.285710 0.814599
Si Si2 0.375442 0.380800 0.680585
Si Si3 0.758621 0.010017 0.685675
Si Si4 0.442419 0.218935 0.181716
Si Si5 0.860136 0.366183 0.684380
Si Si6 0.137270 0.501046 0.318756
O O1 0.184612 0.245712 0.730050
O O2 0.189715 0.364653 0.755358
O O3 0.072052 0.247842 0.767623
O O4 0.158367 0.282026 0.000000
O O5 0.354551 0.377575 0.500000
O O6 0.318627 0.308603 0.754375
O O7 0.372653 0.443940 0.762042
O O8 0.451729 0.395281 0.700215
O O9 0.766435 0.021743 0.500000
O O10 0.493669 0.201836 0.275652
O O11 0.471178 0.298357 0.208714
O O12 0.445457 0.204188 0.000000
O O13 0.870684 0.378337 0.500000
O O14 0.845121 0.424813 0.747536
O O15 0.159882 0.503229 0.500000
#
# Coordination Sequence:
#
# PCOD8325229 Si02
#       6
#    12  12  12  12  12  12
#     4  11  23  39  59  88 126 161 193 237 294 354
#     4   9  17  31  56  87 114 140 178 237 294 336
#     4  11  21  36  63  92 119 156 199 243 290 345
#     4  11  23  37  55  79 114 154 193 238 292 351
#     4  10  20  36  58  82 109 144 190 240 291 344
#     4  10  20  36  58  82 109 144 190 240 291 344
#
# _framework density 19.135822999999998
#
# number of rings (size 3 to 8) (size 9 to 14) (size 15 to 20)
#    0.000    1.667    3.333    2.000    0.000    4.000 
#    1.000    0.833    0.000    2.333    0.000    2.333 
#    0.000    0.000    0.000    0.000    0.000    0.000 
#
# Total GULP energy -892941.906659 kJ/mol
# GULP energy per Si atom -12401.970926 kJ/mol
# Density = 1.909227 g / cm^3
# Si number density = 19.135823 Si / 1000 Ang^3
#
#
#
# Elastic Constant Matrix: (Units=GPa)
#
#
# Indices 1 2 3 4 5 6 
#
# 1 100.0024 30.2326 12.0485 0.0000 0.0000 0.0000
# 2 30.2326 100.0024 12.0485 0.0000 0.0000 0.0000
# 3 12.0485 12.0485 30.2028 0.0000 0.0000 0.0000
# 4 0.0000 0.0000 0.0000 21.9445 0.0000 0.0000
# 5 0.0000 0.0000 0.0000 0.0000 21.9445 0.0000
# 6 0.0000 0.0000 0.0000 0.0000 0.0000 34.8849
#
#
#
# Elastic Compliance Matrix: (Units=1/GPa)
#
#
# Indices 1 2 3 4 5 6 
#
# 1 0.011312 -0.003021 -0.003307 0.000000 0.000000 0.000000
# 2 -0.003021 0.011312 -0.003307 0.000000 0.000000 0.000000
# 3 -0.003307 -0.003307 0.035748 0.000000 0.000000 0.000000
# 4 0.000000 0.000000 0.000000 0.045570 0.000000 0.000000
# 5 0.000000 0.000000 0.000000 0.000000 0.045570 0.000000
# 6 0.000000 0.000000 0.000000 0.000000 0.000000 0.028666
#
#
# Mechanical properties :
#
#
# Convention : Reuss Voigt Hill
#
# Bulk Modulus (GPa) = 25.57541 37.65189 31.61365
# Shear Modulus (GPa) = 23.75515 27.47998 25.61756
#
# Velocity S-wave (km/s) = 3.52717 3.79363 3.66283
# Velocity P-wave (km/s) = 5.47559 6.23761 5.86898
#
# Compressibility (1/GPa) = 0.03910005
#
# Stress axis : x y z
#
# Youngs Moduli (GPa) = 88.40488 88.40488 27.97351
#
# Poissons Ratio (x) = 0.26709 0.09251
# Poissons Ratio (y) = 0.26709 0.09251
# Poissons Ratio (z) = 0.29237 0.29237
#
# Static dielectric constant tensor:
#      x y z
#    x 3.476090 0.000000 0.000000 
#    y 0.000000 3.476090 0.000000 
#    z 0.000000 0.000000 3.227950 
# 
# 
# High freq. dielectric constant tensor:
#      x y z
#    x 1.742450 0.000000 0.000000 
#    y 0.000000 1.742450 0.000000 
#    z 0.000000 0.000000 1.722060 
# 
# From -- ./inp_files/1208.got.cif
#   From: 2010.03.12/outbox.cif.g09.slc.cpg/sg175_1_cif.got.tgz:1208.got - 2010.04.02 06:55:29.
