data_PCOD8325977
_publ_section_title
;
Structure prediction by ZEFSAII (Michael W. Deem and Ramdas Pophale) SiO2 
 PCOD8325977
Probable space group: P 61 2 2
;
_chemical_formula_sum "Si O2"
_cell_formula_units_Z 48
_cell_length_a 13.475062
_cell_length_b 13.475062
_cell_length_c 13.469664
_cell_angle_alpha 90.000000
_cell_angle_beta 90.000000
_cell_angle_gamma 120.000000
_cell_volume 2118.112086
_symmetry_space_group_name_H-M "P 61 2 2"
_symmetry_group_IT_number 178
_symmetry_cell_setting 'hexagonal'
loop_
_space_group_symop_operation_xyz
x,y,z
x-y,x,1/6+z
-y,x-y,1/3+z
-x,-y,1/2+z
-x+y,-x,2/3+z
y,-x+y,5/6+z
x-y,-y,-z
-x,-x+y,2/3-z
y,x,1/3-z
-y,-x,5/6-z
-x+y,y,1/2-z
x,x-y,1/6-z
loop_
_atom_site_type_symbol
_atom_site_label
_atom_site_fract_x
_atom_site_fract_y
_atom_site_fract_z
Si Si1 0.360071 0.292651 0.567415
Si Si2 0.406686 0.606118 0.803122
Si Si3 0.826567 0.962312 0.782986
Si Si4 0.873958 0.625346 0.848891
O O1 0.305722 0.305722 0.666667
O O2 0.391672 0.195836 0.583334
O O3 0.483680 0.403558 0.543988
O O4 0.268475 0.255844 0.479190
O O5 0.307718 0.615436 0.750000
O O6 0.526439 0.711886 0.764937
O O7 0.383402 0.616599 0.916667
O O8 0.877728 0.931135 0.879891
O O9 0.747422 0.849109 0.721779
O O10 0.795292 0.590584 0.750000
O O11 0.000000 0.641639 0.833334
#
# Coordination Sequence:
#
# PCOD8325977 Si02
#       4
#    12  12  12  12
#     4  11  23  44  71 105 146 186 243 303 366 443
#     4  11  26  48  75 107 142 191 254 310 371 444
#     4  12  25  47  72 108 154 196 247 303 380 456
#     4  12  26  49  72 108 152 198 249 308 385 460
#
# _framework density 22.661691000000001
#
# number of rings (size 3 to 8) (size 9 to 14) (size 15 to 20)
#    0.000    0.500    5.000    3.000    3.500    0.000 
#   13.500    0.000    0.000    0.000    0.000    0.000 
#    0.000    0.000    0.000    0.000    0.000    0.000 
#
# Total GULP energy -595082.448123 kJ/mol
# GULP energy per Si atom -12397.551003 kJ/mol
# Density = 2.261011 g / cm^3
# Si number density = 22.661691 Si / 1000 Ang^3
#
#
#
# Elastic Constant Matrix: (Units=GPa)
#
#
# Indices 1 2 3 4 5 6 
#
# 1 86.2770 47.1872 45.4347 0.0000 0.0000 0.0000
# 2 47.1872 86.2770 45.4347 0.0000 0.0000 0.0000
# 3 45.4347 45.4347 157.7717 0.0000 0.0000 0.0000
# 4 0.0000 0.0000 0.0000 41.8809 0.0000 0.0000
# 5 0.0000 0.0000 0.0000 0.0000 41.8809 0.0000
# 6 0.0000 0.0000 0.0000 0.0000 0.0000 19.5449
#
#
#
# Elastic Compliance Matrix: (Units=1/GPa)
#
#
# Indices 1 2 3 4 5 6 
#
# 1 0.017451 -0.008131 -0.002684 0.000000 0.000000 0.000000
# 2 -0.008131 0.017451 -0.002684 0.000000 0.000000 0.000000
# 3 -0.002684 -0.002684 0.007884 0.000000 0.000000 0.000000
# 4 0.000000 0.000000 0.000000 0.023877 0.000000 0.000000
# 5 0.000000 0.000000 0.000000 0.000000 0.023877 0.000000
# 6 0.000000 0.000000 0.000000 0.000000 0.000000 0.051164
#
#
# Mechanical properties :
#
#
# Convention : Reuss Voigt Hill
#
# Bulk Modulus (GPa) = 63.33792 67.38211 65.36001
# Shear Modulus (GPa) = 28.74129 33.47926 31.11027
#
# Velocity S-wave (km/s) = 3.56515 3.84780 3.70917
# Velocity P-wave (km/s) = 6.70500 7.03841 6.87373
#
# Compressibility (1/GPa) = 0.01578833
#
# Stress axis : x y z
#
# Youngs Moduli (GPa) = 57.30305 57.30305 126.83730
#
# Poissons Ratio (x) = 0.46593 0.34043
# Poissons Ratio (y) = 0.46593 0.34043
# Poissons Ratio (z) = 0.15380 0.15380
#
# Static dielectric constant tensor:
#      x y z
#    x 4.202810 0.000000 0.000000 
#    y 0.000000 4.202810 0.000000 
#    z 0.000000 0.000000 3.996960 
# 
# 
# High freq. dielectric constant tensor:
#      x y z
#    x 1.898670 0.000000 0.000000 
#    y 0.000000 1.898670 0.000000 
#    z 0.000000 0.000000 1.902900 
# 
# From -- ./inp_files/4090.got.cif
#   From: 2010.03.12/outbox.cif.g09.slc.cpg/sg178_3_cif.got.tgz:4090.got - 2010.04.02 07:02:38.
