data_PCOD8325882
_publ_section_title
;
Structure prediction by ZEFSAII (Michael W. Deem and Ramdas Pophale) SiO2 
 PCOD8325882
Probable space group: P 61 2 2
;
_chemical_formula_sum "Si O2"
_cell_formula_units_Z 36
_cell_length_a 8.566885
_cell_length_b 8.566885
_cell_length_c 21.686637
_cell_angle_alpha 90.000000
_cell_angle_beta 90.000000
_cell_angle_gamma 120.000000
_cell_volume 1378.379216
_symmetry_space_group_name_H-M "P 61 2 2"
_symmetry_group_IT_number 178
_symmetry_cell_setting 'hexagonal'
loop_
_space_group_symop_operation_xyz
x,y,z
x-y,x,1/6+z
-y,x-y,1/3+z
-x,-y,1/2+z
-x+y,-x,2/3+z
y,-x+y,5/6+z
x-y,-y,-z
-x,-x+y,2/3-z
y,x,1/3-z
-y,-x,5/6-z
-x+y,y,1/2-z
x,x-y,1/6-z
loop_
_atom_site_type_symbol
_atom_site_label
_atom_site_fract_x
_atom_site_fract_y
_atom_site_fract_z
Si Si1 0.672748 0.861902 0.698489
Si Si2 0.166891 0.420310 0.616016
Si Si3 0.515727 0.482137 0.271769
O O1 0.811615 0.811615 0.666667
O O2 0.571566 0.911985 0.646847
O O3 0.514236 0.693208 0.735325
O O4 0.785677 0.021466 0.748226
O O5 0.142203 0.571102 0.583334
O O6 0.368542 0.458828 0.611149
O O7 0.127232 0.427290 0.688298
#
# Coordination Sequence:
#
# PCOD8325882 Si02
#       3
#    12  12  12
#     4  11  23  40  69 104 140 184 235 296 364 430
#     4  10  21  41  69 101 133 179 235 287 345 427
#     4  11  24  43  73 103 139 187 239 295 361 435
#
# _framework density 26.117629999999998
#
# number of rings (size 3 to 8) (size 9 to 14) (size 15 to 20)
#    0.000    1.333    0.000    7.000    0.000    5.333 
#    0.000    0.000    0.000  124.000    0.000    0.000 
#    0.000    0.000    0.000    0.000    0.000    0.000 
#
# Total GULP energy -446493.915579 kJ/mol
# GULP energy per Si atom -12402.608766 kJ/mol
# Density = 2.605819 g / cm^3
# Si number density = 26.117630 Si / 1000 Ang^3
#
#
#
# Elastic Constant Matrix: (Units=GPa)
#
#
# Indices 1 2 3 4 5 6 
#
# 1 108.8122 37.2375 29.8623 0.0000 0.0000 0.0000
# 2 37.2375 108.8122 29.8623 0.0000 0.0000 0.0000
# 3 29.8623 29.8623 84.9839 0.0000 0.0000 0.0000
# 4 0.0000 0.0000 0.0000 23.7501 0.0000 0.0000
# 5 0.0000 0.0000 0.0000 0.0000 23.7501 0.0000
# 6 0.0000 0.0000 0.0000 0.0000 0.0000 35.7873
#
#
#
# Elastic Compliance Matrix: (Units=1/GPa)
#
#
# Indices 1 2 3 4 5 6 
#
# 1 0.010984 -0.002988 -0.002810 0.000000 0.000000 0.000000
# 2 -0.002988 0.010984 -0.002810 0.000000 0.000000 0.000000
# 3 -0.002810 -0.002810 0.013742 0.000000 0.000000 0.000000
# 4 0.000000 0.000000 0.000000 0.042105 0.000000 0.000000
# 5 0.000000 0.000000 0.000000 0.000000 0.042105 0.000000
# 6 0.000000 0.000000 0.000000 0.000000 0.000000 0.027943
#
#
# Mechanical properties :
#
#
# Convention : Reuss Voigt Hill
#
# Bulk Modulus (GPa) = 54.06951 55.17024 54.61987
# Shear Modulus (GPa) = 29.19862 30.36726 29.78294
#
# Velocity S-wave (km/s) = 3.34723 3.41355 3.38055
# Velocity P-wave (km/s) = 5.97376 6.05855 6.01631
#
# Compressibility (1/GPa) = 0.01849471
#
# Stress axis : x y z
#
# Youngs Moduli (GPa) = 91.04409 91.04409 72.77222
#
# Poissons Ratio (x) = 0.27202 0.20447
# Poissons Ratio (y) = 0.27202 0.20447
# Poissons Ratio (z) = 0.25580 0.25580
#
# Static dielectric constant tensor:
#      x y z
#    x 4.772170 0.000000 0.000000 
#    y 0.000000 4.772170 0.000000 
#    z 0.000000 0.000000 5.470690 
# 
# 
# High freq. dielectric constant tensor:
#      x y z
#    x 2.040650 0.000000 0.000000 
#    y 0.000000 2.040650 0.000000 
#    z 0.000000 0.000000 2.065220 
# 
# From -- ./inp_files/8545.got.cif
#   From: 2010.03.12/outbox.cif.g09.slc.cpg/sg178_5_cif.got.tgz:8545.got - 2010.04.02 07:02:38.
