data_PCOD8325371
_publ_section_title
;
Structure prediction by ZEFSAII (Michael W. Deem and Ramdas Pophale) SiO2 
 PCOD8325371
Probable space group: P 6/M
;
_chemical_formula_sum "Si O2"
_cell_formula_units_Z 76
_cell_length_a 18.348815
_cell_length_b 18.348815
_cell_length_c 13.549252
_cell_angle_alpha 90.000000
_cell_angle_beta 90.000000
_cell_angle_gamma 120.000000
_cell_volume 3950.590325
_symmetry_space_group_name_H-M "P 6/M"
_symmetry_group_IT_number 175
_symmetry_cell_setting 'hexagonal'
loop_
_space_group_symop_operation_xyz
x,y,z
x-y,x,z
-y,x-y,z
-x,-y,z
-x+y,-x,z
y,-x+y,z
-x,-y,-z
-x+y,-x,-z
y,-x+y,-z
x,y,-z
x-y,x,-z
-y,x-y,-z
loop_
_atom_site_type_symbol
_atom_site_label
_atom_site_fract_x
_atom_site_fract_y
_atom_site_fract_z
Si Si1 0.040594 0.179415 0.381925
Si Si2 0.629394 0.815497 0.114069
Si Si3 0.405031 0.430493 0.718886
Si Si4 0.686558 0.686014 0.887858
Si Si5 0.333334 0.666668 0.622668
Si Si6 0.359478 0.264765 0.386593
Si Si7 0.787562 0.267920 0.702542
O O1 0.110064 0.159019 0.340277
O O2 0.042063 0.179955 0.500000
O O3 0.060681 0.268636 0.335758
O O4 0.693326 0.915772 0.131290
O O5 0.682618 0.769498 0.142235
O O6 0.545861 0.780334 0.183853
O O7 0.598365 0.797894 0.000000
O O8 0.500000 0.500000 0.719021
O O9 0.382185 0.394000 0.828489
O O10 0.399301 0.359943 0.646127
O O11 0.347587 0.468518 0.682136
O O12 0.659083 0.663560 0.000000
O O13 0.333334 0.666668 0.500000
O O14 0.426114 0.718306 0.669822
O O15 0.342224 0.262296 0.500000
O O16 0.417667 0.224596 0.367716
#
# Coordination Sequence:
#
# PCOD8325371 Si02
#       7
#    12  12  12  12   4  12  12
#     4   9  17  30  50  76 106 140 180 228 284 341
#     4   9  18  36  63  94 124 156 197 243 299 357
#     4  11  23  38  59  86 113 147 190 245 299 354
#     4   9  18  35  62  92 121 154 191 237 293 358
#     4  12  27  45  64  83 115 165 201 246 304 359
#     4  11  22  37  56  79 109 150 198 244 290 343
#     4  11  23  40  61  85 118 151 200 244 299 362
#
# _framework density 19.237631
#
# number of rings (size 3 to 8) (size 9 to 14) (size 15 to 20)
#    0.000    1.895    1.579    2.526    0.000    3.789 
#    0.000    0.789    0.000    0.316    0.000    2.211 
#    0.000    0.000    0.000    0.000    0.000    0.000 
#
# Total GULP energy -941927.420298 kJ/mol
# GULP energy per Si atom -12393.781846 kJ/mol
# Density = 1.919385 g / cm^3
# Si number density = 19.237631 Si / 1000 Ang^3
#
#
#
# Elastic Constant Matrix: (Units=GPa)
#
#
# Indices 1 2 3 4 5 6 
#
# 1 154.6403 69.0029 42.5750 0.0000 0.0000 -0.0005
# 2 69.0029 154.6366 42.5748 0.0000 0.0000 -0.0006
# 3 42.5750 42.5748 71.6352 0.0000 0.0000 0.0001
# 4 0.0000 0.0000 0.0000 19.9056 0.0002 0.0000
# 5 0.0000 0.0000 0.0000 0.0002 19.9062 0.0000
# 6 -0.0005 -0.0006 0.0001 0.0000 0.0000 42.8185
#
#
#
# Elastic Compliance Matrix: (Units=1/GPa)
#
#
# Indices 1 2 3 4 5 6 
#
# 1 0.008728 -0.002949 -0.003435 0.000000 0.000000 0.000000
# 2 -0.002949 0.008728 -0.003435 0.000000 0.000000 0.000000
# 3 -0.003435 -0.003435 0.018042 0.000000 0.000000 0.000000
# 4 0.000000 0.000000 0.000000 0.050237 0.000000 0.000000
# 5 0.000000 0.000000 0.000000 0.000000 0.050236 0.000000
# 6 0.000000 0.000000 0.000000 0.000000 0.000000 0.023354
#
#
# Mechanical properties :
#
#
# Convention : Reuss Voigt Hill
#
# Bulk Modulus (GPa) = 63.04464 76.57972 69.81218
# Shear Modulus (GPa) = 27.13697 31.64335 29.39016
#
# Velocity S-wave (km/s) = 3.75990 4.06010 3.91288
# Velocity P-wave (km/s) = 7.18970 7.86593 7.53540
#
# Compressibility (1/GPa) = 0.01586178
#
# Stress axis : x y z
#
# Youngs Moduli (GPa) = 114.57147 114.56839 55.42511
#
# Poissons Ratio (x) = 0.33787 0.19037
# Poissons Ratio (y) = 0.33788 0.19037
# Poissons Ratio (z) = 0.39352 0.39352
#
# Static dielectric constant tensor:
#      x y z
#    x 3.765410 -0.000010 0.000000 
#    y -0.000010 3.765420 0.000000 
#    z 0.000000 0.000000 3.611820 
# 
# 
# High freq. dielectric constant tensor:
#      x y z
#    x 1.751440 0.000000 0.000000 
#    y 0.000000 1.751440 0.000000 
#    z 0.000000 0.000000 1.747190 
# 
# From -- ./inp_files/2541.got.cif
#   From: 2010.03.12/outbox.cif.g09.slc.cpg/sg175_2_cif.got.tgz:2541.got - 2010.04.02 06:55:29.
