data_PCOD8325626
_publ_section_title
;
Structure prediction by ZEFSAII (Michael W. Deem and Ramdas Pophale) SiO2 
 PCOD8325626
Probable space group: P 63/M
;
_chemical_formula_sum "Si O2"
_cell_formula_units_Z 40
_cell_length_a 16.029243
_cell_length_b 16.029243
_cell_length_c 8.938075
_cell_angle_alpha 90.000000
_cell_angle_beta 90.000000
_cell_angle_gamma 120.000000
_cell_volume 1988.843690
_symmetry_space_group_name_H-M "P 63/M"
_symmetry_group_IT_number 176
_symmetry_cell_setting 'hexagonal'
loop_
_space_group_symop_operation_xyz
x,y,z
x-y,x,1/2+z
-y,x-y,z
-x,-y,1/2+z
-x+y,-x,z
y,-x+y,1/2+z
-x,-y,-z
-x+y,-x,1/2-z
y,-x+y,-z
x,y,1/2-z
x-y,x,-z
-y,x-y,1/2-z
loop_
_atom_site_type_symbol
_atom_site_label
_atom_site_fract_x
_atom_site_fract_y
_atom_site_fract_z
Si Si1 0.170292 0.980467 0.427708
Si Si2 0.355203 0.964171 0.078476
Si Si3 0.666668 0.333334 0.924736
Si Si4 0.144886 0.586667 0.578730
O O1 0.163112 0.992358 0.250000
O O2 0.185054 0.074305 0.512915
O O3 0.259796 0.965872 0.469214
O O4 0.349412 0.931397 0.250000
O O5 0.446851 0.068983 0.052864
O O6 0.368566 0.890188 0.975884
O O7 0.666667 0.333334 0.750000
O O8 0.574947 0.236676 0.984465
O O9 0.174295 0.591695 0.750000
#
# Coordination Sequence:
#
# PCOD8325626 Si02
#       4
#    12  12   4  12
#     4  11  24  42  64  91 121 156 200 249 306 363
#     4   9  21  41  63  90 122 158 201 249 302 362
#     4  12  25  38  58  90 130 167 205 249 301 353
#     4  10  21  39  62  90 124 162 205 251 300 355
#
# _framework density 20.112188
#
# number of rings (size 3 to 8) (size 9 to 14) (size 15 to 20)
#    0.000    1.800    0.000    3.000    4.200    3.600 
#    0.000    0.000    0.000    0.000    0.000    0.000 
#    0.000    0.000    0.000    0.000    0.000    0.000 
#
# Total GULP energy -496146.502378 kJ/mol
# GULP energy per Si atom -12403.662559 kJ/mol
# Density = 2.006641 g / cm^3
# Si number density = 20.112188 Si / 1000 Ang^3
#
#
#
# Elastic Constant Matrix: (Units=GPa)
#
#
# Indices 1 2 3 4 5 6 
#
# 1 65.2873 20.0884 23.9664 0.0000 0.0000 -0.0013
# 2 20.0884 65.2836 23.9654 0.0000 0.0000 -0.0022
# 3 23.9664 23.9654 95.1412 0.0000 0.0000 -0.0016
# 4 0.0000 0.0000 0.0000 34.9827 -0.0002 0.0000
# 5 0.0000 0.0000 0.0000 -0.0002 34.9827 0.0000
# 6 -0.0013 -0.0022 -0.0016 0.0000 0.0000 22.5993
#
#
#
# Elastic Compliance Matrix: (Units=1/GPa)
#
#
# Indices 1 2 3 4 5 6 
#
# 1 0.017883 -0.004241 -0.003437 0.000000 0.000000 0.000000
# 2 -0.004241 0.017884 -0.003437 0.000000 0.000000 0.000001
# 3 -0.003437 -0.003437 0.012242 0.000000 0.000000 0.000000
# 4 0.000000 0.000000 0.000000 0.028586 0.000000 0.000000
# 5 0.000000 0.000000 0.000000 0.000000 0.028586 0.000000
# 6 0.000000 0.000001 0.000000 0.000000 0.000000 0.044249
#
#
# Mechanical properties :
#
#
# Convention : Reuss Voigt Hill
#
# Bulk Modulus (GPa) = 38.78826 40.19474 39.49150
# Shear Modulus (GPa) = 27.73881 29.02573 28.38227
#
# Velocity S-wave (km/s) = 3.71779 3.80306 3.76067
# Velocity P-wave (km/s) = 6.14468 6.27001 6.20766
#
# Compressibility (1/GPa) = 0.02578099
#
# Stress axis : x y z
#
# Youngs Moduli (GPa) = 55.91751 55.91450 81.68586
#
# Poissons Ratio (x) = 0.23715 0.28072
# Poissons Ratio (y) = 0.23717 0.28072
# Poissons Ratio (z) = 0.19216 0.19215
#
# Static dielectric constant tensor:
#      x y z
#    x 3.684620 0.000010 0.000000 
#    y 0.000010 3.684630 0.000000 
#    z 0.000000 0.000000 3.750530 
# 
# 
# High freq. dielectric constant tensor:
#      x y z
#    x 1.792010 0.000000 0.000000 
#    y 0.000000 1.792010 0.000000 
#    z 0.000000 0.000000 1.794340 
# 
# From -- ./inp_files/495.got.cif
#   From: 2010.06.25/outbox.cif.g09.slc.cpg/sg176_1_cif.got.tgz:495.got - 2010.06.28 12:15:01.
