data_PCOD8325439
_publ_section_title
;
Structure prediction by ZEFSAII (Michael W. Deem and Ramdas Pophale) SiO2 
 PCOD8325439
Probable space group: P 63/M
;
_chemical_formula_sum "Si O2"
_cell_formula_units_Z 54
_cell_length_a 11.981467
_cell_length_b 11.981467
_cell_length_c 21.328609
_cell_angle_alpha 90.000000
_cell_angle_beta 90.000000
_cell_angle_gamma 120.000000
_cell_volume 2651.631419
_symmetry_space_group_name_H-M "P 63/M"
_symmetry_group_IT_number 176
_symmetry_cell_setting 'hexagonal'
loop_
_space_group_symop_operation_xyz
x,y,z
x-y,x,1/2+z
-y,x-y,z
-x,-y,1/2+z
-x+y,-x,z
y,-x+y,1/2+z
-x,-y,-z
-x+y,-x,1/2-z
y,-x+y,-z
x,y,1/2-z
x-y,x,-z
-y,x-y,1/2-z
loop_
_atom_site_type_symbol
_atom_site_label
_atom_site_fract_x
_atom_site_fract_y
_atom_site_fract_z
Si Si1 0.711112 0.584398 0.379033
Si Si2 0.339641 0.525122 0.750000
Si Si3 0.016055 0.257228 0.017880
Si Si4 0.630505 0.455014 0.679195
Si Si5 0.940639 0.552538 0.086463
O O1 0.654264 0.556788 0.308660
O O2 0.737591 0.719277 0.409039
O O3 0.842676 0.582422 0.376289
O O4 0.601668 0.472548 0.422628
O O5 0.461644 0.671679 0.750000
O O6 0.138556 0.239324 0.017879
O O7 0.038000 0.385507 0.982385
O O8 0.527350 0.301347 0.670661
O O9 0.617182 0.498294 0.750000
O O10 0.608070 0.536637 0.626464
#
# Coordination Sequence:
#
# PCOD8325439 Si02
#       5
#    12   6  12  12  12
#     4  11  22  36  59  93 125 164 204 263 329 383
#     4  10  18  36  56  86 132 166 192 248 324 396
#     4  10  24  42  63  86 118 167 220 271 324 385
#     4   8  19  37  55  85 125 170 208 247 305 377
#     4  11  21  38  62  91 126 161 215 265 325 384
#
# _framework density 20.364820999999999
#
# number of rings (size 3 to 8) (size 9 to 14) (size 15 to 20)
#    0.667    1.333    2.222    1.333    6.222    0.000 
#    0.000    0.000    0.000    0.000    0.000    0.000 
#    0.000    0.000    0.000    0.000    0.000    0.000 
#
# Total GULP energy -669062.524241 kJ/mol
# GULP energy per Si atom -12390.046745 kJ/mol
# Density = 2.031847 g / cm^3
# Si number density = 20.364821 Si / 1000 Ang^3
#
#
#
# Elastic Constant Matrix: (Units=GPa)
#
#
# Indices 1 2 3 4 5 6 
#
# 1 48.4924 46.2317 29.4447 0.0000 0.0000 0.0000
# 2 46.2317 48.4924 29.4447 0.0000 0.0000 0.0000
# 3 29.4447 29.4447 71.9739 0.0000 0.0000 0.0000
# 4 0.0000 0.0000 0.0000 5.7597 0.0000 0.0000
# 5 0.0000 0.0000 0.0000 0.0000 5.7597 0.0000
# 6 0.0000 0.0000 0.0000 0.0000 0.0000 1.1303
#
#
#
# Elastic Compliance Matrix: (Units=1/GPa)
#
#
# Indices 1 2 3 4 5 6 
#
# 1 0.228253 -0.214095 -0.005792 0.000000 0.000000 0.000000
# 2 -0.214095 0.228253 -0.005792 0.000000 0.000000 0.000000
# 3 -0.005792 -0.005792 0.018633 0.000000 0.000000 0.000000
# 4 0.000000 0.000000 0.000000 0.173621 0.000000 0.000000
# 5 0.000000 0.000000 0.000000 0.000000 0.173621 0.000000
# 6 0.000000 0.000000 0.000000 0.000000 0.000000 0.884696
#
#
# Mechanical properties :
#
#
# Convention : Reuss Voigt Hill
#
# Bulk Modulus (GPa) = 42.05105 42.13343 42.09224
# Shear Modulus (GPa) = 2.30802 6.78577 4.54689
#
# Velocity S-wave (km/s) = 1.06574 1.82739 1.49585
# Velocity P-wave (km/s) = 4.71255 5.01863 4.86800
#
# Compressibility (1/GPa) = 0.02378062
#
# Stress axis : x y z
#
# Youngs Moduli (GPa) = 4.38110 4.38110 53.66828
#
# Poissons Ratio (x) = 0.93797 0.31085
# Poissons Ratio (y) = 0.93797 0.31085
# Poissons Ratio (z) = 0.02538 0.02538
#
# Static dielectric constant tensor:
#      x y z
#    x 3.635830 0.000000 0.000000 
#    y 0.000000 3.635830 0.000000 
#    z 0.000000 0.000000 3.576620 
# 
# 
# High freq. dielectric constant tensor:
#      x y z
#    x 1.787030 0.000000 0.000000 
#    y 0.000000 1.787030 0.000000 
#    z 0.000000 0.000000 1.791270 
# 
# From -- ./inp_files/4005.got.cif
#   From: 2010.06.25/outbox.cif.g09.slc.cpg/sg176_3_cif.got.tgz:4005.got - 2010.06.28 12:15:01.
