data_PCOD8325799
_publ_section_title
;
Structure prediction by ZEFSAII (Michael W. Deem and Ramdas Pophale) SiO2 
 PCOD8325799
Probable space group: P 61 2 2
;
_chemical_formula_sum "Si O2"
_cell_formula_units_Z 66
_cell_length_a 13.862125
_cell_length_b 13.862125
_cell_length_c 20.936176
_cell_angle_alpha 90.000000
_cell_angle_beta 90.000000
_cell_angle_gamma 120.000000
_cell_volume 3484.075950
_symmetry_space_group_name_H-M "P 61 2 2"
_symmetry_group_IT_number 178
_symmetry_cell_setting 'hexagonal'
loop_
_space_group_symop_operation_xyz
x,y,z
x-y,x,1/6+z
-y,x-y,1/3+z
-x,-y,1/2+z
-x+y,-x,2/3+z
y,-x+y,5/6+z
x-y,-y,-z
-x,-x+y,2/3-z
y,x,1/3-z
-y,-x,5/6-z
-x+y,y,1/2-z
x,x-y,1/6-z
loop_
_atom_site_type_symbol
_atom_site_label
_atom_site_fract_x
_atom_site_fract_y
_atom_site_fract_z
Si Si1 0.167621 0.986243 0.701379
Si Si2 0.327813 0.093881 0.809645
Si Si3 0.272498 0.678442 0.490692
Si Si4 0.512831 0.182634 0.389201
Si Si5 0.124837 0.062419 0.583334
Si Si6 0.522566 0.025287 0.677445
O O1 0.090792 0.851739 0.694194
O O2 0.270356 0.015727 0.747958
O O3 0.206993 0.046361 0.631796
O O4 0.092605 0.035344 0.724416
O O5 0.393769 0.221474 0.786880
O O6 0.403825 0.049815 0.841514
O O7 0.290453 0.709548 0.416667
O O8 0.323077 0.599671 0.507798
O O9 0.335286 0.786814 0.536505
O O10 0.140969 0.619124 0.506328
O O11 0.502979 0.064986 0.372466
O O12 0.490444 0.980887 0.750000
#
# Coordination Sequence:
#
# PCOD8325799 Si02
#       6
#    12  12  12  12   6  12
#     4   9  17  31  52  77 112 142 194 230 297 356
#     4  10  19  33  56  83 106 150 196 241 282 367
#     4  10  21  40  58  86 119 152 195 252 310 360
#     4  10  21  38  60  83 115 157 198 246 303 364
#     4   8  16  32  48  74 112 150 164 238 298 346
#     4  11  20  38  59  83 115 159 204 247 305 366
#
# _framework density 18.943328999999999
#
# number of rings (size 3 to 8) (size 9 to 14) (size 15 to 20)
#    0.000    2.182    3.636    1.636    0.000    2.182 
#    1.636    5.455    0.000    8.727    0.000    0.000 
#    0.000    0.000    0.000    0.000    0.000    0.000 
#
# Total GULP energy -817843.106405 kJ/mol
# GULP energy per Si atom -12391.562218 kJ/mol
# Density = 1.890021 g / cm^3
# Si number density = 18.943329 Si / 1000 Ang^3
#
#
#
# Elastic Constant Matrix: (Units=GPa)
#
#
# Indices 1 2 3 4 5 6 
#
# 1 113.5625 12.0877 41.2972 0.0000 0.0000 0.0000
# 2 12.0877 113.5625 41.2972 0.0000 0.0000 0.0000
# 3 41.2972 41.2972 118.7255 0.0000 0.0000 0.0000
# 4 0.0000 0.0000 0.0000 24.8943 0.0000 0.0000
# 5 0.0000 0.0000 0.0000 0.0000 24.8943 0.0000
# 6 0.0000 0.0000 0.0000 0.0000 0.0000 50.7374
#
#
#
# Elastic Compliance Matrix: (Units=1/GPa)
#
#
# Indices 1 2 3 4 5 6 
#
# 1 0.010086 0.000232 -0.003589 0.000000 0.000000 0.000000
# 2 0.000232 0.010086 -0.003589 0.000000 0.000000 0.000000
# 3 -0.003589 -0.003589 0.010919 0.000000 0.000000 0.000000
# 4 0.000000 0.000000 0.000000 0.040170 0.000000 0.000000
# 5 0.000000 0.000000 0.000000 0.000000 0.040170 0.000000
# 6 0.000000 0.000000 0.000000 0.000000 0.000000 0.019709
#
#
# Mechanical properties :
#
#
# Convention : Reuss Voigt Hill
#
# Bulk Modulus (GPa) = 58.14171 59.46830 58.80501
# Shear Modulus (GPa) = 33.16389 36.84977 35.00683
#
# Velocity S-wave (km/s) = 4.18866 4.41530 4.30347
# Velocity P-wave (km/s) = 7.35882 7.57984 7.47015
#
# Compressibility (1/GPa) = 0.01719936
#
# Stress axis : x y z
#
# Youngs Moduli (GPa) = 99.14552 99.14552 91.57943
#
# Poissons Ratio (x) = -0.02295 0.32867
# Poissons Ratio (y) = -0.02295 0.32867
# Poissons Ratio (z) = 0.35582 0.35582
#
# Static dielectric constant tensor:
#      x y z
#    x 3.409280 0.000000 0.000000 
#    y 0.000000 3.409280 0.000000 
#    z 0.000000 0.000000 3.687920 
# 
# 
# High freq. dielectric constant tensor:
#      x y z
#    x 1.731650 0.000000 0.000000 
#    y 0.000000 1.731650 0.000000 
#    z 0.000000 0.000000 1.727300 
# 
# From -- ./inp_files/7639.got.cif
#   From: 2010.03.12/outbox.cif.g09.slc.cpg/sg178_4_cif.got.tgz:7639.got - 2010.04.02 07:02:38.
