data_PCOD8325739
_publ_section_title
;
Structure prediction by ZEFSAII (Michael W. Deem and Ramdas Pophale) SiO2 
 PCOD8325739
Probable space group: P 6 2 2
;
_chemical_formula_sum "Si O2"
_cell_formula_units_Z 39
_cell_length_a 13.542579
_cell_length_b 13.542579
_cell_length_c 14.324490
_cell_angle_alpha 90.000000
_cell_angle_beta 90.000000
_cell_angle_gamma 120.000000
_cell_volume 2275.163206
_symmetry_space_group_name_H-M "P 6 2 2"
_symmetry_group_IT_number 177
_symmetry_cell_setting 'hexagonal'
loop_
_space_group_symop_operation_xyz
x,y,z
x-y,x,z
-y,x-y,z
-x,-y,z
-x+y,-x,z
y,-x+y,z
x-y,-y,-z
-x,-x+y,-z
y,x,-z
-y,-x,-z
-x+y,y,-z
x,x-y,-z
loop_
_atom_site_type_symbol
_atom_site_label
_atom_site_fract_x
_atom_site_fract_y
_atom_site_fract_z
Si Si1 0.000000 0.500000 0.500000
Si Si2 0.124786 0.669331 0.037854
Si Si3 0.543938 0.887336 0.667626
Si Si4 0.547367 0.675764 0.742107
O O1 0.916989 0.387588 0.560681
O O2 0.136985 0.686800 0.147819
O O3 0.205726 0.794275 0.000000
O O4 0.163882 0.581941 0.000000
O O5 0.000000 0.630716 0.000000
O O6 0.574465 0.788244 0.682707
O O7 0.424656 0.845953 0.718872
O O8 0.644986 0.001713 0.713199
#
# Coordination Sequence:
#
# PCOD8325739 Si02
#       4
#     3  12  12  12
#     4   8  20  36  52  80  94 134 164 204 256 310
#     4  11  20  31  49  72 101 134 173 208 246 300
#     4  10  20  33  53  71 104 128 169 207 257 307
#     4  10  19  33  48  74 100 136 164 211 255 297
#
# _framework density 17.141628000000001
#
# number of rings (size 3 to 8) (size 9 to 14) (size 15 to 20)
#    0.000    2.154    0.000    8.308    0.000    4.923 
#    0.000    0.000    0.000    0.923    0.000    4.308 
#    0.000    9.846    0.000    0.000    0.000    0.000 
#
# Total GULP energy -483379.805576 kJ/mol
# GULP energy per Si atom -12394.353989 kJ/mol
# Density = 1.710261 g / cm^3
# Si number density = 17.141628 Si / 1000 Ang^3
#
#
#
# Elastic Constant Matrix: (Units=GPa)
#
#
# Indices 1 2 3 4 5 6 
#
# 1 81.4996 93.0782 47.3587 0.0000 0.0000 0.0000
# 2 93.0782 81.4996 47.3587 0.0000 0.0000 0.0000
# 3 47.3587 47.3587 162.8182 0.0000 0.0000 0.0000
# 4 0.0000 0.0000 0.0000 52.8043 0.0000 0.0000
# 5 0.0000 0.0000 0.0000 0.0000 52.8043 0.0000
# 6 0.0000 0.0000 0.0000 0.0000 0.0000 -5.7893
#
#
#
# Elastic Compliance Matrix: (Units=1/GPa)
#
#
# Indices 1 2 3 4 5 6 
#
# 1 -0.039783 0.046584 -0.001978 0.000000 0.000000 0.000000
# 2 0.046584 -0.039783 -0.001978 0.000000 0.000000 0.000000
# 3 -0.001978 -0.001978 0.007293 0.000000 0.000000 0.000000
# 4 0.000000 0.000000 0.000000 0.018938 0.000000 0.000000
# 5 0.000000 0.000000 0.000000 0.000000 0.018938 0.000000
# 6 0.000000 0.000000 0.000000 0.000000 0.000000 -0.172733
#
#
# Mechanical properties :
#
#
# Convention : Reuss Voigt Hill
#
# Bulk Modulus (GPa) = 77.02808 77.93426 77.48117
# Shear Modulus (GPa) = -17.35766 29.16534 5.90384
#
# Velocity S-wave (km/s) = -3.18559 4.12932 1.85786
# Velocity P-wave (km/s) = 5.61277 8.26430 7.06406
#
# Compressibility (1/GPa) = 0.01298228
#
# Stress axis : x y z
#
# Youngs Moduli (GPa) = -25.13663 -25.13663 137.12375
#
# Poissons Ratio (x) = 1.17097 0.27128
# Poissons Ratio (y) = 1.17097 0.27128
# Poissons Ratio (z) = -0.04973 -0.04973
#
# Static dielectric constant tensor:
#      x y z
#    x 3.062900 0.000000 0.000000 
#    y 0.000000 3.062900 0.000000 
#    z 0.000000 0.000000 3.386930 
# 
# 
# High freq. dielectric constant tensor:
#      x y z
#    x 1.647140 0.000000 0.000000 
#    y 0.000000 1.647140 0.000000 
#    z 0.000000 0.000000 1.683550 
# 
# From -- ./inp_files/1701.got.cif
#   From: 2010.03.12/outbox.cif.g09.slc.cpg/sg177_1_cif.got.tgz:1701.got - 2010.04.02 07:00:27.
