data_PCOD8325889
_publ_section_title
;
Structure prediction by ZEFSAII (Michael W. Deem and Ramdas Pophale) SiO2 
 PCOD8325889
Probable space group: P 61 2 2
;
_chemical_formula_sum "Si O2"
_cell_formula_units_Z 84
_cell_length_a 14.581004
_cell_length_b 14.581004
_cell_length_c 23.569529
_cell_angle_alpha 90.000000
_cell_angle_beta 90.000000
_cell_angle_gamma 120.000000
_cell_volume 4339.666882
_symmetry_space_group_name_H-M "P 61 2 2"
_symmetry_group_IT_number 178
_symmetry_cell_setting 'hexagonal'
loop_
_space_group_symop_operation_xyz
x,y,z
x-y,x,1/6+z
-y,x-y,1/3+z
-x,-y,1/2+z
-x+y,-x,2/3+z
y,-x+y,5/6+z
x-y,-y,-z
-x,-x+y,2/3-z
y,x,1/3-z
-y,-x,5/6-z
-x+y,y,1/2-z
x,x-y,1/6-z
loop_
_atom_site_type_symbol
_atom_site_label
_atom_site_fract_x
_atom_site_fract_y
_atom_site_fract_z
Si Si1 0.225176 0.767479 0.688225
Si Si2 0.006172 0.409802 0.208021
Si Si3 0.330042 0.000000 0.500000
Si Si4 0.775362 0.192084 0.853247
Si Si5 0.307761 0.646302 0.851765
Si Si6 0.000000 0.648489 0.833334
Si Si7 0.794921 0.225241 0.518229
Si Si8 0.597859 0.626842 0.291002
O O1 0.099410 0.688019 0.681155
O O2 0.282013 0.698276 0.683086
O O3 0.252028 0.824999 0.749219
O O4 0.269040 0.860550 0.641143
O O5 0.001482 0.413116 0.276161
O O6 0.105929 0.401363 0.187850
O O7 0.025001 0.521692 0.185086
O O8 0.215433 0.894108 0.494497
O O9 0.384736 0.987127 0.556564
O O10 0.770963 0.229038 0.916667
O O11 0.747267 0.266546 0.815506
O O12 0.698804 0.067317 0.844518
O O13 0.322966 0.677035 0.916667
O O14 0.234532 0.690225 0.826755
O O15 0.895240 0.659162 0.836964
#
# Coordination Sequence:
#
# PCOD8325889 Si02
#       8
#    12  12   6  12  12   6  12  12
#     4  11  24  39  56  85 123 156 197 245 299 357
#     4  11  22  39  59  87 119 158 197 245 298 357
#     4  10  23  38  60  85 114 156 202 241 292 357
#     4  10  22  37  57  80 115 150 194 240 285 339
#     4  12  22  33  53  84 116 158 195 235 286 349
#     4  10  23  38  60  87 116 158 204 245 290 355
#     4  11  24  38  59  83 121 158 200 245 295 353
#     4  11  22  39  58  86 117 156 194 245 297 353
#
# _framework density 19.356324000000001
#
# number of rings (size 3 to 8) (size 9 to 14) (size 15 to 20)
#    0.000    1.143    2.857    3.857    8.000    2.286 
#    0.000    0.000    0.000    0.857    0.000    4.000 
#    0.000    0.000    0.000    0.000    0.000    0.000 
#
# Total GULP energy -1041432.100146 kJ/mol
# GULP energy per Si atom -12398.001192 kJ/mol
# Density = 1.931227 g / cm^3
# Si number density = 19.356324 Si / 1000 Ang^3
#
#
#
# Elastic Constant Matrix: (Units=GPa)
#
#
# Indices 1 2 3 4 5 6 
#
# 1 120.8380 68.1552 33.5257 0.0000 0.0000 0.0000
# 2 68.1552 120.8380 33.5257 0.0000 0.0000 0.0000
# 3 33.5257 33.5257 74.4919 0.0000 0.0000 0.0000
# 4 0.0000 0.0000 0.0000 26.6976 0.0000 0.0000
# 5 0.0000 0.0000 0.0000 0.0000 26.6976 0.0000
# 6 0.0000 0.0000 0.0000 0.0000 0.0000 26.3414
#
#
#
# Elastic Compliance Matrix: (Units=1/GPa)
#
#
# Indices 1 2 3 4 5 6 
#
# 1 0.012639 -0.006342 -0.002834 0.000000 0.000000 0.000000
# 2 -0.006342 0.012639 -0.002834 0.000000 0.000000 0.000000
# 3 -0.002834 -0.002834 0.015975 0.000000 0.000000 0.000000
# 4 0.000000 0.000000 0.000000 0.037457 0.000000 0.000000
# 5 0.000000 0.000000 0.000000 0.000000 0.037457 0.000000
# 6 0.000000 0.000000 0.000000 0.000000 0.000000 0.037963
#
#
# Mechanical properties :
#
#
# Convention : Reuss Voigt Hill
#
# Bulk Modulus (GPa) = 58.02853 65.17569 61.60211
# Shear Modulus (GPa) = 27.18960 28.01142 27.60051
#
# Velocity S-wave (km/s) = 3.75198 3.80826 3.78023
# Velocity P-wave (km/s) = 6.98670 7.28572 7.13778
#
# Compressibility (1/GPa) = 0.01723290
#
# Stress axis : x y z
#
# Youngs Moduli (GPa) = 79.11984 79.11984 62.59760
#
# Poissons Ratio (x) = 0.50181 0.17739
# Poissons Ratio (y) = 0.50181 0.17739
# Poissons Ratio (z) = 0.22421 0.22421
#
# Static dielectric constant tensor:
#      x y z
#    x 3.535850 0.000000 0.000000 
#    y 0.000000 3.535850 0.000000 
#    z 0.000000 0.000000 3.627500 
# 
# 
# High freq. dielectric constant tensor:
#      x y z
#    x 1.738620 0.000000 0.000000 
#    y 0.000000 1.738620 0.000000 
#    z 0.000000 0.000000 1.764960 
# 
# From -- ./inp_files/8366.got.cif
#   From: 2010.03.12/outbox.cif.g09.slc.cpg/sg178_5_cif.got.tgz:8366.got - 2010.04.02 07:02:38.
