data_PCOD8325557
_publ_section_title
;
Structure prediction by ZEFSAII (Michael W. Deem and Ramdas Pophale) SiO2 
 PCOD8325557
Probable space group: P 63/M
;
_chemical_formula_sum "Si O2"
_cell_formula_units_Z 60
_cell_length_a 15.452423
_cell_length_b 15.452423
_cell_length_c 13.643523
_cell_angle_alpha 90.000000
_cell_angle_beta 90.000000
_cell_angle_gamma 120.000000
_cell_volume 2821.306928
_symmetry_space_group_name_H-M "P 63/M"
_symmetry_group_IT_number 176
_symmetry_cell_setting 'hexagonal'
loop_
_space_group_symop_operation_xyz
x,y,z
x-y,x,1/2+z
-y,x-y,z
-x,-y,1/2+z
-x+y,-x,z
y,-x+y,1/2+z
-x,-y,-z
-x+y,-x,1/2-z
y,-x+y,-z
x,y,1/2-z
x-y,x,-z
-y,x-y,1/2-z
loop_
_atom_site_type_symbol
_atom_site_label
_atom_site_fract_x
_atom_site_fract_y
_atom_site_fract_z
Si Si1 0.976399 0.804369 0.638107
Si Si2 0.413724 0.241598 0.862010
Si Si3 0.660951 0.603278 0.953922
Si Si4 0.030201 0.212901 0.863718
Si Si5 0.986195 0.536926 0.638626
O O1 0.006126 0.807722 0.750000
O O2 0.921014 0.690887 0.599936
O O3 0.902745 0.848467 0.624944
O O4 0.086440 0.872026 0.588444
O O5 0.401685 0.202309 0.750000
O O6 0.444223 0.174859 0.927330
O O7 0.490990 0.360089 0.871219
O O8 0.716312 0.721039 0.929350
O O9 0.560324 0.552420 0.889095
O O10 0.630269 0.575714 0.067478
O O11 0.040369 0.246432 0.750000
O O12 0.024001 0.569961 0.750000
#
# Coordination Sequence:
#
# PCOD8325557 Si02
#       5
#    12  12  12  12  12
#     4   8  14  24  43  75 113 152 183 223 276 332
#     4   9  18  34  54  79 115 148 185 238 289 339
#     4  10  20  35  57  82 112 152 194 239 295 353
#     4   9  15  26  48  80 119 153 191 236 284 344
#     4  10  21  37  57  82 114 150 193 246 301 350
#
# _framework density 21.266739999999999
#
# number of rings (size 3 to 8) (size 9 to 14) (size 15 to 20)
#    0.000    2.800    0.000    3.400    0.000    3.200 
#    1.200    0.000    0.000    6.000    0.000   12.600 
#    2.000    0.000    3.600    0.000    0.000    0.000 
#
# Total GULP energy -743381.655775 kJ/mol
# GULP energy per Si atom -12389.694263 kJ/mol
# Density = 2.121834 g / cm^3
# Si number density = 21.266740 Si / 1000 Ang^3
#
#
#
# Elastic Constant Matrix: (Units=GPa)
#
#
# Indices 1 2 3 4 5 6 
#
# 1 77.2494 40.2935 28.3211 0.0000 0.0000 0.0000
# 2 40.2935 77.2494 28.3211 0.0000 0.0000 0.0000
# 3 28.3211 28.3211 132.7963 0.0000 0.0000 0.0000
# 4 0.0000 0.0000 0.0000 22.9644 0.0000 0.0000
# 5 0.0000 0.0000 0.0000 0.0000 22.9644 0.0000
# 6 0.0000 0.0000 0.0000 0.0000 0.0000 18.4780
#
#
#
# Elastic Compliance Matrix: (Units=1/GPa)
#
#
# Indices 1 2 3 4 5 6 
#
# 1 0.018271 -0.008789 -0.002022 0.000000 0.000000 0.000000
# 2 -0.008789 0.018271 -0.002022 0.000000 0.000000 0.000000
# 3 -0.002022 -0.002022 0.008393 0.000000 0.000000 0.000000
# 4 0.000000 0.000000 0.000000 0.043546 0.000000 0.000000
# 5 0.000000 0.000000 0.000000 0.000000 0.043546 0.000000
# 6 0.000000 0.000000 0.000000 0.000000 0.000000 0.054118
#
#
# Mechanical properties :
#
#
# Convention : Reuss Voigt Hill
#
# Bulk Modulus (GPa) = 51.89933 53.46294 52.68114
# Shear Modulus (GPa) = 22.91132 25.57198 24.24165
#
# Velocity S-wave (km/s) = 3.28583 3.47138 3.37988
# Velocity P-wave (km/s) = 6.23318 6.42348 6.32905
#
# Compressibility (1/GPa) = 0.01926807
#
# Stress axis : x y z
#
# Youngs Moduli (GPa) = 54.73269 54.73269 119.14883
#
# Poissons Ratio (x) = 0.48102 0.24094
# Poissons Ratio (y) = 0.48102 0.24094
# Poissons Ratio (z) = 0.11068 0.11068
#
# Static dielectric constant tensor:
#      x y z
#    x 3.841440 0.000000 0.000000 
#    y 0.000000 3.841440 0.000000 
#    z 0.000000 0.000000 3.951810 
# 
# 
# High freq. dielectric constant tensor:
#      x y z
#    x 1.814900 0.000000 0.000000 
#    y 0.000000 1.814900 0.000000 
#    z 0.000000 0.000000 1.847730 
# 
# From -- ./inp_files/2646.got.cif
#   From: 2010.06.25/outbox.cif.g09.slc.cpg/sg176_2_cif.got.tgz:2646.got - 2010.06.28 12:15:01.
