data_PCOD8325553
_publ_section_title
;
Structure prediction by ZEFSAII (Michael W. Deem and Ramdas Pophale) SiO2 
 PCOD8325553
Probable space group: P 63/M
;
_chemical_formula_sum "Si O2"
_cell_formula_units_Z 52
_cell_length_a 15.093148
_cell_length_b 15.093148
_cell_length_c 12.447577
_cell_angle_alpha 90.000000
_cell_angle_beta 90.000000
_cell_angle_gamma 120.000000
_cell_volume 2455.698893
_symmetry_space_group_name_H-M "P 63/M"
_symmetry_group_IT_number 176
_symmetry_cell_setting 'hexagonal'
loop_
_space_group_symop_operation_xyz
x,y,z
x-y,x,1/2+z
-y,x-y,z
-x,-y,1/2+z
-x+y,-x,z
y,-x+y,1/2+z
-x,-y,-z
-x+y,-x,1/2-z
y,-x+y,-z
x,y,1/2-z
x-y,x,-z
-y,x-y,1/2-z
loop_
_atom_site_type_symbol
_atom_site_label
_atom_site_fract_x
_atom_site_fract_y
_atom_site_fract_z
Si Si1 0.238472 0.853415 0.492927
Si Si2 0.058332 0.710589 0.125145
Si Si3 0.137371 0.655384 0.875587
Si Si4 0.519710 0.436059 0.623699
Si Si5 0.666668 0.333334 0.123096
O O1 0.152395 0.825593 0.398836
O O2 0.171942 0.766877 0.579734
O O3 0.331823 0.843300 0.441173
O O4 0.275302 0.962022 0.549711
O O5 0.025112 0.698278 0.250000
O O6 0.101114 0.632374 0.096166
O O7 0.136292 0.667552 0.750000
O O8 0.217289 0.620797 0.916014
O O9 0.029730 0.564383 0.915061
O O10 0.512072 0.411911 0.750000
O O11 0.666667 0.333334 0.250000
#
# Coordination Sequence:
#
# PCOD8325553 Si02
#       5
#    12  12  12  12   4
#     4  12  22  39  63  90 122 172 208 252 321 370
#     4  11  25  43  63  94 131 163 211 263 307 374
#     4  10  20  34  58  87 122 159 207 258 306 367
#     4  10  22  42  60  88 129 167 208 258 309 369
#     4   9  18  30  48  84 118 152 196 252 297 351
#
# _framework density 21.175235000000001
#
# number of rings (size 3 to 8) (size 9 to 14) (size 15 to 20)
#    0.000    1.385    2.308    3.462    3.231    3.692 
#    1.385    0.000    0.000    0.462    0.000    0.000 
#    0.000    0.000    0.000    0.000    0.000    0.000 
#
# Total GULP energy -644282.254290 kJ/mol
# GULP energy per Si atom -12390.043352 kJ/mol
# Density = 2.112704 g / cm^3
# Si number density = 21.175235 Si / 1000 Ang^3
#
#
#
# Elastic Constant Matrix: (Units=GPa)
#
#
# Indices 1 2 3 4 5 6 
#
# 1 86.3479 49.8807 38.7139 0.0000 0.0000 0.0008
# 2 49.8807 86.3478 38.7144 0.0000 0.0000 -0.0016
# 3 38.7139 38.7144 86.4583 0.0000 0.0000 -0.0002
# 4 0.0000 0.0000 0.0000 33.9790 0.0000 0.0000
# 5 0.0000 0.0000 0.0000 0.0000 33.9789 0.0000
# 6 0.0008 -0.0016 -0.0002 0.0000 0.0000 18.2335
#
#
#
# Elastic Compliance Matrix: (Units=1/GPa)
#
#
# Indices 1 2 3 4 5 6 
#
# 1 0.018634 -0.008788 -0.004409 0.000000 0.000000 -0.000002
# 2 -0.008788 0.018634 -0.004409 0.000000 0.000000 0.000002
# 3 -0.004409 -0.004409 0.015515 0.000000 0.000000 0.000000
# 4 0.000000 0.000000 0.000000 0.029430 0.000000 0.000000
# 5 0.000000 0.000000 0.000000 0.000000 0.029430 0.000000
# 6 -0.000002 0.000002 0.000000 0.000000 0.000000 0.054844
#
#
# Mechanical properties :
#
#
# Convention : Reuss Voigt Hill
#
# Bulk Modulus (GPa) = 56.90971 57.08576 56.99774
# Shear Modulus (GPa) = 24.08984 26.02796 25.05890
#
# Velocity S-wave (km/s) = 3.37655 3.50976 3.44380
# Velocity P-wave (km/s) = 6.49118 6.59104 6.54130
#
# Compressibility (1/GPa) = 0.01757169
#
# Stress axis : x y z
#
# Youngs Moduli (GPa) = 53.66483 53.66439 64.45433
#
# Poissons Ratio (x) = 0.47158 0.28418
# Poissons Ratio (y) = 0.47159 0.28419
# Poissons Ratio (z) = 0.23661 0.23662
#
# Static dielectric constant tensor:
#      x y z
#    x 3.863550 0.000000 0.000000 
#    y 0.000000 3.863550 0.000000 
#    z 0.000000 0.000000 4.225110 
# 
# 
# High freq. dielectric constant tensor:
#      x y z
#    x 1.807960 0.000000 0.000000 
#    y 0.000000 1.807960 0.000000 
#    z 0.000000 0.000000 1.871450 
# 
# From -- ./inp_files/2563.got.cif
#   From: 2010.06.25/outbox.cif.g09.slc.cpg/sg176_2_cif.got.tgz:2563.got - 2010.06.28 12:15:01.
