data_PCOD8325820
_publ_section_title
;
Structure prediction by ZEFSAII (Michael W. Deem and Ramdas Pophale) SiO2 
 PCOD8325820
Probable space group: P 61 2 2
;
_chemical_formula_sum "Si O2"
_cell_formula_units_Z 54
_cell_length_a 14.658021
_cell_length_b 14.658021
_cell_length_c 14.254534
_cell_angle_alpha 90.000000
_cell_angle_beta 90.000000
_cell_angle_gamma 120.000000
_cell_volume 2652.371392
_symmetry_space_group_name_H-M "P 61 2 2"
_symmetry_group_IT_number 178
_symmetry_cell_setting 'hexagonal'
loop_
_space_group_symop_operation_xyz
x,y,z
x-y,x,1/6+z
-y,x-y,1/3+z
-x,-y,1/2+z
-x+y,-x,2/3+z
y,-x+y,5/6+z
x-y,-y,-z
-x,-x+y,2/3-z
y,x,1/3-z
-y,-x,5/6-z
-x+y,y,1/2-z
x,x-y,1/6-z
loop_
_atom_site_type_symbol
_atom_site_label
_atom_site_fract_x
_atom_site_fract_y
_atom_site_fract_z
Si Si1 0.104037 0.552019 0.583334
Si Si2 0.634264 0.972861 0.641803
Si Si3 0.458428 0.218693 0.484250
Si Si4 0.347359 0.805050 0.986182
Si Si5 0.614800 0.810204 0.382578
O O1 0.178435 0.522846 0.642300
O O2 0.027861 0.456259 0.515846
O O3 0.565447 0.901567 0.555819
O O4 0.656536 0.907113 0.720205
O O5 0.750613 0.062957 0.608184
O O6 0.394075 0.197038 0.583334
O O7 0.534312 0.169226 0.499022
O O8 0.386326 0.164506 0.393244
O O9 0.293650 0.706350 0.916667
O O10 0.283056 0.777913 0.084870
#
# Coordination Sequence:
#
# PCOD8325820 Si02
#       5
#     6  12  12  12  12
#     4  10  20  34  52  78 116 148 200 230 266 350
#     4  10  20  37  54  79 111 152 192 246 294 342
#     4  11  20  32  49  77 111 153 193 232 270 340
#     4  10  20  32  53  76 108 147 187 231 293 335
#     4  10  22  36  54  78 111 149 196 238 296 345
#
# _framework density 20.35914
#
# number of rings (size 3 to 8) (size 9 to 14) (size 15 to 20)
#    0.000    1.778    1.111    4.667    0.000    1.778 
#    0.000    8.889    0.000    0.000    0.000    0.000 
#    0.000  113.778    0.000    0.000    0.000    0.000 
#
# Total GULP energy -669087.240134 kJ/mol
# GULP energy per Si atom -12390.504447 kJ/mol
# Density = 2.031280 g / cm^3
# Si number density = 20.359140 Si / 1000 Ang^3
#
#
#
# Elastic Constant Matrix: (Units=GPa)
#
#
# Indices 1 2 3 4 5 6 
#
# 1 69.6990 16.6198 15.0269 0.0000 0.0000 0.0000
# 2 16.6198 69.6990 15.0269 0.0000 0.0000 0.0000
# 3 15.0269 15.0269 119.0525 0.0000 0.0000 0.0000
# 4 0.0000 0.0000 0.0000 17.5286 0.0000 0.0000
# 5 0.0000 0.0000 0.0000 0.0000 17.5286 0.0000
# 6 0.0000 0.0000 0.0000 0.0000 0.0000 26.5396
#
#
#
# Elastic Compliance Matrix: (Units=1/GPa)
#
#
# Indices 1 2 3 4 5 6 
#
# 1 0.015479 -0.003361 -0.001529 0.000000 0.000000 0.000000
# 2 -0.003361 0.015479 -0.001529 0.000000 0.000000 0.000000
# 3 -0.001529 -0.001529 0.008786 0.000000 0.000000 0.000000
# 4 0.000000 0.000000 0.000000 0.057050 0.000000 0.000000
# 5 0.000000 0.000000 0.000000 0.000000 0.057050 0.000000
# 6 0.000000 0.000000 0.000000 0.000000 0.000000 0.037680
#
#
# Mechanical properties :
#
#
# Convention : Reuss Voigt Hill
#
# Bulk Modulus (GPa) = 37.17083 39.08863 38.12973
# Shear Modulus (GPa) = 23.43787 26.43780 24.93784
#
# Velocity S-wave (km/s) = 3.39665 3.60748 3.50365
# Velocity P-wave (km/s) = 5.80346 6.04922 5.92762
#
# Compressibility (1/GPa) = 0.02690281
#
# Stress axis : x y z
#
# Youngs Moduli (GPa) = 64.60519 64.60519 113.82059
#
# Poissons Ratio (x) = 0.21715 0.17409
# Poissons Ratio (y) = 0.21715 0.17409
# Poissons Ratio (z) = 0.09881 0.09881
#
# Static dielectric constant tensor:
#      x y z
#    x 3.576720 0.000000 0.000000 
#    y 0.000000 3.576720 0.000000 
#    z 0.000000 0.000000 4.042170 
# 
# 
# High freq. dielectric constant tensor:
#      x y z
#    x 1.758530 0.000000 0.000000 
#    y 0.000000 1.758530 0.000000 
#    z 0.000000 0.000000 1.829150 
# 
# From -- ./inp_files/5588.got.cif
#   From: 2010.03.12/outbox.cif.g09.slc.cpg/sg178_3_cif.got.tgz:5588.got - 2010.04.02 07:02:38.
