data_PCOD8325652
_publ_section_title
;
Structure prediction by ZEFSAII (Michael W. Deem and Ramdas Pophale) SiO2 
 PCOD8325652
Probable space group: P 63/M
;
_chemical_formula_sum "Si O2"
_cell_formula_units_Z 66
_cell_length_a 20.401533
_cell_length_b 20.401533
_cell_length_c 7.979050
_cell_angle_alpha 90.000000
_cell_angle_beta 90.000000
_cell_angle_gamma 120.000000
_cell_volume 2876.122784
_symmetry_space_group_name_H-M "P 63/M"
_symmetry_group_IT_number 176
_symmetry_cell_setting 'hexagonal'
loop_
_space_group_symop_operation_xyz
x,y,z
x-y,x,1/2+z
-y,x-y,z
-x,-y,1/2+z
-x+y,-x,z
y,-x+y,1/2+z
-x,-y,-z
-x+y,-x,1/2-z
y,-x+y,-z
x,y,1/2-z
x-y,x,-z
-y,x-y,1/2-z
loop_
_atom_site_type_symbol
_atom_site_label
_atom_site_fract_x
_atom_site_fract_y
_atom_site_fract_z
Si Si1 0.564338 0.877893 0.445800
Si Si2 0.144360 0.339501 0.449244
Si Si3 0.583361 0.331902 0.250000
Si Si4 0.168082 0.083572 0.558470
Si Si5 0.955063 0.591439 0.444294
Si Si6 0.161732 0.560185 0.061729
O O1 0.580180 0.886002 0.250000
O O2 0.602799 0.831644 0.519481
O O3 0.475100 0.838148 0.483588
O O4 0.605954 0.961997 0.522080
O O5 0.138901 0.345701 0.250000
O O6 0.118620 0.254079 0.505725
O O7 0.090045 0.363721 0.537908
O O8 0.591600 0.258015 0.250000
O O9 0.543619 0.333821 0.423241
O O10 0.168598 0.060900 0.750000
O O11 0.121730 0.128004 0.545934
O O12 0.957474 0.571479 0.250000
O O13 0.920792 0.513889 0.551493
O O14 0.194855 0.565930 0.250000
#
# Coordination Sequence:
#
# PCOD8325652 Si02
#       6
#    12  12   6  12  12  12
#     4   9  21  40  63  89 123 168 211 260 320 380
#     4  10  22  40  62  91 126 163 214 263 320 388
#     4  10  26  44  64  96 136 158 218 262 316 386
#     4  11  23  40  64  90 127 165 212 264 319 387
#     4  11  22  40  64  92 128 168 214 267 319 380
#     4  11  23  42  68  94 129 172 213 265 324 383
#
# _framework density 22.947561
#
# number of rings (size 3 to 8) (size 9 to 14) (size 15 to 20)
#    0.182    1.455    0.909    2.909    2.545    3.636 
#    3.273    0.000    0.000    0.000    0.000    0.000 
#    0.000    0.000    0.000    0.000    0.000    0.000 
#
# Total GULP energy -818286.639223 kJ/mol
# GULP energy per Si atom -12398.282412 kJ/mol
# Density = 2.289533 g / cm^3
# Si number density = 22.947561 Si / 1000 Ang^3
#
#
#
# Elastic Constant Matrix: (Units=GPa)
#
#
# Indices 1 2 3 4 5 6 
#
# 1 64.3048 -18.9711 14.0590 0.0000 0.0000 0.0000
# 2 -18.9711 64.3048 14.0590 0.0000 0.0000 0.0000
# 3 14.0590 14.0590 81.3587 0.0000 0.0000 0.0000
# 4 0.0000 0.0000 0.0000 23.7247 0.0000 0.0000
# 5 0.0000 0.0000 0.0000 0.0000 23.7247 0.0000
# 6 0.0000 0.0000 0.0000 0.0000 0.0000 41.6379
#
#
#
# Elastic Compliance Matrix: (Units=1/GPa)
#
#
# Indices 1 2 3 4 5 6 
#
# 1 0.018357 0.006349 -0.004269 0.000000 0.000000 0.000000
# 2 0.006349 0.018357 -0.004269 0.000000 0.000000 0.000000
# 3 -0.004269 -0.004269 0.013767 0.000000 0.000000 0.000000
# 4 0.000000 0.000000 0.000000 0.042150 0.000000 0.000000
# 5 0.000000 0.000000 0.000000 0.000000 0.042150 0.000000
# 6 0.000000 0.000000 0.000000 0.000000 0.000000 0.024017
#
#
# Mechanical properties :
#
#
# Convention : Reuss Voigt Hill
#
# Bulk Modulus (GPa) = 21.69073 25.36245 23.52659
# Shear Modulus (GPa) = 28.00409 31.20555 29.60482
#
# Velocity S-wave (km/s) = 3.49714 3.69163 3.59570
# Velocity P-wave (km/s) = 5.07735 5.40807 5.24532
#
# Compressibility (1/GPa) = 0.04610265
#
# Stress axis : x y z
#
# Youngs Moduli (GPa) = 54.47368 54.47368 72.63865
#
# Poissons Ratio (x) = -0.34587 0.31012
# Poissons Ratio (y) = -0.34587 0.31012
# Poissons Ratio (z) = 0.23257 0.23257
#
# Static dielectric constant tensor:
#      x y z
#    x 4.123910 0.000000 0.000000 
#    y 0.000000 4.123910 0.000000 
#    z 0.000000 0.000000 3.842920 
# 
# 
# High freq. dielectric constant tensor:
#      x y z
#    x 1.910550 0.000000 0.000000 
#    y 0.000000 1.910550 0.000000 
#    z 0.000000 0.000000 1.891750 
# 
# From -- ./inp_files/995.got.cif
#   From: 2010.06.25/outbox.cif.g09.slc.cpg/sg176_1_cif.got.tgz:995.got - 2010.06.28 12:15:01.
