data_PCOD8325564
_publ_section_title
;
Structure prediction by ZEFSAII (Michael W. Deem and Ramdas Pophale) SiO2 
 PCOD8325564
Probable space group: P 63/M
;
_chemical_formula_sum "Si O2"
_cell_formula_units_Z 44
_cell_length_a 12.627277
_cell_length_b 12.627277
_cell_length_c 16.007080
_cell_angle_alpha 90.000000
_cell_angle_beta 90.000000
_cell_angle_gamma 120.000000
_cell_volume 2210.355671
_symmetry_space_group_name_H-M "P 63/M"
_symmetry_group_IT_number 176
_symmetry_cell_setting 'hexagonal'
loop_
_space_group_symop_operation_xyz
x,y,z
x-y,x,1/2+z
-y,x-y,z
-x,-y,1/2+z
-x+y,-x,z
y,-x+y,1/2+z
-x,-y,-z
-x+y,-x,1/2-z
y,-x+y,-z
x,y,1/2-z
x-y,x,-z
-y,x-y,1/2-z
loop_
_atom_site_type_symbol
_atom_site_label
_atom_site_fract_x
_atom_site_fract_y
_atom_site_fract_z
Si Si1 0.265650 0.165276 0.019188
Si Si2 0.867814 0.276033 0.154762
Si Si3 0.918058 0.523948 0.566734
Si Si4 0.666666 0.333333 0.349522
Si Si5 0.666668 0.333335 0.853251
O O1 0.294695 0.130481 0.109399
O O2 0.167642 0.208617 0.035060
O O3 0.390712 0.263872 0.976038
O O4 0.841884 0.238396 0.250000
O O5 0.759867 0.293255 0.115030
O O6 0.994356 0.402104 0.144006
O O7 0.804175 0.404787 0.608359
O O8 0.000000 0.500000 0.500000
O O9 0.666667 0.333334 0.250000
O O10 0.666667 0.333334 0.750000
#
# Coordination Sequence:
#
# PCOD8325564 Si02
#       5
#    12  12  12   4   4
#     4  10  21  38  59  82 112 151 191 236 288 351
#     4  10  20  36  56  84 114 147 190 240 288 344
#     4  11  23  39  60  86 119 158 199 244 304 371
#     4   9  18  31  53  79 108 141 181 230 280 328
#     4  12  24  40  62  91 124 161 205 264 321 370
#
# _framework density 19.906298
#
# number of rings (size 3 to 8) (size 9 to 14) (size 15 to 20)
#    0.000    1.636    0.000    6.000    0.000    2.182 
#    0.000   13.636    0.000    0.000    0.000    0.000 
#    0.000    0.000    0.000    0.000    0.000    0.000 
#
# Total GULP energy -545400.689894 kJ/mol
# GULP energy per Si atom -12395.470225 kJ/mol
# Density = 1.986099 g / cm^3
# Si number density = 19.906298 Si / 1000 Ang^3
#
#
#
# Elastic Constant Matrix: (Units=GPa)
#
#
# Indices 1 2 3 4 5 6 
#
# 1 133.4577 53.9393 50.2234 0.0000 0.0000 0.0001
# 2 53.9393 133.4561 50.2230 0.0000 0.0000 0.0001
# 3 50.2234 50.2230 85.8085 0.0000 0.0000 0.0000
# 4 0.0000 0.0000 0.0000 28.0738 0.0001 0.0000
# 5 0.0000 0.0000 0.0000 0.0001 28.0740 0.0000
# 6 0.0001 0.0001 0.0000 0.0000 0.0000 39.7593
#
#
#
# Elastic Compliance Matrix: (Units=1/GPa)
#
#
# Indices 1 2 3 4 5 6 
#
# 1 0.010176 -0.002400 -0.004551 0.000000 0.000000 0.000000
# 2 -0.002400 0.010176 -0.004551 0.000000 0.000000 0.000000
# 3 -0.004551 -0.004551 0.016981 0.000000 0.000000 0.000000
# 4 0.000000 0.000000 0.000000 0.035620 0.000000 0.000000
# 5 0.000000 0.000000 0.000000 0.000000 0.035620 0.000000
# 6 0.000000 0.000000 0.000000 0.000000 0.000000 0.025151
#
#
# Mechanical properties :
#
#
# Convention : Reuss Voigt Hill
#
# Bulk Modulus (GPa) = 69.79142 73.49930 71.64536
# Shear Modulus (GPa) = 30.95873 32.40386 31.68130
#
# Velocity S-wave (km/s) = 3.94791 4.03900 3.99372
# Velocity P-wave (km/s) = 7.47779 7.66513 7.57204
#
# Compressibility (1/GPa) = 0.01432841
#
# Stress axis : x y z
#
# Youngs Moduli (GPa) = 98.27319 98.27207 58.88833
#
# Poissons Ratio (x) = 0.23586 0.26800
# Poissons Ratio (y) = 0.23586 0.26801
# Poissons Ratio (z) = 0.44725 0.44725
#
# Static dielectric constant tensor:
#      x y z
#    x 3.792610 -0.000020 0.000000 
#    y -0.000020 3.792620 0.000000 
#    z 0.000000 0.000000 3.422160 
# 
# 
# High freq. dielectric constant tensor:
#      x y z
#    x 1.786640 0.000000 0.000000 
#    y 0.000000 1.786640 0.000000 
#    z 0.000000 0.000000 1.761790 
# 
# From -- ./inp_files/3184.got.cif
#   From: 2010.06.25/outbox.cif.g09.slc.cpg/sg176_2_cif.got.tgz:3184.got - 2010.06.28 12:15:01.
