data_PCOD8325556
_publ_section_title
;
Structure prediction by ZEFSAII (Michael W. Deem and Ramdas Pophale) SiO2 
 PCOD8325556
Probable space group: P 63/M
;
_chemical_formula_sum "Si O2"
_cell_formula_units_Z 54
_cell_length_a 18.238177
_cell_length_b 18.238177
_cell_length_c 9.734073
_cell_angle_alpha 90.000000
_cell_angle_beta 90.000000
_cell_angle_gamma 120.000000
_cell_volume 2804.065041
_symmetry_space_group_name_H-M "P 63/M"
_symmetry_group_IT_number 176
_symmetry_cell_setting 'hexagonal'
loop_
_space_group_symop_operation_xyz
x,y,z
x-y,x,1/2+z
-y,x-y,z
-x,-y,1/2+z
-x+y,-x,z
y,-x+y,1/2+z
-x,-y,-z
-x+y,-x,1/2-z
y,-x+y,-z
x,y,1/2-z
x-y,x,-z
-y,x-y,1/2-z
loop_
_atom_site_type_symbol
_atom_site_label
_atom_site_fract_x
_atom_site_fract_y
_atom_site_fract_z
Si Si1 0.627480 0.113864 0.513617
Si Si2 0.667543 0.905917 0.090847
Si Si3 0.382598 0.457247 0.598499
Si Si4 0.099902 0.323271 0.597321
Si Si5 0.429036 0.670232 0.250000
O O1 0.557869 0.122129 0.424898
O O2 0.698293 0.116773 0.413130
O O3 0.673831 0.192425 0.616272
O O4 0.581589 0.026214 0.597118
O O5 0.644976 0.879698 0.250000
O O6 0.744107 0.001095 0.075227
O O7 0.583666 0.893749 0.016032
O O8 0.697705 0.846354 0.019033
O O9 0.340986 0.440657 0.750000
O O10 0.127921 0.312276 0.750000
O O11 0.415603 0.751785 0.250000
#
# Coordination Sequence:
#
# PCOD8325556 Si02
#       5
#    12  12  12  12   6
#     4  10  21  34  56  79 113 149 196 235 287 341
#     4  10  23  37  60  88 117 150 190 237 289 344
#     4  10  20  35  57  82 110 149 193 241 289 338
#     4  10  22  40  59  87 118 149 188 238 286 344
#     4  10  24  36  50  78 114 152 192 240 284 350
#
# _framework density 19.257757000000002
#
# number of rings (size 3 to 8) (size 9 to 14) (size 15 to 20)
#    0.222    1.778    1.111    1.333    6.222    4.444 
#    0.000    0.000    0.000    0.444    0.000    0.000 
#    0.000    0.000    0.000    0.000    0.000    0.000 
#
# Total GULP energy -669669.164007 kJ/mol
# GULP energy per Si atom -12401.280815 kJ/mol
# Density = 1.921393 g / cm^3
# Si number density = 19.257757 Si / 1000 Ang^3
#
#
#
# Elastic Constant Matrix: (Units=GPa)
#
#
# Indices 1 2 3 4 5 6 
#
# 1 74.6442 21.1930 48.7690 0.0000 0.0000 0.0000
# 2 21.1930 74.6442 48.7690 0.0000 0.0000 0.0000
# 3 48.7690 48.7690 164.7234 0.0000 0.0000 0.0000
# 4 0.0000 0.0000 0.0000 29.0635 0.0000 0.0000
# 5 0.0000 0.0000 0.0000 0.0000 29.0635 0.0000
# 6 0.0000 0.0000 0.0000 0.0000 0.0000 26.7256
#
#
#
# Elastic Compliance Matrix: (Units=1/GPa)
#
#
# Indices 1 2 3 4 5 6 
#
# 1 0.016822 -0.001887 -0.004422 0.000000 0.000000 0.000000
# 2 -0.001887 0.016822 -0.004422 0.000000 0.000000 0.000000
# 3 -0.004422 -0.004422 0.008689 0.000000 0.000000 0.000000
# 4 0.000000 0.000000 0.000000 0.034407 0.000000 0.000000
# 5 0.000000 0.000000 0.000000 0.000000 0.034407 0.000000
# 6 0.000000 0.000000 0.000000 0.000000 0.000000 0.037417
#
#
# Mechanical properties :
#
#
# Convention : Reuss Voigt Hill
#
# Bulk Modulus (GPa) = 47.91228 61.27484 54.59356
# Shear Modulus (GPa) = 28.25150 29.98925 29.12037
#
# Velocity S-wave (km/s) = 3.83432 3.95049 3.89284
# Velocity P-wave (km/s) = 6.67354 7.25919 6.97252
#
# Compressibility (1/GPa) = 0.02087147
#
# Stress axis : x y z
#
# Youngs Moduli (GPa) = 59.44761 59.44761 115.08893
#
# Poissons Ratio (x) = 0.11219 0.50887
# Poissons Ratio (y) = 0.11219 0.50887
# Poissons Ratio (z) = 0.26285 0.26285
#
# Static dielectric constant tensor:
#      x y z
#    x 3.388810 0.000000 0.000000 
#    y 0.000000 3.388810 0.000000 
#    z 0.000000 0.000000 3.550680 
# 
# 
# High freq. dielectric constant tensor:
#      x y z
#    x 1.734840 0.000000 0.000000 
#    y 0.000000 1.734840 0.000000 
#    z 0.000000 0.000000 1.758800 
# 
# From -- ./inp_files/867.got.cif
#   From: 2010.06.25/outbox.cif.g09.slc.cpg/sg176_1_cif.got.tgz:867.got - 2010.06.28 12:15:01.
