data_PCOD8325824
_publ_section_title
;
Structure prediction by ZEFSAII (Michael W. Deem and Ramdas Pophale) SiO2 
 PCOD8325824
Probable space group: P 61 2 2
;
_chemical_formula_sum "Si O2"
_cell_formula_units_Z 84
_cell_length_a 15.882570
_cell_length_b 15.882570
_cell_length_c 23.103937
_cell_angle_alpha 90.000000
_cell_angle_beta 90.000000
_cell_angle_gamma 120.000000
_cell_volume 5047.289082
_symmetry_space_group_name_H-M "P 61 2 2"
_symmetry_group_IT_number 178
_symmetry_cell_setting 'hexagonal'
loop_
_space_group_symop_operation_xyz
x,y,z
x-y,x,1/6+z
-y,x-y,1/3+z
-x,-y,1/2+z
-x+y,-x,2/3+z
y,-x+y,5/6+z
x-y,-y,-z
-x,-x+y,2/3-z
y,x,1/3-z
-y,-x,5/6-z
-x+y,y,1/2-z
x,x-y,1/6-z
loop_
_atom_site_type_symbol
_atom_site_label
_atom_site_fract_x
_atom_site_fract_y
_atom_site_fract_z
Si Si1 0.549235 0.972419 0.625867
Si Si2 0.201379 0.575105 0.832806
Si Si3 0.431413 0.215707 0.583334
Si Si4 0.619580 0.984467 0.134599
Si Si5 0.802744 0.273646 0.725598
Si Si6 0.633001 0.563764 0.425761
Si Si7 0.218112 0.598029 0.147292
Si Si8 0.000000 0.442549 0.333334
O O1 0.483749 0.024013 0.619019
O O2 0.485201 0.860398 0.644504
O O3 0.627082 0.022390 0.677742
O O4 0.597589 0.979671 0.561394
O O5 0.225236 0.499091 0.802953
O O6 0.208585 0.558500 0.900144
O O7 0.276412 0.684275 0.813208
O O8 0.092715 0.547641 0.818099
O O9 0.369566 0.266212 0.560880
O O10 0.705424 0.086472 0.109743
O O11 0.629652 0.992157 0.204745
O O12 0.736851 0.164619 0.744467
O O13 0.764757 0.296055 0.665907
O O14 0.546312 0.453689 0.416667
O O15 0.173736 0.586868 0.083334
#
# Coordination Sequence:
#
# PCOD8325824 Si02
#       8
#    12  12   6  12  12  12  12   6
#     4  10  21  35  48  66  99 131 166 217 258 286
#     4  12  21  34  49  72 100 132 175 209 247 303
#     4  12  20  32  52  76 100 140 170 204 248 306
#     4  10  20  34  48  72 102 130 171 208 249 295
#     4  11  21  34  51  71  98 136 174 210 252 292
#     4  10  20  34  51  69  96 138 172 205 246 309
#     4  11  22  33  50  74  97 129 175 216 251 298
#     4  12  22  34  46  68 100 130 170 218 256 290
#
# _framework density 16.642596999999999
#
# number of rings (size 3 to 8) (size 9 to 14) (size 15 to 20)
#    0.000    1.143    6.429    3.429    4.000    0.000 
#    0.000    0.000    0.000    0.000    0.000    0.000 
#    0.000    0.000    4.857    0.429    0.000    0.000 
#
# Total GULP energy -1040604.956437 kJ/mol
# GULP energy per Si atom -12388.154243 kJ/mol
# Density = 1.660472 g / cm^3
# Si number density = 16.642597 Si / 1000 Ang^3
#
#
#
# Elastic Constant Matrix: (Units=GPa)
#
#
# Indices 1 2 3 4 5 6 
#
# 1 45.6841 39.0162 19.6645 0.0000 0.0000 0.0000
# 2 39.0162 45.6841 19.6645 0.0000 0.0000 0.0000
# 3 19.6645 19.6645 128.7613 0.0000 0.0000 0.0000
# 4 0.0000 0.0000 0.0000 21.8320 0.0000 0.0000
# 5 0.0000 0.0000 0.0000 0.0000 21.8320 0.0000
# 6 0.0000 0.0000 0.0000 0.0000 0.0000 3.3340
#
#
#
# Elastic Compliance Matrix: (Units=1/GPa)
#
#
# Indices 1 2 3 4 5 6 
#
# 1 0.081340 -0.068632 -0.001941 0.000000 0.000000 0.000000
# 2 -0.068632 0.081340 -0.001941 0.000000 0.000000 0.000000
# 3 -0.001941 -0.001941 0.008359 0.000000 0.000000 0.000000
# 4 0.000000 0.000000 0.000000 0.045804 0.000000 0.000000
# 5 0.000000 0.000000 0.000000 0.000000 0.045804 0.000000
# 6 0.000000 0.000000 0.000000 0.000000 0.000000 0.299944
#
#
# Mechanical properties :
#
#
# Convention : Reuss Voigt Hill
#
# Bulk Modulus (GPa) = 38.44494 41.86888 40.15691
# Shear Modulus (GPa) = 6.98043 18.85190 12.91616
#
# Velocity S-wave (km/s) = 2.05022 3.36929 2.78886
# Velocity P-wave (km/s) = 5.36237 6.35204 5.87807
#
# Compressibility (1/GPa) = 0.02601122
#
# Stress axis : x y z
#
# Youngs Moduli (GPa) = 12.29413 12.29413 119.63048
#
# Poissons Ratio (x) = 0.84377 0.23217
# Poissons Ratio (y) = 0.84377 0.23217
# Poissons Ratio (z) = 0.02386 0.02386
#
# Static dielectric constant tensor:
#      x y z
#    x 2.895430 0.000000 0.000000 
#    y 0.000000 2.895430 0.000000 
#    z 0.000000 0.000000 3.842070 
# 
# 
# High freq. dielectric constant tensor:
#      x y z
#    x 1.601120 0.000000 0.000000 
#    y 0.000000 1.601120 0.000000 
#    z 0.000000 0.000000 1.678590 
# 
# From -- ./inp_files/8380.got.cif
#   From: 2010.03.12/outbox.cif.g09.slc.cpg/sg178_5_cif.got.tgz:8380.got - 2010.04.02 07:02:38.
