data_PCOD8325249
_publ_section_title
;
Structure prediction by ZEFSAII (Michael W. Deem and Ramdas Pophale) SiO2 
 PCOD8325249
Probable space group: P 6/M
;
_chemical_formula_sum "Si O2"
_cell_formula_units_Z 66
_cell_length_a 21.969401
_cell_length_b 21.969401
_cell_length_c 7.428286
_cell_angle_alpha 90.000000
_cell_angle_beta 90.000000
_cell_angle_gamma 120.000000
_cell_volume 3104.957643
_symmetry_space_group_name_H-M "P 6/M"
_symmetry_group_IT_number 175
_symmetry_cell_setting 'hexagonal'
loop_
_space_group_symop_operation_xyz
x,y,z
x-y,x,z
-y,x-y,z
-x,-y,z
-x+y,-x,z
y,-x+y,z
-x,-y,-z
-x+y,-x,-z
y,-x+y,-z
x,y,-z
x-y,x,-z
-y,x-y,-z
loop_
_atom_site_type_symbol
_atom_site_label
_atom_site_fract_x
_atom_site_fract_y
_atom_site_fract_z
Si Si1 0.141914 0.283827 0.787263
Si Si2 0.302083 0.380315 0.213418
Si Si3 0.529485 0.195902 0.785414
Si Si4 0.917303 0.082697 0.500000
Si Si5 0.529485 0.333584 0.785414
Si Si6 0.380315 0.302083 0.213418
O O1 0.222735 0.327771 0.726346
O O2 0.105600 0.211200 0.681432
O O3 0.105037 0.327771 0.726345
O O4 0.133850 0.267699 0.000000
O O5 0.328089 0.458069 0.290581
O O6 0.352109 0.352109 0.291206
O O7 0.305775 0.383628 0.000000
O O8 0.535337 0.267669 0.713235
O O9 0.595145 0.190289 0.710260
O O10 0.529050 0.195798 0.000000
O O11 1.000000 0.116375 0.500000
O O12 0.458069 0.328089 0.709419
O O13 0.529050 0.333251 0.000000
O O14 0.383628 0.305775 0.000000
#
# Coordination Sequence:
#
# PCOD8325249 Si02
#       6
#    12  12  12   6  12  12
#     4  10  20  39  63  87 118 156 198 240 289 350
#     4   9  16  27  46  71 101 140 185 235 286 336
#     4   9  15  23  36  60  99 144 186 230 284 342
#     4  12  27  44  64  92 122 154 194 242 298 360
#     4   9  15  23  36  60  99 144 186 230 284 342
#     4   9  16  27  46  71 101 140 185 235 286 336
#
# _framework density 21.256329000000001
#
# number of rings (size 3 to 8) (size 9 to 14) (size 15 to 20)
#    0.000    2.545    1.818    1.545    0.000    4.364 
#    0.000    3.636    0.000    1.091    0.000    1.273 
#    0.000    4.364    0.000    0.364    0.000    0.000 
#
# Total GULP energy -818306.418981 kJ/mol
# GULP energy per Si atom -12398.582106 kJ/mol
# Density = 2.120795 g / cm^3
# Si number density = 21.256329 Si / 1000 Ang^3
#
#
#
# Elastic Constant Matrix: (Units=GPa)
#
#
# Indices 1 2 3 4 5 6 
#
# 1 222.3759 131.5325 20.9283 0.0000 0.0000 0.0000
# 2 131.5325 222.3759 20.9283 0.0000 0.0000 0.0000
# 3 20.9283 20.9283 45.7605 0.0000 0.0000 0.0000
# 4 0.0000 0.0000 0.0000 -2.2430 0.0000 0.0000
# 5 0.0000 0.0000 0.0000 0.0000 -2.2430 0.0000
# 6 0.0000 0.0000 0.0000 0.0000 0.0000 45.4217
#
#
#
# Elastic Compliance Matrix: (Units=1/GPa)
#
#
# Indices 1 2 3 4 5 6 
#
# 1 0.006998 -0.004010 -0.001366 0.000000 0.000000 0.000000
# 2 -0.004010 0.006998 -0.001366 0.000000 0.000000 0.000000
# 3 -0.001366 -0.001366 0.023103 0.000000 0.000000 0.000000
# 4 0.000000 0.000000 0.000000 -0.445838 0.000000 0.000000
# 5 0.000000 0.000000 0.000000 0.000000 -0.445838 0.000000
# 6 0.000000 0.000000 0.000000 0.000000 0.000000 0.022016
#
#
# Mechanical properties :
#
#
# Convention : Reuss Voigt Hill
#
# Bulk Modulus (GPa) = 42.35098 93.03227 67.69162
# Shear Modulus (GPa) = -6.16366 29.32870 11.58252
#
# Velocity S-wave (km/s) = -1.70469 3.71855 2.33684
# Velocity P-wave (km/s) = 4.01155 7.89295 6.26064
#
# Compressibility (1/GPa) = 0.02361220
#
# Stress axis : x y z
#
# Youngs Moduli (GPa) = 142.90697 142.90697 43.28531
#
# Poissons Ratio (x) = 0.57311 0.05913
# Poissons Ratio (y) = 0.57311 0.05913
# Poissons Ratio (z) = 0.19523 0.19523
#
# Static dielectric constant tensor:
#      x y z
#    x 4.089290 0.000000 0.000000 
#    y 0.000000 4.089290 0.000000 
#    z 0.000000 0.000000 3.225230 
# 
# 
# High freq. dielectric constant tensor:
#      x y z
#    x 1.839720 0.000000 0.000000 
#    y 0.000000 1.839720 0.000000 
#    z 0.000000 0.000000 1.799750 
# 
# From -- ./inp_files/1007.got.cif
#   From: 2010.03.12/outbox.cif.g09.slc.cpg/sg175_1_cif.got.tgz:1007.got - 2010.04.02 06:55:29.
