data_PCOD8325620
_publ_section_title
;
Structure prediction by ZEFSAII (Michael W. Deem and Ramdas Pophale) SiO2 
 PCOD8325620
Probable space group: P 63/M
;
_chemical_formula_sum "Si O2"
_cell_formula_units_Z 66
_cell_length_a 20.736997
_cell_length_b 20.736997
_cell_length_c 7.927485
_cell_angle_alpha 90.000000
_cell_angle_beta 90.000000
_cell_angle_gamma 120.000000
_cell_volume 2952.281672
_symmetry_space_group_name_H-M "P 63/M"
_symmetry_group_IT_number 176
_symmetry_cell_setting 'hexagonal'
loop_
_space_group_symop_operation_xyz
x,y,z
x-y,x,1/2+z
-y,x-y,z
-x,-y,1/2+z
-x+y,-x,z
y,-x+y,1/2+z
-x,-y,-z
-x+y,-x,1/2-z
y,-x+y,-z
x,y,1/2-z
x-y,x,-z
-y,x-y,1/2-z
loop_
_atom_site_type_symbol
_atom_site_label
_atom_site_fract_x
_atom_site_fract_y
_atom_site_fract_z
Si Si1 0.072911 0.906583 0.943877
Si Si2 0.115577 0.432169 0.559670
Si Si3 0.590295 0.247741 0.750000
Si Si4 0.408415 0.559485 0.944076
Si Si5 0.818312 0.664952 0.450580
Si Si6 0.044258 0.651683 0.941358
O O1 0.052804 0.884161 0.750000
O O2 0.119102 0.868666 0.018141
O O3 0.995582 0.874593 0.042749
O O4 0.143817 0.448626 0.750000
O O5 0.136508 0.512425 0.482661
O O6 0.153558 0.389175 0.469549
O O7 0.027228 0.378790 0.558027
O O8 0.675717 0.264316 0.750000
O O9 0.552349 0.206543 0.574985
O O10 0.391709 0.573745 0.750000
O O11 0.405153 0.480689 0.951791
O O12 0.826017 0.665211 0.250000
O O13 0.733471 0.630512 0.509241
O O14 0.021309 0.656826 0.750000
#
# Coordination Sequence:
#
# PCOD8325620 Si02
#       6
#    12  12   6  12  12  12
#     4  11  22  38  60  84 117 154 196 247 299 363
#     4  10  21  38  61  90 120 163 206 253 312 371
#     4  10  26  42  62  98 130 154 218 262 304 376
#     4  10  23  41  66  91 129 171 205 258 321 372
#     4   9  20  37  59  86 122 155 202 252 307 370
#     4  10  21  38  61  90 120 163 206 253 312 371
#
# _framework density 22.355589999999999
#
# number of rings (size 3 to 8) (size 9 to 14) (size 15 to 20)
#    0.182    1.818    0.000    2.364    5.091    0.727 
#    0.000    2.727    0.000    0.000    0.000    0.000 
#    0.000    0.000    0.000    0.000    0.000    0.000 
#
# Total GULP energy -818141.065876 kJ/mol
# GULP energy per Si atom -12396.076756 kJ/mol
# Density = 2.230471 g / cm^3
# Si number density = 22.355590 Si / 1000 Ang^3
#
#
#
# Elastic Constant Matrix: (Units=GPa)
#
#
# Indices 1 2 3 4 5 6 
#
# 1 93.3151 6.5791 6.9638 0.0000 0.0000 0.0000
# 2 6.5791 93.3151 6.9638 0.0000 0.0000 0.0000
# 3 6.9638 6.9638 57.2940 0.0000 0.0000 0.0000
# 4 0.0000 0.0000 0.0000 12.2389 0.0000 0.0000
# 5 0.0000 0.0000 0.0000 0.0000 12.2389 0.0000
# 6 0.0000 0.0000 0.0000 0.0000 0.0000 43.3680
#
#
#
# Elastic Compliance Matrix: (Units=1/GPa)
#
#
# Indices 1 2 3 4 5 6 
#
# 1 0.010856 -0.000673 -0.001238 0.000000 0.000000 0.000000
# 2 -0.000673 0.010856 -0.001238 0.000000 0.000000 0.000000
# 3 -0.001238 -0.001238 0.017755 0.000000 0.000000 0.000000
# 4 0.000000 0.000000 0.000000 0.081707 0.000000 0.000000
# 5 0.000000 0.000000 0.000000 0.000000 0.081707 0.000000
# 6 0.000000 0.000000 0.000000 0.000000 0.000000 0.023058
#
#
# Mechanical properties :
#
#
# Convention : Reuss Voigt Hill
#
# Bulk Modulus (GPa) = 30.14755 31.65973 30.90364
# Shear Modulus (GPa) = 20.55134 28.46365 24.50750
#
# Velocity S-wave (km/s) = 3.03527 3.57210 3.31457
# Velocity P-wave (km/s) = 5.07923 5.58621 5.33874
#
# Compressibility (1/GPa) = 0.03317019
#
# Stress axis : x y z
#
# Youngs Moduli (GPa) = 92.11333 92.11333 56.32309
#
# Poissons Ratio (x) = 0.06200 0.06971
# Poissons Ratio (y) = 0.06200 0.06971
# Poissons Ratio (z) = 0.11401 0.11401
#
# Static dielectric constant tensor:
#      x y z
#    x 4.044170 0.000000 0.000000 
#    y 0.000000 4.044170 0.000000 
#    z 0.000000 0.000000 3.633380 
# 
# 
# High freq. dielectric constant tensor:
#      x y z
#    x 1.884640 0.000000 0.000000 
#    y 0.000000 1.884640 0.000000 
#    z 0.000000 0.000000 1.855020 
# 
# From -- ./inp_files/991.got.cif
#   From: 2010.06.25/outbox.cif.g09.slc.cpg/sg176_1_cif.got.tgz:991.got - 2010.06.28 12:15:01.
