data_PCOD8325131
_publ_section_title
;
Structure prediction by ZEFSAII (Michael W. Deem and Ramdas Pophale) SiO2 
 PCOD8325131
Probable space group: P 6/M
;
_chemical_formula_sum "Si O2"
_cell_formula_units_Z 84
_cell_length_a 14.101687
_cell_length_b 14.101687
_cell_length_c 25.471518
_cell_angle_alpha 90.000000
_cell_angle_beta 90.000000
_cell_angle_gamma 120.000000
_cell_volume 4386.595628
_symmetry_space_group_name_H-M "P 6/M"
_symmetry_group_IT_number 175
_symmetry_cell_setting 'hexagonal'
loop_
_space_group_symop_operation_xyz
x,y,z
x-y,x,z
-y,x-y,z
-x,-y,z
-x+y,-x,z
y,-x+y,z
-x,-y,-z
-x+y,-x,-z
y,-x+y,-z
x,y,-z
x-y,x,-z
-y,x-y,-z
loop_
_atom_site_type_symbol
_atom_site_label
_atom_site_fract_x
_atom_site_fract_y
_atom_site_fract_z
Si Si1 0.163811 0.254859 0.304096
Si Si2 0.126291 0.546639 0.749674
Si Si3 0.149312 0.259936 0.885864
Si Si4 0.588558 0.815228 0.399988
Si Si5 0.873929 0.454088 0.632749
Si Si6 0.774792 0.586943 0.210038
Si Si7 0.855012 0.747955 0.000000
Si Si8 0.154598 0.258794 0.500000
O O1 0.196796 0.162650 0.309395
O O2 0.223986 0.343501 0.349200
O O3 0.207410 0.316402 0.249237
O O4 0.179997 0.568845 0.691225
O O5 0.138464 0.452803 0.779217
O O6 0.178195 0.656748 0.783919
O O7 0.000000 0.500000 0.743058
O O8 0.194021 0.175693 0.876516
O O9 0.209087 0.364000 0.847919
O O10 0.182055 0.316525 0.944353
O O11 0.547757 0.686763 0.396811
O O12 0.477688 0.821938 0.402091
O O13 0.664038 0.867498 0.449989
O O14 0.000000 0.500000 0.638811
O O15 0.818711 0.836028 0.000000
O O16 0.193693 0.170020 0.500000
#
# Coordination Sequence:
#
# PCOD8325131 Si02
#       8
#    12  12  12  12  12  12   6   6
#     4  12  23  38  58  87 122 159 196 240 297 365
#     4  11  21  36  56  81 112 149 189 239 300 356
#     4  10  19  33  54  86 124 163 202 246 299 362
#     4  12  25  42  67  92 122 159 202 246 297 351
#     4  11  21  39  63  86 114 150 194 247 295 346
#     4  12  23  36  58  83 115 153 199 251 307 362
#     4   8  15  28  50  78 116 162 206 246 293 352
#     4  12  27  48  70  96 128 166 203 240 292 366
#
# _framework density 19.149246999999999
#
# number of rings (size 3 to 8) (size 9 to 14) (size 15 to 20)
#    0.000    0.857    2.857    6.143    0.000    1.714 
#    0.000    4.286    0.000    0.857    0.000    4.000 
#    0.000    0.000    0.000    0.000    0.000    0.000 
#
# Total GULP energy -1041526.141618 kJ/mol
# GULP energy per Si atom -12399.120734 kJ/mol
# Density = 1.910566 g / cm^3
# Si number density = 19.149247 Si / 1000 Ang^3
#
#
#
# Elastic Constant Matrix: (Units=GPa)
#
#
# Indices 1 2 3 4 5 6 
#
# 1 79.7994 1.2682 34.8731 0.0000 0.0000 0.0000
# 2 1.2682 79.7994 34.8731 0.0000 0.0000 0.0000
# 3 34.8731 34.8731 127.5005 0.0000 0.0000 0.0000
# 4 0.0000 0.0000 0.0000 -119.1654 0.0000 0.0000
# 5 0.0000 0.0000 0.0000 0.0000 -119.1654 0.0000
# 6 0.0000 0.0000 0.0000 0.0000 0.0000 39.2656
#
#
#
# Elastic Compliance Matrix: (Units=1/GPa)
#
#
# Indices 1 2 3 4 5 6 
#
# 1 0.014433 0.001699 -0.004412 0.000000 0.000000 0.000000
# 2 0.001699 0.014433 -0.004412 0.000000 0.000000 0.000000
# 3 -0.004412 -0.004412 0.010257 0.000000 0.000000 0.000000
# 4 0.000000 0.000000 0.000000 -0.008392 0.000000 0.000000
# 5 0.000000 0.000000 0.000000 0.000000 -0.008392 0.000000
# 6 0.000000 0.000000 0.000000 0.000000 0.000000 0.025468
#
#
# Mechanical properties :
#
#
# Convention : Reuss Voigt Hill
#
# Bulk Modulus (GPa) = 40.20778 47.68091 43.94435
# Shear Modulus (GPa) = 71.07588 -25.40739 22.83425
#
# Velocity S-wave (km/s) = 6.09897 -3.64649 3.45691
# Velocity P-wave (km/s) = 8.40471 2.68784 6.23954
#
# Compressibility (1/GPa) = 0.02487081
#
# Stress axis : x y z
#
# Youngs Moduli (GPa) = 69.28766 69.28766 97.49750
#
# Poissons Ratio (x) = -0.11770 0.43017
# Poissons Ratio (y) = -0.11770 0.43017
# Poissons Ratio (z) = 0.30571 0.30571
#
# Static dielectric constant tensor:
#      x y z
#    x 3.692730 0.000000 0.000000 
#    y 0.000000 3.692730 0.000000 
#    z 0.000000 0.000000 6.047910 
# 
# 
# High freq. dielectric constant tensor:
#      x y z
#    x 1.749600 0.000000 0.000000 
#    y 0.000000 1.749600 0.000000 
#    z 0.000000 0.000000 1.732440 
# 
# From -- ./inp_files/3266.got.cif
#   From: 2010.03.12/outbox.cif.g09.slc.cpg/sg175_2_cif.got.tgz:3266.got - 2010.04.02 06:55:29.
