data_PCOD8325856
_publ_section_title
;
Structure prediction by ZEFSAII (Michael W. Deem and Ramdas Pophale) SiO2 
 PCOD8325856
Probable space group: P 61 2 2
;
_chemical_formula_sum "Si O2"
_cell_formula_units_Z 48
_cell_length_a 15.435066
_cell_length_b 15.435066
_cell_length_c 11.600017
_cell_angle_alpha 90.000000
_cell_angle_beta 90.000000
_cell_angle_gamma 120.000000
_cell_volume 2393.350139
_symmetry_space_group_name_H-M "P 61 2 2"
_symmetry_group_IT_number 178
_symmetry_cell_setting 'hexagonal'
loop_
_space_group_symop_operation_xyz
x,y,z
x-y,x,1/6+z
-y,x-y,1/3+z
-x,-y,1/2+z
-x+y,-x,2/3+z
y,-x+y,5/6+z
x-y,-y,-z
-x,-x+y,2/3-z
y,x,1/3-z
-y,-x,5/6-z
-x+y,y,1/2-z
x,x-y,1/6-z
loop_
_atom_site_type_symbol
_atom_site_label
_atom_site_fract_x
_atom_site_fract_y
_atom_site_fract_z
Si Si1 0.832940 0.605732 0.073842
Si Si2 0.090127 0.169736 0.573849
Si Si3 0.359538 0.894459 0.447641
Si Si4 0.301040 0.747478 0.043673
O O1 0.896998 0.722584 0.045985
O O2 0.899807 0.570810 0.148042
O O3 0.739084 0.593268 0.144269
O O4 0.795053 0.543078 0.957216
O O5 0.100132 0.121714 0.455686
O O6 0.170987 0.170987 0.666667
O O7 0.398887 0.817667 0.454725
O O8 0.442727 0.000000 0.500000
O O9 0.272752 0.636376 0.083334
O O10 0.258144 0.741857 0.916667
#
# Coordination Sequence:
#
# PCOD8325856 Si02
#       4
#    12  12  12  12
#     4  11  21  38  66  95 134 163 224 274 339 387
#     4  10  20  39  69  97 125 165 218 275 336 399
#     4  11  21  37  64  97 125 172 229 275 320 395
#     4  12  22  44  64  90 134 186 219 269 331 410
#
# _framework density 20.055568999999998
#
# number of rings (size 3 to 8) (size 9 to 14) (size 15 to 20)
#    0.000    1.000    5.000    6.000    0.000    0.000 
#   13.500    0.000   16.500    0.000    0.000    0.000 
#    0.000    0.000    0.000    0.000    0.000    0.000 
#
# Total GULP energy -595203.375049 kJ/mol
# GULP energy per Si atom -12400.070314 kJ/mol
# Density = 2.000992 g / cm^3
# Si number density = 20.055569 Si / 1000 Ang^3
#
#
#
# Elastic Constant Matrix: (Units=GPa)
#
#
# Indices 1 2 3 4 5 6 
#
# 1 138.6973 -5.0759 59.8965 0.0000 0.0000 0.0000
# 2 -5.0759 138.6973 59.8965 0.0000 0.0000 0.0000
# 3 59.8965 59.8965 148.4842 0.0000 0.0000 0.0000
# 4 0.0000 0.0000 0.0000 28.9791 0.0000 0.0000
# 5 0.0000 0.0000 0.0000 0.0000 28.9791 0.0000
# 6 0.0000 0.0000 0.0000 0.0000 0.0000 71.8866
#
#
#
# Elastic Compliance Matrix: (Units=1/GPa)
#
#
# Indices 1 2 3 4 5 6 
#
# 1 0.009339 0.002384 -0.004729 0.000000 0.000000 0.000000
# 2 0.002384 0.009339 -0.004729 0.000000 0.000000 0.000000
# 3 -0.004729 -0.004729 0.010550 0.000000 0.000000 0.000000
# 4 0.000000 0.000000 0.000000 0.034508 0.000000 0.000000
# 5 0.000000 0.000000 0.000000 0.000000 0.034508 0.000000
# 6 0.000000 0.000000 0.000000 0.000000 0.000000 0.013911
#
#
# Mechanical properties :
#
#
# Convention : Reuss Voigt Hill
#
# Bulk Modulus (GPa) = 66.31013 72.81255 69.56134
# Shear Modulus (GPa) = 38.07200 46.71309 42.39254
#
# Velocity S-wave (km/s) = 4.36170 4.83140 4.60255
# Velocity P-wave (km/s) = 7.64859 8.21629 7.93752
#
# Compressibility (1/GPa) = 0.01508065
#
# Stress axis : x y z
#
# Youngs Moduli (GPa) = 107.07261 107.07261 94.78646
#
# Poissons Ratio (x) = -0.25527 0.44825
# Poissons Ratio (y) = -0.25527 0.44825
# Poissons Ratio (z) = 0.50636 0.50636
#
# Static dielectric constant tensor:
#      x y z
#    x 3.548360 0.000000 0.000000 
#    y 0.000000 3.548360 0.000000 
#    z 0.000000 0.000000 3.745840 
# 
# 
# High freq. dielectric constant tensor:
#      x y z
#    x 1.777580 0.000000 0.000000 
#    y 0.000000 1.777580 0.000000 
#    z 0.000000 0.000000 1.772700 
# 
# From -- ./inp_files/4086.got.cif
#   From: 2010.03.12/outbox.cif.g09.slc.cpg/sg178_3_cif.got.tgz:4086.got - 2010.04.02 07:02:38.
