data_PCOD8325221
_publ_section_title
;
Structure prediction by ZEFSAII (Michael W. Deem and Ramdas Pophale) SiO2 
 PCOD8325221
Probable space group: P 6/M
;
_chemical_formula_sum "Si O2"
_cell_formula_units_Z 84
_cell_length_a 17.165705
_cell_length_b 17.165705
_cell_length_c 15.654296
_cell_angle_alpha 90.000000
_cell_angle_beta 90.000000
_cell_angle_gamma 120.000000
_cell_volume 3994.730290
_symmetry_space_group_name_H-M "P 6/M"
_symmetry_group_IT_number 175
_symmetry_cell_setting 'hexagonal'
loop_
_space_group_symop_operation_xyz
x,y,z
x-y,x,z
-y,x-y,z
-x,-y,z
-x+y,-x,z
y,-x+y,z
-x,-y,-z
-x+y,-x,-z
y,-x+y,-z
x,y,-z
x-y,x,-z
-y,x-y,-z
loop_
_atom_site_type_symbol
_atom_site_label
_atom_site_fract_x
_atom_site_fract_y
_atom_site_fract_z
Si Si1 0.728461 0.080680 0.906151
Si Si2 0.328182 0.490963 0.246837
Si Si3 0.379850 0.270718 0.595897
Si Si4 0.100603 0.212357 0.678509
Si Si5 0.157215 0.493370 0.763901
Si Si6 0.396557 0.453007 0.594776
Si Si7 0.903097 0.212387 0.160696
O O1 0.671483 0.089611 0.829467
O O2 0.825748 0.170075 0.910440
O O3 0.745067 0.997934 0.886047
O O4 0.683224 0.068790 0.000000
O O5 0.261398 0.526118 0.217571
O O6 0.427339 0.564233 0.217493
O O7 0.335406 0.480293 0.348979
O O8 0.296719 0.393819 0.206283
O O9 0.414903 0.266460 0.500000
O O10 0.299792 0.170502 0.619241
O O11 0.458586 0.310141 0.666539
O O12 0.347285 0.344305 0.595448
O O13 0.149109 0.154700 0.660150
O O14 0.130063 0.249210 0.774589
O O15 0.500000 0.500000 0.630080
O O16 0.399569 0.490316 0.500000
#
# Coordination Sequence:
#
# PCOD8325221 Si02
#       7
#    12  12  12  12  12  12  12
#     4  11  23  42  66  98 133 169 213 270 334 401
#     4  11  22  38  63  89 126 171 216 271 326 391
#     4  11  23  40  63  94 132 173 220 274 333 399
#     4  12  23  43  67  97 132 174 223 278 337 400
#     4  11  23  41  61  92 130 171 221 269 335 396
#     4  10  20  35  59  90 124 167 218 268 320 383
#     4  11  22  40  67  96 127 168 217 267 333 399
#
# _framework density 21.027704
#
# number of rings (size 3 to 8) (size 9 to 14) (size 15 to 20)
#    0.000    1.000    5.714    2.571    0.000    1.143 
#    0.000    4.286    0.000    2.571    0.000    2.000 
#    0.000    0.000    0.000    0.000    0.000    0.000 
#
# Total GULP energy -1040622.496364 kJ/mol
# GULP energy per Si atom -12388.363052 kJ/mol
# Density = 2.097984 g / cm^3
# Si number density = 21.027704 Si / 1000 Ang^3
#
#
#
# Elastic Constant Matrix: (Units=GPa)
#
#
# Indices 1 2 3 4 5 6 
#
# 1 90.4972 22.1378 21.5855 0.0000 0.0000 0.0000
# 2 22.1378 90.4972 21.5855 0.0000 0.0000 0.0000
# 3 21.5855 21.5855 104.3059 0.0000 0.0000 0.0000
# 4 0.0000 0.0000 0.0000 15.6244 0.0000 0.0000
# 5 0.0000 0.0000 0.0000 0.0000 15.6244 0.0000
# 6 0.0000 0.0000 0.0000 0.0000 0.0000 34.1797
#
#
#
# Elastic Compliance Matrix: (Units=1/GPa)
#
#
# Indices 1 2 3 4 5 6 
#
# 1 0.012136 -0.002493 -0.001996 0.000000 0.000000 0.000000
# 2 -0.002493 0.012136 -0.001996 0.000000 0.000000 0.000000
# 3 -0.001996 -0.001996 0.010413 0.000000 0.000000 0.000000
# 4 0.000000 0.000000 0.000000 0.064003 0.000000 0.000000
# 5 0.000000 0.000000 0.000000 0.000000 0.064003 0.000000
# 6 0.000000 0.000000 0.000000 0.000000 0.000000 0.029257
#
#
# Mechanical properties :
#
#
# Convention : Reuss Voigt Hill
#
# Bulk Modulus (GPa) = 46.04683 46.21308 46.12996
# Shear Modulus (GPa) = 23.56780 27.75179 25.65979
#
# Velocity S-wave (km/s) = 3.35146 3.63681 3.49705
# Velocity P-wave (km/s) = 6.07636 6.29763 6.18798
#
# Compressibility (1/GPa) = 0.02171702
#
# Stress axis : x y z
#
# Youngs Moduli (GPa) = 82.40056 82.40056 96.03257
#
# Poissons Ratio (x) = 0.20540 0.19164
# Poissons Ratio (y) = 0.20540 0.19164
# Poissons Ratio (z) = 0.16444 0.16444
#
# Static dielectric constant tensor:
#      x y z
#    x 3.848900 0.000000 0.000000 
#    y 0.000000 3.848900 0.000000 
#    z 0.000000 0.000000 3.721530 
# 
# 
# High freq. dielectric constant tensor:
#      x y z
#    x 1.820740 0.000000 0.000000 
#    y 0.000000 1.820740 0.000000 
#    z 0.000000 0.000000 1.808120 
# 
# From -- ./inp_files/2625.got.cif
#   From: 2010.03.12/outbox.cif.g09.slc.cpg/sg175_2_cif.got.tgz:2625.got - 2010.04.02 06:55:29.
