data_PCOD8325230
_publ_section_title
;
Structure prediction by ZEFSAII (Michael W. Deem and Ramdas Pophale) SiO2 
 PCOD8325230
Probable space group: P 6/M
;
_chemical_formula_sum "Si O2"
_cell_formula_units_Z 90
_cell_length_a 18.568286
_cell_length_b 18.568286
_cell_length_c 16.086347
_cell_angle_alpha 90.000000
_cell_angle_beta 90.000000
_cell_angle_gamma 120.000000
_cell_volume 4803.211362
_symmetry_space_group_name_H-M "P 6/M"
_symmetry_group_IT_number 175
_symmetry_cell_setting 'hexagonal'
loop_
_space_group_symop_operation_xyz
x,y,z
x-y,x,z
-y,x-y,z
-x,-y,z
-x+y,-x,z
y,-x+y,z
-x,-y,-z
-x+y,-x,-z
y,-x+y,-z
x,y,-z
x-y,x,-z
-y,x-y,-z
loop_
_atom_site_type_symbol
_atom_site_label
_atom_site_fract_x
_atom_site_fract_y
_atom_site_fract_z
Si Si1 0.483556 0.761951 0.323930
Si Si2 0.688705 0.506526 0.094711
Si Si3 0.960474 0.554465 0.268337
Si Si4 0.845415 0.454484 0.594547
Si Si5 0.341720 0.801287 0.171748
Si Si6 0.813710 0.944857 0.000000
Si Si7 0.632313 0.898956 0.235309
Si Si8 0.864390 0.806533 0.819132
O O1 0.477619 0.705529 0.402919
O O2 0.445972 0.819703 0.348927
O O3 0.433391 0.699506 0.247215
O O4 0.578951 0.820990 0.295926
O O5 0.612898 0.430571 0.142444
O O6 0.766612 0.489892 0.095149
O O7 0.712679 0.591476 0.143059
O O8 0.665462 0.514178 0.000000
O O9 0.927802 0.527706 0.362909
O O10 0.886545 0.537014 0.204954
O O11 0.000000 0.500000 0.235850
O O12 0.021590 0.652123 0.270582
O O13 0.863739 0.441553 0.500000
O O14 0.855683 0.890215 0.000000
O O15 0.765969 0.930476 0.912344
O O16 0.727058 0.917961 0.238799
O O17 0.842913 0.880096 0.802989
#
# Coordination Sequence:
#
# PCOD8325230 Si02
#       8
#    12  12  12  12  12   6  12  12
#     4  10  20  37  57  84 120 156 196 239 284 346
#     4  11  22  36  55  82 114 151 212 264 292 324
#     4  11  20  40  56  78 113 156 196 228 290 356
#     4  11  22  36  61  90 119 152 193 240 282 341
#     4  10  20  36  59  76 110 157 199 245 287 339
#     4   8  15  32  54  82 107 136 168 230 302 360
#     4  11  23  37  56  83 115 162 194 243 299 362
#     4  10  22  38  62  87 115 145 193 246 308 367
#
# _framework density 18.737463999999999
#
# number of rings (size 3 to 8) (size 9 to 14) (size 15 to 20)
#    0.000    1.600    2.667    3.933    6.533    3.467 
#    0.000    2.000    0.000    0.000    0.000    0.000 
#    0.000    0.000    0.000    1.200    0.000    0.000 
#
# Total GULP energy -1115206.816172 kJ/mol
# GULP energy per Si atom -12391.186846 kJ/mol
# Density = 1.869482 g / cm^3
# Si number density = 18.737464 Si / 1000 Ang^3
#
#
#
# Elastic Constant Matrix: (Units=GPa)
#
#
# Indices 1 2 3 4 5 6 
#
# 1 106.8839 38.7965 32.4518 0.0000 0.0000 0.0000
# 2 38.7965 106.8839 32.4518 0.0000 0.0000 0.0000
# 3 32.4518 32.4518 84.4780 0.0000 0.0000 0.0000
# 4 0.0000 0.0000 0.0000 14.3689 0.0000 0.0000
# 5 0.0000 0.0000 0.0000 0.0000 14.3689 0.0000
# 6 0.0000 0.0000 0.0000 0.0000 0.0000 34.0437
#
#
#
# Elastic Compliance Matrix: (Units=1/GPa)
#
#
# Indices 1 2 3 4 5 6 
#
# 1 0.011484 -0.003203 -0.003181 0.000000 0.000000 0.000000
# 2 -0.003203 0.011484 -0.003181 0.000000 0.000000 0.000000
# 3 -0.003181 -0.003181 0.014282 0.000000 0.000000 0.000000
# 4 0.000000 0.000000 0.000000 0.069595 0.000000 0.000000
# 5 0.000000 0.000000 0.000000 0.000000 0.069595 0.000000
# 6 0.000000 0.000000 0.000000 0.000000 0.000000 0.029374
#
#
# Mechanical properties :
#
#
# Convention : Reuss Voigt Hill
#
# Bulk Modulus (GPa) = 55.18905 56.18288 55.68597
# Shear Modulus (GPa) = 21.64645 25.52602 23.58624
#
# Velocity S-wave (km/s) = 3.40258 3.69494 3.55177
# Velocity P-wave (km/s) = 6.70482 6.94642 6.82669
#
# Compressibility (1/GPa) = 0.01811954
#
# Stress axis : x y z
#
# Youngs Moduli (GPa) = 87.07504 87.07504 70.02004
#
# Poissons Ratio (x) = 0.27887 0.22276
# Poissons Ratio (y) = 0.27887 0.22276
# Poissons Ratio (z) = 0.27702 0.27702
#
# Static dielectric constant tensor:
#      x y z
#    x 3.480650 0.000000 0.000000 
#    y 0.000000 3.480650 0.000000 
#    z 0.000000 0.000000 3.302760 
# 
# 
# High freq. dielectric constant tensor:
#      x y z
#    x 1.725690 0.000000 0.000000 
#    y 0.000000 1.725690 0.000000 
#    z 0.000000 0.000000 1.700470 
# 
# From -- ./inp_files/2985.got.cif
#   From: 2010.03.12/outbox.cif.g09.slc.cpg/sg175_2_cif.got.tgz:2985.got - 2010.04.02 06:55:29.
