data_PCOD8325192
_publ_section_title
;
Structure prediction by ZEFSAII (Michael W. Deem and Ramdas Pophale) SiO2 
 PCOD8325192
Probable space group: P 6/M
;
_chemical_formula_sum "Si O2"
_cell_formula_units_Z 60
_cell_length_a 16.959044
_cell_length_b 16.959044
_cell_length_c 13.039119
_cell_angle_alpha 90.000000
_cell_angle_beta 90.000000
_cell_angle_gamma 120.000000
_cell_volume 3247.742694
_symmetry_space_group_name_H-M "P 6/M"
_symmetry_group_IT_number 175
_symmetry_cell_setting 'hexagonal'
loop_
_space_group_symop_operation_xyz
x,y,z
x-y,x,z
-y,x-y,z
-x,-y,z
-x+y,-x,z
y,-x+y,z
-x,-y,-z
-x+y,-x,-z
y,-x+y,-z
x,y,-z
x-y,x,-z
-y,x-y,-z
loop_
_atom_site_type_symbol
_atom_site_label
_atom_site_fract_x
_atom_site_fract_y
_atom_site_fract_z
Si Si1 0.405630 0.160001 0.380018
Si Si2 0.694897 0.189988 0.220540
Si Si3 0.523617 0.169204 0.883832
Si Si4 0.896281 0.796236 0.621095
Si Si5 0.594428 0.581769 0.252623
O O1 0.426325 0.168048 0.500000
O O2 0.487185 0.250441 0.326230
O O3 0.310515 0.154644 0.352305
O O4 0.397411 0.066438 0.339638
O O5 0.606298 0.199806 0.198382
O O6 0.765182 0.245770 0.128741
O O7 0.668498 0.084652 0.224411
O O8 0.446815 0.067126 0.855141
O O9 0.556905 0.172532 0.000000
O O10 0.843038 0.845154 0.668106
O O11 0.900185 0.808902 0.500000
O O12 0.500000 0.500000 0.296974
#
# Coordination Sequence:
#
# PCOD8325192 Si02
#       5
#    12  12  12  12  12
#     4  10  20  34  52  73 102 142 179 214 258 304
#     4  10  20  35  53  78 105 132 173 220 256 306
#     4  10  20  34  55  80 104 134 168 210 271 324
#     4   9  16  26  43  68  97 131 171 211 249 289
#     4   9  20  35  52  75 103 133 175 219 260 311
#
# _framework density 18.474371000000001
#
# number of rings (size 3 to 8) (size 9 to 14) (size 15 to 20)
#    0.000    2.400    0.000    2.400    0.000    8.000 
#    0.000    8.000    0.000    0.000    0.000    0.000 
#    0.000    0.000    0.000    0.000    0.000  100.400 
#
# Total GULP energy -743435.736006 kJ/mol
# GULP energy per Si atom -12390.595600 kJ/mol
# Density = 1.843232 g / cm^3
# Si number density = 18.474371 Si / 1000 Ang^3
#
#
#
# Elastic Constant Matrix: (Units=GPa)
#
#
# Indices 1 2 3 4 5 6 
#
# 1 95.4307 37.7184 49.6896 0.0000 0.0000 0.0000
# 2 37.7184 95.4307 49.6896 0.0000 0.0000 0.0000
# 3 49.6896 49.6896 101.0634 0.0000 0.0000 0.0000
# 4 0.0000 0.0000 0.0000 15.9225 0.0000 0.0000
# 5 0.0000 0.0000 0.0000 0.0000 15.9225 0.0000
# 6 0.0000 0.0000 0.0000 0.0000 0.0000 28.8562
#
#
#
# Elastic Compliance Matrix: (Units=1/GPa)
#
#
# Indices 1 2 3 4 5 6 
#
# 1 0.014596 -0.002732 -0.005833 0.000000 0.000000 0.000000
# 2 -0.002732 0.014596 -0.005833 0.000000 0.000000 0.000000
# 3 -0.005833 -0.005833 0.015631 0.000000 0.000000 0.000000
# 4 0.000000 0.000000 0.000000 0.062804 0.000000 0.000000
# 5 0.000000 0.000000 0.000000 0.000000 0.062804 0.000000
# 6 0.000000 0.000000 0.000000 0.000000 0.000000 0.034655
#
#
# Mechanical properties :
#
#
# Convention : Reuss Voigt Hill
#
# Bulk Modulus (GPa) = 62.39778 62.90222 62.65000
# Shear Modulus (GPa) = 20.90097 22.46205 21.68151
#
# Velocity S-wave (km/s) = 3.36720 3.49069 3.42950
# Velocity P-wave (km/s) = 6.99757 7.09710 7.04751
#
# Compressibility (1/GPa) = 0.01602621
#
# Stress axis : x y z
#
# Youngs Moduli (GPa) = 68.51318 68.51318 63.97627
#
# Poissons Ratio (x) = 0.18715 0.37319
# Poissons Ratio (y) = 0.18715 0.37319
# Poissons Ratio (z) = 0.39965 0.39965
#
# Static dielectric constant tensor:
#      x y z
#    x 3.574830 0.000000 0.000000 
#    y 0.000000 3.574830 0.000000 
#    z 0.000000 0.000000 3.035630 
# 
# 
# High freq. dielectric constant tensor:
#      x y z
#    x 1.723990 0.000000 0.000000 
#    y 0.000000 1.723990 0.000000 
#    z 0.000000 0.000000 1.674800 
# 
# From -- ./inp_files/1801.got.cif
#   From: 2010.03.12/outbox.cif.g09.slc.cpg/sg175_1_cif.got.tgz:1801.got - 2010.04.02 06:55:29.
