data_PCOD8325340
_publ_section_title
;
Structure prediction by ZEFSAII (Michael W. Deem and Ramdas Pophale) SiO2 
 PCOD8325340
Probable space group: P 6/M
;
_chemical_formula_sum "Si O2"
_cell_formula_units_Z 52
_cell_length_a 13.482415
_cell_length_b 13.482415
_cell_length_c 17.184205
_cell_angle_alpha 90.000000
_cell_angle_beta 90.000000
_cell_angle_gamma 120.000000
_cell_volume 2705.175582
_symmetry_space_group_name_H-M "P 6/M"
_symmetry_group_IT_number 175
_symmetry_cell_setting 'hexagonal'
loop_
_space_group_symop_operation_xyz
x,y,z
x-y,x,z
-y,x-y,z
-x,-y,z
-x+y,-x,z
y,-x+y,z
-x,-y,-z
-x+y,-x,-z
y,-x+y,-z
x,y,-z
x-y,x,-z
-y,x-y,-z
loop_
_atom_site_type_symbol
_atom_site_label
_atom_site_fract_x
_atom_site_fract_y
_atom_site_fract_z
Si Si1 0.114055 0.445970 0.910078
Si Si2 0.199632 0.251544 0.409558
Si Si3 0.666668 0.333334 0.408021
Si Si4 0.374793 0.483414 0.672362
Si Si5 0.464932 0.130441 0.151189
O O1 0.159007 0.579923 0.896288
O O2 0.208269 0.414759 0.882979
O O3 0.001570 0.369602 0.858796
O O4 0.083677 0.415545 0.000000
O O5 0.216656 0.145727 0.387447
O O6 0.224703 0.283309 0.500000
O O7 0.286474 0.359734 0.360100
O O8 0.666667 0.333334 0.500000
O O9 0.622386 0.417411 0.379856
O O10 0.500000 0.500000 0.672993
O O11 0.336594 0.495398 0.758609
#
# Coordination Sequence:
#
# PCOD8325340 Si02
#       5
#    12  12   4  12  12
#     4  11  21  39  62  90 124 158 201 248 307 371
#     4  10  22  40  65  91 120 158 206 258 311 369
#     4  12  27  42  63  90 127 170 214 258 318 387
#     4  12  24  41  61  90 126 166 206 260 312 376
#     4  11  23  38  61  93 120 162 201 253 306 366
#
# _framework density 19.222411000000001
#
# number of rings (size 3 to 8) (size 9 to 14) (size 15 to 20)
#    0.000    0.923    2.308    6.923    3.231    4.615 
#    0.000    0.000    0.000    0.462    0.000    1.615 
#    0.000    0.000    0.000    0.000    0.000    0.000 
#
# Total GULP energy -645189.271553 kJ/mol
# GULP energy per Si atom -12407.485991 kJ/mol
# Density = 1.917866 g / cm^3
# Si number density = 19.222411 Si / 1000 Ang^3
#
#
#
# Elastic Constant Matrix: (Units=GPa)
#
#
# Indices 1 2 3 4 5 6 
#
# 1 68.8413 39.2157 19.6220 0.0000 0.0000 0.0000
# 2 39.2157 68.8365 19.6216 0.0000 0.0000 0.0006
# 3 19.6220 19.6216 112.2424 0.0000 0.0000 0.0013
# 4 0.0000 0.0000 0.0000 30.3532 -0.0001 0.0000
# 5 0.0000 0.0000 0.0000 -0.0001 30.3534 0.0000
# 6 0.0000 0.0006 0.0013 0.0000 0.0000 14.8142
#
#
#
# Elastic Compliance Matrix: (Units=1/GPa)
#
#
# Indices 1 2 3 4 5 6 
#
# 1 0.021819 -0.011938 -0.001727 0.000000 0.000000 0.000001
# 2 -0.011938 0.021820 -0.001728 0.000000 0.000000 -0.000001
# 3 -0.001727 -0.001728 0.009513 0.000000 0.000000 -0.000001
# 4 0.000000 0.000000 0.000000 0.032945 0.000000 0.000000
# 5 0.000000 0.000000 0.000000 0.000000 0.032945 0.000000
# 6 0.000001 -0.000001 -0.000001 0.000000 0.000000 0.067503
#
#
# Mechanical properties :
#
#
# Convention : Reuss Voigt Hill
#
# Bulk Modulus (GPa) = 44.70843 45.20430 44.95637
# Shear Modulus (GPa) = 22.24322 26.53487 24.38904
#
# Velocity S-wave (km/s) = 3.40538 3.71942 3.56586
# Velocity P-wave (km/s) = 6.22665 6.48174 6.35548
#
# Compressibility (1/GPa) = 0.02236714
#
# Stress axis : x y z
#
# Youngs Moduli (GPa) = 45.83182 45.82852 105.11607
#
# Poissons Ratio (x) = 0.54709 0.18158
# Poissons Ratio (y) = 0.54713 0.18160
# Poissons Ratio (z) = 0.07917 0.07917
#
# Static dielectric constant tensor:
#      x y z
#    x 3.595640 0.000000 0.000000 
#    y 0.000000 3.595670 0.000000 
#    z 0.000000 0.000000 3.649030 
# 
# 
# High freq. dielectric constant tensor:
#      x y z
#    x 1.751970 0.000000 0.000000 
#    y 0.000000 1.751970 0.000000 
#    z 0.000000 0.000000 1.758970 
# 
# From -- ./inp_files/2310.got.cif
#   From: 2010.03.12/outbox.cif.g09.slc.cpg/sg175_2_cif.got.tgz:2310.got - 2010.04.02 06:55:29.
