data_PCOD8325934
_publ_section_title
;
Structure prediction by ZEFSAII (Michael W. Deem and Ramdas Pophale) SiO2 
 PCOD8325934
Probable space group: P 61 2 2
;
_chemical_formula_sum "Si O2"
_cell_formula_units_Z 54
_cell_length_a 12.064169
_cell_length_b 12.064169
_cell_length_c 20.479394
_cell_angle_alpha 90.000000
_cell_angle_beta 90.000000
_cell_angle_gamma 120.000000
_cell_volume 2581.324229
_symmetry_space_group_name_H-M "P 61 2 2"
_symmetry_group_IT_number 178
_symmetry_cell_setting 'hexagonal'
loop_
_space_group_symop_operation_xyz
x,y,z
x-y,x,1/6+z
-y,x-y,1/3+z
-x,-y,1/2+z
-x+y,-x,2/3+z
y,-x+y,5/6+z
x-y,-y,-z
-x,-x+y,2/3-z
y,x,1/3-z
-y,-x,5/6-z
-x+y,y,1/2-z
x,x-y,1/6-z
loop_
_atom_site_type_symbol
_atom_site_label
_atom_site_fract_x
_atom_site_fract_y
_atom_site_fract_z
Si Si1 0.454069 0.148117 0.258467
Si Si2 0.919779 0.188796 0.044173
Si Si3 0.524993 0.229273 0.404193
Si Si4 0.832391 0.916195 0.083334
Si Si5 0.859492 0.298472 0.361702
O O1 0.541167 0.082333 0.250000
O O2 0.491656 0.217390 0.327843
O O3 0.485776 0.250317 0.200445
O O4 0.306681 0.038735 0.253958
O O5 0.786170 0.179174 0.058948
O O6 0.924704 0.060449 0.059487
O O7 0.929778 0.194080 0.966278
O O8 0.620855 0.379146 0.416667
O O9 0.587832 0.147663 0.432911
O O10 0.815066 0.184935 0.416667
O O11 0.000000 0.343707 0.333334
#
# Coordination Sequence:
#
# PCOD8325934 Si02
#       5
#    12  12  12   6  12
#     4  12  24  47  72 101 144 186 241 294 359 434
#     4  11  24  44  72 101 140 183 231 288 364 419
#     4  11  24  44  68 106 137 181 234 293 353 428
#     4  10  24  44  66 108 136 174 238 284 350 446
#     4  11  27  46  70 106 144 185 245 300 364 437
#
# _framework density 20.919495000000001
#
# number of rings (size 3 to 8) (size 9 to 14) (size 15 to 20)
#    0.000    0.889    6.667    0.667    6.222    3.556 
#    6.000    0.000    0.000    0.000    0.000    0.000 
#    0.000    0.000    0.000    0.000    0.000    0.000 
#
# Total GULP energy -669124.110196 kJ/mol
# GULP energy per Si atom -12391.187226 kJ/mol
# Density = 2.087188 g / cm^3
# Si number density = 20.919495 Si / 1000 Ang^3
#
#
#
# Elastic Constant Matrix: (Units=GPa)
#
#
# Indices 1 2 3 4 5 6 
#
# 1 107.2607 52.7607 37.3621 0.0000 0.0000 0.0000
# 2 52.7607 107.2607 37.3621 0.0000 0.0000 0.0000
# 3 37.3621 37.3621 135.5778 0.0000 0.0000 0.0000
# 4 0.0000 0.0000 0.0000 25.9327 0.0000 0.0000
# 5 0.0000 0.0000 0.0000 0.0000 25.9327 0.0000
# 6 0.0000 0.0000 0.0000 0.0000 0.0000 27.2500
#
#
#
# Elastic Compliance Matrix: (Units=1/GPa)
#
#
# Indices 1 2 3 4 5 6 
#
# 1 0.012760 -0.005588 -0.001976 0.000000 0.000000 0.000000
# 2 -0.005588 0.012760 -0.001976 0.000000 0.000000 0.000000
# 3 -0.001976 -0.001976 0.008465 0.000000 0.000000 0.000000
# 4 0.000000 0.000000 0.000000 0.038561 0.000000 0.000000
# 5 0.000000 0.000000 0.000000 0.000000 0.038561 0.000000
# 6 0.000000 0.000000 0.000000 0.000000 0.000000 0.036697
#
#
# Mechanical properties :
#
#
# Convention : Reuss Voigt Hill
#
# Bulk Modulus (GPa) = 67.09828 67.22992 67.16410
# Shear Modulus (GPa) = 29.09411 30.66403 29.87907
#
# Velocity S-wave (km/s) = 3.73334 3.83274 3.78337
# Velocity P-wave (km/s) = 7.12236 7.19679 7.15967
#
# Compressibility (1/GPa) = 0.01490351
#
# Stress axis : x y z
#
# Youngs Moduli (GPa) = 78.36769 78.36769 118.13102
#
# Poissons Ratio (x) = 0.43794 0.23348
# Poissons Ratio (y) = 0.43794 0.23348
# Poissons Ratio (z) = 0.15489 0.15489
#
# Static dielectric constant tensor:
#      x y z
#    x 3.701600 0.000000 0.000000 
#    y 0.000000 3.701600 0.000000 
#    z 0.000000 0.000000 4.290650 
# 
# 
# High freq. dielectric constant tensor:
#      x y z
#    x 1.812350 0.000000 0.000000 
#    y 0.000000 1.812350 0.000000 
#    z 0.000000 0.000000 1.843580 
# 
# From -- ./inp_files/7434.got.cif
#   From: 2010.03.12/outbox.cif.g09.slc.cpg/sg178_4_cif.got.tgz:7434.got - 2010.04.02 07:02:38.
