data_PCOD8325945
_publ_section_title
;
Structure prediction by ZEFSAII (Michael W. Deem and Ramdas Pophale) SiO2 
 PCOD8325945
Probable space group: P 61 2 2
;
_chemical_formula_sum "Si O2"
_cell_formula_units_Z 42
_cell_length_a 13.034721
_cell_length_b 13.034721
_cell_length_c 12.102694
_cell_angle_alpha 90.000000
_cell_angle_beta 90.000000
_cell_angle_gamma 120.000000
_cell_volume 1780.804171
_symmetry_space_group_name_H-M "P 61 2 2"
_symmetry_group_IT_number 178
_symmetry_cell_setting 'hexagonal'
loop_
_space_group_symop_operation_xyz
x,y,z
x-y,x,1/6+z
-y,x-y,1/3+z
-x,-y,1/2+z
-x+y,-x,2/3+z
y,-x+y,5/6+z
x-y,-y,-z
-x,-x+y,2/3-z
y,x,1/3-z
-y,-x,5/6-z
-x+y,y,1/2-z
x,x-y,1/6-z
loop_
_atom_site_type_symbol
_atom_site_label
_atom_site_fract_x
_atom_site_fract_y
_atom_site_fract_z
Si Si1 0.803746 0.831556 0.486291
Si Si2 0.792687 0.358406 0.206191
Si Si3 0.661607 0.087398 0.216402
Si Si4 0.552674 0.000000 0.000000
O O1 0.919826 0.832976 0.540387
O O2 0.751989 0.875995 0.583334
O O3 0.693173 0.701084 0.455780
O O4 0.686977 0.373953 0.250000
O O5 0.761808 0.223913 0.218446
O O6 0.900463 0.426907 0.288711
O O7 0.826525 0.413263 0.083334
O O8 0.532602 0.065203 0.250000
O O9 0.654512 0.047051 0.091102
#
# Coordination Sequence:
#
# PCOD8325945 Si02
#       4
#    12  12  12   6
#     4  10  25  49  78 108 143 197 260 320 381 454
#     4  11  24  46  67 102 151 194 245 304 378 458
#     4  11  27  42  72 110 148 198 245 312 384 466
#     4  12  26  42  72 102 146 202 236 302 378 458
#
# _framework density 23.584848999999998
#
# number of rings (size 3 to 8) (size 9 to 14) (size 15 to 20)
#    0.000    1.143    2.857    0.857   12.000    0.000 
#    0.000    8.571    0.000    0.000    0.000    0.000 
#    0.000    0.000    0.000    0.000    0.000    0.000 
#
# Total GULP energy -520536.298723 kJ/mol
# GULP energy per Si atom -12393.721398 kJ/mol
# Density = 2.353117 g / cm^3
# Si number density = 23.584849 Si / 1000 Ang^3
#
#
#
# Elastic Constant Matrix: (Units=GPa)
#
#
# Indices 1 2 3 4 5 6 
#
# 1 94.5989 50.8772 41.0408 0.0000 0.0000 0.0000
# 2 50.8772 94.5989 41.0408 0.0000 0.0000 0.0000
# 3 41.0408 41.0408 117.3714 0.0000 0.0000 0.0000
# 4 0.0000 0.0000 0.0000 52.6934 0.0000 0.0000
# 5 0.0000 0.0000 0.0000 0.0000 52.6934 0.0000
# 6 0.0000 0.0000 0.0000 0.0000 0.0000 21.8609
#
#
#
# Elastic Compliance Matrix: (Units=1/GPa)
#
#
# Indices 1 2 3 4 5 6 
#
# 1 0.015718 -0.007154 -0.002994 0.000000 0.000000 0.000000
# 2 -0.007154 0.015718 -0.002994 0.000000 0.000000 0.000000
# 3 -0.002994 -0.002994 0.010614 0.000000 0.000000 0.000000
# 4 0.000000 0.000000 0.000000 0.018978 0.000000 0.000000
# 5 0.000000 0.000000 0.000000 0.000000 0.018978 0.000000
# 6 0.000000 0.000000 0.000000 0.000000 0.000000 0.045744
#
#
# Mechanical properties :
#
#
# Convention : Reuss Voigt Hill
#
# Bulk Modulus (GPa) = 63.43754 63.60966 63.52360
# Shear Modulus (GPa) = 31.78862 37.02358 34.40610
#
# Velocity S-wave (km/s) = 3.67528 3.96637 3.82360
# Velocity P-wave (km/s) = 6.70568 6.92858 6.81804
#
# Compressibility (1/GPa) = 0.01576354
#
# Stress axis : x y z
#
# Youngs Moduli (GPa) = 63.62257 63.62257 94.21499
#
# Poissons Ratio (x) = 0.45517 0.28211
# Poissons Ratio (y) = 0.45517 0.28211
# Poissons Ratio (z) = 0.19051 0.19051
#
# Static dielectric constant tensor:
#      x y z
#    x 4.245490 0.000000 0.000000 
#    y 0.000000 4.245490 0.000000 
#    z 0.000000 0.000000 3.633980 
# 
# 
# High freq. dielectric constant tensor:
#      x y z
#    x 1.934890 0.000000 0.000000 
#    y 0.000000 1.934890 0.000000 
#    z 0.000000 0.000000 1.945730 
# 
# From -- ./inp_files/3936.got.cif
#   From: 2010.03.12/outbox.cif.g09.slc.cpg/sg178_2_cif.got.tgz:3936.got - 2010.04.02 07:02:38.
