data_PCOD8325279
_publ_section_title
;
Structure prediction by ZEFSAII (Michael W. Deem and Ramdas Pophale) SiO2 
 PCOD8325279
Probable space group: P 6/M
;
_chemical_formula_sum "Si O2"
_cell_formula_units_Z 24
_cell_length_a 11.127145
_cell_length_b 11.127145
_cell_length_c 11.034706
_cell_angle_alpha 90.000000
_cell_angle_beta 90.000000
_cell_angle_gamma 120.000000
_cell_volume 1183.201995
_symmetry_space_group_name_H-M "P 6/M"
_symmetry_group_IT_number 175
_symmetry_cell_setting 'hexagonal'
loop_
_space_group_symop_operation_xyz
x,y,z
x-y,x,z
-y,x-y,z
-x,-y,z
-x+y,-x,z
y,-x+y,z
-x,-y,-z
-x+y,-x,-z
y,-x+y,-z
x,y,-z
x-y,x,-z
-y,x-y,-z
loop_
_atom_site_type_symbol
_atom_site_label
_atom_site_fract_x
_atom_site_fract_y
_atom_site_fract_z
Si Si1 0.000000 0.500000 0.787790
Si Si2 0.525107 0.350906 0.000000
Si Si3 0.698344 0.945368 0.642568
O O1 0.082062 0.636685 0.704424
O O2 0.093976 0.462578 0.874893
O O3 0.518942 0.204433 0.000000
O O4 0.732054 0.826351 0.682295
O O5 0.673862 0.940238 0.500000
#
# Coordination Sequence:
#
# PCOD8325279 Si02
#       3
#     6   6  12
#     4  11  19  34  58  82 109 145 198 234 274 341
#     4   9  20  34  50  76 110 147 178 230 284 325
#     4  10  21  37  57  83 115 152 189 232 284 337
#
# _framework density 20.283942
#
# number of rings (size 3 to 8) (size 9 to 14) (size 15 to 20)
#    0.500    1.500    0.000    4.250    0.000    2.000 
#    3.000    0.000    0.000    0.000    0.000   17.500 
#    0.000    0.000    0.000    0.000    0.000    0.000 
#
# Total GULP energy -297367.142842 kJ/mol
# GULP energy per Si atom -12390.297618 kJ/mol
# Density = 2.023778 g / cm^3
# Si number density = 20.283942 Si / 1000 Ang^3
#
#
#
# Elastic Constant Matrix: (Units=GPa)
#
#
# Indices 1 2 3 4 5 6 
#
# 1 64.7841 -7.3161 30.0841 0.0000 0.0000 0.0000
# 2 -7.3161 64.7841 30.0841 0.0000 0.0000 0.0000
# 3 30.0841 30.0841 73.8002 0.0000 0.0000 0.0000
# 4 0.0000 0.0000 0.0000 12.9969 0.0000 0.0000
# 5 0.0000 0.0000 0.0000 0.0000 12.9969 0.0000
# 6 0.0000 0.0000 0.0000 0.0000 0.0000 36.0501
#
#
#
# Elastic Compliance Matrix: (Units=1/GPa)
#
#
# Indices 1 2 3 4 5 6 
#
# 1 0.022114 0.008244 -0.012375 0.000000 0.000000 0.000000
# 2 0.008244 0.022114 -0.012375 0.000000 0.000000 0.000000
# 3 -0.012375 -0.012375 0.023639 0.000000 0.000000 0.000000
# 4 0.000000 0.000000 0.000000 0.076941 0.000000 0.000000
# 5 0.000000 0.000000 0.000000 0.000000 0.076941 0.000000
# 6 0.000000 0.000000 0.000000 0.000000 0.000000 0.027739
#
#
# Mechanical properties :
#
#
# Convention : Reuss Voigt Hill
#
# Bulk Modulus (GPa) = 28.69096 34.34141 31.51619
# Shear Modulus (GPa) = 16.99997 22.44321 19.72159
#
# Velocity S-wave (km/s) = 2.89814 3.32995 3.12152
# Velocity P-wave (km/s) = 5.03729 5.63488 5.34444
#
# Compressibility (1/GPa) = 0.03485418
#
# Stress axis : x y z
#
# Youngs Moduli (GPa) = 45.22117 45.22117 42.30246
#
# Poissons Ratio (x) = -0.37280 0.52349
# Poissons Ratio (y) = -0.37280 0.52349
# Poissons Ratio (z) = 0.55961 0.55961
#
# Static dielectric constant tensor:
#      x y z
#    x 3.491580 0.000000 0.000000 
#    y 0.000000 3.491580 0.000000 
#    z 0.000000 0.000000 3.598640 
# 
# 
# High freq. dielectric constant tensor:
#      x y z
#    x 1.779430 0.000000 0.000000 
#    y 0.000000 1.779430 0.000000 
#    z 0.000000 0.000000 1.801970 
# 
# From -- ./inp_files/1497.got.cif
#   From: 2010.03.12/outbox.cif.g09.slc.cpg/sg175_1_cif.got.tgz:1497.got - 2010.04.02 06:55:29.
