data_PCOD8325843
_publ_section_title
;
Structure prediction by ZEFSAII (Michael W. Deem and Ramdas Pophale) SiO2 
 PCOD8325843
Probable space group: P 61 2 2
;
_chemical_formula_sum "Si O2"
_cell_formula_units_Z 72
_cell_length_a 15.706400
_cell_length_b 15.706400
_cell_length_c 16.558440
_cell_angle_alpha 90.000000
_cell_angle_beta 90.000000
_cell_angle_gamma 120.000000
_cell_volume 3537.556277
_symmetry_space_group_name_H-M "P 61 2 2"
_symmetry_group_IT_number 178
_symmetry_cell_setting 'hexagonal'
loop_
_space_group_symop_operation_xyz
x,y,z
x-y,x,1/6+z
-y,x-y,1/3+z
-x,-y,1/2+z
-x+y,-x,2/3+z
y,-x+y,5/6+z
x-y,-y,-z
-x,-x+y,2/3-z
y,x,1/3-z
-y,-x,5/6-z
-x+y,y,1/2-z
x,x-y,1/6-z
loop_
_atom_site_type_symbol
_atom_site_label
_atom_site_fract_x
_atom_site_fract_y
_atom_site_fract_z
Si Si1 0.187853 0.003884 0.912691
Si Si2 0.601490 0.323017 0.326579
Si Si3 0.255183 0.031151 0.254275
Si Si4 0.835631 0.200171 0.008494
Si Si5 0.494653 0.573014 0.999019
Si Si6 0.110172 0.671521 0.199224
O O1 0.203733 0.109941 0.889877
O O2 0.237494 0.970910 0.843196
O O3 0.070596 0.929405 0.916667
O O4 0.233371 0.000000 0.000000
O O5 0.649271 0.350730 0.416667
O O6 0.673786 0.347572 0.250000
O O7 0.545128 0.384605 0.304916
O O8 0.530786 0.206430 0.330258
O O9 0.361279 0.075199 0.293166
O O10 0.185207 0.920207 0.284842
O O11 0.856821 0.310474 0.017098
O O12 0.732632 0.129506 0.052089
O O13 0.830085 0.169916 0.916667
O O14 0.484510 0.515491 0.916667
O O15 0.561483 0.542848 0.053883
#
# Coordination Sequence:
#
# PCOD8325843 Si02
#       6
#    12  12  12  12  12  12
#     4   9  18  35  59  84 115 174 224 260 335 402
#     4  11  23  44  67  94 132 174 221 284 345 407
#     4  10  20  37  59  88 128 167 214 275 332 395
#     4  11  22  39  62  97 130 172 212 276 340 408
#     4  10  21  39  67  95 125 173 216 267 346 400
#     4  11  22  39  69  95 131 170 226 268 343 419
#
# _framework density 20.353033
#
# number of rings (size 3 to 8) (size 9 to 14) (size 15 to 20)
#    0.000    1.667    5.000    1.000    0.000    2.667 
#    0.000    9.167    0.000    2.000    4.333    0.000 
#    0.000    0.000    0.000    0.000    0.000    0.000 
#
# Total GULP energy -891982.658034 kJ/mol
# GULP energy per Si atom -12388.648028 kJ/mol
# Density = 2.030671 g / cm^3
# Si number density = 20.353033 Si / 1000 Ang^3
#
#
#
# Elastic Constant Matrix: (Units=GPa)
#
#
# Indices 1 2 3 4 5 6 
#
# 1 90.2869 23.2518 29.8117 0.0000 0.0000 0.0000
# 2 23.2518 90.2869 29.8117 0.0000 0.0000 0.0000
# 3 29.8117 29.8117 134.8748 0.0000 0.0000 0.0000
# 4 0.0000 0.0000 0.0000 25.5822 0.0000 0.0000
# 5 0.0000 0.0000 0.0000 0.0000 25.5822 0.0000
# 6 0.0000 0.0000 0.0000 0.0000 0.0000 33.5176
#
#
#
# Elastic Compliance Matrix: (Units=1/GPa)
#
#
# Indices 1 2 3 4 5 6 
#
# 1 0.012441 -0.002477 -0.002202 0.000000 0.000000 0.000000
# 2 -0.002477 0.012441 -0.002202 0.000000 0.000000 0.000000
# 3 -0.002202 -0.002202 0.008388 0.000000 0.000000 0.000000
# 4 0.000000 0.000000 0.000000 0.039090 0.000000 0.000000
# 5 0.000000 0.000000 0.000000 0.000000 0.039090 0.000000
# 6 0.000000 0.000000 0.000000 0.000000 0.000000 0.029835
#
#
# Mechanical properties :
#
#
# Convention : Reuss Voigt Hill
#
# Bulk Modulus (GPa) = 51.26480 53.46656 52.36568
# Shear Modulus (GPa) = 30.95030 32.44127 31.69579
#
# Velocity S-wave (km/s) = 3.90381 3.99673 3.95055
# Velocity P-wave (km/s) = 6.74997 6.90110 6.82595
#
# Compressibility (1/GPa) = 0.01950656
#
# Stress axis : x y z
#
# Youngs Moduli (GPa) = 80.38043 80.38043 119.21951
#
# Poissons Ratio (x) = 0.19908 0.26257
# Poissons Ratio (y) = 0.19908 0.26257
# Poissons Ratio (z) = 0.17703 0.17703
#
# Static dielectric constant tensor:
#      x y z
#    x 3.803030 0.000000 0.000000 
#    y 0.000000 3.803030 0.000000 
#    z 0.000000 0.000000 3.866300 
# 
# 
# High freq. dielectric constant tensor:
#      x y z
#    x 1.787700 0.000000 0.000000 
#    y 0.000000 1.787700 0.000000 
#    z 0.000000 0.000000 1.798260 
# 
# From -- ./inp_files/6788.got.cif
#   From: 2010.03.12/outbox.cif.g09.slc.cpg/sg178_4_cif.got.tgz:6788.got - 2010.04.02 07:02:38.
