data_PCOD8325697
_publ_section_title
;
Structure prediction by ZEFSAII (Michael W. Deem and Ramdas Pophale) SiO2 
 PCOD8325697
Probable space group: P 63/M
;
_chemical_formula_sum "Si O2"
_cell_formula_units_Z 72
_cell_length_a 22.719874
_cell_length_b 22.719874
_cell_length_c 8.401602
_cell_angle_alpha 90.000000
_cell_angle_beta 90.000000
_cell_angle_gamma 120.000000
_cell_volume 3755.818295
_symmetry_space_group_name_H-M "P 63/M"
_symmetry_group_IT_number 176
_symmetry_cell_setting 'hexagonal'
loop_
_space_group_symop_operation_xyz
x,y,z
x-y,x,1/2+z
-y,x-y,z
-x,-y,1/2+z
-x+y,-x,z
y,-x+y,1/2+z
-x,-y,-z
-x+y,-x,1/2-z
y,-x+y,-z
x,y,1/2-z
x-y,x,-z
-y,x-y,1/2-z
loop_
_atom_site_type_symbol
_atom_site_label
_atom_site_fract_x
_atom_site_fract_y
_atom_site_fract_z
Si Si1 0.878835 0.014058 0.433362
Si Si2 0.612653 0.730716 0.568031
Si Si3 0.744751 0.614804 0.431720
Si Si4 0.466687 0.796644 0.559343
Si Si5 0.799603 0.462120 0.060818
Si Si6 0.256477 0.999621 0.065341
O O1 0.897062 0.032942 0.250000
O O2 0.869370 0.940333 0.464450
O O3 0.810850 0.016126 0.471262
O O4 0.624085 0.716103 0.750000
O O5 0.623628 0.805318 0.552592
O O6 0.536451 0.676182 0.508596
O O7 0.666049 0.726461 0.453037
O O8 0.724301 0.615296 0.250000
O O9 0.688854 0.541602 0.505825
O O10 0.746011 0.679588 0.513062
O O11 0.468334 0.796748 0.750000
O O12 0.409879 0.813323 0.492980
O O13 0.449306 0.722274 0.497221
O O14 0.796503 0.459239 0.250000
O O15 0.245475 0.009997 0.250000
#
# Coordination Sequence:
#
# PCOD8325697 Si02
#       6
#    12  12  12  12  12  12
#     4  12  25  42  62  86 113 140 169 207 252 300
#     4   9  17  31  48  69  96 127 161 208 261 311
#     4   8  16  29  45  64  93 127 160 199 251 305
#     4   8  12  21  38  65  96 125 156 201 255 310
#     4   8  13  21  40  68  97 125 159 204 261 316
#     4  11  21  34  52  74  98 136 181 215 248 294
#
# _framework density 19.170255999999998
#
# number of rings (size 3 to 8) (size 9 to 14) (size 15 to 20)
#    0.000    2.667    0.000    5.500    0.000    2.667 
#    0.000    1.667    0.000    0.000    0.000    5.833 
#    0.000    0.000    0.000    0.000    0.000    0.000 
#
# Total GULP energy -892407.555124 kJ/mol
# GULP energy per Si atom -12394.549377 kJ/mol
# Density = 1.912662 g / cm^3
# Si number density = 19.170256 Si / 1000 Ang^3
#
#
#
# Elastic Constant Matrix: (Units=GPa)
#
#
# Indices 1 2 3 4 5 6 
#
# 1 92.8269 38.8921 8.1557 0.0000 0.0000 0.0000
# 2 38.8921 92.8269 8.1557 0.0000 0.0000 0.0000
# 3 8.1557 8.1557 31.5146 0.0000 0.0000 0.0000
# 4 0.0000 0.0000 0.0000 16.1087 0.0000 0.0000
# 5 0.0000 0.0000 0.0000 0.0000 16.1087 0.0000
# 6 0.0000 0.0000 0.0000 0.0000 0.0000 26.9674
#
#
#
# Elastic Compliance Matrix: (Units=1/GPa)
#
#
# Indices 1 2 3 4 5 6 
#
# 1 0.013192 -0.005349 -0.002030 0.000000 0.000000 0.000000
# 2 -0.005349 0.013192 -0.002030 0.000000 0.000000 0.000000
# 3 -0.002030 -0.002030 0.032782 0.000000 0.000000 0.000000
# 4 0.000000 0.000000 0.000000 0.062078 0.000000 0.000000
# 5 0.000000 0.000000 0.000000 0.000000 0.062078 0.000000
# 6 0.000000 0.000000 0.000000 0.000000 0.000000 0.037082
#
#
# Mechanical properties :
#
#
# Convention : Reuss Voigt Hill
#
# Bulk Modulus (GPa) = 24.78352 36.39726 30.59039
# Shear Modulus (GPa) = 19.78857 22.63460 21.21159
#
# Velocity S-wave (km/s) = 3.21636 3.43988 3.32999
# Velocity P-wave (km/s) = 5.17199 5.89954 5.54770
#
# Compressibility (1/GPa) = 0.04034939
#
# Stress axis : x y z
#
# Youngs Moduli (GPa) = 75.80293 75.80293 30.50461
#
# Poissons Ratio (x) = 0.40546 0.06192
# Poissons Ratio (y) = 0.40546 0.06192
# Poissons Ratio (z) = 0.15386 0.15386
#
# Static dielectric constant tensor:
#      x y z
#    x 3.722720 0.000000 0.000000 
#    y 0.000000 3.722720 0.000000 
#    z 0.000000 0.000000 3.002100 
# 
# 
# High freq. dielectric constant tensor:
#      x y z
#    x 1.749220 0.000000 0.000000 
#    y 0.000000 1.749220 0.000000 
#    z 0.000000 0.000000 1.695760 
# 
# From -- ./inp_files/1174.got.cif
#   From: 2010.06.25/outbox.cif.g09.slc.cpg/sg176_1_cif.got.tgz:1174.got - 2010.06.28 12:15:01.
