data_PCOD8325514
_publ_section_title
;
Structure prediction by ZEFSAII (Michael W. Deem and Ramdas Pophale) SiO2 
 PCOD8325514
Probable space group: P 63/M
;
_chemical_formula_sum "Si O2"
_cell_formula_units_Z 54
_cell_length_a 19.981362
_cell_length_b 19.981362
_cell_length_c 8.069453
_cell_angle_alpha 90.000000
_cell_angle_beta 90.000000
_cell_angle_gamma 120.000000
_cell_volume 2790.132989
_symmetry_space_group_name_H-M "P 63/M"
_symmetry_group_IT_number 176
_symmetry_cell_setting 'hexagonal'
loop_
_space_group_symop_operation_xyz
x,y,z
x-y,x,1/2+z
-y,x-y,z
-x,-y,1/2+z
-x+y,-x,z
y,-x+y,1/2+z
-x,-y,-z
-x+y,-x,1/2-z
y,-x+y,-z
x,y,1/2-z
x-y,x,-z
-y,x-y,1/2-z
loop_
_atom_site_type_symbol
_atom_site_label
_atom_site_fract_x
_atom_site_fract_y
_atom_site_fract_z
Si Si1 0.965069 0.552219 0.559640
Si Si2 0.284965 0.799251 0.065338
Si Si3 0.281746 0.285804 0.554209
Si Si4 0.172639 0.846716 0.559242
Si Si5 0.714761 0.430508 0.250000
O O1 0.984445 0.565893 0.750000
O O2 0.873052 0.504386 0.525095
O O3 0.000000 0.500000 0.500000
O O4 0.001354 0.639513 0.483433
O O5 0.285104 0.766013 0.250000
O O6 0.222010 0.826042 0.065331
O O7 0.258892 0.735808 0.921494
O O8 0.289120 0.279557 0.750000
O O9 0.205326 0.289018 0.506620
O O10 0.268455 0.206705 0.467968
O O11 0.183827 0.829753 0.750000
O O12 0.622094 0.377634 0.250000
#
# Coordination Sequence:
#
# PCOD8325514 Si02
#       5
#    12  12  12  12   6
#     4   9  19  33  52  81 111 146 187 237 288 342
#     4  10  21  39  58  80 116 150 191 248 290 343
#     4   9  20  36  54  84 118 151 192 244 295 350
#     4  10  19  35  60  86 117 153 195 240 297 356
#     4  10  24  40  56  80 108 154 198 234 288 346
#
# _framework density 19.353915000000001
#
# number of rings (size 3 to 8) (size 9 to 14) (size 15 to 20)
#    0.222    2.222    1.111    2.000    1.556    5.333 
#    0.000    2.222    0.000    0.444    0.000    0.000 
#    0.000    0.000    0.000    0.000    0.000    0.000 
#
# Total GULP energy -669030.414065 kJ/mol
# GULP energy per Si atom -12389.452112 kJ/mol
# Density = 1.930986 g / cm^3
# Si number density = 19.353915 Si / 1000 Ang^3
#
#
#
# Elastic Constant Matrix: (Units=GPa)
#
#
# Indices 1 2 3 4 5 6 
#
# 1 90.2997 38.2709 16.5540 0.0000 0.0000 0.0000
# 2 38.2709 90.2997 16.5540 0.0000 0.0000 0.0000
# 3 16.5540 16.5540 68.3960 0.0000 0.0000 0.0000
# 4 0.0000 0.0000 0.0000 24.0679 0.0000 0.0000
# 5 0.0000 0.0000 0.0000 0.0000 24.0679 0.0000
# 6 0.0000 0.0000 0.0000 0.0000 0.0000 26.0144
#
#
#
# Elastic Compliance Matrix: (Units=1/GPa)
#
#
# Indices 1 2 3 4 5 6 
#
# 1 0.013757 -0.005463 -0.002008 0.000000 0.000000 0.000000
# 2 -0.005463 0.013757 -0.002008 0.000000 0.000000 0.000000
# 3 -0.002008 -0.002008 0.015593 0.000000 0.000000 0.000000
# 4 0.000000 0.000000 0.000000 0.041549 0.000000 0.000000
# 5 0.000000 0.000000 0.000000 0.000000 0.041549 0.000000
# 6 0.000000 0.000000 0.000000 0.000000 0.000000 0.038440
#
#
# Mechanical properties :
#
#
# Convention : Reuss Voigt Hill
#
# Bulk Modulus (GPa) = 41.40492 43.52815 42.46653
# Shear Modulus (GPa) = 26.08895 26.67117 26.38006
#
# Velocity S-wave (km/s) = 3.67549 3.71627 3.69594
# Velocity P-wave (km/s) = 6.28110 6.39951 6.34058
#
# Compressibility (1/GPa) = 0.02415172
#
# Stress axis : x y z
#
# Youngs Moduli (GPa) = 72.68788 72.68788 64.13322
#
# Poissons Ratio (x) = 0.39707 0.12875
# Poissons Ratio (y) = 0.39707 0.12875
# Poissons Ratio (z) = 0.14593 0.14593
#
# Static dielectric constant tensor:
#      x y z
#    x 4.271640 0.000000 0.000000 
#    y 0.000000 4.271640 0.000000 
#    z 0.000000 0.000000 3.514780 
# 
# 
# High freq. dielectric constant tensor:
#      x y z
#    x 1.735520 0.000000 0.000000 
#    y 0.000000 1.735520 0.000000 
#    z 0.000000 0.000000 1.755480 
# 
# From -- ./inp_files/819.got.cif
#   From: 2010.06.25/outbox.cif.g09.slc.cpg/sg176_1_cif.got.tgz:819.got - 2010.06.28 12:15:01.
