data_PCOD8325809
_publ_section_title
;
Structure prediction by ZEFSAII (Michael W. Deem and Ramdas Pophale) SiO2 
 PCOD8325809
Probable space group: P 61 2 2
;
_chemical_formula_sum "Si O2"
_cell_formula_units_Z 90
_cell_length_a 17.099507
_cell_length_b 17.099507
_cell_length_c 16.598193
_cell_angle_alpha 90.000000
_cell_angle_beta 90.000000
_cell_angle_gamma 120.000000
_cell_volume 4202.992553
_symmetry_space_group_name_H-M "P 61 2 2"
_symmetry_group_IT_number 178
_symmetry_cell_setting 'hexagonal'
loop_
_space_group_symop_operation_xyz
x,y,z
x-y,x,1/6+z
-y,x-y,1/3+z
-x,-y,1/2+z
-x+y,-x,2/3+z
y,-x+y,5/6+z
x-y,-y,-z
-x,-x+y,2/3-z
y,x,1/3-z
-y,-x,5/6-z
-x+y,y,1/2-z
x,x-y,1/6-z
loop_
_atom_site_type_symbol
_atom_site_label
_atom_site_fract_x
_atom_site_fract_y
_atom_site_fract_z
Si Si1 0.093966 0.246021 0.418577
Si Si2 0.486949 0.805193 0.210301
Si Si3 0.184948 0.092474 0.083334
Si Si4 0.757427 0.470594 0.660937
Si Si5 0.382294 0.284995 0.893472
Si Si6 0.936150 0.606647 0.997121
Si Si7 0.857480 0.426103 0.270730
Si Si8 0.523323 0.369838 0.765349
O O1 0.103805 0.251526 0.322360
O O2 0.195716 0.282570 0.454755
O O3 0.057581 0.310787 0.447364
O O4 0.016060 0.140990 0.439278
O O5 0.404118 0.808235 0.250000
O O6 0.575630 0.862123 0.265209
O O7 0.496556 0.844906 0.119764
O O8 0.469990 0.705201 0.211800
O O9 0.752756 0.505511 0.750000
O O10 0.805069 0.555118 0.600178
O O11 0.658530 0.415225 0.621524
O O12 0.806837 0.410479 0.667700
O O13 0.427437 0.334494 0.809276
O O14 0.387359 0.357728 0.956269
O O15 0.923002 0.526565 0.938751
O O16 0.904053 0.467967 0.358230
#
# Coordination Sequence:
#
# PCOD8325809 Si02
#       8
#    12  12   6  12  12  12  12  12
#     4  11  21  41  62  96 133 163 207 257 333 420
#     4  10  19  35  58  84 120 171 230 277 323 368
#     4  10  24  36  70  96 126 166 208 258 330 430
#     4  10  22  35  55  85 119 173 224 273 319 383
#     4  12  23  38  61  87 133 172 214 271 346 411
#     4  11  23  39  60  87 127 171 212 273 337 402
#     4  10  21  38  59  84 124 172 228 276 317 375
#     4  11  22  36  58  88 124 174 231 273 324 385
#
# _framework density 21.413315000000001
#
# number of rings (size 3 to 8) (size 9 to 14) (size 15 to 20)
#    0.000    1.333    4.000    2.800    0.933    6.400 
#    0.000    3.333    0.000    0.000    0.000    0.000 
#   48.000    0.000    0.000    0.000    0.000    0.000 
#
# Total GULP energy -1115140.296598 kJ/mol
# GULP energy per Si atom -12390.447740 kJ/mol
# Density = 2.136458 g / cm^3
# Si number density = 21.413315 Si / 1000 Ang^3
#
#
#
# Elastic Constant Matrix: (Units=GPa)
#
#
# Indices 1 2 3 4 5 6 
#
# 1 88.7309 33.8848 44.3722 0.0000 0.0000 0.0000
# 2 33.8848 88.7309 44.3722 0.0000 0.0000 0.0000
# 3 44.3722 44.3722 131.0649 0.0000 0.0000 0.0000
# 4 0.0000 0.0000 0.0000 27.6333 0.0000 0.0000
# 5 0.0000 0.0000 0.0000 0.0000 27.6333 0.0000
# 6 0.0000 0.0000 0.0000 0.0000 0.0000 27.4231
#
#
#
# Elastic Compliance Matrix: (Units=1/GPa)
#
#
# Indices 1 2 3 4 5 6 
#
# 1 0.014518 -0.003715 -0.003657 0.000000 0.000000 0.000000
# 2 -0.003715 0.014518 -0.003657 0.000000 0.000000 0.000000
# 3 -0.003657 -0.003657 0.010106 0.000000 0.000000 0.000000
# 4 0.000000 0.000000 0.000000 0.036188 0.000000 0.000000
# 5 0.000000 0.000000 0.000000 0.000000 0.036188 0.000000
# 6 0.000000 0.000000 0.000000 0.000000 0.000000 0.036466
#
#
# Mechanical properties :
#
#
# Convention : Reuss Voigt Hill
#
# Bulk Modulus (GPa) = 58.54013 61.53169 60.03591
# Shear Modulus (GPa) = 28.45162 28.93108 28.69135
#
# Velocity S-wave (km/s) = 3.64907 3.67969 3.66441
# Velocity P-wave (km/s) = 6.71951 6.84479 6.78244
#
# Compressibility (1/GPa) = 0.01708230
#
# Stress axis : x y z
#
# Youngs Moduli (GPa) = 68.88159 68.88159 98.95001
#
# Poissons Ratio (x) = 0.25591 0.36188
# Poissons Ratio (y) = 0.25591 0.36188
# Poissons Ratio (z) = 0.25191 0.25191
#
# Static dielectric constant tensor:
#      x y z
#    x 3.839800 0.000000 0.000000 
#    y 0.000000 3.839800 0.000000 
#    z 0.000000 0.000000 4.224400 
# 
# 
# High freq. dielectric constant tensor:
#      x y z
#    x 1.814890 0.000000 0.000000 
#    y 0.000000 1.814890 0.000000 
#    z 0.000000 0.000000 1.850820 
# 
# From -- ./inp_files/6988.got.cif
#   From: 2010.03.12/outbox.cif.g09.slc.cpg/sg178_4_cif.got.tgz:6988.got - 2010.04.02 07:02:38.
