data_PCOD8325895
_publ_section_title
;
Structure prediction by ZEFSAII (Michael W. Deem and Ramdas Pophale) SiO2 
 PCOD8325895
Probable space group: P 61 2 2
;
_chemical_formula_sum "Si O2"
_cell_formula_units_Z 30
_cell_length_a 6.969899
_cell_length_b 6.969899
_cell_length_c 34.364235
_cell_angle_alpha 90.000000
_cell_angle_beta 90.000000
_cell_angle_gamma 120.000000
_cell_volume 1445.740282
_symmetry_space_group_name_H-M "P 61 2 2"
_symmetry_group_IT_number 178
_symmetry_cell_setting 'hexagonal'
loop_
_space_group_symop_operation_xyz
x,y,z
x-y,x,1/6+z
-y,x-y,1/3+z
-x,-y,1/2+z
-x+y,-x,2/3+z
y,-x+y,5/6+z
x-y,-y,-z
-x,-x+y,2/3-z
y,x,1/3-z
-y,-x,5/6-z
-x+y,y,1/2-z
x,x-y,1/6-z
loop_
_atom_site_type_symbol
_atom_site_label
_atom_site_fract_x
_atom_site_fract_y
_atom_site_fract_z
Si Si1 0.994494 0.005507 0.416667
Si Si2 0.717935 0.538396 0.950541
Si Si3 0.344645 0.226272 0.520764
O O1 0.170102 0.025243 0.383946
O O2 0.760164 0.935404 0.397021
O O3 0.533759 0.466242 0.916667
O O4 0.759277 0.333865 0.956398
O O5 0.631037 0.589562 0.990082
O O6 0.302047 0.000000 0.500000
#
# Coordination Sequence:
#
# PCOD8325895 Si02
#       3
#     6  12  12
#     4  10  22  42  60  90 126 154 210 266 298 380
#     4  11  22  39  63  91 122 167 206 255 321 370
#     4  10  22  40  62  91 129 159 210 262 308 379
#
# _framework density 20.750616999999998
#
# number of rings (size 3 to 8) (size 9 to 14) (size 15 to 20)
#    0.000    1.600    2.000    2.400    0.000    3.200 
#    3.600    0.000    0.000    0.000    0.000    0.000 
#    0.000    0.000    0.000    0.000    0.000    0.000 
#
# Total GULP energy -372063.628621 kJ/mol
# GULP energy per Si atom -12402.120954 kJ/mol
# Density = 2.070339 g / cm^3
# Si number density = 20.750617 Si / 1000 Ang^3
#
#
#
# Elastic Constant Matrix: (Units=GPa)
#
#
# Indices 1 2 3 4 5 6 
#
# 1 84.9148 40.3633 36.7332 0.0000 0.0000 0.0000
# 2 40.3633 84.9148 36.7332 0.0000 0.0000 0.0000
# 3 36.7332 36.7332 122.4208 0.0000 0.0000 0.0000
# 4 0.0000 0.0000 0.0000 32.3650 0.0000 0.0000
# 5 0.0000 0.0000 0.0000 0.0000 32.3650 0.0000
# 6 0.0000 0.0000 0.0000 0.0000 0.0000 22.2757
#
#
#
# Elastic Compliance Matrix: (Units=1/GPa)
#
#
# Indices 1 2 3 4 5 6 
#
# 1 0.016066 -0.006380 -0.002907 0.000000 0.000000 0.000000
# 2 -0.006380 0.016066 -0.002907 0.000000 0.000000 0.000000
# 3 -0.002907 -0.002907 0.009913 0.000000 0.000000 0.000000
# 4 0.000000 0.000000 0.000000 0.030898 0.000000 0.000000
# 5 0.000000 0.000000 0.000000 0.000000 0.030898 0.000000
# 6 0.000000 0.000000 0.000000 0.000000 0.000000 0.044892
#
#
# Mechanical properties :
#
#
# Convention : Reuss Voigt Hill
#
# Bulk Modulus (GPa) = 56.62514 57.76775 57.19645
# Shear Modulus (GPa) = 27.93223 29.29586 28.61405
#
# Velocity S-wave (km/s) = 3.67289 3.76148 3.71745
# Velocity P-wave (km/s) = 6.73309 6.83845 6.78598
#
# Compressibility (1/GPa) = 0.01766000
#
# Stress axis : x y z
#
# Youngs Moduli (GPa) = 62.24195 62.24195 100.87951
#
# Poissons Ratio (x) = 0.39708 0.29321
# Poissons Ratio (y) = 0.39708 0.29321
# Poissons Ratio (z) = 0.18091 0.18091
#
# Static dielectric constant tensor:
#      x y z
#    x 3.479720 0.000000 0.000000 
#    y 0.000000 3.479720 0.000000 
#    z 0.000000 0.000000 4.134360 
# 
# 
# High freq. dielectric constant tensor:
#      x y z
#    x 1.798100 0.000000 0.000000 
#    y 0.000000 1.798100 0.000000 
#    z 0.000000 0.000000 1.842960 
# 
# From -- ./inp_files/9066.got.cif
#   From: 2010.03.12/outbox.cif.g09.slc.cpg/sg178_5_cif.got.tgz:9066.got - 2010.04.02 07:02:38.
