data_PCOD8325404
_publ_section_title
;
Structure prediction by ZEFSAII (Michael W. Deem and Ramdas Pophale) SiO2 
 PCOD8325404
Probable space group: P 63/M
;
_chemical_formula_sum "Si O2"
_cell_formula_units_Z 84
_cell_length_a 22.190223
_cell_length_b 22.190223
_cell_length_c 13.021914
_cell_angle_alpha 90.000000
_cell_angle_beta 90.000000
_cell_angle_gamma 120.000000
_cell_volume 5553.014249
_symmetry_space_group_name_H-M "P 63/M"
_symmetry_group_IT_number 176
_symmetry_cell_setting 'hexagonal'
loop_
_space_group_symop_operation_xyz
x,y,z
x-y,x,1/2+z
-y,x-y,z
-x,-y,1/2+z
-x+y,-x,z
y,-x+y,1/2+z
-x,-y,-z
-x+y,-x,1/2-z
y,-x+y,-z
x,y,1/2-z
x-y,x,-z
-y,x-y,1/2-z
loop_
_atom_site_type_symbol
_atom_site_label
_atom_site_fract_x
_atom_site_fract_y
_atom_site_fract_z
Si Si1 0.529051 0.333758 0.455198
Si Si2 1.000000 0.350194 1.000000
Si Si3 0.259724 0.877767 0.632938
Si Si4 0.384205 0.478410 0.365938
Si Si5 0.470949 0.804707 0.955198
Si Si6 0.905794 0.521590 0.865938
Si Si7 0.618043 0.877767 0.867062
O O1 0.464576 0.313265 0.378854
O O2 0.593920 0.406080 0.416134
O O3 0.552100 0.276050 0.456744
O O4 0.505967 0.340774 0.569954
O O5 0.967574 0.375211 0.911417
O O6 0.057892 0.337716 0.944177
O O7 0.942108 0.279824 0.055823
O O8 0.032426 0.407638 0.088583
O O9 0.262605 0.901809 0.750000
O O10 0.182325 0.817675 0.602726
O O11 0.355375 0.465353 0.250000
O O12 0.340774 0.505967 0.430046
O O13 0.465956 0.534044 0.369450
O O14 0.535424 0.848689 0.878854
O O15 0.890022 0.534647 0.750000
O O16 0.639203 0.901809 0.750000
#
# Coordination Sequence:
#
# PCOD8325404 Si02
#       7
#    12  12  12  12  12  12  12
#     4   9  17  28  41  57  78 106 140 178 220 263
#     4  10  17  28  46  62  78 106 137 164 202 248
#     4   9  18  31  45  63  86 109 136 171 208 246
#     4   9  17  27  38  55  77 100 133 176 215 252
#     4   9  17  28  41  57  78 106 140 178 220 263
#     4   9  17  27  38  55  77 100 133 176 215 252
#     4   9  18  31  45  63  86 109 136 171 208 246
#
# _framework density 15.126918999999999
#
# number of rings (size 3 to 8) (size 9 to 14) (size 15 to 20)
#    0.000    2.857    0.000    1.571    0.000    2.286 
#    0.000    0.000    0.000    6.000    0.000    0.000 
#    0.000    0.000    0.000    0.429    0.000    2.000 
#
# Total GULP energy -1041470.633697 kJ/mol
# GULP energy per Si atom -12398.459925 kJ/mol
# Density = 1.509249 g / cm^3
# Si number density = 15.126919 Si / 1000 Ang^3
#
#
#
# Elastic Constant Matrix: (Units=GPa)
#
#
# Indices 1 2 3 4 5 6 
#
# 1 69.1016 33.6961 31.4127 0.0000 0.0000 0.0000
# 2 33.6961 69.1016 31.4127 0.0000 0.0000 0.0000
# 3 31.4127 31.4127 78.6292 0.0000 0.0000 0.0000
# 4 0.0000 0.0000 0.0000 19.3099 0.0000 0.0000
# 5 0.0000 0.0000 0.0000 0.0000 19.3099 0.0000
# 6 0.0000 0.0000 0.0000 0.0000 0.0000 17.7027
#
#
#
# Elastic Compliance Matrix: (Units=1/GPa)
#
#
# Indices 1 2 3 4 5 6 
#
# 1 0.020557 -0.007687 -0.005142 0.000000 0.000000 0.000000
# 2 -0.007687 0.020557 -0.005142 0.000000 0.000000 0.000000
# 3 -0.005142 -0.005142 0.016826 0.000000 0.000000 0.000000
# 4 0.000000 0.000000 0.000000 0.051787 0.000000 0.000000
# 5 0.000000 0.000000 0.000000 0.000000 0.051787 0.000000
# 6 0.000000 0.000000 0.000000 0.000000 0.000000 0.056488
#
#
# Mechanical properties :
#
#
# Convention : Reuss Voigt Hill
#
# Bulk Modulus (GPa) = 45.45495 45.54171 45.49833
# Shear Modulus (GPa) = 19.13677 19.28522 19.21100
#
# Velocity S-wave (km/s) = 3.56066 3.57444 3.56755
# Velocity P-wave (km/s) = 6.85701 6.87075 6.86389
#
# Compressibility (1/GPa) = 0.02199981
#
# Stress axis : x y z
#
# Youngs Moduli (GPa) = 48.64468 48.64468 59.43105
#
# Poissons Ratio (x) = 0.37393 0.30558
# Poissons Ratio (y) = 0.37393 0.30558
# Poissons Ratio (z) = 0.25012 0.25012
#
# Static dielectric constant tensor:
#      x y z
#    x 2.780150 0.000000 0.000000 
#    y 0.000000 2.780150 0.000000 
#    z 0.000000 0.000000 2.976260 
# 
# 
# High freq. dielectric constant tensor:
#      x y z
#    x 1.554220 0.000000 0.000000 
#    y 0.000000 1.554220 0.000000 
#    z 0.000000 0.000000 1.586450 
# 
# From -- ./inp_files/2142.got.cif
#   From: 2010.06.25/outbox.cif.g09.slc.cpg/sg176_2_cif.got.tgz:2142.got - 2010.06.28 12:15:01.
