data_PCOD8325835
_publ_section_title
;
Structure prediction by ZEFSAII (Michael W. Deem and Ramdas Pophale) SiO2 
 PCOD8325835
Probable space group: P 61 2 2
;
_chemical_formula_sum "Si O2"
_cell_formula_units_Z 42
_cell_length_a 23.870636
_cell_length_b 23.870636
_cell_length_c 5.033127
_cell_angle_alpha 90.000000
_cell_angle_beta 90.000000
_cell_angle_gamma 120.000000
_cell_volume 2483.684925
_symmetry_space_group_name_H-M "P 61 2 2"
_symmetry_group_IT_number 178
_symmetry_cell_setting 'hexagonal'
loop_
_space_group_symop_operation_xyz
x,y,z
x-y,x,1/6+z
-y,x-y,1/3+z
-x,-y,1/2+z
-x+y,-x,2/3+z
y,-x+y,5/6+z
x-y,-y,-z
-x,-x+y,2/3-z
y,x,1/3-z
-y,-x,5/6-z
-x+y,y,1/2-z
x,x-y,1/6-z
loop_
_atom_site_type_symbol
_atom_site_label
_atom_site_fract_x
_atom_site_fract_y
_atom_site_fract_z
Si Si1 0.045302 0.644464 0.080224
Si Si2 0.478846 0.957691 0.750000
Si Si3 0.577210 0.226928 0.510944
Si Si4 0.435089 0.181204 0.346244
O O1 0.078766 0.598707 0.037606
O O2 0.105837 0.717246 0.103784
O O3 0.000000 0.627225 0.333334
O O4 0.000000 0.637811 0.833334
O O5 0.485128 0.000000 0.500000
O O6 0.597383 0.194765 0.750000
O O7 0.602469 0.301235 0.583334
O O8 0.500475 0.189058 0.473793
O O9 0.610995 0.221989 0.250000
O O10 0.401869 0.200935 0.583334
O O11 0.449441 0.224721 0.083334
#
# Coordination Sequence:
#
# PCOD8325835 Si02
#       4
#    12   6  12  12
#     4  10  20  36  54  73  95 124 159 200 249 299
#     4   8  16  30  46  70  92 112 152 196 238 288
#     4  11  21  33  47  64  87 119 155 193 237 295
#     4  11  23  37  51  75 100 124 157 200 256 306
#
# _framework density 16.910359
#
# number of rings (size 3 to 8) (size 9 to 14) (size 15 to 20)
#    0.000    1.714    0.000    6.857    2.000    0.000 
#   10.286    0.000    0.000    0.000    0.000    0.000 
#    0.000    0.000    0.000    0.000    0.000    0.000 
#
# Total GULP energy -520329.567992 kJ/mol
# GULP energy per Si atom -12388.799238 kJ/mol
# Density = 1.687187 g / cm^3
# Si number density = 16.910359 Si / 1000 Ang^3
#
#
#
# Elastic Constant Matrix: (Units=GPa)
#
#
# Indices 1 2 3 4 5 6 
#
# 1 72.3248 33.1769 36.6610 0.0000 0.0000 0.0000
# 2 33.1769 72.3248 36.6610 0.0000 0.0000 0.0000
# 3 36.6610 36.6610 140.7053 0.0000 0.0000 0.0000
# 4 0.0000 0.0000 0.0000 18.1832 0.0000 0.0000
# 5 0.0000 0.0000 0.0000 0.0000 18.1832 0.0000
# 6 0.0000 0.0000 0.0000 0.0000 0.0000 19.5739
#
#
#
# Elastic Compliance Matrix: (Units=1/GPa)
#
#
# Indices 1 2 3 4 5 6 
#
# 1 0.018559 -0.006985 -0.003016 0.000000 0.000000 0.000000
# 2 -0.006985 0.018559 -0.003016 0.000000 0.000000 0.000000
# 3 -0.003016 -0.003016 0.008679 0.000000 0.000000 0.000000
# 4 0.000000 0.000000 0.000000 0.054996 0.000000 0.000000
# 5 0.000000 0.000000 0.000000 0.000000 0.054996 0.000000
# 6 0.000000 0.000000 0.000000 0.000000 0.000000 0.051088
#
#
# Mechanical properties :
#
#
# Convention : Reuss Voigt Hill
#
# Bulk Modulus (GPa) = 50.59592 55.37253 52.98423
# Shear Modulus (GPa) = 20.87703 23.11182 21.99442
#
# Velocity S-wave (km/s) = 3.51746 3.70094 3.61036
# Velocity P-wave (km/s) = 6.81775 7.14691 6.98427
#
# Compressibility (1/GPa) = 0.01976444
#
# Stress axis : x y z
#
# Youngs Moduli (GPa) = 53.88139 53.88139 115.22646
#
# Poissons Ratio (x) = 0.37636 0.34749
# Poissons Ratio (y) = 0.37636 0.34749
# Poissons Ratio (z) = 0.16249 0.16249
#
# Static dielectric constant tensor:
#      x y z
#    x 2.927310 0.000000 0.000000 
#    y 0.000000 2.927310 0.000000 
#    z 0.000000 0.000000 3.304610 
# 
# 
# High freq. dielectric constant tensor:
#      x y z
#    x 1.607370 0.000000 0.000000 
#    y 0.000000 1.607370 0.000000 
#    z 0.000000 0.000000 1.685690 
# 
# From -- ./inp_files/696.got.cif
#   From: 2010.03.12/outbox.cif.g09.slc.cpg/sg178_1_cif.got.tgz:696.got - 2010.04.02 07:02:38.
