data_PCOD8325912
_publ_section_title
;
Structure prediction by ZEFSAII (Michael W. Deem and Ramdas Pophale) SiO2 
 PCOD8325912
Probable space group: P 61 2 2
;
_chemical_formula_sum "Si O2"
_cell_formula_units_Z 54
_cell_length_a 14.615869
_cell_length_b 14.615869
_cell_length_c 13.586279
_cell_angle_alpha 90.000000
_cell_angle_beta 90.000000
_cell_angle_gamma 120.000000
_cell_volume 2513.508997
_symmetry_space_group_name_H-M "P 61 2 2"
_symmetry_group_IT_number 178
_symmetry_cell_setting 'hexagonal'
loop_
_space_group_symop_operation_xyz
x,y,z
x-y,x,1/6+z
-y,x-y,1/3+z
-x,-y,1/2+z
-x+y,-x,2/3+z
y,-x+y,5/6+z
x-y,-y,-z
-x,-x+y,2/3-z
y,x,1/3-z
-y,-x,5/6-z
-x+y,y,1/2-z
x,x-y,1/6-z
loop_
_atom_site_type_symbol
_atom_site_label
_atom_site_fract_x
_atom_site_fract_y
_atom_site_fract_z
Si Si1 0.107526 0.962322 0.203921
Si Si2 0.953141 0.479722 0.696489
Si Si3 0.314459 0.055760 0.096942
Si Si4 0.333623 0.859729 0.454433
Si Si5 0.240532 0.240532 0.666667
O O1 0.048275 0.844578 0.247322
O O2 0.045566 0.951499 0.103295
O O3 0.232332 0.005935 0.187093
O O4 0.913898 0.456949 0.583334
O O5 0.965031 0.590134 0.724434
O O6 0.870333 0.386838 0.770267
O O7 0.070534 0.496105 0.709219
O O8 0.360935 0.180468 0.083334
O O9 0.248458 0.000000 0.000000
O O10 0.262572 0.737429 0.416667
O O11 0.255470 0.906588 0.456830
#
# Coordination Sequence:
#
# PCOD8325912 Si02
#       5
#    12  12  12  12   6
#     4  12  26  40  64  97 139 182 227 274 332 416
#     4  10  24  46  71 102 141 185 242 306 363 442
#     4  12  25  45  68  97 137 185 232 290 365 431
#     4  10  22  44  75 101 142 187 240 301 372 432
#     4  10  24  40  64 106 138 180 234 278 346 416
#
# _framework density 21.483910000000002
#
# number of rings (size 3 to 8) (size 9 to 14) (size 15 to 20)
#    0.000    1.333    4.444    2.000    9.333    3.556 
#    0.000    2.222    0.000    0.000    0.000    0.000 
#    0.000    0.000    0.000    0.000    0.000    0.000 
#
# Total GULP energy -669336.064166 kJ/mol
# GULP energy per Si atom -12395.112299 kJ/mol
# Density = 2.143501 g / cm^3
# Si number density = 21.483910 Si / 1000 Ang^3
#
#
#
# Elastic Constant Matrix: (Units=GPa)
#
#
# Indices 1 2 3 4 5 6 
#
# 1 112.3310 62.2251 56.8738 0.0000 0.0000 0.0000
# 2 62.2251 112.3310 56.8738 0.0000 0.0000 0.0000
# 3 56.8738 56.8738 136.9976 0.0000 0.0000 0.0000
# 4 0.0000 0.0000 0.0000 26.0843 0.0000 0.0000
# 5 0.0000 0.0000 0.0000 0.0000 26.0843 0.0000
# 6 0.0000 0.0000 0.0000 0.0000 0.0000 25.0529
#
#
#
# Elastic Compliance Matrix: (Units=1/GPa)
#
#
# Indices 1 2 3 4 5 6 
#
# 1 0.013906 -0.006052 -0.003260 0.000000 0.000000 0.000000
# 2 -0.006052 0.013906 -0.003260 0.000000 0.000000 0.000000
# 3 -0.003260 -0.003260 0.010006 0.000000 0.000000 0.000000
# 4 0.000000 0.000000 0.000000 0.038337 0.000000 0.000000
# 5 0.000000 0.000000 0.000000 0.000000 0.038337 0.000000
# 6 0.000000 0.000000 0.000000 0.000000 0.000000 0.039916
#
#
# Mechanical properties :
#
#
# Convention : Reuss Voigt Hill
#
# Bulk Modulus (GPa) = 78.91441 79.28946 79.10193
# Shear Modulus (GPa) = 27.20691 27.82344 27.51517
#
# Velocity S-wave (km/s) = 3.56249 3.60263 3.58262
# Velocity P-wave (km/s) = 7.33031 7.36830 7.34933
#
# Compressibility (1/GPa) = 0.01267196
#
# Stress axis : x y z
#
# Youngs Moduli (GPa) = 71.91376 71.91376 99.93639
#
# Poissons Ratio (x) = 0.43524 0.32582
# Poissons Ratio (y) = 0.43524 0.32582
# Poissons Ratio (z) = 0.23446 0.23446
#
# Static dielectric constant tensor:
#      x y z
#    x 3.805790 0.000000 0.000000 
#    y 0.000000 3.805790 0.000000 
#    z 0.000000 0.000000 5.829570 
# 
# 
# High freq. dielectric constant tensor:
#      x y z
#    x 1.842030 0.000000 0.000000 
#    y 0.000000 1.842030 0.000000 
#    z 0.000000 0.000000 1.850970 
# 
# From -- ./inp_files/5554.got.cif
#   From: 2010.03.12/outbox.cif.g09.slc.cpg/sg178_3_cif.got.tgz:5554.got - 2010.04.02 07:02:38.
