data_PCOD8325665
_publ_section_title
;
Structure prediction by ZEFSAII (Michael W. Deem and Ramdas Pophale) SiO2 
 PCOD8325665
Probable space group: P 63/M
;
_chemical_formula_sum "Si O2"
_cell_formula_units_Z 48
_cell_length_a 13.447958
_cell_length_b 13.447958
_cell_length_c 14.309614
_cell_angle_alpha 90.000000
_cell_angle_beta 90.000000
_cell_angle_gamma 120.000000
_cell_volume 2241.151620
_symmetry_space_group_name_H-M "P 63/M"
_symmetry_group_IT_number 176
_symmetry_cell_setting 'hexagonal'
loop_
_space_group_symop_operation_xyz
x,y,z
x-y,x,1/2+z
-y,x-y,z
-x,-y,1/2+z
-x+y,-x,z
y,-x+y,1/2+z
-x,-y,-z
-x+y,-x,1/2-z
y,-x+y,-z
x,y,1/2-z
x-y,x,-z
-y,x-y,1/2-z
loop_
_atom_site_type_symbol
_atom_site_label
_atom_site_fract_x
_atom_site_fract_y
_atom_site_fract_z
Si Si1 0.038895 0.632936 0.642435
Si Si2 0.405958 0.038894 0.857565
Si Si3 0.778183 0.308695 1.000000
Si Si4 0.250052 0.219719 1.000000
O O1 0.049665 0.668518 0.750000
O O2 0.162927 0.705089 0.592928
O O3 0.956666 0.671696 0.590944
O O4 0.000000 0.500000 0.629411
O O5 0.381146 0.049664 0.750000
O O6 0.457837 0.162927 0.907071
O O7 0.284969 0.956665 0.909056
O O8 0.789856 0.435183 0.999999
O O9 0.220885 0.089586 1.000000
#
# Coordination Sequence:
#
# PCOD8325665 Si02
#       4
#    12  12  12  12
#     4  10  23  40  63  92 126 166 210 262 325 387
#     4  10  23  40  63  92 126 166 210 262 325 387
#     4   9  20  34  57  89 122 157 197 250 312 383
#     4  11  25  44  67  93 129 174 225 275 322 378
#
# _framework density 21.417560000000002
#
# number of rings (size 3 to 8) (size 9 to 14) (size 15 to 20)
#    0.500    1.500    0.000    3.250   14.000    4.000 
#    0.000    0.000    0.000    3.000    0.000    0.000 
#    0.000    0.000    0.000    0.000    0.000    0.000 
#
# Total GULP energy -594762.624473 kJ/mol
# GULP energy per Si atom -12390.888010 kJ/mol
# Density = 2.136881 g / cm^3
# Si number density = 21.417560 Si / 1000 Ang^3
#
#
#
# Elastic Constant Matrix: (Units=GPa)
#
#
# Indices 1 2 3 4 5 6 
#
# 1 112.3471 19.1927 44.0759 0.0000 0.0000 0.0000
# 2 19.1927 112.3471 44.0759 0.0000 0.0000 0.0000
# 3 44.0759 44.0759 202.3528 0.0000 0.0000 0.0000
# 4 0.0000 0.0000 0.0000 3.9259 0.0000 0.0000
# 5 0.0000 0.0000 0.0000 0.0000 3.9259 0.0000
# 6 0.0000 0.0000 0.0000 0.0000 0.0000 46.5772
#
#
#
# Elastic Compliance Matrix: (Units=1/GPa)
#
#
# Indices 1 2 3 4 5 6 
#
# 1 0.009818 -0.000917 -0.001939 0.000000 0.000000 0.000000
# 2 -0.000917 0.009818 -0.001939 0.000000 0.000000 0.000000
# 3 -0.001939 -0.001939 0.005787 0.000000 0.000000 0.000000
# 4 0.000000 0.000000 0.000000 0.254721 0.000000 0.000000
# 5 0.000000 0.000000 0.000000 0.000000 0.254721 0.000000
# 6 0.000000 0.000000 0.000000 0.000000 0.000000 0.021470
#
#
# Mechanical properties :
#
#
# Convention : Reuss Voigt Hill
#
# Bulk Modulus (GPa) = 63.15487 71.30400 67.22944
# Shear Modulus (GPa) = 8.75348 32.19927 20.47637
#
# Velocity S-wave (km/s) = 2.02384 3.88158 3.09537
# Velocity P-wave (km/s) = 5.91715 7.31119 6.65080
#
# Compressibility (1/GPa) = 0.01583409
#
# Stress axis : x y z
#
# Youngs Moduli (GPa) = 101.85105 101.85105 172.81512
#
# Poissons Ratio (x) = 0.09336 0.33508
# Poissons Ratio (y) = 0.09336 0.33508
# Poissons Ratio (z) = 0.19748 0.19748
#
# Static dielectric constant tensor:
#      x y z
#    x 3.850000 0.000000 0.000000 
#    y 0.000000 3.850000 0.000000 
#    z 0.000000 0.000000 3.866680 
# 
# 
# High freq. dielectric constant tensor:
#      x y z
#    x 1.844830 0.000000 0.000000 
#    y 0.000000 1.844830 0.000000 
#    z 0.000000 0.000000 1.829690 
# 
# From -- ./inp_files/2478.got.cif
#   From: 2010.06.25/outbox.cif.g09.slc.cpg/sg176_2_cif.got.tgz:2478.got - 2010.06.28 12:15:01.
