data_PCOD8325090
_publ_section_title
;
Structure prediction by ZEFSAII (Michael W. Deem and Ramdas Pophale) SiO2 
 PCOD8325090
Probable space group: P 6/M
;
_chemical_formula_sum "Si O2"
_cell_formula_units_Z 60
_cell_length_a 19.931589
_cell_length_b 19.931589
_cell_length_c 9.550882
_cell_angle_alpha 90.000000
_cell_angle_beta 90.000000
_cell_angle_gamma 120.000000
_cell_volume 3285.927353
_symmetry_space_group_name_H-M "P 6/M"
_symmetry_group_IT_number 175
_symmetry_cell_setting 'hexagonal'
loop_
_space_group_symop_operation_xyz
x,y,z
x-y,x,z
-y,x-y,z
-x,-y,z
-x+y,-x,z
y,-x+y,z
-x,-y,-z
-x+y,-x,-z
y,-x+y,-z
x,y,-z
x-y,x,-z
-y,x-y,-z
loop_
_atom_site_type_symbol
_atom_site_label
_atom_site_fract_x
_atom_site_fract_y
_atom_site_fract_z
Si Si1 0.287309 0.004513 0.163360
Si Si2 0.174405 0.836297 0.832297
Si Si3 0.412744 0.450841 0.163520
Si Si4 0.277269 0.785581 0.340913
Si Si5 0.615044 0.444316 0.656970
O O1 0.298850 0.085662 0.225922
O O2 0.359428 0.990939 0.200181
O O3 0.209209 0.926987 0.212614
O O4 0.283292 0.014314 0.000000
O O5 0.227233 0.806068 0.762438
O O6 0.179329 0.828836 0.000000
O O7 0.500000 0.500000 0.221691
O O8 0.365708 0.484535 0.241760
O O9 0.410336 0.464777 0.000000
O O10 0.271507 0.811240 0.500000
O O11 0.365891 0.825382 0.287978
O O12 0.251677 0.694893 0.340206
O O13 0.597501 0.461190 0.500000
#
# Coordination Sequence:
#
# PCOD8325090 Si02
#       5
#    12  12  12  12  12
#     4   9  18  32  53  78 103 133 168 215 264 314
#     4  10  19  35  56  77 102 134 174 215 263 318
#     4  10  19  32  49  73 102 132 171 214 256 300
#     4  10  20  34  50  73 103 139 176 216 259 302
#     4  10  20  33  49  69 100 137 174 211 255 301
#
# _framework density 18.259685999999999
#
# number of rings (size 3 to 8) (size 9 to 14) (size 15 to 20)
#    0.000    2.200    2.000    1.600    0.000    4.400 
#    0.000    2.000    0.000    2.800    0.000    2.800 
#    0.000    0.000    0.000    1.800    0.000    2.000 
#
# Total GULP energy -743352.730130 kJ/mol
# GULP energy per Si atom -12389.212169 kJ/mol
# Density = 1.821813 g / cm^3
# Si number density = 18.259686 Si / 1000 Ang^3
#
#
#
# Elastic Constant Matrix: (Units=GPa)
#
#
# Indices 1 2 3 4 5 6 
#
# 1 107.1223 47.6746 20.4246 0.0000 0.0000 0.0000
# 2 47.6746 107.1223 20.4246 0.0000 0.0000 0.0000
# 3 20.4246 20.4246 25.8933 0.0000 0.0000 0.0000
# 4 0.0000 0.0000 0.0000 16.3485 0.0000 0.0000
# 5 0.0000 0.0000 0.0000 0.0000 16.3485 0.0000
# 6 0.0000 0.0000 0.0000 0.0000 0.0000 29.7238
#
#
#
# Elastic Compliance Matrix: (Units=1/GPa)
#
#
# Indices 1 2 3 4 5 6 
#
# 1 0.012490 -0.004332 -0.006435 0.000000 0.000000 0.000000
# 2 -0.004332 0.012490 -0.006435 0.000000 0.000000 0.000000
# 3 -0.006435 -0.006435 0.048772 0.000000 0.000000 0.000000
# 4 0.000000 0.000000 0.000000 0.061168 0.000000 0.000000
# 5 0.000000 0.000000 0.000000 0.000000 0.061168 0.000000
# 6 0.000000 0.000000 0.000000 0.000000 0.000000 0.033643
#
#
# Mechanical properties :
#
#
# Convention : Reuss Voigt Hill
#
# Bulk Modulus (GPa) = 25.41436 46.35397 35.88416
# Shear Modulus (GPa) = 18.03422 22.59176 20.31299
#
# Velocity S-wave (km/s) = 3.14610 3.52127 3.33896
# Velocity P-wave (km/s) = 5.21016 6.47870 5.87875
#
# Compressibility (1/GPa) = 0.03934783
#
# Stress axis : x y z
#
# Youngs Moduli (GPa) = 80.06478 80.06478 20.50347
#
# Poissons Ratio (x) = 0.34681 0.13194
# Poissons Ratio (y) = 0.34681 0.13194
# Poissons Ratio (z) = 0.51524 0.51524
#
# Static dielectric constant tensor:
#      x y z
#    x 3.522270 0.000000 0.000000 
#    y 0.000000 3.522270 0.000000 
#    z 0.000000 0.000000 3.116960 
# 
# 
# High freq. dielectric constant tensor:
#      x y z
#    x 1.702180 0.000000 0.000000 
#    y 0.000000 1.702180 0.000000 
#    z 0.000000 0.000000 1.682700 
# 
# From -- ./inp_files/1808.got.cif
#   From: 2010.03.12/outbox.cif.g09.slc.cpg/sg175_1_cif.got.tgz:1808.got - 2010.04.02 06:55:29.
