data_PCOD8325766
_publ_section_title
;
Structure prediction by ZEFSAII (Michael W. Deem and Ramdas Pophale) SiO2 
 PCOD8325766
Probable space group: P 61 2 2
;
_chemical_formula_sum "Si O2"
_cell_formula_units_Z 84
_cell_length_a 17.207779
_cell_length_b 17.207779
_cell_length_c 15.552947
_cell_angle_alpha 90.000000
_cell_angle_beta 90.000000
_cell_angle_gamma 120.000000
_cell_volume 3988.347247
_symmetry_space_group_name_H-M "P 61 2 2"
_symmetry_group_IT_number 178
_symmetry_cell_setting 'hexagonal'
loop_
_space_group_symop_operation_xyz
x,y,z
x-y,x,1/6+z
-y,x-y,1/3+z
-x,-y,1/2+z
-x+y,-x,2/3+z
y,-x+y,5/6+z
x-y,-y,-z
-x,-x+y,2/3-z
y,x,1/3-z
-y,-x,5/6-z
-x+y,y,1/2-z
x,x-y,1/6-z
loop_
_atom_site_type_symbol
_atom_site_label
_atom_site_fract_x
_atom_site_fract_y
_atom_site_fract_z
Si Si1 0.202686 0.495334 0.400109
Si Si2 0.702219 0.915032 0.827127
Si Si3 0.128944 0.636142 0.130551
Si Si4 0.157703 0.494211 0.590975
Si Si5 0.893578 0.694345 0.835186
Si Si6 0.316256 0.200670 0.493325
Si Si7 0.402480 0.761521 0.952230
O O1 0.307078 0.522881 0.402936
O O2 0.166281 0.463063 0.495905
O O3 0.144247 0.412496 0.336327
O O4 0.195411 0.582041 0.371941
O O5 0.614792 0.923714 0.803884
O O6 0.722683 0.863199 0.752879
O O7 0.692492 0.867846 0.918685
O O8 0.786098 0.016114 0.830114
O O9 0.075464 0.537732 0.083334
O O10 0.155812 0.622694 0.225692
O O11 0.109747 0.554874 0.583334
O O12 0.104233 0.403830 0.645916
O O13 0.253792 0.553923 0.637943
O O14 0.860708 0.721415 0.750000
O O15 0.000000 0.745640 0.833334
O O16 0.326811 0.163406 0.583334
O O17 0.301510 0.698491 0.916667
#
# Coordination Sequence:
#
# PCOD8325766 Si02
#       7
#    12  12  12  12  12  12  12
#     4  10  20  35  55  90 131 171 223 259 311 359
#     4  11  25  47  68  99 133 166 218 274 335 411
#     4  10  19  34  58  91 131 175 221 258 311 362
#     4  10  23  36  60  93 132 179 222 273 303 359
#     4  11  23  41  69  98 128 169 206 262 343 407
#     4  12  25  47  73  94 128 174 220 271 340 407
#     4  10  17  29  55  84 124 172 221 254 291 352
#
# _framework density 21.061357000000001
#
# number of rings (size 3 to 8) (size 9 to 14) (size 15 to 20)
#    0.000    1.429    5.714    1.714    4.000    0.571 
#    0.000    1.429    0.000    8.571    0.000    0.000 
#    0.000    0.000    0.000    0.000    0.000    0.000 
#
# Total GULP energy -1041175.261476 kJ/mol
# GULP energy per Si atom -12394.943589 kJ/mol
# Density = 2.101342 g / cm^3
# Si number density = 21.061357 Si / 1000 Ang^3
#
#
#
# Elastic Constant Matrix: (Units=GPa)
#
#
# Indices 1 2 3 4 5 6 
#
# 1 80.0990 51.1159 43.8555 0.0000 0.0000 0.0000
# 2 51.1159 80.0990 43.8555 0.0000 0.0000 0.0000
# 3 43.8555 43.8555 118.6510 0.0000 0.0000 0.0000
# 4 0.0000 0.0000 0.0000 18.8089 0.0000 0.0000
# 5 0.0000 0.0000 0.0000 0.0000 18.8089 0.0000
# 6 0.0000 0.0000 0.0000 0.0000 0.0000 14.4915
#
#
#
# Elastic Compliance Matrix: (Units=1/GPa)
#
#
# Indices 1 2 3 4 5 6 
#
# 1 0.022312 -0.012191 -0.003741 0.000000 0.000000 0.000000
# 2 -0.012191 0.022312 -0.003741 0.000000 0.000000 0.000000
# 3 -0.003741 -0.003741 0.011194 0.000000 0.000000 0.000000
# 4 0.000000 0.000000 0.000000 0.053166 0.000000 0.000000
# 5 0.000000 0.000000 0.000000 0.000000 0.053166 0.000000
# 6 0.000000 0.000000 0.000000 0.000000 0.000000 0.069006
#
#
# Mechanical properties :
#
#
# Convention : Reuss Voigt Hill
#
# Bulk Modulus (GPa) = 60.70677 61.83363 61.27020
# Shear Modulus (GPa) = 18.11634 19.75667 18.93650
#
# Velocity S-wave (km/s) = 2.93605 3.06609 3.00177
# Velocity P-wave (km/s) = 6.35454 6.47743 6.41628
#
# Compressibility (1/GPa) = 0.01647263
#
# Stress axis : x y z
#
# Youngs Moduli (GPa) = 44.81806 44.81806 89.33568
#
# Poissons Ratio (x) = 0.54635 0.33423
# Poissons Ratio (y) = 0.54635 0.33423
# Poissons Ratio (z) = 0.16768 0.16768
#
# Static dielectric constant tensor:
#      x y z
#    x 3.618750 0.000000 0.000000 
#    y 0.000000 3.618750 0.000000 
#    z 0.000000 0.000000 3.776720 
# 
# 
# High freq. dielectric constant tensor:
#      x y z
#    x 1.805400 0.000000 0.000000 
#    y 0.000000 1.805400 0.000000 
#    z 0.000000 0.000000 1.830490 
# 
# From -- ./inp_files/6024.got.cif
#   From: 2010.03.12/outbox.cif.g09.slc.cpg/sg178_4_cif.got.tgz:6024.got - 2010.04.02 07:02:38.
