data_PCOD8325313
_publ_section_title
;
Structure prediction by ZEFSAII (Michael W. Deem and Ramdas Pophale) SiO2 
 PCOD8325313
Probable space group: P 6/M
;
_chemical_formula_sum "Si O2"
_cell_formula_units_Z 60
_cell_length_a 17.533823
_cell_length_b 17.533823
_cell_length_c 11.380109
_cell_angle_alpha 90.000000
_cell_angle_beta 90.000000
_cell_angle_gamma 120.000000
_cell_volume 3029.913916
_symmetry_space_group_name_H-M "P 6/M"
_symmetry_group_IT_number 175
_symmetry_cell_setting 'hexagonal'
loop_
_space_group_symop_operation_xyz
x,y,z
x-y,x,z
-y,x-y,z
-x,-y,z
-x+y,-x,z
y,-x+y,z
-x,-y,-z
-x+y,-x,-z
y,-x+y,-z
x,y,-z
x-y,x,-z
-y,x-y,-z
loop_
_atom_site_type_symbol
_atom_site_label
_atom_site_fract_x
_atom_site_fract_y
_atom_site_fract_z
Si Si1 0.984472 0.816563 0.362806
Si Si2 0.173376 0.679057 0.636515
Si Si3 0.361385 0.398539 0.000000
Si Si4 0.332761 0.338463 0.749157
Si Si5 0.655299 0.170255 0.749066
Si Si6 0.544912 0.404201 0.000000
O O1 0.982823 0.796033 0.500000
O O2 0.973730 0.733756 0.290952
O O3 0.903979 0.830410 0.327192
O O4 0.193483 0.699173 0.500000
O O5 0.081713 0.673713 0.665378
O O6 0.248285 0.759354 0.708584
O O7 0.172177 0.589542 0.666558
O O8 0.308039 0.348097 0.116660
O O9 0.455001 0.405440 0.000000
O O10 0.373817 0.496024 0.000000
O O11 0.431872 0.358510 0.740088
O O12 0.644528 0.194579 0.883033
#
# Coordination Sequence:
#
# PCOD8325313 Si02
#       6
#    12  12   6  12  12   6
#     4  10  21  39  63  93 128 166 209 256 308 369
#     4  12  25  39  58  86 124 165 202 251 313 373
#     4   9  18  37  63  91 120 148 199 261 310 355
#     4  11  22  39  65  91 119 160 209 261 310 365
#     4  11  24  41  61  88 122 161 207 260 316 373
#     4   9  18  39  65  87 114 158 203 253 308 371
#
# _framework density 19.802541999999999
#
# number of rings (size 3 to 8) (size 9 to 14) (size 15 to 20)
#    0.000    1.400    2.000    3.600    0.000    8.000 
#    0.000    3.000    0.000    0.000    0.000    1.400 
#    0.000    0.000    0.000    0.000    0.000    0.000 
#
# Total GULP energy -744257.567661 kJ/mol
# GULP energy per Si atom -12404.292794 kJ/mol
# Density = 1.975747 g / cm^3
# Si number density = 19.802542 Si / 1000 Ang^3
#
#
#
# Elastic Constant Matrix: (Units=GPa)
#
#
# Indices 1 2 3 4 5 6 
#
# 1 72.3502 1.2764 32.6609 0.0000 0.0000 0.0000
# 2 1.2764 72.3502 32.6609 0.0000 0.0000 0.0000
# 3 32.6609 32.6609 123.0960 0.0000 0.0000 0.0000
# 4 0.0000 0.0000 0.0000 30.9825 0.0000 0.0000
# 5 0.0000 0.0000 0.0000 0.0000 30.9825 0.0000
# 6 0.0000 0.0000 0.0000 0.0000 0.0000 35.5369
#
#
#
# Elastic Compliance Matrix: (Units=1/GPa)
#
#
# Indices 1 2 3 4 5 6 
#
# 1 0.015917 0.001847 -0.004713 0.000000 0.000000 0.000000
# 2 0.001847 0.015917 -0.004713 0.000000 0.000000 0.000000
# 3 -0.004713 -0.004713 0.010625 0.000000 0.000000 0.000000
# 4 0.000000 0.000000 0.000000 0.032276 0.000000 0.000000
# 5 0.000000 0.000000 0.000000 0.000000 0.032276 0.000000
# 6 0.000000 0.000000 0.000000 0.000000 0.000000 0.028140
#
#
# Mechanical properties :
#
#
# Convention : Reuss Voigt Hill
#
# Bulk Modulus (GPa) = 36.63103 44.55476 40.59290
# Shear Modulus (GPa) = 31.36575 32.91358 32.13967
#
# Velocity S-wave (km/s) = 3.98417 4.08130 4.03303
# Velocity P-wave (km/s) = 6.30104 6.69012 6.49849
#
# Compressibility (1/GPa) = 0.02729926
#
# Stress axis : x y z
#
# Youngs Moduli (GPa) = 62.82693 62.82693 94.11912
#
# Poissons Ratio (x) = -0.11603 0.44360
# Poissons Ratio (y) = -0.11603 0.44360
# Poissons Ratio (z) = 0.29612 0.29612
#
# Static dielectric constant tensor:
#      x y z
#    x 3.608700 0.000000 0.000000 
#    y 0.000000 3.608700 0.000000 
#    z 0.000000 0.000000 3.833000 
# 
# 
# High freq. dielectric constant tensor:
#      x y z
#    x 1.774080 0.000000 0.000000 
#    y 0.000000 1.774080 0.000000 
#    z 0.000000 0.000000 1.779390 
# 
# From -- ./inp_files/1838.got.cif
#   From: 2010.03.12/outbox.cif.g09.slc.cpg/sg175_1_cif.got.tgz:1838.got - 2010.04.02 06:55:29.
