data_PCOD8325917
_publ_section_title
;
Structure prediction by ZEFSAII (Michael W. Deem and Ramdas Pophale) SiO2 
 PCOD8325917
Probable space group: P 61 2 2
;
_chemical_formula_sum "Si O2"
_cell_formula_units_Z 42
_cell_length_a 11.566117
_cell_length_b 11.566117
_cell_length_c 16.277242
_cell_angle_alpha 90.000000
_cell_angle_beta 90.000000
_cell_angle_gamma 120.000000
_cell_volume 1885.760847
_symmetry_space_group_name_H-M "P 61 2 2"
_symmetry_group_IT_number 178
_symmetry_cell_setting 'hexagonal'
loop_
_space_group_symop_operation_xyz
x,y,z
x-y,x,1/6+z
-y,x-y,1/3+z
-x,-y,1/2+z
-x+y,-x,2/3+z
y,-x+y,5/6+z
x-y,-y,-z
-x,-x+y,2/3-z
y,x,1/3-z
-y,-x,5/6-z
-x+y,y,1/2-z
x,x-y,1/6-z
loop_
_atom_site_type_symbol
_atom_site_label
_atom_site_fract_x
_atom_site_fract_y
_atom_site_fract_z
Si Si1 0.484911 0.082870 0.869771
Si Si2 0.239774 0.388729 0.878268
Si Si3 0.603527 0.428767 0.705360
Si Si4 0.000000 0.103658 0.833334
O O1 0.396633 0.114378 0.807160
O O2 0.620148 0.091072 0.836240
O O3 0.389570 0.935020 0.905083
O O4 0.521554 0.182748 0.947328
O O5 0.146522 0.453635 0.865485
O O6 0.142780 0.240695 0.844164
O O7 0.683621 0.367242 0.750000
O O8 0.018697 0.037394 0.750000
#
# Coordination Sequence:
#
# PCOD8325917 Si02
#       4
#    12  12  12   6
#     4  10  23  39  60  96 129 174 216 275 341 398
#     4  11  22  41  66  93 129 172 225 277 333 410
#     4  11  21  36  60  91 131 167 218 276 337 404
#     4  12  26  46  72  98 130 178 232 280 326 408
#
# _framework density 22.272179000000001
#
# number of rings (size 3 to 8) (size 9 to 14) (size 15 to 20)
#    0.000    1.143    2.857    6.000    0.000    6.857 
#    0.000    4.286    0.000    0.000    0.000    0.000 
#    0.000    0.000    0.000    0.000    0.000    0.000 
#
# Total GULP energy -520386.005446 kJ/mol
# GULP energy per Si atom -12390.142987 kJ/mol
# Density = 2.222149 g / cm^3
# Si number density = 22.272179 Si / 1000 Ang^3
#
#
#
# Elastic Constant Matrix: (Units=GPa)
#
#
# Indices 1 2 3 4 5 6 
#
# 1 47.3449 8.1386 33.2177 0.0000 0.0000 0.0000
# 2 8.1386 47.3449 33.2177 0.0000 0.0000 0.0000
# 3 33.2177 33.2177 181.6583 0.0000 0.0000 0.0000
# 4 0.0000 0.0000 0.0000 22.4510 0.0000 0.0000
# 5 0.0000 0.0000 0.0000 0.0000 22.4510 0.0000
# 6 0.0000 0.0000 0.0000 0.0000 0.0000 19.6032
#
#
#
# Elastic Compliance Matrix: (Units=1/GPa)
#
#
# Indices 1 2 3 4 5 6 
#
# 1 0.024291 -0.001215 -0.004220 0.000000 0.000000 0.000000
# 2 -0.001215 0.024291 -0.004220 0.000000 0.000000 0.000000
# 3 -0.004220 -0.004220 0.007048 0.000000 0.000000 0.000000
# 4 0.000000 0.000000 0.000000 0.044541 0.000000 0.000000
# 5 0.000000 0.000000 0.000000 0.000000 0.044541 0.000000
# 6 0.000000 0.000000 0.000000 0.000000 0.000000 0.051012
#
#
# Mechanical properties :
#
#
# Convention : Reuss Voigt Hill
#
# Bulk Modulus (GPa) = 27.53197 47.27734 37.40466
# Shear Modulus (GPa) = 22.01275 26.35262 24.18269
#
# Velocity S-wave (km/s) = 3.14722 3.44351 3.29869
# Velocity P-wave (km/s) = 5.05916 6.08962 5.59815
#
# Compressibility (1/GPa) = 0.03632141
#
# Stress axis : x y z
#
# Youngs Moduli (GPa) = 41.16748 41.16748 141.88362
#
# Poissons Ratio (x) = 0.05002 0.59870
# Poissons Ratio (y) = 0.05002 0.59870
# Poissons Ratio (z) = 0.17371 0.17371
#
# Static dielectric constant tensor:
#      x y z
#    x 3.662960 0.000000 0.000000 
#    y 0.000000 3.662960 0.000000 
#    z 0.000000 0.000000 4.482010 
# 
# 
# High freq. dielectric constant tensor:
#      x y z
#    x 1.852560 0.000000 0.000000 
#    y 0.000000 1.852560 0.000000 
#    z 0.000000 0.000000 1.908310 
# 
# From -- ./inp_files/6374.got.cif
#   From: 2010.03.12/outbox.cif.g09.slc.cpg/sg178_4_cif.got.tgz:6374.got - 2010.04.02 07:02:38.
