data_PCOD8325673
_publ_section_title
;
Structure prediction by ZEFSAII (Michael W. Deem and Ramdas Pophale) SiO2 
 PCOD8325673
Probable space group: P 63/M
;
_chemical_formula_sum "Si O2"
_cell_formula_units_Z 52
_cell_length_a 11.003167
_cell_length_b 11.003167
_cell_length_c 21.700318
_cell_angle_alpha 90.000000
_cell_angle_beta 90.000000
_cell_angle_gamma 120.000000
_cell_volume 2275.265799
_symmetry_space_group_name_H-M "P 63/M"
_symmetry_group_IT_number 176
_symmetry_cell_setting 'hexagonal'
loop_
_space_group_symop_operation_xyz
x,y,z
x-y,x,1/2+z
-y,x-y,z
-x,-y,1/2+z
-x+y,-x,z
y,-x+y,1/2+z
-x,-y,-z
-x+y,-x,1/2-z
y,-x+y,-z
x,y,1/2-z
x-y,x,-z
-y,x-y,1/2-z
loop_
_atom_site_type_symbol
_atom_site_label
_atom_site_fract_x
_atom_site_fract_y
_atom_site_fract_z
Si Si1 0.567735 0.927225 0.318334
Si Si2 0.588400 0.693677 0.376079
Si Si3 0.276119 0.787957 0.509048
Si Si4 0.142286 0.313225 0.872686
Si Si5 0.000000 0.000000 0.173251
O O1 0.509376 0.914477 0.250000
O O2 0.626686 0.821280 0.329319
O O3 0.438344 0.874087 0.364867
O O4 0.692689 0.087011 0.328982
O O5 0.594089 0.748032 0.445070
O O6 0.696992 0.640197 0.360646
O O7 0.177485 0.616658 0.514920
O O8 0.231946 0.868256 0.558378
O O9 0.045026 0.149424 0.857468
O O10 0.000000 0.000000 0.250000
#
# Coordination Sequence:
#
# PCOD8325673 Si02
#       5
#    12  12  12  12   4
#     4  12  26  46  73 106 142 193 255 308 370 449
#     4  12  25  48  76 110 145 197 247 310 383 447
#     4  10  23  48  76 108 152 183 242 315 388 442
#     4  12  27  43  75 107 147 199 243 304 378 452
#     4  12  27  51  70 104 160 207 247 299 376 456
#
# _framework density 22.854472000000001
#
# number of rings (size 3 to 8) (size 9 to 14) (size 15 to 20)
#    0.462    0.000    4.615    3.231    3.231    4.615 
#    1.385    1.154    0.000    0.000    0.000    0.000 
#    0.000    0.000    0.000    0.000    0.000    0.000 
#
# Total GULP energy -644442.906223 kJ/mol
# GULP energy per Si atom -12393.132812 kJ/mol
# Density = 2.280245 g / cm^3
# Si number density = 22.854472 Si / 1000 Ang^3
#
#
#
# Elastic Constant Matrix: (Units=GPa)
#
#
# Indices 1 2 3 4 5 6 
#
# 1 105.2348 31.6756 55.3998 0.0000 0.0000 0.0000
# 2 31.6756 105.2348 55.3998 0.0000 0.0000 0.0000
# 3 55.3998 55.3998 144.5819 0.0000 0.0000 0.0000
# 4 0.0000 0.0000 0.0000 31.6095 0.0000 0.0000
# 5 0.0000 0.0000 0.0000 0.0000 31.6095 0.0000
# 6 0.0000 0.0000 0.0000 0.0000 0.0000 36.7796
#
#
#
# Elastic Compliance Matrix: (Units=1/GPa)
#
#
# Indices 1 2 3 4 5 6 
#
# 1 0.012091 -0.001504 -0.004057 0.000000 0.000000 0.000000
# 2 -0.001504 0.012091 -0.004057 0.000000 0.000000 0.000000
# 3 -0.004057 -0.004057 0.010025 0.000000 0.000000 0.000000
# 4 0.000000 0.000000 0.000000 0.031636 0.000000 0.000000
# 5 0.000000 0.000000 0.000000 0.000000 0.031636 0.000000
# 6 0.000000 0.000000 0.000000 0.000000 0.000000 0.027189
#
#
# Mechanical properties :
#
#
# Convention : Reuss Voigt Hill
#
# Bulk Modulus (GPa) = 66.78805 71.11131 68.94968
# Shear Modulus (GPa) = 33.58116 34.17146 33.87631
#
# Velocity S-wave (km/s) = 3.83737 3.87095 3.85419
# Velocity P-wave (km/s) = 6.99432 7.15272 7.07396
#
# Compressibility (1/GPa) = 0.01497274
#
# Stress axis : x y z
#
# Youngs Moduli (GPa) = 82.70769 82.70769 99.74763
#
# Poissons Ratio (x) = 0.12437 0.40464
# Poissons Ratio (y) = 0.12437 0.40464
# Poissons Ratio (z) = 0.33552 0.33552
#
# Static dielectric constant tensor:
#      x y z
#    x 4.108130 0.000000 0.000000 
#    y 0.000000 4.108130 0.000000 
#    z 0.000000 0.000000 3.983260 
# 
# 
# High freq. dielectric constant tensor:
#      x y z
#    x 1.904160 0.000000 0.000000 
#    y 0.000000 1.904160 0.000000 
#    z 0.000000 0.000000 1.896070 
# 
# From -- ./inp_files/3690.got.cif
#   From: 2010.06.25/outbox.cif.g09.slc.cpg/sg176_2_cif.got.tgz:3690.got - 2010.06.28 12:15:01.
