data_PCOD8325278
_publ_section_title
;
Structure prediction by ZEFSAII (Michael W. Deem and Ramdas Pophale) SiO2 
 PCOD8325278
Probable space group: P 6/M
;
_chemical_formula_sum "Si O2"
_cell_formula_units_Z 66
_cell_length_a 21.767633
_cell_length_b 21.767633
_cell_length_c 7.692929
_cell_angle_alpha 90.000000
_cell_angle_beta 90.000000
_cell_angle_gamma 120.000000
_cell_volume 3156.783292
_symmetry_space_group_name_H-M "P 6/M"
_symmetry_group_IT_number 175
_symmetry_cell_setting 'hexagonal'
loop_
_space_group_symop_operation_xyz
x,y,z
x-y,x,z
-y,x-y,z
-x,-y,z
-x+y,-x,z
y,-x+y,z
-x,-y,-z
-x+y,-x,-z
y,-x+y,-z
x,y,-z
x-y,x,-z
-y,x-y,-z
loop_
_atom_site_type_symbol
_atom_site_label
_atom_site_fract_x
_atom_site_fract_y
_atom_site_fract_z
Si Si1 0.658911 0.189848 0.206663
Si Si2 0.167777 0.090305 0.000000
Si Si3 0.379257 0.306000 0.700218
Si Si4 0.717105 0.852981 0.295775
Si Si5 0.082870 0.700767 0.298079
Si Si6 0.530419 0.204448 0.196800
O O1 0.655976 0.118833 0.271942
O O2 0.589865 0.190243 0.283272
O O3 0.728874 0.258076 0.285748
O O4 0.660719 0.189008 0.000000
O O5 0.115475 0.121496 0.000000
O O6 0.213623 0.115472 0.823261
O O7 0.360004 0.299831 0.500000
O O8 0.337839 0.226154 0.773954
O O9 0.349646 0.354366 0.782557
O O10 0.737639 0.854912 0.500000
O O11 0.679609 0.899106 0.264021
O O12 0.089258 0.687203 0.500000
O O13 0.135496 0.681827 0.199242
O O14 0.554869 0.226447 0.000000
#
# Coordination Sequence:
#
# PCOD8325278 Si02
#       6
#    12   6  12  12  12  12
#     4  10  21  37  57  82 115 156 201 249 304 368
#     4  12  27  44  68 100 134 174 218 266 322 392
#     4  10  21  37  59  87 118 152 196 254 312 369
#     4  10  22  43  67  95 130 168 214 266 323 385
#     4  10  21  37  59  87 118 152 196 254 312 369
#     4  10  21  37  57  82 115 156 201 249 304 368
#
# _framework density 20.907359
#
# number of rings (size 3 to 8) (size 9 to 14) (size 15 to 20)
#    0.000    1.818    1.818    1.545    2.545    5.818 
#    0.000    3.636    0.000    3.273    0.000    0.000 
#    0.000    0.000    0.000    0.000    0.000    0.000 
#
# Total GULP energy -818361.314379 kJ/mol
# GULP energy per Si atom -12399.413854 kJ/mol
# Density = 2.085977 g / cm^3
# Si number density = 20.907359 Si / 1000 Ang^3
#
#
#
# Elastic Constant Matrix: (Units=GPa)
#
#
# Indices 1 2 3 4 5 6 
#
# 1 132.9038 49.0322 26.0520 0.0000 0.0000 0.0000
# 2 49.0322 132.9038 26.0520 0.0000 0.0000 0.0000
# 3 26.0520 26.0520 46.5680 0.0000 0.0000 0.0000
# 4 0.0000 0.0000 0.0000 23.7937 0.0000 0.0000
# 5 0.0000 0.0000 0.0000 0.0000 23.7937 0.0000
# 6 0.0000 0.0000 0.0000 0.0000 0.0000 41.9358
#
#
#
# Elastic Compliance Matrix: (Units=1/GPa)
#
#
# Indices 1 2 3 4 5 6 
#
# 1 0.009234 -0.002689 -0.003662 0.000000 0.000000 0.000000
# 2 -0.002689 0.009234 -0.003662 0.000000 0.000000 0.000000
# 3 -0.003662 -0.003662 0.025571 0.000000 0.000000 0.000000
# 4 0.000000 0.000000 0.000000 0.042028 0.000000 0.000000
# 5 0.000000 0.000000 0.000000 0.000000 0.042028 0.000000
# 6 0.000000 0.000000 0.000000 0.000000 0.000000 0.023846
#
#
# Mechanical properties :
#
#
# Convention : Reuss Voigt Hill
#
# Bulk Modulus (GPa) = 41.64122 57.18311 49.41216
# Shear Modulus (GPa) = 27.78244 31.98725 29.88484
#
# Velocity S-wave (km/s) = 3.64927 3.91570 3.78483
# Velocity P-wave (km/s) = 6.14138 6.91764 6.54103
#
# Compressibility (1/GPa) = 0.02401467
#
# Stress axis : x y z
#
# Youngs Moduli (GPa) = 108.29508 108.29508 39.10712
#
# Poissons Ratio (x) = 0.29120 0.14319
# Poissons Ratio (y) = 0.29120 0.14319
# Poissons Ratio (z) = 0.39653 0.39653
#
# Static dielectric constant tensor:
#      x y z
#    x 3.901570 0.000000 0.000000 
#    y 0.000000 3.901570 0.000000 
#    z 0.000000 0.000000 3.565240 
# 
# 
# High freq. dielectric constant tensor:
#      x y z
#    x 1.825380 0.000000 0.000000 
#    y 0.000000 1.825380 0.000000 
#    z 0.000000 0.000000 1.803540 
# 
# From -- ./inp_files/1011.got.cif
#   From: 2010.03.12/outbox.cif.g09.slc.cpg/sg175_1_cif.got.tgz:1011.got - 2010.04.02 06:55:29.
