data_PCOD8325031
_publ_section_title
;
Structure prediction by ZEFSAII (Michael W. Deem and Ramdas Pophale) SiO2 
 PCOD8325031
Probable space group: P 6/M
;
_chemical_formula_sum "Si O2"
_cell_formula_units_Z 60
_cell_length_a 19.578152
_cell_length_b 19.578152
_cell_length_c 10.094690
_cell_angle_alpha 90.000000
_cell_angle_beta 90.000000
_cell_angle_gamma 120.000000
_cell_volume 3350.942766
_symmetry_space_group_name_H-M "P 6/M"
_symmetry_group_IT_number 175
_symmetry_cell_setting 'hexagonal'
loop_
_space_group_symop_operation_xyz
x,y,z
x-y,x,z
-y,x-y,z
-x,-y,z
-x+y,-x,z
y,-x+y,z
-x,-y,-z
-x+y,-x,-z
y,-x+y,-z
x,y,-z
x-y,x,-z
-y,x-y,-z
loop_
_atom_site_type_symbol
_atom_site_label
_atom_site_fract_x
_atom_site_fract_y
_atom_site_fract_z
Si Si1 0.132886 0.720418 0.153597
Si Si2 0.007171 0.166940 0.500000
Si Si3 0.130131 0.425550 0.846537
Si Si4 0.448794 0.536556 0.156627
Si Si5 0.739612 0.745215 0.755346
Si Si6 0.982245 0.830984 0.000000
O O1 0.223657 0.782979 0.173183
O O2 0.123586 0.639526 0.213693
O O3 0.081017 0.749887 0.232144
O O4 0.106850 0.711429 0.000000
O O5 0.010188 0.218549 0.624011
O O6 0.081772 0.153402 0.500000
O O7 0.134836 0.506851 0.799216
O O8 0.068648 0.353489 0.755914
O O9 0.102006 0.406845 0.000000
O O10 0.500000 0.500000 0.212472
O O11 0.442070 0.530445 0.000000
O O12 0.779691 0.806526 0.872875
O O13 0.912442 0.849989 0.000000
#
# Coordination Sequence:
#
# PCOD8325031 Si02
#       6
#    12   6  12  12  12   6
#     4  10  18  31  53  80 110 144 184 230 272 320
#     4  12  27  44  58  77 110 148 182 222 278 339
#     4  10  18  31  53  80 110 144 184 230 272 320
#     4   9  16  28  46  76 110 146 178 214 274 330
#     4  12  22  37  58  82 105 140 187 227 273 323
#     4  12  23  36  54  79 106 134 172 220 272 325
#
# _framework density 17.905408000000001
#
# number of rings (size 3 to 8) (size 9 to 14) (size 15 to 20)
#    0.000    1.400    4.000    3.800    0.000    0.000 
#    1.200    2.000    0.000    2.400    0.000    0.000 
#    0.000    0.000    0.000    0.000    0.000    0.000 
#
# Total GULP energy -743945.845173 kJ/mol
# GULP energy per Si atom -12399.097420 kJ/mol
# Density = 1.786465 g / cm^3
# Si number density = 17.905408 Si / 1000 Ang^3
#
#
#
# Elastic Constant Matrix: (Units=GPa)
#
#
# Indices 1 2 3 4 5 6 
#
# 1 103.3824 36.5950 26.5375 0.0000 0.0000 0.0000
# 2 36.5950 103.3824 26.5375 0.0000 0.0000 0.0000
# 3 26.5375 26.5375 74.3591 0.0000 0.0000 0.0000
# 4 0.0000 0.0000 0.0000 13.3498 0.0000 0.0000
# 5 0.0000 0.0000 0.0000 0.0000 13.3498 0.0000
# 6 0.0000 0.0000 0.0000 0.0000 0.0000 33.3937
#
#
#
# Elastic Compliance Matrix: (Units=1/GPa)
#
#
# Indices 1 2 3 4 5 6 
#
# 1 0.011617 -0.003355 -0.002949 0.000000 0.000000 0.000000
# 2 -0.003355 0.011617 -0.002949 0.000000 0.000000 0.000000
# 3 -0.002949 -0.002949 0.015553 0.000000 0.000000 0.000000
# 4 0.000000 0.000000 0.000000 0.074907 0.000000 0.000000
# 5 0.000000 0.000000 0.000000 0.000000 0.074907 0.000000
# 6 0.000000 0.000000 0.000000 0.000000 0.000000 0.029946
#
#
# Mechanical properties :
#
#
# Convention : Reuss Voigt Hill
#
# Bulk Modulus (GPa) = 49.30337 51.16265 50.23301
# Shear Modulus (GPa) = 20.50741 24.78225 22.64483
#
# Velocity S-wave (km/s) = 3.38793 3.72434 3.56011
# Velocity P-wave (km/s) = 6.54976 6.86514 6.70930
#
# Compressibility (1/GPa) = 0.02028259
#
# Stress axis : x y z
#
# Youngs Moduli (GPa) = 86.07736 86.07736 64.29689
#
# Poissons Ratio (x) = 0.28883 0.18958
# Poissons Ratio (y) = 0.28883 0.18958
# Poissons Ratio (z) = 0.25381 0.25381
#
# Static dielectric constant tensor:
#      x y z
#    x 3.534890 0.000000 0.000000 
#    y 0.000000 3.534890 0.000000 
#    z 0.000000 0.000000 2.844310 
# 
# 
# High freq. dielectric constant tensor:
#      x y z
#    x 1.708130 0.000000 0.000000 
#    y 0.000000 1.708130 0.000000 
#    z 0.000000 0.000000 1.633980 
# 
# From -- ./inp_files/1859.got.cif
#   From: 2010.03.12/outbox.cif.g09.slc.cpg/sg175_1_cif.got.tgz:1859.got - 2010.04.02 06:55:29.
