data_PCOD8325533
_publ_section_title
;
Structure prediction by ZEFSAII (Michael W. Deem and Ramdas Pophale) SiO2 
 PCOD8325533
Probable space group: P 63/M
;
_chemical_formula_sum "Si O2"
_cell_formula_units_Z 84
_cell_length_a 14.576386
_cell_length_b 14.576386
_cell_length_c 27.696447
_cell_angle_alpha 90.000000
_cell_angle_beta 90.000000
_cell_angle_gamma 120.000000
_cell_volume 5096.293275
_symmetry_space_group_name_H-M "P 63/M"
_symmetry_group_IT_number 176
_symmetry_cell_setting 'hexagonal'
loop_
_space_group_symop_operation_xyz
x,y,z
x-y,x,1/2+z
-y,x-y,z
-x,-y,1/2+z
-x+y,-x,z
y,-x+y,1/2+z
-x,-y,-z
-x+y,-x,1/2-z
y,-x+y,-z
x,y,1/2-z
x-y,x,-z
-y,x-y,1/2-z
loop_
_atom_site_type_symbol
_atom_site_label
_atom_site_fract_x
_atom_site_fract_y
_atom_site_fract_z
Si Si1 0.011229 0.530253 0.897332
Si Si2 0.359582 0.565225 0.544869
Si Si3 0.237200 0.880926 0.095476
Si Si4 0.909545 0.441044 0.696876
Si Si5 0.195146 0.421636 0.195973
Si Si6 0.089026 0.671716 0.040655
Si Si7 0.201695 0.997368 0.486109
O O1 0.927498 0.565910 0.912417
O O2 0.004892 0.505643 0.840446
O O3 0.988879 0.425935 0.926284
O O4 0.130196 0.623033 0.909309
O O5 0.448167 0.690627 0.546747
O O6 0.372373 0.514786 0.496092
O O7 0.210426 0.872531 0.153237
O O8 0.179323 0.764430 0.072580
O O9 0.199128 0.954789 0.068395
O O10 0.961206 0.464468 0.750000
O O11 0.852007 0.317518 0.685063
O O12 0.823123 0.478552 0.693143
O O13 0.163574 0.369377 0.250000
O O14 0.018079 0.710031 0.012462
O O15 0.194100 0.103234 0.482895
#
# Coordination Sequence:
#
# PCOD8325533 Si02
#       7
#    12  12  12  12  12  12  12
#     4  11  20  32  50  72 107 136 180 208 257 319
#     4  10  23  34  49  69 104 142 180 214 261 301
#     4  10  20  32  48  77 102 139 172 213 261 309
#     4   9  17  29  47  71 103 136 170 216 263 314
#     4   9  16  29  46  71 102 135 171 210 261 314
#     4  11  20  33  49  75 102 138 172 220 256 309
#     4  10  22  35  53  71 102 132 173 214 262 316
#
# _framework density 16.482567
#
# number of rings (size 3 to 8) (size 9 to 14) (size 15 to 20)
#    0.286    1.714    2.857    1.714    4.000    1.143 
#    0.857    0.000    0.000    0.857    0.000    7.000 
#    0.000    0.000    0.000    0.000    0.000    0.000 
#
# Total GULP energy -1041139.502322 kJ/mol
# GULP energy per Si atom -12394.517885 kJ/mol
# Density = 1.644505 g / cm^3
# Si number density = 16.482567 Si / 1000 Ang^3
#
#
#
# Elastic Constant Matrix: (Units=GPa)
#
#
# Indices 1 2 3 4 5 6 
#
# 1 74.9674 29.4654 50.4040 0.0000 0.0000 0.0000
# 2 29.4654 74.9674 50.4040 0.0000 0.0000 0.0000
# 3 50.4040 50.4040 134.8769 0.0000 0.0000 0.0000
# 4 0.0000 0.0000 0.0000 21.4346 0.0000 0.0000
# 5 0.0000 0.0000 0.0000 0.0000 21.4346 0.0000
# 6 0.0000 0.0000 0.0000 0.0000 0.0000 22.7510
#
#
#
# Elastic Compliance Matrix: (Units=1/GPa)
#
#
# Indices 1 2 3 4 5 6 
#
# 1 0.018478 -0.003499 -0.005598 0.000000 0.000000 0.000000
# 2 -0.003499 0.018478 -0.005598 0.000000 0.000000 0.000000
# 3 -0.005598 -0.005598 0.011598 0.000000 0.000000 0.000000
# 4 0.000000 0.000000 0.000000 0.046653 0.000000 0.000000
# 5 0.000000 0.000000 0.000000 0.000000 0.046653 0.000000
# 6 0.000000 0.000000 0.000000 0.000000 0.000000 0.043954
#
#
# Mechanical properties :
#
#
# Convention : Reuss Voigt Hill
#
# Bulk Modulus (GPa) = 52.17834 60.59539 56.38687
# Shear Modulus (GPa) = 22.56398 23.42661 22.99530
#
# Velocity S-wave (km/s) = 3.70396 3.77410 3.73919
# Velocity P-wave (km/s) = 7.07233 7.47227 7.27505
#
# Compressibility (1/GPa) = 0.01916504
#
# Stress axis : x y z
#
# Youngs Moduli (GPa) = 54.11849 54.11849 86.22236
#
# Poissons Ratio (x) = 0.18936 0.48265
# Poissons Ratio (y) = 0.18936 0.48265
# Poissons Ratio (z) = 0.30294 0.30294
#
# Static dielectric constant tensor:
#      x y z
#    x 2.993430 0.000000 0.000000 
#    y 0.000000 2.993430 0.000000 
#    z 0.000000 0.000000 3.327560 
# 
# 
# High freq. dielectric constant tensor:
#      x y z
#    x 1.618280 0.000000 0.000000 
#    y 0.000000 1.618280 0.000000 
#    z 0.000000 0.000000 1.634680 
# 
# From -- ./inp_files/4308.got.cif
#   From: 2010.06.25/outbox.cif.g09.slc.cpg/sg176_3_cif.got.tgz:4308.got - 2010.06.28 12:15:01.
