data_PCOD8325588
_publ_section_title
;
Structure prediction by ZEFSAII (Michael W. Deem and Ramdas Pophale) SiO2 
 PCOD8325588
Probable space group: P 63/M
;
_chemical_formula_sum "Si O2"
_cell_formula_units_Z 30
_cell_length_a 8.429481
_cell_length_b 8.429481
_cell_length_c 22.385554
_cell_angle_alpha 90.000000
_cell_angle_beta 90.000000
_cell_angle_gamma 120.000000
_cell_volume 1377.527098
_symmetry_space_group_name_H-M "P 63/M"
_symmetry_group_IT_number 176
_symmetry_cell_setting 'hexagonal'
loop_
_space_group_symop_operation_xyz
x,y,z
x-y,x,1/2+z
-y,x-y,z
-x,-y,1/2+z
-x+y,-x,z
y,-x+y,1/2+z
-x,-y,-z
-x+y,-x,1/2-z
y,-x+y,-z
x,y,1/2-z
x-y,x,-z
-y,x-y,1/2-z
loop_
_atom_site_type_symbol
_atom_site_label
_atom_site_fract_x
_atom_site_fract_y
_atom_site_fract_z
Si Si1 0.000000 0.000000 0.178696
Si Si2 0.653464 0.008758 0.367195
Si Si3 0.098216 0.567201 0.250000
Si Si4 0.666667 0.333334 0.064304
Si Si5 0.333334 0.666668 0.076878
O O1 0.847143 0.040259 0.153399
O O2 0.000000 0.000000 0.250000
O O3 0.545205 0.024479 0.309242
O O4 0.533562 0.811760 0.398450
O O5 0.687704 0.164595 0.414034
O O6 0.210935 0.457741 0.250000
O O7 0.666668 0.333334 0.993631
#
# Coordination Sequence:
#
# PCOD8325588 Si02
#       5
#     4  12   6   4   4
#     4  12  27  42  70 107 139 171 222 283 353 415
#     4  12  24  44  71  99 137 176 225 284 345 400
#     4  10  20  38  72  96 134 174 220 280 358 404
#     4  12  30  43  68 103 135 189 235 272 331 417
#     4  12  24  52  71  94 141 183 235 281 331 405
#
# _framework density 21.778154000000001
#
# number of rings (size 3 to 8) (size 9 to 14) (size 15 to 20)
#    0.400    0.000    6.000    3.600    0.000    1.600 
#    0.000    2.000    0.000    0.000    0.000    0.000 
#    0.000    0.000    0.000    0.000    0.000    0.000 
#
# Total GULP energy -372140.807104 kJ/mol
# GULP energy per Si atom -12404.693570 kJ/mol
# Density = 2.172859 g / cm^3
# Si number density = 21.778154 Si / 1000 Ang^3
#
#
#
# Elastic Constant Matrix: (Units=GPa)
#
#
# Indices 1 2 3 4 5 6 
#
# 1 72.2264 15.7515 29.8478 0.0000 0.0000 -0.0002
# 2 15.7515 72.2252 29.8470 0.0000 0.0000 0.0007
# 3 29.8478 29.8470 185.8377 0.0000 0.0000 0.0008
# 4 0.0000 0.0000 0.0000 21.3103 0.0000 0.0000
# 5 0.0000 0.0000 0.0000 0.0000 21.3094 0.0000
# 6 -0.0002 0.0007 0.0008 0.0000 0.0000 28.2372
#
#
#
# Elastic Compliance Matrix: (Units=1/GPa)
#
#
# Indices 1 2 3 4 5 6 
#
# 1 0.015232 -0.002475 -0.002049 0.000000 0.000000 0.000000
# 2 -0.002475 0.015232 -0.002049 0.000000 0.000000 0.000000
# 3 -0.002049 -0.002049 0.006039 0.000000 0.000000 0.000000
# 4 0.000000 0.000000 0.000000 0.046926 0.000000 0.000000
# 5 0.000000 0.000000 0.000000 0.000000 0.046928 0.000000
# 6 0.000000 0.000000 0.000000 0.000000 0.000000 0.035414
#
#
# Mechanical properties :
#
#
# Convention : Reuss Voigt Hill
#
# Bulk Modulus (GPa) = 42.81324 53.46466 48.13895
# Shear Modulus (GPa) = 26.78058 31.16091 28.97074
#
# Velocity S-wave (km/s) = 3.51051 3.78674 3.65124
# Velocity P-wave (km/s) = 6.01108 6.61227 6.31883
#
# Compressibility (1/GPa) = 0.02335726
#
# Stress axis : x y z
#
# Youngs Moduli (GPa) = 65.65188 65.65089 165.58550
#
# Poissons Ratio (x) = 0.16250 0.33927
# Poissons Ratio (y) = 0.16250 0.33926
# Poissons Ratio (z) = 0.13451 0.13451
#
# Static dielectric constant tensor:
#      x y z
#    x 3.843120 -0.000010 0.000000 
#    y -0.000010 3.843130 0.000000 
#    z 0.000000 0.000000 4.012400 
# 
# 
# High freq. dielectric constant tensor:
#      x y z
#    x 1.852830 0.000000 0.000000 
#    y 0.000000 1.852830 0.000000 
#    z 0.000000 0.000000 1.866790 
# 
# From -- ./inp_files/3941.got.cif
#   From: 2010.06.25/outbox.cif.g09.slc.cpg/sg176_2_cif.got.tgz:3941.got - 2010.06.28 12:15:01.
