data_PCOD8325906
_publ_section_title
;
Structure prediction by ZEFSAII (Michael W. Deem and Ramdas Pophale) SiO2 
 PCOD8325906
Probable space group: P 61 2 2
;
_chemical_formula_sum "Si O2"
_cell_formula_units_Z 36
_cell_length_a 10.917773
_cell_length_b 10.917773
_cell_length_c 12.407089
_cell_angle_alpha 90.000000
_cell_angle_beta 90.000000
_cell_angle_gamma 120.000000
_cell_volume 1280.762638
_symmetry_space_group_name_H-M "P 61 2 2"
_symmetry_group_IT_number 178
_symmetry_cell_setting 'hexagonal'
loop_
_space_group_symop_operation_xyz
x,y,z
x-y,x,1/6+z
-y,x-y,1/3+z
-x,-y,1/2+z
-x+y,-x,2/3+z
y,-x+y,5/6+z
x-y,-y,-z
-x,-x+y,2/3-z
y,x,1/3-z
-y,-x,5/6-z
-x+y,y,1/2-z
x,x-y,1/6-z
loop_
_atom_site_type_symbol
_atom_site_label
_atom_site_fract_x
_atom_site_fract_y
_atom_site_fract_z
Si Si1 0.832425 0.761168 0.961587
Si Si2 0.343607 0.000000 0.000000
Si Si3 0.690982 0.309019 0.916667
Si Si4 0.619803 0.492767 0.061291
O O1 0.826173 0.884270 0.894943
O O2 0.873246 0.677361 0.875269
O O3 0.680422 0.650693 0.014803
O O4 0.398497 0.949986 0.893876
O O5 0.839244 0.353190 0.856949
O O6 0.573709 0.297024 0.832366
#
# Coordination Sequence:
#
# PCOD8325906 Si02
#       4
#    12   6   6  12
#     4  12  29  54  85 120 174 229 282 348 425 511
#     4  12  26  50  80 118 166 226 280 342 420 506
#     4  10  22  42  74 120 162 196 272 346 420 486
#     4  11  24  45  77 121 159 214 277 346 418 494
#
# _framework density 28.108253999999999
#
# number of rings (size 3 to 8) (size 9 to 14) (size 15 to 20)
#    0.000    0.667    3.333    3.000    9.333    0.000 
#    0.000    8.333    0.000    0.000    0.000    0.000 
#    0.000    0.000    0.000    0.000    0.000    0.000 
#
# Total GULP energy -445980.181617 kJ/mol
# GULP energy per Si atom -12388.338378 kJ/mol
# Density = 2.804428 g / cm^3
# Si number density = 28.108254 Si / 1000 Ang^3
#
#
#
# Elastic Constant Matrix: (Units=GPa)
#
#
# Indices 1 2 3 4 5 6 
#
# 1 73.8699 -3.5989 33.4198 0.0000 0.0000 0.0000
# 2 -3.5989 73.8699 33.4198 0.0000 0.0000 0.0000
# 3 33.4198 33.4198 134.5156 0.0000 0.0000 0.0000
# 4 0.0000 0.0000 0.0000 63.1760 0.0000 0.0000
# 5 0.0000 0.0000 0.0000 0.0000 63.1760 0.0000
# 6 0.0000 0.0000 0.0000 0.0000 0.0000 38.7344
#
#
#
# Elastic Compliance Matrix: (Units=1/GPa)
#
#
# Indices 1 2 3 4 5 6 
#
# 1 0.015771 0.002863 -0.004630 0.000000 0.000000 0.000000
# 2 0.002863 0.015771 -0.004630 0.000000 0.000000 0.000000
# 3 -0.004630 -0.004630 0.009734 0.000000 0.000000 0.000000
# 4 0.000000 0.000000 0.000000 0.015829 0.000000 0.000000
# 5 0.000000 0.000000 0.000000 0.000000 0.015829 0.000000
# 6 0.000000 0.000000 0.000000 0.000000 0.000000 0.025817
#
#
# Mechanical properties :
#
#
# Convention : Reuss Voigt Hill
#
# Bulk Modulus (GPa) = 35.10689 45.41522 40.26105
# Shear Modulus (GPa) = 41.30907 47.61826 44.46366
#
# Velocity S-wave (km/s) = 3.83775 4.12041 3.98159
# Velocity P-wave (km/s) = 5.67052 6.23132 5.95752
#
# Compressibility (1/GPa) = 0.02848444
#
# Stress axis : x y z
#
# Youngs Moduli (GPa) = 63.40647 63.40647 102.72776
#
# Poissons Ratio (x) = -0.18152 0.47558
# Poissons Ratio (y) = -0.18152 0.47558
# Poissons Ratio (z) = 0.29354 0.29354
#
# Static dielectric constant tensor:
#      x y z
#    x 5.121240 0.000000 0.000000 
#    y 0.000000 5.121240 0.000000 
#    z 0.000000 0.000000 6.312850 
# 
# 
# High freq. dielectric constant tensor:
#      x y z
#    x 2.126980 0.000000 0.000000 
#    y 0.000000 2.126980 0.000000 
#    z 0.000000 0.000000 2.152800 
# 
# From -- ./inp_files/5173.got.cif
#   From: 2010.03.12/outbox.cif.g09.slc.cpg/sg178_3_cif.got.tgz:5173.got - 2010.04.02 07:02:38.
