data_PCOD8325424
_publ_section_title
;
Structure prediction by ZEFSAII (Michael W. Deem and Ramdas Pophale) SiO2 
 PCOD8325424
Probable space group: P 63/M
;
_chemical_formula_sum "Si O2"
_cell_formula_units_Z 72
_cell_length_a 22.471011
_cell_length_b 22.471011
_cell_length_c 9.203028
_cell_angle_alpha 90.000000
_cell_angle_beta 90.000000
_cell_angle_gamma 120.000000
_cell_volume 4024.450590
_symmetry_space_group_name_H-M "P 63/M"
_symmetry_group_IT_number 176
_symmetry_cell_setting 'hexagonal'
loop_
_space_group_symop_operation_xyz
x,y,z
x-y,x,1/2+z
-y,x-y,z
-x,-y,1/2+z
-x+y,-x,z
y,-x+y,1/2+z
-x,-y,-z
-x+y,-x,1/2-z
y,-x+y,-z
x,y,1/2-z
x-y,x,-z
-y,x-y,1/2-z
loop_
_atom_site_type_symbol
_atom_site_label
_atom_site_fract_x
_atom_site_fract_y
_atom_site_fract_z
Si Si1 0.565819 0.774023 0.418918
Si Si2 0.627484 0.618098 0.085624
Si Si3 0.377498 0.872315 0.082645
Si Si4 0.142605 0.852274 0.921876
Si Si5 0.495098 0.133241 0.916449
Si Si6 0.013943 0.249716 0.081885
O O1 0.586726 0.774001 0.250000
O O2 0.526732 0.697776 0.489058
O O3 0.634558 0.822210 0.507059
O O4 0.510068 0.798711 0.434189
O O5 0.642275 0.605198 0.250000
O O6 0.548432 0.595803 0.062611
O O7 0.676183 0.698111 0.047595
O O8 0.645262 0.572983 0.983645
O O9 0.367909 0.850038 0.250000
O O10 0.434407 0.856745 0.010717
O O11 0.154302 0.855164 0.750000
O O12 0.061801 0.811028 0.960706
O O13 0.173828 0.929164 0.984884
O O14 0.495239 0.112927 0.750000
O O15 0.029550 0.244192 0.250000
#
# Coordination Sequence:
#
# PCOD8325424 Si02
#       6
#    12  12  12  12  12  12
#     4  10  19  34  53  73 106 145 179 229 283 320
#     4  10  18  32  53  73 105 141 167 213 275 322
#     4   9  18  33  49  70 101 139 177 215 269 320
#     4  11  22  36  58  86 112 141 182 222 262 326
#     4  10  20  32  50  75 101 134 182 225 262 319
#     4  10  21  37  57  83 115 147 174 215 276 325
#
# _framework density 17.890640000000001
#
# number of rings (size 3 to 8) (size 9 to 14) (size 15 to 20)
#    0.000    2.000    3.333    1.000    0.000    2.000 
#    1.000    0.833    0.000    0.333    0.000    0.000 
#    0.000    0.000    0.000    0.000    0.000    0.000 
#
# Total GULP energy -892701.625367 kJ/mol
# GULP energy per Si atom -12398.633686 kJ/mol
# Density = 1.784992 g / cm^3
# Si number density = 17.890640 Si / 1000 Ang^3
#
#
#
# Elastic Constant Matrix: (Units=GPa)
#
#
# Indices 1 2 3 4 5 6 
#
# 1 92.8593 38.2451 36.7647 0.0000 0.0000 0.0000
# 2 38.2451 92.8593 36.7647 0.0000 0.0000 0.0000
# 3 36.7647 36.7647 54.0935 0.0000 0.0000 0.0000
# 4 0.0000 0.0000 0.0000 21.8600 0.0000 0.0000
# 5 0.0000 0.0000 0.0000 0.0000 21.8600 0.0000
# 6 0.0000 0.0000 0.0000 0.0000 0.0000 27.3071
#
#
#
# Elastic Compliance Matrix: (Units=1/GPa)
#
#
# Indices 1 2 3 4 5 6 
#
# 1 0.015318 -0.002992 -0.008377 0.000000 0.000000 0.000000
# 2 -0.002992 0.015318 -0.008377 0.000000 0.000000 0.000000
# 3 -0.008377 -0.008377 0.029874 0.000000 0.000000 0.000000
# 4 0.000000 0.000000 0.000000 0.045746 0.000000 0.000000
# 5 0.000000 0.000000 0.000000 0.000000 0.045746 0.000000
# 6 0.000000 0.000000 0.000000 0.000000 0.000000 0.036621
#
#
# Mechanical properties :
#
#
# Convention : Reuss Voigt Hill
#
# Bulk Modulus (GPa) = 47.58199 51.48459 49.53329
# Shear Modulus (GPa) = 21.26565 22.74124 22.00345
#
# Velocity S-wave (km/s) = 3.45142 3.56915 3.51078
# Velocity P-wave (km/s) = 6.52202 6.76942 6.64687
#
# Compressibility (1/GPa) = 0.02101636
#
# Stress axis : x y z
#
# Youngs Moduli (GPa) = 65.28238 65.28238 33.47413
#
# Poissons Ratio (x) = 0.19534 0.28042
# Poissons Ratio (y) = 0.19534 0.28042
# Poissons Ratio (z) = 0.54689 0.54689
#
# Static dielectric constant tensor:
#      x y z
#    x 3.427050 0.000000 0.000000 
#    y 0.000000 3.427050 0.000000 
#    z 0.000000 0.000000 3.135490 
# 
# 
# High freq. dielectric constant tensor:
#      x y z
#    x 1.692890 0.000000 0.000000 
#    y 0.000000 1.692890 0.000000 
#    z 0.000000 0.000000 1.668640 
# 
# From -- ./inp_files/1136.got.cif
#   From: 2010.06.25/outbox.cif.g09.slc.cpg/sg176_1_cif.got.tgz:1136.got - 2010.06.28 12:15:01.
