data_PCOD8325232
_publ_section_title
;
Structure prediction by ZEFSAII (Michael W. Deem and Ramdas Pophale) SiO2 
 PCOD8325232
Probable space group: P 6/M
;
_chemical_formula_sum "Si O2"
_cell_formula_units_Z 60
_cell_length_a 14.157115
_cell_length_b 14.157115
_cell_length_c 14.504545
_cell_angle_alpha 90.000000
_cell_angle_beta 90.000000
_cell_angle_gamma 120.000000
_cell_volume 2517.585689
_symmetry_space_group_name_H-M "P 6/M"
_symmetry_group_IT_number 175
_symmetry_cell_setting 'hexagonal'
loop_
_space_group_symop_operation_xyz
x,y,z
x-y,x,z
-y,x-y,z
-x,-y,z
-x+y,-x,z
y,-x+y,z
-x,-y,-z
-x+y,-x,-z
y,-x+y,-z
x,y,-z
x-y,x,-z
-y,x-y,-z
loop_
_atom_site_type_symbol
_atom_site_label
_atom_site_fract_x
_atom_site_fract_y
_atom_site_fract_z
Si Si1 0.955948 0.184143 0.640839
Si Si2 0.122945 0.523746 0.707041
Si Si3 0.373028 0.925805 0.099112
Si Si4 0.206807 0.215546 0.857282
Si Si5 0.537288 0.800988 0.394955
O O1 0.975667 0.187184 0.749076
O O2 0.918018 0.270369 0.613294
O O3 0.070139 0.208833 0.597608
O O4 0.151530 0.503805 0.811943
O O5 0.146959 0.444274 0.642237
O O6 0.201396 0.646258 0.671598
O O7 0.000000 0.500000 0.697841
O O8 0.500000 0.000000 0.088706
O O9 0.324247 0.006059 0.116703
O O10 0.327951 0.863005 0.000000
O O11 0.215215 0.113953 0.899358
O O12 0.495816 0.780401 0.500000
#
# Coordination Sequence:
#
# PCOD8325232 Si02
#       5
#    12  12  12  12  12
#     4  10  20  36  59  90 130 174 218 262 315 384
#     4  11  24  45  68  94 131 171 218 279 346 410
#     4  10  22  41  66  95 131 178 230 283 340 406
#     4  10  20  38  66 102 143 185 227 276 338 410
#     4  12  25  41  65  96 128 169 223 280 340 405
#
# _framework density 23.832356999999998
#
# number of rings (size 3 to 8) (size 9 to 14) (size 15 to 20)
#    0.000    1.400    0.000    7.400    0.000    6.400 
#    0.000    3.000    0.000    3.200    0.000    0.000 
#    0.000    0.000    0.000    0.000    0.000    0.000 
#
# Total GULP energy -743387.924287 kJ/mol
# GULP energy per Si atom -12389.798738 kJ/mol
# Density = 2.377811 g / cm^3
# Si number density = 23.832357 Si / 1000 Ang^3
#
#
#
# Elastic Constant Matrix: (Units=GPa)
#
#
# Indices 1 2 3 4 5 6 
#
# 1 114.4292 37.7713 49.4788 0.0000 0.0000 0.0000
# 2 37.7713 114.4292 49.4788 0.0000 0.0000 0.0000
# 3 49.4788 49.4788 170.1562 0.0000 0.0000 0.0000
# 4 0.0000 0.0000 0.0000 5.1055 0.0000 0.0000
# 5 0.0000 0.0000 0.0000 0.0000 5.1055 0.0000
# 6 0.0000 0.0000 0.0000 0.0000 0.0000 38.3290
#
#
#
# Elastic Compliance Matrix: (Units=1/GPa)
#
#
# Indices 1 2 3 4 5 6 
#
# 1 0.010574 -0.002471 -0.002356 0.000000 0.000000 0.000000
# 2 -0.002471 0.010574 -0.002356 0.000000 0.000000 0.000000
# 3 -0.002356 -0.002356 0.007247 0.000000 0.000000 0.000000
# 4 0.000000 0.000000 0.000000 0.195868 0.000000 0.000000
# 5 0.000000 0.000000 0.000000 0.000000 0.195868 0.000000
# 6 0.000000 0.000000 0.000000 0.000000 0.000000 0.026090
#
#
# Mechanical properties :
#
#
# Convention : Reuss Voigt Hill
#
# Bulk Modulus (GPa) = 71.28893 74.71916 73.00405
# Shear Modulus (GPa) = 10.74662 27.19370 18.97016
#
# Velocity S-wave (km/s) = 2.12580 3.38159 2.82438
# Velocity P-wave (km/s) = 6.00025 6.83132 6.42923
#
# Compressibility (1/GPa) = 0.01402742
#
# Stress axis : x y z
#
# Youngs Moduli (GPa) = 94.57586 94.57586 137.98616
#
# Poissons Ratio (x) = 0.23374 0.32509
# Poissons Ratio (y) = 0.23374 0.32509
# Poissons Ratio (z) = 0.22282 0.22282
#
# Static dielectric constant tensor:
#      x y z
#    x 4.350670 0.000000 0.000000 
#    y 0.000000 4.350670 0.000000 
#    z 0.000000 0.000000 4.680530 
# 
# 
# High freq. dielectric constant tensor:
#      x y z
#    x 1.938950 0.000000 0.000000 
#    y 0.000000 1.938950 0.000000 
#    z 0.000000 0.000000 1.947360 
# 
# From -- ./inp_files/2356.got.cif
#   From: 2010.03.12/outbox.cif.g09.slc.cpg/sg175_2_cif.got.tgz:2356.got - 2010.04.02 06:55:29.
