data_PCOD8325966
_publ_section_title
;
Structure prediction by ZEFSAII (Michael W. Deem and Ramdas Pophale) SiO2 
 PCOD8325966
Probable space group: P 61 2 2
;
_chemical_formula_sum "Si O2"
_cell_formula_units_Z 30
_cell_length_a 15.545440
_cell_length_b 15.545440
_cell_length_c 7.468723
_cell_angle_alpha 90.000000
_cell_angle_beta 90.000000
_cell_angle_gamma 120.000000
_cell_volume 1563.086536
_symmetry_space_group_name_H-M "P 61 2 2"
_symmetry_group_IT_number 178
_symmetry_cell_setting 'hexagonal'
loop_
_space_group_symop_operation_xyz
x,y,z
x-y,x,1/6+z
-y,x-y,1/3+z
-x,-y,1/2+z
-x+y,-x,2/3+z
y,-x+y,5/6+z
x-y,-y,-z
-x,-x+y,2/3-z
y,x,1/3-z
-y,-x,5/6-z
-x+y,y,1/2-z
x,x-y,1/6-z
loop_
_atom_site_type_symbol
_atom_site_label
_atom_site_fract_x
_atom_site_fract_y
_atom_site_fract_z
Si Si1 0.112881 0.735406 0.776269
Si Si2 0.542062 0.432638 0.709367
Si Si3 0.429020 0.214510 0.583334
O O1 0.130759 0.641716 0.772720
O O2 0.141277 0.782371 0.575849
O O3 0.000000 0.700649 0.833334
O O4 0.182622 0.817379 0.916667
O O5 0.453075 0.453075 0.666667
O O6 0.505847 0.322000 0.655111
O O7 0.561763 0.438238 0.916667
#
# Coordination Sequence:
#
# PCOD8325966 Si02
#       3
#    12  12   6
#     4  11  24  42  63  93 126 165 214 264 316 386
#     4  11  22  41  61  87 129 165 206 258 308 375
#     4  12  24  38  66  88 126 172 208 256 322 368
#
# _framework density 19.192796000000001
#
# number of rings (size 3 to 8) (size 9 to 14) (size 15 to 20)
#    0.000    0.800    4.000    6.000    0.000    3.200 
#    3.600    0.000    0.000    0.000    5.200    0.000 
#    0.000    0.000    0.000    0.000    0.000    0.000 
#
# Total GULP energy -372011.377981 kJ/mol
# GULP energy per Si atom -12400.379266 kJ/mol
# Density = 1.914911 g / cm^3
# Si number density = 19.192796 Si / 1000 Ang^3
#
#
#
# Elastic Constant Matrix: (Units=GPa)
#
#
# Indices 1 2 3 4 5 6 
#
# 1 118.5399 63.0302 52.1792 0.0000 0.0000 0.0000
# 2 63.0302 118.5399 52.1792 0.0000 0.0000 0.0000
# 3 52.1792 52.1792 166.5543 0.0000 0.0000 0.0000
# 4 0.0000 0.0000 0.0000 33.6038 0.0000 0.0000
# 5 0.0000 0.0000 0.0000 0.0000 33.6038 0.0000
# 6 0.0000 0.0000 0.0000 0.0000 0.0000 27.7548
#
#
#
# Elastic Compliance Matrix: (Units=1/GPa)
#
#
# Indices 1 2 3 4 5 6 
#
# 1 0.012366 -0.005649 -0.002104 0.000000 0.000000 0.000000
# 2 -0.005649 0.012366 -0.002104 0.000000 0.000000 0.000000
# 3 -0.002104 -0.002104 0.007323 0.000000 0.000000 0.000000
# 4 0.000000 0.000000 0.000000 0.029759 0.000000 0.000000
# 5 0.000000 0.000000 0.000000 0.000000 0.029759 0.000000
# 6 0.000000 0.000000 0.000000 0.000000 0.000000 0.036030
#
#
# Mechanical properties :
#
#
# Convention : Reuss Voigt Hill
#
# Bulk Modulus (GPa) = 81.04257 82.04569 81.54413
# Shear Modulus (GPa) = 33.01864 34.74218 33.88041
#
# Velocity S-wave (km/s) = 4.15223 4.25922 4.20607
# Velocity P-wave (km/s) = 8.08116 8.18712 8.13431
#
# Compressibility (1/GPa) = 0.01233919
#
# Stress axis : x y z
#
# Youngs Moduli (GPa) = 80.86730 80.86730 136.56402
#
# Poissons Ratio (x) = 0.45681 0.28738
# Poissons Ratio (y) = 0.45681 0.28738
# Poissons Ratio (z) = 0.17017 0.17017
#
# Static dielectric constant tensor:
#      x y z
#    x 3.564950 0.000000 0.000000 
#    y 0.000000 3.564950 0.000000 
#    z 0.000000 0.000000 3.909610 
# 
# 
# High freq. dielectric constant tensor:
#      x y z
#    x 1.731070 0.000000 0.000000 
#    y 0.000000 1.731070 0.000000 
#    z 0.000000 0.000000 1.778600 
# 
# From -- ./inp_files/2015.got.cif
#   From: 2010.03.12/outbox.cif.g09.slc.cpg/sg178_2_cif.got.tgz:2015.got - 2010.04.02 07:02:38.
