data_PCOD8325304
_publ_section_title
;
Structure prediction by ZEFSAII (Michael W. Deem and Ramdas Pophale) SiO2 
 PCOD8325304
Probable space group: P 6/M
;
_chemical_formula_sum "Si O2"
_cell_formula_units_Z 76
_cell_length_a 18.172939
_cell_length_b 18.172939
_cell_length_c 13.892492
_cell_angle_alpha 90.000000
_cell_angle_beta 90.000000
_cell_angle_gamma 120.000000
_cell_volume 3973.389362
_symmetry_space_group_name_H-M "P 6/M"
_symmetry_group_IT_number 175
_symmetry_cell_setting 'hexagonal'
loop_
_space_group_symop_operation_xyz
x,y,z
x-y,x,z
-y,x-y,z
-x,-y,z
-x+y,-x,z
y,-x+y,z
-x,-y,-z
-x+y,-x,-z
y,-x+y,-z
x,y,-z
x-y,x,-z
-y,x-y,-z
loop_
_atom_site_type_symbol
_atom_site_label
_atom_site_fract_x
_atom_site_fract_y
_atom_site_fract_z
Si Si1 0.666667 0.333334 0.884779
Si Si2 0.717438 0.200760 0.887744
Si Si3 0.032936 0.439763 0.782514
Si Si4 0.728970 0.527314 0.389977
Si Si5 0.463746 0.605127 0.390345
Si Si6 0.062289 0.867315 0.889742
Si Si7 0.633867 0.883387 0.214886
O O1 0.683324 0.260249 0.844118
O O2 0.666667 0.333334 0.000000
O O3 0.664367 0.108208 0.844228
O O4 0.816395 0.242943 0.864373
O O5 0.704209 0.191622 0.000000
O O6 0.062586 0.469603 0.673278
O O7 0.000000 0.500000 0.828436
O O8 0.961644 0.343188 0.785209
O O9 0.737488 0.558818 0.500000
O O10 0.777338 0.474877 0.374133
O O11 0.631485 0.464741 0.360419
O O12 0.770090 0.610042 0.320850
O O13 0.482842 0.592926 0.500000
O O14 0.086181 0.816609 0.812850
O O15 0.966578 0.844495 0.870347
O O16 0.072890 0.844144 0.000000
#
# Coordination Sequence:
#
# PCOD8325304 Si02
#       7
#     4  12  12  12  12  12  12
#     4   9  21  39  57  75 106 161 211 249 288 333
#     4  11  24  41  59  83 118 160 207 255 298 354
#     4  12  24  38  59  90 120 165 204 249 304 362
#     4  10  21  38  62  91 123 163 211 257 300 349
#     4  10  21  39  62  91 125 163 210 260 303 348
#     4  10  22  42  69  95 119 150 195 254 315 375
#     4  12  23  37  60  89 125 160 197 244 310 367
#
# _framework density 19.127248000000002
#
# number of rings (size 3 to 8) (size 9 to 14) (size 15 to 20)
#    0.000    1.263    3.158    2.842    0.000    5.684 
#    0.000    0.000    0.000    0.000    0.000    0.000 
#    0.000    1.263    0.000    0.000    0.000    0.000 
#
# Total GULP energy -942625.045773 kJ/mol
# GULP energy per Si atom -12402.961129 kJ/mol
# Density = 1.908371 g / cm^3
# Si number density = 19.127248 Si / 1000 Ang^3
#
#
#
# Elastic Constant Matrix: (Units=GPa)
#
#
# Indices 1 2 3 4 5 6 
#
# 1 120.3343 49.9368 55.4388 0.0000 0.0000 0.0001
# 2 49.9368 120.3334 55.4392 0.0000 0.0000 0.0004
# 3 55.4388 55.4392 94.1158 0.0000 0.0000 -0.0001
# 4 0.0000 0.0000 0.0000 15.3464 0.0001 0.0000
# 5 0.0000 0.0000 0.0000 0.0001 15.3465 0.0000
# 6 0.0001 0.0004 -0.0001 0.0000 0.0000 35.1986
#
#
#
# Elastic Compliance Matrix: (Units=1/GPa)
#
#
# Indices 1 2 3 4 5 6 
#
# 1 0.011866 -0.002339 -0.005612 0.000000 0.000000 0.000000
# 2 -0.002339 0.011866 -0.005612 0.000000 0.000000 0.000000
# 3 -0.005612 -0.005612 0.017237 0.000000 0.000000 0.000000
# 4 0.000000 0.000000 0.000000 0.065162 0.000000 0.000000
# 5 0.000000 0.000000 0.000000 0.000000 0.065162 0.000000
# 6 0.000000 0.000000 0.000000 0.000000 0.000000 0.028410
#
#
# Mechanical properties :
#
#
# Convention : Reuss Voigt Hill
#
# Bulk Modulus (GPa) = 72.23738 72.93478 72.58608
# Shear Modulus (GPa) = 21.60345 24.77620 23.18983
#
# Velocity S-wave (km/s) = 3.36439 3.60298 3.48573
# Velocity P-wave (km/s) = 7.27605 7.45136 7.36423
#
# Compressibility (1/GPa) = 0.01384325
#
# Stress axis : x y z
#
# Youngs Moduli (GPa) = 84.27241 84.27098 58.01464
#
# Poissons Ratio (x) = 0.19709 0.32559
# Poissons Ratio (y) = 0.19709 0.32560
# Poissons Ratio (z) = 0.47295 0.47296
#
# Static dielectric constant tensor:
#      x y z
#    x 3.686800 0.000000 0.000000 
#    y 0.000000 3.686790 0.000000 
#    z 0.000000 0.000000 3.599620 
# 
# 
# High freq. dielectric constant tensor:
#      x y z
#    x 1.748680 0.000000 0.000000 
#    y 0.000000 1.748680 0.000000 
#    z 0.000000 0.000000 1.743260 
# 
# From -- ./inp_files/2536.got.cif
#   From: 2010.03.12/outbox.cif.g09.slc.cpg/sg175_2_cif.got.tgz:2536.got - 2010.04.02 06:55:29.
