data_PCOD8325853
_publ_section_title
;
Structure prediction by ZEFSAII (Michael W. Deem and Ramdas Pophale) SiO2 
 PCOD8325853
Probable space group: P 61 2 2
;
_chemical_formula_sum "Si O2"
_cell_formula_units_Z 72
_cell_length_a 14.774572
_cell_length_b 14.774572
_cell_length_c 18.310341
_cell_angle_alpha 90.000000
_cell_angle_beta 90.000000
_cell_angle_gamma 120.000000
_cell_volume 3461.440587
_symmetry_space_group_name_H-M "P 61 2 2"
_symmetry_group_IT_number 178
_symmetry_cell_setting 'hexagonal'
loop_
_space_group_symop_operation_xyz
x,y,z
x-y,x,1/6+z
-y,x-y,1/3+z
-x,-y,1/2+z
-x+y,-x,2/3+z
y,-x+y,5/6+z
x-y,-y,-z
-x,-x+y,2/3-z
y,x,1/3-z
-y,-x,5/6-z
-x+y,y,1/2-z
x,x-y,1/6-z
loop_
_atom_site_type_symbol
_atom_site_label
_atom_site_fract_x
_atom_site_fract_y
_atom_site_fract_z
Si Si1 0.616710 0.884919 0.534502
Si Si2 0.480432 0.520555 0.585826
Si Si3 0.120157 0.790163 0.491853
Si Si4 0.756120 0.479831 0.577084
Si Si5 0.447438 0.838699 0.167575
Si Si6 0.108446 0.365802 0.956133
O O1 0.677506 0.838753 0.583334
O O2 0.535414 0.890403 0.592859
O O3 0.541155 0.793334 0.479290
O O4 0.699948 0.000000 0.500000
O O5 0.519332 0.519332 0.666667
O O6 0.524762 0.478915 0.522896
O O7 0.355931 0.453604 0.588878
O O8 0.144820 0.855181 0.416667
O O9 0.177745 0.722969 0.490387
O O10 0.163364 0.861069 0.564803
O O11 0.995904 0.717885 0.497763
O O12 0.811701 0.405851 0.583334
O O13 0.641817 0.395403 0.549748
O O14 0.807632 0.572310 0.517859
O O15 0.410005 0.820009 0.250000
#
# Coordination Sequence:
#
# PCOD8325853 Si02
#       6
#    12  12  12  12  12  12
#     4  11  24  42  66  91 133 177 229 273 333 400
#     4  10  20  39  60  87 130 173 211 264 324 387
#     4  11  23  40  63  92 129 173 217 273 333 395
#     4  12  25  40  61  95 132 176 214 265 326 395
#     4  11  21  37  63  89 132 168 215 261 313 388
#     4  11  24  39  62  94 129 169 223 274 331 395
#
# _framework density 20.80059
#
# number of rings (size 3 to 8) (size 9 to 14) (size 15 to 20)
#    0.000    1.000    5.000    4.000    2.333    7.333 
#    0.000    0.000    0.000    0.000    0.000   11.667 
#    0.000    0.000    0.000    0.000    0.000    0.000 
#
# Total GULP energy -891979.525354 kJ/mol
# GULP energy per Si atom -12388.604519 kJ/mol
# Density = 2.075325 g / cm^3
# Si number density = 20.800590 Si / 1000 Ang^3
#
#
#
# Elastic Constant Matrix: (Units=GPa)
#
#
# Indices 1 2 3 4 5 6 
#
# 1 85.8516 33.1684 27.8164 0.0000 0.0000 0.0000
# 2 33.1684 85.8516 27.8164 0.0000 0.0000 0.0000
# 3 27.8164 27.8164 64.5259 0.0000 0.0000 0.0000
# 4 0.0000 0.0000 0.0000 29.5846 0.0000 0.0000
# 5 0.0000 0.0000 0.0000 0.0000 29.5846 0.0000
# 6 0.0000 0.0000 0.0000 0.0000 0.0000 26.3416
#
#
#
# Elastic Compliance Matrix: (Units=1/GPa)
#
#
# Indices 1 2 3 4 5 6 
#
# 1 0.014752 -0.004230 -0.004536 0.000000 0.000000 0.000000
# 2 -0.004230 0.014752 -0.004536 0.000000 0.000000 0.000000
# 3 -0.004536 -0.004536 0.019408 0.000000 0.000000 0.000000
# 4 0.000000 0.000000 0.000000 0.033801 0.000000 0.000000
# 5 0.000000 0.000000 0.000000 0.000000 0.033801 0.000000
# 6 0.000000 0.000000 0.000000 0.000000 0.000000 0.037963
#
#
# Mechanical properties :
#
#
# Convention : Reuss Voigt Hill
#
# Bulk Modulus (GPa) = 44.82523 45.98128 45.40325
# Shear Modulus (GPa) = 26.52281 26.93070 26.72675
#
# Velocity S-wave (km/s) = 3.57473 3.60211 3.58844
# Velocity P-wave (km/s) = 6.21570 6.28124 6.24856
#
# Compressibility (1/GPa) = 0.02230887
#
# Stress axis : x y z
#
# Youngs Moduli (GPa) = 67.78840 67.78840 51.52385
#
# Poissons Ratio (x) = 0.28672 0.23371
# Poissons Ratio (y) = 0.28672 0.23371
# Poissons Ratio (z) = 0.30749 0.30749
#
# Static dielectric constant tensor:
#      x y z
#    x 3.548140 0.000000 0.000000 
#    y 0.000000 3.548140 0.000000 
#    z 0.000000 0.000000 4.005140 
# 
# 
# High freq. dielectric constant tensor:
#      x y z
#    x 1.798900 0.000000 0.000000 
#    y 0.000000 1.798900 0.000000 
#    z 0.000000 0.000000 1.824080 
# 
# From -- ./inp_files/6781.got.cif
#   From: 2010.03.12/outbox.cif.g09.slc.cpg/sg178_4_cif.got.tgz:6781.got - 2010.04.02 07:02:38.
