data_PCOD8325610
_publ_section_title
;
Structure prediction by ZEFSAII (Michael W. Deem and Ramdas Pophale) SiO2 
 PCOD8325610
Probable space group: P 63/M
;
_chemical_formula_sum "Si O2"
_cell_formula_units_Z 68
_cell_length_a 11.085340
_cell_length_b 11.085340
_cell_length_c 35.773762
_cell_angle_alpha 90.000000
_cell_angle_beta 90.000000
_cell_angle_gamma 120.000000
_cell_volume 3807.091203
_symmetry_space_group_name_H-M "P 63/M"
_symmetry_group_IT_number 176
_symmetry_cell_setting 'hexagonal'
loop_
_space_group_symop_operation_xyz
x,y,z
x-y,x,1/2+z
-y,x-y,z
-x,-y,1/2+z
-x+y,-x,z
y,-x+y,1/2+z
-x,-y,-z
-x+y,-x,1/2-z
y,-x+y,-z
x,y,1/2-z
x-y,x,-z
-y,x-y,1/2-z
loop_
_atom_site_type_symbol
_atom_site_label
_atom_site_fract_x
_atom_site_fract_y
_atom_site_fract_z
Si Si1 0.059733 0.392726 0.792582
Si Si2 0.244383 0.756800 0.085193
Si Si3 0.676562 0.837962 0.339044
Si Si4 0.132566 0.266878 0.023574
Si Si5 0.000000 0.000000 0.431389
Si Si6 0.940120 0.333184 0.207446
Si Si7 0.000000 0.000000 0.155166
O O1 0.018639 0.339922 0.750000
O O2 0.110693 0.555193 0.795578
O O3 0.185981 0.371881 0.806589
O O4 0.926271 0.309829 0.819088
O O5 0.175100 0.588146 0.088133
O O6 0.187440 0.815514 0.117842
O O7 0.209175 0.793700 0.044289
O O8 0.615843 0.689907 0.318855
O O9 0.841586 0.919999 0.331337
O O10 0.104955 0.153845 0.054859
O O11 0.236788 0.251553 0.994453
O O12 0.000000 0.000000 0.388286
O O13 0.980932 0.321193 0.250000
#
# Coordination Sequence:
#
# PCOD8325610 Si02
#       7
#    12  12  12  12   4  12   4
#     4  10  21  37  57  81 110 149 194 237 285 339
#     4  10  23  37  53  84 113 153 188 218 282 343
#     4  12  21  38  56  84 116 148 186 241 289 333
#     4   9  18  34  61  85 108 139 180 235 276 332
#     4   9  16  34  57  88 106 130 182 223 286 319
#     4  10  21  37  57  81 110 149 194 237 285 339
#     4  12  21  31  62  88 105 142 179 235 291 334
#
# _framework density 17.861405000000001
#
# number of rings (size 3 to 8) (size 9 to 14) (size 15 to 20)
#    0.353    1.412    3.529    2.647    0.000    2.118 
#    1.059    0.000    0.000    0.000    0.000    0.000 
#    0.000    0.000    0.000    0.000    0.000    0.000 
#
# Total GULP energy -842903.404520 kJ/mol
# GULP energy per Si atom -12395.638302 kJ/mol
# Density = 1.782075 g / cm^3
# Si number density = 17.861405 Si / 1000 Ang^3
#
#
#
# Elastic Constant Matrix: (Units=GPa)
#
#
# Indices 1 2 3 4 5 6 
#
# 1 90.2870 20.5019 31.1278 0.0000 0.0000 0.0000
# 2 20.5019 90.2870 31.1278 0.0000 0.0000 0.0000
# 3 31.1278 31.1278 82.1665 0.0000 0.0000 0.0000
# 4 0.0000 0.0000 0.0000 35.3493 0.0000 0.0000
# 5 0.0000 0.0000 0.0000 0.0000 35.3493 0.0000
# 6 0.0000 0.0000 0.0000 0.0000 0.0000 34.8926
#
#
#
# Elastic Compliance Matrix: (Units=1/GPa)
#
#
# Indices 1 2 3 4 5 6 
#
# 1 0.012899 -0.001431 -0.004344 0.000000 0.000000 0.000000
# 2 -0.001431 0.012899 -0.004344 0.000000 0.000000 0.000000
# 3 -0.004344 -0.004344 0.015462 0.000000 0.000000 0.000000
# 4 0.000000 0.000000 0.000000 0.028289 0.000000 0.000000
# 5 0.000000 0.000000 0.000000 0.000000 0.028289 0.000000
# 6 0.000000 0.000000 0.000000 0.000000 0.000000 0.028659
#
#
# Mechanical properties :
#
#
# Convention : Reuss Voigt Hill
#
# Bulk Modulus (GPa) = 47.57466 47.58392 47.57929
# Shear Modulus (GPa) = 32.52191 33.11711 32.81951
#
# Velocity S-wave (km/s) = 4.27170 4.31062 4.29120
# Velocity P-wave (km/s) = 7.14305 7.17452 7.15880
#
# Compressibility (1/GPa) = 0.02101959
#
# Stress axis : x y z
#
# Youngs Moduli (GPa) = 77.52828 77.52828 64.67494
#
# Poissons Ratio (x) = 0.11096 0.28096
# Poissons Ratio (y) = 0.11096 0.28096
# Poissons Ratio (z) = 0.33680 0.33680
#
# Static dielectric constant tensor:
#      x y z
#    x 3.126960 0.000000 0.000000 
#    y 0.000000 3.126960 0.000000 
#    z 0.000000 0.000000 3.197380 
# 
# 
# High freq. dielectric constant tensor:
#      x y z
#    x 1.685690 0.000000 0.000000 
#    y 0.000000 1.685690 0.000000 
#    z 0.000000 0.000000 1.687250 
# 
# From -- ./inp_files/4496.got.cif
#   From: 2010.06.25/outbox.cif.g09.slc.cpg/sg176_3_cif.got.tgz:4496.got - 2010.06.28 12:15:01.
