data_PCOD8325632
_publ_section_title
;
Structure prediction by ZEFSAII (Michael W. Deem and Ramdas Pophale) SiO2 
 PCOD8325632
Probable space group: P 63/M
;
_chemical_formula_sum "Si O2"
_cell_formula_units_Z 66
_cell_length_a 20.473898
_cell_length_b 20.473898
_cell_length_c 8.046511
_cell_angle_alpha 90.000000
_cell_angle_beta 90.000000
_cell_angle_gamma 120.000000
_cell_volume 2921.052157
_symmetry_space_group_name_H-M "P 63/M"
_symmetry_group_IT_number 176
_symmetry_cell_setting 'hexagonal'
loop_
_space_group_symop_operation_xyz
x,y,z
x-y,x,1/2+z
-y,x-y,z
-x,-y,1/2+z
-x+y,-x,z
y,-x+y,1/2+z
-x,-y,-z
-x+y,-x,1/2-z
y,-x+y,-z
x,y,1/2-z
x-y,x,-z
-y,x-y,1/2-z
loop_
_atom_site_type_symbol
_atom_site_label
_atom_site_fract_x
_atom_site_fract_y
_atom_site_fract_z
Si Si1 0.168593 0.074671 0.442537
Si Si2 0.841742 0.401712 0.937562
Si Si3 0.337033 0.144928 0.441329
Si Si4 0.310178 0.877440 0.058227
Si Si5 0.407780 0.047433 0.448045
Si Si6 0.249111 0.662916 0.750000
O O1 0.168859 0.056098 0.250000
O O2 0.127806 0.123497 0.462856
O O3 0.254358 0.121163 0.516130
O O4 0.810824 0.373092 0.750000
O O5 0.841268 0.478421 0.973414
O O6 0.924705 0.412197 0.958226
O O7 0.792793 0.339394 0.078313
O O8 0.324642 0.124669 0.250000
O O9 0.398703 0.232358 0.460702
O O10 0.370386 0.095209 0.518966
O O11 0.289478 0.874504 0.250000
O O12 0.353760 0.962642 0.993714
O O13 0.421164 0.054238 0.250000
O O14 0.260577 0.589767 0.750000
#
# Coordination Sequence:
#
# PCOD8325632 Si02
#       6
#    12  12  12  12  12   6
#     4  11  23  41  63  92 125 167 210 261 315 380
#     4  11  24  41  67  98 126 168 220 263 316 386
#     4  10  23  38  63  91 124 165 211 258 323 382
#     4  10  23  40  62  92 126 166 211 265 317 375
#     4  10  21  41  64  88 126 171 209 259 325 381
#     4  10  26  44  66  92 132 172 204 262 330 368
#
# _framework density 22.594598999999999
#
# number of rings (size 3 to 8) (size 9 to 14) (size 15 to 20)
#    0.182    1.455    0.909    2.364    3.818    5.091 
#    0.000    0.000    0.000    0.000    0.000    0.000 
#    0.000    0.000    0.000    0.000    0.000    0.000 
#
# Total GULP energy -818269.263422 kJ/mol
# GULP energy per Si atom -12398.019143 kJ/mol
# Density = 2.254317 g / cm^3
# Si number density = 22.594599 Si / 1000 Ang^3
#
#
#
# Elastic Constant Matrix: (Units=GPa)
#
#
# Indices 1 2 3 4 5 6 
#
# 1 52.6212 -28.0103 13.8421 0.0000 0.0000 0.0000
# 2 -28.0103 52.6212 13.8421 0.0000 0.0000 0.0000
# 3 13.8421 13.8421 80.8283 0.0000 0.0000 0.0000
# 4 0.0000 0.0000 0.0000 19.7665 0.0000 0.0000
# 5 0.0000 0.0000 0.0000 0.0000 19.7665 0.0000
# 6 0.0000 0.0000 0.0000 0.0000 0.0000 40.3157
#
#
#
# Elastic Compliance Matrix: (Units=1/GPa)
#
#
# Indices 1 2 3 4 5 6 
#
# 1 0.031365 0.018963 -0.008619 0.000000 0.000000 0.000000
# 2 0.018963 0.031365 -0.008619 0.000000 0.000000 0.000000
# 3 -0.008619 -0.008619 0.015324 0.000000 0.000000 0.000000
# 4 0.000000 0.000000 0.000000 0.050591 0.000000 0.000000
# 5 0.000000 0.000000 0.000000 0.000000 0.050591 0.000000
# 6 0.000000 0.000000 0.000000 0.000000 0.000000 0.024804
#
#
# Mechanical properties :
#
#
# Convention : Reuss Voigt Hill
#
# Bulk Modulus (GPa) = 12.26937 20.60207 16.43572
# Shear Modulus (GPa) = 21.95327 28.39619 25.17473
#
# Velocity S-wave (km/s) = 3.12046 3.54894 3.34157
# Velocity P-wave (km/s) = 4.29244 5.09227 4.70937
#
# Compressibility (1/GPa) = 0.08150380
#
# Stress axis : x y z
#
# Youngs Moduli (GPa) = 31.88287 31.88287 65.25757
#
# Poissons Ratio (x) = -0.60458 0.56244
# Poissons Ratio (y) = -0.60458 0.56244
# Poissons Ratio (z) = 0.27479 0.27479
#
# Static dielectric constant tensor:
#      x y z
#    x 4.070740 0.000000 0.000000 
#    y 0.000000 4.070740 0.000000 
#    z 0.000000 0.000000 3.811280 
# 
# 
# High freq. dielectric constant tensor:
#      x y z
#    x 1.896010 0.000000 0.000000 
#    y 0.000000 1.896010 0.000000 
#    z 0.000000 0.000000 1.877390 
# 
# From -- ./inp_files/997.got.cif
#   From: 2010.06.25/outbox.cif.g09.slc.cpg/sg176_1_cif.got.tgz:997.got - 2010.06.28 12:15:01.
