data_PCOD8325392
_publ_section_title
;
Structure prediction by ZEFSAII (Michael W. Deem and Ramdas Pophale) SiO2 
 PCOD8325392
Probable space group: P 6/M
;
_chemical_formula_sum "Si O2"
_cell_formula_units_Z 96
_cell_length_a 26.849764
_cell_length_b 26.849764
_cell_length_c 9.650869
_cell_angle_alpha 90.000000
_cell_angle_beta 90.000000
_cell_angle_gamma 120.000000
_cell_volume 6025.290600
_symmetry_space_group_name_H-M "P 6/M"
_symmetry_group_IT_number 175
_symmetry_cell_setting 'hexagonal'
loop_
_space_group_symop_operation_xyz
x,y,z
x-y,x,z
-y,x-y,z
-x,-y,z
-x+y,-x,z
y,-x+y,z
-x,-y,-z
-x+y,-x,-z
y,-x+y,-z
x,y,-z
x-y,x,-z
-y,x-y,-z
loop_
_atom_site_type_symbol
_atom_site_label
_atom_site_fract_x
_atom_site_fract_y
_atom_site_fract_z
Si Si1 0.323222 0.064656 0.335670
Si Si2 0.555584 0.719908 0.339969
Si Si3 0.258408 0.129204 0.334538
Si Si4 0.935344 0.676778 0.664330
Si Si5 0.552276 0.218729 0.160610
Si Si6 0.871094 0.935547 0.665227
Si Si7 0.552276 0.333546 0.839390
Si Si8 0.719908 0.555584 0.339969
O O1 0.317168 0.061851 0.500000
O O2 0.288660 0.094690 0.275163
O O3 0.390034 0.103701 0.293923
O O4 0.297021 1.000000 0.274899
O O5 0.539946 0.703277 0.500000
O O6 0.609966 0.713668 0.293923
O O7 0.501982 0.675103 0.248852
O O8 0.570692 0.785346 0.313417
O O9 0.261419 0.130710 0.500000
O O10 0.288660 0.193970 0.275163
O O11 0.193612 0.096806 0.278936
O O12 0.938148 0.682832 0.500000
O O13 0.566502 0.283251 0.192649
O O14 0.606958 0.213915 0.206658
O O15 0.498018 0.173120 0.248852
O O16 0.537629 0.203543 0.000000
O O17 0.903194 0.903194 0.723887
O O18 0.871687 0.935844 0.500000
O O19 0.537629 0.334086 0.000000
O O20 0.703277 0.539946 0.500000
#
# Coordination Sequence:
#
# PCOD8325392 Si02
#       8
#    12  12  12  12  12  12  12  12
#     4   9  15  23  37  56  79 107 138 176 221 262
#     4   9  16  27  42  62  88 114 142 178 217 254
#     4   9  14  21  32  49  71  97 135 181 224 262
#     4   9  15  23  37  56  79 107 138 176 221 262
#     4   9  17  29  46  67  90 115 141 169 204 249
#     4   9  15  20  25  36  60  97 139 179 218 262
#     4   9  17  29  46  67  90 115 141 169 204 249
#     4   9  16  27  42  62  88 114 142 178 217 254
#
# _framework density 15.932841
#
# number of rings (size 3 to 8) (size 9 to 14) (size 15 to 20)
#    0.000    3.000    1.250    1.125    0.000    5.000 
#    0.000    0.000    0.000    3.000    0.000    5.250 
#    0.000    0.000    0.000    0.000    0.000    0.000 
#
# Total GULP energy -1190144.117966 kJ/mol
# GULP energy per Si atom -12397.334562 kJ/mol
# Density = 1.589658 g / cm^3
# Si number density = 15.932841 Si / 1000 Ang^3
#
#
#
# Elastic Constant Matrix: (Units=GPa)
#
#
# Indices 1 2 3 4 5 6 
#
# 1 141.9784 81.6699 36.0118 0.0000 0.0000 0.0000
# 2 81.6699 141.9784 36.0118 0.0000 0.0000 0.0000
# 3 36.0118 36.0118 25.4339 0.0000 0.0000 0.0000
# 4 0.0000 0.0000 0.0000 8.4844 0.0000 0.0000
# 5 0.0000 0.0000 0.0000 0.0000 8.4844 0.0000
# 6 0.0000 0.0000 0.0000 0.0000 0.0000 30.1542
#
#
#
# Elastic Compliance Matrix: (Units=1/GPa)
#
#
# Indices 1 2 3 4 5 6 
#
# 1 0.012400 -0.004181 -0.011637 0.000000 0.000000 0.000000
# 2 -0.004181 0.012400 -0.011637 0.000000 0.000000 0.000000
# 3 -0.011637 -0.011637 0.072272 0.000000 0.000000 0.000000
# 4 0.000000 0.000000 0.000000 0.117864 0.000000 0.000000
# 5 0.000000 0.000000 0.000000 0.000000 0.117864 0.000000
# 6 0.000000 0.000000 0.000000 0.000000 0.000000 0.033163
#
#
# Mechanical properties :
#
#
# Convention : Reuss Voigt Hill
#
# Bulk Modulus (GPa) = 23.71860 68.53086 46.12473
# Shear Modulus (GPa) = 11.49615 19.80439 15.65027
#
# Velocity S-wave (km/s) = 2.68906 3.52943 3.13751
# Velocity P-wave (km/s) = 4.95584 7.72754 6.49135
#
# Compressibility (1/GPa) = 0.04216100
#
# Stress axis : x y z
#
# Youngs Moduli (GPa) = 80.64392 80.64392 13.83662
#
# Poissons Ratio (x) = 0.33719 0.16102
# Poissons Ratio (y) = 0.33719 0.16102
# Poissons Ratio (z) = 0.93847 0.93847
#
# Static dielectric constant tensor:
#      x y z
#    x 3.119000 0.000000 0.000000 
#    y 0.000000 3.119000 0.000000 
#    z 0.000000 0.000000 2.535030 
# 
# 
# High freq. dielectric constant tensor:
#      x y z
#    x 1.611870 0.000000 0.000000 
#    y 0.000000 1.611870 0.000000 
#    z 0.000000 0.000000 1.552950 
# 
# From -- ./inp_files/2141.got.cif
#   From: 2010.03.12/outbox.cif.g09.slc.cpg/sg175_2_cif.got.tgz:2141.got - 2010.04.02 06:55:29.
