data_PCOD8325915
_publ_section_title
;
Structure prediction by ZEFSAII (Michael W. Deem and Ramdas Pophale) SiO2 
 PCOD8325915
Probable space group: P 61 2 2
;
_chemical_formula_sum "Si O2"
_cell_formula_units_Z 84
_cell_length_a 17.909866
_cell_length_b 17.909866
_cell_length_c 14.549878
_cell_angle_alpha 90.000000
_cell_angle_beta 90.000000
_cell_angle_gamma 120.000000
_cell_volume 4041.798483
_symmetry_space_group_name_H-M "P 61 2 2"
_symmetry_group_IT_number 178
_symmetry_cell_setting 'hexagonal'
loop_
_space_group_symop_operation_xyz
x,y,z
x-y,x,1/6+z
-y,x-y,1/3+z
-x,-y,1/2+z
-x+y,-x,2/3+z
y,-x+y,5/6+z
x-y,-y,-z
-x,-x+y,2/3-z
y,x,1/3-z
-y,-x,5/6-z
-x+y,y,1/2-z
x,x-y,1/6-z
loop_
_atom_site_type_symbol
_atom_site_label
_atom_site_fract_x
_atom_site_fract_y
_atom_site_fract_z
Si Si1 0.450466 0.591595 0.314266
Si Si2 0.199329 0.862380 0.083316
Si Si3 0.420458 0.345375 0.104923
Si Si4 0.371235 0.362621 0.567524
Si Si5 0.013624 0.293215 0.116713
Si Si6 0.655403 0.470592 0.294123
Si Si7 0.228941 0.709082 0.661026
O O1 0.442817 0.557184 0.416667
O O2 0.376756 0.520076 0.247536
O O3 0.545736 0.621350 0.280405
O O4 0.430704 0.669415 0.308381
O O5 0.098049 0.815122 0.059540
O O6 0.225180 0.796808 0.128411
O O7 0.216889 0.939190 0.154642
O O8 0.253354 0.891562 0.988317
O O9 0.418846 0.418846 0.166667
O O10 0.380706 0.342267 0.004654
O O11 0.324998 0.324998 0.666667
O O12 0.317060 0.296867 0.485339
O O13 0.465916 0.374760 0.579314
O O14 0.744462 0.488923 0.250000
O O15 0.670068 0.492832 0.401408
O O16 0.579441 0.372491 0.273720
#
# Coordination Sequence:
#
# PCOD8325915 Si02
#       7
#    12  12  12  12  12  12  12
#     4  12  23  40  61  89 124 172 231 270 326 383
#     4  11  23  43  66  95 129 169 210 275 337 401
#     4  10  23  38  66  93 127 171 215 275 324 392
#     4  12  25  39  64  87 123 172 228 271 328 389
#     4  11  23  44  65  96 129 167 216 268 333 399
#     4  11  26  41  58  84 127 173 228 273 328 386
#     4  11  24  39  59  87 126 170 223 280 323 384
#
# _framework density 20.782827000000001
#
# number of rings (size 3 to 8) (size 9 to 14) (size 15 to 20)
#    0.000    0.857    4.286    2.143   10.000    0.000 
#    2.571    0.000    0.000    0.000    0.000    0.000 
#    0.000   35.429    0.000    0.000    0.000    0.000 
#
# Total GULP energy -1041366.003065 kJ/mol
# GULP energy per Si atom -12397.214322 kJ/mol
# Density = 2.073552 g / cm^3
# Si number density = 20.782827 Si / 1000 Ang^3
#
#
#
# Elastic Constant Matrix: (Units=GPa)
#
#
# Indices 1 2 3 4 5 6 
#
# 1 95.7878 34.6681 29.5059 0.0000 0.0000 0.0000
# 2 34.6681 95.7878 29.5059 0.0000 0.0000 0.0000
# 3 29.5059 29.5059 129.0405 0.0000 0.0000 0.0000
# 4 0.0000 0.0000 0.0000 25.5626 0.0000 0.0000
# 5 0.0000 0.0000 0.0000 0.0000 25.5626 0.0000
# 6 0.0000 0.0000 0.0000 0.0000 0.0000 30.5599
#
#
#
# Elastic Compliance Matrix: (Units=1/GPa)
#
#
# Indices 1 2 3 4 5 6 
#
# 1 0.012456 -0.003906 -0.001955 0.000000 0.000000 0.000000
# 2 -0.003906 0.012456 -0.001955 0.000000 0.000000 0.000000
# 3 -0.001955 -0.001955 0.008644 0.000000 0.000000 0.000000
# 4 0.000000 0.000000 0.000000 0.039120 0.000000 0.000000
# 5 0.000000 0.000000 0.000000 0.000000 0.039120 0.000000
# 6 0.000000 0.000000 0.000000 0.000000 0.000000 0.032723
#
#
# Mechanical properties :
#
#
# Convention : Reuss Voigt Hill
#
# Bulk Modulus (GPa) = 55.79354 56.44175 56.11764
# Shear Modulus (GPa) = 30.09830 31.46610 30.78220
#
# Velocity S-wave (km/s) = 3.80969 3.89529 3.85273
# Velocity P-wave (km/s) = 6.80117 6.88824 6.84485
#
# Compressibility (1/GPa) = 0.01792322
#
# Stress axis : x y z
#
# Youngs Moduli (GPa) = 80.28560 80.28560 115.69350
#
# Poissons Ratio (x) = 0.31358 0.22617
# Poissons Ratio (y) = 0.31358 0.22617
# Poissons Ratio (z) = 0.15695 0.15695
#
# Static dielectric constant tensor:
#      x y z
#    x 3.647430 0.000000 0.000000 
#    y 0.000000 3.647430 0.000000 
#    z 0.000000 0.000000 4.187370 
# 
# 
# High freq. dielectric constant tensor:
#      x y z
#    x 1.788410 0.000000 0.000000 
#    y 0.000000 1.788410 0.000000 
#    z 0.000000 0.000000 1.840400 
# 
# From -- ./inp_files/6035.got.cif
#   From: 2010.03.12/outbox.cif.g09.slc.cpg/sg178_4_cif.got.tgz:6035.got - 2010.04.02 07:02:38.
