data_PCOD8325881
_publ_section_title
;
Structure prediction by ZEFSAII (Michael W. Deem and Ramdas Pophale) SiO2 
 PCOD8325881
Probable space group: P 61 2 2
;
_chemical_formula_sum "Si O2"
_cell_formula_units_Z 48
_cell_length_a 13.457221
_cell_length_b 13.457221
_cell_length_c 12.505377
_cell_angle_alpha 90.000000
_cell_angle_beta 90.000000
_cell_angle_gamma 120.000000
_cell_volume 1961.273634
_symmetry_space_group_name_H-M "P 61 2 2"
_symmetry_group_IT_number 178
_symmetry_cell_setting 'hexagonal'
loop_
_space_group_symop_operation_xyz
x,y,z
x-y,x,1/6+z
-y,x-y,1/3+z
-x,-y,1/2+z
-x+y,-x,2/3+z
y,-x+y,5/6+z
x-y,-y,-z
-x,-x+y,2/3-z
y,x,1/3-z
-y,-x,5/6-z
-x+y,y,1/2-z
x,x-y,1/6-z
loop_
_atom_site_type_symbol
_atom_site_label
_atom_site_fract_x
_atom_site_fract_y
_atom_site_fract_z
Si Si1 0.206794 0.492423 0.466919
Si Si2 0.093032 0.186064 0.750000
Si Si3 0.690367 0.745118 0.390555
Si Si4 0.488816 0.977631 0.250000
Si Si5 0.394759 0.697380 0.583334
Si Si6 0.802767 0.901384 0.583334
O O1 0.172948 0.358797 0.487789
O O2 0.101913 0.513827 0.487030
O O3 0.314147 0.567899 0.543927
O O4 0.228114 0.521210 0.343056
O O5 0.102108 0.102108 0.666667
O O6 0.215417 0.258508 0.811823
O O7 0.571800 0.622486 0.385945
O O8 0.731369 0.785889 0.512347
O O9 0.882260 0.882260 0.666667
#
# Coordination Sequence:
#
# PCOD8325881 Si02
#       6
#    12   6  12   6   6   6
#     4  10  21  40  65  97 139 184 232 289 352 422
#     4  12  28  49  72 102 140 188 244 303 362 424
#     4  12  27  46  72 106 143 187 240 295 357 427
#     4  11  24  44  70 104 142 186 236 293 356 428
#     4   9  19  38  65  96 137 186 229 281 354 428
#     4  12  27  49  77 108 143 188 239 295 358 426
#
# _framework density 24.473890999999998
#
# number of rings (size 3 to 8) (size 9 to 14) (size 15 to 20)
#    0.000    1.000    0.000    6.750    0.000   11.000 
#    0.000    6.250    0.000    0.000    0.000    0.000 
#    0.000    0.000    0.000    0.000    0.000    0.000 
#
# Total GULP energy -594627.403664 kJ/mol
# GULP energy per Si atom -12388.070910 kJ/mol
# Density = 2.441819 g / cm^3
# Si number density = 24.473891 Si / 1000 Ang^3
#
#
#
# Elastic Constant Matrix: (Units=GPa)
#
#
# Indices 1 2 3 4 5 6 
#
# 1 128.1904 56.7226 71.7133 0.0000 0.0000 0.0000
# 2 56.7226 128.1904 71.7133 0.0000 0.0000 0.0000
# 3 71.7133 71.7133 131.3362 0.0000 0.0000 0.0000
# 4 0.0000 0.0000 0.0000 30.4052 0.0000 0.0000
# 5 0.0000 0.0000 0.0000 0.0000 30.4052 0.0000
# 6 0.0000 0.0000 0.0000 0.0000 0.0000 35.7339
#
#
#
# Elastic Compliance Matrix: (Units=1/GPa)
#
#
# Indices 1 2 3 4 5 6 
#
# 1 0.011687 -0.002306 -0.005122 0.000000 0.000000 0.000000
# 2 -0.002306 0.011687 -0.005122 0.000000 0.000000 0.000000
# 3 -0.005122 -0.005122 0.013208 0.000000 0.000000 0.000000
# 4 0.000000 0.000000 0.000000 0.032889 0.000000 0.000000
# 5 0.000000 0.000000 0.000000 0.000000 0.032889 0.000000
# 6 0.000000 0.000000 0.000000 0.000000 0.000000 0.027985
#
#
# Mechanical properties :
#
#
# Convention : Reuss Voigt Hill
#
# Bulk Modulus (GPa) = 87.10252 87.55729 87.32991
# Shear Modulus (GPa) = 31.39293 31.81339 31.60316
#
# Velocity S-wave (km/s) = 3.58538 3.60931 3.59737
# Velocity P-wave (km/s) = 7.26685 7.29541 7.28114
#
# Compressibility (1/GPa) = 0.01148072
#
# Stress axis : x y z
#
# Youngs Moduli (GPa) = 85.56755 85.56755 75.71220
#
# Poissons Ratio (x) = 0.19729 0.38782
# Poissons Ratio (y) = 0.19729 0.38782
# Poissons Ratio (z) = 0.43830 0.43830
#
# Static dielectric constant tensor:
#      x y z
#    x 4.734590 0.000000 0.000000 
#    y 0.000000 4.734590 0.000000 
#    z 0.000000 0.000000 5.989800 
# 
# 
# High freq. dielectric constant tensor:
#      x y z
#    x 1.984420 0.000000 0.000000 
#    y 0.000000 1.984420 0.000000 
#    z 0.000000 0.000000 1.971690 
# 
# From -- ./inp_files/4223.got.cif
#   From: 2010.03.12/outbox.cif.g09.slc.cpg/sg178_3_cif.got.tgz:4223.got - 2010.04.02 07:02:38.
