data_PCOD8325687
_publ_section_title
;
Structure prediction by ZEFSAII (Michael W. Deem and Ramdas Pophale) SiO2 
 PCOD8325687
Probable space group: P 63/M
;
_chemical_formula_sum "Si O2"
_cell_formula_units_Z 38
_cell_length_a 11.480912
_cell_length_b 11.480912
_cell_length_c 17.035993
_cell_angle_alpha 90.000000
_cell_angle_beta 90.000000
_cell_angle_gamma 120.000000
_cell_volume 1944.692149
_symmetry_space_group_name_H-M "P 63/M"
_symmetry_group_IT_number 176
_symmetry_cell_setting 'hexagonal'
loop_
_space_group_symop_operation_xyz
x,y,z
x-y,x,1/2+z
-y,x-y,z
-x,-y,1/2+z
-x+y,-x,z
y,-x+y,1/2+z
-x,-y,-z
-x+y,-x,1/2-z
y,-x+y,-z
x,y,1/2-z
x-y,x,-z
-y,x-y,1/2-z
loop_
_atom_site_type_symbol
_atom_site_label
_atom_site_fract_x
_atom_site_fract_y
_atom_site_fract_z
Si Si1 0.888231 0.830942 0.750000
Si Si2 0.576732 0.929455 0.963205
Si Si3 0.666668 0.333335 0.874313
Si Si4 0.810916 0.177869 0.613003
Si Si5 0.666668 0.333335 0.438238
O O1 0.826727 0.742535 0.672390
O O2 0.849090 0.948365 0.750000
O O3 0.470157 0.799925 0.911849
O O4 0.691157 0.027501 0.903878
O O5 0.643380 0.887688 0.032475
O O6 0.500000 0.000000 0.000000
O O7 0.512897 0.250819 0.845311
O O8 0.666668 0.333334 0.967816
#
# Coordination Sequence:
#
# PCOD8325687 Si02
#       5
#     6  12   4  12   4
#     4  10  28  46  52  84 132 168 208 258 298 392
#     4  11  19  36  63  95 122 151 205 265 306 379
#     4   9  18  37  61  96 112 151 208 257 301 373
#     4  11  22  39  64  89 125 164 207 257 324 360
#     4   9  18  33  55  98 124 141 196 263 313 342
#
# _framework density 19.540365999999999
#
# number of rings (size 3 to 8) (size 9 to 14) (size 15 to 20)
#    0.316    1.263    9.474    0.000    4.421    1.263 
#    0.000    1.579    0.000    0.000    0.000    0.000 
#    0.000    0.000    0.000    0.000    0.000    0.000 
#
# Total GULP energy -471113.617800 kJ/mol
# GULP energy per Si atom -12397.726784 kJ/mol
# Density = 1.949589 g / cm^3
# Si number density = 19.540366 Si / 1000 Ang^3
#
#
#
# Elastic Constant Matrix: (Units=GPa)
#
#
# Indices 1 2 3 4 5 6 
#
# 1 92.0848 11.2081 13.0539 0.0000 0.0000 -0.0009
# 2 11.2081 92.0847 13.0527 0.0000 0.0000 -0.0013
# 3 13.0539 13.0527 27.5083 0.0000 0.0000 -0.0002
# 4 0.0000 0.0000 0.0000 24.7378 0.0001 0.0000
# 5 0.0000 0.0000 0.0000 0.0001 24.7384 0.0000
# 6 -0.0009 -0.0013 -0.0002 0.0000 0.0000 40.4380
#
#
#
# Elastic Compliance Matrix: (Units=1/GPa)
#
#
# Indices 1 2 3 4 5 6 
#
# 1 0.011683 -0.000682 -0.005220 0.000000 0.000000 0.000000
# 2 -0.000682 0.011682 -0.005220 0.000000 0.000000 0.000000
# 3 -0.005220 -0.005220 0.041307 0.000000 0.000000 0.000000
# 4 0.000000 0.000000 0.000000 0.040424 0.000000 0.000000
# 5 0.000000 0.000000 0.000000 0.000000 0.040423 0.000000
# 6 0.000000 0.000000 0.000000 0.000000 0.000000 0.024729
#
#
# Mechanical properties :
#
#
# Convention : Reuss Voigt Hill
#
# Bulk Modulus (GPa) = 23.56951 31.81192 27.69072
# Shear Modulus (GPa) = 24.19733 29.60705 26.90219
#
# Velocity S-wave (km/s) = 3.52280 3.89675 3.71448
# Velocity P-wave (km/s) = 5.35117 6.04662 5.70949
#
# Compressibility (1/GPa) = 0.04242769
#
# Stress axis : x y z
#
# Youngs Moduli (GPa) = 85.59741 85.59846 24.20919
#
# Poissons Ratio (x) = 0.05838 0.12638
# Poissons Ratio (y) = 0.05838 0.12636
# Poissons Ratio (z) = 0.44684 0.44680
#
# Static dielectric constant tensor:
#      x y z
#    x 4.153050 0.000020 0.000000 
#    y 0.000020 4.153030 0.000000 
#    z 0.000000 0.000000 3.066530 
# 
# 
# High freq. dielectric constant tensor:
#      x y z
#    x 1.771940 0.000000 0.000000 
#    y 0.000000 1.771930 0.000000 
#    z 0.000000 0.000000 1.708940 
# 
# From -- ./inp_files/3152.got.cif
#   From: 2010.06.25/outbox.cif.g09.slc.cpg/sg176_2_cif.got.tgz:3152.got - 2010.06.28 12:15:01.
