data_PCOD8325147
_publ_section_title
;
Structure prediction by ZEFSAII (Michael W. Deem and Ramdas Pophale) SiO2 
 PCOD8325147
Probable space group: P 6/M
;
_chemical_formula_sum "Si O2"
_cell_formula_units_Z 72
_cell_length_a 22.823717
_cell_length_b 22.823717
_cell_length_c 8.654274
_cell_angle_alpha 90.000000
_cell_angle_beta 90.000000
_cell_angle_gamma 120.000000
_cell_volume 3904.217648
_symmetry_space_group_name_H-M "P 6/M"
_symmetry_group_IT_number 175
_symmetry_cell_setting 'hexagonal'
loop_
_space_group_symop_operation_xyz
x,y,z
x-y,x,z
-y,x-y,z
-x,-y,z
-x+y,-x,z
y,-x+y,z
-x,-y,-z
-x+y,-x,-z
y,-x+y,-z
x,y,-z
x-y,x,-z
-y,x-y,-z
loop_
_atom_site_type_symbol
_atom_site_label
_atom_site_fract_x
_atom_site_fract_y
_atom_site_fract_z
Si Si1 0.667217 0.202120 0.817332
Si Si2 0.199233 0.666784 0.816545
Si Si3 0.338464 0.932139 0.817180
Si Si4 0.594648 0.925768 0.318191
Si Si5 0.274936 0.203285 0.182204
Si Si6 0.279634 0.076645 0.184225
O O1 0.606609 0.214181 0.766930
O O2 0.738068 0.263112 0.754044
O O3 0.653384 0.129764 0.753608
O O4 0.672971 0.201797 0.000000
O O5 0.130761 0.651319 0.733170
O O6 0.189838 0.667944 0.000000
O O7 0.263437 0.915114 0.768910
O O8 0.393595 0.001618 0.737407
O O9 0.349481 0.942099 0.000000
O O10 0.602146 0.926397 0.500000
O O11 0.647829 0.907978 0.242579
O O12 0.263095 0.132727 0.253162
O O13 0.218106 0.220799 0.241785
O O14 0.270285 0.195801 0.000000
O O15 0.283837 0.079201 0.000000
#
# Coordination Sequence:
#
# PCOD8325147 Si02
#       6
#    12  12  12  12  12  12
#     4   9  18  32  56  81  99 124 164 203 240 285
#     4  10  19  35  56  78 101 127 160 202 241 286
#     4   9  17  32  51  73  97 127 162 199 241 288
#     4  11  22  34  48  72 100 130 163 201 248 293
#     4   8  14  25  47  72  95 123 159 197 239 285
#     4   9  16  30  50  72  96 127 163 202 242 289
#
# _framework density 18.441595
#
# number of rings (size 3 to 8) (size 9 to 14) (size 15 to 20)
#    0.000    2.667    0.000    3.833    0.000    4.667 
#    0.000   12.500    0.000    0.333    0.000    2.333 
#    0.000    0.000    0.000    6.000    0.000    6.667 
#
# Total GULP energy -892575.862216 kJ/mol
# GULP energy per Si atom -12396.886975 kJ/mol
# Density = 1.839962 g / cm^3
# Si number density = 18.441595 Si / 1000 Ang^3
#
#
#
# Elastic Constant Matrix: (Units=GPa)
#
#
# Indices 1 2 3 4 5 6 
#
# 1 127.5883 66.6123 16.4679 0.0000 0.0000 0.0000
# 2 66.6123 127.5883 16.4679 0.0000 0.0000 0.0000
# 3 16.4679 16.4679 28.9504 0.0000 0.0000 0.0000
# 4 0.0000 0.0000 0.0000 3.9983 0.0000 0.0000
# 5 0.0000 0.0000 0.0000 0.0000 3.9983 0.0000
# 6 0.0000 0.0000 0.0000 0.0000 0.0000 30.4880
#
#
#
# Elastic Compliance Matrix: (Units=1/GPa)
#
#
# Indices 1 2 3 4 5 6 
#
# 1 0.011050 -0.005350 -0.003242 0.000000 0.000000 0.000000
# 2 -0.005350 0.011050 -0.003242 0.000000 0.000000 0.000000
# 3 -0.003242 -0.003242 0.038230 0.000000 0.000000 0.000000
# 4 0.000000 0.000000 0.000000 0.250108 0.000000 0.000000
# 5 0.000000 0.000000 0.000000 0.000000 0.250108 0.000000
# 6 0.000000 0.000000 0.000000 0.000000 0.000000 0.032800
#
#
# Mechanical properties :
#
#
# Convention : Reuss Voigt Hill
#
# Bulk Modulus (GPa) = 27.27705 53.69147 40.48426
# Shear Modulus (GPa) = 7.94619 20.00218 13.97418
#
# Velocity S-wave (km/s) = 2.07803 3.29693 2.75572
# Velocity P-wave (km/s) = 4.53660 6.60837 5.66795
#
# Compressibility (1/GPa) = 0.03666086
#
# Stress axis : x y z
#
# Youngs Moduli (GPa) = 90.50182 90.50182 26.15748
#
# Poissons Ratio (x) = 0.48422 0.08480
# Poissons Ratio (y) = 0.48422 0.08480
# Poissons Ratio (z) = 0.29339 0.29339
#
# Static dielectric constant tensor:
#      x y z
#    x 3.664400 0.000000 0.000000 
#    y 0.000000 3.664400 0.000000 
#    z 0.000000 0.000000 2.958980 
# 
# 
# High freq. dielectric constant tensor:
#      x y z
#    x 1.718930 0.000000 0.000000 
#    y 0.000000 1.718930 0.000000 
#    z 0.000000 0.000000 1.669540 
# 
# From -- ./inp_files/1194.got.cif
#   From: 2010.03.12/outbox.cif.g09.slc.cpg/sg175_1_cif.got.tgz:1194.got - 2010.04.02 06:55:29.
