data_PCOD8325168
_publ_section_title
;
Structure prediction by ZEFSAII (Michael W. Deem and Ramdas Pophale) SiO2 
 PCOD8325168
Probable space group: P 6/M
;
_chemical_formula_sum "Si O2"
_cell_formula_units_Z 54
_cell_length_a 20.873208
_cell_length_b 20.873208
_cell_length_c 9.190312
_cell_angle_alpha 90.000000
_cell_angle_beta 90.000000
_cell_angle_gamma 120.000000
_cell_volume 3467.682197
_symmetry_space_group_name_H-M "P 6/M"
_symmetry_group_IT_number 175
_symmetry_cell_setting 'hexagonal'
loop_
_space_group_symop_operation_xyz
x,y,z
x-y,x,z
-y,x-y,z
-x,-y,z
-x+y,-x,z
y,-x+y,z
-x,-y,-z
-x+y,-x,-z
y,-x+y,-z
x,y,-z
x-y,x,-z
-y,x-y,-z
loop_
_atom_site_type_symbol
_atom_site_label
_atom_site_fract_x
_atom_site_fract_y
_atom_site_fract_z
Si Si1 0.359910 0.992212 0.340035
Si Si2 0.585438 0.428173 0.160013
Si Si3 0.000000 0.500000 0.250034
Si Si4 0.159852 0.712569 0.328019
Si Si5 0.847141 0.561814 0.827882
O O1 0.322413 0.976709 0.500000
O O2 0.434235 0.987765 0.356600
O O3 0.306282 0.929406 0.226419
O O4 0.384947 0.075616 0.287339
O O5 0.545097 0.476172 0.143429
O O6 0.653527 0.469841 0.271487
O O7 0.523058 0.346438 0.213891
O O8 0.615945 0.424007 0.000000
O O9 0.172495 0.719296 0.500000
O O10 0.209782 0.790585 0.250866
O O11 0.845050 0.570902 0.000000
#
# Coordination Sequence:
#
# PCOD8325168 Si02
#       5
#    12  12   6  12  12
#     4   9  17  29  46  66  87 112 144 182 221 263
#     4   9  17  29  44  62  83 109 141 178 219 262
#     4   8  14  24  44  66  82 104 136 176 214 254
#     4  10  20  32  47  66  88 116 148 185 226 267
#     4  10  20  32  47  66  88 117 148 184 225 267
#
# _framework density 15.572361000000001
#
# number of rings (size 3 to 8) (size 9 to 14) (size 15 to 20)
#    0.000    2.667    0.000    2.000    0.000   12.444 
#    1.333    0.000    0.000    0.000    0.000    0.000 
#    0.000    0.000    0.000    0.667    0.000   12.889 
#
# Total GULP energy -669061.334382 kJ/mol
# GULP energy per Si atom -12390.024711 kJ/mol
# Density = 1.553692 g / cm^3
# Si number density = 15.572361 Si / 1000 Ang^3
#
#
#
# Elastic Constant Matrix: (Units=GPa)
#
#
# Indices 1 2 3 4 5 6 
#
# 1 80.1426 38.3793 45.0048 0.0000 0.0000 0.0000
# 2 38.3793 80.1426 45.0048 0.0000 0.0000 0.0000
# 3 45.0048 45.0048 95.2400 0.0000 0.0000 0.0000
# 4 0.0000 0.0000 0.0000 20.8757 0.0000 0.0000
# 5 0.0000 0.0000 0.0000 0.0000 20.8757 0.0000
# 6 0.0000 0.0000 0.0000 0.0000 0.0000 20.8816
#
#
#
# Elastic Compliance Matrix: (Units=1/GPa)
#
#
# Indices 1 2 3 4 5 6 
#
# 1 0.018552 -0.005392 -0.006219 0.000000 0.000000 0.000000
# 2 -0.005392 0.018552 -0.006219 0.000000 0.000000 0.000000
# 3 -0.006219 -0.006219 0.016377 0.000000 0.000000 0.000000
# 4 0.000000 0.000000 0.000000 0.047903 0.000000 0.000000
# 5 0.000000 0.000000 0.000000 0.000000 0.047903 0.000000
# 6 0.000000 0.000000 0.000000 0.000000 0.000000 0.047889
#
#
# Mechanical properties :
#
#
# Convention : Reuss Voigt Hill
#
# Bulk Modulus (GPa) = 56.10953 56.92254 56.51604
# Shear Modulus (GPa) = 20.94022 21.00236 20.97129
#
# Velocity S-wave (km/s) = 3.67100 3.67644 3.67372
# Velocity P-wave (km/s) = 7.35378 7.39287 7.37335
#
# Compressibility (1/GPa) = 0.01782228
#
# Stress axis : x y z
#
# Youngs Moduli (GPa) = 53.90206 53.90206 61.06184
#
# Poissons Ratio (x) = 0.29066 0.37972
# Poissons Ratio (y) = 0.29066 0.37972
# Poissons Ratio (z) = 0.33519 0.33519
#
# Static dielectric constant tensor:
#      x y z
#    x 2.848360 0.000000 0.000000 
#    y 0.000000 2.848360 0.000000 
#    z 0.000000 0.000000 2.919810 
# 
# 
# High freq. dielectric constant tensor:
#      x y z
#    x 1.567880 0.000000 0.000000 
#    y 0.000000 1.567880 0.000000 
#    z 0.000000 0.000000 1.606840 
# 
# From -- ./inp_files/805.got.cif
#   From: 2010.03.12/outbox.cif.g09.slc.cpg/sg175_1_cif.got.tgz:805.got - 2010.04.02 06:55:29.
