data_PCOD8325039
_publ_section_title
;
Structure prediction by ZEFSAII (Michael W. Deem and Ramdas Pophale) SiO2 
 PCOD8325039
Probable space group: P 6/M
;
_chemical_formula_sum "Si O2"
_cell_formula_units_Z 72
_cell_length_a 22.735582
_cell_length_b 22.735582
_cell_length_c 8.843517
_cell_angle_alpha 90.000000
_cell_angle_beta 90.000000
_cell_angle_gamma 120.000000
_cell_volume 3958.838624
_symmetry_space_group_name_H-M "P 6/M"
_symmetry_group_IT_number 175
_symmetry_cell_setting 'hexagonal'
loop_
_space_group_symop_operation_xyz
x,y,z
x-y,x,z
-y,x-y,z
-x,-y,z
-x+y,-x,z
y,-x+y,z
-x,-y,-z
-x+y,-x,-z
y,-x+y,-z
x,y,-z
x-y,x,-z
-y,x-y,-z
loop_
_atom_site_type_symbol
_atom_site_label
_atom_site_fract_x
_atom_site_fract_y
_atom_site_fract_z
Si Si1 0.443180 0.211329 0.323931
Si Si2 0.618374 0.500745 0.678181
Si Si3 0.377697 0.997952 0.822465
Si Si4 0.993463 0.250065 0.679025
Si Si5 0.493216 0.360469 0.325168
Si Si6 0.140671 0.291947 0.678989
O O1 0.432393 0.194871 0.500000
O O2 0.479089 0.171505 0.255452
O O3 0.493605 0.290945 0.293953
O O4 0.368341 0.185204 0.252665
O O5 0.619521 0.512926 0.500000
O O6 0.592878 0.546688 0.760086
O O7 0.566742 0.422411 0.718936
O O8 0.357236 0.922072 0.780583
O O9 0.326531 0.018612 0.748169
O O10 0.375775 0.005688 0.000000
O O11 0.996581 0.259871 0.500000
O O12 0.928429 0.177293 0.725153
O O13 0.063091 0.255156 0.741665
O O14 0.475049 0.365043 0.500000
O O15 0.137258 0.296339 0.500000
#
# Coordination Sequence:
#
# PCOD8325039 Si02
#       6
#    12  12  12  12  12  12
#     4   9  16  30  52  78  99 126 168 212 252 297
#     4  10  20  35  54  74 101 136 171 208 255 308
#     4  12  23  33  50  77 105 133 168 216 260 300
#     4  10  18  33  55  79 104 135 169 204 252 307
#     4  10  20  35  54  74 101 136 171 208 255 308
#     4   9  16  28  54  79 102 129 166 210 245 297
#
# _framework density 18.187151
#
# number of rings (size 3 to 8) (size 9 to 14) (size 15 to 20)
#    0.000    2.000    3.333    2.000    0.000    2.667 
#    1.000    3.333    0.000    0.333    0.000    2.333 
#    0.000    0.000    0.000    1.500    0.000    1.667 
#
# Total GULP energy -892637.874687 kJ/mol
# GULP energy per Si atom -12397.748260 kJ/mol
# Density = 1.814576 g / cm^3
# Si number density = 18.187151 Si / 1000 Ang^3
#
#
#
# Elastic Constant Matrix: (Units=GPa)
#
#
# Indices 1 2 3 4 5 6 
#
# 1 99.6950 32.8440 16.3613 0.0000 0.0000 0.0000
# 2 32.8440 99.6950 16.3613 0.0000 0.0000 0.0000
# 3 16.3613 16.3613 33.1516 0.0000 0.0000 0.0000
# 4 0.0000 0.0000 0.0000 3.6776 0.0000 0.0000
# 5 0.0000 0.0000 0.0000 0.0000 3.6776 0.0000
# 6 0.0000 0.0000 0.0000 0.0000 0.0000 33.4255
#
#
#
# Elastic Compliance Matrix: (Units=1/GPa)
#
#
# Indices 1 2 3 4 5 6 
#
# 1 0.011775 -0.003183 -0.004240 0.000000 0.000000 0.000000
# 2 -0.003183 0.011775 -0.004240 0.000000 0.000000 0.000000
# 3 -0.004240 -0.004240 0.034350 0.000000 0.000000 0.000000
# 4 0.000000 0.000000 0.000000 0.271915 0.000000 0.000000
# 5 0.000000 0.000000 0.000000 0.000000 0.271915 0.000000
# 6 0.000000 0.000000 0.000000 0.000000 0.000000 0.029917
#
#
# Mechanical properties :
#
#
# Convention : Reuss Voigt Hill
#
# Bulk Modulus (GPa) = 28.92494 40.40835 34.66664
# Shear Modulus (GPa) = 7.50188 19.28781 13.39484
#
# Velocity S-wave (km/s) = 2.03317 3.26009 2.71680
# Velocity P-wave (km/s) = 4.63144 6.03633 5.37994
#
# Compressibility (1/GPa) = 0.03457224
#
# Stress axis : x y z
#
# Youngs Moduli (GPa) = 84.92393 84.92393 29.11216
#
# Poissons Ratio (x) = 0.27035 0.12345
# Poissons Ratio (y) = 0.27035 0.12345
# Poissons Ratio (z) = 0.36011 0.36011
#
# Static dielectric constant tensor:
#      x y z
#    x 3.555090 0.000000 0.000000 
#    y 0.000000 3.555090 0.000000 
#    z 0.000000 0.000000 2.917150 
# 
# 
# High freq. dielectric constant tensor:
#      x y z
#    x 1.704780 0.000000 0.000000 
#    y 0.000000 1.704780 0.000000 
#    z 0.000000 0.000000 1.656850 
# 
# From -- ./inp_files/1142.got.cif
#   From: 2010.03.12/outbox.cif.g09.slc.cpg/sg175_1_cif.got.tgz:1142.got - 2010.04.02 06:55:29.
