data_PCOD8325394
_publ_section_title
;
Structure prediction by ZEFSAII (Michael W. Deem and Ramdas Pophale) SiO2 
 PCOD8325394
Probable space group: P 6/M
;
_chemical_formula_sum "Si O2"
_cell_formula_units_Z 72
_cell_length_a 22.630166
_cell_length_b 22.630166
_cell_length_c 9.592967
_cell_angle_alpha 90.000000
_cell_angle_beta 90.000000
_cell_angle_gamma 120.000000
_cell_volume 4254.603191
_symmetry_space_group_name_H-M "P 6/M"
_symmetry_group_IT_number 175
_symmetry_cell_setting 'hexagonal'
loop_
_space_group_symop_operation_xyz
x,y,z
x-y,x,z
-y,x-y,z
-x,-y,z
-x+y,-x,z
y,-x+y,z
-x,-y,-z
-x+y,-x,-z
y,-x+y,-z
x,y,-z
x-y,x,-z
-y,x-y,-z
loop_
_atom_site_type_symbol
_atom_site_label
_atom_site_fract_x
_atom_site_fract_y
_atom_site_fract_z
Si Si1 0.597509 0.867841 0.660644
Si Si2 0.134112 0.134112 0.333715
Si Si3 0.270332 0.867841 0.339356
Si Si4 0.666387 0.469253 0.161668
Si Si5 0.802866 0.469253 0.161668
Si Si6 0.732674 0.000000 0.334386
O O1 0.583529 0.876844 0.500000
O O2 0.610036 0.805018 0.681327
O O3 0.533114 0.857943 0.749327
O O4 0.664553 0.933730 0.718855
O O5 0.066926 0.133852 0.277550
O O6 0.134835 0.134835 0.500000
O O7 0.200840 0.200840 0.273751
O O8 0.293315 0.876844 0.500000
O O9 0.324829 0.857943 0.250673
O O10 0.269178 0.933730 0.281144
O O11 0.726697 0.453394 0.194661
O O12 0.596232 0.403768 0.207605
O O13 0.665830 0.486543 0.000000
O O14 0.820714 0.486543 0.000000
O O15 0.736611 0.000000 0.500000
#
# Coordination Sequence:
#
# PCOD8325394 Si02
#       6
#    12  12  12  12  12  12
#     4   9  17  29  45  65  88 115 149 185 217 254
#     4   9  15  22  35  58  88 119 150 185 224 264
#     4   9  17  29  45  65  88 115 149 185 217 254
#     4   9  17  30  48  68  89 113 141 176 221 269
#     4   9  17  30  48  68  89 113 141 176 221 269
#     4   9  16  27  42  59  83 118 154 183 216 260
#
# _framework density 16.922847000000001
#
# number of rings (size 3 to 8) (size 9 to 14) (size 15 to 20)
#    0.000    3.000    0.000    1.500    0.000    6.667 
#    0.000    1.667    0.000    7.000    0.000    0.000 
#    0.000    0.000    0.000    1.000    0.000   30.833 
#
# Total GULP energy -892810.126744 kJ/mol
# GULP energy per Si atom -12400.140649 kJ/mol
# Density = 1.688433 g / cm^3
# Si number density = 16.922847 Si / 1000 Ang^3
#
#
#
# Elastic Constant Matrix: (Units=GPa)
#
#
# Indices 1 2 3 4 5 6 
#
# 1 145.4460 85.3134 42.2109 0.0000 0.0000 0.0000
# 2 85.3134 145.4460 42.2109 0.0000 0.0000 0.0000
# 3 42.2109 42.2109 35.2670 0.0000 0.0000 0.0000
# 4 0.0000 0.0000 0.0000 15.0372 0.0000 0.0000
# 5 0.0000 0.0000 0.0000 0.0000 15.0372 0.0000
# 6 0.0000 0.0000 0.0000 0.0000 0.0000 30.0663
#
#
#
# Elastic Compliance Matrix: (Units=1/GPa)
#
#
# Indices 1 2 3 4 5 6 
#
# 1 0.012170 -0.004460 -0.009227 0.000000 0.000000 0.000000
# 2 -0.004460 0.012170 -0.009227 0.000000 0.000000 0.000000
# 3 -0.009227 -0.009227 0.050443 0.000000 0.000000 0.000000
# 4 0.000000 0.000000 0.000000 0.066502 0.000000 0.000000
# 5 0.000000 0.000000 0.000000 0.000000 0.066502 0.000000
# 6 0.000000 0.000000 0.000000 0.000000 0.000000 0.033260
#
#
# Mechanical properties :
#
#
# Convention : Reuss Voigt Hill
#
# Bulk Modulus (GPa) = 34.53889 73.95880 54.24885
# Shear Modulus (GPa) = 16.86200 22.45643 19.65921
#
# Velocity S-wave (km/s) = 3.16001 3.64674 3.41206
# Velocity P-wave (km/s) = 5.81104 7.84411 6.90283
#
# Compressibility (1/GPa) = 0.02895287
#
# Stress axis : x y z
#
# Youngs Moduli (GPa) = 82.17240 82.17240 19.82443
#
# Poissons Ratio (x) = 0.36652 0.18292
# Poissons Ratio (y) = 0.36652 0.18292
# Poissons Ratio (z) = 0.75821 0.75821
#
# Static dielectric constant tensor:
#      x y z
#    x 3.259560 0.000000 0.000000 
#    y 0.000000 3.259560 0.000000 
#    z 0.000000 0.000000 2.828340 
# 
# 
# High freq. dielectric constant tensor:
#      x y z
#    x 1.656030 0.000000 0.000000 
#    y 0.000000 1.656030 0.000000 
#    z 0.000000 0.000000 1.609150 
# 
# From -- ./inp_files/1173.got.cif
#   From: 2010.03.12/outbox.cif.g09.slc.cpg/sg175_1_cif.got.tgz:1173.got - 2010.04.02 06:55:29.
