data_PCOD8325505
_publ_section_title
;
Structure prediction by ZEFSAII (Michael W. Deem and Ramdas Pophale) SiO2 
 PCOD8325505
Probable space group: P 63/M
;
_chemical_formula_sum "Si O2"
_cell_formula_units_Z 66
_cell_length_a 14.757294
_cell_length_b 14.757294
_cell_length_c 19.996280
_cell_angle_alpha 90.000000
_cell_angle_beta 90.000000
_cell_angle_gamma 120.000000
_cell_volume 3771.319270
_symmetry_space_group_name_H-M "P 63/M"
_symmetry_group_IT_number 176
_symmetry_cell_setting 'hexagonal'
loop_
_space_group_symop_operation_xyz
x,y,z
x-y,x,1/2+z
-y,x-y,z
-x,-y,1/2+z
-x+y,-x,z
y,-x+y,1/2+z
-x,-y,-z
-x+y,-x,1/2-z
y,-x+y,-z
x,y,1/2-z
x-y,x,-z
-y,x-y,1/2-z
loop_
_atom_site_type_symbol
_atom_site_label
_atom_site_fract_x
_atom_site_fract_y
_atom_site_fract_z
Si Si1 0.581957 0.982078 0.250000
Si Si2 0.372074 0.380272 0.750000
Si Si3 0.549387 0.324432 0.605305
Si Si4 0.887376 0.545623 0.121531
Si Si5 0.468443 0.254604 0.750000
Si Si6 0.031168 0.414109 0.015566
Si Si7 0.322078 0.450930 0.880476
O O1 0.472063 0.978524 0.250000
O O2 0.650838 0.044030 0.185548
O O3 0.565142 0.866196 0.250000
O O4 0.365519 0.267512 0.750000
O O5 0.312246 0.386098 0.814488
O O6 0.567464 0.226327 0.587919
O O7 0.532693 0.319150 0.684931
O O8 0.457667 0.324062 0.563255
O O9 0.770930 0.525168 0.122623
O O10 0.873411 0.431380 0.117204
O O11 0.943917 0.617720 0.056260
O O12 0.935578 0.317559 0.054634
O O13 0.000000 0.500000 0.000000
#
# Coordination Sequence:
#
# PCOD8325505 Si02
#       7
#     6   6  12  12   6  12  12
#     4  10  23  37  51  79 108 140 188 225 266 314
#     4  10  19  35  51  76 108 142 175 226 257 315
#     4  10  22  31  53  79 107 151 185 211 267 334
#     4  10  22  35  56  75 108 148 182 221 260 326
#     4  12  20  34  56  79 112 144 175 235 273 315
#     4  10  22  34  48  77 111 144 179 230 256 310
#     4  10  20  36  53  76 108 144 182 213 263 312
#
# _framework density 17.500508
#
# number of rings (size 3 to 8) (size 9 to 14) (size 15 to 20)
#    0.364    1.455    1.818    2.545   10.182    0.000 
#    0.545    1.818    0.000    0.000    0.000    0.000 
#    7.273    1.455    0.000    0.000    0.000    0.000 
#
# Total GULP energy -817660.720332 kJ/mol
# GULP energy per Si atom -12388.798793 kJ/mol
# Density = 1.746068 g / cm^3
# Si number density = 17.500508 Si / 1000 Ang^3
#
#
#
# Elastic Constant Matrix: (Units=GPa)
#
#
# Indices 1 2 3 4 5 6 
#
# 1 54.5602 11.7633 30.9326 0.0000 0.0000 0.0000
# 2 11.7633 54.5602 30.9326 0.0000 0.0000 0.0000
# 3 30.9326 30.9326 138.6910 0.0000 0.0000 0.0000
# 4 0.0000 0.0000 0.0000 17.9769 0.0000 0.0000
# 5 0.0000 0.0000 0.0000 0.0000 17.9769 0.0000
# 6 0.0000 0.0000 0.0000 0.0000 0.0000 21.3985
#
#
#
# Elastic Compliance Matrix: (Units=1/GPa)
#
#
# Indices 1 2 3 4 5 6 
#
# 1 0.021202 -0.002164 -0.004246 0.000000 0.000000 0.000000
# 2 -0.002164 0.021202 -0.004246 0.000000 0.000000 0.000000
# 3 -0.004246 -0.004246 0.009104 0.000000 0.000000 0.000000
# 4 0.000000 0.000000 0.000000 0.055627 0.000000 0.000000
# 5 0.000000 0.000000 0.000000 0.000000 0.055627 0.000000
# 6 0.000000 0.000000 0.000000 0.000000 0.000000 0.046732
#
#
# Mechanical properties :
#
#
# Convention : Reuss Voigt Hill
#
# Bulk Modulus (GPa) = 33.11656 43.89647 38.50652
# Shear Modulus (GPa) = 20.75783 23.08265 21.92024
#
# Velocity S-wave (km/s) = 3.44776 3.63570 3.54298
# Velocity P-wave (km/s) = 5.90031 6.53926 6.22798
#
# Compressibility (1/GPa) = 0.03019637
#
# Stress axis : x y z
#
# Youngs Moduli (GPa) = 47.16480 47.16480 109.83778
#
# Poissons Ratio (x) = 0.10206 0.46639
# Poissons Ratio (y) = 0.10206 0.46639
# Poissons Ratio (z) = 0.20027 0.20027
#
# Static dielectric constant tensor:
#      x y z
#    x 3.097180 0.000000 0.000000 
#    y 0.000000 3.097180 0.000000 
#    z 0.000000 0.000000 3.936320 
# 
# 
# High freq. dielectric constant tensor:
#      x y z
#    x 1.641970 0.000000 0.000000 
#    y 0.000000 1.641970 0.000000 
#    z 0.000000 0.000000 1.705770 
# 
# From -- ./inp_files/3811.got.cif
#   From: 2010.06.25/outbox.cif.g09.slc.cpg/sg176_2_cif.got.tgz:3811.got - 2010.06.28 12:15:01.
