data_PCOD8325735
_publ_section_title
;
Structure prediction by ZEFSAII (Michael W. Deem and Ramdas Pophale) SiO2 
 PCOD8325735
Probable space group: P 6 2 2
;
_chemical_formula_sum "Si O2"
_cell_formula_units_Z 96
_cell_length_a 17.479928
_cell_length_b 17.479928
_cell_length_c 24.665089
_cell_angle_alpha 90.000000
_cell_angle_beta 90.000000
_cell_angle_gamma 120.000000
_cell_volume 6526.684170
_symmetry_space_group_name_H-M "P 6 2 2"
_symmetry_group_IT_number 177
_symmetry_cell_setting 'hexagonal'
loop_
_space_group_symop_operation_xyz
x,y,z
x-y,x,z
-y,x-y,z
-x,-y,z
-x+y,-x,z
y,-x+y,z
x-y,-y,-z
-x,-x+y,-z
y,x,-z
-y,-x,-z
-x+y,y,-z
x,x-y,-z
loop_
_atom_site_type_symbol
_atom_site_label
_atom_site_fract_x
_atom_site_fract_y
_atom_site_fract_z
Si Si1 0.274190 0.899132 1.000000
Si Si2 0.513505 0.669234 0.617462
Si Si3 0.330766 0.486495 0.617461
Si Si4 1.000000 0.408966 0.306844
Si Si5 0.331711 0.486451 0.892358
Si Si6 0.331987 0.493868 0.500000
Si Si7 0.513549 0.845259 0.107642
Si Si8 0.409421 1.000000 0.814343
O O1 0.319064 0.882190 0.051340
O O2 0.168073 0.831928 0.000000
O O3 0.319064 0.882190 0.948660
O O4 0.293899 0.000000 0.000000
O O5 0.417580 0.582420 0.617210
O O6 0.501704 0.750852 0.634641
O O7 0.577999 0.663703 0.661293
O O8 0.558637 0.683729 0.557031
O O9 0.336297 0.422001 0.661293
O O10 0.316272 0.441363 0.557031
O O11 0.000000 0.374375 0.246223
O O12 0.000000 0.500000 0.305297
O O13 0.250372 0.500744 0.878184
O O14 0.419095 0.580905 0.896381
O O15 0.337989 0.425829 0.845379
O O16 0.432210 0.567791 0.500000
O O17 0.268026 0.536051 0.500000
O O18 0.574171 0.912160 0.154621
O O19 0.500000 0.000000 0.811270
#
# Coordination Sequence:
#
# PCOD8325735 Si02
#       8
#    12  12  12  12  12  12  12  12
#     4  10  19  31  49  72  95 120 146 176 217 263
#     4   9  16  26  40  57  78 104 135 171 211 254
#     4   9  16  26  40  57  78 104 135 171 211 254
#     4   9  18  29  39  55  77 104 140 177 212 246
#     4  10  19  30  46  66  89 115 145 178 214 256
#     4   8  13  21  35  55  76  99 129 167 210 253
#     4  10  19  30  46  66  89 115 145 178 214 256
#     4   9  18  31  43  55  79 112 141 175 215 250
#
# _framework density 14.708847
#
# number of rings (size 3 to 8) (size 9 to 14) (size 15 to 20)
#    0.000    2.750    1.250    1.000    0.000    4.000 
#    0.000    3.750    0.000    3.125    0.000    0.000 
#    0.000    0.000    0.000    0.375    0.000    3.000 
#
# Total GULP energy -1189531.766556 kJ/mol
# GULP energy per Si atom -12390.955902 kJ/mol
# Density = 1.467537 g / cm^3
# Si number density = 14.708847 Si / 1000 Ang^3
#
#
#
# Elastic Constant Matrix: (Units=GPa)
#
#
# Indices 1 2 3 4 5 6 
#
# 1 73.3371 40.3779 46.9792 0.0000 0.0000 0.0000
# 2 40.3779 73.3371 46.9792 0.0000 0.0000 0.0000
# 3 46.9792 46.9792 142.1274 0.0000 0.0000 0.0000
# 4 0.0000 0.0000 0.0000 11.9892 0.0000 0.0000
# 5 0.0000 0.0000 0.0000 0.0000 11.9892 0.0000
# 6 0.0000 0.0000 0.0000 0.0000 0.0000 16.4796
#
#
#
# Elastic Compliance Matrix: (Units=1/GPa)
#
#
# Indices 1 2 3 4 5 6 
#
# 1 0.021219 -0.009121 -0.003999 0.000000 0.000000 0.000000
# 2 -0.009121 0.021219 -0.003999 0.000000 0.000000 0.000000
# 3 -0.003999 -0.003999 0.009680 0.000000 0.000000 0.000000
# 4 0.000000 0.000000 0.000000 0.083408 0.000000 0.000000
# 5 0.000000 0.000000 0.000000 0.000000 0.083408 0.000000
# 6 0.000000 0.000000 0.000000 0.000000 0.000000 0.060681
#
#
# Mechanical properties :
#
#
# Convention : Reuss Voigt Hill
#
# Bulk Modulus (GPa) = 55.92836 61.94155 58.93496
# Shear Modulus (GPa) = 15.63408 18.38929 17.01169
#
# Velocity S-wave (km/s) = 3.26376 3.53968 3.40452
# Velocity P-wave (km/s) = 7.23249 7.67522 7.45714
#
# Compressibility (1/GPa) = 0.01788001
#
# Stress axis : x y z
#
# Youngs Moduli (GPa) = 47.12684 47.12684 103.31035
#
# Poissons Ratio (x) = 0.42986 0.41313
# Poissons Ratio (y) = 0.42986 0.41313
# Poissons Ratio (z) = 0.18846 0.18846
#
# Static dielectric constant tensor:
#      x y z
#    x 2.679130 0.000000 0.000000 
#    y 0.000000 2.679130 0.000000 
#    z 0.000000 0.000000 3.260500 
# 
# 
# High freq. dielectric constant tensor:
#      x y z
#    x 1.531870 0.000000 0.000000 
#    y 0.000000 1.531870 0.000000 
#    z 0.000000 0.000000 1.581550 
# 
# From -- ./inp_files/3209.got.cif
#   From: 2010.03.12/outbox.cif.g09.slc.cpg/sg177_2_cif.got.tgz:3209.got - 2010.04.02 07:00:27.
