data_PCOD8325331
_publ_section_title
;
Structure prediction by ZEFSAII (Michael W. Deem and Ramdas Pophale) SiO2 
 PCOD8325331
Probable space group: P 6/M
;
_chemical_formula_sum "Si O2"
_cell_formula_units_Z 40
_cell_length_a 16.493077
_cell_length_b 16.493077
_cell_length_c 8.716723
_cell_angle_alpha 90.000000
_cell_angle_beta 90.000000
_cell_angle_gamma 120.000000
_cell_volume 2053.464740
_symmetry_space_group_name_H-M "P 6/M"
_symmetry_group_IT_number 175
_symmetry_cell_setting 'hexagonal'
loop_
_space_group_symop_operation_xyz
x,y,z
x-y,x,z
-y,x-y,z
-x,-y,z
-x+y,-x,z
y,-x+y,z
-x,-y,-z
-x+y,-x,-z
y,-x+y,-z
x,y,-z
x-y,x,-z
-y,x-y,-z
loop_
_atom_site_type_symbol
_atom_site_label
_atom_site_fract_x
_atom_site_fract_y
_atom_site_fract_z
Si Si1 0.868242 0.452699 0.818160
Si Si2 0.666668 0.333334 0.816681
Si Si3 0.350358 0.373902 0.818604
Si Si4 0.803201 0.975549 0.681884
O O1 0.764752 0.415231 0.754085
O O2 0.927349 0.559358 0.760241
O O3 0.899765 0.378481 0.765249
O O4 0.876240 0.456423 0.000000
O O5 0.666667 0.333334 0.000000
O O6 0.256802 0.295953 0.737924
O O7 0.333692 0.359030 0.000000
O O8 0.803180 0.975720 0.500000
O O9 0.889564 0.073804 0.743441
#
# Coordination Sequence:
#
# PCOD8325331 Si02
#       4
#    12   4  12  12
#     4   8  16  29  46  76 114 142 169 205 249 299
#     4   9  15  24  45  72 106 149 175 192 238 311
#     4   9  18  33  53  80 108 134 169 216 257 294
#     4  10  22  39  57  75  98 132 172 213 260 316
#
# _framework density 19.479272999999999
#
# number of rings (size 3 to 8) (size 9 to 14) (size 15 to 20)
#    0.000    3.000    0.000    2.100    4.200    2.400 
#    0.000    3.000    0.000    1.800    0.000    0.000 
#    0.000    0.000    0.000    0.000    0.000    0.000 
#
# Total GULP energy -495532.374906 kJ/mol
# GULP energy per Si atom -12388.309373 kJ/mol
# Density = 1.943494 g / cm^3
# Si number density = 19.479273 Si / 1000 Ang^3
#
#
#
# Elastic Constant Matrix: (Units=GPa)
#
#
# Indices 1 2 3 4 5 6 
#
# 1 69.6754 8.4109 7.0192 0.0000 0.0000 0.0006
# 2 8.4109 69.6844 7.0195 0.0000 0.0000 -0.0001
# 3 7.0192 7.0195 12.6206 0.0000 0.0000 -0.0001
# 4 0.0000 0.0000 0.0000 23.6313 0.0000 0.0000
# 5 0.0000 0.0000 0.0000 0.0000 23.6311 0.0000
# 6 0.0006 -0.0001 -0.0001 0.0000 0.0000 30.6355
#
#
#
# Elastic Compliance Matrix: (Units=1/GPa)
#
#
# Indices 1 2 3 4 5 6 
#
# 1 0.015276 -0.001047 -0.007914 0.000000 0.000000 0.000000
# 2 -0.001047 0.015274 -0.007913 0.000000 0.000000 0.000000
# 3 -0.007914 -0.007913 0.088038 0.000000 0.000000 0.000000
# 4 0.000000 0.000000 0.000000 0.042317 0.000000 0.000000
# 5 0.000000 0.000000 0.000000 0.000000 0.042317 0.000000
# 6 0.000000 0.000000 0.000000 0.000000 0.000000 0.032642
#
#
# Mechanical properties :
#
#
# Convention : Reuss Voigt Hill
#
# Bulk Modulus (GPa) = 11.78679 21.87549 16.83114
# Shear Modulus (GPa) = 16.78466 24.21496 20.49981
#
# Velocity S-wave (km/s) = 2.93860 3.52961 3.24758
# Velocity P-wave (km/s) = 4.19260 5.27876 4.76672
#
# Compressibility (1/GPa) = 0.08484073
#
# Stress axis : x y z
#
# Youngs Moduli (GPa) = 65.46280 65.47137 11.35871
#
# Poissons Ratio (x) = 0.06852 0.08989
# Poissons Ratio (y) = 0.06851 0.08988
# Poissons Ratio (z) = 0.51806 0.51808
#
# Static dielectric constant tensor:
#      x y z
#    x 3.835830 -0.000010 0.000000 
#    y -0.000010 3.835820 0.000000 
#    z 0.000000 0.000000 2.961580 
# 
# 
# High freq. dielectric constant tensor:
#      x y z
#    x 1.771700 0.000000 0.000000 
#    y 0.000000 1.771700 0.000000 
#    z 0.000000 0.000000 1.697150 
# 
# From -- ./inp_files/418.got.cif
#   From: 2010.03.12/outbox.cif.g09.slc.cpg/sg175_1_cif.got.tgz:418.got - 2010.04.02 06:55:29.
