data_PCOD8325659
_publ_section_title
;
Structure prediction by ZEFSAII (Michael W. Deem and Ramdas Pophale) SiO2 
 PCOD8325659
Probable space group: P 63/M
;
_chemical_formula_sum "Si O2"
_cell_formula_units_Z 22
_cell_length_a 9.676265
_cell_length_b 9.676265
_cell_length_c 11.701594
_cell_angle_alpha 90.000000
_cell_angle_beta 90.000000
_cell_angle_gamma 120.000000
_cell_volume 948.836024
_symmetry_space_group_name_H-M "P 63/M"
_symmetry_group_IT_number 176
_symmetry_cell_setting 'hexagonal'
loop_
_space_group_symop_operation_xyz
x,y,z
x-y,x,1/2+z
-y,x-y,z
-x,-y,1/2+z
-x+y,-x,z
y,-x+y,1/2+z
-x,-y,-z
-x+y,-x,1/2-z
y,-x+y,-z
x,y,1/2-z
x-y,x,-z
-y,x-y,1/2-z
loop_
_atom_site_type_symbol
_atom_site_label
_atom_site_fract_x
_atom_site_fract_y
_atom_site_fract_z
Si Si1 0.247270 0.895659 0.014922
Si Si2 0.664892 0.155675 0.750000
Si Si3 0.333334 0.666668 0.886316
O O1 0.336748 0.939468 0.137488
O O2 0.321874 0.816574 0.933349
O O3 0.060143 0.781730 0.038981
O O4 0.823326 0.332557 0.750000
O O5 0.333334 0.666668 0.750000
#
# Coordination Sequence:
#
# PCOD8325659 Si02
#       3
#    12   6   4
#     4  12  27  45  69 102 137 177 222 276 339 397
#     4  10  22  44  70  96 138 174 216 284 340 376
#     4  12  27  43  74 103 129 174 238 275 316 405
#
# _framework density 23.186302000000001
#
# number of rings (size 3 to 8) (size 9 to 14) (size 15 to 20)
#    0.545    0.000    5.455    2.182    7.636    0.000 
#    0.000    0.000    0.000    0.000    0.000    0.000 
#    0.000    0.000    0.000    0.000    0.000    0.000 
#
# Total GULP energy -272874.422856 kJ/mol
# GULP energy per Si atom -12403.382857 kJ/mol
# Density = 2.313353 g / cm^3
# Si number density = 23.186302 Si / 1000 Ang^3
#
#
#
# Elastic Constant Matrix: (Units=GPa)
#
#
# Indices 1 2 3 4 5 6 
#
# 1 59.7133 -5.3930 16.0120 0.0000 0.0000 -0.0002
# 2 -5.3930 59.7170 16.0124 0.0000 0.0000 -0.0006
# 3 16.0120 16.0124 171.4407 0.0000 0.0000 0.0000
# 4 0.0000 0.0000 0.0000 16.1577 0.0000 0.0000
# 5 0.0000 0.0000 0.0000 0.0000 16.1576 0.0000
# 6 -0.0002 -0.0006 0.0000 0.0000 0.0000 32.5548
#
#
#
# Elastic Compliance Matrix: (Units=1/GPa)
#
#
# Indices 1 2 3 4 5 6 
#
# 1 0.017421 0.002061 -0.001820 0.000000 0.000000 0.000000
# 2 0.002061 0.017420 -0.001819 0.000000 0.000000 0.000000
# 3 -0.001820 -0.001819 0.006173 0.000000 0.000000 0.000000
# 4 0.000000 0.000000 0.000000 0.061890 0.000000 0.000000
# 5 0.000000 0.000000 0.000000 0.000000 0.061890 0.000000
# 6 0.000000 0.000000 0.000000 0.000000 0.000000 0.030717
#
#
# Mechanical properties :
#
#
# Convention : Reuss Voigt Hill
#
# Bulk Modulus (GPa) = 26.41487 38.23708 32.32597
# Shear Modulus (GPa) = 23.66463 30.59000 27.12732
#
# Velocity S-wave (km/s) = 3.19820 3.63618 3.42420
# Velocity P-wave (km/s) = 5.00551 5.84432 5.44110
#
# Compressibility (1/GPa) = 0.03785747
#
# Stress axis : x y z
#
# Youngs Moduli (GPa) = 57.40282 57.40635 162.00109
#
# Poissons Ratio (x) = -0.11832 0.29477
# Poissons Ratio (y) = -0.11832 0.29476
# Poissons Ratio (z) = 0.10445 0.10445
#
# Static dielectric constant tensor:
#      x y z
#    x 4.064460 0.000020 0.000000 
#    y 0.000020 4.064450 0.000000 
#    z 0.000000 0.000000 4.004940 
# 
# 
# High freq. dielectric constant tensor:
#      x y z
#    x 1.915410 0.000000 0.000000 
#    y 0.000000 1.915410 0.000000 
#    z 0.000000 0.000000 1.916090 
# 
# From -- ./inp_files/1489.got.cif
#   From: 2010.06.25/outbox.cif.g09.slc.cpg/sg176_1_cif.got.tgz:1489.got - 2010.06.28 12:15:01.
