data_PCOD8325386
_publ_section_title
;
Structure prediction by ZEFSAII (Michael W. Deem and Ramdas Pophale) SiO2 
 PCOD8325386
Probable space group: P 6/M
;
_chemical_formula_sum "Si O2"
_cell_formula_units_Z 96
_cell_length_a 27.311059
_cell_length_b 27.311059
_cell_length_c 9.866405
_cell_angle_alpha 90.000000
_cell_angle_beta 90.000000
_cell_angle_gamma 120.000000
_cell_volume 6373.333597
_symmetry_space_group_name_H-M "P 6/M"
_symmetry_group_IT_number 175
_symmetry_cell_setting 'hexagonal'
loop_
_space_group_symop_operation_xyz
x,y,z
x-y,x,z
-y,x-y,z
-x,-y,z
-x+y,-x,z
y,-x+y,z
-x,-y,-z
-x+y,-x,-z
y,-x+y,-z
x,y,-z
x-y,x,-z
-y,x-y,-z
loop_
_atom_site_type_symbol
_atom_site_label
_atom_site_fract_x
_atom_site_fract_y
_atom_site_fract_z
Si Si1 0.545497 0.831136 0.348584
Si Si2 0.669178 0.780353 0.338987
Si Si3 0.446513 0.780196 0.156365
Si Si4 0.285637 0.831135 0.651416
Si Si5 0.669177 0.888826 0.338987
Si Si6 0.888416 0.888416 0.338587
Si Si7 0.219805 0.553486 0.156365
Si Si8 0.223270 0.999999 0.661938
O O1 0.531249 0.843236 0.500000
O O2 0.498176 0.827030 0.245284
O O3 0.547411 0.773706 0.349194
O O4 0.607674 0.880909 0.300810
O O5 0.673496 0.785477 0.500000
O O6 0.607675 0.726767 0.300812
O O7 0.675552 0.837777 0.276797
O O8 0.720347 0.773958 0.279549
O O9 0.435384 0.717692 0.186557
O O10 0.390545 0.781091 0.199070
O O11 0.461932 0.796468 0.000000
O O12 0.311985 0.843234 0.500000
O O13 0.328852 0.827029 0.754717
O O14 0.673493 0.888020 0.500000
O O15 0.720347 0.946392 0.279551
O O16 0.944181 0.888362 0.284004
O O17 0.888530 0.888530 0.500000
O O18 0.832579 0.832579 0.284241
O O19 0.203533 0.538067 0.000000
O O20 0.223015 0.999999 0.500000
#
# Coordination Sequence:
#
# PCOD8325386 Si02
#       8
#    12  12  12  12  12  12  12  12
#     4   8  14  24  36  50  71  98 124 152 188 225
#     4   8  13  21  32  47  68  91 116 151 193 230
#     4   9  16  25  37  54  76 100 124 149 177 213
#     4   8  14  24  36  50  71  98 124 152 188 225
#     4   8  13  21  32  47  68  91 116 151 193 230
#     4   9  15  20  25  36  60  96 134 165 190 221
#     4   9  16  25  37  54  76 100 124 149 177 213
#     4   9  14  19  30  47  64  86 119 158 198 233
#
# _framework density 15.062761
#
# number of rings (size 3 to 8) (size 9 to 14) (size 15 to 20)
#    0.000    3.500    0.000    2.625    0.000    5.000 
#    0.000    0.000    0.000    1.500    0.000    1.750 
#    0.000    7.000    0.000    0.000    0.000    0.250 
#
# Total GULP energy -1189652.013134 kJ/mol
# GULP energy per Si atom -12392.208470 kJ/mol
# Density = 1.502848 g / cm^3
# Si number density = 15.062761 Si / 1000 Ang^3
#
#
#
# Elastic Constant Matrix: (Units=GPa)
#
#
# Indices 1 2 3 4 5 6 
#
# 1 109.2051 70.0001 35.5854 0.0000 0.0000 0.0000
# 2 70.0001 109.2051 35.5854 0.0000 0.0000 0.0000
# 3 35.5854 35.5854 31.8421 0.0000 0.0000 0.0000
# 4 0.0000 0.0000 0.0000 6.8038 0.0000 0.0000
# 5 0.0000 0.0000 0.0000 0.0000 6.8038 0.0000
# 6 0.0000 0.0000 0.0000 0.0000 0.0000 19.6025
#
#
#
# Elastic Compliance Matrix: (Units=1/GPa)
#
#
# Indices 1 2 3 4 5 6 
#
# 1 0.017770 -0.007737 -0.011213 0.000000 0.000000 0.000000
# 2 -0.007737 0.017770 -0.011213 0.000000 0.000000 0.000000
# 3 -0.011213 -0.011213 0.056467 0.000000 0.000000 0.000000
# 4 0.000000 0.000000 0.000000 0.146978 0.000000 0.000000
# 5 0.000000 0.000000 0.000000 0.000000 0.146978 0.000000
# 6 0.000000 0.000000 0.000000 0.000000 0.000000 0.051014
#
#
# Mechanical properties :
#
#
# Convention : Reuss Voigt Hill
#
# Bulk Modulus (GPa) = 31.56334 59.17712 45.37023
# Shear Modulus (GPa) = 9.84519 13.91409 11.87964
#
# Velocity S-wave (km/s) = 2.55936 3.04261 2.81138
# Velocity P-wave (km/s) = 5.45287 7.19136 6.38159
#
# Compressibility (1/GPa) = 0.03168232
#
# Stress axis : x y z
#
# Youngs Moduli (GPa) = 56.27413 56.27413 17.70943
#
# Poissons Ratio (x) = 0.43538 0.19857
# Poissons Ratio (y) = 0.43538 0.19857
# Poissons Ratio (z) = 0.63099 0.63099
#
# Static dielectric constant tensor:
#      x y z
#    x 3.024330 0.000000 0.000000 
#    y 0.000000 3.024330 0.000000 
#    z 0.000000 0.000000 2.522990 
# 
# 
# High freq. dielectric constant tensor:
#      x y z
#    x 1.566980 0.000000 0.000000 
#    y 0.000000 1.566980 0.000000 
#    z 0.000000 0.000000 1.522380 
# 
# From -- ./inp_files/2181.got.cif
#   From: 2010.03.12/outbox.cif.g09.slc.cpg/sg175_2_cif.got.tgz:2181.got - 2010.04.02 06:55:29.
