data_PCOD8325390
_publ_section_title
;
Structure prediction by ZEFSAII (Michael W. Deem and Ramdas Pophale) SiO2 
 PCOD8325390
Probable space group: P 6/M
;
_chemical_formula_sum "Si O2"
_cell_formula_units_Z 72
_cell_length_a 23.404528
_cell_length_b 23.404528
_cell_length_c 9.878845
_cell_angle_alpha 90.000000
_cell_angle_beta 90.000000
_cell_angle_gamma 120.000000
_cell_volume 4686.370034
_symmetry_space_group_name_H-M "P 6/M"
_symmetry_group_IT_number 175
_symmetry_cell_setting 'hexagonal'
loop_
_space_group_symop_operation_xyz
x,y,z
x-y,x,z
-y,x-y,z
-x,-y,z
-x+y,-x,z
y,-x+y,z
-x,-y,-z
-x+y,-x,-z
y,-x+y,-z
x,y,-z
x-y,x,-z
-y,x-y,-z
loop_
_atom_site_type_symbol
_atom_site_label
_atom_site_fract_x
_atom_site_fract_y
_atom_site_fract_z
Si Si1 0.851084 0.148916 0.160601
Si Si2 0.077694 0.376151 0.844148
Si Si3 0.397410 0.475790 0.651690
Si Si4 0.602590 0.078380 0.348310
Si Si5 0.376151 0.077694 0.155852
Si Si6 0.925263 0.850527 0.838485
O O1 0.775898 0.112181 0.211382
O O2 0.887819 0.224102 0.211382
O O3 0.888094 0.111906 0.220248
O O4 0.853414 0.146586 0.000000
O O5 0.106094 0.443369 0.757558
O O6 0.000000 0.329091 0.824807
O O7 0.095767 0.397123 0.000000
O O8 0.369795 0.472004 0.500000
O O9 0.436532 0.436532 0.657284
O O10 0.447871 0.552129 0.691461
O O11 0.337276 0.443369 0.757558
O O12 0.630205 0.102209 0.500000
O O13 0.397123 0.095767 0.000000
O O14 0.888131 0.888131 0.783718
O O15 0.924839 0.849679 0.000000
#
# Coordination Sequence:
#
# PCOD8325390 Si02
#       6
#    12  12  12  12  12  12
#     4   9  16  25  35  50  77 109 138 172 216 258
#     4   9  16  25  38  56  78 106 138 167 197 239
#     4   8  14  25  40  57  78 102 124 149 186 229
#     4   8  14  25  40  57  78 102 124 149 186 229
#     4   9  16  25  38  56  78 106 138 167 197 239
#     4   9  15  22  33  49  71 103 146 192 232 268
#
# _framework density 15.363702999999999
#
# number of rings (size 3 to 8) (size 9 to 14) (size 15 to 20)
#    0.000    3.333    0.000    2.167    0.000    5.333 
#    0.000    4.167    0.000    0.000    0.000    0.000 
#    1.667    0.000    1.000    1.000    1.333   30.833 
#
# Total GULP energy -892426.667052 kJ/mol
# GULP energy per Si atom -12394.814820 kJ/mol
# Density = 1.532873 g / cm^3
# Si number density = 15.363703 Si / 1000 Ang^3
#
#
#
# Elastic Constant Matrix: (Units=GPa)
#
#
# Indices 1 2 3 4 5 6 
#
# 1 104.5985 58.1334 43.7717 0.0000 0.0000 0.0000
# 2 58.1334 104.5985 43.7717 0.0000 0.0000 0.0000
# 3 43.7717 43.7717 52.0585 0.0000 0.0000 0.0000
# 4 0.0000 0.0000 0.0000 9.3233 0.0000 0.0000
# 5 0.0000 0.0000 0.0000 0.0000 9.3233 0.0000
# 6 0.0000 0.0000 0.0000 0.0000 0.0000 23.2325
#
#
#
# Elastic Compliance Matrix: (Units=1/GPa)
#
#
# Indices 1 2 3 4 5 6 
#
# 1 0.016371 -0.005151 -0.009434 0.000000 0.000000 0.000000
# 2 -0.005151 0.016371 -0.009434 0.000000 0.000000 0.000000
# 3 -0.009434 -0.009434 0.035074 0.000000 0.000000 0.000000
# 4 0.000000 0.000000 0.000000 0.107258 0.000000 0.000000
# 5 0.000000 0.000000 0.000000 0.000000 0.107258 0.000000
# 6 0.000000 0.000000 0.000000 0.000000 0.000000 0.043043
#
#
# Mechanical properties :
#
#
# Convention : Reuss Voigt Hill
#
# Bulk Modulus (GPa) = 50.56181 61.40102 55.98141
# Shear Modulus (GPa) = 13.15766 16.08106 14.61936
#
# Velocity S-wave (km/s) = 2.92963 3.23877 3.08807
# Velocity P-wave (km/s) = 6.66521 7.35105 7.01651
#
# Compressibility (1/GPa) = 0.01977777
#
# Stress axis : x y z
#
# Youngs Moduli (GPa) = 61.08384 61.08384 28.51105
#
# Poissons Ratio (x) = 0.31462 0.26898
# Poissons Ratio (y) = 0.31462 0.26898
# Poissons Ratio (z) = 0.57628 0.57628
#
# Static dielectric constant tensor:
#      x y z
#    x 2.985120 0.000000 0.000000 
#    y 0.000000 2.985120 0.000000 
#    z 0.000000 0.000000 2.767450 
# 
# 
# High freq. dielectric constant tensor:
#      x y z
#    x 1.574300 0.000000 0.000000 
#    y 0.000000 1.574300 0.000000 
#    z 0.000000 0.000000 1.554760 
# 
# From -- ./inp_files/1154.got.cif
#   From: 2010.03.12/outbox.cif.g09.slc.cpg/sg175_1_cif.got.tgz:1154.got - 2010.04.02 06:55:29.
