data_PCOD8325063
_publ_section_title
;
Structure prediction by ZEFSAII (Michael W. Deem and Ramdas Pophale) SiO2 
 PCOD8325063
Probable space group: P 6/M
;
_chemical_formula_sum "Si O2"
_cell_formula_units_Z 64
_cell_length_a 19.024005
_cell_length_b 19.024005
_cell_length_c 12.829760
_cell_angle_alpha 90.000000
_cell_angle_beta 90.000000
_cell_angle_gamma 120.000000
_cell_volume 4021.175861
_symmetry_space_group_name_H-M "P 6/M"
_symmetry_group_IT_number 175
_symmetry_cell_setting 'hexagonal'
loop_
_space_group_symop_operation_xyz
x,y,z
x-y,x,z
-y,x-y,z
-x,-y,z
-x+y,-x,z
y,-x+y,z
-x,-y,-z
-x+y,-x,-z
y,-x+y,-z
x,y,-z
x-y,x,-z
-y,x-y,-z
loop_
_atom_site_type_symbol
_atom_site_label
_atom_site_fract_x
_atom_site_fract_y
_atom_site_fract_z
Si Si1 0.717145 0.000066 0.381743
Si Si2 0.333334 0.666668 0.376364
Si Si3 0.189866 0.082655 0.121179
Si Si4 0.512457 0.725388 0.621053
Si Si5 0.962223 0.549425 0.380793
Si Si6 0.158521 0.316321 0.291336
O O1 0.725621 0.030151 0.500000
O O2 0.638843 0.999738 0.330433
O O3 0.709472 0.913496 0.374535
O O4 0.796378 0.065006 0.322195
O O5 0.333334 0.666668 0.500000
O O6 0.288036 0.572729 0.338471
O O7 0.143164 0.131387 0.151056
O O8 0.278112 0.119251 0.178601
O O9 0.211473 0.092166 0.000000
O O10 0.531518 0.756313 0.500000
O O11 0.501036 0.635884 0.628601
O O12 0.585487 0.785593 0.698956
O O13 0.991360 0.561649 0.500000
O O14 0.000000 0.500000 0.322818
#
# Coordination Sequence:
#
# PCOD8325063 Si02
#       6
#    12   4  12  12  12  12
#     4  10  19  29  43  64  96 131 161 190 223 276
#     4   9  18  30  45  66 100 140 172 207 234 270
#     4  10  20  36  56  75  93 117 154 205 253 290
#     4   9  18  29  42  66  98 131 167 198 233 277
#     4   8  15  26  40  59  86 124 163 196 230 267
#     4  11  19  31  47  68  95 125 160 192 238 286
#
# _framework density 15.915742
#
# number of rings (size 3 to 8) (size 9 to 14) (size 15 to 20)
#    0.000    2.438    1.875    3.000    2.625    0.750 
#    0.000    0.000    0.000    0.000    0.000    3.938 
#    0.000    7.500    0.000    0.000    0.000    0.000 
#
# Total GULP energy -792887.705811 kJ/mol
# GULP energy per Si atom -12388.870403 kJ/mol
# Density = 1.587952 g / cm^3
# Si number density = 15.915742 Si / 1000 Ang^3
#
#
#
# Elastic Constant Matrix: (Units=GPa)
#
#
# Indices 1 2 3 4 5 6 
#
# 1 93.5324 45.7622 25.3204 0.0000 0.0000 0.0005
# 2 45.7622 93.5311 25.3204 0.0000 0.0000 0.0001
# 3 25.3204 25.3204 43.1791 0.0000 0.0000 0.0000
# 4 0.0000 0.0000 0.0000 15.8443 0.0000 0.0000
# 5 0.0000 0.0000 0.0000 0.0000 15.8439 0.0000
# 6 0.0005 0.0001 0.0000 0.0000 0.0000 23.8850
#
#
#
# Elastic Compliance Matrix: (Units=1/GPa)
#
#
# Indices 1 2 3 4 5 6 
#
# 1 0.015029 -0.005905 -0.005350 0.000000 0.000000 0.000000
# 2 -0.005905 0.015029 -0.005351 0.000000 0.000000 0.000000
# 3 -0.005350 -0.005351 0.029434 0.000000 0.000000 0.000000
# 4 0.000000 0.000000 0.000000 0.063114 0.000000 0.000000
# 5 0.000000 0.000000 0.000000 0.000000 0.063116 0.000000
# 6 0.000000 0.000000 0.000000 0.000000 0.000000 0.041867
#
#
# Mechanical properties :
#
#
# Convention : Reuss Voigt Hill
#
# Bulk Modulus (GPa) = 38.05036 47.00541 42.52789
# Shear Modulus (GPa) = 18.54862 20.03727 19.29295
#
# Velocity S-wave (km/s) = 3.41754 3.55203 3.48543
# Velocity P-wave (km/s) = 6.28745 6.81327 6.55563
#
# Compressibility (1/GPa) = 0.02628096
#
# Stress axis : x y z
#
# Youngs Moduli (GPa) = 66.53834 66.53729 33.97382
#
# Poissons Ratio (x) = 0.39289 0.18177
# Poissons Ratio (y) = 0.39290 0.18178
# Poissons Ratio (z) = 0.35601 0.35601
#
# Static dielectric constant tensor:
#      x y z
#    x 3.189310 0.000000 0.000000 
#    y 0.000000 3.189330 0.000000 
#    z 0.000000 0.000000 2.582320 
# 
# 
# High freq. dielectric constant tensor:
#      x y z
#    x 1.622200 0.000000 0.000000 
#    y 0.000000 1.622200 0.000000 
#    z 0.000000 0.000000 1.543680 
# 
# From -- ./inp_files/1908.got.cif
#   From: 2010.03.12/outbox.cif.g09.slc.cpg/sg175_1_cif.got.tgz:1908.got - 2010.04.02 06:55:29.
