data_PCOD8325789
_publ_section_title
;
Structure prediction by ZEFSAII (Michael W. Deem and Ramdas Pophale) SiO2 
 PCOD8325789
Probable space group: P 61 2 2
;
_chemical_formula_sum "Si O2"
_cell_formula_units_Z 48
_cell_length_a 18.302833
_cell_length_b 18.302833
_cell_length_c 8.377007
_cell_angle_alpha 90.000000
_cell_angle_beta 90.000000
_cell_angle_gamma 120.000000
_cell_volume 2430.279056
_symmetry_space_group_name_H-M "P 61 2 2"
_symmetry_group_IT_number 178
_symmetry_cell_setting 'hexagonal'
loop_
_space_group_symop_operation_xyz
x,y,z
x-y,x,1/6+z
-y,x-y,1/3+z
-x,-y,1/2+z
-x+y,-x,2/3+z
y,-x+y,5/6+z
x-y,-y,-z
-x,-x+y,2/3-z
y,x,1/3-z
-y,-x,5/6-z
-x+y,y,1/2-z
x,x-y,1/6-z
loop_
_atom_site_type_symbol
_atom_site_label
_atom_site_fract_x
_atom_site_fract_y
_atom_site_fract_z
Si Si1 0.549708 0.450293 0.416667
Si Si2 0.297826 0.871869 0.419551
Si Si3 0.121837 0.166312 0.416614
Si Si4 0.000000 0.402460 0.333334
Si Si5 0.705431 0.039421 0.224244
O O1 0.519906 0.366623 0.523946
O O2 0.567559 0.523178 0.540947
O O3 0.208482 0.791519 0.416667
O O4 0.316510 0.907900 0.598870
O O5 0.296571 0.939833 0.300769
O O6 0.141792 0.089862 0.389918
O O7 0.091431 0.182861 0.250000
O O8 0.201329 0.255269 0.466066
O O9 0.938425 0.316336 0.433778
#
# Coordination Sequence:
#
# PCOD8325789 Si02
#       5
#     6  12  12   6  12
#     4  10  20  36  58  84 114 144 176 238 294 384
#     4  10  21  37  58  83 114 149 190 240 298 355
#     4  10  20  35  51  76 119 163 207 252 296 346
#     4  10  18  34  60  86 110 136 186 242 310 348
#     4  10  20  35  59  86 111 147 201 258 294 340
#
# _framework density 19.750819
#
# number of rings (size 3 to 8) (size 9 to 14) (size 15 to 20)
#    0.000    2.000    0.000    6.000    0.000    2.000 
#    0.000   21.250    5.500    0.000    0.000    0.000 
#    0.000    0.000    0.000    0.000    0.000    0.000 
#
# Total GULP energy -594736.235274 kJ/mol
# GULP energy per Si atom -12390.338235 kJ/mol
# Density = 1.970587 g / cm^3
# Si number density = 19.750819 Si / 1000 Ang^3
#
#
#
# Elastic Constant Matrix: (Units=GPa)
#
#
# Indices 1 2 3 4 5 6 
#
# 1 111.5504 33.8119 43.9922 0.0000 0.0000 0.0000
# 2 33.8119 111.5504 43.9922 0.0000 0.0000 0.0000
# 3 43.9922 43.9922 117.5486 0.0000 0.0000 0.0000
# 4 0.0000 0.0000 0.0000 2.5130 0.0000 0.0000
# 5 0.0000 0.0000 0.0000 0.0000 2.5130 0.0000
# 6 0.0000 0.0000 0.0000 0.0000 0.0000 38.8692
#
#
#
# Elastic Compliance Matrix: (Units=1/GPa)
#
#
# Indices 1 2 3 4 5 6 
#
# 1 0.010879 -0.001985 -0.003329 0.000000 0.000000 0.000000
# 2 -0.001985 0.010879 -0.003329 0.000000 0.000000 0.000000
# 3 -0.003329 -0.003329 0.010999 0.000000 0.000000 0.000000
# 4 0.000000 0.000000 0.000000 0.397931 0.000000 0.000000
# 5 0.000000 0.000000 0.000000 0.000000 0.397931 0.000000
# 6 0.000000 0.000000 0.000000 0.000000 0.000000 0.025727
#
#
# Mechanical properties :
#
#
# Convention : Reuss Voigt Hill
#
# Bulk Modulus (GPa) = 64.63133 64.91577 64.77355
# Shear Modulus (GPa) = 5.70264 23.36926 14.53595
#
# Velocity S-wave (km/s) = 1.70105 3.44351 2.71581
# Velocity P-wave (km/s) = 6.05413 6.98205 6.53458
#
# Compressibility (1/GPa) = 0.01547237
#
# Stress axis : x y z
#
# Youngs Moduli (GPa) = 91.92144 91.92144 90.92124
#
# Poissons Ratio (x) = 0.18244 0.30264
# Poissons Ratio (y) = 0.18244 0.30264
# Poissons Ratio (z) = 0.30597 0.30597
#
# Static dielectric constant tensor:
#      x y z
#    x 3.860040 0.000000 0.000000 
#    y 0.000000 3.860040 0.000000 
#    z 0.000000 0.000000 4.332370 
# 
# 
# High freq. dielectric constant tensor:
#      x y z
#    x 1.755660 0.000000 0.000000 
#    y 0.000000 1.755660 0.000000 
#    z 0.000000 0.000000 1.788360 
# 
# From -- ./inp_files/2650.got.cif
#   From: 2010.03.12/outbox.cif.g09.slc.cpg/sg178_2_cif.got.tgz:2650.got - 2010.04.02 07:02:38.
