data_PCOD8325395
_publ_section_title
;
Structure prediction by ZEFSAII (Michael W. Deem and Ramdas Pophale) SiO2 
 PCOD8325395
Probable space group: P 6/M
;
_chemical_formula_sum "Si O2"
_cell_formula_units_Z 60
_cell_length_a 17.766828
_cell_length_b 17.766828
_cell_length_c 14.538013
_cell_angle_alpha 90.000000
_cell_angle_beta 90.000000
_cell_angle_gamma 120.000000
_cell_volume 3974.252723
_symmetry_space_group_name_H-M "P 6/M"
_symmetry_group_IT_number 175
_symmetry_cell_setting 'hexagonal'
loop_
_space_group_symop_operation_xyz
x,y,z
x-y,x,z
-y,x-y,z
-x,-y,z
-x+y,-x,z
y,-x+y,z
-x,-y,-z
-x+y,-x,-z
y,-x+y,-z
x,y,-z
x-y,x,-z
-y,x-y,-z
loop_
_atom_site_type_symbol
_atom_site_label
_atom_site_fract_x
_atom_site_fract_y
_atom_site_fract_z
Si Si1 0.094025 0.733218 0.262251
Si Si2 0.360807 0.266782 0.737749
Si Si3 0.588608 1.000000 0.393298
Si Si4 0.836784 0.333118 0.104533
Si Si5 0.503666 0.666882 0.104533
O O1 0.168933 0.831067 0.284213
O O2 0.086063 0.668421 0.345710
O O3 0.110189 0.697158 0.167939
O O4 0.000000 0.728066 0.252220
O O5 0.417641 0.331579 0.654290
O O6 0.413031 0.302842 0.832061
O O7 0.609396 1.000000 0.500000
O O8 0.500000 0.000000 0.376503
O O9 0.854319 0.427159 0.136259
O O10 0.734124 0.265876 0.113202
O O11 0.868572 0.336542 0.000000
O O12 0.532029 0.663458 0.000000
#
# Coordination Sequence:
#
# PCOD8325395 Si02
#       5
#    12  12  12  12  12
#     4   9  19  32  47  68  93 121 157 196 235 279
#     4   9  19  32  47  68  93 121 157 196 235 279
#     4   9  18  32  51  73  96 122 155 192 231 279
#     4   9  16  26  42  66  97 130 161 193 231 277
#     4   9  16  26  42  66  97 130 161 193 231 277
#
# _framework density 15.097178
#
# number of rings (size 3 to 8) (size 9 to 14) (size 15 to 20)
#    1.200    1.800    0.000    1.600    0.000    3.200 
#    0.000    2.000    0.000    1.200    0.000    0.000 
#    0.000    1.600    0.000   10.000    0.000    0.000 
#
# Total GULP energy -743300.144383 kJ/mol
# GULP energy per Si atom -12388.335740 kJ/mol
# Density = 1.506282 g / cm^3
# Si number density = 15.097178 Si / 1000 Ang^3
#
#
#
# Elastic Constant Matrix: (Units=GPa)
#
#
# Indices 1 2 3 4 5 6 
#
# 1 96.8384 52.4015 40.9398 0.0000 0.0000 0.0000
# 2 52.4015 96.8384 40.9398 0.0000 0.0000 0.0000
# 3 40.9398 40.9398 85.2429 0.0000 0.0000 0.0000
# 4 0.0000 0.0000 0.0000 19.3472 0.0000 0.0000
# 5 0.0000 0.0000 0.0000 0.0000 19.3472 0.0000
# 6 0.0000 0.0000 0.0000 0.0000 0.0000 22.2185
#
#
#
# Elastic Compliance Matrix: (Units=1/GPa)
#
#
# Indices 1 2 3 4 5 6 
#
# 1 0.015801 -0.006703 -0.004369 0.000000 0.000000 0.000000
# 2 -0.006703 0.015801 -0.004369 0.000000 0.000000 0.000000
# 3 -0.004369 -0.004369 0.015928 0.000000 0.000000 0.000000
# 4 0.000000 0.000000 0.000000 0.051687 0.000000 0.000000
# 5 0.000000 0.000000 0.000000 0.000000 0.051687 0.000000
# 6 0.000000 0.000000 0.000000 0.000000 0.000000 0.045008
#
#
# Mechanical properties :
#
#
# Convention : Reuss Voigt Hill
#
# Bulk Modulus (GPa) = 60.07383 60.83130 60.45256
# Shear Modulus (GPa) = 21.51977 21.82513 21.67245
#
# Velocity S-wave (km/s) = 3.77957 3.80629 3.79295
# Velocity P-wave (km/s) = 7.67624 7.72643 7.70137
#
# Compressibility (1/GPa) = 0.01664618
#
# Stress axis : x y z
#
# Youngs Moduli (GPa) = 63.28771 63.28771 62.78148
#
# Poissons Ratio (x) = 0.42421 0.27432
# Poissons Ratio (y) = 0.42421 0.27432
# Poissons Ratio (z) = 0.27653 0.27653
#
# Static dielectric constant tensor:
#      x y z
#    x 2.770360 0.000000 0.000000 
#    y 0.000000 2.770360 0.000000 
#    z 0.000000 0.000000 2.919060 
# 
# 
# High freq. dielectric constant tensor:
#      x y z
#    x 1.559230 0.000000 0.000000 
#    y 0.000000 1.559230 0.000000 
#    z 0.000000 0.000000 1.582340 
# 
# From -- ./inp_files/2440.got.cif
#   From: 2010.03.12/outbox.cif.g09.slc.cpg/sg175_2_cif.got.tgz:2440.got - 2010.04.02 06:55:29.
