data_PCOD8325258
_publ_section_title
;
Structure prediction by ZEFSAII (Michael W. Deem and Ramdas Pophale) SiO2 
 PCOD8325258
Probable space group: P 6/M
;
_chemical_formula_sum "Si O2"
_cell_formula_units_Z 56
_cell_length_a 13.849731
_cell_length_b 13.849731
_cell_length_c 19.113206
_cell_angle_alpha 90.000000
_cell_angle_beta 90.000000
_cell_angle_gamma 120.000000
_cell_volume 3175.022804
_symmetry_space_group_name_H-M "P 6/M"
_symmetry_group_IT_number 175
_symmetry_cell_setting 'hexagonal'
loop_
_space_group_symop_operation_xyz
x,y,z
x-y,x,z
-y,x-y,z
-x,-y,z
-x+y,-x,z
y,-x+y,z
-x,-y,-z
-x+y,-x,-z
y,-x+y,-z
x,y,-z
x-y,x,-z
-y,x-y,-z
loop_
_atom_site_type_symbol
_atom_site_label
_atom_site_fract_x
_atom_site_fract_y
_atom_site_fract_z
Si Si1 0.897437 0.742840 0.579589
Si Si2 0.393724 0.018179 0.219266
Si Si3 0.191638 0.420758 0.703205
Si Si4 0.468676 0.094674 0.924599
Si Si5 0.666668 0.333334 0.883380
Si Si6 0.333333 0.666667 0.283057
O O1 0.830257 0.805720 0.595801
O O2 0.880111 0.699132 0.500000
O O3 0.857247 0.637865 0.629739
O O4 0.405439 0.111648 0.273039
O O5 0.383788 0.059536 0.141086
O O6 0.500000 0.000000 0.224682
O O7 0.280741 0.904289 0.237283
O O8 0.235336 0.549974 0.688574
O O9 0.579502 0.211423 0.910527
O O10 0.500000 0.000000 0.931976
O O11 0.416511 0.102143 0.000000
O O12 0.666668 0.333334 0.800418
#
# Coordination Sequence:
#
# PCOD8325258 Si02
#       6
#    12  12  12  12   4   4
#     4  10  21  38  61  87 114 143 182 239 303 355
#     4  11  22  36  57  83 113 156 195 236 288 345
#     4  12  21  37  58  85 115 150 194 234 284 349
#     4  10  21  34  51  79 110 146 193 239 291 340
#     4  12  19  37  57  79 109 157 194 247 298 340
#     4  12  21  34  59  79 117 160 200 232 279 340
#
# _framework density 17.637667
#
# number of rings (size 3 to 8) (size 9 to 14) (size 15 to 20)
#    0.000    1.071    6.429    2.143    0.000    0.857 
#    0.000    1.071    0.000    3.857    0.000    0.000 
#    0.000    0.000    0.000    3.857    0.000    0.214 
#
# Total GULP energy -694149.436156 kJ/mol
# GULP energy per Si atom -12395.525646 kJ/mol
# Density = 1.759752 g / cm^3
# Si number density = 17.637667 Si / 1000 Ang^3
#
#
#
# Elastic Constant Matrix: (Units=GPa)
#
#
# Indices 1 2 3 4 5 6 
#
# 1 90.5837 41.0878 52.8846 0.0000 0.0000 -0.0005
# 2 41.0878 90.5854 52.8844 0.0000 0.0000 0.0007
# 3 52.8846 52.8844 127.4681 0.0000 0.0000 -0.0001
# 4 0.0000 0.0000 0.0000 33.8517 -0.0001 0.0000
# 5 0.0000 0.0000 0.0000 -0.0001 33.8532 0.0000
# 6 -0.0005 0.0007 -0.0001 0.0000 0.0000 24.7476
#
#
#
# Elastic Compliance Matrix: (Units=1/GPa)
#
#
# Indices 1 2 3 4 5 6 
#
# 1 0.015797 -0.004406 -0.004726 0.000000 0.000000 0.000000
# 2 -0.004406 0.015797 -0.004726 0.000000 0.000000 -0.000001
# 3 -0.004726 -0.004726 0.011766 0.000000 0.000000 0.000000
# 4 0.000000 0.000000 0.000000 0.029541 0.000000 0.000000
# 5 0.000000 0.000000 0.000000 0.000000 0.029539 0.000000
# 6 0.000000 -0.000001 0.000000 0.000000 0.000000 0.040408
#
#
# Mechanical properties :
#
#
# Convention : Reuss Voigt Hill
#
# Bulk Modulus (GPa) = 63.91986 66.92787 65.42387
# Shear Modulus (GPa) = 28.44476 29.27585 28.86031
#
# Velocity S-wave (km/s) = 4.02024 4.07854 4.04949
# Velocity P-wave (km/s) = 7.60716 7.75936 7.68364
#
# Compressibility (1/GPa) = 0.01564459
#
# Stress axis : x y z
#
# Youngs Moduli (GPa) = 63.30213 63.30376 84.98730
#
# Poissons Ratio (x) = 0.27893 0.40165
# Poissons Ratio (y) = 0.27893 0.40163
# Poissons Ratio (z) = 0.29916 0.29916
#
# Static dielectric constant tensor:
#      x y z
#    x 3.398910 0.000010 0.000000 
#    y 0.000010 3.398920 0.000000 
#    z 0.000000 0.000000 3.698970 
# 
# 
# High freq. dielectric constant tensor:
#      x y z
#    x 1.675400 0.000000 0.000000 
#    y 0.000000 1.675400 0.000000 
#    z 0.000000 0.000000 1.689490 
# 
# From -- ./inp_files/2805.got.cif
#   From: 2010.03.12/outbox.cif.g09.slc.cpg/sg175_2_cif.got.tgz:2805.got - 2010.04.02 06:55:29.
