data_PCOD8325663
_publ_section_title
;
Structure prediction by ZEFSAII (Michael W. Deem and Ramdas Pophale) SiO2 
 PCOD8325663
Probable space group: P 63/M
;
_chemical_formula_sum "Si O2"
_cell_formula_units_Z 40
_cell_length_a 16.262344
_cell_length_b 16.262344
_cell_length_c 8.895519
_cell_angle_alpha 90.000000
_cell_angle_beta 90.000000
_cell_angle_gamma 120.000000
_cell_volume 2037.362041
_symmetry_space_group_name_H-M "P 63/M"
_symmetry_group_IT_number 176
_symmetry_cell_setting 'hexagonal'
loop_
_space_group_symop_operation_xyz
x,y,z
x-y,x,1/2+z
-y,x-y,z
-x,-y,1/2+z
-x+y,-x,z
y,-x+y,1/2+z
-x,-y,-z
-x+y,-x,1/2-z
y,-x+y,-z
x,y,1/2-z
x-y,x,-z
-y,x-y,1/2-z
loop_
_atom_site_type_symbol
_atom_site_label
_atom_site_fract_x
_atom_site_fract_y
_atom_site_fract_z
Si Si1 0.418703 0.562584 0.071970
Si Si2 0.613678 0.742234 0.077201
Si Si3 0.333334 0.666667 0.571113
Si Si4 0.703046 0.622241 0.076911
O O1 0.409538 0.557025 0.250000
O O2 0.519497 0.648178 0.017808
O O3 0.335438 0.576151 0.997218
O O4 0.391663 0.459593 0.007065
O O5 0.599410 0.761293 0.250000
O O6 0.699611 0.719675 0.058323
O O7 0.638937 0.836271 0.985461
O O8 0.333334 0.666668 0.750000
O O9 0.693918 0.592459 0.250000
#
# Coordination Sequence:
#
# PCOD8325663 Si02
#       4
#    12  12   4  12
#     4  11  21  36  57  81 117 159 190 229 283 329
#     4  10  23  40  58  83 115 150 189 234 286 338
#     4  12  22  32  52  84 118 155 199 234 265 323
#     4  11  23  38  59  86 113 148 193 235 279 338
#
# _framework density 19.633230000000001
#
# number of rings (size 3 to 8) (size 9 to 14) (size 15 to 20)
#    0.000    1.200    3.000    3.600    0.000    3.600 
#    0.000    0.000    0.000    0.600    0.000    0.000 
#    0.000    0.000    0.000    0.000    0.000    0.000 
#
# Total GULP energy -495925.191715 kJ/mol
# GULP energy per Si atom -12398.129793 kJ/mol
# Density = 1.958854 g / cm^3
# Si number density = 19.633230 Si / 1000 Ang^3
#
#
#
# Elastic Constant Matrix: (Units=GPa)
#
#
# Indices 1 2 3 4 5 6 
#
# 1 90.7211 49.8835 44.7348 0.0000 0.0000 -0.0003
# 2 49.8835 90.7212 44.7346 0.0000 0.0000 0.0006
# 3 44.7348 44.7346 107.9522 0.0000 0.0000 -0.0001
# 4 0.0000 0.0000 0.0000 26.1384 0.0000 0.0000
# 5 0.0000 0.0000 0.0000 0.0000 26.1382 0.0000
# 6 -0.0003 0.0006 -0.0001 0.0000 0.0000 20.4188
#
#
#
# Elastic Compliance Matrix: (Units=1/GPa)
#
#
# Indices 1 2 3 4 5 6 
#
# 1 0.017073 -0.007414 -0.004003 0.000000 0.000000 0.000000
# 2 -0.007414 0.017073 -0.004003 0.000000 0.000000 -0.000001
# 3 -0.004003 -0.004003 0.012581 0.000000 0.000000 0.000000
# 4 0.000000 0.000000 0.000000 0.038258 0.000000 0.000000
# 5 0.000000 0.000000 0.000000 0.000000 0.038258 0.000000
# 6 0.000000 -0.000001 0.000000 0.000000 0.000000 0.048975
#
#
# Mechanical properties :
#
#
# Convention : Reuss Voigt Hill
#
# Bulk Modulus (GPa) = 62.93955 63.12224 63.03089
# Shear Modulus (GPa) = 23.99778 24.54184 24.26981
#
# Velocity S-wave (km/s) = 3.49994 3.53939 3.51972
# Velocity P-wave (km/s) = 6.96132 6.99454 6.97795
#
# Compressibility (1/GPa) = 0.01588826
#
# Stress axis : x y z
#
# Youngs Moduli (GPa) = 58.57132 58.57157 79.48664
#
# Poissons Ratio (x) = 0.43425 0.31816
# Poissons Ratio (y) = 0.43425 0.31816
# Poissons Ratio (z) = 0.23444 0.23444
#
# Static dielectric constant tensor:
#      x y z
#    x 3.530530 0.000000 0.000000 
#    y 0.000000 3.530520 0.000000 
#    z 0.000000 0.000000 3.491590 
# 
# 
# High freq. dielectric constant tensor:
#      x y z
#    x 1.754730 0.000000 0.000000 
#    y 0.000000 1.754730 0.000000 
#    z 0.000000 0.000000 1.768370 
# 
# From -- ./inp_files/491.got.cif
#   From: 2010.06.25/outbox.cif.g09.slc.cpg/sg176_1_cif.got.tgz:491.got - 2010.06.28 12:15:01.
