data_PCOD8325571
_publ_section_title
;
Structure prediction by ZEFSAII (Michael W. Deem and Ramdas Pophale) SiO2 
 PCOD8325571
Probable space group: P 63/M
;
_chemical_formula_sum "Si O2"
_cell_formula_units_Z 52
_cell_length_a 11.444901
_cell_length_b 11.444901
_cell_length_c 23.160254
_cell_angle_alpha 90.000000
_cell_angle_beta 90.000000
_cell_angle_gamma 120.000000
_cell_volume 2627.229611
_symmetry_space_group_name_H-M "P 63/M"
_symmetry_group_IT_number 176
_symmetry_cell_setting 'hexagonal'
loop_
_space_group_symop_operation_xyz
x,y,z
x-y,x,1/2+z
-y,x-y,z
-x,-y,1/2+z
-x+y,-x,z
y,-x+y,1/2+z
-x,-y,-z
-x+y,-x,1/2-z
y,-x+y,-z
x,y,1/2-z
x-y,x,-z
-y,x-y,1/2-z
loop_
_atom_site_type_symbol
_atom_site_label
_atom_site_fract_x
_atom_site_fract_y
_atom_site_fract_z
Si Si1 0.847949 0.152051 0.181513
Si Si2 0.000000 0.000000 0.181619
Si Si3 0.333466 0.934085 0.379297
Si Si4 0.600618 0.934085 0.379297
Si Si5 0.267367 1.000000 0.500000
O O1 0.842200 0.157801 0.250000
O O2 0.930837 0.303219 0.156952
O O3 0.924445 0.075554 0.157770
O O4 0.696781 0.069163 0.156952
O O5 0.000000 0.000000 0.250000
O O6 0.447787 0.895574 0.367590
O O7 0.190457 0.809543 0.358151
O O8 0.330348 0.960674 0.447034
O O9 0.630326 0.960674 0.447033
O O10 0.123563 0.876436 0.518953
#
# Coordination Sequence:
#
# PCOD8325571 Si02
#       5
#    12   4  12  12  12
#     4  11  22  40  65  91 123 161 209 261 308 362
#     4   9  18  36  63  91 113 148 198 258 310 353
#     4  11  23  40  62  91 126 165 205 250 307 370
#     4  11  23  40  62  91 126 165 205 250 307 370
#     4  10  20  36  62  94 124 155 201 258 310 362
#
# _framework density 19.792714
#
# number of rings (size 3 to 8) (size 9 to 14) (size 15 to 20)
#    0.000    1.385    4.615    1.385    0.000    0.923 
#    1.385    0.000    0.000    2.769    0.000    0.000 
#    0.000    0.000    0.000    0.000    0.000    0.000 
#
# Total GULP energy -645059.996573 kJ/mol
# GULP energy per Si atom -12404.999934 kJ/mol
# Density = 1.974766 g / cm^3
# Si number density = 19.792714 Si / 1000 Ang^3
#
#
#
# Elastic Constant Matrix: (Units=GPa)
#
#
# Indices 1 2 3 4 5 6 
#
# 1 103.4914 36.1632 29.3154 0.0000 0.0000 0.0000
# 2 36.1632 103.4914 29.3154 0.0000 0.0000 0.0000
# 3 29.3154 29.3154 80.0155 0.0000 0.0000 0.0000
# 4 0.0000 0.0000 0.0000 23.2347 0.0000 0.0000
# 5 0.0000 0.0000 0.0000 0.0000 23.2347 0.0000
# 6 0.0000 0.0000 0.0000 0.0000 0.0000 33.6641
#
#
#
# Elastic Compliance Matrix: (Units=1/GPa)
#
#
# Indices 1 2 3 4 5 6 
#
# 1 0.011657 -0.003195 -0.003100 0.000000 0.000000 0.000000
# 2 -0.003195 0.011657 -0.003100 0.000000 0.000000 0.000000
# 3 -0.003100 -0.003100 0.014769 0.000000 0.000000 0.000000
# 4 0.000000 0.000000 0.000000 0.043039 0.000000 0.000000
# 5 0.000000 0.000000 0.000000 0.000000 0.043039 0.000000
# 6 0.000000 0.000000 0.000000 0.000000 0.000000 0.029705
#
#
# Mechanical properties :
#
#
# Convention : Reuss Voigt Hill
#
# Bulk Modulus (GPa) = 51.83391 52.95404 52.39397
# Shear Modulus (GPa) = 27.91898 28.84033 28.37966
#
# Velocity S-wave (km/s) = 3.75983 3.82136 3.79072
# Velocity P-wave (km/s) = 6.71518 6.80315 6.75931
#
# Compressibility (1/GPa) = 0.01929239
#
# Stress axis : x y z
#
# Youngs Moduli (GPa) = 85.78269 85.78269 67.70813
#
# Poissons Ratio (x) = 0.27410 0.20991
# Poissons Ratio (y) = 0.27410 0.20991
# Poissons Ratio (z) = 0.26595 0.26595
#
# Static dielectric constant tensor:
#      x y z
#    x 3.494720 0.000000 0.000000 
#    y 0.000000 3.494720 0.000000 
#    z 0.000000 0.000000 3.406930 
# 
# 
# High freq. dielectric constant tensor:
#      x y z
#    x 1.766680 0.000000 0.000000 
#    y 0.000000 1.766680 0.000000 
#    z 0.000000 0.000000 1.769010 
# 
# From -- ./inp_files/3712.got.cif
#   From: 2010.06.25/outbox.cif.g09.slc.cpg/sg176_2_cif.got.tgz:3712.got - 2010.06.28 12:15:01.
