data_PCOD8325899
_publ_section_title
;
Structure prediction by ZEFSAII (Michael W. Deem and Ramdas Pophale) SiO2 
 PCOD8325899
Probable space group: P 61 2 2
;
_chemical_formula_sum "Si O2"
_cell_formula_units_Z 54
_cell_length_a 11.580491
_cell_length_b 11.580491
_cell_length_c 21.317328
_cell_angle_alpha 90.000000
_cell_angle_beta 90.000000
_cell_angle_gamma 120.000000
_cell_volume 2475.810190
_symmetry_space_group_name_H-M "P 61 2 2"
_symmetry_group_IT_number 178
_symmetry_cell_setting 'hexagonal'
loop_
_space_group_symop_operation_xyz
x,y,z
x-y,x,1/6+z
-y,x-y,1/3+z
-x,-y,1/2+z
-x+y,-x,2/3+z
y,-x+y,5/6+z
x-y,-y,-z
-x,-x+y,2/3-z
y,x,1/3-z
-y,-x,5/6-z
-x+y,y,1/2-z
x,x-y,1/6-z
loop_
_atom_site_type_symbol
_atom_site_label
_atom_site_fract_x
_atom_site_fract_y
_atom_site_fract_z
Si Si1 0.124299 0.828966 0.548261
Si Si2 0.900442 0.099559 0.916667
Si Si3 0.828566 0.212411 0.605256
Si Si4 0.211350 0.660863 0.216160
Si Si5 0.727164 0.636500 0.800177
O O1 0.159705 0.862981 0.475670
O O2 0.252788 0.838962 0.580644
O O3 0.987358 0.690991 0.550495
O O4 0.101446 0.939830 0.584049
O O5 0.770270 0.295004 0.642390
O O6 0.818829 0.213562 0.530011
O O7 0.751021 0.064413 0.636787
O O8 0.347544 0.695087 0.250000
O O9 0.103893 0.503603 0.221488
O O10 0.844684 0.689368 0.750000
#
# Coordination Sequence:
#
# PCOD8325899 Si02
#       5
#    12   6  12  12  12
#     4  11  22  43  68 104 134 185 232 299 362 440
#     4  10  22  40  66 102 136 166 234 296 366 416
#     4  12  23  45  76  98 142 192 244 300 368 443
#     4  11  26  46  67 103 141 183 243 282 363 446
#     4  11  26  46  67 107 141 188 242 307 367 436
#
# _framework density 21.811042
#
# number of rings (size 3 to 8) (size 9 to 14) (size 15 to 20)
#    0.000    0.889    4.444    1.333    4.667    0.000 
#   24.000    0.000    0.000    0.000    0.000    0.000 
#    0.000    0.000    0.000    0.000    0.000    0.000 
#
# Total GULP energy -669163.278680 kJ/mol
# GULP energy per Si atom -12391.912568 kJ/mol
# Density = 2.176140 g / cm^3
# Si number density = 21.811042 Si / 1000 Ang^3
#
#
#
# Elastic Constant Matrix: (Units=GPa)
#
#
# Indices 1 2 3 4 5 6 
#
# 1 83.1474 25.0242 18.1490 0.0000 0.0000 0.0000
# 2 25.0242 83.1474 18.1490 0.0000 0.0000 0.0000
# 3 18.1490 18.1490 124.7240 0.0000 0.0000 0.0000
# 4 0.0000 0.0000 0.0000 31.1602 0.0000 0.0000
# 5 0.0000 0.0000 0.0000 0.0000 31.1602 0.0000
# 6 0.0000 0.0000 0.0000 0.0000 0.0000 29.0616
#
#
#
# Elastic Compliance Matrix: (Units=1/GPa)
#
#
# Indices 1 2 3 4 5 6 
#
# 1 0.013462 -0.003743 -0.001414 0.000000 0.000000 0.000000
# 2 -0.003743 0.013462 -0.001414 0.000000 0.000000 0.000000
# 3 -0.001414 -0.001414 0.008429 0.000000 0.000000 0.000000
# 4 0.000000 0.000000 0.000000 0.032092 0.000000 0.000000
# 5 0.000000 0.000000 0.000000 0.000000 0.032092 0.000000
# 6 0.000000 0.000000 0.000000 0.000000 0.000000 0.034410
#
#
# Mechanical properties :
#
#
# Convention : Reuss Voigt Hill
#
# Bulk Modulus (GPa) = 45.02373 45.96259 45.49316
# Shear Modulus (GPa) = 32.36380 33.58952 32.97666
#
# Velocity S-wave (km/s) = 3.85623 3.92857 3.89257
# Velocity P-wave (km/s) = 6.36512 6.45733 6.41139
#
# Compressibility (1/GPa) = 0.02221051
#
# Stress axis : x y z
#
# Youngs Moduli (GPa) = 74.28326 74.28326 118.63398
#
# Poissons Ratio (x) = 0.27803 0.16778
# Poissons Ratio (y) = 0.27803 0.16778
# Poissons Ratio (z) = 0.10506 0.10506
#
# Static dielectric constant tensor:
#      x y z
#    x 3.911570 0.000000 0.000000 
#    y 0.000000 3.911570 0.000000 
#    z 0.000000 0.000000 4.540870 
# 
# 
# High freq. dielectric constant tensor:
#      x y z
#    x 1.846600 0.000000 0.000000 
#    y 0.000000 1.846600 0.000000 
#    z 0.000000 0.000000 1.882800 
# 
# From -- ./inp_files/7409.got.cif
#   From: 2010.03.12/outbox.cif.g09.slc.cpg/sg178_4_cif.got.tgz:7409.got - 2010.04.02 07:02:38.
