data_PCOD8325030
_publ_section_title
;
Structure prediction by ZEFSAII (Michael W. Deem and Ramdas Pophale) SiO2 
 PCOD8325030
Probable space group: P 6/M
;
_chemical_formula_sum "Si O2"
_cell_formula_units_Z 42
_cell_length_a 14.664182
_cell_length_b 14.664182
_cell_length_c 14.174695
_cell_angle_alpha 90.000000
_cell_angle_beta 90.000000
_cell_angle_gamma 120.000000
_cell_volume 2639.733225
_symmetry_space_group_name_H-M "P 6/M"
_symmetry_group_IT_number 175
_symmetry_cell_setting 'hexagonal'
loop_
_space_group_symop_operation_xyz
x,y,z
x-y,x,z
-y,x-y,z
-x,-y,z
-x+y,-x,z
y,-x+y,z
-x,-y,-z
-x+y,-x,-z
y,-x+y,-z
x,y,-z
x-y,x,-z
-y,x-y,-z
loop_
_atom_site_type_symbol
_atom_site_label
_atom_site_fract_x
_atom_site_fract_y
_atom_site_fract_z
Si Si1 0.376168 0.277639 0.606746
Si Si2 0.500000 0.000000 0.668592
Si Si3 0.924493 0.164282 0.106880
Si Si4 0.627213 0.903045 0.720116
O O1 0.343074 0.237446 0.500000
O O2 0.474832 0.397887 0.605351
O O3 0.409801 0.202977 0.660860
O O4 0.278862 0.277937 0.662113
O O5 0.470135 0.074223 0.731515
O O6 0.892078 0.229946 0.175603
O O7 0.041973 0.190924 0.127385
O O8 0.911074 0.193204 0.000000
#
# Coordination Sequence:
#
# PCOD8325030 Si02
#       4
#    12   6  12  12
#     4  10  19  33  52  73 103 138 172 213 261 312
#     4   8  21  34  51  74 106 134 177 214 259 308
#     4  10  18  31  52  77 102 132 169 211 258 310
#     4  10  19  34  52  73 105 135 171 216 264 313
#
# _framework density 15.9107
#
# number of rings (size 3 to 8) (size 9 to 14) (size 15 to 20)
#    1.714    0.571    2.857    1.571    0.000    1.143 
#    1.714    0.714    0.000    0.000    0.000    4.000 
#    0.000    0.000    0.000    0.000    0.000    0.000 
#
# Total GULP energy -520313.271237 kJ/mol
# GULP energy per Si atom -12388.411220 kJ/mol
# Density = 1.587449 g / cm^3
# Si number density = 15.910700 Si / 1000 Ang^3
#
#
#
# Elastic Constant Matrix: (Units=GPa)
#
#
# Indices 1 2 3 4 5 6 
#
# 1 78.6736 30.0273 38.7756 0.0000 0.0000 0.0000
# 2 30.0273 78.6736 38.7756 0.0000 0.0000 0.0000
# 3 38.7756 38.7756 112.4490 0.0000 0.0000 0.0000
# 4 0.0000 0.0000 0.0000 22.8806 0.0000 0.0000
# 5 0.0000 0.0000 0.0000 0.0000 22.8806 0.0000
# 6 0.0000 0.0000 0.0000 0.0000 0.0000 24.3232
#
#
#
# Elastic Compliance Matrix: (Units=1/GPa)
#
#
# Indices 1 2 3 4 5 6 
#
# 1 0.016379 -0.004178 -0.004207 0.000000 0.000000 0.000000
# 2 -0.004178 0.016379 -0.004207 0.000000 0.000000 0.000000
# 3 -0.004207 -0.004207 0.011795 0.000000 0.000000 0.000000
# 4 0.000000 0.000000 0.000000 0.043705 0.000000 0.000000
# 5 0.000000 0.000000 0.000000 0.000000 0.043705 0.000000
# 6 0.000000 0.000000 0.000000 0.000000 0.000000 0.041113
#
#
# Mechanical properties :
#
#
# Convention : Reuss Voigt Hill
#
# Bulk Modulus (GPa) = 51.63245 53.88367 52.75806
# Shear Modulus (GPa) = 24.42405 24.83138 24.62771
#
# Velocity S-wave (km/s) = 3.92225 3.95482 3.93857
# Velocity P-wave (km/s) = 7.28244 7.40229 7.34261
#
# Compressibility (1/GPa) = 0.01936766
#
# Stress axis : x y z
#
# Youngs Moduli (GPa) = 61.05427 61.05427 84.78511
#
# Poissons Ratio (x) = 0.25506 0.35672
# Poissons Ratio (y) = 0.25506 0.35672
# Poissons Ratio (z) = 0.25687 0.25687
#
# Static dielectric constant tensor:
#      x y z
#    x 2.845800 0.000000 0.000000 
#    y 0.000000 2.845800 0.000000 
#    z 0.000000 0.000000 2.919630 
# 
# 
# High freq. dielectric constant tensor:
#      x y z
#    x 1.597560 0.000000 0.000000 
#    y 0.000000 1.597560 0.000000 
#    z 0.000000 0.000000 1.607130 
# 
# From -- ./inp_files/1585.got.cif
#   From: 2010.03.12/outbox.cif.g09.slc.cpg/sg175_1_cif.got.tgz:1585.got - 2010.04.02 06:55:29.
