data_PCOD8325756
_publ_section_title
;
Structure prediction by ZEFSAII (Michael W. Deem and Ramdas Pophale) SiO2 
 PCOD8325756
Probable space group: P 61 2 2
;
_chemical_formula_sum "Si O2"
_cell_formula_units_Z 72
_cell_length_a 13.597317
_cell_length_b 13.597317
_cell_length_c 24.201689
_cell_angle_alpha 90.000000
_cell_angle_beta 90.000000
_cell_angle_gamma 120.000000
_cell_volume 3875.098557
_symmetry_space_group_name_H-M "P 61 2 2"
_symmetry_group_IT_number 178
_symmetry_cell_setting 'hexagonal'
loop_
_space_group_symop_operation_xyz
x,y,z
x-y,x,1/6+z
-y,x-y,1/3+z
-x,-y,1/2+z
-x+y,-x,2/3+z
y,-x+y,5/6+z
x-y,-y,-z
-x,-x+y,2/3-z
y,x,1/3-z
-y,-x,5/6-z
-x+y,y,1/2-z
x,x-y,1/6-z
loop_
_atom_site_type_symbol
_atom_site_label
_atom_site_fract_x
_atom_site_fract_y
_atom_site_fract_z
Si Si1 0.800893 0.199108 0.416667
Si Si2 0.176919 0.438493 0.010067
Si Si3 0.643718 0.287436 0.250000
Si Si4 0.352654 0.964073 0.104983
Si Si5 0.473119 0.038769 0.690578
Si Si6 0.741519 0.272150 0.771189
Si Si7 0.375996 0.848810 0.007441
O O1 0.736573 0.205174 0.470779
O O2 0.931882 0.258924 0.436954
O O3 0.213481 0.563446 0.033068
O O4 0.231919 0.378660 0.046624
O O5 0.040071 0.377278 0.013365
O O6 0.215906 0.444046 0.946828
O O7 0.594622 0.362879 0.225668
O O8 0.452549 0.984209 0.146434
O O9 0.399480 0.961864 0.042221
O O10 0.507389 0.014777 0.750000
O O11 0.498908 0.168014 0.686892
O O12 0.659363 0.318726 0.750000
O O13 0.850482 0.374844 0.802661
#
# Coordination Sequence:
#
# PCOD8325756 Si02
#       7
#     6  12   6  12  12  12  12
#     4  12  24  38  51  80 126 156 191 242 300 370
#     4  11  20  32  52  77 110 150 196 239 285 346
#     4  10  16  26  47  70  96 142 189 224 266 330
#     4  11  24  35  54  84 115 163 197 238 306 364
#     4  11  21  35  54  83 115 156 205 243 288 363
#     4  11  18  34  53  80 111 156 193 238 286 348
#     4  11  20  34  53  77 114 156 188 231 292 351
#
# _framework density 18.580171
#
# number of rings (size 3 to 8) (size 9 to 14) (size 15 to 20)
#    0.000    1.000    6.667    3.500    2.333    0.000 
#    0.000    0.000    0.000    0.000    0.000    0.000 
#    0.000   40.000    0.000    0.000    0.000    0.000 
#
# Total GULP energy -892128.089016 kJ/mol
# GULP energy per Si atom -12390.667903 kJ/mol
# Density = 1.853788 g / cm^3
# Si number density = 18.580171 Si / 1000 Ang^3
#
#
#
# Elastic Constant Matrix: (Units=GPa)
#
#
# Indices 1 2 3 4 5 6 
#
# 1 93.3540 39.8403 29.0409 0.0000 0.0000 0.0000
# 2 39.8403 93.3540 29.0409 0.0000 0.0000 0.0000
# 3 29.0409 29.0409 104.9337 0.0000 0.0000 0.0000
# 4 0.0000 0.0000 0.0000 26.5201 0.0000 0.0000
# 5 0.0000 0.0000 0.0000 0.0000 26.5201 0.0000
# 6 0.0000 0.0000 0.0000 0.0000 0.0000 26.7569
#
#
#
# Elastic Compliance Matrix: (Units=1/GPa)
#
#
# Indices 1 2 3 4 5 6 
#
# 1 0.013613 -0.005074 -0.002363 0.000000 0.000000 0.000000
# 2 -0.005074 0.013613 -0.002363 0.000000 0.000000 0.000000
# 3 -0.002363 -0.002363 0.010838 0.000000 0.000000 0.000000
# 4 0.000000 0.000000 0.000000 0.037707 0.000000 0.000000
# 5 0.000000 0.000000 0.000000 0.000000 0.037707 0.000000
# 6 0.000000 0.000000 0.000000 0.000000 0.000000 0.037374
#
#
# Mechanical properties :
#
#
# Convention : Reuss Voigt Hill
#
# Bulk Modulus (GPa) = 54.16447 54.16507 54.16477
# Shear Modulus (GPa) = 28.31167 28.87405 28.59286
#
# Velocity S-wave (km/s) = 3.90777 3.94639 3.92713
# Velocity P-wave (km/s) = 7.04102 7.06970 7.05537
#
# Compressibility (1/GPa) = 0.01846229
#
# Stress axis : x y z
#
# Youngs Moduli (GPa) = 73.46174 73.46174 92.26989
#
# Poissons Ratio (x) = 0.37276 0.21803
# Poissons Ratio (y) = 0.37276 0.21803
# Poissons Ratio (z) = 0.17359 0.17359
#
# Static dielectric constant tensor:
#      x y z
#    x 3.341270 0.000000 0.000000 
#    y 0.000000 3.341270 0.000000 
#    z 0.000000 0.000000 3.742200 
# 
# 
# High freq. dielectric constant tensor:
#      x y z
#    x 1.690040 0.000000 0.000000 
#    y 0.000000 1.690040 0.000000 
#    z 0.000000 0.000000 1.751430 
# 
# From -- ./inp_files/7703.got.cif
#   From: 2010.03.12/outbox.cif.g09.slc.cpg/sg178_4_cif.got.tgz:7703.got - 2010.04.02 07:02:38.
