data_PCOD8325145
_publ_section_title
;
Structure prediction by ZEFSAII (Michael W. Deem and Ramdas Pophale) SiO2 
 PCOD8325145
Probable space group: P 6/M
;
_chemical_formula_sum "Si O2"
_cell_formula_units_Z 46
_cell_length_a 17.879376
_cell_length_b 17.879376
_cell_length_c 8.816099
_cell_angle_alpha 90.000000
_cell_angle_beta 90.000000
_cell_angle_gamma 120.000000
_cell_volume 2440.685412
_symmetry_space_group_name_H-M "P 6/M"
_symmetry_group_IT_number 175
_symmetry_cell_setting 'hexagonal'
loop_
_space_group_symop_operation_xyz
x,y,z
x-y,x,z
-y,x-y,z
-x,-y,z
-x+y,-x,z
y,-x+y,z
-x,-y,-z
-x+y,-x,-z
y,-x+y,-z
x,y,-z
x-y,x,-z
-y,x-y,-z
loop_
_atom_site_type_symbol
_atom_site_label
_atom_site_fract_x
_atom_site_fract_y
_atom_site_fract_z
Si Si1 0.559465 0.601169 0.325135
Si Si2 0.333334 0.666668 0.679366
Si Si3 0.102945 0.744127 0.332167
Si Si4 0.858603 0.802632 0.500000
Si Si5 0.510896 0.728078 0.822581
O O1 0.500000 0.500000 0.302387
O O2 0.562140 0.629141 0.500000
O O3 0.655623 0.630999 0.265867
O O4 0.519766 0.646602 0.224378
O O5 0.333334 0.666668 0.500000
O O6 0.430389 0.726031 0.738718
O O7 0.128489 0.724922 0.500000
O O8 0.072678 0.815536 0.350366
O O9 0.183991 0.781281 0.220814
O O10 0.840858 0.880998 0.500000
O O11 0.494768 0.725303 0.000000
#
# Coordination Sequence:
#
# PCOD8325145 Si02
#       5
#    12   4  12   6  12
#     4  10  20  36  59  85 114 159 205 242 286 347
#     4  12  25  41  61  81 115 167 211 243 283 341
#     4   9  20  36  59  82 115 156 198 246 285 355
#     4  10  19  34  59  88 116 146 192 248 296 348
#     4  12  24  38  58  87 123 152 193 249 303 355
#
# _framework density 18.847165
#
# number of rings (size 3 to 8) (size 9 to 14) (size 15 to 20)
#    0.783    0.783    0.000    6.391    0.000    3.652 
#    0.000    0.000    0.000    0.000    0.000    0.000 
#    0.000    4.174    0.000    0.000    0.000    0.000 
#
# Total GULP energy -570473.383793 kJ/mol
# GULP energy per Si atom -12401.595300 kJ/mol
# Density = 1.880427 g / cm^3
# Si number density = 18.847165 Si / 1000 Ang^3
#
#
#
# Elastic Constant Matrix: (Units=GPa)
#
#
# Indices 1 2 3 4 5 6 
#
# 1 127.2443 51.0238 35.7334 0.0000 0.0000 0.0008
# 2 51.0238 127.2442 35.7334 0.0000 0.0000 0.0005
# 3 35.7334 35.7334 101.0374 0.0000 0.0000 0.0003
# 4 0.0000 0.0000 0.0000 13.8973 0.0005 0.0000
# 5 0.0000 0.0000 0.0000 0.0005 13.8970 0.0000
# 6 0.0008 0.0005 0.0003 0.0000 0.0000 38.1107
#
#
#
# Elastic Compliance Matrix: (Units=1/GPa)
#
#
# Indices 1 2 3 4 5 6 
#
# 1 0.009828 -0.003292 -0.002312 0.000000 0.000000 0.000000
# 2 -0.003292 0.009828 -0.002312 0.000000 0.000000 0.000000
# 3 -0.002312 -0.002312 0.011532 0.000000 0.000000 0.000000
# 4 0.000000 0.000000 0.000000 0.071957 -0.000003 0.000000
# 5 0.000000 0.000000 0.000000 -0.000003 0.071958 0.000000
# 6 0.000000 0.000000 0.000000 0.000000 0.000000 0.026239
#
#
# Mechanical properties :
#
#
# Convention : Reuss Voigt Hill
#
# Bulk Modulus (GPa) = 65.11114 66.72300 65.91707
# Shear Modulus (GPa) = 22.49296 28.71670 25.60483
#
# Velocity S-wave (km/s) = 3.45837 3.90765 3.68985
# Velocity P-wave (km/s) = 7.11119 7.47252 7.29409
#
# Compressibility (1/GPa) = 0.01535836
#
# Stress axis : x y z
#
# Youngs Moduli (GPa) = 101.74965 101.74954 86.71205
#
# Poissons Ratio (x) = 0.33494 0.20045
# Poissons Ratio (y) = 0.33494 0.20045
# Poissons Ratio (z) = 0.23521 0.23521
#
# Static dielectric constant tensor:
#      x y z
#    x 3.427460 0.000000 0.000000 
#    y 0.000000 3.427470 0.000000 
#    z 0.000000 0.000000 3.175760 
# 
# 
# High freq. dielectric constant tensor:
#      x y z
#    x 1.739540 0.000000 0.000000 
#    y 0.000000 1.739540 0.000000 
#    z 0.000000 0.000000 1.700150 
# 
# From -- ./inp_files/557.got.cif
#   From: 2010.03.12/outbox.cif.g09.slc.cpg/sg175_1_cif.got.tgz:557.got - 2010.04.02 06:55:29.
