data_PCOD8325148
_publ_section_title
;
Structure prediction by ZEFSAII (Michael W. Deem and Ramdas Pophale) SiO2 
 PCOD8325148
Probable space group: P 6/M
;
_chemical_formula_sum "Si O2"
_cell_formula_units_Z 78
_cell_length_a 23.148357
_cell_length_b 23.148357
_cell_length_c 9.291691
_cell_angle_alpha 90.000000
_cell_angle_beta 90.000000
_cell_angle_gamma 120.000000
_cell_volume 4311.870742
_symmetry_space_group_name_H-M "P 6/M"
_symmetry_group_IT_number 175
_symmetry_cell_setting 'hexagonal'
loop_
_space_group_symop_operation_xyz
x,y,z
x-y,x,z
-y,x-y,z
-x,-y,z
-x+y,-x,z
y,-x+y,z
-x,-y,-z
-x+y,-x,-z
y,-x+y,-z
x,y,-z
x-y,x,-z
-y,x-y,-z
loop_
_atom_site_type_symbol
_atom_site_label
_atom_site_fract_x
_atom_site_fract_y
_atom_site_fract_z
Si Si1 0.976082 0.852420 0.000000
Si Si2 0.345494 0.047532 0.666037
Si Si3 0.521265 0.281522 0.831047
Si Si4 0.781224 0.052146 0.158592
Si Si5 0.425611 0.478549 0.664898
Si Si6 0.198259 0.375253 0.168425
Si Si7 0.571707 0.184766 0.828515
O O1 0.919070 0.872173 0.000000
O O2 0.968418 0.807176 0.141330
O O3 0.333810 0.056469 0.500000
O O4 0.398935 0.022420 0.685288
O O5 0.374387 0.118005 0.743198
O O6 0.274715 0.994934 0.731179
O O7 0.443083 0.244831 0.791998
O O8 0.555553 0.240767 0.770475
O O9 0.558313 0.356022 0.766472
O O10 0.532282 0.287749 0.000000
O O11 0.814972 0.127803 0.215261
O O12 0.748836 0.047664 0.000000
O O13 0.500000 0.500000 0.713122
O O14 0.424218 0.499190 0.500000
O O15 0.401079 0.516217 0.767855
O O16 0.212758 0.372047 0.000000
O O17 0.567839 0.179591 0.000000
#
# Coordination Sequence:
#
# PCOD8325148 Si02
#       7
#     6  12  12  12  12  12  12
#     4  10  19  36  60  92 119 152 182 220 266 328
#     4  11  22  37  58  82 112 151 193 236 288 343
#     4   9  18  31  53  80 109 137 181 239 295 337
#     4   9  21  35  58  84 119 149 183 226 283 338
#     4  10  23  40  53  72 110 153 190 234 288 343
#     4  10  19  36  57  84 114 150 185 232 286 342
#     4  10  19  35  56  82 106 139 186 236 290 342
#
# _framework density 18.089596
#
# number of rings (size 3 to 8) (size 9 to 14) (size 15 to 20)
#    0.462    1.692    1.538    1.769    2.154    2.769 
#    0.000    1.538    0.000    0.000    0.000    0.000 
#    0.000    2.462    0.000    0.000    0.000    0.000 
#
# Total GULP energy -967004.021848 kJ/mol
# GULP energy per Si atom -12397.487460 kJ/mol
# Density = 1.804842 g / cm^3
# Si number density = 18.089596 Si / 1000 Ang^3
#
#
#
# Elastic Constant Matrix: (Units=GPa)
#
#
# Indices 1 2 3 4 5 6 
#
# 1 123.1795 50.4405 32.1141 0.0000 0.0000 0.0000
# 2 50.4405 123.1795 32.1141 0.0000 0.0000 0.0000
# 3 32.1141 32.1141 45.9798 0.0000 0.0000 0.0000
# 4 0.0000 0.0000 0.0000 16.0012 0.0000 0.0000
# 5 0.0000 0.0000 0.0000 0.0000 16.0012 0.0000
# 6 0.0000 0.0000 0.0000 0.0000 0.0000 36.3695
#
#
#
# Elastic Compliance Matrix: (Units=1/GPa)
#
#
# Indices 1 2 3 4 5 6 
#
# 1 0.010757 -0.002991 -0.005424 0.000000 0.000000 0.000000
# 2 -0.002991 0.010757 -0.005424 0.000000 0.000000 0.000000
# 3 -0.005424 -0.005424 0.029326 0.000000 0.000000 0.000000
# 4 0.000000 0.000000 0.000000 0.062495 0.000000 0.000000
# 5 0.000000 0.000000 0.000000 0.000000 0.062495 0.000000
# 6 0.000000 0.000000 0.000000 0.000000 0.000000 0.027496
#
#
# Mechanical properties :
#
#
# Convention : Reuss Voigt Hill
#
# Bulk Modulus (GPa) = 43.17561 57.96401 50.56981
# Shear Modulus (GPa) = 20.94459 25.51907 23.23183
#
# Velocity S-wave (km/s) = 3.40637 3.76001 3.58755
# Velocity P-wave (km/s) = 6.27620 7.13880 6.72135
#
# Compressibility (1/GPa) = 0.02316122
#
# Stress axis : x y z
#
# Youngs Moduli (GPa) = 92.96215 92.96215 34.09963
#
# Poissons Ratio (x) = 0.27802 0.18497
# Poissons Ratio (y) = 0.27802 0.18497
# Poissons Ratio (z) = 0.50426 0.50426
#
# Static dielectric constant tensor:
#      x y z
#    x 3.445280 0.000000 0.000000 
#    y 0.000000 3.445280 0.000000 
#    z 0.000000 0.000000 3.055780 
# 
# 
# High freq. dielectric constant tensor:
#      x y z
#    x 1.707470 0.000000 0.000000 
#    y 0.000000 1.707470 0.000000 
#    z 0.000000 0.000000 1.667300 
# 
# From -- ./inp_files/1295.got.cif
#   From: 2010.03.12/outbox.cif.g09.slc.cpg/sg175_1_cif.got.tgz:1295.got - 2010.04.02 06:55:29.
