data_PCOD8325829
_publ_section_title
;
Structure prediction by ZEFSAII (Michael W. Deem and Ramdas Pophale) SiO2 
 PCOD8325829
Probable space group: P 61 2 2
;
_chemical_formula_sum "Si O2"
_cell_formula_units_Z 60
_cell_length_a 14.732702
_cell_length_b 14.732702
_cell_length_c 16.517181
_cell_angle_alpha 90.000000
_cell_angle_beta 90.000000
_cell_angle_gamma 120.000000
_cell_volume 3104.783834
_symmetry_space_group_name_H-M "P 61 2 2"
_symmetry_group_IT_number 178
_symmetry_cell_setting 'hexagonal'
loop_
_space_group_symop_operation_xyz
x,y,z
x-y,x,1/6+z
-y,x-y,1/3+z
-x,-y,1/2+z
-x+y,-x,2/3+z
y,-x+y,5/6+z
x-y,-y,-z
-x,-x+y,2/3-z
y,x,1/3-z
-y,-x,5/6-z
-x+y,y,1/2-z
x,x-y,1/6-z
loop_
_atom_site_type_symbol
_atom_site_label
_atom_site_fract_x
_atom_site_fract_y
_atom_site_fract_z
Si Si1 0.995758 0.315475 0.027293
Si Si2 0.468667 0.354694 0.154182
Si Si3 0.328466 0.838562 0.801854
Si Si4 0.713454 0.901548 0.957192
Si Si5 0.666528 0.143525 0.926974
O O1 0.928352 0.194868 0.055878
O O2 0.057233 0.390333 0.101626
O O3 0.918450 0.353981 0.991146
O O4 0.078950 0.322005 0.962408
O O5 0.362122 0.362122 0.166667
O O6 0.461345 0.254236 0.199347
O O7 0.557085 0.456922 0.197629
O O8 0.503953 0.364242 0.061295
O O9 0.405040 0.810079 0.750000
O O10 0.622602 0.877854 0.020502
O O11 0.815142 0.000000 0.000000
O O12 0.728943 0.271058 0.916667
#
# Coordination Sequence:
#
# PCOD8325829 Si02
#       5
#    12  12  12  12  12
#     4  10  20  34  59  88 114 147 192 239 294 355
#     4  11  23  39  58  79 120 159 192 240 294 354
#     4  11  24  39  57  83 115 158 202 241 289 355
#     4   9  17  32  58  89 116 138 180 244 302 343
#     4   9  17  34  60  87 112 142 184 244 297 337
#
# _framework density 19.325016999999999
#
# number of rings (size 3 to 8) (size 9 to 14) (size 15 to 20)
#    0.000    2.000    0.000    6.600    2.800    0.000 
#    0.000    0.000    0.000    3.600    0.000    0.000 
#    0.000    0.000    0.000    0.000    0.000    0.000 
#
# Total GULP energy -743616.378657 kJ/mol
# GULP energy per Si atom -12393.606311 kJ/mol
# Density = 1.928103 g / cm^3
# Si number density = 19.325017 Si / 1000 Ang^3
#
#
#
# Elastic Constant Matrix: (Units=GPa)
#
#
# Indices 1 2 3 4 5 6 
#
# 1 104.3979 51.4269 26.1503 0.0000 0.0000 0.0000
# 2 51.4269 104.3979 26.1503 0.0000 0.0000 0.0000
# 3 26.1503 26.1503 62.7961 0.0000 0.0000 0.0000
# 4 0.0000 0.0000 0.0000 19.5229 0.0000 0.0000
# 5 0.0000 0.0000 0.0000 0.0000 19.5229 0.0000
# 6 0.0000 0.0000 0.0000 0.0000 0.0000 26.4855
#
#
#
# Elastic Compliance Matrix: (Units=1/GPa)
#
#
# Indices 1 2 3 4 5 6 
#
# 1 0.013169 -0.005709 -0.003107 0.000000 0.000000 0.000000
# 2 -0.005709 0.013169 -0.003107 0.000000 0.000000 0.000000
# 3 -0.003107 -0.003107 0.018512 0.000000 0.000000 0.000000
# 4 0.000000 0.000000 0.000000 0.051222 0.000000 0.000000
# 5 0.000000 0.000000 0.000000 0.000000 0.051222 0.000000
# 6 0.000000 0.000000 0.000000 0.000000 0.000000 0.037757
#
#
# Mechanical properties :
#
#
# Convention : Reuss Voigt Hill
#
# Bulk Modulus (GPa) = 47.60612 53.22743 50.41677
# Shear Modulus (GPa) = 23.15913 24.29719 23.72816
#
# Velocity S-wave (km/s) = 3.46555 3.54968 3.50787
# Velocity P-wave (km/s) = 6.37976 6.66358 6.52322
#
# Compressibility (1/GPa) = 0.02100570
#
# Stress axis : x y z
#
# Youngs Moduli (GPa) = 75.93461 75.93461 54.01911
#
# Poissons Ratio (x) = 0.43351 0.16782
# Poissons Ratio (y) = 0.43351 0.16782
# Poissons Ratio (z) = 0.23590 0.23590
#
# Static dielectric constant tensor:
#      x y z
#    x 3.858830 0.000000 0.000000 
#    y 0.000000 3.858830 0.000000 
#    z 0.000000 0.000000 3.674900 
# 
# 
# High freq. dielectric constant tensor:
#      x y z
#    x 1.743280 0.000000 0.000000 
#    y 0.000000 1.743280 0.000000 
#    z 0.000000 0.000000 1.752390 
# 
# From -- ./inp_files/5674.got.cif
#   From: 2010.03.12/outbox.cif.g09.slc.cpg/sg178_3_cif.got.tgz:5674.got - 2010.04.02 07:02:38.
