data_PCOD8325236
_publ_section_title
;
Structure prediction by ZEFSAII (Michael W. Deem and Ramdas Pophale) SiO2 
 PCOD8325236
Probable space group: P 6/M
;
_chemical_formula_sum "Si O2"
_cell_formula_units_Z 58
_cell_length_a 15.169616
_cell_length_b 15.169616
_cell_length_c 14.966813
_cell_angle_alpha 90.000000
_cell_angle_beta 90.000000
_cell_angle_gamma 120.000000
_cell_volume 2982.697009
_symmetry_space_group_name_H-M "P 6/M"
_symmetry_group_IT_number 175
_symmetry_cell_setting 'hexagonal'
loop_
_space_group_symop_operation_xyz
x,y,z
x-y,x,z
-y,x-y,z
-x,-y,z
-x+y,-x,z
y,-x+y,z
-x,-y,-z
-x+y,-x,-z
y,-x+y,-z
x,y,-z
x-y,x,-z
-y,x-y,-z
loop_
_atom_site_type_symbol
_atom_site_label
_atom_site_fract_x
_atom_site_fract_y
_atom_site_fract_z
Si Si1 0.585400 0.878296 0.668016
Si Si2 0.552352 0.220468 0.500000
Si Si3 0.818789 0.044320 0.898064
Si Si4 0.365183 0.279277 0.269943
Si Si5 0.333334 0.666668 0.897858
Si Si6 0.114899 0.559190 0.187725
O O1 0.508310 0.842506 0.585979
O O2 0.643384 0.815675 0.677713
O O3 0.528123 0.871204 0.759934
O O4 0.675685 0.993925 0.659097
O O5 0.665308 0.232510 0.500000
O O6 0.807734 0.935294 0.881328
O O7 0.747930 0.059987 0.827735
O O8 0.785714 0.052484 0.000000
O O9 0.483336 0.361157 0.257467
O O10 0.388258 0.786410 0.874402
O O11 0.333334 0.666668 0.000000
O O12 0.000000 0.500000 0.141874
#
# Coordination Sequence:
#
# PCOD8325236 Si02
#       6
#    12   6  12  12   4  12
#     4  11  22  41  62  92 124 165 208 260 328 386
#     4  10  24  40  70  97 122 161 207 272 314 388
#     4  10  20  36  60  94 130 168 218 272 323 379
#     4  11  21  37  64  88 127 171 204 262 322 390
#     4  12  24  39  66  88 122 169 216 273 315 384
#     4  10  23  41  61  85 122 163 207 259 324 391
#
# _framework density 19.445488000000001
#
# number of rings (size 3 to 8) (size 9 to 14) (size 15 to 20)
#    0.207    1.241    4.138    1.448    0.000    2.897 
#    0.000    8.793    0.000    0.000    0.000    0.000 
#    0.000    3.310    0.000    0.000    0.000    0.000 
#
# Total GULP energy -718759.833851 kJ/mol
# GULP energy per Si atom -12392.410928 kJ/mol
# Density = 1.940123 g / cm^3
# Si number density = 19.445488 Si / 1000 Ang^3
#
#
#
# Elastic Constant Matrix: (Units=GPa)
#
#
# Indices 1 2 3 4 5 6 
#
# 1 133.0099 40.8348 35.2662 0.0000 0.0000 -0.0002
# 2 40.8348 133.0104 35.2667 0.0000 0.0000 0.0001
# 3 35.2662 35.2667 60.2003 0.0000 0.0000 0.0000
# 4 0.0000 0.0000 0.0000 14.0314 -0.0006 0.0000
# 5 0.0000 0.0000 0.0000 -0.0006 14.0316 0.0000
# 6 -0.0002 0.0001 0.0000 0.0000 0.0000 46.0892
#
#
#
# Elastic Compliance Matrix: (Units=1/GPa)
#
#
# Indices 1 2 3 4 5 6 
#
# 1 0.009197 -0.001652 -0.004420 0.000000 0.000000 0.000000
# 2 -0.001652 0.009197 -0.004420 0.000000 0.000000 0.000000
# 3 -0.004420 -0.004420 0.021790 0.000000 0.000000 0.000000
# 4 0.000000 0.000000 0.000000 0.071269 0.000003 0.000000
# 5 0.000000 0.000000 0.000000 0.000003 0.071268 0.000000
# 6 0.000000 0.000000 0.000000 0.000000 0.000000 0.021697
#
#
# Mechanical properties :
#
#
# Convention : Reuss Voigt Hill
#
# Bulk Modulus (GPa) = 52.08306 60.99508 56.53907
# Shear Modulus (GPa) = 21.57002 29.15397 25.36200
#
# Velocity S-wave (km/s) = 3.33416 3.87624 3.61537
# Velocity P-wave (km/s) = 6.45480 7.17418 6.82398
#
# Compressibility (1/GPa) = 0.01920010
#
# Stress axis : x y z
#
# Youngs Moduli (GPa) = 108.72757 108.72747 45.89193
#
# Poissons Ratio (x) = 0.17957 0.20286
# Poissons Ratio (y) = 0.17957 0.20286
# Poissons Ratio (z) = 0.48062 0.48063
#
# Static dielectric constant tensor:
#      x y z
#    x 3.557670 0.000010 0.000000 
#    y 0.000010 3.557680 0.000000 
#    z 0.000000 0.000000 3.271740 
# 
# 
# High freq. dielectric constant tensor:
#      x y z
#    x 1.770810 0.000000 0.000000 
#    y 0.000000 1.770810 0.000000 
#    z 0.000000 0.000000 1.725840 
# 
# From -- ./inp_files/2414.got.cif
#   From: 2010.03.12/outbox.cif.g09.slc.cpg/sg175_2_cif.got.tgz:2414.got - 2010.04.02 06:55:29.
