data_PCOD8325437
_publ_section_title
;
Structure prediction by ZEFSAII (Michael W. Deem and Ramdas Pophale) SiO2 
 PCOD8325437
Probable space group: P 63/M
;
_chemical_formula_sum "Si O2"
_cell_formula_units_Z 58
_cell_length_a 15.386541
_cell_length_b 15.386541
_cell_length_c 13.778002
_cell_angle_alpha 90.000000
_cell_angle_beta 90.000000
_cell_angle_gamma 120.000000
_cell_volume 2824.872638
_symmetry_space_group_name_H-M "P 63/M"
_symmetry_group_IT_number 176
_symmetry_cell_setting 'hexagonal'
loop_
_space_group_symop_operation_xyz
x,y,z
x-y,x,1/2+z
-y,x-y,z
-x,-y,1/2+z
-x+y,-x,z
y,-x+y,1/2+z
-x,-y,-z
-x+y,-x,1/2-z
y,-x+y,-z
x,y,1/2-z
x-y,x,-z
-y,x-y,1/2-z
loop_
_atom_site_type_symbol
_atom_site_label
_atom_site_fract_x
_atom_site_fract_y
_atom_site_fract_z
Si Si1 0.992106 0.536093 0.361397
Si Si2 0.244605 0.795413 0.862648
Si Si3 0.337579 0.392789 0.535903
Si Si4 0.333334 0.666668 0.864299
Si Si5 0.808773 0.820235 0.044955
Si Si6 0.884243 0.990960 0.750000
O O1 0.026941 0.561922 0.250000
O O2 0.894026 0.544584 0.383894
O O3 0.975470 0.425902 0.384634
O O4 0.073845 0.620798 0.433620
O O5 0.215527 0.792109 0.750000
O O6 0.149584 0.770518 0.930093
O O7 0.256552 0.701681 0.897456
O O8 0.303665 0.274694 0.525372
O O9 0.333334 0.666668 0.750000
O O10 0.836045 0.818761 0.157153
O O11 0.811722 0.923644 0.024176
O O12 0.905243 0.897217 0.750000
#
# Coordination Sequence:
#
# PCOD8325437 Si02
#       6
#    12  12  12   4  12   6
#     4  10  22  41  58  87 127 157 196 259 313 362
#     4  10  18  34  59  87 113 151 199 249 298 356
#     4  11  23  36  62  91 121 158 201 251 313 368
#     4   9  15  27  54  81 106 137 190 240 288 330
#     4  12  23  42  62  94 133 166 212 257 311 375
#     4  10  20  40  66  86 120 182 210 258 308 362
#
# _framework density 20.5319
#
# number of rings (size 3 to 8) (size 9 to 14) (size 15 to 20)
#    0.207    1.241    4.138    2.069    2.897    0.000 
#    3.724    0.000    0.000    1.241    0.000    0.000 
#    0.000    0.000    0.000    0.000    0.000    0.000 
#
# Total GULP energy -718584.521116 kJ/mol
# GULP energy per Si atom -12389.388295 kJ/mol
# Density = 2.048517 g / cm^3
# Si number density = 20.531900 Si / 1000 Ang^3
#
#
#
# Elastic Constant Matrix: (Units=GPa)
#
#
# Indices 1 2 3 4 5 6 
#
# 1 73.3077 15.4094 26.5335 0.0000 0.0000 0.0000
# 2 15.4094 73.3071 26.5332 0.0000 0.0000 0.0001
# 3 26.5335 26.5332 115.7771 0.0000 0.0000 -0.0001
# 4 0.0000 0.0000 0.0000 26.5924 0.0000 0.0000
# 5 0.0000 0.0000 0.0000 0.0000 26.5927 0.0000
# 6 0.0000 0.0001 -0.0001 0.0000 0.0000 28.9489
#
#
#
# Elastic Compliance Matrix: (Units=1/GPa)
#
#
# Indices 1 2 3 4 5 6 
#
# 1 0.015167 -0.002105 -0.002994 0.000000 0.000000 0.000000
# 2 -0.002105 0.015167 -0.002994 0.000000 0.000000 0.000000
# 3 -0.002994 -0.002994 0.010009 0.000000 0.000000 0.000000
# 4 0.000000 0.000000 0.000000 0.037605 0.000000 0.000000
# 5 0.000000 0.000000 0.000000 0.000000 0.037604 0.000000
# 6 0.000000 0.000000 0.000000 0.000000 0.000000 0.034544
#
#
# Mechanical properties :
#
#
# Convention : Reuss Voigt Hill
#
# Bulk Modulus (GPa) = 41.39084 44.37156 42.88120
# Shear Modulus (GPa) = 28.68068 29.35451 29.01760
#
# Velocity S-wave (km/s) = 3.74155 3.78524 3.76346
# Velocity P-wave (km/s) = 6.23447 6.38452 6.30994
#
# Compressibility (1/GPa) = 0.02415993
#
# Stress axis : x y z
#
# Youngs Moduli (GPa) = 65.93239 65.93189 99.90593
#
# Poissons Ratio (x) = 0.13876 0.29908
# Poissons Ratio (y) = 0.13876 0.29908
# Poissons Ratio (z) = 0.19738 0.19737
#
# Static dielectric constant tensor:
#      x y z
#    x 3.513130 0.000020 0.000000 
#    y 0.000020 3.513120 0.000000 
#    z 0.000000 0.000000 3.645670 
# 
# 
# High freq. dielectric constant tensor:
#      x y z
#    x 1.797040 0.000000 0.000000 
#    y 0.000000 1.797040 0.000000 
#    z 0.000000 0.000000 1.796760 
# 
# From -- ./inp_files/2658.got.cif
#   From: 2010.06.25/outbox.cif.g09.slc.cpg/sg176_2_cif.got.tgz:2658.got - 2010.06.28 12:15:01.
