data_PCOD8325855
_publ_section_title
;
Structure prediction by ZEFSAII (Michael W. Deem and Ramdas Pophale) SiO2 
 PCOD8325855
Probable space group: P 61 2 2
;
_chemical_formula_sum "Si O2"
_cell_formula_units_Z 42
_cell_length_a 15.030293
_cell_length_b 15.030293
_cell_length_c 9.600798
_cell_angle_alpha 90.000000
_cell_angle_beta 90.000000
_cell_angle_gamma 120.000000
_cell_volume 1878.334163
_symmetry_space_group_name_H-M "P 61 2 2"
_symmetry_group_IT_number 178
_symmetry_cell_setting 'hexagonal'
loop_
_space_group_symop_operation_xyz
x,y,z
x-y,x,1/6+z
-y,x-y,1/3+z
-x,-y,1/2+z
-x+y,-x,2/3+z
y,-x+y,5/6+z
x-y,-y,-z
-x,-x+y,2/3-z
y,x,1/3-z
-y,-x,5/6-z
-x+y,y,1/2-z
x,x-y,1/6-z
loop_
_atom_site_type_symbol
_atom_site_label
_atom_site_fract_x
_atom_site_fract_y
_atom_site_fract_z
Si Si1 0.442305 0.884610 0.750000
Si Si2 0.970224 0.150509 0.549148
Si Si3 0.335649 0.361307 0.014736
Si Si4 0.728566 0.247346 0.757380
O O1 0.468860 0.818556 0.854484
O O2 0.417816 0.960210 0.836595
O O3 0.895725 0.104276 0.416667
O O4 0.079556 0.158602 0.517163
O O5 0.987911 0.263468 0.587517
O O6 0.310196 0.310196 0.166667
O O7 0.291242 0.438078 0.993508
O O8 0.628276 0.256551 0.750000
O O9 0.758732 0.241269 0.916667
#
# Coordination Sequence:
#
# PCOD8325855 Si02
#       4
#     6  12  12  12
#     4  12  28  40  76  98 138 200 230 304 378 430
#     4  10  20  39  67  98 132 180 236 285 347 430
#     4  12  25  44  70 103 144 188 245 298 366 450
#     4  12  26  47  69 104 144 185 248 307 370 452
#
# _framework density 22.360240999999998
#
# number of rings (size 3 to 8) (size 9 to 14) (size 15 to 20)
#    0.000    0.571    5.714    3.429    0.000    0.000 
#    0.000    7.143    0.000    0.000    0.000    0.000 
#    0.000    0.000    0.000    0.000    0.000    0.000 
#
# Total GULP energy -520792.849714 kJ/mol
# GULP energy per Si atom -12399.829755 kJ/mol
# Density = 2.230935 g / cm^3
# Si number density = 22.360241 Si / 1000 Ang^3
#
#
#
# Elastic Constant Matrix: (Units=GPa)
#
#
# Indices 1 2 3 4 5 6 
#
# 1 194.3582 42.8270 31.0993 0.0000 0.0000 0.0000
# 2 42.8270 194.3582 31.0993 0.0000 0.0000 0.0000
# 3 31.0993 31.0993 83.6510 0.0000 0.0000 0.0000
# 4 0.0000 0.0000 0.0000 13.7379 0.0000 0.0000
# 5 0.0000 0.0000 0.0000 0.0000 13.7379 0.0000
# 6 0.0000 0.0000 0.0000 0.0000 0.0000 75.7656
#
#
#
# Elastic Compliance Matrix: (Units=1/GPa)
#
#
# Indices 1 2 3 4 5 6 
#
# 1 0.005635 -0.000964 -0.001737 0.000000 0.000000 0.000000
# 2 -0.000964 0.005635 -0.001737 0.000000 0.000000 0.000000
# 3 -0.001737 -0.001737 0.013246 0.000000 0.000000 0.000000
# 4 0.000000 0.000000 0.000000 0.072791 0.000000 0.000000
# 5 0.000000 0.000000 0.000000 0.000000 0.072791 0.000000
# 6 0.000000 0.000000 0.000000 0.000000 0.000000 0.013199
#
#
# Mechanical properties :
#
#
# Convention : Reuss Voigt Hill
#
# Bulk Modulus (GPa) = 63.93102 75.82426 69.87764
# Shear Modulus (GPa) = 25.33100 45.13773 35.23437
#
# Velocity S-wave (km/s) = 3.36945 4.49782 3.97389
# Velocity P-wave (km/s) = 6.61748 7.80755 7.23702
#
# Compressibility (1/GPa) = 0.01564186
#
# Stress axis : x y z
#
# Youngs Moduli (GPa) = 177.44874 177.44874 75.49561
#
# Poissons Ratio (x) = 0.17104 0.13112
# Poissons Ratio (y) = 0.17104 0.13112
# Poissons Ratio (z) = 0.30819 0.30819
#
# Static dielectric constant tensor:
#      x y z
#    x 4.319960 0.000000 0.000000 
#    y 0.000000 4.319960 0.000000 
#    z 0.000000 0.000000 4.343940 
# 
# 
# High freq. dielectric constant tensor:
#      x y z
#    x 1.902330 0.000000 0.000000 
#    y 0.000000 1.902330 0.000000 
#    z 0.000000 0.000000 1.849060 
# 
# From -- ./inp_files/3989.got.cif
#   From: 2010.03.12/outbox.cif.g09.slc.cpg/sg178_2_cif.got.tgz:3989.got - 2010.04.02 07:02:38.
