data_PCOD8325612
_publ_section_title
;
Structure prediction by ZEFSAII (Michael W. Deem and Ramdas Pophale) SiO2 
 PCOD8325612
Probable space group: P 63/M
;
_chemical_formula_sum "Si O2"
_cell_formula_units_Z 42
_cell_length_a 15.584236
_cell_length_b 15.584236
_cell_length_c 10.879016
_cell_angle_alpha 90.000000
_cell_angle_beta 90.000000
_cell_angle_gamma 120.000000
_cell_volume 2288.185767
_symmetry_space_group_name_H-M "P 63/M"
_symmetry_group_IT_number 176
_symmetry_cell_setting 'hexagonal'
loop_
_space_group_symop_operation_xyz
x,y,z
x-y,x,1/2+z
-y,x-y,z
-x,-y,1/2+z
-x+y,-x,z
y,-x+y,1/2+z
-x,-y,-z
-x+y,-x,1/2-z
y,-x+y,-z
x,y,1/2-z
x-y,x,-z
-y,x-y,1/2-z
loop_
_atom_site_type_symbol
_atom_site_label
_atom_site_fract_x
_atom_site_fract_y
_atom_site_fract_z
Si Si1 0.915312 0.638957 0.387234
Si Si2 0.593091 0.862597 0.478773
Si Si3 0.470121 0.925850 0.886724
Si Si4 0.458161 0.752182 0.250000
O O1 0.919200 0.679363 0.250000
O O2 0.841821 0.658735 0.470159
O O3 0.870267 0.519498 0.385029
O O4 0.025361 0.695735 0.442146
O O5 0.516791 0.856226 0.585209
O O6 0.527337 0.798547 0.366326
O O7 0.507344 0.975207 0.750000
O O8 0.500000 0.000000 0.000000
O O9 0.368016 0.777040 0.250000
#
# Coordination Sequence:
#
# PCOD8325612 Si02
#       4
#    12  12  12   6
#     4  10  21  38  58  85 122 157 203 258 304 373
#     4  11  20  39  58  87 119 160 209 251 310 363
#     4   9  19  34  56  81 116 156 197 244 299 359
#     4  10  22  36  58  86 124 160 206 254 302 364
#
# _framework density 18.355153999999999
#
# number of rings (size 3 to 8) (size 9 to 14) (size 15 to 20)
#    0.286    1.714    1.429    2.571    2.000    0.000 
#   14.571    0.000    0.000    0.571    0.000    0.000 
#    0.000    0.000    0.000    0.000    0.000    0.000 
#
# Total GULP energy -520301.754753 kJ/mol
# GULP energy per Si atom -12388.137018 kJ/mol
# Density = 1.831338 g / cm^3
# Si number density = 18.355154 Si / 1000 Ang^3
#
#
#
# Elastic Constant Matrix: (Units=GPa)
#
#
# Indices 1 2 3 4 5 6 
#
# 1 92.7915 50.0519 51.7888 0.0000 0.0000 0.0000
# 2 50.0519 92.7915 51.7888 0.0000 0.0000 0.0000
# 3 51.7888 51.7888 157.9604 0.0000 0.0000 0.0000
# 4 0.0000 0.0000 0.0000 19.3587 0.0000 0.0000
# 5 0.0000 0.0000 0.0000 0.0000 19.3587 0.0000
# 6 0.0000 0.0000 0.0000 0.0000 0.0000 21.3698
#
#
#
# Elastic Compliance Matrix: (Units=1/GPa)
#
#
# Indices 1 2 3 4 5 6 
#
# 1 0.016291 -0.007107 -0.003011 0.000000 0.000000 0.000000
# 2 -0.007107 0.016291 -0.003011 0.000000 0.000000 0.000000
# 3 -0.003011 -0.003011 0.008305 0.000000 0.000000 0.000000
# 4 0.000000 0.000000 0.000000 0.051656 0.000000 0.000000
# 5 0.000000 0.000000 0.000000 0.000000 0.051656 0.000000
# 6 0.000000 0.000000 0.000000 0.000000 0.000000 0.046795
#
#
# Mechanical properties :
#
#
# Convention : Reuss Voigt Hill
#
# Bulk Modulus (GPa) = 68.35780 72.31136 70.33458
# Shear Modulus (GPa) = 22.50952 24.67839 23.59395
#
# Velocity S-wave (km/s) = 3.50570 3.67071 3.58916
# Velocity P-wave (km/s) = 7.32866 7.57936 7.45506
#
# Compressibility (1/GPa) = 0.01462891
#
# Stress axis : x y z
#
# Youngs Moduli (GPa) = 61.38442 61.38442 120.40777
#
# Poissons Ratio (x) = 0.43624 0.36256
# Poissons Ratio (y) = 0.43624 0.36256
# Poissons Ratio (z) = 0.18483 0.18483
#
# Static dielectric constant tensor:
#      x y z
#    x 3.283210 0.000000 0.000000 
#    y 0.000000 3.283210 0.000000 
#    z 0.000000 0.000000 3.951190 
# 
# 
# High freq. dielectric constant tensor:
#      x y z
#    x 1.684540 0.000000 0.000000 
#    y 0.000000 1.684540 0.000000 
#    z 0.000000 0.000000 1.736410 
# 
# From -- ./inp_files/1603.got.cif
#   From: 2010.06.25/outbox.cif.g09.slc.cpg/sg176_1_cif.got.tgz:1603.got - 2010.06.28 12:15:01.
