data_PCOD8325802
_publ_section_title
;
Structure prediction by ZEFSAII (Michael W. Deem and Ramdas Pophale) SiO2 
 PCOD8325802
Probable space group: P 61 2 2
;
_chemical_formula_sum "Si O2"
_cell_formula_units_Z 36
_cell_length_a 20.882916
_cell_length_b 20.882916
_cell_length_c 5.083363
_cell_angle_alpha 90.000000
_cell_angle_beta 90.000000
_cell_angle_gamma 120.000000
_cell_volume 1919.835590
_symmetry_space_group_name_H-M "P 61 2 2"
_symmetry_group_IT_number 178
_symmetry_cell_setting 'hexagonal'
loop_
_space_group_symop_operation_xyz
x,y,z
x-y,x,1/6+z
-y,x-y,1/3+z
-x,-y,1/2+z
-x+y,-x,2/3+z
y,-x+y,5/6+z
x-y,-y,-z
-x,-x+y,2/3-z
y,x,1/3-z
-y,-x,5/6-z
-x+y,y,1/2-z
x,x-y,1/6-z
loop_
_atom_site_type_symbol
_atom_site_label
_atom_site_fract_x
_atom_site_fract_y
_atom_site_fract_z
Si Si1 0.440024 0.794483 0.010246
Si Si2 0.877740 0.272587 0.907145
Si Si3 0.077700 0.771688 0.909355
O O1 0.410221 0.820443 0.250000
O O2 0.434544 0.717272 0.083334
O O3 0.524316 0.861322 0.983567
O O4 0.392521 0.785041 0.750000
O O5 0.800876 0.199125 0.916667
O O6 0.930578 0.266230 0.691556
O O7 0.910890 0.280171 0.198476
O O8 0.142874 0.857127 0.916667
O O9 0.000000 0.767471 0.833334
#
# Coordination Sequence:
#
# PCOD8325802 Si02
#       3
#    12  12  12
#     4  11  20  31  48  71 100 133 174 221 268 308
#     4   9  19  33  50  73 101 135 171 209 250 294
#     4  10  19  34  56  80 102 128 164 204 246 294
#
# _framework density 18.751605000000001
#
# number of rings (size 3 to 8) (size 9 to 14) (size 15 to 20)
#    0.000    2.000    0.000    5.000    0.000    5.333 
#    0.000    0.000    0.000   20.000    0.000    7.000 
#    0.000    0.000    0.000    0.000    0.000    0.000 
#
# Total GULP energy -446098.861817 kJ/mol
# GULP energy per Si atom -12391.635050 kJ/mol
# Density = 1.870893 g / cm^3
# Si number density = 18.751605 Si / 1000 Ang^3
#
#
#
# Elastic Constant Matrix: (Units=GPa)
#
#
# Indices 1 2 3 4 5 6 
#
# 1 74.2679 57.2242 36.0451 0.0000 0.0000 0.0000
# 2 57.2242 74.2679 36.0451 0.0000 0.0000 0.0000
# 3 36.0451 36.0451 132.4678 0.0000 0.0000 0.0000
# 4 0.0000 0.0000 0.0000 24.2583 0.0000 0.0000
# 5 0.0000 0.0000 0.0000 0.0000 24.2583 0.0000
# 6 0.0000 0.0000 0.0000 0.0000 0.0000 8.5219
#
#
#
# Elastic Compliance Matrix: (Units=1/GPa)
#
#
# Indices 1 2 3 4 5 6 
#
# 1 0.033806 -0.024867 -0.002432 0.000000 0.000000 0.000000
# 2 -0.024867 0.033806 -0.002432 0.000000 0.000000 0.000000
# 3 -0.002432 -0.002432 0.008873 0.000000 0.000000 0.000000
# 4 0.000000 0.000000 0.000000 0.041223 0.000000 0.000000
# 5 0.000000 0.000000 0.000000 0.000000 0.041223 0.000000
# 6 0.000000 0.000000 0.000000 0.000000 0.000000 0.117345
#
#
# Mechanical properties :
#
#
# Convention : Reuss Voigt Hill
#
# Bulk Modulus (GPa) = 58.75174 59.95914 59.35544
# Shear Modulus (GPa) = 14.64507 21.52031 18.08269
#
# Velocity S-wave (km/s) = 2.79768 3.39138 3.10873
# Velocity P-wave (km/s) = 6.46804 6.88332 6.67891
#
# Compressibility (1/GPa) = 0.01702077
#
# Stress axis : x y z
#
# Youngs Moduli (GPa) = 29.58091 29.58091 112.70616
#
# Poissons Ratio (x) = 0.73559 0.27412
# Poissons Ratio (y) = 0.73559 0.27412
# Poissons Ratio (z) = 0.07195 0.07195
#
# Static dielectric constant tensor:
#      x y z
#    x 3.497520 0.000000 0.000000 
#    y 0.000000 3.497520 0.000000 
#    z 0.000000 0.000000 4.825620 
# 
# 
# High freq. dielectric constant tensor:
#      x y z
#    x 1.705690 0.000000 0.000000 
#    y 0.000000 1.705690 0.000000 
#    z 0.000000 0.000000 1.753030 
# 
# From -- ./inp_files/512.got.cif
#   From: 2010.03.12/outbox.cif.g09.slc.cpg/sg178_1_cif.got.tgz:512.got - 2010.04.02 07:02:38.
