data_PCOD8325354
_publ_section_title
;
Structure prediction by ZEFSAII (Michael W. Deem and Ramdas Pophale) SiO2 
 PCOD8325354
Probable space group: P 6/M
;
_chemical_formula_sum "Si O2"
_cell_formula_units_Z 66
_cell_length_a 19.331673
_cell_length_b 19.331673
_cell_length_c 9.738243
_cell_angle_alpha 90.000000
_cell_angle_beta 90.000000
_cell_angle_gamma 120.000000
_cell_volume 3151.738085
_symmetry_space_group_name_H-M "P 6/M"
_symmetry_group_IT_number 175
_symmetry_cell_setting 'hexagonal'
loop_
_space_group_symop_operation_xyz
x,y,z
x-y,x,z
-y,x-y,z
-x,-y,z
-x+y,-x,z
y,-x+y,z
-x,-y,-z
-x+y,-x,-z
y,-x+y,-z
x,y,-z
x-y,x,-z
-y,x-y,-z
loop_
_atom_site_type_symbol
_atom_site_label
_atom_site_fract_x
_atom_site_fract_y
_atom_site_fract_z
Si Si1 0.521094 0.088917 0.146208
Si Si2 0.380751 0.037667 0.661500
Si Si3 0.854656 0.198439 0.157209
Si Si4 0.072819 0.174332 0.838781
Si Si5 0.568952 0.313652 0.500000
Si Si6 0.538533 0.685095 0.738399
O O1 0.470330 0.089668 0.276165
O O2 0.615534 0.143251 0.167880
O O3 0.500000 0.000000 0.124180
O O4 0.500092 0.116776 0.000000
O O5 0.384867 0.056400 0.500000
O O6 0.334189 0.074480 0.742527
O O7 0.340866 0.942250 0.681992
O O8 0.844125 0.112193 0.191133
O O9 0.767418 0.186711 0.178225
O O10 0.882859 0.224532 0.000000
O O11 0.127892 0.142268 0.771052
O O12 0.066130 0.158191 0.000000
O O13 0.598138 0.247593 0.500000
O O14 0.511592 0.300224 0.625446
#
# Coordination Sequence:
#
# PCOD8325354 Si02
#       6
#    12  12  12  12   6  12
#     4   9  20  37  61  90 122 161 209 260 316 383
#     4  11  24  39  63  95 128 169 220 272 329 404
#     4  11  24  39  62  94 133 173 218 274 333 395
#     4   9  17  32  56  88 125 166 210 259 317 385
#     4  10  26  44  65  95 127 166 217 270 327 402
#     4  11  23  41  67  90 129 171 215 270 338 390
#
# _framework density 20.940825
#
# number of rings (size 3 to 8) (size 9 to 14) (size 15 to 20)
#    0.182    1.636    0.909    2.364    5.091    5.455 
#    0.000    0.000    0.000    0.000    0.000    0.000 
#    0.000    2.909    0.000    0.000    0.000    0.000 
#
# Total GULP energy -817640.787097 kJ/mol
# GULP energy per Si atom -12388.496774 kJ/mol
# Density = 2.089316 g / cm^3
# Si number density = 20.940825 Si / 1000 Ang^3
#
#
#
# Elastic Constant Matrix: (Units=GPa)
#
#
# Indices 1 2 3 4 5 6 
#
# 1 96.2714 17.4345 25.6966 0.0000 0.0000 0.0000
# 2 17.4345 96.2714 25.6966 0.0000 0.0000 0.0000
# 3 25.6966 25.6966 128.3221 0.0000 0.0000 0.0000
# 4 0.0000 0.0000 0.0000 21.4423 0.0000 0.0000
# 5 0.0000 0.0000 0.0000 0.0000 21.4423 0.0000
# 6 0.0000 0.0000 0.0000 0.0000 0.0000 39.4184
#
#
#
# Elastic Compliance Matrix: (Units=1/GPa)
#
#
# Indices 1 2 3 4 5 6 
#
# 1 0.011177 -0.001507 -0.001936 0.000000 0.000000 0.000000
# 2 -0.001507 0.011177 -0.001936 0.000000 0.000000 0.000000
# 3 -0.001936 -0.001936 0.008568 0.000000 0.000000 0.000000
# 4 0.000000 0.000000 0.000000 0.046637 0.000000 0.000000
# 5 0.000000 0.000000 0.000000 0.000000 0.046637 0.000000
# 6 0.000000 0.000000 0.000000 0.000000 0.000000 0.025369
#
#
# Mechanical properties :
#
#
# Convention : Reuss Voigt Hill
#
# Bulk Modulus (GPa) = 49.59696 50.94669 50.27183
# Shear Modulus (GPa) = 29.93182 33.26306 31.59744
#
# Velocity S-wave (km/s) = 3.78478 3.98984 3.88866
# Velocity P-wave (km/s) = 6.54486 6.75328 6.64988
#
# Compressibility (1/GPa) = 0.02016252
#
# Stress axis : x y z
#
# Youngs Moduli (GPa) = 89.46840 89.46840 116.70763
#
# Poissons Ratio (x) = 0.13485 0.22599
# Poissons Ratio (y) = 0.13485 0.22599
# Poissons Ratio (z) = 0.17325 0.17325
#
# Static dielectric constant tensor:
#      x y z
#    x 3.962070 0.000000 0.000000 
#    y 0.000000 3.962070 0.000000 
#    z 0.000000 0.000000 4.535590 
# 
# 
# High freq. dielectric constant tensor:
#      x y z
#    x 1.822880 0.000000 0.000000 
#    y 0.000000 1.822880 0.000000 
#    z 0.000000 0.000000 1.798820 
# 
# From -- ./inp_files/990.got.cif
#   From: 2010.03.12/outbox.cif.g09.slc.cpg/sg175_1_cif.got.tgz:990.got - 2010.04.02 06:55:29.
