data_PCOD8325117
_publ_section_title
;
Structure prediction by ZEFSAII (Michael W. Deem and Ramdas Pophale) SiO2 
 PCOD8325117
Probable space group: P 6/M
;
_chemical_formula_sum "Si O2"
_cell_formula_units_Z 64
_cell_length_a 16.639261
_cell_length_b 16.639261
_cell_length_c 15.463904
_cell_angle_alpha 90.000000
_cell_angle_beta 90.000000
_cell_angle_gamma 120.000000
_cell_volume 3707.813187
_symmetry_space_group_name_H-M "P 6/M"
_symmetry_group_IT_number 175
_symmetry_cell_setting 'hexagonal'
loop_
_space_group_symop_operation_xyz
x,y,z
x-y,x,z
-y,x-y,z
-x,-y,z
-x+y,-x,z
y,-x+y,z
-x,-y,-z
-x+y,-x,-z
y,-x+y,-z
x,y,-z
x-y,x,-z
-y,x-y,-z
loop_
_atom_site_type_symbol
_atom_site_label
_atom_site_fract_x
_atom_site_fract_y
_atom_site_fract_z
Si Si1 0.630931 0.145818 0.901428
Si Si2 0.215491 0.110488 0.000000
Si Si3 0.333335 0.666667 0.101987
Si Si4 0.194320 0.017571 0.601815
Si Si5 0.652172 0.803938 0.841168
Si Si6 0.500000 0.500000 0.232149
Si Si7 0.692691 0.662777 0.733894
O O1 0.614981 0.227867 0.867518
O O2 0.739932 0.181237 0.894397
O O3 0.575775 0.068936 0.832978
O O4 0.597144 0.113866 0.000000
O O5 0.149977 0.152522 0.000000
O O6 0.272439 0.137044 0.912009
O O7 0.333334 0.666668 0.000000
O O8 0.208569 0.018587 0.500000
O O9 0.103016 0.922607 0.631373
O O10 0.287275 0.026934 0.643793
O O11 0.679254 0.737865 0.787706
O O12 0.637080 0.874265 0.781459
O O13 0.404236 0.436122 0.286292
#
# Coordination Sequence:
#
# PCOD8325117 Si02
#       7
#    12   6   4  12  12   6  12
#     4  10  19  33  49  71  98 140 185 239 281 320
#     4  12  23  36  48  74 108 152 196 227 270 332
#     4   9  18  30  45  66  93 117 169 227 292 315
#     4  10  20  36  62  94 123 149 181 226 284 352
#     4  11  21  33  54  72 108 146 185 233 280 333
#     4  10  23  34  51  74 104 140 192 234 277 323
#     4  11  21  37  54  81 109 144 189 234 286 343
#
# _framework density 17.260847999999999
#
# number of rings (size 3 to 8) (size 9 to 14) (size 15 to 20)
#    0.000    1.500    4.688    1.688    0.000    0.750 
#    1.688    0.469    0.000    0.000    0.000    0.000 
#    0.000    0.000    0.000    0.000    0.000    0.000 
#
# Total GULP energy -792846.121730 kJ/mol
# GULP energy per Si atom -12388.220652 kJ/mol
# Density = 1.722156 g / cm^3
# Si number density = 17.260848 Si / 1000 Ang^3
#
#
#
# Elastic Constant Matrix: (Units=GPa)
#
#
# Indices 1 2 3 4 5 6 
#
# 1 112.0295 23.3034 27.4720 0.0000 0.0000 -0.0058
# 2 23.3034 112.0253 27.4724 0.0000 0.0000 0.0025
# 3 27.4720 27.4724 48.6110 0.0000 0.0000 -0.0006
# 4 0.0000 0.0000 0.0000 24.6517 -0.0001 0.0000
# 5 0.0000 0.0000 0.0000 -0.0001 24.6516 0.0000
# 6 -0.0058 0.0025 -0.0006 0.0000 0.0000 44.3725
#
#
#
# Elastic Compliance Matrix: (Units=1/GPa)
#
#
# Indices 1 2 3 4 5 6 
#
# 1 0.010430 -0.000841 -0.005419 0.000000 0.000000 0.000001
# 2 -0.000841 0.010431 -0.005420 0.000000 0.000000 -0.000001
# 3 -0.005419 -0.005420 0.026697 0.000000 0.000000 0.000000
# 4 0.000000 0.000000 0.000000 0.040565 0.000000 0.000000
# 5 0.000000 0.000000 0.000000 0.000000 0.040565 0.000000
# 6 0.000001 -0.000001 0.000000 0.000000 0.000000 0.022536
#
#
# Mechanical properties :
#
#
# Convention : Reuss Voigt Hill
#
# Bulk Modulus (GPa) = 41.32526 47.68459 44.50492
# Shear Modulus (GPa) = 27.37479 31.69639 29.53559
#
# Velocity S-wave (km/s) = 3.98672 4.28988 4.14107
# Velocity P-wave (km/s) = 6.72201 7.22656 6.97885
#
# Compressibility (1/GPa) = 0.02419828
#
# Stress axis : x y z
#
# Youngs Moduli (GPa) = 95.87718 95.87259 37.45732
#
# Poissons Ratio (x) = 0.08059 0.20299
# Poissons Ratio (y) = 0.08060 0.20301
# Poissons Ratio (z) = 0.51959 0.51960
#
# Static dielectric constant tensor:
#      x y z
#    x 3.421220 0.000000 0.000000 
#    y 0.000000 3.421220 0.000000 
#    z 0.000000 0.000000 2.961740 
# 
# 
# High freq. dielectric constant tensor:
#      x y z
#    x 1.678700 0.000000 0.000000 
#    y 0.000000 1.678700 0.000000 
#    z 0.000000 0.000000 1.634940 
# 
# From -- ./inp_files/2856.got.cif
#   From: 2010.03.12/outbox.cif.g09.slc.cpg/sg175_2_cif.got.tgz:2856.got - 2010.04.02 06:55:29.
