data_PCOD8325925
_publ_section_title
;
Structure prediction by ZEFSAII (Michael W. Deem and Ramdas Pophale) SiO2 
 PCOD8325925
Probable space group: P 61 2 2
;
_chemical_formula_sum "Si O2"
_cell_formula_units_Z 48
_cell_length_a 14.209026
_cell_length_b 14.209026
_cell_length_c 13.180938
_cell_angle_alpha 90.000000
_cell_angle_beta 90.000000
_cell_angle_gamma 120.000000
_cell_volume 2304.653115
_symmetry_space_group_name_H-M "P 61 2 2"
_symmetry_group_IT_number 178
_symmetry_cell_setting 'hexagonal'
loop_
_space_group_symop_operation_xyz
x,y,z
x-y,x,1/6+z
-y,x-y,1/3+z
-x,-y,1/2+z
-x+y,-x,2/3+z
y,-x+y,5/6+z
x-y,-y,-z
-x,-x+y,2/3-z
y,x,1/3-z
-y,-x,5/6-z
-x+y,y,1/2-z
x,x-y,1/6-z
loop_
_atom_site_type_symbol
_atom_site_label
_atom_site_fract_x
_atom_site_fract_y
_atom_site_fract_z
Si Si1 0.432428 0.964789 0.111423
Si Si2 0.995272 0.151732 0.994862
Si Si3 0.726657 0.289090 0.171298
Si Si4 0.051274 0.395910 0.023865
O O1 0.330980 0.845104 0.117459
O O2 0.544986 0.963496 0.132884
O O3 0.419436 0.045503 0.190026
O O4 0.423641 0.000000 0.000000
O O5 0.033887 0.276987 0.010140
O O6 0.954727 0.088052 0.103846
O O7 0.894323 0.105678 0.916667
O O8 0.646151 0.292301 0.250000
O O9 0.734833 0.367417 0.083334
O O10 0.684193 0.165402 0.138828
#
# Coordination Sequence:
#
# PCOD8325925 Si02
#       4
#    12  12  12  12
#     4  11  24  42  65  98 146 178 230 289 344 423
#     4  10  23  43  75 102 138 180 241 307 357 420
#     4  12  24  42  70 100 139 186 228 281 350 414
#     4  11  23  45  67 106 140 183 241 286 351 434
#
# _framework density 20.827428999999999
#
# number of rings (size 3 to 8) (size 9 to 14) (size 15 to 20)
#    0.000    1.000    5.000    3.000    3.500    1.000 
#    0.000    0.000   55.000    0.000    0.000    0.000 
#    0.000    0.000    0.000    0.000    0.000    0.000 
#
# Total GULP energy -594857.221351 kJ/mol
# GULP energy per Si atom -12392.858778 kJ/mol
# Density = 2.078002 g / cm^3
# Si number density = 20.827429 Si / 1000 Ang^3
#
#
#
# Elastic Constant Matrix: (Units=GPa)
#
#
# Indices 1 2 3 4 5 6 
#
# 1 102.4769 23.2989 37.4495 0.0000 0.0000 0.0000
# 2 23.2989 102.4769 37.4495 0.0000 0.0000 0.0000
# 3 37.4495 37.4495 85.4249 0.0000 0.0000 0.0000
# 4 0.0000 0.0000 0.0000 125.9492 0.0000 0.0000
# 5 0.0000 0.0000 0.0000 0.0000 125.9492 0.0000
# 6 0.0000 0.0000 0.0000 0.0000 0.0000 39.5890
#
#
#
# Elastic Compliance Matrix: (Units=1/GPa)
#
#
# Indices 1 2 3 4 5 6 
#
# 1 0.011695 -0.000935 -0.004717 0.000000 0.000000 0.000000
# 2 -0.000935 0.011695 -0.004717 0.000000 0.000000 0.000000
# 3 -0.004717 -0.004717 0.015842 0.000000 0.000000 0.000000
# 4 0.000000 0.000000 0.000000 0.007940 0.000000 0.000000
# 5 0.000000 0.000000 0.000000 0.000000 0.007940 0.000000
# 6 0.000000 0.000000 0.000000 0.000000 0.000000 0.025260
#
#
# Mechanical properties :
#
#
# Convention : Reuss Voigt Hill
#
# Bulk Modulus (GPa) = 54.07330 54.08604 54.07967
# Shear Modulus (GPa) = 46.61031 71.10952 58.85991
#
# Velocity S-wave (km/s) = 4.73581 5.84948 5.32185
# Velocity P-wave (km/s) = 7.47815 8.46445 7.98654
#
# Compressibility (1/GPa) = 0.01849342
#
# Stress axis : x y z
#
# Youngs Moduli (GPa) = 85.50910 85.50910 63.12386
#
# Poissons Ratio (x) = 0.07996 0.29775
# Poissons Ratio (y) = 0.07996 0.29775
# Poissons Ratio (z) = 0.40334 0.40334
#
# Static dielectric constant tensor:
#      x y z
#    x 2.692830 0.000000 0.000000 
#    y 0.000000 2.692830 0.000000 
#    z 0.000000 0.000000 3.809440 
# 
# 
# High freq. dielectric constant tensor:
#      x y z
#    x 1.819170 0.000000 0.000000 
#    y 0.000000 1.819170 0.000000 
#    z 0.000000 0.000000 1.811560 
# 
# From -- ./inp_files/4108.got.cif
#   From: 2010.03.12/outbox.cif.g09.slc.cpg/sg178_3_cif.got.tgz:4108.got - 2010.04.02 07:02:38.
