data_PCOD8325940
_publ_section_title
;
Structure prediction by ZEFSAII (Michael W. Deem and Ramdas Pophale) SiO2 
 PCOD8325940
Probable space group: P 61 2 2
;
_chemical_formula_sum "Si O2"
_cell_formula_units_Z 54
_cell_length_a 14.145520
_cell_length_b 14.145520
_cell_length_c 14.988218
_cell_angle_alpha 90.000000
_cell_angle_beta 90.000000
_cell_angle_gamma 120.000000
_cell_volume 2597.278180
_symmetry_space_group_name_H-M "P 61 2 2"
_symmetry_group_IT_number 178
_symmetry_cell_setting 'hexagonal'
loop_
_space_group_symop_operation_xyz
x,y,z
x-y,x,1/6+z
-y,x-y,1/3+z
-x,-y,1/2+z
-x+y,-x,2/3+z
y,-x+y,5/6+z
x-y,-y,-z
-x,-x+y,2/3-z
y,x,1/3-z
-y,-x,5/6-z
-x+y,y,1/2-z
x,x-y,1/6-z
loop_
_atom_site_type_symbol
_atom_site_label
_atom_site_fract_x
_atom_site_fract_y
_atom_site_fract_z
Si Si1 0.125215 0.125215 0.666667
Si Si2 0.296651 0.569344 0.647354
Si Si3 0.181769 0.845753 0.240835
Si Si4 0.752097 0.504194 0.750000
Si Si5 0.000000 0.118329 0.333334
Si Si6 0.225978 0.905882 0.779910
O O1 0.081637 0.040819 0.583334
O O2 0.136782 0.237305 0.635371
O O3 0.299886 0.599771 0.750000
O O4 0.240425 0.620213 0.583334
O O5 0.224154 0.440529 0.635384
O O6 0.425615 0.628141 0.620351
O O7 0.123313 0.770852 0.155822
O O8 0.277045 0.965243 0.208598
O O9 0.837851 0.574981 0.674154
O O10 0.035097 0.070193 0.250000
O O11 0.102097 0.233061 0.360679
#
# Coordination Sequence:
#
# PCOD8325940 Si02
#       6
#     6  12  12   6   6  12
#     4  12  26  47  67 106 152 204 243 296 361 444
#     4  10  24  49  75  97 139 184 239 301 363 420
#     4  12  25  42  71 106 149 184 242 290 361 439
#     4  10  24  48  76  98 142 180 246 302 356 420
#     4  12  24  43  67 106 152 198 243 288 357 434
#     4  12  23  42  71 106 144 190 237 294 353 433
#
# _framework density 20.790994999999999
#
# number of rings (size 3 to 8) (size 9 to 14) (size 15 to 20)
#    0.667    0.000    5.556    2.000    0.000    2.667 
#    6.000    3.333    0.000    0.000    0.000    0.000 
#    0.000    0.000    0.000    0.000    0.000    0.000 
#
# Total GULP energy -669248.483399 kJ/mol
# GULP energy per Si atom -12393.490433 kJ/mol
# Density = 2.074367 g / cm^3
# Si number density = 20.790995 Si / 1000 Ang^3
#
#
#
# Elastic Constant Matrix: (Units=GPa)
#
#
# Indices 1 2 3 4 5 6 
#
# 1 118.3750 65.8411 44.7614 0.0000 0.0000 0.0000
# 2 65.8411 118.3750 44.7614 0.0000 0.0000 0.0000
# 3 44.7614 44.7614 163.2341 0.0000 0.0000 0.0000
# 4 0.0000 0.0000 0.0000 39.9976 0.0000 0.0000
# 5 0.0000 0.0000 0.0000 0.0000 39.9976 0.0000
# 6 0.0000 0.0000 0.0000 0.0000 0.0000 26.2670
#
#
#
# Elastic Compliance Matrix: (Units=1/GPa)
#
#
# Indices 1 2 3 4 5 6 
#
# 1 0.012649 -0.006386 -0.001717 0.000000 0.000000 0.000000
# 2 -0.006386 0.012649 -0.001717 0.000000 0.000000 0.000000
# 3 -0.001717 -0.001717 0.007068 0.000000 0.000000 0.000000
# 4 0.000000 0.000000 0.000000 0.025002 0.000000 0.000000
# 5 0.000000 0.000000 0.000000 0.000000 0.025002 0.000000
# 6 0.000000 0.000000 0.000000 0.000000 0.000000 0.038071
#
#
# Mechanical properties :
#
#
# Convention : Reuss Voigt Hill
#
# Bulk Modulus (GPa) = 78.58908 78.96798 78.77853
# Shear Modulus (GPa) = 34.64438 37.56043 36.10240
#
# Velocity S-wave (km/s) = 4.08648 4.25499 4.17159
# Velocity P-wave (km/s) = 7.75548 7.88696 7.82150
#
# Compressibility (1/GPa) = 0.01272441
#
# Stress axis : x y z
#
# Youngs Moduli (GPa) = 79.05657 79.05657 141.48160
#
# Poissons Ratio (x) = 0.50487 0.24298
# Poissons Ratio (y) = 0.50487 0.24298
# Poissons Ratio (z) = 0.13577 0.13577
#
# Static dielectric constant tensor:
#      x y z
#    x 3.643620 0.000000 0.000000 
#    y 0.000000 3.643620 0.000000 
#    z 0.000000 0.000000 4.420270 
# 
# 
# High freq. dielectric constant tensor:
#      x y z
#    x 1.805820 0.000000 0.000000 
#    y 0.000000 1.805820 0.000000 
#    z 0.000000 0.000000 1.841410 
# 
# From -- ./inp_files/5628.got.cif
#   From: 2010.03.12/outbox.cif.g09.slc.cpg/sg178_3_cif.got.tgz:5628.got - 2010.04.02 07:02:38.
