data_PCOD8325577
_publ_section_title
;
Structure prediction by ZEFSAII (Michael W. Deem and Ramdas Pophale) SiO2 
 PCOD8325577
Probable space group: P 63/M
;
_chemical_formula_sum "Si O2"
_cell_formula_units_Z 82
_cell_length_a 19.079117
_cell_length_b 19.079117
_cell_length_c 12.617661
_cell_angle_alpha 90.000000
_cell_angle_beta 90.000000
_cell_angle_gamma 120.000000
_cell_volume 3977.645082
_symmetry_space_group_name_H-M "P 63/M"
_symmetry_group_IT_number 176
_symmetry_cell_setting 'hexagonal'
loop_
_space_group_symop_operation_xyz
x,y,z
x-y,x,1/2+z
-y,x-y,z
-x,-y,1/2+z
-x+y,-x,z
y,-x+y,1/2+z
-x,-y,-z
-x+y,-x,1/2-z
y,-x+y,-z
x,y,1/2-z
x-y,x,-z
-y,x-y,1/2-z
loop_
_atom_site_type_symbol
_atom_site_label
_atom_site_fract_x
_atom_site_fract_y
_atom_site_fract_z
Si Si1 0.608683 0.930822 0.628657
Si Si2 0.165433 0.268699 0.373557
Si Si3 0.788251 0.236078 0.867584
Si Si4 0.548820 0.180349 0.490047
Si Si5 0.071599 0.103106 0.750000
Si Si6 0.333334 0.666667 0.624831
Si Si7 0.787541 0.982724 0.581391
Si Si8 0.386763 0.909289 0.371078
O O1 0.585447 0.920336 0.750000
O O2 0.535153 0.855394 0.572536
O O3 0.693908 0.933361 0.615541
O O4 0.606939 0.009081 0.585272
O O5 0.178879 0.253330 0.250000
O O6 0.225520 0.362062 0.408648
O O7 0.178550 0.209828 0.454248
O O8 0.075552 0.253820 0.389746
O O9 0.811885 0.268003 0.750000
O O10 0.707705 0.151544 0.874222
O O11 0.770780 0.302436 0.920253
O O12 0.623641 0.240999 0.416674
O O13 0.564798 0.113882 0.544929
O O14 0.110801 0.158441 0.645475
O O15 0.089748 0.026852 0.750000
O O16 0.333334 0.666668 0.750000
O O17 0.419836 0.916317 0.250000
#
# Coordination Sequence:
#
# PCOD8325577 Si02
#       8
#    12  12  12  12   6   4  12  12
#     4  11  22  40  66  97 125 173 224 266 324 400
#     4  11  24  42  66  95 128 170 218 273 335 399
#     4  10  20  37  62  94 127 159 212 273 325 388
#     4  12  22  41  62  93 128 176 220 261 333 391
#     4  10  26  46  68 102 134 168 222 286 340 396
#     4  12  27  42  58  86 136 180 219 270 322 392
#     4  12  23  42  72  92 129 171 218 268 337 401
#     4  10  21  38  64  98 130 162 213 278 333 388
#
# _framework density 20.615210999999999
#
# number of rings (size 3 to 8) (size 9 to 14) (size 15 to 20)
#    0.146    0.878    5.854    1.317    2.049    0.000 
#    0.000    0.732    0.000    0.878    0.000    0.000 
#    0.000    0.000    0.000    0.000    0.000    0.000 
#
# Total GULP energy -1016214.811424 kJ/mol
# GULP energy per Si atom -12392.863554 kJ/mol
# Density = 2.056829 g / cm^3
# Si number density = 20.615211 Si / 1000 Ang^3
#
#
#
# Elastic Constant Matrix: (Units=GPa)
#
#
# Indices 1 2 3 4 5 6 
#
# 1 80.1530 19.7149 35.5530 0.0000 0.0000 0.0001
# 2 19.7149 80.1526 35.5529 0.0000 0.0000 0.0000
# 3 35.5530 35.5529 103.8769 0.0000 0.0000 -0.0001
# 4 0.0000 0.0000 0.0000 28.4844 -0.0001 0.0000
# 5 0.0000 0.0000 0.0000 -0.0001 28.4842 0.0000
# 6 0.0001 0.0000 -0.0001 0.0000 0.0000 30.2190
#
#
#
# Elastic Compliance Matrix: (Units=1/GPa)
#
#
# Indices 1 2 3 4 5 6 
#
# 1 0.014893 -0.001653 -0.004531 0.000000 0.000000 0.000000
# 2 -0.001653 0.014893 -0.004531 0.000000 0.000000 0.000000
# 3 -0.004531 -0.004531 0.012729 0.000000 0.000000 0.000000
# 4 0.000000 0.000000 0.000000 0.035107 0.000000 0.000000
# 5 0.000000 0.000000 0.000000 0.000000 0.035107 0.000000
# 6 0.000000 0.000000 0.000000 0.000000 0.000000 0.033092
#
#
# Mechanical properties :
#
#
# Convention : Reuss Voigt Hill
#
# Bulk Modulus (GPa) = 47.43326 49.53601 48.48463
# Shear Modulus (GPa) = 28.68958 28.99497 28.84227
#
# Velocity S-wave (km/s) = 3.73456 3.75438 3.74448
# Velocity P-wave (km/s) = 6.45405 6.54789 6.50114
#
# Compressibility (1/GPa) = 0.02108225
#
# Stress axis : x y z
#
# Youngs Moduli (GPa) = 67.14685 67.14657 78.56309
#
# Poissons Ratio (x) = 0.11100 0.35600
# Poissons Ratio (y) = 0.11100 0.35600
# Poissons Ratio (z) = 0.30427 0.30427
#
# Static dielectric constant tensor:
#      x y z
#    x 3.664910 0.000000 0.000000 
#    y 0.000000 3.664910 0.000000 
#    z 0.000000 0.000000 3.865380 
# 
# 
# High freq. dielectric constant tensor:
#      x y z
#    x 1.801250 0.000000 0.000000 
#    y 0.000000 1.801250 0.000000 
#    z 0.000000 0.000000 1.811780 
# 
# From -- ./inp_files/2062.got.cif
#   From: 2010.06.25/outbox.cif.g09.slc.cpg/sg176_2_cif.got.tgz:2062.got - 2010.06.28 12:15:01.
