data_PCOD8325375
_publ_section_title
;
Structure prediction by ZEFSAII (Michael W. Deem and Ramdas Pophale) SiO2 
 PCOD8325375
Probable space group: P 6/M
;
_chemical_formula_sum "Si O2"
_cell_formula_units_Z 52
_cell_length_a 13.841889
_cell_length_b 13.841889
_cell_length_c 16.136315
_cell_angle_alpha 90.000000
_cell_angle_beta 90.000000
_cell_angle_gamma 120.000000
_cell_volume 2677.476819
_symmetry_space_group_name_H-M "P 6/M"
_symmetry_group_IT_number 175
_symmetry_cell_setting 'hexagonal'
loop_
_space_group_symop_operation_xyz
x,y,z
x-y,x,z
-y,x-y,z
-x,-y,z
-x+y,-x,z
y,-x+y,z
-x,-y,-z
-x+y,-x,-z
y,-x+y,-z
x,y,-z
x-y,x,-z
-y,x-y,-z
loop_
_atom_site_type_symbol
_atom_site_label
_atom_site_fract_x
_atom_site_fract_y
_atom_site_fract_z
Si Si1 0.346329 0.462793 0.405016
Si Si2 0.021432 0.621701 0.094027
Si Si3 0.679918 0.126835 0.654760
Si Si4 0.232880 0.807859 0.162360
Si Si5 0.666666 0.333333 0.097633
O O1 0.384971 0.488805 0.500000
O O2 0.358945 0.357702 0.375244
O O3 0.219047 0.435208 0.398502
O O4 0.427845 0.573531 0.351850
O O5 0.100931 0.724069 0.154639
O O6 0.000000 0.500000 0.125479
O O7 0.909070 0.628468 0.097102
O O8 0.068331 0.641190 0.000000
O O9 0.725437 0.141172 0.747420
O O10 0.281251 0.732975 0.135005
O O11 0.666667 0.333334 0.000000
#
# Coordination Sequence:
#
# PCOD8325375 Si02
#       5
#    12  12  12  12   4
#     4  11  22  40  61  87 119 159 205 247 307 373
#     4  11  23  38  59  84 119 163 206 249 304 362
#     4  11  23  37  59  87 120 159 198 255 305 364
#     4  12  23  37  57  86 122 156 202 254 304 364
#     4  12  21  33  54  81 115 158 202 246 300 363
#
# _framework density 19.42127
#
# number of rings (size 3 to 8) (size 9 to 14) (size 15 to 20)
#    0.000    0.692    2.308    8.077    3.231    0.000 
#    0.000    0.000    0.000    0.923    0.000    6.462 
#    0.000    0.000    0.000    0.000    0.000    0.000 
#
# Total GULP energy -644464.795265 kJ/mol
# GULP energy per Si atom -12393.553755 kJ/mol
# Density = 1.937707 g / cm^3
# Si number density = 19.421270 Si / 1000 Ang^3
#
#
#
# Elastic Constant Matrix: (Units=GPa)
#
#
# Indices 1 2 3 4 5 6 
#
# 1 137.3268 58.9851 26.5042 0.0000 0.0000 0.0000
# 2 58.9851 137.3265 26.5040 0.0000 0.0000 -0.0001
# 3 26.5042 26.5040 92.1557 0.0000 0.0000 -0.0001
# 4 0.0000 0.0000 0.0000 34.6502 -0.0002 0.0000
# 5 0.0000 0.0000 0.0000 -0.0002 34.6500 0.0000
# 6 0.0000 -0.0001 -0.0001 0.0000 0.0000 39.1709
#
#
#
# Elastic Compliance Matrix: (Units=1/GPa)
#
#
# Indices 1 2 3 4 5 6 
#
# 1 0.009144 -0.003621 -0.001588 0.000000 0.000000 0.000000
# 2 -0.003621 0.009144 -0.001588 0.000000 0.000000 0.000000
# 3 -0.001588 -0.001588 0.011765 0.000000 0.000000 0.000000
# 4 0.000000 0.000000 0.000000 0.028860 0.000000 0.000000
# 5 0.000000 0.000000 0.000000 0.000000 0.028860 0.000000
# 6 0.000000 0.000000 0.000000 0.000000 0.000000 0.025529
#
#
# Mechanical properties :
#
#
# Convention : Reuss Voigt Hill
#
# Bulk Modulus (GPa) = 60.76440 65.64397 63.20418
# Shear Modulus (GPa) = 37.76941 38.68194 38.22568
#
# Velocity S-wave (km/s) = 4.41471 4.46772 4.44130
# Velocity P-wave (km/s) = 7.57243 7.77737 7.67558
#
# Compressibility (1/GPa) = 0.01645701
#
# Stress axis : x y z
#
# Youngs Moduli (GPa) = 109.36475 109.36457 84.99900
#
# Poissons Ratio (x) = 0.39600 0.13501
# Poissons Ratio (y) = 0.39600 0.13501
# Poissons Ratio (z) = 0.17371 0.17371
#
# Static dielectric constant tensor:
#      x y z
#    x 3.834380 0.000000 0.000000 
#    y 0.000000 3.834390 0.000000 
#    z 0.000000 0.000000 1.061560 
# 
# 
# High freq. dielectric constant tensor:
#      x y z
#    x 1.747530 0.000000 0.000000 
#    y 0.000000 1.747530 0.000000 
#    z 0.000000 0.000000 1.770160 
# 
# From -- ./inp_files/2327.got.cif
#   From: 2010.03.12/outbox.cif.g09.slc.cpg/sg175_2_cif.got.tgz:2327.got - 2010.04.02 06:55:29.
