data_PCOD8325649
_publ_section_title
;
Structure prediction by ZEFSAII (Michael W. Deem and Ramdas Pophale) SiO2 
 PCOD8325649
Probable space group: P 63/M
;
_chemical_formula_sum "Si O2"
_cell_formula_units_Z 60
_cell_length_a 20.648985
_cell_length_b 20.648985
_cell_length_c 8.072675
_cell_angle_alpha 90.000000
_cell_angle_beta 90.000000
_cell_angle_gamma 120.000000
_cell_volume 2980.887032
_symmetry_space_group_name_H-M "P 63/M"
_symmetry_group_IT_number 176
_symmetry_cell_setting 'hexagonal'
loop_
_space_group_symop_operation_xyz
x,y,z
x-y,x,1/2+z
-y,x-y,z
-x,-y,1/2+z
-x+y,-x,z
y,-x+y,1/2+z
-x,-y,-z
-x+y,-x,1/2-z
y,-x+y,-z
x,y,1/2-z
x-y,x,-z
-y,x-y,1/2-z
loop_
_atom_site_type_symbol
_atom_site_label
_atom_site_fract_x
_atom_site_fract_y
_atom_site_fract_z
Si Si1 0.148972 0.312343 0.565345
Si Si2 0.824369 0.477630 0.750000
Si Si3 0.154937 0.099197 0.569160
Si Si4 0.425190 0.333327 0.055197
Si Si5 0.619304 0.926526 0.068434
Si Si6 0.487981 0.811826 0.250000
O O1 0.123543 0.283328 0.750000
O O2 0.098571 0.243967 0.446970
O O3 0.134168 0.379226 0.522165
O O4 0.236582 0.339110 0.551337
O O5 0.872507 0.508477 0.579987
O O6 0.755629 0.492464 0.750000
O O7 0.791782 0.388997 0.750000
O O8 0.135340 0.116508 0.750000
O O9 0.114263 0.125550 0.440893
O O10 0.452194 0.350455 0.250000
O O11 0.376404 0.372049 0.005548
O O12 0.658623 0.941599 0.250000
O O13 0.531728 0.862153 0.087720
#
# Coordination Sequence:
#
# PCOD8325649 Si02
#       6
#    12   6  12  12  12   6
#     4  11  21  36  62  92 124 166 215 264 328 388
#     4  12  23  44  70  93 130 172 214 254 326 381
#     4  12  25  40  58  83 122 170 225 280 336 397
#     4  10  22  39  63  94 131 166 211 264 317 381
#     4   9  19  39  58  90 129 160 205 267 315 370
#     4  10  23  42  68  95 128 168 214 256 318 383
#
# _framework density 20.128236999999999
#
# number of rings (size 3 to 8) (size 9 to 14) (size 15 to 20)
#    0.600    0.800    2.000    4.000    2.800    2.400 
#    0.000    2.000    0.000    0.000    0.000    0.000 
#    0.000    0.000    0.000    0.000    0.000    0.000 
#
# Total GULP energy -743697.926567 kJ/mol
# GULP energy per Si atom -12394.965443 kJ/mol
# Density = 2.008242 g / cm^3
# Si number density = 20.128237 Si / 1000 Ang^3
#
#
#
# Elastic Constant Matrix: (Units=GPa)
#
#
# Indices 1 2 3 4 5 6 
#
# 1 77.5317 9.1126 22.9406 0.0000 0.0000 0.0000
# 2 9.1126 77.5317 22.9406 0.0000 0.0000 0.0000
# 3 22.9406 22.9406 79.1014 0.0000 0.0000 0.0000
# 4 0.0000 0.0000 0.0000 13.9122 0.0000 0.0000
# 5 0.0000 0.0000 0.0000 0.0000 13.9122 0.0000
# 6 0.0000 0.0000 0.0000 0.0000 0.0000 34.2095
#
#
#
# Elastic Compliance Matrix: (Units=1/GPa)
#
#
# Indices 1 2 3 4 5 6 
#
# 1 0.014126 -0.000490 -0.003954 0.000000 0.000000 0.000000
# 2 -0.000490 0.014126 -0.003954 0.000000 0.000000 0.000000
# 3 -0.003954 -0.003954 0.014936 0.000000 0.000000 0.000000
# 4 0.000000 0.000000 0.000000 0.071879 0.000000 0.000000
# 5 0.000000 0.000000 0.000000 0.000000 0.071879 0.000000
# 6 0.000000 0.000000 0.000000 0.000000 0.000000 0.029232
#
#
# Mechanical properties :
#
#
# Convention : Reuss Voigt Hill
#
# Bulk Modulus (GPa) = 37.89498 38.23914 38.06706
# Shear Modulus (GPa) = 20.68065 24.35152 22.51608
#
# Velocity S-wave (km/s) = 3.20886 3.48202 3.34822
# Velocity P-wave (km/s) = 5.70935 5.93337 5.82244
#
# Compressibility (1/GPa) = 0.02638872
#
# Stress axis : x y z
#
# Youngs Moduli (GPa) = 70.79324 70.79324 66.95354
#
# Poissons Ratio (x) = 0.03470 0.26477
# Poissons Ratio (y) = 0.03470 0.26477
# Poissons Ratio (z) = 0.27995 0.27995
#
# Static dielectric constant tensor:
#      x y z
#    x 3.463710 0.000000 0.000000 
#    y 0.000000 3.463710 0.000000 
#    z 0.000000 0.000000 5.255780 
# 
# 
# High freq. dielectric constant tensor:
#      x y z
#    x 1.778370 0.000000 0.000000 
#    y 0.000000 1.778370 0.000000 
#    z 0.000000 0.000000 1.778430 
# 
# From -- ./inp_files/930.got.cif
#   From: 2010.06.25/outbox.cif.g09.slc.cpg/sg176_1_cif.got.tgz:930.got - 2010.06.28 12:15:01.
