data_PCOD8325598
_publ_section_title
;
Structure prediction by ZEFSAII (Michael W. Deem and Ramdas Pophale) SiO2 
 PCOD8325598
Probable space group: P 63/M
;
_chemical_formula_sum "Si O2"
_cell_formula_units_Z 48
_cell_length_a 16.441754
_cell_length_b 16.441754
_cell_length_c 11.797072
_cell_angle_alpha 90.000000
_cell_angle_beta 90.000000
_cell_angle_gamma 120.000000
_cell_volume 2761.856780
_symmetry_space_group_name_H-M "P 63/M"
_symmetry_group_IT_number 176
_symmetry_cell_setting 'hexagonal'
loop_
_space_group_symop_operation_xyz
x,y,z
x-y,x,1/2+z
-y,x-y,z
-x,-y,1/2+z
-x+y,-x,z
y,-x+y,1/2+z
-x,-y,-z
-x+y,-x,1/2-z
y,-x+y,-z
x,y,1/2-z
x-y,x,-z
-y,x-y,1/2-z
loop_
_atom_site_type_symbol
_atom_site_label
_atom_site_fract_x
_atom_site_fract_y
_atom_site_fract_z
Si Si1 0.956875 0.687640 0.376452
Si Si2 0.231308 0.371239 0.974006
Si Si3 0.719195 0.452957 0.622469
Si Si4 0.155614 0.688061 0.750000
Si Si5 0.136573 0.489059 0.750000
O O1 0.972548 0.733533 0.250000
O O2 0.052338 0.735631 0.444610
O O3 0.877960 0.699271 0.444235
O O4 0.915927 0.575003 0.360814
O O5 0.292834 0.402189 0.859574
O O6 0.242702 0.463604 0.034229
O O7 0.607019 0.379839 0.604913
O O8 0.736595 0.494199 0.750000
O O9 0.129115 0.581016 0.750000
O O10 0.268334 0.755268 0.750000
#
# Coordination Sequence:
#
# PCOD8325598 Si02
#       5
#    12  12  12   6   6
#     4   9  22  40  55  83 113 145 193 236 286 341
#     4  11  20  39  58  80 116 151 188 244 291 336
#     4   8  18  33  50  79 110 153 199 230 274 332
#     4  10  21  32  53  82 114 156 198 232 279 329
#     4   8  19  36  49  82 114 152 198 232 267 329
#
# _framework density 17.379612000000002
#
# number of rings (size 3 to 8) (size 9 to 14) (size 15 to 20)
#    1.250    1.500    1.250    1.000    7.000    1.000 
#    4.500    0.000    0.000    0.500    0.000    0.000 
#    0.000    0.000    0.000    0.000    0.000    0.000 
#
# Total GULP energy -594642.067274 kJ/mol
# GULP energy per Si atom -12388.376402 kJ/mol
# Density = 1.734006 g / cm^3
# Si number density = 17.379612 Si / 1000 Ang^3
#
#
#
# Elastic Constant Matrix: (Units=GPa)
#
#
# Indices 1 2 3 4 5 6 
#
# 1 64.8270 42.1667 46.3523 0.0000 0.0000 0.0000
# 2 42.1667 64.8270 46.3523 0.0000 0.0000 0.0000
# 3 46.3523 46.3523 126.5316 0.0000 0.0000 0.0000
# 4 0.0000 0.0000 0.0000 23.5228 0.0000 0.0000
# 5 0.0000 0.0000 0.0000 0.0000 23.5228 0.0000
# 6 0.0000 0.0000 0.0000 0.0000 0.0000 11.3302
#
#
#
# Elastic Compliance Matrix: (Units=1/GPa)
#
#
# Indices 1 2 3 4 5 6 
#
# 1 0.028911 -0.015219 -0.005016 0.000000 0.000000 0.000000
# 2 -0.015219 0.028911 -0.005016 0.000000 0.000000 0.000000
# 3 -0.005016 -0.005016 0.011578 0.000000 0.000000 0.000000
# 4 0.000000 0.000000 0.000000 0.042512 0.000000 0.000000
# 5 0.000000 0.000000 0.000000 0.000000 0.042512 0.000000
# 6 0.000000 0.000000 0.000000 0.000000 0.000000 0.088260
#
#
# Mechanical properties :
#
#
# Convention : Reuss Voigt Hill
#
# Bulk Modulus (GPa) = 52.91231 58.43646 55.67439
# Shear Modulus (GPa) = 16.69534 19.76280 18.22907
#
# Velocity S-wave (km/s) = 3.10276 3.37579 3.24215
# Velocity P-wave (km/s) = 6.58387 6.99222 6.79111
#
# Compressibility (1/GPa) = 0.01889919
#
# Stress axis : x y z
#
# Youngs Moduli (GPa) = 34.58875 34.58875 86.36970
#
# Poissons Ratio (x) = 0.52640 0.43322
# Poissons Ratio (y) = 0.52640 0.43322
# Poissons Ratio (z) = 0.17349 0.17349
#
# Static dielectric constant tensor:
#      x y z
#    x 2.906110 0.000000 0.000000 
#    y 0.000000 2.906110 0.000000 
#    z 0.000000 0.000000 3.391970 
# 
# 
# High freq. dielectric constant tensor:
#      x y z
#    x 1.639280 0.000000 0.000000 
#    y 0.000000 1.639280 0.000000 
#    z 0.000000 0.000000 1.689100 
# 
# From -- ./inp_files/1760.got.cif
#   From: 2010.06.25/outbox.cif.g09.slc.cpg/sg176_1_cif.got.tgz:1760.got - 2010.06.28 12:15:01.
