data_PCOD8325742
_publ_section_title
;
Structure prediction by ZEFSAII (Michael W. Deem and Ramdas Pophale) SiO2 
 PCOD8325742
Probable space group: P 6 2 2
;
_chemical_formula_sum "Si O2"
_cell_formula_units_Z 72
_cell_length_a 22.784610
_cell_length_b 22.784610
_cell_length_c 8.671669
_cell_angle_alpha 90.000000
_cell_angle_beta 90.000000
_cell_angle_gamma 120.000000
_cell_volume 3898.670416
_symmetry_space_group_name_H-M "P 6 2 2"
_symmetry_group_IT_number 177
_symmetry_cell_setting 'hexagonal'
loop_
_space_group_symop_operation_xyz
x,y,z
x-y,x,z
-y,x-y,z
-x,-y,z
-x+y,-x,z
y,-x+y,z
x-y,-y,-z
-x,-x+y,-z
y,x,-z
-y,-x,-z
-x+y,y,-z
x,x-y,-z
loop_
_atom_site_type_symbol
_atom_site_label
_atom_site_fract_x
_atom_site_fract_y
_atom_site_fract_z
Si Si1 0.632415 0.498923 0.316381
Si Si2 0.439037 0.218302 0.682108
Si Si3 0.856072 0.140772 0.684373
Si Si4 0.381368 0.378616 0.819731
Si Si5 0.998664 0.752727 0.184371
Si Si6 0.370788 0.874019 0.322155
O O1 0.705142 0.511050 0.262675
O O2 0.621856 0.551498 0.220487
O O3 0.574761 0.422327 0.277111
O O4 0.631308 0.514555 0.495766
O O5 0.433931 0.216966 0.500000
O O6 0.362488 0.185382 0.746781
O O7 0.474943 0.177888 0.744773
O O8 0.859427 0.140574 0.500000
O O9 0.931771 0.180194 0.752593
O O10 0.818610 0.064144 0.747255
O O11 0.313133 0.314521 0.752050
O O12 0.394875 0.449406 0.754632
O O13 0.374499 0.374499 0.000000
O O14 0.000000 0.756692 0.000000
#
# Coordination Sequence:
#
# PCOD8325742 Si02
#       6
#    12  12  12  12  12  12
#     4  10  20  35  54  76 106 144 186 231 283 337
#     4   9  18  33  53  79 108 142 187 240 288 333
#     4  11  21  37  63  88 116 153 195 237 282 342
#     4  11  22  34  53  80 111 143 181 228 283 339
#     4  11  23  38  58  88 123 154 187 234 291 344
#     4  10  20  35  54  76 106 144 186 231 283 337
#
# _framework density 18.467834
#
# number of rings (size 3 to 8) (size 9 to 14) (size 15 to 20)
#    0.000    1.667    3.333    2.000    0.000    4.000 
#    1.000    0.833    0.000    0.333    0.000    2.333 
#    0.000    0.000    0.000    0.000    0.000    0.000 
#
# Total GULP energy -892786.500734 kJ/mol
# GULP energy per Si atom -12399.812510 kJ/mol
# Density = 1.842580 g / cm^3
# Si number density = 18.467834 Si / 1000 Ang^3
#
#
#
# Elastic Constant Matrix: (Units=GPa)
#
#
# Indices 1 2 3 4 5 6 
#
# 1 111.0347 33.5451 26.8391 0.0000 0.0000 0.0000
# 2 33.5451 111.0347 26.8391 0.0000 0.0000 0.0000
# 3 26.8391 26.8391 48.9157 0.0000 0.0000 0.0000
# 4 0.0000 0.0000 0.0000 14.6111 0.0000 0.0000
# 5 0.0000 0.0000 0.0000 0.0000 14.6111 0.0000
# 6 0.0000 0.0000 0.0000 0.0000 0.0000 38.7448
#
#
#
# Elastic Compliance Matrix: (Units=1/GPa)
#
#
# Indices 1 2 3 4 5 6 
#
# 1 0.010795 -0.002109 -0.004766 0.000000 0.000000 0.000000
# 2 -0.002109 0.010795 -0.004766 0.000000 0.000000 0.000000
# 3 -0.004766 -0.004766 0.025673 0.000000 0.000000 0.000000
# 4 0.000000 0.000000 0.000000 0.068441 0.000000 0.000000
# 5 0.000000 0.000000 0.000000 0.000000 0.068441 0.000000
# 6 0.000000 0.000000 0.000000 0.000000 0.000000 0.025810
#
#
# Mechanical properties :
#
#
# Convention : Reuss Voigt Hill
#
# Bulk Modulus (GPa) = 41.69826 49.49241 45.59533
# Shear Modulus (GPa) = 20.72686 25.84418 23.28552
#
# Velocity S-wave (km/s) = 3.35374 3.74493 3.55472
# Velocity P-wave (km/s) = 6.13389 6.74958 6.44909
#
# Compressibility (1/GPa) = 0.02398182
#
# Stress axis : x y z
#
# Youngs Moduli (GPa) = 92.63130 92.63130 38.95116
#
# Poissons Ratio (x) = 0.19540 0.18564
# Poissons Ratio (y) = 0.19540 0.18564
# Poissons Ratio (z) = 0.44147 0.44147
#
# Static dielectric constant tensor:
#      x y z
#    x 3.500800 0.000000 0.000000 
#    y 0.000000 3.500800 0.000000 
#    z 0.000000 0.000000 3.201940 
# 
# 
# High freq. dielectric constant tensor:
#      x y z
#    x 1.717280 0.000000 0.000000 
#    y 0.000000 1.717280 0.000000 
#    z 0.000000 0.000000 1.702120 
# 
# From -- ./inp_files/1539.got.cif
#   From: 2010.03.12/outbox.cif.g09.slc.cpg/sg177_1_cif.got.tgz:1539.got - 2010.04.02 07:00:27.
