data_PCOD8325769
_publ_section_title
;
Structure prediction by ZEFSAII (Michael W. Deem and Ramdas Pophale) SiO2 
 PCOD8325769
Probable space group: P 61 2 2
;
_chemical_formula_sum "Si O2"
_cell_formula_units_Z 78
_cell_length_a 17.122259
_cell_length_b 17.122259
_cell_length_c 15.140345
_cell_angle_alpha 90.000000
_cell_angle_beta 90.000000
_cell_angle_gamma 120.000000
_cell_volume 3844.045570
_symmetry_space_group_name_H-M "P 61 2 2"
_symmetry_group_IT_number 178
_symmetry_cell_setting 'hexagonal'
loop_
_space_group_symop_operation_xyz
x,y,z
x-y,x,1/6+z
-y,x-y,1/3+z
-x,-y,1/2+z
-x+y,-x,2/3+z
y,-x+y,5/6+z
x-y,-y,-z
-x,-x+y,2/3-z
y,x,1/3-z
-y,-x,5/6-z
-x+y,y,1/2-z
x,x-y,1/6-z
loop_
_atom_site_type_symbol
_atom_site_label
_atom_site_fract_x
_atom_site_fract_y
_atom_site_fract_z
Si Si1 0.312435 0.149233 0.360951
Si Si2 0.677526 0.779408 0.665147
Si Si3 0.687954 0.312047 0.416667
Si Si4 0.715567 0.217689 0.720123
Si Si5 0.154383 0.512583 0.369966
Si Si6 0.059372 0.785635 0.469430
Si Si7 0.328228 0.853016 0.398855
O O1 0.315432 0.170409 0.257284
O O2 0.414222 0.183975 0.397492
O O3 0.276673 0.201006 0.424645
O O4 0.248260 0.044412 0.380658
O O5 0.759719 0.759719 0.666667
O O6 0.688522 0.844261 0.583334
O O7 0.583555 0.682451 0.652974
O O8 0.587560 0.270869 0.378950
O O9 0.691856 0.254299 0.497147
O O10 0.672016 0.156830 0.635769
O O11 0.646969 0.158796 0.798553
O O12 0.116382 0.583499 0.371190
O O13 0.121267 0.878734 0.416667
O O14 0.077173 0.708075 0.429072
O O15 0.249313 0.750688 0.416667
#
# Coordination Sequence:
#
# PCOD8325769 Si02
#       7
#    12  12   6  12  12  12  12
#     4  10  22  40  64  89 121 160 202 256 320 382
#     4  11  24  44  65  88 119 162 207 254 315 375
#     4  12  18  32  54  80 122 158 210 236 282 330
#     4  10  19  31  55  79 115 163 205 236 287 345
#     4  11  20  34  54  84 120 160 203 245 282 350
#     4  10  21  38  63  94 121 156 197 255 327 386
#     4  10  17  32  53  82 122 161 201 241 292 348
#
# _framework density 20.291122999999999
#
# number of rings (size 3 to 8) (size 9 to 14) (size 15 to 20)
#    0.000    1.538    3.846    1.846    0.000    0.000 
#    2.769    0.000    0.000   12.923    0.000    0.000 
#    0.000    0.000    0.000    0.000    0.000    0.000 
#
# Total GULP energy -966311.480117 kJ/mol
# GULP energy per Si atom -12388.608719 kJ/mol
# Density = 2.024494 g / cm^3
# Si number density = 20.291123 Si / 1000 Ang^3
#
#
#
# Elastic Constant Matrix: (Units=GPa)
#
#
# Indices 1 2 3 4 5 6 
#
# 1 93.6980 55.2407 23.4064 0.0000 0.0000 0.0000
# 2 55.2407 93.6980 23.4064 0.0000 0.0000 0.0000
# 3 23.4064 23.4064 80.9893 0.0000 0.0000 0.0000
# 4 0.0000 0.0000 0.0000 25.7956 0.0000 0.0000
# 5 0.0000 0.0000 0.0000 0.0000 25.7956 0.0000
# 6 0.0000 0.0000 0.0000 0.0000 0.0000 19.2286
#
#
#
# Elastic Compliance Matrix: (Units=1/GPa)
#
#
# Indices 1 2 3 4 5 6 
#
# 1 0.016694 -0.009309 -0.002134 0.000000 0.000000 0.000000
# 2 -0.009309 0.016694 -0.002134 0.000000 0.000000 0.000000
# 3 -0.002134 -0.002134 0.013581 0.000000 0.000000 0.000000
# 4 0.000000 0.000000 0.000000 0.038766 0.000000 0.000000
# 5 0.000000 0.000000 0.000000 0.000000 0.038766 0.000000
# 6 0.000000 0.000000 0.000000 0.000000 0.000000 0.052006
#
#
# Mechanical properties :
#
#
# Convention : Reuss Voigt Hill
#
# Bulk Modulus (GPa) = 50.47003 52.49913 51.48458
# Shear Modulus (GPa) = 23.77929 25.25274 24.51601
#
# Velocity S-wave (km/s) = 3.42703 3.53160 3.47971
# Velocity P-wave (km/s) = 6.37074 6.52371 6.44768
#
# Compressibility (1/GPa) = 0.01981374
#
# Stress axis : x y z
#
# Youngs Moduli (GPa) = 59.90197 59.90197 73.63250
#
# Poissons Ratio (x) = 0.55762 0.15715
# Poissons Ratio (y) = 0.55762 0.15715
# Poissons Ratio (z) = 0.12785 0.12785
#
# Static dielectric constant tensor:
#      x y z
#    x 3.531820 0.000000 0.000000 
#    y 0.000000 3.531820 0.000000 
#    z 0.000000 0.000000 4.051300 
# 
# 
# High freq. dielectric constant tensor:
#      x y z
#    x 1.770460 0.000000 0.000000 
#    y 0.000000 1.770460 0.000000 
#    z 0.000000 0.000000 1.810280 
# 
# From -- ./inp_files/5989.got.cif
#   From: 2010.03.12/outbox.cif.g09.slc.cpg/sg178_3_cif.got.tgz:5989.got - 2010.04.02 07:02:38.
