data_PCOD8325204
_publ_section_title
;
Structure prediction by ZEFSAII (Michael W. Deem and Ramdas Pophale) SiO2 
 PCOD8325204
Probable space group: P 6/M
;
_chemical_formula_sum "Si O2"
_cell_formula_units_Z 52
_cell_length_a 18.214929
_cell_length_b 18.214929
_cell_length_c 8.972350
_cell_angle_alpha 90.000000
_cell_angle_beta 90.000000
_cell_angle_gamma 120.000000
_cell_volume 2578.052776
_symmetry_space_group_name_H-M "P 6/M"
_symmetry_group_IT_number 175
_symmetry_cell_setting 'hexagonal'
loop_
_space_group_symop_operation_xyz
x,y,z
x-y,x,z
-y,x-y,z
-x,-y,z
-x+y,-x,z
y,-x+y,z
-x,-y,-z
-x+y,-x,-z
y,-x+y,-z
x,y,-z
x-y,x,-z
-y,x-y,-z
loop_
_atom_site_type_symbol
_atom_site_label
_atom_site_fract_x
_atom_site_fract_y
_atom_site_fract_z
Si Si1 0.962584 0.650226 0.324967
Si Si2 0.646553 0.181829 0.673966
Si Si3 0.179074 0.148593 0.677114
Si Si4 0.925685 0.404948 0.165560
Si Si5 0.333335 0.666667 0.175042
O O1 0.982684 0.654668 0.500000
O O2 0.876345 0.563707 0.285644
O O3 0.952675 0.729047 0.271060
O O4 0.041503 0.654392 0.237499
O O5 0.651892 0.200338 0.500000
O O6 0.549281 0.142451 0.725035
O O7 0.698069 0.269945 0.763146
O O8 0.105480 0.165058 0.740683
O O9 0.174794 0.145091 0.500000
O O10 0.000000 0.500000 0.150223
O O11 0.887866 0.370463 0.000000
O O12 0.333334 0.666668 0.000000
#
# Coordination Sequence:
#
# PCOD8325204 Si02
#       5
#    12  12  12  12   4
#     4   9  18  32  53  81 109 140 182 228 272 324
#     4  10  20  35  53  75 106 145 187 231 280 330
#     4   9  17  30  50  78 110 141 173 215 270 329
#     4   9  17  31  52  77 106 140 177 221 271 320
#     4  12  25  38  52  75 109 149 190 231 280 335
#
# _framework density 20.170262999999998
#
# number of rings (size 3 to 8) (size 9 to 14) (size 15 to 20)
#    0.000    2.538    0.000    2.308    0.000    6.462 
#    0.000    4.615    0.000    1.385    0.000    0.000 
#    0.000    1.846    0.000    0.000    0.000    0.000 
#
# Total GULP energy -644650.338836 kJ/mol
# GULP energy per Si atom -12397.121901 kJ/mol
# Density = 2.012435 g / cm^3
# Si number density = 20.170263 Si / 1000 Ang^3
#
#
#
# Elastic Constant Matrix: (Units=GPa)
#
#
# Indices 1 2 3 4 5 6 
#
# 1 132.3712 70.2960 36.9897 0.0000 0.0000 0.0000
# 2 70.2960 132.3692 36.9888 0.0000 0.0000 0.0002
# 3 36.9897 36.9888 78.1107 0.0000 0.0000 0.0005
# 4 0.0000 0.0000 0.0000 15.6841 0.0000 0.0000
# 5 0.0000 0.0000 0.0000 0.0000 15.6845 0.0000
# 6 0.0000 0.0002 0.0005 0.0000 0.0000 31.0359
#
#
#
# Elastic Compliance Matrix: (Units=1/GPa)
#
#
# Indices 1 2 3 4 5 6 
#
# 1 0.011038 -0.005072 -0.002825 0.000000 0.000000 0.000000
# 2 -0.005072 0.011038 -0.002825 0.000000 0.000000 0.000000
# 3 -0.002825 -0.002825 0.015478 0.000000 0.000000 0.000000
# 4 0.000000 0.000000 0.000000 0.063759 0.000000 0.000000
# 5 0.000000 0.000000 0.000000 0.000000 0.063757 0.000000
# 6 0.000000 0.000000 0.000000 0.000000 0.000000 0.032221
#
#
# Mechanical properties :
#
#
# Convention : Reuss Voigt Hill
#
# Bulk Modulus (GPa) = 62.07725 70.15557 66.11641
# Shear Modulus (GPa) = 22.31111 25.71933 24.01522
#
# Velocity S-wave (km/s) = 3.32947 3.57474 3.45429
# Velocity P-wave (km/s) = 6.75455 7.20386 6.98282
#
# Compressibility (1/GPa) = 0.01610896
#
# Stress axis : x y z
#
# Youngs Moduli (GPa) = 90.60007 90.59926 64.60865
#
# Poissons Ratio (x) = 0.45954 0.18252
# Poissons Ratio (y) = 0.45954 0.18251
# Poissons Ratio (z) = 0.25594 0.25593
#
# Static dielectric constant tensor:
#      x y z
#    x 3.755660 0.000000 0.000000 
#    y 0.000000 3.755680 0.000000 
#    z 0.000000 0.000000 3.473500 
# 
# 
# High freq. dielectric constant tensor:
#      x y z
#    x 1.784880 0.000000 0.000000 
#    y 0.000000 1.784880 0.000000 
#    z 0.000000 0.000000 1.761050 
# 
# From -- ./inp_files/625.got.cif
#   From: 2010.03.12/outbox.cif.g09.slc.cpg/sg175_1_cif.got.tgz:625.got - 2010.04.02 06:55:29.
