data_PCOD8325035
_publ_section_title
;
Structure prediction by ZEFSAII (Michael W. Deem and Ramdas Pophale) SiO2 
 PCOD8325035
Probable space group: P 6/M
;
_chemical_formula_sum "Si O2"
_cell_formula_units_Z 72
_cell_length_a 22.876449
_cell_length_b 22.876449
_cell_length_c 8.407842
_cell_angle_alpha 90.000000
_cell_angle_beta 90.000000
_cell_angle_gamma 120.000000
_cell_volume 3810.591527
_symmetry_space_group_name_H-M "P 6/M"
_symmetry_group_IT_number 175
_symmetry_cell_setting 'hexagonal'
loop_
_space_group_symop_operation_xyz
x,y,z
x-y,x,z
-y,x-y,z
-x,-y,z
-x+y,-x,z
y,-x+y,z
-x,-y,-z
-x+y,-x,-z
y,-x+y,-z
x,y,-z
x-y,x,-z
-y,x-y,-z
loop_
_atom_site_type_symbol
_atom_site_label
_atom_site_fract_x
_atom_site_fract_y
_atom_site_fract_z
Si Si1 0.139784 0.285885 0.813863
Si Si2 0.379642 0.375916 0.688229
Si Si3 0.752413 0.996748 0.687806
Si Si4 0.436213 0.216008 0.312754
Si Si5 0.867853 0.369537 0.688140
Si Si6 0.136812 0.504255 0.313019
O O1 0.177250 0.250058 0.731261
O O2 0.172282 0.364253 0.766391
O O3 0.061197 0.244605 0.764991
O O4 0.146519 0.280567 0.000000
O O5 0.377649 0.367367 0.500000
O O6 0.308667 0.316167 0.754878
O O7 0.392916 0.449004 0.737643
O O8 0.441965 0.371756 0.763401
O O9 0.758429 0.006725 0.500000
O O10 0.421535 0.202842 0.500000
O O11 0.472913 0.177778 0.239298
O O12 0.490810 0.293380 0.274946
O O13 0.857494 0.363937 0.500000
O O14 0.848860 0.423952 0.759068
O O15 0.124881 0.505962 0.500000
#
# Coordination Sequence:
#
# PCOD8325035 Si02
#       6
#    12  12  12  12  12  12
#     4  12  24  38  58  89 123 152 186 238 293 341
#     4   9  15  25  48  76 103 135 177 228 283 337
#     4  11  21  38  63  88 115 154 195 233 282 351
#     4  10  18  32  52  76 107 151 198 241 295 358
#     4   9  16  26  43  72 107 140 183 239 291 336
#     4   9  16  26  43  72 107 140 183 239 291 336
#
# _framework density 18.894703
#
# number of rings (size 3 to 8) (size 9 to 14) (size 15 to 20)
#    0.000    2.000    3.333    2.500    0.000    2.000 
#    1.000    0.000    0.000    1.333    0.000    4.667 
#    0.000    0.000    0.000    0.000    0.000    0.000 
#
# Total GULP energy -892512.890891 kJ/mol
# GULP energy per Si atom -12396.012373 kJ/mol
# Density = 1.885170 g / cm^3
# Si number density = 18.894703 Si / 1000 Ang^3
#
#
#
# Elastic Constant Matrix: (Units=GPa)
#
#
# Indices 1 2 3 4 5 6 
#
# 1 89.8295 26.9515 8.7288 0.0000 0.0000 0.0000
# 2 26.9515 89.8295 8.7288 0.0000 0.0000 0.0000
# 3 8.7288 8.7288 28.0101 0.0000 0.0000 0.0000
# 4 0.0000 0.0000 0.0000 7.6228 0.0000 0.0000
# 5 0.0000 0.0000 0.0000 0.0000 7.6228 0.0000
# 6 0.0000 0.0000 0.0000 0.0000 0.0000 31.4390
#
#
#
# Elastic Compliance Matrix: (Units=1/GPa)
#
#
# Indices 1 2 3 4 5 6 
#
# 1 0.012443 -0.003461 -0.002799 0.000000 0.000000 0.000000
# 2 -0.003461 0.012443 -0.002799 0.000000 0.000000 0.000000
# 3 -0.002799 -0.002799 0.037446 0.000000 0.000000 0.000000
# 4 0.000000 0.000000 0.000000 0.131186 0.000000 0.000000
# 5 0.000000 0.000000 0.000000 0.000000 0.131186 0.000000
# 6 0.000000 0.000000 0.000000 0.000000 0.000000 0.031808
#
#
# Mechanical properties :
#
#
# Convention : Reuss Voigt Hill
#
# Bulk Modulus (GPa) = 22.61772 32.94304 27.78038
# Shear Modulus (GPa) = 12.84138 20.22090 16.53114
#
# Velocity S-wave (km/s) = 2.60980 3.27492 2.96109
# Velocity P-wave (km/s) = 4.59105 5.63676 5.14057
#
# Compressibility (1/GPa) = 0.04421313
#
# Stress axis : x y z
#
# Youngs Moduli (GPa) = 80.36883 80.36883 26.70524
#
# Poissons Ratio (x) = 0.27817 0.07475
# Poissons Ratio (y) = 0.27817 0.07475
# Poissons Ratio (z) = 0.22494 0.22494
#
# Static dielectric constant tensor:
#      x y z
#    x 3.625590 0.000000 0.000000 
#    y 0.000000 3.625590 0.000000 
#    z 0.000000 0.000000 2.997190 
# 
# 
# High freq. dielectric constant tensor:
#      x y z
#    x 1.737230 0.000000 0.000000 
#    y 0.000000 1.737230 0.000000 
#    z 0.000000 0.000000 1.683100 
# 
# From -- ./inp_files/1211.got.cif
#   From: 2010.03.12/outbox.cif.g09.slc.cpg/sg175_1_cif.got.tgz:1211.got - 2010.04.02 06:55:29.
