data_PCOD8325058
_publ_section_title
;
Structure prediction by ZEFSAII (Michael W. Deem and Ramdas Pophale) SiO2 
 PCOD8325058
Probable space group: P 6/M
;
_chemical_formula_sum "Si O2"
_cell_formula_units_Z 82
_cell_length_a 22.638674
_cell_length_b 22.638674
_cell_length_c 12.237194
_cell_angle_alpha 90.000000
_cell_angle_beta 90.000000
_cell_angle_gamma 120.000000
_cell_volume 5431.433268
_symmetry_space_group_name_H-M "P 6/M"
_symmetry_group_IT_number 175
_symmetry_cell_setting 'hexagonal'
loop_
_space_group_symop_operation_xyz
x,y,z
x-y,x,z
-y,x-y,z
-x,-y,z
-x+y,-x,z
y,-x+y,z
-x,-y,-z
-x+y,-x,-z
y,-x+y,-z
x,y,-z
x-y,x,-z
-y,x-y,-z
loop_
_atom_site_type_symbol
_atom_site_label
_atom_site_fract_x
_atom_site_fract_y
_atom_site_fract_z
Si Si1 0.770693 0.172172 0.130116
Si Si2 0.666668 0.333334 0.130254
Si Si3 0.272596 0.239075 0.129903
Si Si4 0.191646 0.543402 0.869695
Si Si5 0.980526 0.851110 0.736995
Si Si6 0.981041 0.854700 0.500000
Si Si7 0.912182 0.295024 0.130131
Si Si8 0.436474 0.505891 0.130309
O O1 0.765527 0.102809 0.173205
O O2 0.707206 0.178163 0.175870
O O3 0.840176 0.235575 0.175440
O O4 0.769998 0.172834 0.000000
O O5 0.736055 0.397167 0.175044
O O6 0.666667 0.333334 0.000000
O O7 0.203486 0.176564 0.174178
O O8 0.281342 0.310110 0.173231
O O9 0.268247 0.235001 0.000000
O O10 0.132728 0.557022 0.825154
O O11 0.191659 0.542957 0.000000
O O12 0.920247 0.868166 0.754182
O O13 0.976162 0.817364 0.615806
O O14 0.924848 0.875719 0.500000
O O15 0.924749 0.367077 0.175985
O O16 0.912056 0.296181 0.000000
O O17 0.500000 0.500000 0.175260
O O18 0.436116 0.505494 0.000000
#
# Coordination Sequence:
#
# PCOD8325058 Si02
#       8
#    12   4  12  12  12   6  12  12
#     4   9  16  25  35  47  66  94 126 157 189 225
#     4   9  15  21  30  45  63  84 117 163 206 238
#     4  10  19  29  40  55  77 106 137 163 186 220
#     4   9  15  22  32  46  64  88 122 163 201 233
#     4  10  19  31  46  62  79  99 126 161 199 235
#     4   8  15  28  46  64  78  94 119 154 196 238
#     4   9  16  25  35  47  66  94 126 157 189 225
#     4   9  15  22  32  45  61  85 120 160 196 227
#
# _framework density 15.097303999999999
#
# number of rings (size 3 to 8) (size 9 to 14) (size 15 to 20)
#    0.000    2.780    0.000    2.854    0.000    9.951 
#    0.000    0.000    0.000    0.878    0.000    0.000 
#    0.000    0.000    0.000    5.927    0.000   12.073 
#
# Total GULP energy -1016316.591763 kJ/mol
# GULP energy per Si atom -12394.104778 kJ/mol
# Density = 1.506294 g / cm^3
# Si number density = 15.097304 Si / 1000 Ang^3
#
#
#
# Elastic Constant Matrix: (Units=GPa)
#
#
# Indices 1 2 3 4 5 6 
#
# 1 141.0101 70.0418 16.5521 0.0000 0.0000 0.0000
# 2 70.0418 141.0107 16.5520 0.0000 0.0000 0.0003
# 3 16.5521 16.5520 14.5367 0.0000 0.0000 0.0000
# 4 0.0000 0.0000 0.0000 4.1307 0.0000 0.0000
# 5 0.0000 0.0000 0.0000 0.0000 4.1308 0.0000
# 6 0.0000 0.0003 0.0000 0.0000 0.0000 35.4846
#
#
#
# Elastic Compliance Matrix: (Units=1/GPa)
#
#
# Indices 1 2 3 4 5 6 
#
# 1 0.009930 -0.004161 -0.006568 0.000000 0.000000 0.000000
# 2 -0.004161 0.009930 -0.006568 0.000000 0.000000 0.000000
# 3 -0.006568 -0.006568 0.083749 0.000000 0.000000 0.000000
# 4 0.000000 0.000000 0.000000 0.242087 0.000001 0.000000
# 5 0.000000 0.000000 0.000000 0.000001 0.242082 0.000000
# 6 0.000000 0.000000 0.000000 0.000000 0.000000 0.028181
#
#
# Mechanical properties :
#
#
# Convention : Reuss Voigt Hill
#
# Bulk Modulus (GPa) = 14.48999 55.87215 35.18107
# Shear Modulus (GPa) = 7.42328 21.64333 14.53330
#
# Velocity S-wave (km/s) = 2.21983 3.79038 3.10601
# Velocity P-wave (km/s) = 4.02352 7.49963 6.01802
#
# Compressibility (1/GPa) = 0.06901318
#
# Stress axis : x y z
#
# Youngs Moduli (GPa) = 100.70901 100.70956 11.94046
#
# Poissons Ratio (x) = 0.41907 0.07843
# Poissons Ratio (y) = 0.41907 0.07843
# Poissons Ratio (z) = 0.66147 0.66147
#
# Static dielectric constant tensor:
#      x y z
#    x 3.093560 0.000000 0.000000 
#    y 0.000000 3.093550 0.000000 
#    z 0.000000 0.000000 2.387830 
# 
# 
# High freq. dielectric constant tensor:
#      x y z
#    x 1.594380 0.000000 0.000000 
#    y 0.000000 1.594380 0.000000 
#    z 0.000000 0.000000 1.484840 
# 
# From -- ./inp_files/2020.got.cif
#   From: 2010.03.12/outbox.cif.g09.slc.cpg/sg175_2_cif.got.tgz:2020.got - 2010.04.02 06:55:29.
