data_PCOD8325294
_publ_section_title
;
Structure prediction by ZEFSAII (Michael W. Deem and Ramdas Pophale) SiO2 
 PCOD8325294
Probable space group: P 6/M
;
_chemical_formula_sum "Si O2"
_cell_formula_units_Z 60
_cell_length_a 14.962923
_cell_length_b 14.962923
_cell_length_c 14.140007
_cell_angle_alpha 90.000000
_cell_angle_beta 90.000000
_cell_angle_gamma 120.000000
_cell_volume 2741.657111
_symmetry_space_group_name_H-M "P 6/M"
_symmetry_group_IT_number 175
_symmetry_cell_setting 'hexagonal'
loop_
_space_group_symop_operation_xyz
x,y,z
x-y,x,z
-y,x-y,z
-x,-y,z
-x+y,-x,z
y,-x+y,z
-x,-y,-z
-x+y,-x,-z
y,-x+y,-z
x,y,-z
x-y,x,-z
-y,x-y,-z
loop_
_atom_site_type_symbol
_atom_site_label
_atom_site_fract_x
_atom_site_fract_y
_atom_site_fract_z
Si Si1 0.912193 0.153866 0.694634
Si Si2 0.115816 0.539017 0.699049
Si Si3 0.617963 0.202441 0.103548
Si Si4 0.151639 0.238211 0.900439
Si Si5 0.546564 0.789858 0.390622
O O1 0.892295 0.188796 0.799551
O O2 0.880209 0.215363 0.621927
O O3 0.031070 0.187292 0.678336
O O4 0.119908 0.531039 0.813081
O O5 0.148356 0.463555 0.649299
O O6 0.189800 0.655296 0.665444
O O7 0.000000 0.500000 0.666901
O O8 0.739342 0.290362 0.111800
O O9 0.598368 0.147747 0.000000
O O10 0.180459 0.150330 0.900975
O O11 0.193872 0.304464 0.000000
O O12 0.516906 0.778806 0.500000
#
# Coordination Sequence:
#
# PCOD8325294 Si02
#       5
#    12  12  12  12  12
#     4  10  21  38  60  88 124 165 205 247 300 367
#     4  12  24  42  69  98 125 162 211 259 325 387
#     4   8  15  35  66  94 129 169 201 242 305 378
#     4   8  13  24  46  77 112 151 194 238 284 339
#     4  12  26  45  65  89 122 159 209 273 324 367
#
# _framework density 21.884575000000002
#
# number of rings (size 3 to 8) (size 9 to 14) (size 15 to 20)
#    0.400    1.600    2.000    2.600    0.000    6.800 
#    0.000    2.000    0.000    6.000    0.000    0.000 
#    0.000    0.000    0.000    0.000    0.000    0.000 
#
# Total GULP energy -743332.020714 kJ/mol
# GULP energy per Si atom -12388.867012 kJ/mol
# Density = 2.183476 g / cm^3
# Si number density = 21.884575 Si / 1000 Ang^3
#
#
#
# Elastic Constant Matrix: (Units=GPa)
#
#
# Indices 1 2 3 4 5 6 
#
# 1 51.9532 -3.2804 19.3790 0.0000 0.0000 0.0000
# 2 -3.2804 51.9532 19.3790 0.0000 0.0000 0.0000
# 3 19.3790 19.3790 137.0550 0.0000 0.0000 0.0000
# 4 0.0000 0.0000 0.0000 20.9534 0.0000 0.0000
# 5 0.0000 0.0000 0.0000 0.0000 20.9534 0.0000
# 6 0.0000 0.0000 0.0000 0.0000 0.0000 27.6168
#
#
#
# Elastic Compliance Matrix: (Units=1/GPa)
#
#
# Indices 1 2 3 4 5 6 
#
# 1 0.020629 0.002524 -0.003274 0.000000 0.000000 0.000000
# 2 0.002524 0.020629 -0.003274 0.000000 0.000000 0.000000
# 3 -0.003274 -0.003274 0.008222 0.000000 0.000000 0.000000
# 4 0.000000 0.000000 0.000000 0.047725 0.000000 0.000000
# 5 0.000000 0.000000 0.000000 0.000000 0.047725 0.000000
# 6 0.000000 0.000000 0.000000 0.000000 0.000000 0.036210
#
#
# Mechanical properties :
#
#
# Convention : Reuss Voigt Hill
#
# Bulk Modulus (GPa) = 24.13599 34.65737 29.39668
# Shear Modulus (GPa) = 24.63093 27.60364 26.11729
#
# Velocity S-wave (km/s) = 3.35848 3.55537 3.45833
# Velocity P-wave (km/s) = 5.10802 5.72058 5.42296
#
# Compressibility (1/GPa) = 0.04143190
#
# Stress axis : x y z
#
# Youngs Moduli (GPa) = 48.47657 48.47657 121.62361
#
# Poissons Ratio (x) = -0.12234 0.39815
# Poissons Ratio (y) = -0.12234 0.39815
# Poissons Ratio (z) = 0.15869 0.15869
#
# Static dielectric constant tensor:
#      x y z
#    x 3.567120 0.000000 0.000000 
#    y 0.000000 3.567120 0.000000 
#    z 0.000000 0.000000 4.443430 
# 
# 
# High freq. dielectric constant tensor:
#      x y z
#    x 1.836620 0.000000 0.000000 
#    y 0.000000 1.836620 0.000000 
#    z 0.000000 0.000000 1.877920 
# 
# From -- ./inp_files/2382.got.cif
#   From: 2010.03.12/outbox.cif.g09.slc.cpg/sg175_2_cif.got.tgz:2382.got - 2010.04.02 06:55:29.
