data_PCOD8325139
_publ_section_title
;
Structure prediction by ZEFSAII (Michael W. Deem and Ramdas Pophale) SiO2 
 PCOD8325139
Probable space group: P 6/M
;
_chemical_formula_sum "Si O2"
_cell_formula_units_Z 46
_cell_length_a 17.907669
_cell_length_b 17.907669
_cell_length_c 9.318252
_cell_angle_alpha 90.000000
_cell_angle_beta 90.000000
_cell_angle_gamma 120.000000
_cell_volume 2587.874431
_symmetry_space_group_name_H-M "P 6/M"
_symmetry_group_IT_number 175
_symmetry_cell_setting 'hexagonal'
loop_
_space_group_symop_operation_xyz
x,y,z
x-y,x,z
-y,x-y,z
-x,-y,z
-x+y,-x,z
y,-x+y,z
-x,-y,-z
-x+y,-x,-z
y,-x+y,-z
x,y,-z
x-y,x,-z
-y,x-y,-z
loop_
_atom_site_type_symbol
_atom_site_label
_atom_site_fract_x
_atom_site_fract_y
_atom_site_fract_z
Si Si1 0.333334 0.666668 0.670639
Si Si2 0.262054 0.357323 0.841249
Si Si3 0.570606 0.594090 0.335650
Si Si4 0.740264 0.215580 0.335116
Si Si5 0.195647 0.048207 0.000000
O O1 0.333334 0.666668 0.500000
O O2 0.280853 0.712512 0.725493
O O3 0.344149 0.367741 0.758143
O O4 0.216257 0.401183 0.757615
O O5 0.290611 0.399626 0.000000
O O6 0.192199 0.255220 0.858775
O O7 0.500000 0.500000 0.279445
O O8 0.595447 0.588734 0.500000
O O9 0.529109 0.654059 0.318673
O O10 0.770970 0.234218 0.500000
O O11 0.161174 0.114639 0.000000
#
# Coordination Sequence:
#
# PCOD8325139 Si02
#       5
#     4  12  12  12   6
#     4   9  18  33  55  80 109 150 190 227 265 318
#     4  10  22  35  55  79 113 146 180 232 278 335
#     4  10  20  35  57  83 111 147 189 230 277 330
#     4  10  19  34  56  80 110 144 187 231 272 330
#     4  10  21  38  59  80 104 138 178 226 278 342
#
# _framework density 17.775205
#
# number of rings (size 3 to 8) (size 9 to 14) (size 15 to 20)
#    0.783    1.304    0.000    4.043    0.000    4.696 
#    0.000    3.913    0.000    0.000    0.000    0.000 
#    0.000   12.522    0.000    0.000    0.000    0.000 
#
# Total GULP energy -570320.247893 kJ/mol
# GULP energy per Si atom -12398.266259 kJ/mol
# Density = 1.773475 g / cm^3
# Si number density = 17.775205 Si / 1000 Ang^3
#
#
#
# Elastic Constant Matrix: (Units=GPa)
#
#
# Indices 1 2 3 4 5 6 
#
# 1 133.1268 58.0809 45.3289 0.0000 0.0000 0.0010
# 2 58.0809 133.1262 45.3291 0.0000 0.0000 0.0007
# 3 45.3289 45.3291 72.9636 0.0000 0.0000 0.0002
# 4 0.0000 0.0000 0.0000 28.9715 -0.0004 0.0000
# 5 0.0000 0.0000 0.0000 -0.0004 28.9712 0.0000
# 6 0.0010 0.0007 0.0002 0.0000 0.0000 37.5235
#
#
#
# Elastic Compliance Matrix: (Units=1/GPa)
#
#
# Indices 1 2 3 4 5 6 
#
# 1 0.010369 -0.002956 -0.004606 0.000000 0.000000 0.000000
# 2 -0.002956 0.010370 -0.004606 0.000000 0.000000 0.000000
# 3 -0.004606 -0.004606 0.019428 0.000000 0.000000 0.000000
# 4 0.000000 0.000000 0.000000 0.034517 0.000000 0.000000
# 5 0.000000 0.000000 0.000000 0.000000 0.034517 0.000000
# 6 0.000000 0.000000 0.000000 0.000000 0.000000 0.026650
#
#
# Mechanical properties :
#
#
# Convention : Reuss Voigt Hill
#
# Bulk Modulus (GPa) = 63.16154 70.74384 66.95269
# Shear Modulus (GPa) = 30.21822 31.79174 31.00498
#
# Velocity S-wave (km/s) = 4.12760 4.23371 4.18099
# Velocity P-wave (km/s) = 7.63720 7.98653 7.81381
#
# Compressibility (1/GPa) = 0.01583242
#
# Stress axis : x y z
#
# Youngs Moduli (GPa) = 96.43743 96.43656 51.47149
#
# Poissons Ratio (x) = 0.28504 0.23706
# Poissons Ratio (y) = 0.28505 0.23707
# Poissons Ratio (z) = 0.44417 0.44417
#
# Static dielectric constant tensor:
#      x y z
#    x 3.287680 0.000000 0.000000 
#    y 0.000000 3.287690 0.000000 
#    z 0.000000 0.000000 3.181960 
# 
# 
# High freq. dielectric constant tensor:
#      x y z
#    x 1.694920 0.000000 0.000000 
#    y 0.000000 1.694920 0.000000 
#    z 0.000000 0.000000 1.667620 
# 
# From -- ./inp_files/596.got.cif
#   From: 2010.03.12/outbox.cif.g09.slc.cpg/sg175_1_cif.got.tgz:596.got - 2010.04.02 06:55:29.
