data_PCOD8325597
_publ_section_title
;
Structure prediction by ZEFSAII (Michael W. Deem and Ramdas Pophale) SiO2 
 PCOD8325597
Probable space group: P 63/M
;
_chemical_formula_sum "Si O2"
_cell_formula_units_Z 46
_cell_length_a 15.338494
_cell_length_b 15.338494
_cell_length_c 12.324018
_cell_angle_alpha 90.000000
_cell_angle_beta 90.000000
_cell_angle_gamma 120.000000
_cell_volume 2511.009740
_symmetry_space_group_name_H-M "P 63/M"
_symmetry_group_IT_number 176
_symmetry_cell_setting 'hexagonal'
loop_
_space_group_symop_operation_xyz
x,y,z
x-y,x,1/2+z
-y,x-y,z
-x,-y,1/2+z
-x+y,-x,z
y,-x+y,1/2+z
-x,-y,-z
-x+y,-x,1/2-z
y,-x+y,-z
x,y,1/2-z
x-y,x,-z
-y,x-y,1/2-z
loop_
_atom_site_type_symbol
_atom_site_label
_atom_site_fract_x
_atom_site_fract_y
_atom_site_fract_z
Si Si1 0.175157 0.350359 0.128020
Si Si2 0.539467 0.269762 0.750000
Si Si3 0.446205 0.892424 0.877892
Si Si4 0.666668 0.333334 0.120800
Si Si5 0.999986 0.348393 0.999982
O O1 0.150491 0.301029 0.250000
O O2 0.235947 0.471975 0.141631
O O3 0.245566 0.319684 0.062339
O O4 0.074075 0.319659 0.062319
O O5 0.608775 0.217599 0.750000
O O6 0.446900 0.893736 0.750000
O O7 0.389807 0.779668 0.924975
O O8 0.383475 0.945190 0.914454
O O9 0.561683 0.945180 0.914510
O O10 0.666667 0.333334 0.250000
#
# Coordination Sequence:
#
# PCOD8325597 Si02
#       5
#    12   6  12   4  12
#     4  10  23  39  58  89 119 154 215 255 305 367
#     4   8  20  34  62  82 128 170 210 246 282 348
#     4  10  21  32  53  80 123 159 203 238 288 352
#     4   9  18  36  48  78 118 155 178 222 282 348
#     4  11  22  36  58  83 114 164 204 255 310 359
#
# _framework density 18.319324000000002
#
# number of rings (size 3 to 8) (size 9 to 14) (size 15 to 20)
#    1.043    1.043    0.000    3.130    7.304    0.000 
#    4.696    3.913    0.000    0.522    0.000    0.000 
#    0.000    0.000    0.000    0.000    0.000    0.000 
#
# Total GULP energy -570181.522857 kJ/mol
# GULP energy per Si atom -12395.250497 kJ/mol
# Density = 1.827763 g / cm^3
# Si number density = 18.319324 Si / 1000 Ang^3
#
#
#
# Elastic Constant Matrix: (Units=GPa)
#
#
# Indices 1 2 3 4 5 6 
#
# 1 128.5641 57.6189 56.5437 0.0000 0.0000 0.0005
# 2 57.6189 128.5633 56.5435 0.0000 0.0000 0.0001
# 3 56.5437 56.5435 105.8863 0.0000 0.0000 0.0002
# 4 0.0000 0.0000 0.0000 31.7708 0.0000 0.0000
# 5 0.0000 0.0000 0.0000 0.0000 31.7707 0.0000
# 6 0.0005 0.0001 0.0002 0.0000 0.0000 35.4726
#
#
#
# Elastic Compliance Matrix: (Units=1/GPa)
#
#
# Indices 1 2 3 4 5 6 
#
# 1 0.011022 -0.003073 -0.004245 0.000000 0.000000 0.000000
# 2 -0.003073 0.011023 -0.004245 0.000000 0.000000 0.000000
# 3 -0.004245 -0.004245 0.013978 0.000000 0.000000 0.000000
# 4 0.000000 0.000000 0.000000 0.031475 0.000000 0.000000
# 5 0.000000 0.000000 0.000000 0.000000 0.031476 0.000000
# 6 0.000000 0.000000 0.000000 0.000000 0.000000 0.028191
#
#
# Mechanical properties :
#
#
# Convention : Reuss Voigt Hill
#
# Bulk Modulus (GPa) = 77.53970 78.26955 77.90463
# Shear Modulus (GPa) = 32.34366 32.62331 32.48348
#
# Velocity S-wave (km/s) = 4.20640 4.22455 4.21548
# Velocity P-wave (km/s) = 8.12468 8.16172 8.14322
#
# Compressibility (1/GPa) = 0.01289662
#
# Stress axis : x y z
#
# Youngs Moduli (GPa) = 90.72378 90.72329 71.54169
#
# Poissons Ratio (x) = 0.27879 0.30370
# Poissons Ratio (y) = 0.27879 0.30370
# Poissons Ratio (z) = 0.38513 0.38513
#
# Static dielectric constant tensor:
#      x y z
#    x 3.322240 -0.000010 0.000000 
#    y -0.000010 3.322250 0.000000 
#    z 0.000000 0.000000 3.276290 
# 
# 
# High freq. dielectric constant tensor:
#      x y z
#    x 1.695240 0.000000 0.000000 
#    y 0.000000 1.695240 0.000000 
#    z 0.000000 0.000000 1.718500 
# 
# From -- ./inp_files/1700.got.cif
#   From: 2010.06.25/outbox.cif.g09.slc.cpg/sg176_1_cif.got.tgz:1700.got - 2010.06.28 12:15:01.
