data_PCOD8325226
_publ_section_title
;
Structure prediction by ZEFSAII (Michael W. Deem and Ramdas Pophale) SiO2 
 PCOD8325226
Probable space group: P 6/M
;
_chemical_formula_sum "Si O2"
_cell_formula_units_Z 60
_cell_length_a 22.543769
_cell_length_b 22.543769
_cell_length_c 7.759689
_cell_angle_alpha 90.000000
_cell_angle_beta 90.000000
_cell_angle_gamma 120.000000
_cell_volume 3415.293241
_symmetry_space_group_name_H-M "P 6/M"
_symmetry_group_IT_number 175
_symmetry_cell_setting 'hexagonal'
loop_
_space_group_symop_operation_xyz
x,y,z
x-y,x,z
-y,x-y,z
-x,-y,z
-x+y,-x,z
y,-x+y,z
-x,-y,-z
-x+y,-x,-z
y,-x+y,-z
x,y,-z
x-y,x,-z
-y,x-y,-z
loop_
_atom_site_type_symbol
_atom_site_label
_atom_site_fract_x
_atom_site_fract_y
_atom_site_fract_z
Si Si1 0.333648 0.800613 0.795519
Si Si2 0.263155 0.876660 0.309124
Si Si3 0.876660 0.263155 0.309124
Si Si4 0.289014 0.214302 0.000000
Si Si5 0.214302 0.289014 0.000000
Si Si6 0.199386 0.666352 0.204482
O O1 0.327064 0.864868 0.727085
O O2 0.404645 0.809289 0.724798
O O3 0.271587 0.728413 0.727051
O O4 0.332594 0.801473 0.000000
O O5 0.270449 0.908776 0.500000
O O6 0.196928 0.803072 0.293631
O O7 0.255887 0.924172 0.167630
O O8 0.908777 0.270449 0.500000
O O9 0.864868 0.327064 0.272916
O O10 0.924172 0.255887 0.167630
O O11 0.219716 0.219716 0.000000
O O12 0.269474 0.134737 0.000000
O O13 0.198527 0.667406 0.000000
#
# Coordination Sequence:
#
# PCOD8325226 Si02
#       6
#    12  12  12   6   6  12
#     4   9  15  24  40  64  95 131 172 218 265 306
#     4   9  17  30  48  70  97 130 167 205 243 282
#     4   9  17  30  48  70  97 130 167 205 243 282
#     4  10  20  36  57  80 103 125 151 185 227 277
#     4  10  20  36  57  80 103 125 151 185 227 277
#     4   9  15  24  40  64  95 131 172 218 265 306
#
# _framework density 17.568037
#
# number of rings (size 3 to 8) (size 9 to 14) (size 15 to 20)
#    0.000    2.800    2.000    0.400    0.000    3.200 
#    0.000    0.000    0.000    5.000    0.000    2.800 
#    0.000    0.000    0.000   10.000    0.000    0.000 
#
# Total GULP energy -743561.061886 kJ/mol
# GULP energy per Si atom -12392.684365 kJ/mol
# Density = 1.752805 g / cm^3
# Si number density = 17.568037 Si / 1000 Ang^3
#
#
#
# Elastic Constant Matrix: (Units=GPa)
#
#
# Indices 1 2 3 4 5 6 
#
# 1 80.3244 45.9799 30.8683 0.0000 0.0000 0.0000
# 2 45.9799 80.3244 30.8683 0.0000 0.0000 0.0000
# 3 30.8683 30.8683 97.3001 0.0000 0.0000 0.0000
# 4 0.0000 0.0000 0.0000 3.3805 0.0000 0.0000
# 5 0.0000 0.0000 0.0000 0.0000 3.3805 0.0000
# 6 0.0000 0.0000 0.0000 0.0000 0.0000 17.1722
#
#
#
# Elastic Compliance Matrix: (Units=1/GPa)
#
#
# Indices 1 2 3 4 5 6 
#
# 1 0.019244 -0.009873 -0.002973 0.000000 0.000000 0.000000
# 2 -0.009873 0.019244 -0.002973 0.000000 0.000000 0.000000
# 3 -0.002973 -0.002973 0.012164 0.000000 0.000000 0.000000
# 4 0.000000 0.000000 0.000000 0.295814 0.000000 0.000000
# 5 0.000000 0.000000 0.000000 0.000000 0.295814 0.000000
# 6 0.000000 0.000000 0.000000 0.000000 0.000000 0.058233
#
#
# Mechanical properties :
#
#
# Convention : Reuss Voigt Hill
#
# Bulk Modulus (GPa) = 52.59408 52.59799 52.59603
# Shear Modulus (GPa) = 6.77059 14.80214 10.78637
#
# Velocity S-wave (km/s) = 1.96527 2.90584 2.48054
# Velocity P-wave (km/s) = 5.92892 6.42364 6.18123
#
# Compressibility (1/GPa) = 0.01901355
#
# Stress axis : x y z
#
# Youngs Moduli (GPa) = 51.96533 51.96533 82.21194
#
# Poissons Ratio (x) = 0.51306 0.24440
# Poissons Ratio (y) = 0.51306 0.24440
# Poissons Ratio (z) = 0.15448 0.15448
#
# Static dielectric constant tensor:
#      x y z
#    x 2.987890 0.000000 0.000000 
#    y 0.000000 2.987890 0.000000 
#    z 0.000000 0.000000 3.410290 
# 
# 
# High freq. dielectric constant tensor:
#      x y z
#    x 1.643490 0.000000 0.000000 
#    y 0.000000 1.643490 0.000000 
#    z 0.000000 0.000000 1.689560 
# 
# From -- ./inp_files/888.got.cif
#   From: 2010.03.12/outbox.cif.g09.slc.cpg/sg175_1_cif.got.tgz:888.got - 2010.04.02 06:55:29.
