data_PCOD8325849
_publ_section_title
;
Structure prediction by ZEFSAII (Michael W. Deem and Ramdas Pophale) SiO2 
 PCOD8325849
Probable space group: P 61 2 2
;
_chemical_formula_sum "Si O2"
_cell_formula_units_Z 42
_cell_length_a 7.920234
_cell_length_b 7.920234
_cell_length_c 34.770120
_cell_angle_alpha 90.000000
_cell_angle_beta 90.000000
_cell_angle_gamma 120.000000
_cell_volume 1888.916877
_symmetry_space_group_name_H-M "P 61 2 2"
_symmetry_group_IT_number 178
_symmetry_cell_setting 'hexagonal'
loop_
_space_group_symop_operation_xyz
x,y,z
x-y,x,1/6+z
-y,x-y,1/3+z
-x,-y,1/2+z
-x+y,-x,2/3+z
y,-x+y,5/6+z
x-y,-y,-z
-x,-x+y,2/3-z
y,x,1/3-z
-y,-x,5/6-z
-x+y,y,1/2-z
x,x-y,1/6-z
loop_
_atom_site_type_symbol
_atom_site_label
_atom_site_fract_x
_atom_site_fract_y
_atom_site_fract_z
Si Si1 0.085212 0.689404 0.185378
Si Si2 0.306364 0.306364 0.666667
Si Si3 0.636963 0.563629 0.880880
Si Si4 0.476435 0.545264 0.092991
O O1 0.243519 0.910714 0.194244
O O2 0.896771 0.702977 0.174147
O O3 0.160407 0.614736 0.149712
O O4 0.063806 0.548497 0.221368
O O5 0.396599 0.447079 0.629754
O O6 0.490234 0.509766 0.916667
O O7 0.843658 0.595461 0.896785
O O8 0.517429 0.758715 0.083334
#
# Coordination Sequence:
#
# PCOD8325849 Si02
#       4
#    12   6  12  12
#     4  11  22  38  63  90 121 163 206 260 315 370
#     4  10  20  38  58  86 124 156 200 264 316 368
#     4  11  22  39  61  89 122 164 210 252 312 378
#     4   9  20  37  58  84 121 160 201 255 313 370
#
# _framework density 22.234964000000002
#
# number of rings (size 3 to 8) (size 9 to 14) (size 15 to 20)
#    0.000    1.714    0.000    6.857    0.000    1.143 
#    0.000    0.000    0.000   13.714    0.000    0.000 
#    0.000    0.000    0.000    0.000    0.000    0.000 
#
# Total GULP energy -520681.166878 kJ/mol
# GULP energy per Si atom -12397.170640 kJ/mol
# Density = 2.218436 g / cm^3
# Si number density = 22.234964 Si / 1000 Ang^3
#
#
#
# Elastic Constant Matrix: (Units=GPa)
#
#
# Indices 1 2 3 4 5 6 
#
# 1 89.9615 37.9518 46.2327 0.0000 0.0000 0.0000
# 2 37.9518 89.9615 46.2327 0.0000 0.0000 0.0000
# 3 46.2327 46.2327 162.6611 0.0000 0.0000 0.0000
# 4 0.0000 0.0000 0.0000 37.0409 0.0000 0.0000
# 5 0.0000 0.0000 0.0000 0.0000 37.0409 0.0000
# 6 0.0000 0.0000 0.0000 0.0000 0.0000 26.0048
#
#
#
# Elastic Compliance Matrix: (Units=1/GPa)
#
#
# Indices 1 2 3 4 5 6 
#
# 1 0.014533 -0.004694 -0.002797 0.000000 0.000000 0.000000
# 2 -0.004694 0.014533 -0.002797 0.000000 0.000000 0.000000
# 3 -0.002797 -0.002797 0.007738 0.000000 0.000000 0.000000
# 4 0.000000 0.000000 0.000000 0.026997 0.000000 0.000000
# 5 0.000000 0.000000 0.000000 0.000000 0.026997 0.000000
# 6 0.000000 0.000000 0.000000 0.000000 0.000000 0.038454
#
#
# Mechanical properties :
#
#
# Convention : Reuss Voigt Hill
#
# Bulk Modulus (GPa) = 61.61501 67.04651 64.33076
# Shear Modulus (GPa) = 32.20878 34.16176 33.18527
#
# Velocity S-wave (km/s) = 3.81013 3.92394 3.86746
# Velocity P-wave (km/s) = 6.86492 7.12383 6.99557
#
# Compressibility (1/GPa) = 0.01622981
#
# Stress axis : x y z
#
# Youngs Moduli (GPa) = 68.80748 68.80748 129.24063
#
# Poissons Ratio (x) = 0.32298 0.36144
# Poissons Ratio (y) = 0.32298 0.36144
# Poissons Ratio (z) = 0.19243 0.19243
#
# Static dielectric constant tensor:
#      x y z
#    x 3.719840 0.000000 0.000000 
#    y 0.000000 3.719840 0.000000 
#    z 0.000000 0.000000 4.667460 
# 
# 
# High freq. dielectric constant tensor:
#      x y z
#    x 1.856430 0.000000 0.000000 
#    y 0.000000 1.856430 0.000000 
#    z 0.000000 0.000000 1.909780 
# 
# From -- ./inp_files/9265.got.cif
#   From: 2010.03.12/outbox.cif.g09.slc.cpg/sg178_5_cif.got.tgz:9265.got - 2010.04.02 07:02:38.
