data_PCOD8325645
_publ_section_title
;
Structure prediction by ZEFSAII (Michael W. Deem and Ramdas Pophale) SiO2 
 PCOD8325645
Probable space group: P 63/M
;
_chemical_formula_sum "Si O2"
_cell_formula_units_Z 54
_cell_length_a 11.705730
_cell_length_b 11.705730
_cell_length_c 22.387402
_cell_angle_alpha 90.000000
_cell_angle_beta 90.000000
_cell_angle_gamma 120.000000
_cell_volume 2656.631603
_symmetry_space_group_name_H-M "P 63/M"
_symmetry_group_IT_number 176
_symmetry_cell_setting 'hexagonal'
loop_
_space_group_symop_operation_xyz
x,y,z
x-y,x,1/2+z
-y,x-y,z
-x,-y,1/2+z
-x+y,-x,z
y,-x+y,1/2+z
-x,-y,-z
-x+y,-x,1/2-z
y,-x+y,-z
x,y,1/2-z
x-y,x,-z
-y,x-y,1/2-z
loop_
_atom_site_type_symbol
_atom_site_label
_atom_site_fract_x
_atom_site_fract_y
_atom_site_fract_z
Si Si1 0.199272 0.506141 0.250000
Si Si2 0.040148 0.269198 0.816094
Si Si3 0.954756 0.723583 0.841960
Si Si4 0.650542 0.067321 0.430492
Si Si5 0.608183 0.922906 0.953954
O O1 0.356840 0.550877 0.250000
O O2 0.125535 0.417696 0.308353
O O3 0.008550 0.301375 0.750000
O O4 0.183347 0.282133 0.813896
O O5 0.031648 0.368897 0.862536
O O6 0.927065 0.123408 0.835868
O O7 0.977001 0.705610 0.911583
O O8 0.515591 0.065632 0.434359
O O9 0.771578 0.207953 0.447107
O O10 0.649336 0.962003 0.477328
#
# Coordination Sequence:
#
# PCOD8325645 Si02
#       5
#     6  12  12  12  12
#     4  10  24  38  58  92 134 160 200 262 310 384
#     4  11  21  37  62  88 122 161 209 258 310 371
#     4  11  22  39  62  92 123 166 212 260 317 368
#     4  10  22  39  60  84 118 159 201 257 310 380
#     4  10  22  40  62  87 120 159 208 257 314 379
#
# _framework density 20.326494
#
# number of rings (size 3 to 8) (size 9 to 14) (size 15 to 20)
#    0.222    1.333    2.222    2.222    3.111    0.000 
#    0.000    0.000    0.000    7.111    0.000    0.000 
#    0.000    0.000    0.000    0.000    0.000    0.000 
#
# Total GULP energy -669362.103146 kJ/mol
# GULP energy per Si atom -12395.594503 kJ/mol
# Density = 2.028023 g / cm^3
# Si number density = 20.326494 Si / 1000 Ang^3
#
#
#
# Elastic Constant Matrix: (Units=GPa)
#
#
# Indices 1 2 3 4 5 6 
#
# 1 82.7334 4.9574 57.1762 0.0000 0.0000 0.0000
# 2 4.9574 82.7334 57.1762 0.0000 0.0000 0.0000
# 3 57.1762 57.1762 145.9410 0.0000 0.0000 0.0000
# 4 0.0000 0.0000 0.0000 160.8452 0.0000 0.0000
# 5 0.0000 0.0000 0.0000 0.0000 160.8452 0.0000
# 6 0.0000 0.0000 0.0000 0.0000 0.0000 38.8880
#
#
#
# Elastic Compliance Matrix: (Units=1/GPa)
#
#
# Indices 1 2 3 4 5 6 
#
# 1 0.018086 0.005229 -0.009134 0.000000 0.000000 0.000000
# 2 0.005229 0.018086 -0.009134 0.000000 0.000000 0.000000
# 3 -0.009134 -0.009134 0.014009 0.000000 0.000000 0.000000
# 4 0.000000 0.000000 0.000000 0.006217 0.000000 0.000000
# 5 0.000000 0.000000 0.000000 0.000000 0.006217 0.000000
# 6 0.000000 0.000000 0.000000 0.000000 0.000000 0.025715
#
#
# Mechanical properties :
#
#
# Convention : Reuss Voigt Hill
#
# Bulk Modulus (GPa) = 41.48958 61.11415 51.30187
# Shear Modulus (GPa) = 40.83465 84.92222 62.87843
#
# Velocity S-wave (km/s) = 4.48698 6.47069 5.56789
# Velocity P-wave (km/s) = 6.87749 9.27135 8.16265
#
# Compressibility (1/GPa) = 0.02410244
#
# Stress axis : x y z
#
# Youngs Moduli (GPa) = 55.29027 55.29027 71.38090
#
# Poissons Ratio (x) = -0.28911 0.65202
# Poissons Ratio (y) = -0.28911 0.65202
# Poissons Ratio (z) = 0.50504 0.50504
#
# Static dielectric constant tensor:
#      x y z
#    x 3.601670 0.000000 0.000000 
#    y 0.000000 3.601670 0.000000 
#    z 0.000000 0.000000 4.042230 
# 
# 
# High freq. dielectric constant tensor:
#      x y z
#    x 1.792080 0.000000 0.000000 
#    y 0.000000 1.792080 0.000000 
#    z 0.000000 0.000000 1.806240 
# 
# From -- ./inp_files/3995.got.cif
#   From: 2010.06.25/outbox.cif.g09.slc.cpg/sg176_2_cif.got.tgz:3995.got - 2010.06.28 12:15:01.
