data_PCOD8325032
_publ_section_title
;
Structure prediction by ZEFSAII (Michael W. Deem and Ramdas Pophale) SiO2 
 PCOD8325032
Probable space group: P 6/M
;
_chemical_formula_sum "Si O2"
_cell_formula_units_Z 78
_cell_length_a 23.994494
_cell_length_b 23.994494
_cell_length_c 8.099361
_cell_angle_alpha 90.000000
_cell_angle_beta 90.000000
_cell_angle_gamma 120.000000
_cell_volume 4038.355801
_symmetry_space_group_name_H-M "P 6/M"
_symmetry_group_IT_number 175
_symmetry_cell_setting 'hexagonal'
loop_
_space_group_symop_operation_xyz
x,y,z
x-y,x,z
-y,x-y,z
-x,-y,z
-x+y,-x,z
y,-x+y,z
-x,-y,-z
-x+y,-x,-z
y,-x+y,-z
x,y,-z
x-y,x,-z
-y,x-y,-z
loop_
_atom_site_type_symbol
_atom_site_label
_atom_site_fract_x
_atom_site_fract_y
_atom_site_fract_z
Si Si1 0.509959 0.440290 0.304860
Si Si2 0.042546 0.375896 0.312923
Si Si3 0.355782 0.532987 0.814008
Si Si4 0.738269 0.335868 0.500000
Si Si5 0.209380 0.954535 0.690728
Si Si6 0.091838 0.704807 0.188086
Si Si7 0.169800 0.262676 0.189548
O O1 0.500000 0.500000 0.264320
O O2 0.521308 0.436928 0.500000
O O3 0.448022 0.373733 0.237400
O O4 0.570933 0.449679 0.203984
O O5 0.065278 0.386144 0.500000
O O6 0.965595 0.345390 0.303405
O O7 0.060898 0.324708 0.231742
O O8 0.335861 0.564663 0.670652
O O9 0.305928 0.457618 0.790760
O O10 0.347779 0.554151 0.000000
O O11 0.729480 0.398531 0.500000
O O12 0.225962 0.971824 0.500000
O O13 0.137787 0.895033 0.709618
O O14 0.214197 0.017482 0.775720
O O15 0.112624 0.777360 0.241793
O O16 0.066217 0.693179 0.000000
O O17 0.150680 0.258330 0.000000
#
# Coordination Sequence:
#
# PCOD8325032 Si02
#       7
#    12  12  12   6  12  12  12
#     4  10  18  31  55  86 124 161 194 237 293 359
#     4   9  18  31  51  81 119 157 188 231 285 349
#     4  11  22  39  64  90 114 150 199 246 307 370
#     4  10  26  50  65  78 104 150 202 260 314 355
#     4  10  20  36  55  84 116 153 197 240 289 343
#     4   9  19  33  53  83 117 148 185 232 287 352
#     4  10  20  37  58  82 117 158 193 234 288 346
#
# _framework density 19.314791
#
# number of rings (size 3 to 8) (size 9 to 14) (size 15 to 20)
#    0.154    2.000    2.308    0.923    1.077    2.769 
#    2.769    0.000    0.000    0.308    0.000    2.154 
#    0.000    0.000    0.000    0.000    0.000    0.000 
#
# Total GULP energy -966682.957925 kJ/mol
# GULP energy per Si atom -12393.371255 kJ/mol
# Density = 1.927083 g / cm^3
# Si number density = 19.314791 Si / 1000 Ang^3
#
#
#
# Elastic Constant Matrix: (Units=GPa)
#
#
# Indices 1 2 3 4 5 6 
#
# 1 97.4902 43.3675 24.3392 0.0000 0.0000 0.0000
# 2 43.3675 97.4902 24.3392 0.0000 0.0000 0.0000
# 3 24.3392 24.3392 63.8644 0.0000 0.0000 0.0000
# 4 0.0000 0.0000 0.0000 22.4875 0.0000 0.0000
# 5 0.0000 0.0000 0.0000 0.0000 22.4875 0.0000
# 6 0.0000 0.0000 0.0000 0.0000 0.0000 27.0613
#
#
#
# Elastic Compliance Matrix: (Units=1/GPa)
#
#
# Indices 1 2 3 4 5 6 
#
# 1 0.013326 -0.005150 -0.003116 0.000000 0.000000 0.000000
# 2 -0.005150 0.013326 -0.003116 0.000000 0.000000 0.000000
# 3 -0.003116 -0.003116 0.018033 0.000000 0.000000 0.000000
# 4 0.000000 0.000000 0.000000 0.044469 0.000000 0.000000
# 5 0.000000 0.000000 0.000000 0.000000 0.044469 0.000000
# 6 0.000000 0.000000 0.000000 0.000000 0.000000 0.036953
#
#
# Mechanical properties :
#
#
# Convention : Reuss Voigt Hill
#
# Bulk Modulus (GPa) = 45.61709 49.21519 47.41614
# Shear Modulus (GPa) = 24.91914 25.52719 25.22316
#
# Velocity S-wave (km/s) = 3.59577 3.63938 3.61764
# Velocity P-wave (km/s) = 6.39597 6.57237 6.48477
#
# Compressibility (1/GPa) = 0.02192161
#
# Stress axis : x y z
#
# Youngs Moduli (GPa) = 75.03909 75.03909 55.45305
#
# Poissons Ratio (x) = 0.38646 0.17279
# Poissons Ratio (y) = 0.38646 0.17279
# Poissons Ratio (z) = 0.23382 0.23382
#
# Static dielectric constant tensor:
#      x y z
#    x 3.419200 0.000000 0.000000 
#    y 0.000000 3.419200 0.000000 
#    z 0.000000 0.000000 3.450100 
# 
# 
# High freq. dielectric constant tensor:
#      x y z
#    x 1.736380 0.000000 0.000000 
#    y 0.000000 1.736380 0.000000 
#    z 0.000000 0.000000 1.749750 
# 
# From -- ./inp_files/1349.got.cif
#   From: 2010.03.12/outbox.cif.g09.slc.cpg/sg175_1_cif.got.tgz:1349.got - 2010.04.02 06:55:29.
