data_PCOD8325950
_publ_section_title
;
Structure prediction by ZEFSAII (Michael W. Deem and Ramdas Pophale) SiO2 
 PCOD8325950
Probable space group: P 61 2 2
;
_chemical_formula_sum "Si O2"
_cell_formula_units_Z 30
_cell_length_a 15.169569
_cell_length_b 15.169569
_cell_length_c 7.608593
_cell_angle_alpha 90.000000
_cell_angle_beta 90.000000
_cell_angle_gamma 120.000000
_cell_volume 1516.287199
_symmetry_space_group_name_H-M "P 61 2 2"
_symmetry_group_IT_number 178
_symmetry_cell_setting 'hexagonal'
loop_
_space_group_symop_operation_xyz
x,y,z
x-y,x,1/6+z
-y,x-y,1/3+z
-x,-y,1/2+z
-x+y,-x,2/3+z
y,-x+y,5/6+z
x-y,-y,-z
-x,-x+y,2/3-z
y,x,1/3-z
-y,-x,5/6-z
-x+y,y,1/2-z
x,x-y,1/6-z
loop_
_atom_site_type_symbol
_atom_site_label
_atom_site_fract_x
_atom_site_fract_y
_atom_site_fract_z
Si Si1 0.789600 0.210401 0.416667
Si Si2 0.598383 0.200750 0.558277
Si Si3 0.884345 0.260408 0.775437
O O1 0.673227 0.167234 0.473760
O O2 0.860595 0.211586 0.578176
O O3 0.574239 0.148477 0.750000
O O4 0.648025 0.324013 0.583334
O O5 0.496849 0.158112 0.442726
O O6 0.000000 0.314544 0.833334
O O7 0.827654 0.172347 0.916667
#
# Coordination Sequence:
#
# PCOD8325950 Si02
#       3
#     6  12  12
#     4  12  20  38  64  84 130 174 206 256 320 364
#     4  11  18  33  58  85 125 170 206 246 299 376
#     4  11  25  41  59  91 124 162 216 268 318 384
#
# _framework density 19.785170999999998
#
# number of rings (size 3 to 8) (size 9 to 14) (size 15 to 20)
#    0.000    0.800   10.000    1.200    0.000    4.800 
#    0.000    0.000    0.000    0.000    5.200    0.000 
#    0.000    0.000    0.000    0.000    0.000    0.000 
#
# Total GULP energy -371856.910365 kJ/mol
# GULP energy per Si atom -12395.230346 kJ/mol
# Density = 1.974014 g / cm^3
# Si number density = 19.785171 Si / 1000 Ang^3
#
#
#
# Elastic Constant Matrix: (Units=GPa)
#
#
# Indices 1 2 3 4 5 6 
#
# 1 48.6756 32.7127 24.4910 0.0000 0.0000 0.0000
# 2 32.7127 48.6756 24.4910 0.0000 0.0000 0.0000
# 3 24.4910 24.4910 167.1292 0.0000 0.0000 0.0000
# 4 0.0000 0.0000 0.0000 18.6526 0.0000 0.0000
# 5 0.0000 0.0000 0.0000 0.0000 18.6526 0.0000
# 6 0.0000 0.0000 0.0000 0.0000 0.0000 7.9815
#
#
#
# Elastic Compliance Matrix: (Units=1/GPa)
#
#
# Indices 1 2 3 4 5 6 
#
# 1 0.038060 -0.024585 -0.001975 0.000000 0.000000 0.000000
# 2 -0.024585 0.038060 -0.001975 0.000000 0.000000 0.000000
# 3 -0.001975 -0.001975 0.006562 0.000000 0.000000 0.000000
# 4 0.000000 0.000000 0.000000 0.053612 0.000000 0.000000
# 5 0.000000 0.000000 0.000000 0.000000 0.053612 0.000000
# 6 0.000000 0.000000 0.000000 0.000000 0.000000 0.125290
#
#
# Mechanical properties :
#
#
# Convention : Reuss Voigt Hill
#
# Bulk Modulus (GPa) = 39.04129 47.54107 43.29118
# Shear Modulus (GPa) = 13.13017 21.24305 17.18661
#
# Velocity S-wave (km/s) = 2.57891 3.28027 2.95050
# Velocity P-wave (km/s) = 5.35193 6.19901 5.79098
#
# Compressibility (1/GPa) = 0.02561391
#
# Stress axis : x y z
#
# Youngs Moduli (GPa) = 26.27426 26.27426 152.38978
#
# Poissons Ratio (x) = 0.64595 0.30091
# Poissons Ratio (y) = 0.64595 0.30091
# Poissons Ratio (z) = 0.05188 0.05188
#
# Static dielectric constant tensor:
#      x y z
#    x 3.178300 0.000000 0.000000 
#    y 0.000000 3.178300 0.000000 
#    z 0.000000 0.000000 4.186680 
# 
# 
# High freq. dielectric constant tensor:
#      x y z
#    x 1.718140 0.000000 0.000000 
#    y 0.000000 1.718140 0.000000 
#    z 0.000000 0.000000 1.811050 
# 
# From -- ./inp_files/2016.got.cif
#   From: 2010.03.12/outbox.cif.g09.slc.cpg/sg178_2_cif.got.tgz:2016.got - 2010.04.02 07:02:38.
