data_PCOD8325959
_publ_section_title
;
Structure prediction by ZEFSAII (Michael W. Deem and Ramdas Pophale) SiO2 
 PCOD8325959
Probable space group: P 61 2 2
;
_chemical_formula_sum "Si O2"
_cell_formula_units_Z 48
_cell_length_a 24.284492
_cell_length_b 24.284492
_cell_length_c 4.873122
_cell_angle_alpha 90.000000
_cell_angle_beta 90.000000
_cell_angle_gamma 120.000000
_cell_volume 2488.834177
_symmetry_space_group_name_H-M "P 61 2 2"
_symmetry_group_IT_number 178
_symmetry_cell_setting 'hexagonal'
loop_
_space_group_symop_operation_xyz
x,y,z
x-y,x,1/6+z
-y,x-y,1/3+z
-x,-y,1/2+z
-x+y,-x,2/3+z
y,-x+y,5/6+z
x-y,-y,-z
-x,-x+y,2/3-z
y,x,1/3-z
-y,-x,5/6-z
-x+y,y,1/2-z
x,x-y,1/6-z
loop_
_atom_site_type_symbol
_atom_site_label
_atom_site_fract_x
_atom_site_fract_y
_atom_site_fract_z
Si Si1 0.427405 0.924273 0.502410
Si Si2 0.113286 0.334440 0.403441
Si Si3 0.073506 0.695098 0.264715
Si Si4 0.808052 0.958860 0.247624
O O1 0.448572 0.897143 0.250000
O O2 0.352411 0.898801 0.526347
O O3 0.463313 0.000000 0.500000
O O4 0.448344 0.896687 0.750000
O O5 0.180553 0.361106 0.250000
O O6 0.117186 0.361295 0.709129
O O7 0.080273 0.258646 0.430657
O O8 0.075213 0.358786 0.215846
O O9 0.000000 0.661891 0.333334
O O10 0.855922 0.000000 0.500000
O O11 0.830897 0.915449 0.083334
O O12 0.801697 0.000000 0.000000
#
# Coordination Sequence:
#
# PCOD8325959 Si02
#       4
#    12  12  12  12
#     4   9  17  30  47  70  99 132 171 209 241 276
#     4  12  23  35  51  76 108 142 177 215 262 316
#     4  11  21  33  52  74 102 142 181 214 252 306
#     4  12  24  40  60  82 107 138 178 226 279 340
#
# _framework density 19.28614
#
# number of rings (size 3 to 8) (size 9 to 14) (size 15 to 20)
#    0.000    1.000    0.000   10.500    0.000    4.000 
#    0.000    0.000    0.000    1.500    0.000    1.750 
#    0.000    0.000    0.000   94.500    0.000    0.000 
#
# Total GULP energy -594850.347664 kJ/mol
# GULP energy per Si atom -12392.715576 kJ/mol
# Density = 1.924224 g / cm^3
# Si number density = 19.286140 Si / 1000 Ang^3
#
#
#
# Elastic Constant Matrix: (Units=GPa)
#
#
# Indices 1 2 3 4 5 6 
#
# 1 68.6559 30.3699 31.3266 0.0000 0.0000 0.0000
# 2 30.3699 68.6559 31.3266 0.0000 0.0000 0.0000
# 3 31.3266 31.3266 137.7895 0.0000 0.0000 0.0000
# 4 0.0000 0.0000 0.0000 34.9200 0.0000 0.0000
# 5 0.0000 0.0000 0.0000 0.0000 34.9200 0.0000
# 6 0.0000 0.0000 0.0000 0.0000 0.0000 19.1430
#
#
#
# Elastic Compliance Matrix: (Units=1/GPa)
#
#
# Indices 1 2 3 4 5 6 
#
# 1 0.018957 -0.007162 -0.002682 0.000000 0.000000 0.000000
# 2 -0.007162 0.018957 -0.002682 0.000000 0.000000 0.000000
# 3 -0.002682 -0.002682 0.008477 0.000000 0.000000 0.000000
# 4 0.000000 0.000000 0.000000 0.028637 0.000000 0.000000
# 5 0.000000 0.000000 0.000000 0.000000 0.028637 0.000000
# 6 0.000000 0.000000 0.000000 0.000000 0.000000 0.052238
#
#
# Mechanical properties :
#
#
# Convention : Reuss Voigt Hill
#
# Bulk Modulus (GPa) = 46.85950 51.23860 49.04905
# Shear Modulus (GPa) = 26.58626 29.93518 28.26072
#
# Velocity S-wave (km/s) = 3.71687 3.94402 3.83213
# Velocity P-wave (km/s) = 6.53987 6.88227 6.71325
#
# Compressibility (1/GPa) = 0.02134039
#
# Stress axis : x y z
#
# Youngs Moduli (GPa) = 52.75069 52.75069 117.96938
#
# Poissons Ratio (x) = 0.37780 0.31635
# Poissons Ratio (y) = 0.37780 0.31635
# Poissons Ratio (z) = 0.14146 0.14146
#
# Static dielectric constant tensor:
#      x y z
#    x 3.375220 0.000000 0.000000 
#    y 0.000000 3.375220 0.000000 
#    z 0.000000 0.000000 4.064190 
# 
# 
# High freq. dielectric constant tensor:
#      x y z
#    x 1.713840 0.000000 0.000000 
#    y 0.000000 1.713840 0.000000 
#    z 0.000000 0.000000 1.787100 
# 
# From -- ./inp_files/1040.got.cif
#   From: 2010.03.12/outbox.cif.g09.slc.cpg/sg178_1_cif.got.tgz:1040.got - 2010.04.02 07:02:38.
