data_PCOD8325879
_publ_section_title
;
Structure prediction by ZEFSAII (Michael W. Deem and Ramdas Pophale) SiO2 
 PCOD8325879
Probable space group: P 61 2 2
;
_chemical_formula_sum "Si O2"
_cell_formula_units_Z 48
_cell_length_a 13.984995
_cell_length_b 13.984995
_cell_length_c 11.065392
_cell_angle_alpha 90.000000
_cell_angle_beta 90.000000
_cell_angle_gamma 120.000000
_cell_volume 1874.226466
_symmetry_space_group_name_H-M "P 61 2 2"
_symmetry_group_IT_number 178
_symmetry_cell_setting 'hexagonal'
loop_
_space_group_symop_operation_xyz
x,y,z
x-y,x,1/6+z
-y,x-y,1/3+z
-x,-y,1/2+z
-x+y,-x,2/3+z
y,-x+y,5/6+z
x-y,-y,-z
-x,-x+y,2/3-z
y,x,1/3-z
-y,-x,5/6-z
-x+y,y,1/2-z
x,x-y,1/6-z
loop_
_atom_site_type_symbol
_atom_site_label
_atom_site_fract_x
_atom_site_fract_y
_atom_site_fract_z
Si Si1 0.158934 0.511981 0.421813
Si Si2 0.000000 0.183896 0.833334
Si Si3 0.649922 0.765842 0.381212
Si Si4 0.514327 0.028653 0.250000
Si Si5 0.354308 0.677154 0.583334
Si Si6 0.797643 0.898822 0.583334
O O1 0.144620 0.391502 0.443125
O O2 0.050835 0.511952 0.466584
O O3 0.273794 0.597750 0.482587
O O4 0.191878 0.561326 0.285365
O O5 0.078798 0.157596 0.750000
O O6 0.928281 0.216028 0.745915
O O7 0.544905 0.643844 0.391471
O O8 0.728048 0.791741 0.498091
O O9 0.876881 0.876881 0.666667
#
# Coordination Sequence:
#
# PCOD8325879 Si02
#       6
#    12   6  12   6   6   6
#     4  10  21  39  65 100 148 198 252 313 375 460
#     4  12  28  54  80 116 154 208 272 352 426 508
#     4  12  27  48  75 116 159 204 269 326 406 488
#     4  11  24  44  75 112 151 210 252 327 394 470
#     4   9  19  36  62  96 142 204 253 293 374 464
#     4  12  27  54  81 114 155 206 267 342 406 490
#
# _framework density 25.610565999999999
#
# number of rings (size 3 to 8) (size 9 to 14) (size 15 to 20)
#    0.000    1.000    0.000    6.750    3.500    0.000 
#   15.750    0.000    0.000    0.000    0.000    0.000 
#    0.000    0.000    0.000    0.000    0.000    0.000 
#
# Total GULP energy -594907.701206 kJ/mol
# GULP energy per Si atom -12393.910442 kJ/mol
# Density = 2.555228 g / cm^3
# Si number density = 25.610566 Si / 1000 Ang^3
#
#
#
# Elastic Constant Matrix: (Units=GPa)
#
#
# Indices 1 2 3 4 5 6 
#
# 1 109.3065 45.4079 33.8806 0.0000 0.0000 0.0000
# 2 45.4079 109.3065 33.8806 0.0000 0.0000 0.0000
# 3 33.8806 33.8806 102.9865 0.0000 0.0000 0.0000
# 4 0.0000 0.0000 0.0000 19.4673 0.0000 0.0000
# 5 0.0000 0.0000 0.0000 0.0000 19.4673 0.0000
# 6 0.0000 0.0000 0.0000 0.0000 0.0000 31.9493
#
#
#
# Elastic Compliance Matrix: (Units=1/GPa)
#
#
# Indices 1 2 3 4 5 6 
#
# 1 0.011601 -0.004049 -0.002484 0.000000 0.000000 0.000000
# 2 -0.004049 0.011601 -0.002484 0.000000 0.000000 0.000000
# 3 -0.002484 -0.002484 0.011345 0.000000 0.000000 0.000000
# 4 0.000000 0.000000 0.000000 0.051368 0.000000 0.000000
# 5 0.000000 0.000000 0.000000 0.000000 0.051368 0.000000
# 6 0.000000 0.000000 0.000000 0.000000 0.000000 0.031300
#
#
# Mechanical properties :
#
#
# Convention : Reuss Voigt Hill
#
# Bulk Modulus (GPa) = 60.56759 60.88195 60.72477
# Shear Modulus (GPa) = 26.02526 28.07213 27.04870
#
# Velocity S-wave (km/s) = 3.19124 3.31435 3.25338
# Velocity P-wave (km/s) = 6.10569 6.20245 6.15426
#
# Compressibility (1/GPa) = 0.01651048
#
# Stress axis : x y z
#
# Youngs Moduli (GPa) = 86.20168 86.20168 88.14755
#
# Poissons Ratio (x) = 0.34904 0.21899
# Poissons Ratio (y) = 0.34904 0.21899
# Poissons Ratio (z) = 0.21415 0.21415
#
# Static dielectric constant tensor:
#      x y z
#    x 4.668610 0.000000 0.000000 
#    y 0.000000 4.668610 0.000000 
#    z 0.000000 0.000000 4.739640 
# 
# 
# High freq. dielectric constant tensor:
#      x y z
#    x 2.029190 0.000000 0.000000 
#    y 0.000000 2.029190 0.000000 
#    z 0.000000 0.000000 2.042580 
# 
# From -- ./inp_files/4224.got.cif
#   From: 2010.03.12/outbox.cif.g09.slc.cpg/sg178_3_cif.got.tgz:4224.got - 2010.04.02 07:02:38.
