data_PCOD8325470
_publ_section_title
;
Structure prediction by ZEFSAII (Michael W. Deem and Ramdas Pophale) SiO2 
 PCOD8325470
Probable space group: P 63/M
;
_chemical_formula_sum "Si O2"
_cell_formula_units_Z 72
_cell_length_a 23.459961
_cell_length_b 23.459961
_cell_length_c 9.041475
_cell_angle_alpha 90.000000
_cell_angle_beta 90.000000
_cell_angle_gamma 120.000000
_cell_volume 4309.476225
_symmetry_space_group_name_H-M "P 63/M"
_symmetry_group_IT_number 176
_symmetry_cell_setting 'hexagonal'
loop_
_space_group_symop_operation_xyz
x,y,z
x-y,x,1/2+z
-y,x-y,z
-x,-y,1/2+z
-x+y,-x,z
y,-x+y,1/2+z
-x,-y,-z
-x+y,-x,1/2-z
y,-x+y,-z
x,y,1/2-z
x-y,x,-z
-y,x-y,1/2-z
loop_
_atom_site_type_symbol
_atom_site_label
_atom_site_fract_x
_atom_site_fract_y
_atom_site_fract_z
Si Si1 0.806346 0.064946 0.419384
Si Si2 0.410326 0.264205 0.076991
Si Si3 0.530593 0.601671 0.421195
Si Si4 0.599761 0.856362 0.421199
Si Si5 0.532291 0.938121 0.081698
Si Si6 0.067161 0.801676 0.577853
O O1 0.797580 0.041457 0.250000
O O2 0.756790 0.091745 0.457198
O O3 0.880946 0.121733 0.451420
O O4 0.791102 0.004105 0.524675
O O5 0.422656 0.264129 0.250000
O O6 0.458942 0.335445 0.011548
O O7 0.427769 0.212761 0.003227
O O8 0.544129 0.620622 0.250000
O O9 0.581278 0.578753 0.474183
O O10 0.455984 0.544250 0.451991
O O11 0.611193 0.847732 0.250000
O O12 0.545374 0.878111 0.443997
O O13 0.668283 0.912674 0.488267
O O14 0.549461 0.964708 0.250000
O O15 0.065669 0.784963 0.750000
#
# Coordination Sequence:
#
# PCOD8325470 Si02
#       6
#    12  12  12  12  12  12
#     4   9  19  33  47  67  96 125 153 190 234 277
#     4  10  20  33  48  70  99 126 157 198 239 280
#     4  10  19  31  49  72  97 127 161 193 234 286
#     4  10  19  32  50  70  95 127 159 193 236 282
#     4   9  19  33  48  70  99 127 157 196 237 279
#     4  10  20  32  48  72  98 124 157 195 234 279
#
# _framework density 16.707367000000001
#
# number of rings (size 3 to 8) (size 9 to 14) (size 15 to 20)
#    0.000    2.333    0.000    4.000    0.000   10.000 
#    0.000    0.000    0.000    1.000    0.000    2.333 
#    0.000    0.000    0.000    0.000    0.000    0.000 
#
# Total GULP energy -893042.497524 kJ/mol
# GULP energy per Si atom -12403.368021 kJ/mol
# Density = 1.666934 g / cm^3
# Si number density = 16.707367 Si / 1000 Ang^3
#
#
#
# Elastic Constant Matrix: (Units=GPa)
#
#
# Indices 1 2 3 4 5 6 
#
# 1 102.4541 55.3573 60.1967 0.0000 0.0000 0.0000
# 2 55.3573 102.4541 60.1967 0.0000 0.0000 0.0000
# 3 60.1967 60.1967 111.6892 0.0000 0.0000 0.0000
# 4 0.0000 0.0000 0.0000 30.0905 0.0000 0.0000
# 5 0.0000 0.0000 0.0000 0.0000 30.0905 0.0000
# 6 0.0000 0.0000 0.0000 0.0000 0.0000 23.5484
#
#
#
# Elastic Compliance Matrix: (Units=1/GPa)
#
#
# Indices 1 2 3 4 5 6 
#
# 1 0.015997 -0.005236 -0.005800 0.000000 0.000000 0.000000
# 2 -0.005236 0.015997 -0.005800 0.000000 0.000000 0.000000
# 3 -0.005800 -0.005800 0.015206 0.000000 0.000000 0.000000
# 4 0.000000 0.000000 0.000000 0.033233 0.000000 0.000000
# 5 0.000000 0.000000 0.000000 0.000000 0.033233 0.000000
# 6 0.000000 0.000000 0.000000 0.000000 0.000000 0.042466
#
#
# Mechanical properties :
#
#
# Convention : Reuss Voigt Hill
#
# Bulk Modulus (GPa) = 73.91971 74.23324 74.07647
# Shear Modulus (GPa) = 25.73167 26.13565 25.93366
#
# Velocity S-wave (km/s) = 3.92872 3.95944 3.94411
# Velocity P-wave (km/s) = 8.05727 8.08893 8.07311
#
# Compressibility (1/GPa) = 0.01352819
#
# Stress axis : x y z
#
# Youngs Moduli (GPa) = 62.51094 62.51094 65.76547
#
# Poissons Ratio (x) = 0.32729 0.38145
# Poissons Ratio (y) = 0.32729 0.38145
# Poissons Ratio (z) = 0.36257 0.36257
#
# Static dielectric constant tensor:
#      x y z
#    x 3.036580 0.000000 0.000000 
#    y 0.000000 3.036580 0.000000 
#    z 0.000000 0.000000 3.264470 
# 
# 
# High freq. dielectric constant tensor:
#      x y z
#    x 1.631130 0.000000 0.000000 
#    y 0.000000 1.631130 0.000000 
#    z 0.000000 0.000000 1.660120 
# 
# From -- ./inp_files/1164.got.cif
#   From: 2010.06.25/outbox.cif.g09.slc.cpg/sg176_1_cif.got.tgz:1164.got - 2010.06.28 12:15:01.
