data_PCOD8325538
_publ_section_title
;
Structure prediction by ZEFSAII (Michael W. Deem and Ramdas Pophale) SiO2 
 PCOD8325538
Probable space group: P 63/M
;
_chemical_formula_sum "Si O2"
_cell_formula_units_Z 72
_cell_length_a 12.577641
_cell_length_b 12.577641
_cell_length_c 31.368620
_cell_angle_alpha 90.000000
_cell_angle_beta 90.000000
_cell_angle_gamma 120.000000
_cell_volume 4297.584594
_symmetry_space_group_name_H-M "P 63/M"
_symmetry_group_IT_number 176
_symmetry_cell_setting 'hexagonal'
loop_
_space_group_symop_operation_xyz
x,y,z
x-y,x,1/2+z
-y,x-y,z
-x,-y,1/2+z
-x+y,-x,z
y,-x+y,1/2+z
-x,-y,-z
-x+y,-x,1/2-z
y,-x+y,-z
x,y,1/2-z
x-y,x,-z
-y,x-y,1/2-z
loop_
_atom_site_type_symbol
_atom_site_label
_atom_site_fract_x
_atom_site_fract_y
_atom_site_fract_z
Si Si1 0.084026 0.665147 0.250000
Si Si2 0.755306 0.755306 0.500000
Si Si3 0.001066 0.250150 0.907956
Si Si4 0.915826 0.333988 0.170207
Si Si5 0.333988 0.915826 0.670207
Si Si6 0.749850 0.998934 0.907956
Si Si7 0.334853 0.915974 0.250000
O O1 0.204490 0.795510 0.250000
O O2 0.121892 0.560946 0.250000
O O3 0.006049 0.655697 0.208549
O O4 0.775256 0.887628 0.492007
O O5 0.686215 0.697807 0.545040
O O6 0.697807 0.686215 0.454960
O O7 0.019186 0.351687 0.873650
O O8 0.106769 0.213537 0.903846
O O9 0.870396 0.129604 0.899971
O O10 0.790254 0.209746 0.178063
O O11 0.885774 0.442887 0.168252
O O12 0.980814 0.332502 0.126350
O O13 0.006049 0.350352 0.208549
#
# Coordination Sequence:
#
# PCOD8325538 Si02
#       7
#     6  12  12  12  12  12   6
#     4  10  20  34  52  72  92 114 142 180 226 272
#     4   8  13  22  39  64  92 120 150 186 232 284
#     4   9  16  27  45  69  95 121 151 191 239 286
#     4  10  20  33  49  68  92 124 159 191 221 259
#     4  10  20  33  49  68  92 124 159 191 221 259
#     4   9  16  27  45  69  95 121 151 191 239 286
#     4  10  20  34  52  72  92 114 142 180 226 272
#
# _framework density 16.753598
#
# number of rings (size 3 to 8) (size 9 to 14) (size 15 to 20)
#    0.000    2.667    0.000    2.500    0.000    2.667 
#    0.000    2.500    0.000    5.333    0.000    0.000 
#    0.000    0.000    0.000    0.000    0.000    0.000 
#
# Total GULP energy -892142.764525 kJ/mol
# GULP energy per Si atom -12390.871730 kJ/mol
# Density = 1.671547 g / cm^3
# Si number density = 16.753598 Si / 1000 Ang^3
#
#
#
# Elastic Constant Matrix: (Units=GPa)
#
#
# Indices 1 2 3 4 5 6 
#
# 1 83.4157 47.9414 62.6494 0.0000 0.0000 0.0000
# 2 47.9414 83.4157 62.6494 0.0000 0.0000 0.0000
# 3 62.6494 62.6494 171.0705 0.0000 0.0000 0.0000
# 4 0.0000 0.0000 0.0000 14.5048 0.0000 0.0000
# 5 0.0000 0.0000 0.0000 0.0000 14.5048 0.0000
# 6 0.0000 0.0000 0.0000 0.0000 0.0000 17.7372
#
#
#
# Elastic Compliance Matrix: (Units=1/GPa)
#
#
# Indices 1 2 3 4 5 6 
#
# 1 0.019945 -0.008245 -0.004285 0.000000 0.000000 0.000000
# 2 -0.008245 0.019945 -0.004285 0.000000 0.000000 0.000000
# 3 -0.004285 -0.004285 0.008984 0.000000 0.000000 0.000000
# 4 0.000000 0.000000 0.000000 0.068943 0.000000 0.000000
# 5 0.000000 0.000000 0.000000 0.000000 0.068943 0.000000
# 6 0.000000 0.000000 0.000000 0.000000 0.000000 0.056379
#
#
# Mechanical properties :
#
#
# Convention : Reuss Voigt Hill
#
# Bulk Modulus (GPa) = 65.59622 76.04247 70.81935
# Shear Modulus (GPa) = 17.74012 20.32683 19.03348
#
# Velocity S-wave (km/s) = 3.25758 3.48700 3.37424
# Velocity P-wave (km/s) = 7.30668 7.85490 7.58575
#
# Compressibility (1/GPa) = 0.01524478
#
# Stress axis : x y z
#
# Youngs Moduli (GPa) = 50.13871 50.13871 111.31062
#
# Poissons Ratio (x) = 0.41338 0.47694
# Poissons Ratio (y) = 0.41338 0.47694
# Poissons Ratio (z) = 0.21483 0.21483
#
# Static dielectric constant tensor:
#      x y z
#    x 2.932860 0.000000 0.000000 
#    y 0.000000 2.932860 0.000000 
#    z 0.000000 0.000000 3.557270 
# 
# 
# High freq. dielectric constant tensor:
#      x y z
#    x 1.627180 0.000000 0.000000 
#    y 0.000000 1.627180 0.000000 
#    z 0.000000 0.000000 1.675150 
# 
# From -- ./inp_files/4522.got.cif
#   From: 2010.06.25/outbox.cif.g09.slc.cpg/sg176_3_cif.got.tgz:4522.got - 2010.06.28 12:15:01.
