data_PCOD8325705
_publ_section_title
;
Structure prediction by ZEFSAII (Michael W. Deem and Ramdas Pophale) SiO2 
 PCOD8325705
Probable space group: P 63/M
;
_chemical_formula_sum "Si O2"
_cell_formula_units_Z 48
_cell_length_a 12.242995
_cell_length_b 12.242995
_cell_length_c 18.563974
_cell_angle_alpha 90.000000
_cell_angle_beta 90.000000
_cell_angle_gamma 120.000000
_cell_volume 2409.777402
_symmetry_space_group_name_H-M "P 63/M"
_symmetry_group_IT_number 176
_symmetry_cell_setting 'hexagonal'
loop_
_space_group_symop_operation_xyz
x,y,z
x-y,x,1/2+z
-y,x-y,z
-x,-y,1/2+z
-x+y,-x,z
y,-x+y,1/2+z
-x,-y,-z
-x+y,-x,1/2-z
y,-x+y,-z
x,y,1/2-z
x-y,x,-z
-y,x-y,1/2-z
loop_
_atom_site_type_symbol
_atom_site_label
_atom_site_fract_x
_atom_site_fract_y
_atom_site_fract_z
Si Si1 0.389249 0.153254 0.587727
Si Si2 0.851810 0.604450 0.073237
Si Si3 0.666667 0.333334 0.907557
Si Si4 0.000000 0.000000 0.165059
Si Si5 0.751396 0.982248 0.834735
Si Si6 0.666668 0.333334 0.075266
O O1 0.379067 0.204558 0.509711
O O2 0.533371 0.212380 0.615868
O O3 0.332255 0.207935 0.645632
O O4 0.319525 0.001137 0.589572
O O5 0.761519 0.636002 0.121559
O O6 0.797181 0.458777 0.097126
O O7 0.666668 0.333334 0.991258
O O8 0.957987 0.095980 0.137049
O O9 0.000000 0.000000 0.250000
O O10 0.724326 0.962209 0.750000
#
# Coordination Sequence:
#
# PCOD8325705 Si02
#       6
#    12  12   4   4  12   4
#     4  11  22  38  64  93 122 159 207 255 304 367
#     4  11  22  38  64  93 122 159 207 255 304 367
#     4   9  24  39  61  92 124 162 205 254 307 360
#     4   9  18  33  52  83 118 150 193 242 301 351
#     4  11  22  37  59  91 130 162 196 251 313 363
#     4   9  24  39  61  92 124 162 205 254 307 360
#
# _framework density 19.918852999999999
#
# number of rings (size 3 to 8) (size 9 to 14) (size 15 to 20)
#    0.000    1.500    5.000    0.000    3.500    3.000 
#    0.000    5.000    0.000    0.000    0.000    0.000 
#    0.000    0.000    0.000    0.000    0.000    0.000 
#
# Total GULP energy -594650.878292 kJ/mol
# GULP energy per Si atom -12388.559964 kJ/mol
# Density = 1.987352 g / cm^3
# Si number density = 19.918853 Si / 1000 Ang^3
#
#
#
# Elastic Constant Matrix: (Units=GPa)
#
#
# Indices 1 2 3 4 5 6 
#
# 1 90.4897 72.8546 11.9484 0.0000 0.0000 -0.0015
# 2 72.8546 90.4901 11.9481 0.0000 0.0000 0.0020
# 3 11.9484 11.9481 57.1725 0.0000 0.0000 0.0004
# 4 0.0000 0.0000 0.0000 -502.4952 1.0850 0.0000
# 5 0.0000 0.0000 0.0000 1.0850 -500.4917 0.0000
# 6 -0.0015 0.0020 0.0004 0.0000 0.0000 8.8176
#
#
#
# Elastic Compliance Matrix: (Units=1/GPa)
#
#
# Indices 1 2 3 4 5 6 
#
# 1 0.031510 -0.025195 -0.001320 0.000000 0.000000 0.000011
# 2 -0.025195 0.031510 -0.001320 0.000000 0.000000 -0.000012
# 3 -0.001320 -0.001320 0.018043 0.000000 0.000000 -0.000001
# 4 0.000000 0.000000 0.000000 -0.001990 -0.000004 0.000000
# 5 0.000000 0.000000 0.000000 -0.000004 -0.001998 0.000000
# 6 0.000011 -0.000012 -0.000001 0.000000 0.000000 0.113409
#
#
# Mechanical properties :
#
#
# Convention : Reuss Voigt Hill
#
# Bulk Modulus (GPa) = 39.37986 47.96160 43.67073
# Shear Modulus (GPa) = 19.63738 -189.40712 -84.88487
#
# Velocity S-wave (km/s) = 3.14326 -9.76196 -6.53512
# Velocity P-wave (km/s) = 5.74339 10.14546 5.91370
#
# Compressibility (1/GPa) = 0.02539369
#
# Stress axis : x y z
#
# Youngs Moduli (GPa) = 31.73597 31.73617 55.42458
#
# Poissons Ratio (x) = 0.79959 0.07316
# Poissons Ratio (y) = 0.79958 0.07314
# Poissons Ratio (z) = 0.04189 0.04188
#
# Static dielectric constant tensor:
#      x y z
#    x 0.462290 0.000270 0.000000 
#    y 0.000270 0.461600 0.000000 
#    z 0.000000 0.000000 3.323080 
# 
# 
# High freq. dielectric constant tensor:
#      x y z
#    x 1.786750 0.000000 0.000000 
#    y 0.000000 1.786750 0.000000 
#    z 0.000000 0.000000 1.749220 
# 
# From -- ./inp_files/3683.got.cif
#   From: 2010.06.25/outbox.cif.g09.slc.cpg/sg176_2_cif.got.tgz:3683.got - 2010.06.28 12:15:01.
