data_PCOD8325467
_publ_section_title
;
Structure prediction by ZEFSAII (Michael W. Deem and Ramdas Pophale) SiO2 
 PCOD8325467
Probable space group: P 63/M
;
_chemical_formula_sum "Si O2"
_cell_formula_units_Z 72
_cell_length_a 23.868472
_cell_length_b 23.868472
_cell_length_c 9.103101
_cell_angle_alpha 90.000000
_cell_angle_beta 90.000000
_cell_angle_gamma 120.000000
_cell_volume 4491.270659
_symmetry_space_group_name_H-M "P 63/M"
_symmetry_group_IT_number 176
_symmetry_cell_setting 'hexagonal'
loop_
_space_group_symop_operation_xyz
x,y,z
x-y,x,1/2+z
-y,x-y,z
-x,-y,1/2+z
-x+y,-x,z
y,-x+y,1/2+z
-x,-y,-z
-x+y,-x,1/2-z
y,-x+y,-z
x,y,1/2-z
x-y,x,-z
-y,x-y,1/2-z
loop_
_atom_site_type_symbol
_atom_site_label
_atom_site_fract_x
_atom_site_fract_y
_atom_site_fract_z
Si Si1 0.629753 0.481383 0.419834
Si Si2 0.188776 0.383101 0.915430
Si Si3 0.699583 0.634060 0.414832
Si Si4 0.062118 0.375430 0.917619
Si Si5 0.489162 0.747235 0.418537
Si Si6 0.511291 0.378254 0.578513
O O1 0.617231 0.462933 0.250000
O O2 0.660588 0.557525 0.448712
O O3 0.677524 0.456566 0.481914
O O4 0.561733 0.445908 0.504574
O O5 0.208301 0.414884 0.750000
O O6 0.223004 0.339487 0.935271
O O7 0.110885 0.346128 0.930440
O O8 0.216041 0.435623 0.043035
O O9 0.684703 0.647055 0.250000
O O10 0.679585 0.672736 0.524904
O O11 0.054718 0.390965 0.750000
O O12 0.088292 0.441403 0.007517
O O13 0.480648 0.760991 0.250000
O O14 0.460907 0.670912 0.447372
O O15 0.504817 0.388750 0.750000
#
# Coordination Sequence:
#
# PCOD8325467 Si02
#       6
#    12  12  12  12  12  12
#     4  10  20  33  48  64  86 116 149 188 234 282
#     4   8  16  31  48  65  89 118 145 176 213 258
#     4   9  18  32  48  67  91 119 149 182 222 268
#     4  10  19  31  49  71  92 118 152 186 221 268
#     4   9  17  30  47  64  81 106 141 182 228 275
#     4  10  20  33  48  65  87 115 147 190 238 280
#
# _framework density 16.031098
#
# number of rings (size 3 to 8) (size 9 to 14) (size 15 to 20)
#    0.000    2.667    0.000    3.000    0.000    6.667 
#    1.000    0.000    0.000    0.000    0.000    0.000 
#    0.000    0.000    0.000    0.500    0.000    6.000 
#
# Total GULP energy -892178.754575 kJ/mol
# GULP energy per Si atom -12391.371591 kJ/mol
# Density = 1.599461 g / cm^3
# Si number density = 16.031098 Si / 1000 Ang^3
#
#
#
# Elastic Constant Matrix: (Units=GPa)
#
#
# Indices 1 2 3 4 5 6 
#
# 1 68.6302 39.9031 42.7426 0.0000 0.0000 0.0000
# 2 39.9031 68.6302 42.7426 0.0000 0.0000 0.0000
# 3 42.7426 42.7426 100.1016 0.0000 0.0000 0.0000
# 4 0.0000 0.0000 0.0000 23.6650 0.0000 0.0000
# 5 0.0000 0.0000 0.0000 0.0000 23.6650 0.0000
# 6 0.0000 0.0000 0.0000 0.0000 0.0000 14.3635
#
#
#
# Elastic Compliance Matrix: (Units=1/GPa)
#
#
# Indices 1 2 3 4 5 6 
#
# 1 0.024347 -0.010464 -0.005928 0.000000 0.000000 0.000000
# 2 -0.010464 0.024347 -0.005928 0.000000 0.000000 0.000000
# 3 -0.005928 -0.005928 0.015052 0.000000 0.000000 0.000000
# 4 0.000000 0.000000 0.000000 0.042257 0.000000 0.000000
# 5 0.000000 0.000000 0.000000 0.000000 0.042257 0.000000
# 6 0.000000 0.000000 0.000000 0.000000 0.000000 0.069621
#
#
# Mechanical properties :
#
#
# Convention : Reuss Voigt Hill
#
# Bulk Modulus (GPa) = 52.33870 54.23762 53.28816
# Shear Modulus (GPa) = 18.59518 19.80359 19.19938
#
# Velocity S-wave (km/s) = 3.40949 3.51853 3.46444
# Velocity P-wave (km/s) = 6.94396 7.10021 7.02252
#
# Compressibility (1/GPa) = 0.01910632
#
# Stress axis : x y z
#
# Youngs Moduli (GPa) = 41.07354 41.07354 66.43578
#
# Poissons Ratio (x) = 0.42979 0.39382
# Poissons Ratio (y) = 0.42979 0.39382
# Poissons Ratio (z) = 0.24348 0.24348
#
# Static dielectric constant tensor:
#      x y z
#    x 2.946710 0.000000 0.000000 
#    y 0.000000 2.946710 0.000000 
#    z 0.000000 0.000000 3.151720 
# 
# 
# High freq. dielectric constant tensor:
#      x y z
#    x 1.586480 0.000000 0.000000 
#    y 0.000000 1.586480 0.000000 
#    z 0.000000 0.000000 1.633850 
# 
# From -- ./inp_files/1148.got.cif
#   From: 2010.06.25/outbox.cif.g09.slc.cpg/sg176_1_cif.got.tgz:1148.got - 2010.06.28 12:15:01.
