data_PCOD8325498
_publ_section_title
;
Structure prediction by ZEFSAII (Michael W. Deem and Ramdas Pophale) SiO2 
 PCOD8325498
Probable space group: P 63/M
;
_chemical_formula_sum "Si O2"
_cell_formula_units_Z 54
_cell_length_a 18.106370
_cell_length_b 18.106370
_cell_length_c 10.438810
_cell_angle_alpha 90.000000
_cell_angle_beta 90.000000
_cell_angle_gamma 120.000000
_cell_volume 2963.769376
_symmetry_space_group_name_H-M "P 63/M"
_symmetry_group_IT_number 176
_symmetry_cell_setting 'hexagonal'
loop_
_space_group_symop_operation_xyz
x,y,z
x-y,x,1/2+z
-y,x-y,z
-x,-y,1/2+z
-x+y,-x,z
y,-x+y,1/2+z
-x,-y,-z
-x+y,-x,1/2-z
y,-x+y,-z
x,y,1/2-z
x-y,x,-z
-y,x-y,1/2-z
loop_
_atom_site_type_symbol
_atom_site_label
_atom_site_fract_x
_atom_site_fract_y
_atom_site_fract_z
Si Si1 0.628874 0.109704 0.539151
Si Si2 0.690856 0.924460 0.896458
Si Si3 0.392055 0.473865 0.610619
Si Si4 0.066331 0.314335 0.603065
Si Si5 0.433046 0.675678 0.250000
O O1 0.554889 0.122967 0.479863
O O2 0.691091 0.104484 0.433911
O O3 0.682161 0.191707 0.628337
O O4 0.581149 0.021121 0.615182
O O5 0.709733 0.962252 0.750000
O O6 0.590608 0.885007 0.928947
O O7 0.713185 0.850357 0.907447
O O8 0.744128 0.995210 0.003163
O O9 0.396677 0.511820 0.750000
O O10 0.031884 0.301978 0.750000
O O11 0.413420 0.754143 0.250000
#
# Coordination Sequence:
#
# PCOD8325498 Si02
#       5
#    12  12  12  12   6
#     4  10  19  34  52  75 107 142 184 229 270 326
#     4   9  20  36  56  83 115 144 181 231 276 327
#     4   9  17  32  53  75 100 138 180 224 273 317
#     4  10  21  37  57  86 113 145 185 228 276 336
#     4  10  24  36  48  74 110 146 190 232 276 338
#
# _framework density 18.220041999999999
#
# number of rings (size 3 to 8) (size 9 to 14) (size 15 to 20)
#    0.222    2.222    1.111    0.667    4.667    0.889 
#    2.000    0.000    0.000    0.444    0.000    0.000 
#    0.000    0.000    0.000    0.000    0.000    0.000 
#
# Total GULP energy -669146.541680 kJ/mol
# GULP energy per Si atom -12391.602624 kJ/mol
# Density = 1.817857 g / cm^3
# Si number density = 18.220042 Si / 1000 Ang^3
#
#
#
# Elastic Constant Matrix: (Units=GPa)
#
#
# Indices 1 2 3 4 5 6 
#
# 1 62.7866 18.4744 47.6614 0.0000 0.0000 0.0000
# 2 18.4744 62.7866 47.6614 0.0000 0.0000 0.0000
# 3 47.6614 47.6614 129.6973 0.0000 0.0000 0.0000
# 4 0.0000 0.0000 0.0000 25.1722 0.0000 0.0000
# 5 0.0000 0.0000 0.0000 0.0000 25.1722 0.0000
# 6 0.0000 0.0000 0.0000 0.0000 0.0000 22.1561
#
#
#
# Elastic Compliance Matrix: (Units=1/GPa)
#
#
# Indices 1 2 3 4 5 6 
#
# 1 0.022099 -0.000468 -0.007949 0.000000 0.000000 0.000000
# 2 -0.000468 0.022099 -0.007949 0.000000 0.000000 0.000000
# 3 -0.007949 -0.007949 0.013552 0.000000 0.000000 0.000000
# 4 0.000000 0.000000 0.000000 0.039726 0.000000 0.000000
# 5 0.000000 0.000000 0.000000 0.000000 0.039726 0.000000
# 6 0.000000 0.000000 0.000000 0.000000 0.000000 0.045134
#
#
# Mechanical properties :
#
#
# Convention : Reuss Voigt Hill
#
# Bulk Modulus (GPa) = 39.97146 53.65164 46.81155
# Shear Modulus (GPa) = 22.38060 23.93165 23.15612
#
# Velocity S-wave (km/s) = 3.50859 3.62813 3.56886
# Velocity P-wave (km/s) = 6.19672 6.86014 6.53685
#
# Compressibility (1/GPa) = 0.02501785
#
# Stress axis : x y z
#
# Youngs Moduli (GPa) = 45.25157 45.25157 73.78843
#
# Poissons Ratio (x) = 0.02120 0.58652
# Poissons Ratio (y) = 0.02120 0.58652
# Poissons Ratio (z) = 0.35969 0.35969
#
# Static dielectric constant tensor:
#      x y z
#    x 3.134910 0.000000 0.000000 
#    y 0.000000 3.134910 0.000000 
#    z 0.000000 0.000000 3.500500 
# 
# 
# High freq. dielectric constant tensor:
#      x y z
#    x 1.686540 0.000000 0.000000 
#    y 0.000000 1.686540 0.000000 
#    z 0.000000 0.000000 1.716790 
# 
# From -- ./inp_files/866.got.cif
#   From: 2010.06.25/outbox.cif.g09.slc.cpg/sg176_1_cif.got.tgz:866.got - 2010.06.28 12:15:01.
