data_PCOD8325904
_publ_section_title
;
Structure prediction by ZEFSAII (Michael W. Deem and Ramdas Pophale) SiO2 
 PCOD8325904
Probable space group: P 61 2 2
;
_chemical_formula_sum "Si O2"
_cell_formula_units_Z 42
_cell_length_a 9.511555
_cell_length_b 9.511555
_cell_length_c 26.682033
_cell_angle_alpha 90.000000
_cell_angle_beta 90.000000
_cell_angle_gamma 120.000000
_cell_volume 2090.511667
_symmetry_space_group_name_H-M "P 61 2 2"
_symmetry_group_IT_number 178
_symmetry_cell_setting 'hexagonal'
loop_
_space_group_symop_operation_xyz
x,y,z
x-y,x,1/6+z
-y,x-y,1/3+z
-x,-y,1/2+z
-x+y,-x,2/3+z
y,-x+y,5/6+z
x-y,-y,-z
-x,-x+y,2/3-z
y,x,1/3-z
-y,-x,5/6-z
-x+y,y,1/2-z
x,x-y,1/6-z
loop_
_atom_site_type_symbol
_atom_site_label
_atom_site_fract_x
_atom_site_fract_y
_atom_site_fract_z
Si Si1 0.293338 0.459331 0.453620
Si Si2 0.541447 0.000000 0.000000
Si Si3 0.005086 0.729098 0.777937
Si Si4 0.809136 0.352428 0.027456
O O1 0.392982 0.607019 0.416667
O O2 0.157177 0.303784 0.422354
O O3 0.216824 0.522367 0.494592
O O4 0.406787 0.401801 0.479842
O O5 0.453102 0.022041 0.951075
O O6 0.546763 0.835548 0.990635
O O7 0.000000 0.799741 0.833334
O O8 0.838611 0.677221 0.750000
O O9 0.767077 0.383539 0.083334
#
# Coordination Sequence:
#
# PCOD8325904 Si02
#       4
#    12   6  12  12
#     4  11  24  44  67 100 133 179 231 283 339 417
#     4  10  22  42  68  96 132 182 218 272 342 404
#     4  10  23  41  71  95 133 184 227 274 341 412
#     4  11  26  42  69 100 138 177 230 284 343 410
#
# _framework density 20.090775000000001
#
# number of rings (size 3 to 8) (size 9 to 14) (size 15 to 20)
#    0.857    0.571    2.857    0.857   16.000    0.000 
#    2.571    0.000    0.000    0.000    0.000    0.000 
#    0.000    0.000    0.000    0.000    0.000    0.000 
#
# Total GULP energy -520491.362366 kJ/mol
# GULP energy per Si atom -12392.651485 kJ/mol
# Density = 2.004505 g / cm^3
# Si number density = 20.090775 Si / 1000 Ang^3
#
#
#
# Elastic Constant Matrix: (Units=GPa)
#
#
# Indices 1 2 3 4 5 6 
#
# 1 136.7265 69.2440 66.9993 0.0000 0.0000 0.0000
# 2 69.2440 136.7265 66.9993 0.0000 0.0000 0.0000
# 3 66.9993 66.9993 125.2969 0.0000 0.0000 0.0000
# 4 0.0000 0.0000 0.0000 26.8551 0.0000 0.0000
# 5 0.0000 0.0000 0.0000 0.0000 26.8551 0.0000
# 6 0.0000 0.0000 0.0000 0.0000 0.0000 33.7413
#
#
#
# Elastic Compliance Matrix: (Units=1/GPa)
#
#
# Indices 1 2 3 4 5 6 
#
# 1 0.011132 -0.003687 -0.003981 0.000000 0.000000 0.000000
# 2 -0.003687 0.011132 -0.003981 0.000000 0.000000 0.000000
# 3 -0.003981 -0.003981 0.012239 0.000000 0.000000 0.000000
# 4 0.000000 0.000000 0.000000 0.037237 0.000000 0.000000
# 5 0.000000 0.000000 0.000000 0.000000 0.037237 0.000000
# 6 0.000000 0.000000 0.000000 0.000000 0.000000 0.029637
#
#
# Mechanical properties :
#
#
# Convention : Reuss Voigt Hill
#
# Bulk Modulus (GPa) = 89.25022 89.47058 89.36040
# Shear Modulus (GPa) = 30.18486 30.52409 30.35448
#
# Velocity S-wave (km/s) = 3.88032 3.90206 3.89120
# Velocity P-wave (km/s) = 8.03715 8.05799 8.04758
#
# Compressibility (1/GPa) = 0.01120445
#
# Stress axis : x y z
#
# Youngs Moduli (GPa) = 89.83247 89.83247 81.70898
#
# Poissons Ratio (x) = 0.33120 0.32529
# Poissons Ratio (y) = 0.33120 0.32529
# Poissons Ratio (z) = 0.35763 0.35763
#
# Static dielectric constant tensor:
#      x y z
#    x 3.558780 0.000000 0.000000 
#    y 0.000000 3.558780 0.000000 
#    z 0.000000 0.000000 3.810830 
# 
# 
# High freq. dielectric constant tensor:
#      x y z
#    x 1.776370 0.000000 0.000000 
#    y 0.000000 1.776370 0.000000 
#    z 0.000000 0.000000 1.793970 
# 
# From -- ./inp_files/9291.got.cif
#   From: 2010.03.12/outbox.cif.g09.slc.cpg/sg178_5_cif.got.tgz:9291.got - 2010.04.02 07:02:38.
