data_PCOD8325284
_publ_section_title
;
Structure prediction by ZEFSAII (Michael W. Deem and Ramdas Pophale) SiO2 
 PCOD8325284
Probable space group: P 6/M
;
_chemical_formula_sum "Si O2"
_cell_formula_units_Z 42
_cell_length_a 17.473959
_cell_length_b 17.473959
_cell_length_c 7.692780
_cell_angle_alpha 90.000000
_cell_angle_beta 90.000000
_cell_angle_gamma 120.000000
_cell_volume 2034.213672
_symmetry_space_group_name_H-M "P 6/M"
_symmetry_group_IT_number 175
_symmetry_cell_setting 'hexagonal'
loop_
_space_group_symop_operation_xyz
x,y,z
x-y,x,z
-y,x-y,z
-x,-y,z
-x+y,-x,z
y,-x+y,z
-x,-y,-z
-x+y,-x,-z
y,-x+y,-z
x,y,-z
x-y,x,-z
-y,x-y,-z
loop_
_atom_site_type_symbol
_atom_site_label
_atom_site_fract_x
_atom_site_fract_y
_atom_site_fract_z
Si Si1 0.822040 0.174871 0.695998
Si Si2 0.473397 0.367483 0.807156
Si Si3 0.375677 0.462495 0.299725
Si Si4 0.788824 0.887344 0.000000
O O1 0.853989 0.169709 0.500000
O O2 0.717035 0.133176 0.687748
O O3 0.858640 0.274699 0.759439
O O4 0.853318 0.124439 0.827098
O O5 0.572737 0.431263 0.733335
O O6 0.421776 0.421627 0.816296
O O7 0.479317 0.335442 0.000000
O O8 0.384499 0.443788 0.500000
O O9 0.853623 0.846852 0.000000
#
# Coordination Sequence:
#
# PCOD8325284 Si02
#       4
#    12  12  12   6
#     4  11  24  42  66  97 130 172 220 265 320 397
#     4  11  21  35  61  91 125 163 206 256 309 370
#     4  10  21  37  60  88 125 166 207 253 307 371
#     4  12  27  46  70  98 130 168 218 286 355 412
#
# _framework density 20.646799000000001
#
# number of rings (size 3 to 8) (size 9 to 14) (size 15 to 20)
#    0.000    1.143    1.429    7.000    4.000    3.429 
#    1.714    0.000    0.000    1.714    0.000    0.000 
#    0.000    0.000    0.000    0.000    0.000    0.000 
#
# Total GULP energy -520708.685051 kJ/mol
# GULP energy per Si atom -12397.825835 kJ/mol
# Density = 2.059981 g / cm^3
# Si number density = 20.646799 Si / 1000 Ang^3
#
#
#
# Elastic Constant Matrix: (Units=GPa)
#
#
# Indices 1 2 3 4 5 6 
#
# 1 101.6640 27.5547 3.5713 0.0000 0.0000 0.0000
# 2 27.5547 101.6640 3.5713 0.0000 0.0000 0.0000
# 3 3.5713 3.5713 84.6554 0.0000 0.0000 0.0000
# 4 0.0000 0.0000 0.0000 17.1802 0.0000 0.0000
# 5 0.0000 0.0000 0.0000 0.0000 17.1802 0.0000
# 6 0.0000 0.0000 0.0000 0.0000 0.0000 37.0547
#
#
#
# Elastic Compliance Matrix: (Units=1/GPa)
#
#
# Indices 1 2 3 4 5 6 
#
# 1 0.010625 -0.002868 -0.000327 0.000000 0.000000 0.000000
# 2 -0.002868 0.010625 -0.000327 0.000000 0.000000 0.000000
# 3 -0.000327 -0.000327 0.011840 0.000000 0.000000 0.000000
# 4 0.000000 0.000000 0.000000 0.058207 0.000000 0.000000
# 5 0.000000 0.000000 0.000000 0.000000 0.058207 0.000000
# 6 0.000000 0.000000 0.000000 0.000000 0.000000 0.026987
#
#
# Mechanical properties :
#
#
# Convention : Reuss Voigt Hill
#
# Bulk Modulus (GPa) = 38.39498 39.70867 39.05183
# Shear Modulus (GPa) = 26.01209 31.16876 28.59042
#
# Velocity S-wave (km/s) = 3.55330 3.88959 3.72524
# Velocity P-wave (km/s) = 5.95576 6.28061 6.12034
#
# Compressibility (1/GPa) = 0.02604507
#
# Stress axis : x y z
#
# Youngs Moduli (GPa) = 94.11554 94.11554 84.45795
#
# Poissons Ratio (x) = 0.26995 0.02764
# Poissons Ratio (y) = 0.26995 0.02764
# Poissons Ratio (z) = 0.03080 0.03080
#
# Static dielectric constant tensor:
#      x y z
#    x 3.825450 0.000000 0.000000 
#    y 0.000000 3.825450 0.000000 
#    z 0.000000 0.000000 3.669680 
# 
# 
# High freq. dielectric constant tensor:
#      x y z
#    x 1.800910 0.000000 0.000000 
#    y 0.000000 1.800910 0.000000 
#    z 0.000000 0.000000 1.822140 
# 
# From -- ./inp_files/433.got.cif
#   From: 2010.03.12/outbox.cif.g09.slc.cpg/sg175_1_cif.got.tgz:433.got - 2010.04.02 06:55:29.
