data_PCOD8325911
_publ_section_title
;
Structure prediction by ZEFSAII (Michael W. Deem and Ramdas Pophale) SiO2 
 PCOD8325911
Probable space group: P 61 2 2
;
_chemical_formula_sum "Si O2"
_cell_formula_units_Z 60
_cell_length_a 14.279977
_cell_length_b 14.279977
_cell_length_c 15.699266
_cell_angle_alpha 90.000000
_cell_angle_beta 90.000000
_cell_angle_gamma 120.000000
_cell_volume 2772.458127
_symmetry_space_group_name_H-M "P 61 2 2"
_symmetry_group_IT_number 178
_symmetry_cell_setting 'hexagonal'
loop_
_space_group_symop_operation_xyz
x,y,z
x-y,x,1/6+z
-y,x-y,1/3+z
-x,-y,1/2+z
-x+y,-x,2/3+z
y,-x+y,5/6+z
x-y,-y,-z
-x,-x+y,2/3-z
y,x,1/3-z
-y,-x,5/6-z
-x+y,y,1/2-z
x,x-y,1/6-z
loop_
_atom_site_type_symbol
_atom_site_label
_atom_site_fract_x
_atom_site_fract_y
_atom_site_fract_z
Si Si1 0.450672 0.020175 0.174316
Si Si2 0.899084 0.899084 0.666667
Si Si3 0.727730 0.210119 0.665173
Si Si4 0.611282 0.305641 0.583334
Si Si5 0.524870 0.891066 0.961382
Si Si6 0.849782 0.659381 0.655804
O O1 0.537777 0.075554 0.250000
O O2 0.517697 0.063204 0.086333
O O3 0.356297 0.048144 0.187992
O O4 0.384390 0.892770 0.193146
O O5 0.950087 0.975044 0.583334
O O6 0.886276 0.784058 0.644007
O O7 0.692495 0.299970 0.651303
O O8 0.826573 0.261309 0.733180
O O9 0.759183 0.170989 0.579219
O O10 0.540974 0.189225 0.538552
O O11 0.628542 0.000000 0.000000
O O12 0.807844 0.615688 0.750000
#
# Coordination Sequence:
#
# PCOD8325911 Si02
#       6
#    12   6  12   6  12  12
#     4  12  24  46  68 101 147 187 240 298 354 438
#     4  10  22  44  74 106 136 178 236 312 372 426
#     4  12  24  42  70 100 145 192 242 299 368 449
#     4  12  24  42  68 100 142 196 256 292 374 442
#     4  12  26  45  66 104 149 199 241 305 365 447
#     4  11  23  41  72 107 136 177 235 301 362 423
#
# _framework density 21.641444
#
# number of rings (size 3 to 8) (size 9 to 14) (size 15 to 20)
#    0.000    0.400    4.000    6.600    0.000    0.000 
#    0.000    0.000    8.800    0.000    0.000    0.000 
#    0.000    0.000    0.000    0.000    0.000    0.000 
#
# Total GULP energy -743626.356977 kJ/mol
# GULP energy per Si atom -12393.772616 kJ/mol
# Density = 2.159219 g / cm^3
# Si number density = 21.641444 Si / 1000 Ang^3
#
#
#
# Elastic Constant Matrix: (Units=GPa)
#
#
# Indices 1 2 3 4 5 6 
#
# 1 117.9099 41.8380 54.8590 0.0000 0.0000 0.0000
# 2 41.8380 117.9099 54.8590 0.0000 0.0000 0.0000
# 3 54.8590 54.8590 134.8871 0.0000 0.0000 0.0000
# 4 0.0000 0.0000 0.0000 39.5644 0.0000 0.0000
# 5 0.0000 0.0000 0.0000 0.0000 39.5644 0.0000
# 6 0.0000 0.0000 0.0000 0.0000 0.0000 38.0360
#
#
#
# Elastic Compliance Matrix: (Units=1/GPa)
#
#
# Indices 1 2 3 4 5 6 
#
# 1 0.010916 -0.002230 -0.003533 0.000000 0.000000 0.000000
# 2 -0.002230 0.010916 -0.003533 0.000000 0.000000 0.000000
# 3 -0.003533 -0.003533 0.010287 0.000000 0.000000 0.000000
# 4 0.000000 0.000000 0.000000 0.025275 0.000000 0.000000
# 5 0.000000 0.000000 0.000000 0.000000 0.025275 0.000000
# 6 0.000000 0.000000 0.000000 0.000000 0.000000 0.026291
#
#
# Mechanical properties :
#
#
# Convention : Reuss Voigt Hill
#
# Bulk Modulus (GPa) = 73.91688 74.86876 74.39282
# Shear Modulus (GPa) = 37.86163 38.04301 37.95232
#
# Velocity S-wave (km/s) = 4.18724 4.19725 4.19225
# Velocity P-wave (km/s) = 7.58990 7.62623 7.60809
#
# Compressibility (1/GPa) = 0.01352871
#
# Stress axis : x y z
#
# Youngs Moduli (GPa) = 91.61016 91.61016 97.20888
#
# Poissons Ratio (x) = 0.20426 0.34341
# Poissons Ratio (y) = 0.20426 0.34341
# Poissons Ratio (z) = 0.32363 0.32363
#
# Static dielectric constant tensor:
#      x y z
#    x 3.837200 0.000000 0.000000 
#    y 0.000000 3.837200 0.000000 
#    z 0.000000 0.000000 4.088060 
# 
# 
# High freq. dielectric constant tensor:
#      x y z
#    x 1.843870 0.000000 0.000000 
#    y 0.000000 1.843870 0.000000 
#    z 0.000000 0.000000 1.861870 
# 
# From -- ./inp_files/5719.got.cif
#   From: 2010.03.12/outbox.cif.g09.slc.cpg/sg178_3_cif.got.tgz:5719.got - 2010.04.02 07:02:38.
