data_PCOD8325332
_publ_section_title
;
Structure prediction by ZEFSAII (Michael W. Deem and Ramdas Pophale) SiO2 
 PCOD8325332
Probable space group: P 6/M
;
_chemical_formula_sum "Si O2"
_cell_formula_units_Z 46
_cell_length_a 17.934066
_cell_length_b 17.934066
_cell_length_c 7.677773
_cell_angle_alpha 90.000000
_cell_angle_beta 90.000000
_cell_angle_gamma 120.000000
_cell_volume 2138.569786
_symmetry_space_group_name_H-M "P 6/M"
_symmetry_group_IT_number 175
_symmetry_cell_setting 'hexagonal'
loop_
_space_group_symop_operation_xyz
x,y,z
x-y,x,z
-y,x-y,z
-x,-y,z
-x+y,-x,z
y,-x+y,z
-x,-y,-z
-x+y,-x,-z
y,-x+y,-z
x,y,-z
x-y,x,-z
-y,x-y,-z
loop_
_atom_site_type_symbol
_atom_site_label
_atom_site_fract_x
_atom_site_fract_y
_atom_site_fract_z
Si Si1 0.242757 0.914734 0.695844
Si Si2 0.196457 0.144761 0.000000
Si Si3 0.666668 0.333335 0.791960
Si Si4 0.783397 0.259770 0.196806
Si Si5 0.560907 0.964032 0.295601
O O1 0.230171 0.940240 0.500000
O O2 0.184618 0.932933 0.826231
O O3 0.214609 0.814375 0.691432
O O4 0.341446 0.968455 0.755736
O O5 0.116979 0.160772 0.000000
O O6 0.568797 0.285380 0.721907
O O7 0.666667 0.333334 0.000000
O O8 0.876178 0.344473 0.195034
O O9 0.757930 0.225852 0.000000
O O10 0.549790 0.945397 0.500000
O O11 0.500000 0.000000 0.229337
#
# Coordination Sequence:
#
# PCOD8325332 Si02
#       5
#    12   6   4  12  12
#     4  11  24  43  68  98 133 171 218 273 325 387
#     4  12  27  48  73 100 128 164 210 266 340 412
#     4   9  21  36  55  92 136 178 221 268 313 371
#     4  11  21  37  61  90 128 170 218 266 317 379
#     4  10  22  39  60  91 131 175 222 269 321 381
#
# _framework density 21.509703999999999
#
# number of rings (size 3 to 8) (size 9 to 14) (size 15 to 20)
#    0.000    1.304    1.304    4.043    1.826    3.652 
#    0.000    3.913    0.000    1.565    0.000    0.000 
#    0.000    0.000    0.000    0.000    0.000    0.000 
#
# Total GULP energy -570648.094132 kJ/mol
# GULP energy per Si atom -12405.393351 kJ/mol
# Density = 2.146075 g / cm^3
# Si number density = 21.509704 Si / 1000 Ang^3
#
#
#
# Elastic Constant Matrix: (Units=GPa)
#
#
# Indices 1 2 3 4 5 6 
#
# 1 158.4538 62.8975 44.1545 0.0000 0.0000 0.0004
# 2 62.8975 158.4579 44.1544 0.0000 0.0000 0.0007
# 3 44.1545 44.1544 84.4115 0.0000 0.0000 0.0000
# 4 0.0000 0.0000 0.0000 16.6162 0.0002 0.0000
# 5 0.0000 0.0000 0.0000 0.0002 16.6175 0.0000
# 6 0.0004 0.0007 0.0000 0.0000 0.0000 47.7783
#
#
#
# Elastic Compliance Matrix: (Units=1/GPa)
#
#
# Indices 1 2 3 4 5 6 
#
# 1 0.008087 -0.002378 -0.002986 0.000000 0.000000 0.000000
# 2 -0.002378 0.008087 -0.002986 0.000000 0.000000 0.000000
# 3 -0.002986 -0.002986 0.014971 0.000000 0.000000 0.000000
# 4 0.000000 0.000000 0.000000 0.060182 -0.000001 0.000000
# 5 0.000000 0.000000 0.000000 -0.000001 0.060178 0.000000
# 6 0.000000 0.000000 0.000000 0.000000 0.000000 0.020930
#
#
# Mechanical properties :
#
#
# Convention : Reuss Voigt Hill
#
# Bulk Modulus (GPa) = 69.23411 78.19289 73.71350
# Shear Modulus (GPa) = 25.77978 32.87683 29.32831
#
# Velocity S-wave (km/s) = 3.46572 3.91380 3.69655
# Velocity P-wave (km/s) = 6.94782 7.54023 7.25008
#
# Compressibility (1/GPa) = 0.01444375
#
# Stress axis : x y z
#
# Youngs Moduli (GPa) = 123.65429 123.65810 66.79609
#
# Poissons Ratio (x) = 0.29404 0.19948
# Poissons Ratio (y) = 0.29404 0.19947
# Poissons Ratio (z) = 0.36928 0.36927
#
# Static dielectric constant tensor:
#      x y z
#    x 3.932530 0.000010 0.000000 
#    y 0.000010 3.932510 0.000000 
#    z 0.000000 0.000000 3.682030 
# 
# 
# High freq. dielectric constant tensor:
#      x y z
#    x 1.849860 0.000000 0.000000 
#    y 0.000000 1.849860 0.000000 
#    z 0.000000 0.000000 1.842290 
# 
# From -- ./inp_files/547.got.cif
#   From: 2010.03.12/outbox.cif.g09.slc.cpg/sg175_1_cif.got.tgz:547.got - 2010.04.02 06:55:29.
