data_PCOD8325969
_publ_section_title
;
Structure prediction by ZEFSAII (Michael W. Deem and Ramdas Pophale) SiO2 
 PCOD8325969
Probable space group: P 61 2 2
;
_chemical_formula_sum "Si O2"
_cell_formula_units_Z 72
_cell_length_a 16.270823
_cell_length_b 16.270823
_cell_length_c 17.996128
_cell_angle_alpha 90.000000
_cell_angle_beta 90.000000
_cell_angle_gamma 120.000000
_cell_volume 4125.995468
_symmetry_space_group_name_H-M "P 61 2 2"
_symmetry_group_IT_number 178
_symmetry_cell_setting 'hexagonal'
loop_
_space_group_symop_operation_xyz
x,y,z
x-y,x,1/6+z
-y,x-y,1/3+z
-x,-y,1/2+z
-x+y,-x,2/3+z
y,-x+y,5/6+z
x-y,-y,-z
-x,-x+y,2/3-z
y,x,1/3-z
-y,-x,5/6-z
-x+y,y,1/2-z
x,x-y,1/6-z
loop_
_atom_site_type_symbol
_atom_site_label
_atom_site_fract_x
_atom_site_fract_y
_atom_site_fract_z
Si Si1 0.944303 0.543753 0.990890
Si Si2 0.020674 0.621802 0.143662
Si Si3 0.543201 0.000000 0.500000
Si Si4 0.332135 0.664269 0.750000
Si Si5 0.067774 0.755473 0.402129
Si Si6 0.490088 0.760959 0.853049
Si Si7 0.168761 0.654159 0.337861
O O1 0.974262 0.584612 0.906261
O O2 0.003598 0.621378 0.054680
O O3 0.966096 0.455901 0.997126
O O4 0.836737 0.521155 0.999632
O O5 0.982911 0.681980 0.189264
O O6 0.132889 0.686809 0.155774
O O7 0.441081 0.917333 0.528853
O O8 0.387295 0.728594 0.819536
O O9 0.378127 0.599741 0.729441
O O10 0.131447 0.868554 0.416667
O O11 0.137609 0.718916 0.379175
O O12 0.000000 0.743061 0.333334
O O13 0.479365 0.759352 0.941170
#
# Coordination Sequence:
#
# PCOD8325969 Si02
#       7
#    12  12   6   6  12  12  12
#     4  11  23  38  57  77 116 166 197 257 308 352
#     4  11  23  38  56  83 120 154 205 255 293 364
#     4  12  20  42  54  76 118 162 208 254 318 340
#     4  12  24  32  50  84 110 166 208 242 276 346
#     4  12  21  37  60  86 117 149 186 245 314 367
#     4  12  23  37  55  83 115 158 212 247 303 357
#     4  12  21  35  53  80 117 156 204 252 287 356
#
# _framework density 17.450334999999999
#
# number of rings (size 3 to 8) (size 9 to 14) (size 15 to 20)
#    0.000    0.333    8.333    2.500    4.667    0.000 
#    0.000    0.833    0.000    0.000    0.000    0.000 
#    2.500    0.000    0.000    0.000    0.000    0.000 
#
# Total GULP energy -892020.696626 kJ/mol
# GULP energy per Si atom -12389.176342 kJ/mol
# Density = 1.741062 g / cm^3
# Si number density = 17.450335 Si / 1000 Ang^3
#
#
#
# Elastic Constant Matrix: (Units=GPa)
#
#
# Indices 1 2 3 4 5 6 
#
# 1 89.9067 39.8094 35.1606 0.0000 0.0000 0.0000
# 2 39.8094 89.9067 35.1606 0.0000 0.0000 0.0000
# 3 35.1606 35.1606 134.9991 0.0000 0.0000 0.0000
# 4 0.0000 0.0000 0.0000 -61.5485 0.0000 0.0000
# 5 0.0000 0.0000 0.0000 0.0000 -61.5485 0.0000
# 6 0.0000 0.0000 0.0000 0.0000 0.0000 25.0486
#
#
#
# Elastic Compliance Matrix: (Units=1/GPa)
#
#
# Indices 1 2 3 4 5 6 
#
# 1 0.014469 -0.005492 -0.002338 0.000000 0.000000 0.000000
# 2 -0.005492 0.014469 -0.002338 0.000000 0.000000 0.000000
# 3 -0.002338 -0.002338 0.008625 0.000000 0.000000 0.000000
# 4 0.000000 0.000000 0.000000 -0.016247 0.000000 0.000000
# 5 0.000000 0.000000 0.000000 0.000000 -0.016247 0.000000
# 6 0.000000 0.000000 0.000000 0.000000 0.000000 0.039922
#
#
# Mechanical properties :
#
#
# Convention : Reuss Voigt Hill
#
# Bulk Modulus (GPa) = 58.04960 59.45263 58.75112
# Shear Modulus (GPa) = 70.35378 -5.96424 32.19477
#
# Velocity S-wave (km/s) = 6.35642 -1.85075 4.29993
# Velocity P-wave (km/s) = 9.33863 5.43843 7.64155
#
# Compressibility (1/GPa) = 0.01722665
#
# Stress axis : x y z
#
# Youngs Moduli (GPa) = 69.11383 69.11383 115.93789
#
# Poissons Ratio (x) = 0.37959 0.27106
# Poissons Ratio (y) = 0.37959 0.27106
# Poissons Ratio (z) = 0.16159 0.16159
#
# Static dielectric constant tensor:
#      x y z
#    x 3.905610 0.000000 0.000000 
#    y 0.000000 3.905610 0.000000 
#    z 0.000000 0.000000 3.724900 
# 
# 
# High freq. dielectric constant tensor:
#      x y z
#    x 1.649590 0.000000 0.000000 
#    y 0.000000 1.649590 0.000000 
#    z 0.000000 0.000000 1.700680 
# 
# From -- ./inp_files/7717.got.cif
#   From: 2010.03.12/outbox.cif.g09.slc.cpg/sg178_4_cif.got.tgz:7717.got - 2010.04.02 07:02:38.
