data_PCOD8325060
_publ_section_title
;
Structure prediction by ZEFSAII (Michael W. Deem and Ramdas Pophale) SiO2 
 PCOD8325060
Probable space group: P 6/M
;
_chemical_formula_sum "Si O2"
_cell_formula_units_Z 96
_cell_length_a 24.158207
_cell_length_b 24.158207
_cell_length_c 12.748168
_cell_angle_alpha 90.000000
_cell_angle_beta 90.000000
_cell_angle_gamma 120.000000
_cell_volume 6443.291895
_symmetry_space_group_name_H-M "P 6/M"
_symmetry_group_IT_number 175
_symmetry_cell_setting 'hexagonal'
loop_
_space_group_symop_operation_xyz
x,y,z
x-y,x,z
-y,x-y,z
-x,-y,z
-x+y,-x,z
y,-x+y,z
-x,-y,-z
-x+y,-x,-z
y,-x+y,-z
x,y,-z
x-y,x,-z
-y,x-y,-z
loop_
_atom_site_type_symbol
_atom_site_label
_atom_site_fract_x
_atom_site_fract_y
_atom_site_fract_z
Si Si1 0.000705 0.335027 0.377626
Si Si2 0.006261 0.132793 0.122067
Si Si3 0.779058 0.990852 0.708172
Si Si4 0.615853 0.425776 0.624967
Si Si5 0.757260 0.473633 0.625541
Si Si6 0.259283 0.138490 0.618931
Si Si7 0.429106 0.477871 0.624803
Si Si8 0.754190 0.144539 0.621138
O O1 0.983422 0.312768 0.500000
O O2 0.980761 0.273587 0.301497
O O3 0.075802 0.384515 0.366064
O O4 0.967009 0.374437 0.337648
O O5 0.066978 0.124980 0.152596
O O6 0.010671 0.195376 0.179538
O O7 0.006963 0.147545 0.000000
O O8 0.823113 0.044059 0.623373
O O9 0.777749 0.925737 0.683142
O O10 0.616000 0.426224 0.500000
O O11 0.686571 0.449389 0.668236
O O12 0.571344 0.354759 0.669032
O O13 0.590848 0.471949 0.667730
O O14 0.759412 0.474270 0.500000
O O15 0.802246 0.544137 0.673632
O O16 0.265443 0.121975 0.500000
O O17 0.329390 0.183873 0.670988
O O18 0.500000 0.500000 0.669572
O O19 0.431599 0.477484 0.500000
O O20 0.769894 0.161441 0.500000
#
# Coordination Sequence:
#
# PCOD8325060 Si02
#       8
#    12  12  12  12  12  12  12  12
#     4   9  17  27  39  58  84 113 145 177 208 248
#     4  10  20  36  55  71  85 106 141 186 230 271
#     4  11  19  30  45  63  87 111 142 174 214 264
#     4   9  16  22  31  45  61  88 125 173 217 241
#     4   9  15  23  32  44  64  90 130 176 214 245
#     4  10  19  29  41  59  84 115 142 169 201 246
#     4   9  16  25  37  52  73 105 146 185 215 242
#     4   8  15  25  36  48  68 101 134 166 201 235
#
# _framework density 14.899217
#
# number of rings (size 3 to 8) (size 9 to 14) (size 15 to 20)
#    0.000    2.625    1.250    3.000    1.750    4.500 
#    0.000    0.000    0.000    0.000    0.000    1.750 
#    0.000    0.500    0.000    0.000    0.000    0.000 
#
# Total GULP energy -1189613.279037 kJ/mol
# GULP energy per Si atom -12391.804990 kJ/mol
# Density = 1.486531 g / cm^3
# Si number density = 14.899217 Si / 1000 Ang^3
#
#
#
# Elastic Constant Matrix: (Units=GPa)
#
#
# Indices 1 2 3 4 5 6 
#
# 1 114.7868 59.6562 17.7820 0.0000 0.0000 0.0000
# 2 59.6562 114.7868 17.7820 0.0000 0.0000 0.0000
# 3 17.7820 17.7820 24.8868 0.0000 0.0000 0.0000
# 4 0.0000 0.0000 0.0000 8.7778 0.0000 0.0000
# 5 0.0000 0.0000 0.0000 0.0000 8.7778 0.0000
# 6 0.0000 0.0000 0.0000 0.0000 0.0000 27.5653
#
#
#
# Elastic Compliance Matrix: (Units=1/GPa)
#
#
# Indices 1 2 3 4 5 6 
#
# 1 0.012424 -0.005714 -0.004794 0.000000 0.000000 0.000000
# 2 -0.005714 0.012424 -0.004794 0.000000 0.000000 0.000000
# 3 -0.004794 -0.004794 0.047033 0.000000 0.000000 0.000000
# 4 0.000000 0.000000 0.000000 0.113924 0.000000 0.000000
# 5 0.000000 0.000000 0.000000 0.000000 0.113924 0.000000
# 6 0.000000 0.000000 0.000000 0.000000 0.000000 0.036277
#
#
# Mechanical properties :
#
#
# Convention : Reuss Voigt Hill
#
# Bulk Modulus (GPa) = 24.22734 49.43345 36.83040
# Shear Modulus (GPa) = 13.14504 19.64020 16.39262
#
# Velocity S-wave (km/s) = 2.97351 3.63465 3.32058
# Velocity P-wave (km/s) = 5.29954 7.13196 6.28291
#
# Compressibility (1/GPa) = 0.04127568
#
# Stress axis : x y z
#
# Youngs Moduli (GPa) = 80.48708 80.48708 21.26154
#
# Poissons Ratio (x) = 0.45993 0.10194
# Poissons Ratio (y) = 0.45993 0.10194
# Poissons Ratio (z) = 0.38589 0.38589
#
# Static dielectric constant tensor:
#      x y z
#    x 3.091490 0.000000 0.000000 
#    y 0.000000 3.091490 0.000000 
#    z 0.000000 0.000000 2.232110 
# 
# 
# High freq. dielectric constant tensor:
#      x y z
#    x 1.586670 0.000000 0.000000 
#    y 0.000000 1.586670 0.000000 
#    z 0.000000 0.000000 1.473610 
# 
# From -- ./inp_files/2157.got.cif
#   From: 2010.03.12/outbox.cif.g09.slc.cpg/sg175_2_cif.got.tgz:2157.got - 2010.04.02 06:55:29.
