data_PCOD8325205
_publ_section_title
;
Structure prediction by ZEFSAII (Michael W. Deem and Ramdas Pophale) SiO2 
 PCOD8325205
Probable space group: P 6/M
;
_chemical_formula_sum "Si O2"
_cell_formula_units_Z 66
_cell_length_a 21.857848
_cell_length_b 21.857848
_cell_length_c 8.887018
_cell_angle_alpha 90.000000
_cell_angle_beta 90.000000
_cell_angle_gamma 120.000000
_cell_volume 3677.066588
_symmetry_space_group_name_H-M "P 6/M"
_symmetry_group_IT_number 175
_symmetry_cell_setting 'hexagonal'
loop_
_space_group_symop_operation_xyz
x,y,z
x-y,x,z
-y,x-y,z
-x,-y,z
-x+y,-x,z
y,-x+y,z
-x,-y,-z
-x+y,-x,-z
y,-x+y,-z
x,y,-z
x-y,x,-z
-y,x-y,-z
loop_
_atom_site_type_symbol
_atom_site_label
_atom_site_fract_x
_atom_site_fract_y
_atom_site_fract_z
Si Si1 0.000671 0.854190 0.000000
Si Si2 0.731654 0.737705 0.836236
Si Si3 0.671860 0.204714 0.822111
Si Si4 0.542287 0.201223 0.677290
Si Si5 0.871991 0.608252 0.333017
Si Si6 0.116287 0.731731 0.334403
O O1 0.931473 0.862085 0.000000
O O2 0.001132 0.809606 0.852207
O O3 0.683359 0.748350 0.718616
O O4 0.738563 0.670952 0.788989
O O5 0.694456 0.720231 0.000000
O O6 0.593914 0.182298 0.766527
O O7 0.726309 0.276848 0.739975
O O8 0.685388 0.140778 0.777383
O O9 0.678700 0.216339 0.000000
O O10 0.559490 0.211334 0.500000
O O11 0.463946 0.135111 0.707717
O O12 0.888972 0.591581 0.500000
O O13 0.804228 0.616087 0.337124
O O14 0.080547 0.716592 0.500000
#
# Coordination Sequence:
#
# PCOD8325205 Si02
#       6
#     6  12  12  12  12  12
#     4  10  21  36  58  88 121 152 180 214 264 320
#     4  10  21  33  56  82 113 142 178 223 269 329
#     4  11  21  33  52  79 110 145 190 244 299 343
#     4  10  20  35  53  75 107 149 195 241 293 346
#     4  10  20  36  56  78 108 145 188 234 283 338
#     4   9  19  35  55  78 105 142 186 234 280 331
#
# _framework density 17.949090000000002
#
# number of rings (size 3 to 8) (size 9 to 14) (size 15 to 20)
#    0.545    1.455    0.000    5.909    0.000    3.636 
#    0.000    0.909    0.000    5.455    0.000    0.000 
#    0.000    8.727    0.000    0.000    0.000    0.000 
#
# Total GULP energy -818102.792755 kJ/mol
# GULP energy per Si atom -12395.496860 kJ/mol
# Density = 1.790824 g / cm^3
# Si number density = 17.949090 Si / 1000 Ang^3
#
#
#
# Elastic Constant Matrix: (Units=GPa)
#
#
# Indices 1 2 3 4 5 6 
#
# 1 80.0918 56.6923 30.1403 0.0000 0.0000 0.0000
# 2 56.6923 80.0918 30.1403 0.0000 0.0000 0.0000
# 3 30.1403 30.1403 91.6757 0.0000 0.0000 0.0000
# 4 0.0000 0.0000 0.0000 30.2265 0.0000 0.0000
# 5 0.0000 0.0000 0.0000 0.0000 30.2265 0.0000
# 6 0.0000 0.0000 0.0000 0.0000 0.0000 11.6997
#
#
#
# Elastic Compliance Matrix: (Units=1/GPa)
#
#
# Indices 1 2 3 4 5 6 
#
# 1 0.025643 -0.017093 -0.002811 0.000000 0.000000 0.000000
# 2 -0.017093 0.025643 -0.002811 0.000000 0.000000 0.000000
# 3 -0.002811 -0.002811 0.012756 0.000000 0.000000 0.000000
# 4 0.000000 0.000000 0.000000 0.033084 0.000000 0.000000
# 5 0.000000 0.000000 0.000000 0.000000 0.033084 0.000000
# 6 0.000000 0.000000 0.000000 0.000000 0.000000 0.085472
#
#
# Mechanical properties :
#
#
# Convention : Reuss Voigt Hill
#
# Bulk Modulus (GPa) = 53.72890 53.97837 53.85363
# Shear Modulus (GPa) = 18.70453 23.42296 21.06375
#
# Velocity S-wave (km/s) = 3.23164 3.61635 3.42939
# Velocity P-wave (km/s) = 6.62750 6.89751 6.76385
#
# Compressibility (1/GPa) = 0.01861196
#
# Stress axis : x y z
#
# Youngs Moduli (GPa) = 38.99732 38.99732 78.39286
#
# Poissons Ratio (x) = 0.66659 0.22035
# Poissons Ratio (y) = 0.66659 0.22035
# Poissons Ratio (z) = 0.10962 0.10962
#
# Static dielectric constant tensor:
#      x y z
#    x 3.356410 0.000000 0.000000 
#    y 0.000000 3.356410 0.000000 
#    z 0.000000 0.000000 3.416500 
# 
# 
# High freq. dielectric constant tensor:
#      x y z
#    x 1.688120 0.000000 0.000000 
#    y 0.000000 1.688120 0.000000 
#    z 0.000000 0.000000 1.700340 
# 
# From -- ./inp_files/971.got.cif
#   From: 2010.03.12/outbox.cif.g09.slc.cpg/sg175_1_cif.got.tgz:971.got - 2010.04.02 06:55:29.
