data_PCOD8325220
_publ_section_title
;
Structure prediction by ZEFSAII (Michael W. Deem and Ramdas Pophale) SiO2 
 PCOD8325220
Probable space group: P 6/M
;
_chemical_formula_sum "Si O2"
_cell_formula_units_Z 66
_cell_length_a 22.650624
_cell_length_b 22.650624
_cell_length_c 7.699208
_cell_angle_alpha 90.000000
_cell_angle_beta 90.000000
_cell_angle_gamma 120.000000
_cell_volume 3420.873588
_symmetry_space_group_name_H-M "P 6/M"
_symmetry_group_IT_number 175
_symmetry_cell_setting 'hexagonal'
loop_
_space_group_symop_operation_xyz
x,y,z
x-y,x,z
-y,x-y,z
-x,-y,z
-x+y,-x,z
y,-x+y,z
-x,-y,-z
-x+y,-x,-z
y,-x+y,-z
x,y,-z
x-y,x,-z
-y,x-y,-z
loop_
_atom_site_type_symbol
_atom_site_label
_atom_site_fract_x
_atom_site_fract_y
_atom_site_fract_z
Si Si1 0.625576 0.746944 0.700331
Si Si2 0.765816 0.999767 0.300721
Si Si3 0.923815 0.525526 0.705353
Si Si4 0.919866 0.395614 0.295242
Si Si5 0.251412 0.372867 0.195877
Si Si6 0.989460 0.135026 0.000000
O O1 0.628968 0.731041 0.500000
O O2 0.699778 0.766751 0.776187
O O3 0.563160 0.678161 0.785217
O O4 0.609048 0.806387 0.726236
O O5 0.793485 0.009888 0.500000
O O6 0.687819 0.938416 0.304578
O O7 0.812747 0.984076 0.175095
O O8 0.917712 0.520364 0.500000
O O9 0.893823 0.447276 0.771547
O O10 0.001887 0.571151 0.760431
O O11 0.910197 0.383628 0.500000
O O12 0.879601 0.322867 0.202427
O O13 0.231607 0.347117 0.000000
O O14 0.058743 0.132458 0.000000
#
# Coordination Sequence:
#
# PCOD8325220 Si02
#       6
#    12  12  12  12  12   6
#     4  10  20  35  58  85 113 151 197 240 291 349
#     4  11  23  41  63  88 120 155 192 245 307 359
#     4   8  15  30  55  81 106 139 182 231 280 331
#     4   9  16  32  55  79 109 143 181 229 280 336
#     4  12  23  34  53  84 120 155 192 237 290 350
#     4  12  27  46  66  88 117 154 200 246 296 362
#
# _framework density 19.293316999999998
#
# number of rings (size 3 to 8) (size 9 to 14) (size 15 to 20)
#    0.000    1.818    2.727    3.909    1.273    2.182 
#    0.000    2.727    0.000    1.818    0.000    2.545 
#    0.000    0.000    0.000    0.000    0.000    0.000 
#
# Total GULP energy -818077.846695 kJ/mol
# GULP energy per Si atom -12395.118889 kJ/mol
# Density = 1.924940 g / cm^3
# Si number density = 19.293317 Si / 1000 Ang^3
#
#
#
# Elastic Constant Matrix: (Units=GPa)
#
#
# Indices 1 2 3 4 5 6 
#
# 1 124.6414 60.5663 14.0940 0.0000 0.0000 0.0000
# 2 60.5663 124.6414 14.0940 0.0000 0.0000 0.0000
# 3 14.0940 14.0940 57.2424 0.0000 0.0000 0.0000
# 4 0.0000 0.0000 0.0000 14.3156 0.0000 0.0000
# 5 0.0000 0.0000 0.0000 0.0000 14.3156 0.0000
# 6 0.0000 0.0000 0.0000 0.0000 0.0000 32.0375
#
#
#
# Elastic Compliance Matrix: (Units=1/GPa)
#
#
# Indices 1 2 3 4 5 6 
#
# 1 0.010608 -0.004999 -0.001381 0.000000 0.000000 0.000000
# 2 -0.004999 0.010608 -0.001381 0.000000 0.000000 0.000000
# 3 -0.001381 -0.001381 0.018150 0.000000 0.000000 0.000000
# 4 0.000000 0.000000 0.000000 0.069854 0.000000 0.000000
# 5 0.000000 0.000000 0.000000 0.000000 0.069854 0.000000
# 6 0.000000 0.000000 0.000000 0.000000 0.000000 0.031213
#
#
# Mechanical properties :
#
#
# Convention : Reuss Voigt Hill
#
# Bulk Modulus (GPa) = 41.93900 53.78153 47.86026
# Shear Modulus (GPa) = 21.38973 26.65180 24.02077
#
# Velocity S-wave (km/s) = 3.33327 3.72075 3.53233
# Velocity P-wave (km/s) = 6.04971 6.81138 6.44181
#
# Compressibility (1/GPa) = 0.02384416
#
# Stress axis : x y z
#
# Youngs Moduli (GPa) = 94.26739 94.26739 55.09736
#
# Poissons Ratio (x) = 0.47120 0.07610
# Poissons Ratio (y) = 0.47120 0.07610
# Poissons Ratio (z) = 0.13020 0.13020
#
# Static dielectric constant tensor:
#      x y z
#    x 3.903230 0.000000 0.000000 
#    y 0.000000 3.903230 0.000000 
#    z 0.000000 0.000000 3.332240 
# 
# 
# High freq. dielectric constant tensor:
#      x y z
#    x 1.740650 0.000000 0.000000 
#    y 0.000000 1.740650 0.000000 
#    z 0.000000 0.000000 1.740950 
# 
# From -- ./inp_files/985.got.cif
#   From: 2010.03.12/outbox.cif.g09.slc.cpg/sg175_1_cif.got.tgz:985.got - 2010.04.02 06:55:29.
