data_PCOD8325605
_publ_section_title
;
Structure prediction by ZEFSAII (Michael W. Deem and Ramdas Pophale) SiO2 
 PCOD8325605
Probable space group: P 63/M
;
_chemical_formula_sum "Si O2"
_cell_formula_units_Z 36
_cell_length_a 8.858529
_cell_length_b 8.858529
_cell_length_c 28.851812
_cell_angle_alpha 90.000000
_cell_angle_beta 90.000000
_cell_angle_gamma 120.000000
_cell_volume 1960.771329
_symmetry_space_group_name_H-M "P 63/M"
_symmetry_group_IT_number 176
_symmetry_cell_setting 'hexagonal'
loop_
_space_group_symop_operation_xyz
x,y,z
x-y,x,1/2+z
-y,x-y,z
-x,-y,1/2+z
-x+y,-x,z
y,-x+y,1/2+z
-x,-y,-z
-x+y,-x,1/2-z
y,-x+y,-z
x,y,1/2-z
x-y,x,-z
-y,x-y,1/2-z
loop_
_atom_site_type_symbol
_atom_site_label
_atom_site_fract_x
_atom_site_fract_y
_atom_site_fract_z
Si Si1 0.986355 0.662838 0.017495
Si Si2 0.845889 0.538168 0.116620
Si Si3 0.792478 0.826159 0.698260
O O1 0.939695 0.648763 0.071439
O O2 0.838946 0.670778 0.987497
O O3 0.000000 0.500000 0.000000
O O4 0.643447 0.492437 0.116823
O O5 0.945655 0.648353 0.161655
O O6 0.716286 0.762908 0.750000
O O7 0.969854 0.816097 0.691832
#
# Coordination Sequence:
#
# PCOD8325605 Si02
#       3
#    12  12  12
#     4  12  24  42  60  88 125 165 208 262 315 375
#     4  10  21  36  55  88 118 152 202 248 307 365
#     4   8  18  35  57  83 112 149 198 250 295 357
#
# _framework density 18.360120999999999
#
# number of rings (size 3 to 8) (size 9 to 14) (size 15 to 20)
#    1.333    0.667    3.333    1.000    4.667    1.333 
#    0.000    0.000    0.000    1.333    0.000    0.000 
#    0.000    0.000    0.000    0.000    0.000    0.000 
#
# Total GULP energy -446141.553982 kJ/mol
# GULP energy per Si atom -12392.820944 kJ/mol
# Density = 1.831833 g / cm^3
# Si number density = 18.360121 Si / 1000 Ang^3
#
#
#
# Elastic Constant Matrix: (Units=GPa)
#
#
# Indices 1 2 3 4 5 6 
#
# 1 91.8960 41.5343 51.1874 0.0000 0.0000 0.0000
# 2 41.5343 91.8960 51.1874 0.0000 0.0000 0.0000
# 3 51.1874 51.1874 172.7651 0.0000 0.0000 0.0000
# 4 0.0000 0.0000 0.0000 31.0105 0.0000 0.0000
# 5 0.0000 0.0000 0.0000 0.0000 31.0105 0.0000
# 6 0.0000 0.0000 0.0000 0.0000 0.0000 25.1808
#
#
#
# Elastic Compliance Matrix: (Units=1/GPa)
#
#
# Indices 1 2 3 4 5 6 
#
# 1 0.014778 -0.005078 -0.002874 0.000000 0.000000 0.000000
# 2 -0.005078 0.014778 -0.002874 0.000000 0.000000 0.000000
# 3 -0.002874 -0.002874 0.007491 0.000000 0.000000 0.000000
# 4 0.000000 0.000000 0.000000 0.032247 0.000000 0.000000
# 5 0.000000 0.000000 0.000000 0.000000 0.032247 0.000000
# 6 0.000000 0.000000 0.000000 0.000000 0.000000 0.039713
#
#
# Mechanical properties :
#
#
# Convention : Reuss Voigt Hill
#
# Bulk Modulus (GPa) = 64.95655 71.59723 68.27689
# Shear Modulus (GPa) = 29.75524 31.61691 30.68608
#
# Velocity S-wave (km/s) = 4.03009 4.15425 4.09264
# Velocity P-wave (km/s) = 7.55721 7.87979 7.72019
#
# Compressibility (1/GPa) = 0.01539491
#
# Stress axis : x y z
#
# Youngs Moduli (GPa) = 67.66850 67.66850 133.49145
#
# Poissons Ratio (x) = 0.34365 0.38363
# Poissons Ratio (y) = 0.34365 0.38363
# Poissons Ratio (z) = 0.19446 0.19446
#
# Static dielectric constant tensor:
#      x y z
#    x 3.197060 0.000000 0.000000 
#    y 0.000000 3.197060 0.000000 
#    z 0.000000 0.000000 3.312540 
# 
# 
# High freq. dielectric constant tensor:
#      x y z
#    x 1.693870 0.000000 0.000000 
#    y 0.000000 1.693870 0.000000 
#    z 0.000000 0.000000 1.723910 
# 
# From -- ./inp_files/4170.got.cif
#   From: 2010.06.25/outbox.cif.g09.slc.cpg/sg176_3_cif.got.tgz:4170.got - 2010.06.28 12:15:01.
