data_PCOD8325516
_publ_section_title
;
Structure prediction by ZEFSAII (Michael W. Deem and Ramdas Pophale) SiO2 
 PCOD8325516
Probable space group: P 63/M
;
_chemical_formula_sum "Si O2"
_cell_formula_units_Z 70
_cell_length_a 15.156384
_cell_length_b 15.156384
_cell_length_c 16.266592
_cell_angle_alpha 90.000000
_cell_angle_beta 90.000000
_cell_angle_gamma 120.000000
_cell_volume 3236.073711
_symmetry_space_group_name_H-M "P 63/M"
_symmetry_group_IT_number 176
_symmetry_cell_setting 'hexagonal'
loop_
_space_group_symop_operation_xyz
x,y,z
x-y,x,1/2+z
-y,x-y,z
-x,-y,1/2+z
-x+y,-x,z
y,-x+y,1/2+z
-x,-y,-z
-x+y,-x,1/2-z
y,-x+y,-z
x,y,1/2-z
x-y,x,-z
-y,x-y,1/2-z
loop_
_atom_site_type_symbol
_atom_site_label
_atom_site_fract_x
_atom_site_fract_y
_atom_site_fract_z
Si Si1 0.776874 0.909428 0.846835
Si Si2 0.251559 0.903129 0.155525
Si Si3 0.000000 0.000000 0.847241
Si Si4 0.590928 0.712250 0.894568
Si Si5 0.751347 0.459784 0.250000
Si Si6 0.495267 0.588925 0.454230
Si Si7 0.560598 0.890067 0.346077
O O1 0.753878 0.878252 0.750000
O O2 0.693812 0.821138 0.905374
O O3 0.786483 0.018170 0.863998
O O4 0.884867 0.924177 0.876338
O O5 0.275087 0.901788 0.250000
O O6 0.359565 0.944804 0.111631
O O7 0.167364 0.788877 0.127524
O O8 0.000000 0.000000 0.750000
O O9 0.526378 0.734404 0.830216
O O10 0.620118 0.630276 0.861828
O O11 0.521044 0.676207 0.976948
O O12 0.628791 0.410325 0.250000
O O13 0.500000 0.500000 0.500000
O O14 0.387867 0.541223 0.404028
O O15 0.529020 0.871282 0.250000
#
# Coordination Sequence:
#
# PCOD8325516 Si02
#       7
#    12  12   4  12   6  12  12
#     4  10  19  35  63  97 134 173 213 262 318 399
#     4  10  22  40  65  97 126 169 220 265 325 397
#     4   9  18  33  60 103 137 172 217 260 310 387
#     4  11  21  39  63  93 132 172 212 268 332 389
#     4  10  24  40  58  92 126 168 218 266 320 386
#     4  10  24  40  62  92 124 170 215 272 325 379
#     4  10  20  40  66  91 127 172 218 272 323 391
#
# _framework density 21.631150000000002
#
# number of rings (size 3 to 8) (size 9 to 14) (size 15 to 20)
#    0.171    1.714    1.714    1.543    0.000    9.600 
#    1.029    0.000    0.000    1.029    0.000    0.000 
#    0.000    0.000    0.000    0.000    0.000    0.000 
#
# Total GULP energy -867512.595183 kJ/mol
# GULP energy per Si atom -12393.037074 kJ/mol
# Density = 2.158192 g / cm^3
# Si number density = 21.631150 Si / 1000 Ang^3
#
#
#
# Elastic Constant Matrix: (Units=GPa)
#
#
# Indices 1 2 3 4 5 6 
#
# 1 104.4916 32.0085 43.3138 0.0000 0.0000 0.0000
# 2 32.0085 104.4916 43.3138 0.0000 0.0000 0.0000
# 3 43.3138 43.3138 83.3764 0.0000 0.0000 0.0000
# 4 0.0000 0.0000 0.0000 20.5971 0.0000 0.0000
# 5 0.0000 0.0000 0.0000 0.0000 20.5971 0.0000
# 6 0.0000 0.0000 0.0000 0.0000 0.0000 36.2416
#
#
#
# Elastic Compliance Matrix: (Units=1/GPa)
#
#
# Indices 1 2 3 4 5 6 
#
# 1 0.012363 -0.001434 -0.005678 0.000000 0.000000 0.000000
# 2 -0.001434 0.012363 -0.005678 0.000000 0.000000 0.000000
# 3 -0.005678 -0.005678 0.017893 0.000000 0.000000 0.000000
# 4 0.000000 0.000000 0.000000 0.048551 0.000000 0.000000
# 5 0.000000 0.000000 0.000000 0.000000 0.048551 0.000000
# 6 0.000000 0.000000 0.000000 0.000000 0.000000 0.027593
#
#
# Mechanical properties :
#
#
# Convention : Reuss Voigt Hill
#
# Bulk Modulus (GPa) = 58.68345 58.84795 58.76570
# Shear Modulus (GPa) = 25.17999 27.06872 26.12435
#
# Velocity S-wave (km/s) = 3.41554 3.54132 3.47900
# Velocity P-wave (km/s) = 6.53778 6.63216 6.58514
#
# Compressibility (1/GPa) = 0.01704058
#
# Stress axis : x y z
#
# Youngs Moduli (GPa) = 80.88786 80.88786 55.88802
#
# Poissons Ratio (x) = 0.11595 0.31732
# Poissons Ratio (y) = 0.11595 0.31732
# Poissons Ratio (z) = 0.45926 0.45926
#
# Static dielectric constant tensor:
#      x y z
#    x 4.023740 0.000000 0.000000 
#    y 0.000000 4.023740 0.000000 
#    z 0.000000 0.000000 4.146390 
# 
# 
# High freq. dielectric constant tensor:
#      x y z
#    x 1.846770 0.000000 0.000000 
#    y 0.000000 1.846770 0.000000 
#    z 0.000000 0.000000 1.843790 
# 
# From -- ./inp_files/3396.got.cif
#   From: 2010.06.25/outbox.cif.g09.slc.cpg/sg176_2_cif.got.tgz:3396.got - 2010.06.28 12:15:01.
