data_PCOD8325287
_publ_section_title
;
Structure prediction by ZEFSAII (Michael W. Deem and Ramdas Pophale) SiO2 
 PCOD8325287
Probable space group: P 6/M
;
_chemical_formula_sum "Si O2"
_cell_formula_units_Z 48
_cell_length_a 17.638407
_cell_length_b 17.638407
_cell_length_c 9.084144
_cell_angle_alpha 90.000000
_cell_angle_beta 90.000000
_cell_angle_gamma 120.000000
_cell_volume 2447.560078
_symmetry_space_group_name_H-M "P 6/M"
_symmetry_group_IT_number 175
_symmetry_cell_setting 'hexagonal'
loop_
_space_group_symop_operation_xyz
x,y,z
x-y,x,z
-y,x-y,z
-x,-y,z
-x+y,-x,z
y,-x+y,z
-x,-y,-z
-x+y,-x,-z
y,-x+y,-z
x,y,-z
x-y,x,-z
-y,x-y,-z
loop_
_atom_site_type_symbol
_atom_site_label
_atom_site_fract_x
_atom_site_fract_y
_atom_site_fract_z
Si Si1 0.999260 0.339884 0.825891
Si Si2 0.821285 0.839319 0.174948
Si Si3 0.313754 0.482433 0.671549
Si Si4 0.850568 0.497822 0.328895
O O1 0.064917 0.434488 0.761289
O O2 0.028989 0.271044 0.774543
O O3 0.902274 0.305273 0.766950
O O4 0.997938 0.346809 0.000000
O O5 0.828643 0.927786 0.239295
O O6 0.827613 0.843049 0.000000
O O7 0.311789 0.460089 0.500000
O O8 0.233152 0.495116 0.716699
O O9 0.401423 0.571208 0.712474
O O10 0.872839 0.518053 0.500000
#
# Coordination Sequence:
#
# PCOD8325287 Si02
#       4
#    12  12  12  12
#     4  11  22  35  53  81 116 147 176 218 274 335
#     4   9  17  30  49  73 102 137 176 216 258 307
#     4  10  21  38  59  81 106 140 184 231 276 324
#     4  10  21  38  59  81 106 140 184 231 276 324
#
# _framework density 19.611369
#
# number of rings (size 3 to 8) (size 9 to 14) (size 15 to 20)
#    0.000    2.000    0.000    3.750    0.000   10.000 
#    0.000    0.000    0.000    3.000    0.000    0.000 
#    0.000   12.000    0.000    0.000    0.000    0.000 
#
# Total GULP energy -595413.712864 kJ/mol
# GULP energy per Si atom -12404.452351 kJ/mol
# Density = 1.956673 g / cm^3
# Si number density = 19.611369 Si / 1000 Ang^3
#
#
#
# Elastic Constant Matrix: (Units=GPa)
#
#
# Indices 1 2 3 4 5 6 
#
# 1 82.5753 -2.8721 18.2093 0.0000 0.0000 0.0000
# 2 -2.8721 82.5753 18.2093 0.0000 0.0000 0.0000
# 3 18.2093 18.2093 35.1046 0.0000 0.0000 0.0000
# 4 0.0000 0.0000 0.0000 26.5478 0.0000 0.0000
# 5 0.0000 0.0000 0.0000 0.0000 26.5478 0.0000
# 6 0.0000 0.0000 0.0000 0.0000 0.0000 42.7237
#
#
#
# Elastic Compliance Matrix: (Units=1/GPa)
#
#
# Indices 1 2 3 4 5 6 
#
# 1 0.014074 0.002370 -0.008530 0.000000 0.000000 0.000000
# 2 0.002370 0.014074 -0.008530 0.000000 0.000000 0.000000
# 3 -0.008530 -0.008530 0.037335 0.000000 0.000000 0.000000
# 4 0.000000 0.000000 0.000000 0.037668 0.000000 0.000000
# 5 0.000000 0.000000 0.000000 0.000000 0.037668 0.000000
# 6 0.000000 0.000000 0.000000 0.000000 0.000000 0.023406
#
#
# Mechanical properties :
#
#
# Convention : Reuss Voigt Hill
#
# Bulk Modulus (GPa) = 27.69751 29.70535 28.70143
# Shear Modulus (GPa) = 24.31466 30.27778 27.29622
#
# Velocity S-wave (km/s) = 3.52493 3.93350 3.73481
# Velocity P-wave (km/s) = 5.54263 5.98413 5.76760
#
# Compressibility (1/GPa) = 0.03610433
#
# Stress axis : x y z
#
# Youngs Moduli (GPa) = 71.05528 71.05528 26.78434
#
# Poissons Ratio (x) = -0.16843 0.22846
# Poissons Ratio (y) = -0.16843 0.22846
# Poissons Ratio (z) = 0.60608 0.60608
#
# Static dielectric constant tensor:
#      x y z
#    x 3.771970 0.000000 0.000000 
#    y 0.000000 3.771970 0.000000 
#    z 0.000000 0.000000 3.240610 
# 
# 
# High freq. dielectric constant tensor:
#      x y z
#    x 1.781330 0.000000 0.000000 
#    y 0.000000 1.781330 0.000000 
#    z 0.000000 0.000000 1.731090 
# 
# From -- ./inp_files/503.got.cif
#   From: 2010.03.12/outbox.cif.g09.slc.cpg/sg175_1_cif.got.tgz:503.got - 2010.04.02 06:55:29.
