data_PCOD8325445
_publ_section_title
;
Structure prediction by ZEFSAII (Michael W. Deem and Ramdas Pophale) SiO2 
 PCOD8325445
Probable space group: P 63/M
;
_chemical_formula_sum "Si O2"
_cell_formula_units_Z 42
_cell_length_a 9.566618
_cell_length_b 9.566618
_cell_length_c 26.519616
_cell_angle_alpha 90.000000
_cell_angle_beta 90.000000
_cell_angle_gamma 120.000000
_cell_volume 2101.912962
_symmetry_space_group_name_H-M "P 63/M"
_symmetry_group_IT_number 176
_symmetry_cell_setting 'hexagonal'
loop_
_space_group_symop_operation_xyz
x,y,z
x-y,x,1/2+z
-y,x-y,z
-x,-y,1/2+z
-x+y,-x,z
y,-x+y,1/2+z
-x,-y,-z
-x+y,-x,1/2-z
y,-x+y,-z
x,y,1/2-z
x-y,x,-z
-y,x-y,1/2-z
loop_
_atom_site_type_symbol
_atom_site_label
_atom_site_fract_x
_atom_site_fract_y
_atom_site_fract_z
Si Si1 0.512803 0.513375 0.142440
Si Si2 0.333334 0.666668 0.397218
Si Si3 0.427755 0.874061 0.750000
Si Si4 0.799531 0.168608 0.413633
Si Si5 0.666667 0.333334 0.482720
Si Si6 0.000000 0.000000 0.558836
O O1 0.485308 0.658894 0.125605
O O2 0.488561 0.479763 0.201903
O O3 0.382784 0.360779 0.109983
O O4 0.692889 0.557467 0.128565
O O5 0.333334 0.666667 0.457388
O O6 0.233748 0.750229 0.750000
O O7 0.757242 0.237241 0.463972
O O8 0.927044 0.110438 0.423348
O O9 0.000000 0.000000 0.500000
#
# Coordination Sequence:
#
# PCOD8325445 Si02
#       6
#    12   4   6  12   4   4
#     4  11  22  41  68  91 122 164 210 259 308 379
#     4  12  27  37  55  99 136 154 195 279 313 344
#     4  10  18  40  72  94 108 162 214 254 304 384
#     4  10  22  42  62  93 121 171 219 247 310 376
#     4   9  24  42  64  80 127 177 216 246 301 377
#     4  12  27  36  60  94 134 166 207 267 306 367
#
# _framework density 19.981798999999999
#
# number of rings (size 3 to 8) (size 9 to 14) (size 15 to 20)
#    0.286    1.143    2.857    2.286    8.000    3.429 
#    0.000    0.000    0.000    1.714    0.000    0.000 
#    0.000    0.000    0.000    0.000    0.000    0.000 
#
# Total GULP energy -520810.384353 kJ/mol
# GULP energy per Si atom -12400.247246 kJ/mol
# Density = 1.993632 g / cm^3
# Si number density = 19.981799 Si / 1000 Ang^3
#
#
#
# Elastic Constant Matrix: (Units=GPa)
#
#
# Indices 1 2 3 4 5 6 
#
# 1 89.3085 24.2590 39.1472 0.0000 0.0000 -0.0003
# 2 24.2590 89.3088 39.1472 0.0000 0.0000 -0.0003
# 3 39.1472 39.1472 162.8489 0.0000 0.0000 -0.0001
# 4 0.0000 0.0000 0.0000 12.0480 0.0000 0.0000
# 5 0.0000 0.0000 0.0000 0.0000 12.0528 0.0000
# 6 -0.0003 -0.0003 -0.0001 0.0000 0.0000 32.5241
#
#
#
# Elastic Compliance Matrix: (Units=1/GPa)
#
#
# Indices 1 2 3 4 5 6 
#
# 1 0.012964 -0.002409 -0.002537 0.000000 0.000000 0.000000
# 2 -0.002409 0.012964 -0.002537 0.000000 0.000000 0.000000
# 3 -0.002537 -0.002537 0.007360 0.000000 0.000000 0.000000
# 4 0.000000 0.000000 0.000000 0.083001 0.000000 0.000000
# 5 0.000000 0.000000 0.000000 0.000000 0.082968 0.000000
# 6 0.000000 0.000000 0.000000 0.000000 0.000000 0.030746
#
#
# Mechanical properties :
#
#
# Convention : Reuss Voigt Hill
#
# Bulk Modulus (GPa) = 54.58308 60.73034 57.65671
# Shear Modulus (GPa) = 19.91419 27.25253 23.58336
#
# Velocity S-wave (km/s) = 3.16035 3.69706 3.43919
# Velocity P-wave (km/s) = 6.37909 6.97733 6.68491
#
# Compressibility (1/GPa) = 0.01832070
#
# Stress axis : x y z
#
# Youngs Moduli (GPa) = 77.13848 77.13869 135.86061
#
# Poissons Ratio (x) = 0.18584 0.34470
# Poissons Ratio (y) = 0.18584 0.34470
# Poissons Ratio (z) = 0.19571 0.19571
#
# Static dielectric constant tensor:
#      x y z
#    x 3.364770 0.000010 0.000000 
#    y 0.000010 3.364750 0.000000 
#    z 0.000000 0.000000 3.433910 
# 
# 
# High freq. dielectric constant tensor:
#      x y z
#    x 1.776440 0.000000 0.000000 
#    y 0.000000 1.776440 0.000000 
#    z 0.000000 0.000000 1.779070 
# 
# From -- ./inp_files/4430.got.cif
#   From: 2010.06.25/outbox.cif.g09.slc.cpg/sg176_3_cif.got.tgz:4430.got - 2010.06.28 12:15:01.
