data_PCOD8325212
_publ_section_title
;
Structure prediction by ZEFSAII (Michael W. Deem and Ramdas Pophale) SiO2 
 PCOD8325212
Probable space group: P 6/M
;
_chemical_formula_sum "Si O2"
_cell_formula_units_Z 48
_cell_length_a 18.186554
_cell_length_b 18.186554
_cell_length_c 8.642729
_cell_angle_alpha 90.000000
_cell_angle_beta 90.000000
_cell_angle_gamma 120.000000
_cell_volume 2475.610752
_symmetry_space_group_name_H-M "P 6/M"
_symmetry_group_IT_number 175
_symmetry_cell_setting 'hexagonal'
loop_
_space_group_symop_operation_xyz
x,y,z
x-y,x,z
-y,x-y,z
-x,-y,z
-x+y,-x,z
y,-x+y,z
-x,-y,-z
-x+y,-x,-z
y,-x+y,-z
x,y,-z
x-y,x,-z
-y,x-y,-z
loop_
_atom_site_type_symbol
_atom_site_label
_atom_site_fract_x
_atom_site_fract_y
_atom_site_fract_z
Si Si1 0.381889 0.899846 0.180055
Si Si2 0.201995 0.816707 0.319694
Si Si3 0.893413 0.085463 0.684230
Si Si4 0.920139 0.379027 0.679179
O O1 0.285304 0.837841 0.225393
O O2 0.442213 0.872665 0.271728
O O3 0.406793 0.995435 0.220809
O O4 0.394495 0.891941 0.000000
O O5 0.224894 0.834843 0.500000
O O6 0.161157 0.872193 0.257775
O O7 0.137210 0.719275 0.285697
O O8 0.896486 0.086823 0.500000
O O9 0.989534 0.139220 0.748579
O O10 0.945670 0.395694 0.500000
#
# Coordination Sequence:
#
# PCOD8325212 Si02
#       4
#    12  12  12  12
#     4  11  22  36  56  81 112 144 178 226 285 343
#     4  10  20  35  56  81 108 145 190 233 272 326
#     4   9  16  27  47  78 114 147 181 223 270 315
#     4  10  20  37  60  81 107 144 187 230 273 330
#
# _framework density 19.389154000000001
#
# number of rings (size 3 to 8) (size 9 to 14) (size 15 to 20)
#    0.000    2.000    0.000    6.250    0.000    7.000 
#    1.500    0.000    0.000    0.000    0.000    0.000 
#    0.000    4.000    0.000    0.000    0.000    0.000 
#
# Total GULP energy -595305.118563 kJ/mol
# GULP energy per Si atom -12402.189970 kJ/mol
# Density = 1.934502 g / cm^3
# Si number density = 19.389154 Si / 1000 Ang^3
#
#
#
# Elastic Constant Matrix: (Units=GPa)
#
#
# Indices 1 2 3 4 5 6 
#
# 1 65.2255 8.3522 13.1407 0.0000 0.0000 0.0000
# 2 8.3522 65.2255 13.1407 0.0000 0.0000 0.0000
# 3 13.1407 13.1407 42.1733 0.0000 0.0000 0.0000
# 4 0.0000 0.0000 0.0000 13.2503 0.0000 0.0000
# 5 0.0000 0.0000 0.0000 0.0000 13.2503 0.0000
# 6 0.0000 0.0000 0.0000 0.0000 0.0000 28.4367
#
#
#
# Elastic Compliance Matrix: (Units=1/GPa)
#
#
# Indices 1 2 3 4 5 6 
#
# 1 0.016438 -0.001145 -0.004765 0.000000 0.000000 0.000000
# 2 -0.001145 0.016438 -0.004765 0.000000 0.000000 0.000000
# 3 -0.004765 -0.004765 0.026681 0.000000 0.000000 0.000000
# 4 0.000000 0.000000 0.000000 0.075470 0.000000 0.000000
# 5 0.000000 0.000000 0.000000 0.000000 0.075470 0.000000
# 6 0.000000 0.000000 0.000000 0.000000 0.000000 0.035166
#
#
# Mechanical properties :
#
#
# Convention : Reuss Voigt Hill
#
# Bulk Modulus (GPa) = 26.17332 26.87685 26.52508
# Shear Modulus (GPa) = 17.87312 20.18682 19.02997
#
# Velocity S-wave (km/s) = 3.03943 3.23017 3.13625
# Velocity P-wave (km/s) = 5.08387 5.27294 5.17927
#
# Compressibility (1/GPa) = 0.03820685
#
# Stress axis : x y z
#
# Youngs Moduli (GPa) = 60.83451 60.83451 37.47958
#
# Poissons Ratio (x) = 0.06965 0.17860
# Poissons Ratio (y) = 0.06965 0.17860
# Poissons Ratio (z) = 0.28989 0.28989
#
# Static dielectric constant tensor:
#      x y z
#    x 3.668040 0.000000 0.000000 
#    y 0.000000 3.668040 0.000000 
#    z 0.000000 0.000000 3.337690 
# 
# 
# High freq. dielectric constant tensor:
#      x y z
#    x 1.761490 0.000000 0.000000 
#    y 0.000000 1.761490 0.000000 
#    z 0.000000 0.000000 1.727250 
# 
# From -- ./inp_files/516.got.cif
#   From: 2010.03.12/outbox.cif.g09.slc.cpg/sg175_1_cif.got.tgz:516.got - 2010.04.02 06:55:29.
