data_PCOD8325836
_publ_section_title
;
Structure prediction by ZEFSAII (Michael W. Deem and Ramdas Pophale) SiO2 
 PCOD8325836
Probable space group: P 61 2 2
;
_chemical_formula_sum "Si O2"
_cell_formula_units_Z 72
_cell_length_a 22.761122
_cell_length_b 22.761122
_cell_length_c 9.140337
_cell_angle_alpha 90.000000
_cell_angle_beta 90.000000
_cell_angle_gamma 120.000000
_cell_volume 4100.909386
_symmetry_space_group_name_H-M "P 61 2 2"
_symmetry_group_IT_number 178
_symmetry_cell_setting 'hexagonal'
loop_
_space_group_symop_operation_xyz
x,y,z
x-y,x,1/6+z
-y,x-y,1/3+z
-x,-y,1/2+z
-x+y,-x,2/3+z
y,-x+y,5/6+z
x-y,-y,-z
-x,-x+y,2/3-z
y,x,1/3-z
-y,-x,5/6-z
-x+y,y,1/2-z
x,x-y,1/6-z
loop_
_atom_site_type_symbol
_atom_site_label
_atom_site_fract_x
_atom_site_fract_y
_atom_site_fract_z
Si Si1 0.925449 0.294213 0.515489
Si Si2 0.914840 0.628880 0.981496
Si Si3 0.405964 0.483863 0.507852
Si Si4 0.717779 0.852707 0.409274
Si Si5 0.483593 0.399588 0.496051
Si Si6 0.130254 0.045141 0.360269
O O1 0.894560 0.285991 0.353763
O O2 0.894930 0.333950 0.600002
O O3 0.902223 0.227511 0.612099
O O4 0.005574 0.329850 0.505021
O O5 0.887352 0.561256 0.082577
O O6 0.884690 0.678550 0.013419
O O7 0.446995 0.553006 0.416667
O O8 0.444676 0.441585 0.499678
O O9 0.390912 0.499736 0.670375
O O10 0.726346 0.863173 0.583334
O O11 0.791162 0.884380 0.338890
O O12 0.556015 0.443986 0.416667
O O13 0.095782 0.091285 0.390830
O O14 0.124425 0.000000 0.500000
#
# Coordination Sequence:
#
# PCOD8325836 Si02
#       6
#    12  12  12  12  12  12
#     4   9  17  30  47  69  97 130 168 210 255 316
#     4   9  17  30  49  69  97 130 170 212 254 317
#     4   9  16  27  43  68  98 128 158 189 231 278
#     4  10  20  36  54  74  97 134 177 218 282 352
#     4   9  16  27  44  70  97 129 161 188 229 281
#     4  10  22  42  54  74  96 126 174 242 312 366
#
# _framework density 17.557081
#
# number of rings (size 3 to 8) (size 9 to 14) (size 15 to 20)
#    0.000    2.667    0.000    2.000    0.000    6.000 
#   21.000    0.000    0.000    0.000    0.000    0.000 
#    0.000    6.667    0.000    0.500    0.000    0.500 
#
# Total GULP energy -892227.875136 kJ/mol
# GULP energy per Si atom -12392.053821 kJ/mol
# Density = 1.751712 g / cm^3
# Si number density = 17.557081 Si / 1000 Ang^3
#
#
#
# Elastic Constant Matrix: (Units=GPa)
#
#
# Indices 1 2 3 4 5 6 
#
# 1 99.7675 53.5861 51.1008 0.0000 0.0000 0.0000
# 2 53.5861 99.7675 51.1008 0.0000 0.0000 0.0000
# 3 51.1008 51.1008 92.8743 0.0000 0.0000 0.0000
# 4 0.0000 0.0000 0.0000 26.7160 0.0000 0.0000
# 5 0.0000 0.0000 0.0000 0.0000 26.7160 0.0000
# 6 0.0000 0.0000 0.0000 0.0000 0.0000 23.0907
#
#
#
# Elastic Compliance Matrix: (Units=1/GPa)
#
#
# Indices 1 2 3 4 5 6 
#
# 1 0.015975 -0.005679 -0.005665 0.000000 0.000000 0.000000
# 2 -0.005679 0.015975 -0.005665 0.000000 0.000000 0.000000
# 3 -0.005665 -0.005665 0.017001 0.000000 0.000000 0.000000
# 4 0.000000 0.000000 0.000000 0.037431 0.000000 0.000000
# 5 0.000000 0.000000 0.000000 0.000000 0.037431 0.000000
# 6 0.000000 0.000000 0.000000 0.000000 0.000000 0.043308
#
#
# Mechanical properties :
#
#
# Convention : Reuss Voigt Hill
#
# Bulk Modulus (GPa) = 66.96427 67.10938 67.03683
# Shear Modulus (GPa) = 24.25810 24.41266 24.33538
#
# Velocity S-wave (km/s) = 3.72112 3.73295 3.72704
# Velocity P-wave (km/s) = 7.52901 7.54231 7.53566
#
# Compressibility (1/GPa) = 0.01493334
#
# Stress axis : x y z
#
# Youngs Moduli (GPa) = 62.59741 62.59741 58.81852
#
# Poissons Ratio (x) = 0.35547 0.33322
# Poissons Ratio (y) = 0.35547 0.33322
# Poissons Ratio (z) = 0.35463 0.35463
#
# Static dielectric constant tensor:
#      x y z
#    x 3.194440 0.000000 0.000000 
#    y 0.000000 3.194440 0.000000 
#    z 0.000000 0.000000 3.405840 
# 
# 
# High freq. dielectric constant tensor:
#      x y z
#    x 1.655930 0.000000 0.000000 
#    y 0.000000 1.655930 0.000000 
#    z 0.000000 0.000000 1.682330 
# 
# From -- ./inp_files/3440.got.cif
#   From: 2010.03.12/outbox.cif.g09.slc.cpg/sg178_2_cif.got.tgz:3440.got - 2010.04.02 07:02:38.
