data_PCOD8325866
_publ_section_title
;
Structure prediction by ZEFSAII (Michael W. Deem and Ramdas Pophale) SiO2 
 PCOD8325866
Probable space group: P 61 2 2
;
_chemical_formula_sum "Si O2"
_cell_formula_units_Z 54
_cell_length_a 10.402635
_cell_length_b 10.402635
_cell_length_c 24.840674
_cell_angle_alpha 90.000000
_cell_angle_beta 90.000000
_cell_angle_gamma 120.000000
_cell_volume 2327.987951
_symmetry_space_group_name_H-M "P 61 2 2"
_symmetry_group_IT_number 178
_symmetry_cell_setting 'hexagonal'
loop_
_space_group_symop_operation_xyz
x,y,z
x-y,x,1/6+z
-y,x-y,1/3+z
-x,-y,1/2+z
-x+y,-x,2/3+z
y,-x+y,5/6+z
x-y,-y,-z
-x,-x+y,2/3-z
y,x,1/3-z
-y,-x,5/6-z
-x+y,y,1/2-z
x,x-y,1/6-z
loop_
_atom_site_type_symbol
_atom_site_label
_atom_site_fract_x
_atom_site_fract_y
_atom_site_fract_z
Si Si1 0.605975 0.067232 0.119268
Si Si2 0.872719 0.609833 0.977441
Si Si3 0.218512 0.437024 0.750000
Si Si4 0.172662 0.600576 0.844944
Si Si5 0.144043 0.846434 0.027032
O O1 0.703517 0.177416 0.167295
O O2 0.624537 0.185687 0.073281
O O3 0.438682 0.944418 0.136012
O O4 0.665193 0.957910 0.096499
O O5 0.875333 0.687201 0.922072
O O6 0.968843 0.735823 0.021282
O O7 0.246074 0.541393 0.802210
O O8 0.236852 0.777215 0.836786
O O9 0.000000 0.532382 0.833334
O O10 0.181471 0.000000 0.000000
#
# Coordination Sequence:
#
# PCOD8325866 Si02
#       5
#    12  12   6  12  12
#     4  11  26  45  71 113 153 199 251 325 395 464
#     4  12  27  46  74 114 151 199 257 318 389 472
#     4  10  20  44  72 102 150 194 248 310 394 464
#     4   9  19  42  70  96 140 197 241 303 394 457
#     4  11  23  48  72 103 144 201 255 307 380 465
#
# _framework density 23.195995
#
# number of rings (size 3 to 8) (size 9 to 14) (size 15 to 20)
#    0.000    1.333    6.667    0.667    6.222    0.889 
#    4.000    0.000    0.000    0.000    0.000    0.000 
#    0.000    0.000    0.000    0.000    0.000    0.000 
#
# Total GULP energy -669364.351503 kJ/mol
# GULP energy per Si atom -12395.636139 kJ/mol
# Density = 2.314320 g / cm^3
# Si number density = 23.195995 Si / 1000 Ang^3
#
#
#
# Elastic Constant Matrix: (Units=GPa)
#
#
# Indices 1 2 3 4 5 6 
#
# 1 86.8778 28.4340 46.4040 0.0000 0.0000 0.0000
# 2 28.4340 86.8778 46.4040 0.0000 0.0000 0.0000
# 3 46.4040 46.4040 104.0190 0.0000 0.0000 0.0000
# 4 0.0000 0.0000 0.0000 36.3072 0.0000 0.0000
# 5 0.0000 0.0000 0.0000 0.0000 36.3072 0.0000
# 6 0.0000 0.0000 0.0000 0.0000 0.0000 29.2219
#
#
#
# Elastic Compliance Matrix: (Units=1/GPa)
#
#
# Indices 1 2 3 4 5 6 
#
# 1 0.015320 -0.001790 -0.006036 0.000000 0.000000 0.000000
# 2 -0.001790 0.015320 -0.006036 0.000000 0.000000 0.000000
# 3 -0.006036 -0.006036 0.014999 0.000000 0.000000 0.000000
# 4 0.000000 0.000000 0.000000 0.027543 0.000000 0.000000
# 5 0.000000 0.000000 0.000000 0.000000 0.027543 0.000000
# 6 0.000000 0.000000 0.000000 0.000000 0.000000 0.034221
#
#
# Mechanical properties :
#
#
# Convention : Reuss Voigt Hill
#
# Bulk Modulus (GPa) = 55.81748 57.80651 56.81200
# Shear Modulus (GPa) = 29.64861 30.80276 30.22569
#
# Velocity S-wave (km/s) = 3.57904 3.64804 3.61370
# Velocity P-wave (km/s) = 6.41833 6.53600 6.47743
#
# Compressibility (1/GPa) = 0.01791553
#
# Stress axis : x y z
#
# Youngs Moduli (GPa) = 65.27287 65.27287 66.67102
#
# Poissons Ratio (x) = 0.11685 0.40242
# Poissons Ratio (y) = 0.11685 0.40242
# Poissons Ratio (z) = 0.39398 0.39398
#
# Static dielectric constant tensor:
#      x y z
#    x 4.234330 0.000000 0.000000 
#    y 0.000000 4.234330 0.000000 
#    z 0.000000 0.000000 4.434870 
# 
# 
# High freq. dielectric constant tensor:
#      x y z
#    x 1.912510 0.000000 0.000000 
#    y 0.000000 1.912510 0.000000 
#    z 0.000000 0.000000 1.920930 
# 
# From -- ./inp_files/8119.got.cif
#   From: 2010.03.12/outbox.cif.g09.slc.cpg/sg178_5_cif.got.tgz:8119.got - 2010.04.02 07:02:38.
