data_PCOD8325942
_publ_section_title
;
Structure prediction by ZEFSAII (Michael W. Deem and Ramdas Pophale) SiO2 
 PCOD8325942
Probable space group: P 61 2 2
;
_chemical_formula_sum "Si O2"
_cell_formula_units_Z 48
_cell_length_a 14.986216
_cell_length_b 14.986216
_cell_length_c 10.619527
_cell_angle_alpha 90.000000
_cell_angle_beta 90.000000
_cell_angle_gamma 120.000000
_cell_volume 2065.474230
_symmetry_space_group_name_H-M "P 61 2 2"
_symmetry_group_IT_number 178
_symmetry_cell_setting 'hexagonal'
loop_
_space_group_symop_operation_xyz
x,y,z
x-y,x,1/6+z
-y,x-y,1/3+z
-x,-y,1/2+z
-x+y,-x,2/3+z
y,-x+y,5/6+z
x-y,-y,-z
-x,-x+y,2/3-z
y,x,1/3-z
-y,-x,5/6-z
-x+y,y,1/2-z
x,x-y,1/6-z
loop_
_atom_site_type_symbol
_atom_site_label
_atom_site_fract_x
_atom_site_fract_y
_atom_site_fract_z
Si Si1 0.925866 0.099063 0.588476
Si Si2 0.290081 0.400970 0.436002
Si Si3 0.517209 0.482792 0.416667
Si Si4 0.493737 0.656522 0.145923
Si Si5 0.728162 0.456323 0.750000
O O1 0.908461 0.195823 0.579050
O O2 0.046983 0.143529 0.559192
O O3 0.847580 0.000000 0.500000
O O4 0.398223 0.428623 0.369050
O O5 0.319628 0.418289 0.584115
O O6 0.253427 0.475553 0.375008
O O7 0.522836 0.425120 0.539766
O O8 0.530701 0.765351 0.083334
O O9 0.391086 0.618384 0.225659
#
# Coordination Sequence:
#
# PCOD8325942 Si02
#       5
#    12  12   6  12   6
#     4  10  24  50  78 112 150 199 269 335 410 474
#     4  12  26  46  76 115 154 213 263 325 401 478
#     4  12  27  50  74 114 166 204 266 327 384 494
#     4  12  26  47  73 110 161 207 257 321 398 480
#     4  12  23  44  72 106 154 212 256 309 392 468
#
# _framework density 23.239215000000002
#
# number of rings (size 3 to 8) (size 9 to 14) (size 15 to 20)
#    0.000    0.500    2.500    6.000    7.000    0.000 
#    0.000   12.500    0.000    0.000    0.000    0.000 
#    0.000    0.000    0.000    0.000    0.000    0.000 
#
# Total GULP energy -594866.846429 kJ/mol
# GULP energy per Si atom -12393.059301 kJ/mol
# Density = 2.318632 g / cm^3
# Si number density = 23.239215 Si / 1000 Ang^3
#
#
#
# Elastic Constant Matrix: (Units=GPa)
#
#
# Indices 1 2 3 4 5 6 
#
# 1 128.6148 47.1399 30.6183 0.0000 0.0000 0.0000
# 2 47.1399 128.6148 30.6183 0.0000 0.0000 0.0000
# 3 30.6183 30.6183 108.6392 0.0000 0.0000 0.0000
# 4 0.0000 0.0000 0.0000 33.1256 0.0000 0.0000
# 5 0.0000 0.0000 0.0000 0.0000 33.1256 0.0000
# 6 0.0000 0.0000 0.0000 0.0000 0.0000 40.7375
#
#
#
# Elastic Compliance Matrix: (Units=1/GPa)
#
#
# Indices 1 2 3 4 5 6 
#
# 1 0.009292 -0.002982 -0.001778 0.000000 0.000000 0.000000
# 2 -0.002982 0.009292 -0.001778 0.000000 0.000000 0.000000
# 3 -0.001778 -0.001778 0.010207 0.000000 0.000000 0.000000
# 4 0.000000 0.000000 0.000000 0.030188 0.000000 0.000000
# 5 0.000000 0.000000 0.000000 0.000000 0.030188 0.000000
# 6 0.000000 0.000000 0.000000 0.000000 0.000000 0.024547
#
#
# Mechanical properties :
#
#
# Convention : Reuss Voigt Hill
#
# Bulk Modulus (GPa) = 63.64172 64.73578 64.18875
# Shear Modulus (GPa) = 37.87059 38.56390 38.21724
#
# Velocity S-wave (km/s) = 4.04121 4.07803 4.05966
# Velocity P-wave (km/s) = 7.01570 7.07747 7.04665
#
# Compressibility (1/GPa) = 0.01571296
#
# Stress axis : x y z
#
# Youngs Moduli (GPa) = 107.62516 107.62516 97.97115
#
# Poissons Ratio (x) = 0.32096 0.17421
# Poissons Ratio (y) = 0.32096 0.17421
# Poissons Ratio (z) = 0.19138 0.19138
#
# Static dielectric constant tensor:
#      x y z
#    x 4.448910 0.000000 0.000000 
#    y 0.000000 4.448910 0.000000 
#    z 0.000000 0.000000 4.619140 
# 
# 
# High freq. dielectric constant tensor:
#      x y z
#    x 1.922430 0.000000 0.000000 
#    y 0.000000 1.922430 0.000000 
#    z 0.000000 0.000000 1.923320 
# 
# From -- ./inp_files/4175.got.cif
#   From: 2010.03.12/outbox.cif.g09.slc.cpg/sg178_3_cif.got.tgz:4175.got - 2010.04.02 07:02:38.
