data_PCOD8325327
_publ_section_title
;
Structure prediction by ZEFSAII (Michael W. Deem and Ramdas Pophale) SiO2 
 PCOD8325327
Probable space group: P 6/M
;
_chemical_formula_sum "Si O2"
_cell_formula_units_Z 46
_cell_length_a 14.978509
_cell_length_b 14.978509
_cell_length_c 11.388562
_cell_angle_alpha 90.000000
_cell_angle_beta 90.000000
_cell_angle_gamma 120.000000
_cell_volume 2212.772124
_symmetry_space_group_name_H-M "P 6/M"
_symmetry_group_IT_number 175
_symmetry_cell_setting 'hexagonal'
loop_
_space_group_symop_operation_xyz
x,y,z
x-y,x,z
-y,x-y,z
-x,-y,z
-x+y,-x,z
y,-x+y,z
-x,-y,-z
-x+y,-x,-z
y,-x+y,-z
x,y,-z
x-y,x,-z
-y,x-y,-z
loop_
_atom_site_type_symbol
_atom_site_label
_atom_site_fract_x
_atom_site_fract_y
_atom_site_fract_z
Si Si1 0.758877 0.901190 0.862337
Si Si2 0.651161 0.053146 0.500000
Si Si3 0.333334 0.666668 0.136398
Si Si4 0.828314 0.292129 0.242480
Si Si5 0.256020 0.424659 0.500000
Si Si6 0.500000 0.000000 0.297555
O O1 0.814339 0.835431 0.829275
O O2 0.651607 0.855134 0.790677
O O3 0.732213 0.890876 0.000000
O O4 0.770648 0.134060 0.500000
O O5 0.597468 0.065928 0.616561
O O6 0.658199 0.950745 0.500000
O O7 0.452247 0.726626 0.176527
O O8 0.333334 0.666668 0.000000
O O9 0.805708 0.296820 0.381147
O O10 0.925625 0.405224 0.212702
#
# Coordination Sequence:
#
# PCOD8325327 Si02
#       6
#    12   6   4  12   6   6
#     4  10  23  44  69  94 123 168 224 275 322 376
#     4   9  18  36  56  85 120 161 214 248 306 370
#     4  12  27  43  62  94 135 171 217 269 319 384
#     4  11  24  40  64  95 132 171 213 261 327 387
#     4  10  22  36  62  91 122 170 206 260 312 390
#     4   9  20  38  59  84 120 168 213 257 302 382
#
# _framework density 20.788404
#
# number of rings (size 3 to 8) (size 9 to 14) (size 15 to 20)
#    0.000    1.826    0.000    3.391   10.957    2.087 
#    0.000    1.304    0.000    0.261    0.000    0.000 
#    0.000    0.000    0.000    0.000    0.000    0.000 
#
# Total GULP energy -570120.454478 kJ/mol
# GULP energy per Si atom -12393.922923 kJ/mol
# Density = 2.074109 g / cm^3
# Si number density = 20.788404 Si / 1000 Ang^3
#
#
#
# Elastic Constant Matrix: (Units=GPa)
#
#
# Indices 1 2 3 4 5 6 
#
# 1 131.4092 74.6741 39.5381 0.0000 0.0000 -0.0001
# 2 74.6741 131.4064 39.5372 0.0000 0.0000 0.0007
# 3 39.5381 39.5372 103.4187 0.0000 0.0000 -0.0004
# 4 0.0000 0.0000 0.0000 16.9002 -0.0001 0.0000
# 5 0.0000 0.0000 0.0000 -0.0001 16.9005 0.0000
# 6 -0.0001 0.0007 -0.0004 0.0000 0.0000 28.3684
#
#
#
# Elastic Compliance Matrix: (Units=1/GPa)
#
#
# Indices 1 2 3 4 5 6 
#
# 1 0.011656 -0.005970 -0.002174 0.000000 0.000000 0.000000
# 2 -0.005970 0.011657 -0.002174 0.000000 0.000000 0.000000
# 3 -0.002174 -0.002174 0.011332 0.000000 0.000000 0.000000
# 4 0.000000 0.000000 0.000000 0.059171 0.000000 0.000000
# 5 0.000000 0.000000 0.000000 0.000000 0.059170 0.000000
# 6 0.000000 0.000000 0.000000 0.000000 0.000000 0.035250
#
#
# Mechanical properties :
#
#
# Convention : Reuss Voigt Hill
#
# Bulk Modulus (GPa) = 71.38346 74.85923 73.12134
# Shear Modulus (GPa) = 23.41467 26.59947 25.00707
#
# Velocity S-wave (km/s) = 3.35973 3.58094 3.47210
# Velocity P-wave (km/s) = 7.03300 7.29286 7.16410
#
# Compressibility (1/GPa) = 0.01400885
#
# Stress axis : x y z
#
# Youngs Moduli (GPa) = 85.79042 85.78882 88.24781
#
# Poissons Ratio (x) = 0.51214 0.19186
# Poissons Ratio (y) = 0.51215 0.19185
# Poissons Ratio (z) = 0.18651 0.18651
#
# Static dielectric constant tensor:
#      x y z
#    x 3.833860 0.000000 0.000000 
#    y 0.000000 3.833870 0.000000 
#    z 0.000000 0.000000 3.780390 
# 
# 
# High freq. dielectric constant tensor:
#      x y z
#    x 1.815960 0.000000 0.000000 
#    y 0.000000 1.815960 0.000000 
#    z 0.000000 0.000000 1.799260 
# 
# From -- ./inp_files/1658.got.cif
#   From: 2010.03.12/outbox.cif.g09.slc.cpg/sg175_1_cif.got.tgz:1658.got - 2010.04.02 06:55:29.
