data_PCOD8325716
_publ_section_title
;
Structure prediction by ZEFSAII (Michael W. Deem and Ramdas Pophale) SiO2 
 PCOD8325716
Probable space group: P 63/M
;
_chemical_formula_sum "Si O2"
_cell_formula_units_Z 52
_cell_length_a 17.971099
_cell_length_b 17.971099
_cell_length_c 9.181404
_cell_angle_alpha 90.000000
_cell_angle_beta 90.000000
_cell_angle_gamma 120.000000
_cell_volume 2567.964423
_symmetry_space_group_name_H-M "P 63/M"
_symmetry_group_IT_number 176
_symmetry_cell_setting 'hexagonal'
loop_
_space_group_symop_operation_xyz
x,y,z
x-y,x,1/2+z
-y,x-y,z
-x,-y,1/2+z
-x+y,-x,z
y,-x+y,1/2+z
-x,-y,-z
-x+y,-x,1/2-z
y,-x+y,-z
x,y,1/2-z
x-y,x,-z
-y,x-y,1/2-z
loop_
_atom_site_type_symbol
_atom_site_label
_atom_site_fract_x
_atom_site_fract_y
_atom_site_fract_z
Si Si1 0.333335 0.666668 0.579342
Si Si2 0.812565 0.469540 0.913731
Si Si3 0.943216 0.413910 0.913980
Si Si4 0.653847 0.688009 0.081529
Si Si5 0.858320 0.028778 0.922738
O O1 0.333334 0.666668 0.750000
O O2 0.302503 0.731834 0.521633
O O3 0.782134 0.474046 0.750000
O O4 0.848894 0.402756 0.916039
O O5 0.880402 0.566034 0.966716
O O6 0.977407 0.422225 0.750000
O O7 0.000000 0.500000 0.000000
O O8 0.952154 0.337717 0.992030
O O9 0.648671 0.663514 0.250000
O O10 0.734112 0.780589 0.047633
O O11 0.875211 0.026361 0.750000
O O12 0.940157 0.103861 0.002212
#
# Coordination Sequence:
#
# PCOD8325716 Si02
#       5
#     4  12  12  12  12
#     4  12  25  35  49  78 112 152 199 243 280 320
#     4   9  19  37  56  77 112 156 193 230 282 340
#     4   9  17  31  55  83 112 148 189 233 283 333
#     4   9  20  38  61  88 115 146 189 236 284 340
#     4  11  24  43  65  90 119 150 186 230 285 349
#
# _framework density 20.249503000000001
#
# number of rings (size 3 to 8) (size 9 to 14) (size 15 to 20)
#    0.000    2.308    0.000    3.692    0.000    8.308 
#    0.000    6.923    0.000    0.000    0.000    0.000 
#    0.000    0.000    0.000    0.000    0.000    0.000 
#
# Total GULP energy -644472.315271 kJ/mol
# GULP energy per Si atom -12393.698371 kJ/mol
# Density = 2.020341 g / cm^3
# Si number density = 20.249503 Si / 1000 Ang^3
#
#
#
# Elastic Constant Matrix: (Units=GPa)
#
#
# Indices 1 2 3 4 5 6 
#
# 1 108.7718 58.4765 59.4455 0.0000 0.0000 0.0005
# 2 58.4765 108.7684 59.4438 0.0000 0.0000 -0.0003
# 3 59.4455 59.4438 128.1779 0.0000 0.0000 0.0002
# 4 0.0000 0.0000 0.0000 32.3964 0.0000 0.0000
# 5 0.0000 0.0000 0.0000 0.0000 32.3967 0.0000
# 6 0.0005 -0.0003 0.0002 0.0000 0.0000 25.1454
#
#
#
# Elastic Compliance Matrix: (Units=1/GPa)
#
#
# Indices 1 2 3 4 5 6 
#
# 1 0.014401 -0.005482 -0.004137 0.000000 0.000000 0.000000
# 2 -0.005482 0.014402 -0.004137 0.000000 0.000000 0.000000
# 3 -0.004137 -0.004137 0.011639 0.000000 0.000000 0.000000
# 4 0.000000 0.000000 0.000000 0.030868 0.000000 0.000000
# 5 0.000000 0.000000 0.000000 0.000000 0.030867 0.000000
# 6 0.000000 0.000000 0.000000 0.000000 0.000000 0.039769
#
#
# Mechanical properties :
#
#
# Convention : Reuss Voigt Hill
#
# Bulk Modulus (GPa) = 77.33123 77.82774 77.57949
# Shear Modulus (GPa) = 28.77431 29.21118 28.99274
#
# Velocity S-wave (km/s) = 3.77369 3.80223 3.78799
# Velocity P-wave (km/s) = 7.56702 7.60222 7.58464
#
# Compressibility (1/GPa) = 0.01293139
#
# Stress axis : x y z
#
# Youngs Moduli (GPa) = 69.43778 69.43624 85.92086
#
# Poissons Ratio (x) = 0.38063 0.35544
# Poissons Ratio (y) = 0.38064 0.35543
# Poissons Ratio (z) = 0.28725 0.28723
#
# Static dielectric constant tensor:
#      x y z
#    x 3.898110 0.000010 0.000000 
#    y 0.000010 3.898120 0.000000 
#    z 0.000000 0.000000 3.904090 
# 
# 
# High freq. dielectric constant tensor:
#      x y z
#    x 1.784930 0.000000 0.000000 
#    y 0.000000 1.784930 0.000000 
#    z 0.000000 0.000000 1.794790 
# 
# From -- ./inp_files/668.got.cif
#   From: 2010.06.25/outbox.cif.g09.slc.cpg/sg176_1_cif.got.tgz:668.got - 2010.06.28 12:15:01.
