data_PCOD8325215
_publ_section_title
;
Structure prediction by ZEFSAII (Michael W. Deem and Ramdas Pophale) SiO2 
 PCOD8325215
Probable space group: P 6/M
;
_chemical_formula_sum "Si O2"
_cell_formula_units_Z 46
_cell_length_a 14.031258
_cell_length_b 14.031258
_cell_length_c 12.579898
_cell_angle_alpha 90.000000
_cell_angle_beta 90.000000
_cell_angle_gamma 120.000000
_cell_volume 2144.869986
_symmetry_space_group_name_H-M "P 6/M"
_symmetry_group_IT_number 175
_symmetry_cell_setting 'hexagonal'
loop_
_space_group_symop_operation_xyz
x,y,z
x-y,x,z
-y,x-y,z
-x,-y,z
-x+y,-x,z
y,-x+y,z
-x,-y,-z
-x+y,-x,-z
y,-x+y,-z
x,y,-z
x-y,x,-z
-y,x-y,-z
loop_
_atom_site_type_symbol
_atom_site_label
_atom_site_fract_x
_atom_site_fract_y
_atom_site_fract_z
Si Si1 0.932512 0.752141 0.000000
Si Si2 0.545941 0.128560 0.268994
Si Si3 0.818563 0.067882 0.228419
Si Si4 0.434915 0.238903 0.622959
Si Si5 0.333335 0.666667 0.126013
O O1 0.854875 0.802950 0.000000
O O2 0.914817 0.687933 0.887435
O O3 0.448221 0.143904 0.317608
O O4 0.639311 0.177682 0.360745
O O5 0.596828 0.206033 0.165137
O O6 0.500000 0.000000 0.240854
O O7 0.755363 0.089942 0.322092
O O8 0.947190 0.148927 0.240805
O O9 0.410962 0.209766 0.500000
O O10 0.333334 0.666668 0.000000
#
# Coordination Sequence:
#
# PCOD8325215 Si02
#       5
#     6  12  12  12   4
#     4   8  15  30  52  76 106 146 192 232 267 320
#     4  10  22  41  63  87 117 157 202 249 306 362
#     4  10  20  35  56  84 118 156 194 235 286 347
#     4  11  23  39  61  88 117 152 201 253 297 349
#     4   9  21  42  64  92 124 153 198 253 305 370
#
# _framework density 21.446522000000002
#
# number of rings (size 3 to 8) (size 9 to 14) (size 15 to 20)
#    0.000    2.087    0.000    3.261    0.000    7.826 
#    9.391    0.000    0.000    1.565    0.000    0.000 
#    0.000    0.000    0.000    0.000    0.000    0.000 
#
# Total GULP energy -570009.267885 kJ/mol
# GULP energy per Si atom -12391.505824 kJ/mol
# Density = 2.139771 g / cm^3
# Si number density = 21.446522 Si / 1000 Ang^3
#
#
#
# Elastic Constant Matrix: (Units=GPa)
#
#
# Indices 1 2 3 4 5 6 
#
# 1 76.4280 3.1452 28.4960 0.0000 0.0000 0.0000
# 2 3.1452 76.4289 28.4959 0.0000 0.0000 0.0001
# 3 28.4960 28.4959 161.7736 0.0000 0.0000 -0.0002
# 4 0.0000 0.0000 0.0000 20.1925 -0.0001 0.0000
# 5 0.0000 0.0000 0.0000 -0.0001 20.1923 0.0000
# 6 0.0000 0.0001 -0.0002 0.0000 0.0000 36.6416
#
#
#
# Elastic Compliance Matrix: (Units=1/GPa)
#
#
# Indices 1 2 3 4 5 6 
#
# 1 0.014014 0.000368 -0.002533 0.000000 0.000000 0.000000
# 2 0.000368 0.014013 -0.002533 0.000000 0.000000 0.000000
# 3 -0.002533 -0.002533 0.007074 0.000000 0.000000 0.000000
# 4 0.000000 0.000000 0.000000 0.049523 0.000000 0.000000
# 5 0.000000 0.000000 0.000000 0.000000 0.049524 0.000000
# 6 0.000000 0.000000 0.000000 0.000000 0.000000 0.027291
#
#
# Mechanical properties :
#
#
# Convention : Reuss Voigt Hill
#
# Bulk Modulus (GPa) = 38.90503 48.32276 43.61390
# Shear Modulus (GPa) = 27.86996 32.37151 30.12073
#
# Velocity S-wave (km/s) = 3.60878 3.88932 3.75168
# Velocity P-wave (km/s) = 5.96190 6.53833 6.25676
#
# Compressibility (1/GPa) = 0.02570362
#
# Stress axis : x y z
#
# Youngs Moduli (GPa) = 71.35933 71.36027 141.36437
#
# Poissons Ratio (x) = -0.02625 0.35811
# Poissons Ratio (y) = -0.02625 0.35810
# Poissons Ratio (z) = 0.18077 0.18077
#
# Static dielectric constant tensor:
#      x y z
#    x 3.865070 0.000010 0.000000 
#    y 0.000010 3.865060 0.000000 
#    z 0.000000 0.000000 4.023450 
# 
# 
# High freq. dielectric constant tensor:
#      x y z
#    x 1.840270 0.000000 0.000000 
#    y 0.000000 1.840270 0.000000 
#    z 0.000000 0.000000 1.835470 
# 
# From -- ./inp_files/1636.got.cif
#   From: 2010.03.12/outbox.cif.g09.slc.cpg/sg175_1_cif.got.tgz:1636.got - 2010.04.02 06:55:29.
