data_PCOD8325358
_publ_section_title
;
Structure prediction by ZEFSAII (Michael W. Deem and Ramdas Pophale) SiO2 
 PCOD8325358
Probable space group: P 6/M
;
_chemical_formula_sum "Si O2"
_cell_formula_units_Z 72
_cell_length_a 20.218319
_cell_length_b 20.218319
_cell_length_c 11.935855
_cell_angle_alpha 90.000000
_cell_angle_beta 90.000000
_cell_angle_gamma 120.000000
_cell_volume 4225.462530
_symmetry_space_group_name_H-M "P 6/M"
_symmetry_group_IT_number 175
_symmetry_cell_setting 'hexagonal'
loop_
_space_group_symop_operation_xyz
x,y,z
x-y,x,z
-y,x-y,z
-x,-y,z
-x+y,-x,z
y,-x+y,z
-x,-y,-z
-x+y,-x,-z
y,-x+y,-z
x,y,-z
x-y,x,-z
-y,x-y,-z
loop_
_atom_site_type_symbol
_atom_site_label
_atom_site_fract_x
_atom_site_fract_y
_atom_site_fract_z
Si Si1 0.564973 0.909132 0.796267
Si Si2 0.172704 0.345407 0.136411
Si Si3 0.454928 0.909857 0.375869
Si Si4 0.662718 0.185121 0.000000
Si Si5 0.662717 0.477596 0.000000
Si Si6 0.909132 0.564974 0.203733
Si Si7 0.914992 0.829986 0.132673
O O1 0.620656 0.874049 0.800602
O O2 0.511033 0.885522 0.686110
O O3 0.614645 1.000000 0.811561
O O4 0.506389 0.871174 0.896185
O O5 0.125949 0.379342 0.199398
O O6 0.128694 0.257385 0.168128
O O7 0.179061 0.358123 0.000000
O O8 0.436340 0.872681 0.500000
O O9 0.374489 0.885522 0.313890
O O10 0.500000 0.000000 0.384426
O O11 0.614599 0.229198 0.000000
O O12 0.753055 0.246945 0.000000
O O13 0.635217 0.128827 0.103815
O O14 0.870672 0.870673 0.183603
O O15 0.918875 0.837750 0.000000
#
# Coordination Sequence:
#
# PCOD8325358 Si02
#       7
#    12  12  12   6   6  12  12
#     4  11  20  32  54  76 103 137 172 216 263 317
#     4  11  20  31  45  76 115 138 172 221 277 315
#     4   9  20  37  55  75  97 127 171 219 259 299
#     4  12  22  35  51  78 107 137 168 210 261 317
#     4  12  22  35  51  78 107 137 168 210 261 317
#     4  11  20  32  54  76 103 137 172 216 263 317
#     4   9  17  28  43  65 101 151 195 224 253 304
#
# _framework density 17.039556000000001
#
# number of rings (size 3 to 8) (size 9 to 14) (size 15 to 20)
#    0.000    1.500    5.000    1.833    0.000    2.667 
#    0.000    0.833    0.000    0.000    0.000    0.000 
#    0.000    0.000    0.000    1.000    0.000   30.833 
#
# Total GULP energy -892049.064060 kJ/mol
# GULP energy per Si atom -12389.570334 kJ/mol
# Density = 1.700077 g / cm^3
# Si number density = 17.039556 Si / 1000 Ang^3
#
#
#
# Elastic Constant Matrix: (Units=GPa)
#
#
# Indices 1 2 3 4 5 6 
#
# 1 138.3348 65.5470 48.5173 0.0000 0.0000 0.0000
# 2 65.5470 138.3348 48.5173 0.0000 0.0000 0.0000
# 3 48.5173 48.5173 107.5965 0.0000 0.0000 0.0000
# 4 0.0000 0.0000 0.0000 26.4674 0.0000 0.0000
# 5 0.0000 0.0000 0.0000 0.0000 26.4674 0.0000
# 6 0.0000 0.0000 0.0000 0.0000 0.0000 36.3939
#
#
#
# Elastic Compliance Matrix: (Units=1/GPa)
#
#
# Indices 1 2 3 4 5 6 
#
# 1 0.009992 -0.003747 -0.002816 0.000000 0.000000 0.000000
# 2 -0.003747 0.009992 -0.002816 0.000000 0.000000 0.000000
# 3 -0.002816 -0.002816 0.011834 0.000000 0.000000 0.000000
# 4 0.000000 0.000000 0.000000 0.037782 0.000000 0.000000
# 5 0.000000 0.000000 0.000000 0.000000 0.037782 0.000000
# 6 0.000000 0.000000 0.000000 0.000000 0.000000 0.027477
#
#
# Mechanical properties :
#
#
# Convention : Reuss Voigt Hill
#
# Bulk Modulus (GPa) = 76.57191 78.82547 77.69869
# Shear Modulus (GPa) = 31.65164 32.64472 32.14818
#
# Velocity S-wave (km/s) = 4.31459 4.38176 4.34830
# Velocity P-wave (km/s) = 8.35801 8.48295 8.42071
#
# Compressibility (1/GPa) = 0.01305962
#
# Stress axis : x y z
#
# Youngs Moduli (GPa) = 100.08212 100.08212 84.50547
#
# Poissons Ratio (x) = 0.37498 0.23797
# Poissons Ratio (y) = 0.37498 0.23797
# Poissons Ratio (z) = 0.28183 0.28183
#
# Static dielectric constant tensor:
#      x y z
#    x 3.290200 0.000000 0.000000 
#    y 0.000000 3.290200 0.000000 
#    z 0.000000 0.000000 3.446140 
# 
# 
# High freq. dielectric constant tensor:
#      x y z
#    x 1.669470 0.000000 0.000000 
#    y 0.000000 1.669470 0.000000 
#    z 0.000000 0.000000 1.610240 
# 
# From -- ./inp_files/1947.got.cif
#   From: 2010.03.12/outbox.cif.g09.slc.cpg/sg175_1_cif.got.tgz:1947.got - 2010.04.02 06:55:29.
