data_PCOD8325958
_publ_section_title
;
Structure prediction by ZEFSAII (Michael W. Deem and Ramdas Pophale) SiO2 
 PCOD8325958
Probable space group: P 61 2 2
;
_chemical_formula_sum "Si O2"
_cell_formula_units_Z 60
_cell_length_a 11.409014
_cell_length_b 11.409014
_cell_length_c 24.910865
_cell_angle_alpha 90.000000
_cell_angle_beta 90.000000
_cell_angle_gamma 120.000000
_cell_volume 2808.120021
_symmetry_space_group_name_H-M "P 61 2 2"
_symmetry_group_IT_number 178
_symmetry_cell_setting 'hexagonal'
loop_
_space_group_symop_operation_xyz
x,y,z
x-y,x,1/6+z
-y,x-y,1/3+z
-x,-y,1/2+z
-x+y,-x,2/3+z
y,-x+y,5/6+z
x-y,-y,-z
-x,-x+y,2/3-z
y,x,1/3-z
-y,-x,5/6-z
-x+y,y,1/2-z
x,x-y,1/6-z
loop_
_atom_site_type_symbol
_atom_site_label
_atom_site_fract_x
_atom_site_fract_y
_atom_site_fract_z
Si Si1 0.119368 0.378315 0.944204
Si Si2 0.332577 0.823186 0.870748
Si Si3 0.845094 0.242337 0.001202
Si Si4 0.580767 0.442830 0.637060
Si Si5 0.367035 0.890969 0.151168
O O1 0.130866 0.523529 0.931725
O O2 0.165605 0.330504 0.890972
O O3 0.216506 0.411407 0.994660
O O4 0.970818 0.263076 0.964248
O O5 0.219109 0.780892 0.916667
O O6 0.277852 0.696595 0.830508
O O7 0.355775 0.954720 0.839009
O O8 0.704989 0.149944 0.968669
O O9 0.864675 0.389421 0.016340
O O10 0.552007 0.552007 0.666667
O O11 0.631614 0.491678 0.577784
#
# Coordination Sequence:
#
# PCOD8325958 Si02
#       5
#    12  12  12  12  12
#     4  11  23  41  62  93 136 172 211 269 330 390
#     4  11  20  39  60  93 135 165 212 278 329 392
#     4  11  23  41  62  92 134 170 211 269 326 391
#     4  12  22  39  65  96 128 166 220 272 335 387
#     4  11  23  36  64  94 127 177 216 272 330 396
#
# _framework density 21.366609
#
# number of rings (size 3 to 8) (size 9 to 14) (size 15 to 20)
#    0.000    0.800    6.000    2.400    2.800    0.000 
#    0.000    0.000    0.000    3.600    0.000    0.000 
#    0.000    0.000    0.000    0.000    0.000    0.000 
#
# Total GULP energy -743712.812857 kJ/mol
# GULP energy per Si atom -12395.213548 kJ/mol
# Density = 2.131798 g / cm^3
# Si number density = 21.366609 Si / 1000 Ang^3
#
#
#
# Elastic Constant Matrix: (Units=GPa)
#
#
# Indices 1 2 3 4 5 6 
#
# 1 52.3203 -9.4449 9.0596 0.0000 0.0000 0.0000
# 2 -9.4449 52.3203 9.0596 0.0000 0.0000 0.0000
# 3 9.0596 9.0596 94.1784 0.0000 0.0000 0.0000
# 4 0.0000 0.0000 0.0000 27.5017 0.0000 0.0000
# 5 0.0000 0.0000 0.0000 0.0000 27.5017 0.0000
# 6 0.0000 0.0000 0.0000 0.0000 0.0000 30.8826
#
#
#
# Elastic Compliance Matrix: (Units=1/GPa)
#
#
# Indices 1 2 3 4 5 6 
#
# 1 0.020251 0.004061 -0.002339 0.000000 0.000000 0.000000
# 2 0.004061 0.020251 -0.002339 0.000000 0.000000 0.000000
# 3 -0.002339 -0.002339 0.011068 0.000000 0.000000 0.000000
# 4 0.000000 0.000000 0.000000 0.036361 0.000000 0.000000
# 5 0.000000 0.000000 0.000000 0.000000 0.036361 0.000000
# 6 0.000000 0.000000 0.000000 0.000000 0.000000 0.032381
#
#
# Mechanical properties :
#
#
# Convention : Reuss Voigt Hill
#
# Bulk Modulus (GPa) = 19.86618 24.01861 21.94240
# Shear Modulus (GPa) = 28.62278 29.85351 29.23814
#
# Velocity S-wave (km/s) = 3.66403 3.74197 3.70321
# Velocity P-wave (km/s) = 5.21710 5.47133 5.34572
#
# Compressibility (1/GPa) = 0.05033680
#
# Stress axis : x y z
#
# Youngs Moduli (GPa) = 49.38018 49.38018 90.34987
#
# Poissons Ratio (x) = -0.20052 0.21130
# Poissons Ratio (y) = -0.20052 0.21130
# Poissons Ratio (z) = 0.11548 0.11548
#
# Static dielectric constant tensor:
#      x y z
#    x 3.915650 0.000000 0.000000 
#    y 0.000000 3.915650 0.000000 
#    z 0.000000 0.000000 3.803640 
# 
# 
# High freq. dielectric constant tensor:
#      x y z
#    x 1.818180 0.000000 0.000000 
#    y 0.000000 1.818180 0.000000 
#    z 0.000000 0.000000 1.850280 
# 
# From -- ./inp_files/8769.got.cif
#   From: 2010.03.12/outbox.cif.g09.slc.cpg/sg178_5_cif.got.tgz:8769.got - 2010.04.02 07:02:38.
