data_PCOD8325544
_publ_section_title
;
Structure prediction by ZEFSAII (Michael W. Deem and Ramdas Pophale) SiO2 
 PCOD8325544
Probable space group: P 63/M
;
_chemical_formula_sum "Si O2"
_cell_formula_units_Z 66
_cell_length_a 21.446364
_cell_length_b 21.446364
_cell_length_c 8.364311
_cell_angle_alpha 90.000000
_cell_angle_beta 90.000000
_cell_angle_gamma 120.000000
_cell_volume 3331.717344
_symmetry_space_group_name_H-M "P 63/M"
_symmetry_group_IT_number 176
_symmetry_cell_setting 'hexagonal'
loop_
_space_group_symop_operation_xyz
x,y,z
x-y,x,1/2+z
-y,x-y,z
-x,-y,1/2+z
-x+y,-x,z
y,-x+y,1/2+z
-x,-y,-z
-x+y,-x,1/2-z
y,-x+y,-z
x,y,1/2-z
x-y,x,-z
-y,x-y,1/2-z
loop_
_atom_site_type_symbol
_atom_site_label
_atom_site_fract_x
_atom_site_fract_y
_atom_site_fract_z
Si Si1 0.169603 0.602879 0.568150
Si Si2 0.558178 0.662480 0.566455
Si Si3 0.953973 0.364971 0.071815
Si Si4 0.229954 0.287568 0.434210
Si Si5 0.406947 0.749267 0.250000
Si Si6 0.199990 0.897038 0.937235
O O1 0.201586 0.631717 0.750000
O O2 0.163895 0.525312 0.542082
O O3 0.091782 0.595150 0.553608
O O4 0.213252 0.654700 0.420046
O O5 0.573583 0.652647 0.750000
O O6 0.574328 0.609516 0.463525
O O7 0.612717 0.745738 0.514710
O O8 0.947968 0.335108 0.250000
O O9 0.925494 0.294734 0.959987
O O10 0.214624 0.272340 0.250000
O O11 0.254000 0.232326 0.508450
O O12 0.155444 0.274789 0.506323
O O13 0.324700 0.733622 0.250000
O O14 0.197694 0.902896 0.750000
#
# Coordination Sequence:
#
# PCOD8325544 Si02
#       6
#    12  12  12  12   6  12
#     4  10  22  39  61  84 114 154 194 247 308 350
#     4   9  19  35  55  85 119 150 185 237 294 347
#     4  10  20  33  55  87 116 151 188 232 294 351
#     4  10  21  36  56  84 117 152 186 236 287 335
#     4  10  26  44  56  80 102 146 208 246 288 352
#     4   9  19  36  56  82 116 149 187 231 283 343
#
# _framework density 19.809602999999999
#
# number of rings (size 3 to 8) (size 9 to 14) (size 15 to 20)
#    0.182    2.182    0.000    2.727    3.818    5.818 
#    0.000    3.636    0.000    0.364    0.000    0.000 
#    0.000    0.000    0.000    0.000    0.000    0.000 
#
# Total GULP energy -817665.222058 kJ/mol
# GULP energy per Si atom -12388.867001 kJ/mol
# Density = 1.976452 g / cm^3
# Si number density = 19.809603 Si / 1000 Ang^3
#
#
#
# Elastic Constant Matrix: (Units=GPa)
#
#
# Indices 1 2 3 4 5 6 
#
# 1 58.1680 7.0827 5.6403 0.0000 0.0000 0.0000
# 2 7.0827 58.1680 5.6403 0.0000 0.0000 0.0000
# 3 5.6403 5.6403 50.2009 0.0000 0.0000 0.0000
# 4 0.0000 0.0000 0.0000 27.1078 0.0000 0.0000
# 5 0.0000 0.0000 0.0000 0.0000 27.1078 0.0000
# 6 0.0000 0.0000 0.0000 0.0000 0.0000 25.5427
#
#
#
# Elastic Compliance Matrix: (Units=1/GPa)
#
#
# Indices 1 2 3 4 5 6 
#
# 1 0.017602 -0.001973 -0.001756 0.000000 0.000000 0.000000
# 2 -0.001973 0.017602 -0.001756 0.000000 0.000000 0.000000
# 3 -0.001756 -0.001756 0.020315 0.000000 0.000000 0.000000
# 4 0.000000 0.000000 0.000000 0.036890 0.000000 0.000000
# 5 0.000000 0.000000 0.000000 0.000000 0.036890 0.000000
# 6 0.000000 0.000000 0.000000 0.000000 0.000000 0.039150
#
#
# Mechanical properties :
#
#
# Convention : Reuss Voigt Hill
#
# Bulk Modulus (GPa) = 22.44735 22.58485 22.51610
# Shear Modulus (GPa) = 25.73764 25.82989 25.78377
#
# Velocity S-wave (km/s) = 3.60842 3.61488 3.61165
# Velocity P-wave (km/s) = 5.35883 5.37112 5.36498
#
# Compressibility (1/GPa) = 0.04454869
#
# Stress axis : x y z
#
# Youngs Moduli (GPa) = 56.81143 56.81143 49.22578
#
# Poissons Ratio (x) = 0.11209 0.08644
# Poissons Ratio (y) = 0.11209 0.08644
# Poissons Ratio (z) = 0.09976 0.09976
#
# Static dielectric constant tensor:
#      x y z
#    x 3.647660 0.000000 0.000000 
#    y 0.000000 3.647660 0.000000 
#    z 0.000000 0.000000 3.713520 
# 
# 
# High freq. dielectric constant tensor:
#      x y z
#    x 1.753990 0.000000 0.000000 
#    y 0.000000 1.753990 0.000000 
#    z 0.000000 0.000000 1.778680 
# 
# From -- ./inp_files/1043.got.cif
#   From: 2010.06.25/outbox.cif.g09.slc.cpg/sg176_1_cif.got.tgz:1043.got - 2010.06.28 12:15:01.
