data_PCOD8325417
_publ_section_title
;
Structure prediction by ZEFSAII (Michael W. Deem and Ramdas Pophale) SiO2 
 PCOD8325417
Probable space group: P 63/M
;
_chemical_formula_sum "Si O2"
_cell_formula_units_Z 96
_cell_length_a 17.036109
_cell_length_b 17.036109
_cell_length_c 22.196605
_cell_angle_alpha 90.000000
_cell_angle_beta 90.000000
_cell_angle_gamma 120.000000
_cell_volume 5579.021120
_symmetry_space_group_name_H-M "P 63/M"
_symmetry_group_IT_number 176
_symmetry_cell_setting 'hexagonal'
loop_
_space_group_symop_operation_xyz
x,y,z
x-y,x,1/2+z
-y,x-y,z
-x,-y,1/2+z
-x+y,-x,z
y,-x+y,1/2+z
-x,-y,-z
-x+y,-x,1/2-z
y,-x+y,-z
x,y,1/2-z
x-y,x,-z
-y,x-y,1/2-z
loop_
_atom_site_type_symbol
_atom_site_label
_atom_site_fract_x
_atom_site_fract_y
_atom_site_fract_z
Si Si1 0.768648 0.068989 0.820083
Si Si2 0.939815 0.248048 0.816260
Si Si3 0.990939 0.163191 0.991375
Si Si4 0.569531 0.602292 0.020050
Si Si5 0.077062 0.748396 0.583716
Si Si6 0.518172 0.189680 0.683005
Si Si7 0.661244 0.157171 0.869996
Si Si8 0.330863 0.250952 0.416032
O O1 0.769992 0.046389 0.750000
O O2 0.870329 0.146036 0.841909
O O3 0.699585 0.106050 0.829456
O O4 0.730839 0.976745 0.858095
O O5 0.972846 0.238457 0.750000
O O6 0.883898 0.298795 0.812132
O O7 0.028432 0.315952 0.853545
O O8 0.043325 0.226820 0.935340
O O9 0.948668 0.213441 0.026697
O O10 0.064827 0.152112 0.030887
O O11 0.646004 0.598749 0.062544
O O12 0.521850 0.645953 0.060491
O O13 0.500000 0.500000 0.000000
O O14 0.609714 0.667015 0.961694
O O15 0.186064 0.810967 0.594183
O O16 0.554440 0.230411 0.750000
O O17 0.534198 0.269119 0.635863
O O18 0.566163 0.136177 0.657649
#
# Coordination Sequence:
#
# PCOD8325417 Si02
#       8
#    12  12  12  12  12  12  12  12
#     4   9  17  31  48  69  97 127 157 191 233 287
#     4   9  18  30  47  69  95 126 156 190 237 285
#     4   9  16  26  42  64  90 119 150 185 224 269
#     4  10  21  35  51  69  94 129 165 207 257 305
#     4   9  19  31  47  69  89 120 160 197 238 283
#     4  10  18  29  47  73 103 132 160 196 241 300
#     4  10  19  30  47  72 101 132 163 195 242 297
#     4  10  19  32  48  67  93 121 160 205 239 288
#
# _framework density 17.207318999999998
#
# number of rings (size 3 to 8) (size 9 to 14) (size 15 to 20)
#    0.000    2.500    0.000    3.750    0.000    7.500 
#    0.000    0.000    0.000    1.000    0.000    0.000 
#    0.000    0.000    0.000    0.750    0.000    0.000 
#
# Total GULP energy -1189300.310246 kJ/mol
# GULP energy per Si atom -12388.544898 kJ/mol
# Density = 1.716815 g / cm^3
# Si number density = 17.207319 Si / 1000 Ang^3
#
#
#
# Elastic Constant Matrix: (Units=GPa)
#
#
# Indices 1 2 3 4 5 6 
#
# 1 72.8273 32.9903 35.9953 0.0000 0.0000 0.0000
# 2 32.9903 72.8273 35.9953 0.0000 0.0000 0.0000
# 3 35.9953 35.9953 89.8242 0.0000 0.0000 0.0000
# 4 0.0000 0.0000 0.0000 23.6325 0.0000 0.0000
# 5 0.0000 0.0000 0.0000 0.0000 23.6325 0.0000
# 6 0.0000 0.0000 0.0000 0.0000 0.0000 19.9185
#
#
#
# Elastic Compliance Matrix: (Units=1/GPa)
#
#
# Indices 1 2 3 4 5 6 
#
# 1 0.019047 -0.006055 -0.005206 0.000000 0.000000 0.000000
# 2 -0.006055 0.019047 -0.005206 0.000000 0.000000 0.000000
# 3 -0.005206 -0.005206 0.015306 0.000000 0.000000 0.000000
# 4 0.000000 0.000000 0.000000 0.042315 0.000000 0.000000
# 5 0.000000 0.000000 0.000000 0.000000 0.042315 0.000000
# 6 0.000000 0.000000 0.000000 0.000000 0.000000 0.050205
#
#
# Mechanical properties :
#
#
# Convention : Reuss Voigt Hill
#
# Bulk Modulus (GPa) = 48.86504 49.49341 49.17922
# Shear Modulus (GPa) = 21.93067 22.13655 22.03361
#
# Velocity S-wave (km/s) = 3.57388 3.59062 3.58226
# Velocity P-wave (km/s) = 6.74460 6.78347 6.76406
#
# Compressibility (1/GPa) = 0.02046453
#
# Stress axis : x y z
#
# Youngs Moduli (GPa) = 52.50090 52.50090 65.33558
#
# Poissons Ratio (x) = 0.31789 0.34016
# Poissons Ratio (y) = 0.31789 0.34016
# Poissons Ratio (z) = 0.27334 0.27334
#
# Static dielectric constant tensor:
#      x y z
#    x 3.332610 0.000000 0.000000 
#    y 0.000000 3.332610 0.000000 
#    z 0.000000 0.000000 3.219150 
# 
# 
# High freq. dielectric constant tensor:
#      x y z
#    x 1.653510 0.000000 0.000000 
#    y 0.000000 1.653510 0.000000 
#    z 0.000000 0.000000 1.653690 
# 
# From -- ./inp_files/3897.got.cif
#   From: 2010.06.25/outbox.cif.g09.slc.cpg/sg176_2_cif.got.tgz:3897.got - 2010.06.28 12:15:01.
