data_PCOD8325701
_publ_section_title
;
Structure prediction by ZEFSAII (Michael W. Deem and Ramdas Pophale) SiO2 
 PCOD8325701
Probable space group: P 63/M
;
_chemical_formula_sum "Si O2"
_cell_formula_units_Z 72
_cell_length_a 23.455304
_cell_length_b 23.455304
_cell_length_c 8.757682
_cell_angle_alpha 90.000000
_cell_angle_beta 90.000000
_cell_angle_gamma 120.000000
_cell_volume 4172.553707
_symmetry_space_group_name_H-M "P 63/M"
_symmetry_group_IT_number 176
_symmetry_cell_setting 'hexagonal'
loop_
_space_group_symop_operation_xyz
x,y,z
x-y,x,1/2+z
-y,x-y,z
-x,-y,1/2+z
-x+y,-x,z
y,-x+y,1/2+z
-x,-y,-z
-x+y,-x,1/2-z
y,-x+y,-z
x,y,1/2-z
x-y,x,-z
-y,x-y,1/2-z
loop_
_atom_site_type_symbol
_atom_site_label
_atom_site_fract_x
_atom_site_fract_y
_atom_site_fract_z
Si Si1 0.362304 0.082072 0.076932
Si Si2 0.073150 0.470560 0.923388
Si Si3 0.860802 0.145439 0.570782
Si Si4 0.358379 0.285519 0.924250
Si Si5 0.143540 0.064832 0.069108
Si Si6 0.411666 0.476087 0.926056
O O1 0.349456 0.096840 0.250000
O O2 0.440451 0.108047 0.050101
O O3 0.323430 0.004372 0.045113
O O4 0.337590 0.115894 0.956754
O O5 0.082731 0.457834 0.750000
O O6 0.105159 0.549633 0.957080
O O7 0.104773 0.433454 0.014680
O O8 0.996235 0.439335 0.958685
O O9 0.865522 0.132773 0.750000
O O10 0.786968 0.103974 0.502554
O O11 0.906847 0.126056 0.475557
O O12 0.366137 0.273530 0.750000
O O13 0.136933 0.071298 0.250000
O O14 0.114859 0.103737 0.977434
O O15 0.424859 0.462898 0.750000
#
# Coordination Sequence:
#
# PCOD8325701 Si02
#       6
#    12  12  12  12  12  12
#     4   9  17  31  48  65  92 129 161 193 241 292
#     4   9  15  24  43  68  90 116 152 185 215 263
#     4  11  22  35  51  73 100 131 167 205 250 305
#     4   9  19  33  46  63  94 129 156 192 242 289
#     4  12  25  42  61  79  98 124 164 215 270 323
#     4   8  15  27  42  63  93 123 147 178 222 267
#
# _framework density 17.25562
#
# number of rings (size 3 to 8) (size 9 to 14) (size 15 to 20)
#    0.000    2.333    0.000    4.667    0.000    6.000 
#    0.000    0.000    0.000    0.000    0.000    0.000 
#    1.667    0.000    1.000    0.000    1.333    0.000 
#
# Total GULP energy -892169.485624 kJ/mol
# GULP energy per Si atom -12391.242856 kJ/mol
# Density = 1.721635 g / cm^3
# Si number density = 17.255620 Si / 1000 Ang^3
#
#
#
# Elastic Constant Matrix: (Units=GPa)
#
#
# Indices 1 2 3 4 5 6 
#
# 1 66.1475 25.2257 17.9019 0.0000 0.0000 0.0000
# 2 25.2257 66.1475 17.9019 0.0000 0.0000 0.0000
# 3 17.9019 17.9019 46.4582 0.0000 0.0000 0.0000
# 4 0.0000 0.0000 0.0000 25.2976 0.0000 0.0000
# 5 0.0000 0.0000 0.0000 0.0000 25.2976 0.0000
# 6 0.0000 0.0000 0.0000 0.0000 0.0000 20.4609
#
#
#
# Elastic Compliance Matrix: (Units=1/GPa)
#
#
# Indices 1 2 3 4 5 6 
#
# 1 0.018664 -0.005773 -0.004967 0.000000 0.000000 0.000000
# 2 -0.005773 0.018664 -0.004967 0.000000 0.000000 0.000000
# 3 -0.004967 -0.004967 0.025353 0.000000 0.000000 0.000000
# 4 0.000000 0.000000 0.000000 0.039529 0.000000 0.000000
# 5 0.000000 0.000000 0.000000 0.000000 0.039529 0.000000
# 6 0.000000 0.000000 0.000000 0.000000 0.000000 0.048874
#
#
# Mechanical properties :
#
#
# Convention : Reuss Voigt Hill
#
# Bulk Modulus (GPa) = 31.98452 33.42358 32.70405
# Shear Modulus (GPa) = 21.51005 22.05944 21.78475
#
# Velocity S-wave (km/s) = 3.53449 3.57934 3.55698
# Velocity P-wave (km/s) = 5.93572 6.04102 5.98860
#
# Compressibility (1/GPa) = 0.03126513
#
# Stress axis : x y z
#
# Youngs Moduli (GPa) = 53.58004 53.58004 39.44344
#
# Poissons Ratio (x) = 0.30933 0.19592
# Poissons Ratio (y) = 0.30933 0.19592
# Poissons Ratio (z) = 0.26614 0.26614
#
# Static dielectric constant tensor:
#      x y z
#    x 3.307150 0.000000 0.000000 
#    y 0.000000 3.307150 0.000000 
#    z 0.000000 0.000000 3.224970 
# 
# 
# High freq. dielectric constant tensor:
#      x y z
#    x 1.647220 0.000000 0.000000 
#    y 0.000000 1.647220 0.000000 
#    z 0.000000 0.000000 1.670650 
# 
# From -- ./inp_files/1225.got.cif
#   From: 2010.06.25/outbox.cif.g09.slc.cpg/sg176_1_cif.got.tgz:1225.got - 2010.06.28 12:15:01.
