data_PCOD8325909
_publ_section_title
;
Structure prediction by ZEFSAII (Michael W. Deem and Ramdas Pophale) SiO2 
 PCOD8325909
Probable space group: P 61 2 2
;
_chemical_formula_sum "Si O2"
_cell_formula_units_Z 42
_cell_length_a 9.146901
_cell_length_b 9.146901
_cell_length_c 27.618960
_cell_angle_alpha 90.000000
_cell_angle_beta 90.000000
_cell_angle_gamma 120.000000
_cell_volume 2001.178876
_symmetry_space_group_name_H-M "P 61 2 2"
_symmetry_group_IT_number 178
_symmetry_cell_setting 'hexagonal'
loop_
_space_group_symop_operation_xyz
x,y,z
x-y,x,1/6+z
-y,x-y,1/3+z
-x,-y,1/2+z
-x+y,-x,2/3+z
y,-x+y,5/6+z
x-y,-y,-z
-x,-x+y,2/3-z
y,x,1/3-z
-y,-x,5/6-z
-x+y,y,1/2-z
x,x-y,1/6-z
loop_
_atom_site_type_symbol
_atom_site_label
_atom_site_fract_x
_atom_site_fract_y
_atom_site_fract_z
Si Si1 0.139344 0.187085 0.801989
Si Si2 0.417135 0.417135 0.166667
Si Si3 0.421927 0.531994 0.764007
Si Si4 0.057333 0.787682 0.967545
O O1 0.310653 0.364381 0.795757
O O2 0.056384 0.112767 0.750000
O O3 0.163394 0.048609 0.830486
O O4 0.000000 0.208020 0.833334
O O5 0.524595 0.515591 0.213500
O O6 0.397179 0.230315 0.162283
O O7 0.308919 0.617837 0.750000
O O8 0.587740 0.652125 0.794150
O O9 0.109751 0.890250 0.916667
#
# Coordination Sequence:
#
# PCOD8325909 Si02
#       4
#    12   6  12  12
#     4  11  24  42  67  99 135 179 231 281 343 414
#     4  10  22  44  66 100 136 182 220 292 338 418
#     4  10  25  41  67  98 138 173 229 283 348 398
#     4  10  22  45  72  98 134 181 231 281 347 419
#
# _framework density 20.987631
#
# number of rings (size 3 to 8) (size 9 to 14) (size 15 to 20)
#    0.000    1.714    1.429    0.857   16.000    0.000 
#    0.000    1.429    0.000    0.000    0.000    0.000 
#    0.000    0.000    0.000    0.000    0.000    0.000 
#
# Total GULP energy -520298.737988 kJ/mol
# GULP energy per Si atom -12388.065190 kJ/mol
# Density = 2.093986 g / cm^3
# Si number density = 20.987631 Si / 1000 Ang^3
#
#
#
# Elastic Constant Matrix: (Units=GPa)
#
#
# Indices 1 2 3 4 5 6 
#
# 1 120.9343 72.5714 56.5704 0.0000 0.0000 0.0000
# 2 72.5714 120.9343 56.5704 0.0000 0.0000 0.0000
# 3 56.5704 56.5704 138.7287 0.0000 0.0000 0.0000
# 4 0.0000 0.0000 0.0000 45.1843 0.0000 0.0000
# 5 0.0000 0.0000 0.0000 0.0000 45.1843 0.0000
# 6 0.0000 0.0000 0.0000 0.0000 0.0000 24.1814
#
#
#
# Elastic Compliance Matrix: (Units=1/GPa)
#
#
# Indices 1 2 3 4 5 6 
#
# 1 0.013731 -0.006946 -0.002767 0.000000 0.000000 0.000000
# 2 -0.006946 0.013731 -0.002767 0.000000 0.000000 0.000000
# 3 -0.002767 -0.002767 0.009465 0.000000 0.000000 0.000000
# 4 0.000000 0.000000 0.000000 0.022132 0.000000 0.000000
# 5 0.000000 0.000000 0.000000 0.000000 0.022132 0.000000
# 6 0.000000 0.000000 0.000000 0.000000 0.000000 0.041354
#
#
# Mechanical properties :
#
#
# Convention : Reuss Voigt Hill
#
# Bulk Modulus (GPa) = 83.55503 83.55795 83.55649
# Shear Modulus (GPa) = 33.00465 35.90235 34.45350
#
# Velocity S-wave (km/s) = 3.96987 4.14048 4.05607
# Velocity P-wave (km/s) = 7.80456 7.92196 7.86348
#
# Compressibility (1/GPa) = 0.01196816
#
# Stress axis : x y z
#
# Youngs Moduli (GPa) = 72.82605 72.82605 105.65262
#
# Poissons Ratio (x) = 0.50583 0.29234
# Poissons Ratio (y) = 0.50583 0.29234
# Poissons Ratio (z) = 0.20151 0.20151
#
# Static dielectric constant tensor:
#      x y z
#    x 3.892450 0.000000 0.000000 
#    y 0.000000 3.892450 0.000000 
#    z 0.000000 0.000000 4.075240 
# 
# 
# High freq. dielectric constant tensor:
#      x y z
#    x 1.819310 0.000000 0.000000 
#    y 0.000000 1.819310 0.000000 
#    z 0.000000 0.000000 1.836310 
# 
# From -- ./inp_files/9285.got.cif
#   From: 2010.03.12/outbox.cif.g09.slc.cpg/sg178_5_cif.got.tgz:9285.got - 2010.04.02 07:02:38.
