data_PCOD8325499
_publ_section_title
;
Structure prediction by ZEFSAII (Michael W. Deem and Ramdas Pophale) SiO2 
 PCOD8325499
Probable space group: P 63/M
;
_chemical_formula_sum "Si O2"
_cell_formula_units_Z 72
_cell_length_a 22.646435
_cell_length_b 22.646435
_cell_length_c 8.777515
_cell_angle_alpha 90.000000
_cell_angle_beta 90.000000
_cell_angle_gamma 120.000000
_cell_volume 3898.539172
_symmetry_space_group_name_H-M "P 63/M"
_symmetry_group_IT_number 176
_symmetry_cell_setting 'hexagonal'
loop_
_space_group_symop_operation_xyz
x,y,z
x-y,x,1/2+z
-y,x-y,z
-x,-y,1/2+z
-x+y,-x,z
y,-x+y,1/2+z
-x,-y,-z
-x+y,-x,1/2-z
y,-x+y,-z
x,y,1/2-z
x-y,x,-z
-y,x-y,1/2-z
loop_
_atom_site_type_symbol
_atom_site_label
_atom_site_fract_x
_atom_site_fract_y
_atom_site_fract_z
Si Si1 0.564790 0.781948 0.424948
Si Si2 0.629689 0.623306 0.074878
Si Si3 0.367315 0.867345 0.074024
Si Si4 0.135965 0.846620 0.929998
Si Si5 0.500965 0.130112 0.925081
Si Si6 0.003248 0.249283 0.929250
O O1 0.586187 0.780630 0.250000
O O2 0.529402 0.707075 0.502736
O O3 0.633582 0.833633 0.511951
O O4 0.507957 0.804278 0.436122
O O5 0.651984 0.642582 0.250000
O O6 0.553553 0.607558 0.044968
O O7 0.628495 0.554918 0.032294
O O8 0.682012 0.685316 0.971318
O O9 0.357160 0.847300 0.250000
O O10 0.424719 0.851331 0.009522
O O11 0.133348 0.842067 0.750000
O O12 0.181815 0.925090 0.984104
O O13 0.059321 0.816602 0.992397
O O14 0.492210 0.103759 0.750000
O O15 0.993919 0.238771 0.750000
#
# Coordination Sequence:
#
# PCOD8325499 Si02
#       6
#    12  12  12  12  12  12
#     4  10  19  34  55  77 109 150 190 239 290 335
#     4  11  20  32  54  80 110 145 183 230 284 336
#     4   9  19  34  50  75 108 145 188 233 282 335
#     4  11  23  38  60  89 118 148 187 230 277 339
#     4  10  20  34  52  75 107 146 191 234 281 340
#     4  11  23  38  59  88 119 150 185 227 279 339
#
# _framework density 18.468454999999999
#
# number of rings (size 3 to 8) (size 9 to 14) (size 15 to 20)
#    0.000    1.667    3.333    2.000    0.000    2.000 
#    1.000    1.667    0.000    0.333    0.000    0.000 
#    0.000    0.000    0.000    0.000    0.000    0.000 
#
# Total GULP energy -892793.527353 kJ/mol
# GULP energy per Si atom -12399.910102 kJ/mol
# Density = 1.842642 g / cm^3
# Si number density = 18.468455 Si / 1000 Ang^3
#
#
#
# Elastic Constant Matrix: (Units=GPa)
#
#
# Indices 1 2 3 4 5 6 
#
# 1 108.2867 45.1186 25.1081 0.0000 0.0000 0.0000
# 2 45.1186 108.2867 25.1081 0.0000 0.0000 0.0000
# 3 25.1081 25.1081 35.9500 0.0000 0.0000 0.0000
# 4 0.0000 0.0000 0.0000 19.2600 0.0000 0.0000
# 5 0.0000 0.0000 0.0000 0.0000 19.2600 0.0000
# 6 0.0000 0.0000 0.0000 0.0000 0.0000 31.5841
#
#
#
# Elastic Compliance Matrix: (Units=1/GPa)
#
#
# Indices 1 2 3 4 5 6 
#
# 1 0.012141 -0.003690 -0.005902 0.000000 0.000000 0.000000
# 2 -0.003690 0.012141 -0.005902 0.000000 0.000000 0.000000
# 3 -0.005902 -0.005902 0.036061 0.000000 0.000000 0.000000
# 4 0.000000 0.000000 0.000000 0.051921 0.000000 0.000000
# 5 0.000000 0.000000 0.000000 0.000000 0.051921 0.000000
# 6 0.000000 0.000000 0.000000 0.000000 0.000000 0.031662
#
#
# Mechanical properties :
#
#
# Convention : Reuss Voigt Hill
#
# Bulk Modulus (GPa) = 34.06734 49.24369 41.65551
# Shear Modulus (GPa) = 21.13102 24.50005 22.81553
#
# Velocity S-wave (km/s) = 3.38623 3.64619 3.51861
# Velocity P-wave (km/s) = 5.81162 6.66692 6.25391
#
# Compressibility (1/GPa) = 0.02935363
#
# Stress axis : x y z
#
# Youngs Moduli (GPa) = 82.36733 82.36733 27.73101
#
# Poissons Ratio (x) = 0.30394 0.16367
# Poissons Ratio (y) = 0.30394 0.16367
# Poissons Ratio (z) = 0.48614 0.48614
#
# Static dielectric constant tensor:
#      x y z
#    x 3.612580 0.000000 0.000000 
#    y 0.000000 3.612580 0.000000 
#    z 0.000000 0.000000 3.284140 
# 
# 
# High freq. dielectric constant tensor:
#      x y z
#    x 1.716220 0.000000 0.000000 
#    y 0.000000 1.716220 0.000000 
#    z 0.000000 0.000000 1.701840 
# 
# From -- ./inp_files/1184.got.cif
#   From: 2010.06.25/outbox.cif.g09.slc.cpg/sg176_1_cif.got.tgz:1184.got - 2010.06.28 12:15:01.
