data_PCOD8325286
_publ_section_title
;
Structure prediction by ZEFSAII (Michael W. Deem and Ramdas Pophale) SiO2 
 PCOD8325286
Probable space group: P 6/M
;
_chemical_formula_sum "Si O2"
_cell_formula_units_Z 48
_cell_length_a 13.962474
_cell_length_b 13.962474
_cell_length_c 13.652863
_cell_angle_alpha 90.000000
_cell_angle_beta 90.000000
_cell_angle_gamma 120.000000
_cell_volume 2305.043464
_symmetry_space_group_name_H-M "P 6/M"
_symmetry_group_IT_number 175
_symmetry_cell_setting 'hexagonal'
loop_
_space_group_symop_operation_xyz
x,y,z
x-y,x,z
-y,x-y,z
-x,-y,z
-x+y,-x,z
y,-x+y,z
-x,-y,-z
-x+y,-x,-z
y,-x+y,-z
x,y,-z
x-y,x,-z
-y,x-y,-z
loop_
_atom_site_type_symbol
_atom_site_label
_atom_site_fract_x
_atom_site_fract_y
_atom_site_fract_z
Si Si1 0.980717 0.782531 0.613002
Si Si2 0.663076 0.112595 0.885760
Si Si3 0.629465 0.562348 0.392252
Si Si4 0.330136 0.461779 0.185647
O O1 0.876025 0.781090 0.663950
O O2 0.979163 0.810638 0.500000
O O3 0.975202 0.665858 0.624755
O O4 0.576820 0.154166 0.861087
O O5 0.786050 0.209591 0.858076
O O6 0.631738 0.997266 0.831647
O O7 0.657831 0.087835 0.000000
O O8 0.500000 0.500000 0.388678
O O9 0.672199 0.547051 0.500000
O O10 0.675389 0.520872 0.303223
#
# Coordination Sequence:
#
# PCOD8325286 Si02
#       4
#    12  12  12  12
#     4   9  18  32  55  83 115 155 201 248 296 347
#     4  11  22  41  66  92 122 153 204 266 326 372
#     4  10  21  38  57  84 124 170 207 248 295 365
#     4  11  23  40  63  96 120 163 207 260 318 383
#
# _framework density 20.823903999999999
#
# number of rings (size 3 to 8) (size 9 to 14) (size 15 to 20)
#    0.000    1.750    2.500    3.750    3.500    1.000 
#    0.000    1.250    0.000    1.500    0.000    8.750 
#    0.000    0.000    0.000    0.000    0.000    0.000 
#
# Total GULP energy -594800.766805 kJ/mol
# GULP energy per Si atom -12391.682642 kJ/mol
# Density = 2.077651 g / cm^3
# Si number density = 20.823904 Si / 1000 Ang^3
#
#
#
# Elastic Constant Matrix: (Units=GPa)
#
#
# Indices 1 2 3 4 5 6 
#
# 1 122.4092 65.7737 16.9145 0.0000 0.0000 0.0000
# 2 65.7737 122.4092 16.9145 0.0000 0.0000 0.0000
# 3 16.9145 16.9145 138.0955 0.0000 0.0000 0.0000
# 4 0.0000 0.0000 0.0000 18.3250 0.0000 0.0000
# 5 0.0000 0.0000 0.0000 0.0000 18.3250 0.0000
# 6 0.0000 0.0000 0.0000 0.0000 0.0000 28.3178
#
#
#
# Elastic Compliance Matrix: (Units=1/GPa)
#
#
# Indices 1 2 3 4 5 6 
#
# 1 0.011545 -0.006112 -0.000666 0.000000 0.000000 0.000000
# 2 -0.006112 0.011545 -0.000666 0.000000 0.000000 0.000000
# 3 -0.000666 -0.000666 0.007404 0.000000 0.000000 0.000000
# 4 0.000000 0.000000 0.000000 0.054570 0.000000 0.000000
# 5 0.000000 0.000000 0.000000 0.000000 0.054570 0.000000
# 6 0.000000 0.000000 0.000000 0.000000 0.000000 0.035313
#
#
# Mechanical properties :
#
#
# Convention : Reuss Voigt Hill
#
# Bulk Modulus (GPa) = 64.06350 64.67992 64.37171
# Shear Modulus (GPa) = 25.63617 31.88099 28.75858
#
# Velocity S-wave (km/s) = 3.51250 3.91702 3.72026
# Velocity P-wave (km/s) = 6.87615 7.18229 7.03088
#
# Compressibility (1/GPa) = 0.01560951
#
# Stress axis : x y z
#
# Youngs Moduli (GPa) = 86.61621 86.61621 135.05482
#
# Poissons Ratio (x) = 0.52936 0.08988
# Poissons Ratio (y) = 0.52936 0.08988
# Poissons Ratio (z) = 0.05765 0.05765
#
# Static dielectric constant tensor:
#      x y z
#    x 4.574080 0.000000 0.000000 
#    y 0.000000 4.574080 0.000000 
#    z 0.000000 0.000000 4.159060 
# 
# 
# High freq. dielectric constant tensor:
#      x y z
#    x 1.804880 0.000000 0.000000 
#    y 0.000000 1.804880 0.000000 
#    z 0.000000 0.000000 1.812840 
# 
# From -- ./inp_files/2267.got.cif
#   From: 2010.03.12/outbox.cif.g09.slc.cpg/sg175_2_cif.got.tgz:2267.got - 2010.04.02 06:55:29.
