data_PCOD8325547
_publ_section_title
;
Structure prediction by ZEFSAII (Michael W. Deem and Ramdas Pophale) SiO2 
 PCOD8325547
Probable space group: P 63/M
;
_chemical_formula_sum "Si O2"
_cell_formula_units_Z 68
_cell_length_a 18.721582
_cell_length_b 18.721582
_cell_length_c 12.908645
_cell_angle_alpha 90.000000
_cell_angle_beta 90.000000
_cell_angle_gamma 120.000000
_cell_volume 3918.288216
_symmetry_space_group_name_H-M "P 63/M"
_symmetry_group_IT_number 176
_symmetry_cell_setting 'hexagonal'
loop_
_space_group_symop_operation_xyz
x,y,z
x-y,x,1/2+z
-y,x-y,z
-x,-y,1/2+z
-x+y,-x,z
y,-x+y,1/2+z
-x,-y,-z
-x+y,-x,1/2-z
y,-x+y,-z
x,y,1/2-z
x-y,x,-z
-y,x-y,1/2-z
loop_
_atom_site_type_symbol
_atom_site_label
_atom_site_fract_x
_atom_site_fract_y
_atom_site_fract_z
Si Si1 0.410806 0.306633 0.369392
Si Si2 0.253606 0.003566 0.504624
Si Si3 0.333334 0.666668 0.625559
Si Si4 0.588067 0.436121 0.127763
Si Si5 0.000000 0.000000 0.870589
Si Si6 0.263190 0.397145 0.869365
Si Si7 0.186323 0.096542 0.627488
O O1 0.387981 0.311347 0.250000
O O2 0.339023 0.298217 0.443211
O O3 0.491812 0.392646 0.403991
O O4 0.428230 0.230863 0.383167
O O5 0.183394 0.940276 0.427586
O O6 0.317376 0.082249 0.439016
O O7 0.215279 0.032172 0.595758
O O8 0.333334 0.666668 0.750000
O O9 0.242109 0.625793 0.578362
O O10 0.594511 0.431880 0.250000
O O11 0.645550 0.531453 0.093395
O O12 0.939074 0.031299 0.910438
O O13 0.000000 0.000000 0.750000
O O14 0.265324 0.373066 0.750000
O O15 0.195468 0.109365 0.750000
#
# Coordination Sequence:
#
# PCOD8325547 Si02
#       7
#    12  12   4  12   4  12  12
#     4  10  20  34  53  78 107 135 170 217 267 316
#     4  12  22  36  52  74 108 146 176 216 264 322
#     4   9  12  21  45  72  99 123 151 188 244 303
#     4   9  16  29  52  79 103 130 162 206 260 312
#     4   9  21  37  53  73  97 131 187 238 266 301
#     4  10  20  34  53  78 107 135 170 217 267 316
#     4  11  23  38  55  76 104 144 189 230 274 320
#
# _framework density 17.354517999999999
#
# number of rings (size 3 to 8) (size 9 to 14) (size 15 to 20)
#    0.000    1.765    3.529    2.118    0.000    1.412 
#    0.000    0.000    0.000    0.000    0.000    0.000 
#    0.000    0.000    0.000    0.000    0.000    0.000 
#
# Total GULP energy -842990.973727 kJ/mol
# GULP energy per Si atom -12396.926084 kJ/mol
# Density = 1.731502 g / cm^3
# Si number density = 17.354518 Si / 1000 Ang^3
#
#
#
# Elastic Constant Matrix: (Units=GPa)
#
#
# Indices 1 2 3 4 5 6 
#
# 1 67.2329 4.7585 18.2386 0.0000 0.0000 0.0002
# 2 4.7585 67.2337 18.2386 0.0000 0.0000 0.0002
# 3 18.2386 18.2386 62.2466 0.0000 0.0000 0.0001
# 4 0.0000 0.0000 0.0000 20.9018 0.0001 0.0000
# 5 0.0000 0.0000 0.0000 0.0001 20.9018 0.0000
# 6 0.0002 0.0002 0.0001 0.0000 0.0000 31.2372
#
#
#
# Elastic Compliance Matrix: (Units=1/GPa)
#
#
# Indices 1 2 3 4 5 6 
#
# 1 0.016159 0.000153 -0.004780 0.000000 0.000000 0.000000
# 2 0.000153 0.016159 -0.004780 0.000000 0.000000 0.000000
# 3 -0.004780 -0.004780 0.018866 0.000000 0.000000 0.000000
# 4 0.000000 0.000000 0.000000 0.047843 0.000000 0.000000
# 5 0.000000 0.000000 0.000000 0.000000 0.047843 0.000000
# 6 0.000000 0.000000 0.000000 0.000000 0.000000 0.032013
#
#
# Mechanical properties :
#
#
# Convention : Reuss Voigt Hill
#
# Bulk Modulus (GPa) = 30.89074 31.02052 30.95563
# Shear Modulus (GPa) = 23.98236 24.97333 24.47784
#
# Velocity S-wave (km/s) = 3.72144 3.79754 3.75968
# Velocity P-wave (km/s) = 6.02527 6.09441 6.05994
#
# Compressibility (1/GPa) = 0.03237216
#
# Stress axis : x y z
#
# Youngs Moduli (GPa) = 61.88341 61.88412 53.00536
#
# Poissons Ratio (x) = -0.00946 0.25334
# Poissons Ratio (y) = -0.00946 0.25334
# Poissons Ratio (z) = 0.29578 0.29578
#
# Static dielectric constant tensor:
#      x y z
#    x 3.342140 0.000000 0.000000 
#    y 0.000000 3.342130 0.000000 
#    z 0.000000 0.000000 2.964010 
# 
# 
# High freq. dielectric constant tensor:
#      x y z
#    x 1.672610 0.000000 0.000000 
#    y 0.000000 1.672610 0.000000 
#    z 0.000000 0.000000 1.641060 
# 
# From -- ./inp_files/2832.got.cif
#   From: 2010.06.25/outbox.cif.g09.slc.cpg/sg176_2_cif.got.tgz:2832.got - 2010.06.28 12:15:01.
