data_PCOD8325434
_publ_section_title
;
Structure prediction by ZEFSAII (Michael W. Deem and Ramdas Pophale) SiO2 
 PCOD8325434
Probable space group: P 63/M
;
_chemical_formula_sum "Si O2"
_cell_formula_units_Z 40
_cell_length_a 16.155424
_cell_length_b 16.155424
_cell_length_c 9.188583
_cell_angle_alpha 90.000000
_cell_angle_beta 90.000000
_cell_angle_gamma 120.000000
_cell_volume 2076.901479
_symmetry_space_group_name_H-M "P 63/M"
_symmetry_group_IT_number 176
_symmetry_cell_setting 'hexagonal'
loop_
_space_group_symop_operation_xyz
x,y,z
x-y,x,1/2+z
-y,x-y,z
-x,-y,1/2+z
-x+y,-x,z
y,-x+y,1/2+z
-x,-y,-z
-x+y,-x,1/2-z
y,-x+y,-z
x,y,1/2-z
x-y,x,-z
-y,x-y,1/2-z
loop_
_atom_site_type_symbol
_atom_site_label
_atom_site_fract_x
_atom_site_fract_y
_atom_site_fract_z
Si Si1 0.666668 0.333334 0.920489
Si Si2 0.870483 0.615413 0.583386
Si Si3 0.375840 0.080490 0.417102
Si Si4 0.873040 0.427312 0.920821
O O1 0.666667 0.333334 0.750000
O O2 0.766754 0.342075 0.966332
O O3 0.834530 0.600047 0.750000
O O4 0.800037 0.637973 0.492074
O O5 0.874635 0.522948 0.527792
O O6 0.979686 0.703314 0.568952
O O7 0.403495 0.108358 0.250000
O O8 0.458237 0.061637 0.487477
O O9 0.897451 0.431516 0.750000
#
# Coordination Sequence:
#
# PCOD8325434 Si02
#       4
#     4  12  12  12
#     4   9  15  27  52  77 103 153 190 200 247 318
#     4  10  22  39  57  79 111 149 183 221 278 334
#     4  11  23  36  55  85 112 139 185 234 270 319
#     4  10  18  34  56  77 110 153 187 215 263 324
#
# _framework density 19.259457999999999
#
# number of rings (size 3 to 8) (size 9 to 14) (size 15 to 20)
#    0.000    1.800    3.000    1.800    0.000    3.600 
#    0.000    0.000    0.000    0.600    0.000    0.000 
#    0.000    0.000    0.000    0.000    0.000    0.000 
#
# Total GULP energy -495650.959748 kJ/mol
# GULP energy per Si atom -12391.273994 kJ/mol
# Density = 1.921562 g / cm^3
# Si number density = 19.259458 Si / 1000 Ang^3
#
#
#
# Elastic Constant Matrix: (Units=GPa)
#
#
# Indices 1 2 3 4 5 6 
#
# 1 81.5242 35.9117 46.3515 0.0000 0.0000 0.0002
# 2 35.9117 81.5226 46.3510 0.0000 0.0000 0.0004
# 3 46.3515 46.3510 90.2370 0.0000 0.0000 0.0001
# 4 0.0000 0.0000 0.0000 26.4711 0.0001 0.0000
# 5 0.0000 0.0000 0.0000 0.0001 26.4715 0.0000
# 6 0.0002 0.0004 0.0001 0.0000 0.0000 22.8041
#
#
#
# Elastic Compliance Matrix: (Units=1/GPa)
#
#
# Indices 1 2 3 4 5 6 
#
# 1 0.018123 -0.003801 -0.007357 0.000000 0.000000 0.000000
# 2 -0.003801 0.018124 -0.007357 0.000000 0.000000 0.000000
# 3 -0.007357 -0.007357 0.018640 0.000000 0.000000 0.000000
# 4 0.000000 0.000000 0.000000 0.037777 0.000000 0.000000
# 5 0.000000 0.000000 0.000000 0.000000 0.037777 0.000000
# 6 0.000000 0.000000 0.000000 0.000000 0.000000 0.043852
#
#
# Mechanical properties :
#
#
# Convention : Reuss Voigt Hill
#
# Bulk Modulus (GPa) = 55.99895 56.72356 56.36126
# Shear Modulus (GPa) = 23.01229 23.46064 23.23646
#
# Velocity S-wave (km/s) = 3.46042 3.49397 3.47723
# Velocity P-wave (km/s) = 6.71604 6.76708 6.74161
#
# Compressibility (1/GPa) = 0.01785748
#
# Stress axis : x y z
#
# Youngs Moduli (GPa) = 55.17701 55.17607 53.64757
#
# Poissons Ratio (x) = 0.20970 0.39470
# Poissons Ratio (y) = 0.20970 0.39470
# Poissons Ratio (z) = 0.40595 0.40594
#
# Static dielectric constant tensor:
#      x y z
#    x 3.001970 -0.000020 0.000000 
#    y -0.000020 3.001810 0.000000 
#    z 0.000000 0.000000 3.311590 
# 
# 
# High freq. dielectric constant tensor:
#      x y z
#    x 1.745530 0.000000 0.000000 
#    y 0.000000 1.745540 0.000000 
#    z 0.000000 0.000000 1.731970 
# 
# From -- ./inp_files/475.got.cif
#   From: 2010.06.25/outbox.cif.g09.slc.cpg/sg176_1_cif.got.tgz:475.got - 2010.06.28 12:15:01.
