data_PCOD8325114
_publ_section_title
;
Structure prediction by ZEFSAII (Michael W. Deem and Ramdas Pophale) SiO2 
 PCOD8325114
Probable space group: P 6/M
;
_chemical_formula_sum "Si O2"
_cell_formula_units_Z 66
_cell_length_a 11.633986
_cell_length_b 11.633986
_cell_length_c 28.416617
_cell_angle_alpha 90.000000
_cell_angle_beta 90.000000
_cell_angle_gamma 120.000000
_cell_volume 3330.888378
_symmetry_space_group_name_H-M "P 6/M"
_symmetry_group_IT_number 175
_symmetry_cell_setting 'hexagonal'
loop_
_space_group_symop_operation_xyz
x,y,z
x-y,x,z
-y,x-y,z
-x,-y,z
-x+y,-x,z
y,-x+y,z
-x,-y,-z
-x+y,-x,-z
y,-x+y,-z
x,y,-z
x-y,x,-z
-y,x-y,-z
loop_
_atom_site_type_symbol
_atom_site_label
_atom_site_fract_x
_atom_site_fract_y
_atom_site_fract_z
Si Si1 0.788303 0.692717 0.348288
Si Si2 0.699200 0.906843 0.078629
Si Si3 0.206922 0.301343 0.813283
Si Si4 0.692738 0.491505 0.000000
Si Si5 0.791119 0.696837 0.549645
Si Si6 0.797797 0.305359 0.265681
O O1 0.755194 0.809919 0.341094
O O2 0.739202 0.621523 0.400201
O O3 0.706574 0.578672 0.310930
O O4 0.758569 0.812846 0.066420
O O5 0.653633 0.892342 0.132661
O O6 0.572025 0.869340 0.046867
O O7 0.241348 0.188026 0.800943
O O8 0.295599 0.429858 0.781957
O O9 0.548852 0.357243 0.000000
O O10 0.762869 0.815951 0.549287
O O11 0.732926 0.612623 0.500000
O O12 0.808809 0.450052 0.266484
#
# Coordination Sequence:
#
# PCOD8325114 Si02
#       6
#    12  12  12   6  12  12
#     4  10  19  32  54  81 107 135 170 219 274 322
#     4  10  21  38  62  89 114 142 177 223 278 328
#     4  10  21  38  62  89 113 136 169 222 282 332
#     4  10  24  40  54  80 120 156 196 228 258 300
#     4   8  13  22  40  70 105 134 160 199 260 328
#     4  10  24  40  52  73 105 145 191 219 254 309
#
# _framework density 19.814533999999998
#
# number of rings (size 3 to 8) (size 9 to 14) (size 15 to 20)
#    0.545    1.818    0.000    2.364    0.000    9.455 
#    0.000    6.364    0.000    1.091    0.000    5.091 
#    0.000    0.000    0.000    0.000    0.000    0.000 
#
# Total GULP energy -817753.072068 kJ/mol
# GULP energy per Si atom -12390.198062 kJ/mol
# Density = 1.976944 g / cm^3
# Si number density = 19.814534 Si / 1000 Ang^3
#
#
#
# Elastic Constant Matrix: (Units=GPa)
#
#
# Indices 1 2 3 4 5 6 
#
# 1 42.9223 -22.2601 17.4563 0.0000 0.0000 0.0000
# 2 -22.2601 42.9223 17.4563 0.0000 0.0000 0.0000
# 3 17.4563 17.4563 121.3462 0.0000 0.0000 0.0000
# 4 0.0000 0.0000 0.0000 4.7533 0.0000 0.0000
# 5 0.0000 0.0000 0.0000 0.0000 4.7533 0.0000
# 6 0.0000 0.0000 0.0000 0.0000 0.0000 32.5912
#
#
#
# Elastic Compliance Matrix: (Units=1/GPa)
#
#
# Indices 1 2 3 4 5 6 
#
# 1 0.039640 0.024299 -0.009198 0.000000 0.000000 0.000000
# 2 0.024299 0.039640 -0.009198 0.000000 0.000000 0.000000
# 3 -0.009198 -0.009198 0.010887 0.000000 0.000000 0.000000
# 4 0.000000 0.000000 0.000000 0.210382 0.000000 0.000000
# 5 0.000000 0.000000 0.000000 0.000000 0.210382 0.000000
# 6 0.000000 0.000000 0.000000 0.000000 0.000000 0.030683
#
#
# Mechanical properties :
#
#
# Convention : Reuss Voigt Hill
#
# Bulk Modulus (GPa) = 9.80648 25.83287 17.81968
# Shear Modulus (GPa) = 8.86838 21.38876 15.12857
#
# Velocity S-wave (km/s) = 2.11788 3.28906 2.76616
# Velocity P-wave (km/s) = 3.30763 5.24305 4.38349
#
# Compressibility (1/GPa) = 0.10197334
#
# Stress axis : x y z
#
# Youngs Moduli (GPa) = 25.22687 25.22687 91.85067
#
# Poissons Ratio (x) = -0.61298 0.84484
# Poissons Ratio (y) = -0.61298 0.84484
# Poissons Ratio (z) = 0.23204 0.23204
#
# Static dielectric constant tensor:
#      x y z
#    x 3.357150 0.000000 0.000000 
#    y 0.000000 3.357150 0.000000 
#    z 0.000000 0.000000 4.153020 
# 
# 
# High freq. dielectric constant tensor:
#      x y z
#    x 1.752960 0.000000 0.000000 
#    y 0.000000 1.752960 0.000000 
#    z 0.000000 0.000000 1.798840 
# 
# From -- ./inp_files/3359.got.cif
#   From: 2010.03.12/outbox.cif.g09.slc.cpg/sg175_2_cif.got.tgz:3359.got - 2010.04.02 06:55:29.
