data_PCOD8325494
_publ_section_title
;
Structure prediction by ZEFSAII (Michael W. Deem and Ramdas Pophale) SiO2 
 PCOD8325494
Probable space group: P 63/M
;
_chemical_formula_sum "Si O2"
_cell_formula_units_Z 72
_cell_length_a 22.559276
_cell_length_b 22.559276
_cell_length_c 8.951791
_cell_angle_alpha 90.000000
_cell_angle_beta 90.000000
_cell_angle_gamma 120.000000
_cell_volume 3945.398553
_symmetry_space_group_name_H-M "P 63/M"
_symmetry_group_IT_number 176
_symmetry_cell_setting 'hexagonal'
loop_
_space_group_symop_operation_xyz
x,y,z
x-y,x,1/2+z
-y,x-y,z
-x,-y,1/2+z
-x+y,-x,z
y,-x+y,1/2+z
-x,-y,-z
-x+y,-x,1/2-z
y,-x+y,-z
x,y,1/2-z
x-y,x,-z
-y,x-y,1/2-z
loop_
_atom_site_type_symbol
_atom_site_label
_atom_site_fract_x
_atom_site_fract_y
_atom_site_fract_z
Si Si1 0.598677 0.919512 0.924263
Si Si2 0.276811 0.078823 0.576840
Si Si3 0.922293 0.727632 0.077310
Si Si4 0.681850 0.075621 0.923607
Si Si5 0.201986 0.534629 0.073945
Si Si6 0.665778 0.468350 0.928028
O O1 0.590523 0.903012 0.750000
O O2 0.621336 0.998624 0.956727
O O3 0.654522 0.902117 0.987754
O O4 0.527249 0.873277 0.005265
O O5 0.296284 0.093271 0.750000
O O6 0.247013 0.125573 0.516376
O O7 0.218309 0.001165 0.548339
O O8 0.902585 0.722378 0.250000
O O9 0.905620 0.653495 0.021756
O O10 0.703451 0.084192 0.750000
O O11 0.657020 0.128346 0.972044
O O12 0.210175 0.540763 0.250000
O O13 0.263633 0.524885 0.010696
O O14 0.207638 0.604041 0.011743
O O15 0.665217 0.473475 0.750000
#
# Coordination Sequence:
#
# PCOD8325494 Si02
#       6
#    12  12  12  12  12  12
#     4  10  20  33  50  74 102 131 166 210 258 306
#     4  10  20  34  53  77 105 137 170 206 253 304
#     4  10  20  33  52  79 106 133 170 212 252 300
#     4   9  18  33  51  72 102 136 167 205 257 311
#     4   9  18  32  51  73  95 126 168 209 250 301
#     4  10  19  33  53  73  96 129 171 214 254 305
#
# _framework density 18.249108
#
# number of rings (size 3 to 8) (size 9 to 14) (size 15 to 20)
#    0.000    2.333    0.000    2.833    0.000    6.000 
#    0.000    1.667    0.000    0.333    0.000    0.000 
#    0.000    0.000    0.000    0.000    0.000    0.000 
#
# Total GULP energy -892962.108890 kJ/mol
# GULP energy per Si atom -12402.251512 kJ/mol
# Density = 1.820757 g / cm^3
# Si number density = 18.249108 Si / 1000 Ang^3
#
#
#
# Elastic Constant Matrix: (Units=GPa)
#
#
# Indices 1 2 3 4 5 6 
#
# 1 123.2745 69.8907 40.3139 0.0000 0.0000 0.0000
# 2 69.8907 123.2745 40.3139 0.0000 0.0000 0.0000
# 3 40.3139 40.3139 54.6412 0.0000 0.0000 0.0000
# 4 0.0000 0.0000 0.0000 25.4508 0.0000 0.0000
# 5 0.0000 0.0000 0.0000 0.0000 25.4508 0.0000
# 6 0.0000 0.0000 0.0000 0.0000 0.0000 26.6919
#
#
#
# Elastic Compliance Matrix: (Units=1/GPa)
#
#
# Indices 1 2 3 4 5 6 
#
# 1 0.013106 -0.005626 -0.005519 0.000000 0.000000 0.000000
# 2 -0.005626 0.013106 -0.005519 0.000000 0.000000 0.000000
# 3 -0.005519 -0.005519 0.026445 0.000000 0.000000 0.000000
# 4 0.000000 0.000000 0.000000 0.039291 0.000000 0.000000
# 5 0.000000 0.000000 0.000000 0.000000 0.039291 0.000000
# 6 0.000000 0.000000 0.000000 0.000000 0.000000 0.037465
#
#
# Mechanical properties :
#
#
# Convention : Reuss Voigt Hill
#
# Bulk Modulus (GPa) = 51.73352 66.91415 59.32383
# Shear Modulus (GPa) = 23.98346 25.56350 24.77348
#
# Velocity S-wave (km/s) = 3.62916 3.74680 3.68845
# Velocity P-wave (km/s) = 6.78020 7.44746 7.12165
#
# Compressibility (1/GPa) = 0.01932983
#
# Stress axis : x y z
#
# Youngs Moduli (GPa) = 76.29833 76.29833 37.81406
#
# Poissons Ratio (x) = 0.42924 0.20870
# Poissons Ratio (y) = 0.42924 0.20870
# Poissons Ratio (z) = 0.42110 0.42110
#
# Static dielectric constant tensor:
#      x y z
#    x 3.415860 0.000000 0.000000 
#    y 0.000000 3.415860 0.000000 
#    z 0.000000 0.000000 3.254160 
# 
# 
# High freq. dielectric constant tensor:
#      x y z
#    x 1.707490 0.000000 0.000000 
#    y 0.000000 1.707490 0.000000 
#    z 0.000000 0.000000 1.695230 
# 
# From -- ./inp_files/1203.got.cif
#   From: 2010.06.25/outbox.cif.g09.slc.cpg/sg176_1_cif.got.tgz:1203.got - 2010.06.28 12:15:01.
