data_PCOD8325529
_publ_section_title
;
Structure prediction by ZEFSAII (Michael W. Deem and Ramdas Pophale) SiO2 
 PCOD8325529
Probable space group: P 63/M
;
_chemical_formula_sum "Si O2"
_cell_formula_units_Z 72
_cell_length_a 23.479323
_cell_length_b 23.479323
_cell_length_c 9.266481
_cell_angle_alpha 90.000000
_cell_angle_beta 90.000000
_cell_angle_gamma 120.000000
_cell_volume 4424.015216
_symmetry_space_group_name_H-M "P 63/M"
_symmetry_group_IT_number 176
_symmetry_cell_setting 'hexagonal'
loop_
_space_group_symop_operation_xyz
x,y,z
x-y,x,1/2+z
-y,x-y,z
-x,-y,1/2+z
-x+y,-x,z
y,-x+y,1/2+z
-x,-y,-z
-x+y,-x,1/2-z
y,-x+y,-z
x,y,1/2-z
x-y,x,-z
-y,x-y,1/2-z
loop_
_atom_site_type_symbol
_atom_site_label
_atom_site_fract_x
_atom_site_fract_y
_atom_site_fract_z
Si Si1 0.708555 0.648070 0.078502
Si Si2 0.086090 0.368928 0.078714
Si Si3 0.144366 0.294130 0.918880
Si Si4 0.921183 0.061833 0.423512
Si Si5 0.507980 0.589486 0.409902
Si Si6 0.924580 0.406307 0.410431
O O1 0.702392 0.644937 0.250000
O O2 0.678355 0.691296 0.018842
O O3 0.783070 0.685009 0.025319
O O4 0.665002 0.572076 0.022881
O O5 0.090320 0.362857 0.250000
O O6 0.108553 0.444313 0.034474
O O7 0.130524 0.345089 0.001592
O O8 0.143431 0.306314 0.750000
O O9 0.095053 0.218092 0.957061
O O10 0.929477 0.056540 0.250000
O O11 0.991344 0.105354 0.499688
O O12 0.483798 0.591871 0.250000
O O13 0.549388 0.552384 0.410387
O O14 0.441620 0.550062 0.502586
O O15 0.896119 0.397543 0.250000
#
# Coordination Sequence:
#
# PCOD8325529 Si02
#       6
#    12  12  12  12  12  12
#     4   8  15  29  45  61  86 119 148 176 219 270
#     4   9  17  30  46  62  87 122 151 178 220 273
#     4  10  20  32  47  67  91 119 152 191 234 282
#     4  11  23  38  55  72  90 116 155 205 257 306
#     4   8  14  24  39  61  87 112 137 167 203 243
#     4   8  13  23  41  61  82 111 141 165 196 244
#
# _framework density 16.274808
#
# number of rings (size 3 to 8) (size 9 to 14) (size 15 to 20)
#    0.000    3.000    0.000    3.667    0.000    3.333 
#    0.000    4.167    0.000    0.000    0.000    0.000 
#    1.667    0.000    1.000    0.000    1.333    0.000 
#
# Total GULP energy -892091.450316 kJ/mol
# GULP energy per Si atom -12390.159032 kJ/mol
# Density = 1.623777 g / cm^3
# Si number density = 16.274808 Si / 1000 Ang^3
#
#
#
# Elastic Constant Matrix: (Units=GPa)
#
#
# Indices 1 2 3 4 5 6 
#
# 1 58.3109 9.7027 19.7088 0.0000 0.0000 0.0000
# 2 9.7027 58.3109 19.7088 0.0000 0.0000 0.0000
# 3 19.7088 19.7088 45.0481 0.0000 0.0000 0.0000
# 4 0.0000 0.0000 0.0000 23.2973 0.0000 0.0000
# 5 0.0000 0.0000 0.0000 0.0000 23.2973 0.0000
# 6 0.0000 0.0000 0.0000 0.0000 0.0000 24.3041
#
#
#
# Elastic Compliance Matrix: (Units=1/GPa)
#
#
# Indices 1 2 3 4 5 6 
#
# 1 0.020135 -0.000438 -0.008618 0.000000 0.000000 0.000000
# 2 -0.000438 0.020135 -0.008618 0.000000 0.000000 0.000000
# 3 -0.008618 -0.008618 0.029739 0.000000 0.000000 0.000000
# 4 0.000000 0.000000 0.000000 0.042923 0.000000 0.000000
# 5 0.000000 0.000000 0.000000 0.000000 0.042923 0.000000
# 6 0.000000 0.000000 0.000000 0.000000 0.000000 0.041145
#
#
# Mechanical properties :
#
#
# Convention : Reuss Voigt Hill
#
# Bulk Modulus (GPa) = 28.84919 28.87892 28.86406
# Shear Modulus (GPa) = 20.50006 21.68304 21.09155
#
# Velocity S-wave (km/s) = 3.55296 3.65404 3.60385
# Velocity P-wave (km/s) = 5.88185 5.96538 5.92376
#
# Compressibility (1/GPa) = 0.03466302
#
# Stress axis : x y z
#
# Youngs Moduli (GPa) = 49.66473 49.66473 33.62583
#
# Poissons Ratio (x) = 0.02174 0.28978
# Poissons Ratio (y) = 0.02174 0.28978
# Poissons Ratio (z) = 0.42799 0.42799
#
# Static dielectric constant tensor:
#      x y z
#    x 3.109580 0.000000 0.000000 
#    y 0.000000 3.109580 0.000000 
#    z 0.000000 0.000000 3.050040 
# 
# 
# High freq. dielectric constant tensor:
#      x y z
#    x 1.610910 0.000000 0.000000 
#    y 0.000000 1.610910 0.000000 
#    z 0.000000 0.000000 1.612510 
# 
# From -- ./inp_files/1141.got.cif
#   From: 2010.06.25/outbox.cif.g09.slc.cpg/sg176_1_cif.got.tgz:1141.got - 2010.06.28 12:15:01.
