data_PCOD8325071
_publ_section_title
;
Structure prediction by ZEFSAII (Michael W. Deem and Ramdas Pophale) SiO2 
 PCOD8325071
Probable space group: P 6/M
;
_chemical_formula_sum "Si O2"
_cell_formula_units_Z 78
_cell_length_a 25.300050
_cell_length_b 25.300050
_cell_length_c 8.004457
_cell_angle_alpha 90.000000
_cell_angle_beta 90.000000
_cell_angle_gamma 120.000000
_cell_volume 4437.161811
_symmetry_space_group_name_H-M "P 6/M"
_symmetry_group_IT_number 175
_symmetry_cell_setting 'hexagonal'
loop_
_space_group_symop_operation_xyz
x,y,z
x-y,x,z
-y,x-y,z
-x,-y,z
-x+y,-x,z
y,-x+y,z
-x,-y,-z
-x+y,-x,-z
y,-x+y,-z
x,y,-z
x-y,x,-z
-y,x-y,-z
loop_
_atom_site_type_symbol
_atom_site_label
_atom_site_fract_x
_atom_site_fract_y
_atom_site_fract_z
Si Si1 0.930387 0.470208 0.308429
Si Si2 0.579562 0.647786 0.191081
Si Si3 0.362837 0.430006 0.191102
Si Si4 0.112203 0.334987 0.308134
Si Si5 0.887842 0.232132 0.694288
Si Si6 0.004080 0.875454 0.000000
Si Si7 0.998998 0.209288 0.699340
O O1 0.925213 0.482138 0.500000
O O2 0.900819 0.505964 0.213042
O O3 0.899306 0.397640 0.271907
O O4 0.000000 0.500000 0.245713
O O5 0.612627 0.612710 0.270992
O O6 0.605704 0.711278 0.286847
O O7 0.597574 0.664545 0.000000
O O8 0.290804 0.397129 0.213055
O O9 0.381488 0.439941 0.000000
O O10 0.116463 0.322238 0.500000
O O11 0.175692 0.348342 0.226315
O O12 0.056603 0.272427 0.237411
O O13 0.882661 0.242892 0.500000
O O14 0.942137 0.218932 0.729969
O O15 0.942994 0.880153 0.000000
O O16 0.006094 0.842596 0.173351
O O17 0.002414 0.193892 0.500000
#
# Coordination Sequence:
#
# PCOD8325071 Si02
#       7
#    12  12  12  12  12   6  12
#     4   9  17  29  47  67  95 135 171 201 239 291
#     4  10  19  30  46  71 102 134 169 208 251 302
#     4  10  19  30  46  71 102 134 169 208 251 302
#     4  10  20  33  51  75 104 138 177 221 269 326
#     4  10  20  33  51  75 104 138 177 221 269 326
#     4  12  27  44  64  84 106 135 180 236 292 350
#     4  10  22  41  61  82 109 143 181 224 281 352
#
# _framework density 17.578803000000001
#
# number of rings (size 3 to 8) (size 9 to 14) (size 15 to 20)
#    0.000    2.000    1.538    2.385    2.154    5.538 
#    0.000    0.000    0.000    0.923    0.000    0.000 
#    1.538    0.000    2.769    0.000    2.769    0.000 
#
# Total GULP energy -966652.568267 kJ/mol
# GULP energy per Si atom -12392.981644 kJ/mol
# Density = 1.753879 g / cm^3
# Si number density = 17.578803 Si / 1000 Ang^3
#
#
#
# Elastic Constant Matrix: (Units=GPa)
#
#
# Indices 1 2 3 4 5 6 
#
# 1 97.0509 54.8588 17.1107 0.0000 0.0000 0.0000
# 2 54.8588 97.0509 17.1107 0.0000 0.0000 0.0000
# 3 17.1107 17.1107 50.3250 0.0000 0.0000 0.0000
# 4 0.0000 0.0000 0.0000 19.8620 0.0000 0.0000
# 5 0.0000 0.0000 0.0000 0.0000 19.8620 0.0000
# 6 0.0000 0.0000 0.0000 0.0000 0.0000 21.0960
#
#
#
# Elastic Compliance Matrix: (Units=1/GPa)
#
#
# Indices 1 2 3 4 5 6 
#
# 1 0.015415 -0.008286 -0.002424 0.000000 0.000000 0.000000
# 2 -0.008286 0.015415 -0.002424 0.000000 0.000000 0.000000
# 3 -0.002424 -0.002424 0.021519 0.000000 0.000000 0.000000
# 4 0.000000 0.000000 0.000000 0.050347 0.000000 0.000000
# 5 0.000000 0.000000 0.000000 0.000000 0.050347 0.000000
# 6 0.000000 0.000000 0.000000 0.000000 0.000000 0.047402
#
#
# Mechanical properties :
#
#
# Convention : Reuss Voigt Hill
#
# Bulk Modulus (GPa) = 38.34143 46.95414 42.64779
# Shear Modulus (GPa) = 21.23975 22.52044 21.88010
#
# Velocity S-wave (km/s) = 3.47977 3.58315 3.53184
# Velocity P-wave (km/s) = 6.16471 6.62474 6.39886
#
# Compressibility (1/GPa) = 0.02608145
#
# Stress axis : x y z
#
# Youngs Moduli (GPa) = 64.87185 64.87185 46.47042
#
# Poissons Ratio (x) = 0.53754 0.11264
# Poissons Ratio (y) = 0.53754 0.11264
# Poissons Ratio (z) = 0.15724 0.15724
#
# Static dielectric constant tensor:
#      x y z
#    x 3.261470 0.000000 0.000000 
#    y 0.000000 3.261470 0.000000 
#    z 0.000000 0.000000 3.222350 
# 
# 
# High freq. dielectric constant tensor:
#      x y z
#    x 1.660390 0.000000 0.000000 
#    y 0.000000 1.660390 0.000000 
#    z 0.000000 0.000000 1.684760 
# 
# From -- ./inp_files/1289.got.cif
#   From: 2010.03.12/outbox.cif.g09.slc.cpg/sg175_1_cif.got.tgz:1289.got - 2010.04.02 06:55:29.
