data_PCOD8325165
_publ_section_title
;
Structure prediction by ZEFSAII (Michael W. Deem and Ramdas Pophale) SiO2 
 PCOD8325165
Probable space group: P 6/M
;
_chemical_formula_sum "Si O2"
_cell_formula_units_Z 72
_cell_length_a 24.341081
_cell_length_b 24.341081
_cell_length_c 8.913628
_cell_angle_alpha 90.000000
_cell_angle_beta 90.000000
_cell_angle_gamma 120.000000
_cell_volume 4573.670359
_symmetry_space_group_name_H-M "P 6/M"
_symmetry_group_IT_number 175
_symmetry_cell_setting 'hexagonal'
loop_
_space_group_symop_operation_xyz
x,y,z
x-y,x,z
-y,x-y,z
-x,-y,z
-x+y,-x,z
y,-x+y,z
-x,-y,-z
-x+y,-x,-z
y,-x+y,-z
x,y,-z
x-y,x,-z
-y,x-y,-z
loop_
_atom_site_type_symbol
_atom_site_label
_atom_site_fract_x
_atom_site_fract_y
_atom_site_fract_z
Si Si1 0.854299 0.489767 0.327409
Si Si2 0.816019 0.183981 0.163555
Si Si3 0.378016 0.071759 0.820800
Si Si4 0.259165 0.740835 0.833921
Si Si5 0.071759 0.378016 0.179200
Si Si6 0.510233 0.145701 0.327409
O O1 0.849557 0.505368 0.500000
O O2 0.784600 0.460474 0.254706
O O3 0.907162 0.553408 0.247111
O O4 0.877037 0.438518 0.310327
O O5 0.883169 0.233545 0.242814
O O6 0.778379 0.221621 0.150214
O O7 0.766455 0.116831 0.242814
O O8 0.832224 0.167776 0.000000
O O9 0.446592 0.092838 0.752889
O O10 0.329118 0.000000 0.772340
O O11 0.385864 0.079386 0.000000
O O12 0.215400 0.675874 0.745294
O O13 0.274685 0.725315 0.000000
O O14 0.079386 0.385864 0.000000
O O15 0.494632 0.150443 0.500000
#
# Coordination Sequence:
#
# PCOD8325165 Si02
#       6
#    12  12  12  12  12  12
#     4  10  20  32  45  62  86 114 142 180 230 278
#     4   7  12  25  43  61  81 103 130 171 215 253
#     4   9  17  29  46  66  86 113 149 184 219 263
#     4   9  17  31  49  63  77 103 141 180 219 266
#     4   9  17  29  46  66  86 113 149 184 219 263
#     4  10  20  32  45  62  86 114 142 180 230 278
#
# _framework density 15.742279999999999
#
# number of rings (size 3 to 8) (size 9 to 14) (size 15 to 20)
#    0.000    3.000    0.000    3.500    0.000    4.000 
#    1.000    3.333    0.000    0.000    0.000    0.000 
#    0.000    0.000    0.000    0.500    0.000   16.000 
#
# Total GULP energy -891973.097865 kJ/mol
# GULP energy per Si atom -12388.515248 kJ/mol
# Density = 1.570645 g / cm^3
# Si number density = 15.742280 Si / 1000 Ang^3
#
#
#
# Elastic Constant Matrix: (Units=GPa)
#
#
# Indices 1 2 3 4 5 6 
#
# 1 93.9731 59.4166 27.9176 0.0000 0.0000 0.0000
# 2 59.4166 93.9731 27.9176 0.0000 0.0000 0.0000
# 3 27.9176 27.9176 59.2160 0.0000 0.0000 0.0000
# 4 0.0000 0.0000 0.0000 14.6419 0.0000 0.0000
# 5 0.0000 0.0000 0.0000 0.0000 14.6419 0.0000
# 6 0.0000 0.0000 0.0000 0.0000 0.0000 17.2783
#
#
#
# Elastic Compliance Matrix: (Units=1/GPa)
#
#
# Indices 1 2 3 4 5 6 
#
# 1 0.018404 -0.010534 -0.003710 0.000000 0.000000 0.000000
# 2 -0.010534 0.018404 -0.003710 0.000000 0.000000 0.000000
# 3 -0.003710 -0.003710 0.020386 0.000000 0.000000 0.000000
# 4 0.000000 0.000000 0.000000 0.068297 0.000000 0.000000
# 5 0.000000 0.000000 0.000000 0.000000 0.068297 0.000000
# 6 0.000000 0.000000 0.000000 0.000000 0.000000 0.057876
#
#
# Mechanical properties :
#
#
# Convention : Reuss Voigt Hill
#
# Bulk Modulus (GPa) = 46.98272 53.07400 50.02836
# Shear Modulus (GPa) = 16.96825 18.10647 17.53736
#
# Velocity S-wave (km/s) = 3.28667 3.39511 3.34133
# Velocity P-wave (km/s) = 6.65677 7.01117 6.83627
#
# Compressibility (1/GPa) = 0.02128442
#
# Stress axis : x y z
#
# Youngs Moduli (GPa) = 54.33605 54.33605 49.05373
#
# Poissons Ratio (x) = 0.57238 0.18200
# Poissons Ratio (y) = 0.57238 0.18200
# Poissons Ratio (z) = 0.20160 0.20160
#
# Static dielectric constant tensor:
#      x y z
#    x 3.092900 0.000000 0.000000 
#    y 0.000000 3.092900 0.000000 
#    z 0.000000 0.000000 2.996970 
# 
# 
# High freq. dielectric constant tensor:
#      x y z
#    x 1.580800 0.000000 0.000000 
#    y 0.000000 1.580800 0.000000 
#    z 0.000000 0.000000 1.598030 
# 
# From -- ./inp_files/1186.got.cif
#   From: 2010.03.12/outbox.cif.g09.slc.cpg/sg175_1_cif.got.tgz:1186.got - 2010.04.02 06:55:29.
