data_PCOD8325288
_publ_section_title
;
Structure prediction by ZEFSAII (Michael W. Deem and Ramdas Pophale) SiO2 
 PCOD8325288
Probable space group: P 6/M
;
_chemical_formula_sum "Si O2"
_cell_formula_units_Z 84
_cell_length_a 16.388191
_cell_length_b 16.388191
_cell_length_c 17.139572
_cell_angle_alpha 90.000000
_cell_angle_beta 90.000000
_cell_angle_gamma 120.000000
_cell_volume 3986.507984
_symmetry_space_group_name_H-M "P 6/M"
_symmetry_group_IT_number 175
_symmetry_cell_setting 'hexagonal'
loop_
_space_group_symop_operation_xyz
x,y,z
x-y,x,z
-y,x-y,z
-x,-y,z
-x+y,-x,z
y,-x+y,z
-x,-y,-z
-x+y,-x,-z
y,-x+y,-z
x,y,-z
x-y,x,-z
-y,x-y,-z
loop_
_atom_site_type_symbol
_atom_site_label
_atom_site_fract_x
_atom_site_fract_y
_atom_site_fract_z
Si Si1 0.620143 0.489896 0.910752
Si Si2 0.550006 0.110194 0.414589
Si Si3 0.051826 0.848614 0.907672
Si Si4 0.327039 0.337536 0.172621
Si Si5 0.712984 0.631313 0.653559
Si Si6 0.829403 0.544388 0.909443
Si Si7 0.736003 0.119404 0.590465
O O1 0.598114 0.557980 0.857935
O O2 0.723482 0.511650 0.887311
O O3 0.547837 0.383377 0.891916
O O4 0.613667 0.514718 0.000000
O O5 0.557593 0.156879 0.500000
O O6 0.482371 0.129711 0.358522
O O7 0.655227 0.144263 0.380780
O O8 0.500000 0.000000 0.426664
O O9 0.950449 0.824728 0.875163
O O10 0.074290 0.770680 0.874130
O O11 0.056349 0.847634 0.000000
O O12 0.305276 0.337188 0.262847
O O13 0.371410 0.271937 0.148355
O O14 0.688398 0.694949 0.596858
O O15 0.819841 0.652559 0.639944
O O16 0.853466 0.577934 0.000000
O O17 0.759427 0.147015 0.500000
#
# Coordination Sequence:
#
# PCOD8325288 Si02
#       7
#    12  12  12  12  12  12  12
#     4  10  21  38  59  83 113 161 212 257 299 361
#     4   8  16  36  63  87 116 153 199 251 301 359
#     4  10  21  38  61  85 114 157 210 263 314 367
#     4  12  24  35  55  87 126 161 192 253 306 369
#     4  11  24  38  62  97 129 167 205 253 317 375
#     4  10  21  38  60  83 115 161 215 259 306 359
#     4  10  21  41  68  92 124 164 209 256 305 378
#
# _framework density 21.071073999999999
#
# number of rings (size 3 to 8) (size 9 to 14) (size 15 to 20)
#    0.000    1.857    0.000    5.143    4.000    8.571 
#    0.857    0.000    0.000    0.286    0.000    1.000 
#    0.000    0.000    0.000    0.000    0.000    0.000 
#
# Total GULP energy -1041114.455785 kJ/mol
# GULP energy per Si atom -12394.219712 kJ/mol
# Density = 2.102312 g / cm^3
# Si number density = 21.071074 Si / 1000 Ang^3
#
#
#
# Elastic Constant Matrix: (Units=GPa)
#
#
# Indices 1 2 3 4 5 6 
#
# 1 86.0102 21.8420 16.3059 0.0000 0.0000 0.0000
# 2 21.8420 86.0102 16.3059 0.0000 0.0000 0.0000
# 3 16.3059 16.3059 59.6139 0.0000 0.0000 0.0000
# 4 0.0000 0.0000 0.0000 3.7534 0.0000 0.0000
# 5 0.0000 0.0000 0.0000 0.0000 3.7534 0.0000
# 6 0.0000 0.0000 0.0000 0.0000 0.0000 32.0841
#
#
#
# Elastic Compliance Matrix: (Units=1/GPa)
#
#
# Indices 1 2 3 4 5 6 
#
# 1 0.012846 -0.002738 -0.002765 0.000000 0.000000 0.000000
# 2 -0.002738 0.012846 -0.002765 0.000000 0.000000 0.000000
# 3 -0.002765 -0.002765 0.018287 0.000000 0.000000 0.000000
# 4 0.000000 0.000000 0.000000 0.266428 0.000000 0.000000
# 5 0.000000 0.000000 0.000000 0.000000 0.266428 0.000000
# 6 0.000000 0.000000 0.000000 0.000000 0.000000 0.031168
#
#
# Mechanical properties :
#
#
# Convention : Reuss Voigt Hill
#
# Bulk Modulus (GPa) = 36.43800 37.83798 37.13799
# Shear Modulus (GPa) = 7.89033 19.73019 13.81026
#
# Velocity S-wave (km/s) = 1.93720 3.06333 2.56288
# Velocity P-wave (km/s) = 4.72590 5.52343 5.14015
#
# Compressibility (1/GPa) = 0.02744388
#
# Stress axis : x y z
#
# Youngs Moduli (GPa) = 77.84525 77.84525 54.68344
#
# Poissons Ratio (x) = 0.21314 0.15119
# Poissons Ratio (y) = 0.21314 0.15119
# Poissons Ratio (z) = 0.21522 0.21522
#
# Static dielectric constant tensor:
#      x y z
#    x 3.978330 0.000000 0.000000 
#    y 0.000000 3.978330 0.000000 
#    z 0.000000 0.000000 3.497570 
# 
# 
# High freq. dielectric constant tensor:
#      x y z
#    x 1.828930 0.000000 0.000000 
#    y 0.000000 1.828930 0.000000 
#    z 0.000000 0.000000 1.794580 
# 
# From -- ./inp_files/2643.got.cif
#   From: 2010.03.12/outbox.cif.g09.slc.cpg/sg175_2_cif.got.tgz:2643.got - 2010.04.02 06:55:29.
