data_PCOD8325357
_publ_section_title
;
Structure prediction by ZEFSAII (Michael W. Deem and Ramdas Pophale) SiO2 
 PCOD8325357
Probable space group: P 6/M
;
_chemical_formula_sum "Si O2"
_cell_formula_units_Z 48
_cell_length_a 20.399875
_cell_length_b 20.399875
_cell_length_c 9.000092
_cell_angle_alpha 90.000000
_cell_angle_beta 90.000000
_cell_angle_gamma 120.000000
_cell_volume 3243.639595
_symmetry_space_group_name_H-M "P 6/M"
_symmetry_group_IT_number 175
_symmetry_cell_setting 'hexagonal'
loop_
_space_group_symop_operation_xyz
x,y,z
x-y,x,z
-y,x-y,z
-x,-y,z
-x+y,-x,z
y,-x+y,z
-x,-y,-z
-x+y,-x,-z
y,-x+y,-z
x,y,-z
x-y,x,-z
-y,x-y,-z
loop_
_atom_site_type_symbol
_atom_site_label
_atom_site_fract_x
_atom_site_fract_y
_atom_site_fract_z
Si Si1 0.133530 0.590516 0.173405
Si Si2 0.564236 0.689128 0.826745
Si Si3 0.265437 0.453817 0.331813
Si Si4 0.974416 0.378599 0.331602
O O1 0.150323 0.523095 0.205021
O O2 0.198385 0.668324 0.250786
O O3 0.051748 0.568222 0.245001
O O4 0.131419 0.605460 0.000000
O O5 0.580672 0.767718 0.755761
O O6 0.620066 0.664562 0.751406
O O7 0.582723 0.700619 0.000000
O O8 0.255164 0.474249 0.500000
O O9 0.292832 0.391113 0.329887
O O10 0.997664 0.408048 0.500000
#
# Coordination Sequence:
#
# PCOD8325357 Si02
#       4
#    12  12  12  12
#     4   9  18  32  46  65  88 111 148 186 220 265
#     4  11  20  30  49  67  85 118 146 181 227 264
#     4   9  20  33  45  64  87 112 146 186 221 262
#     4   9  19  32  47  66  87 113 146 184 219 262
#
# _framework density 14.798192
#
# number of rings (size 3 to 8) (size 9 to 14) (size 15 to 20)
#    1.500    1.000    0.000    3.000    0.000    7.000 
#    1.500    0.000    0.000    0.000    0.000    0.000 
#    0.000    0.000    0.000    0.750    0.000   14.500 
#
# Total GULP energy -594701.424982 kJ/mol
# GULP energy per Si atom -12389.613020 kJ/mol
# Density = 1.476451 g / cm^3
# Si number density = 14.798192 Si / 1000 Ang^3
#
#
#
# Elastic Constant Matrix: (Units=GPa)
#
#
# Indices 1 2 3 4 5 6 
#
# 1 52.2490 27.0610 42.4522 0.0000 0.0000 0.0000
# 2 27.0610 52.2490 42.4522 0.0000 0.0000 0.0000
# 3 42.4522 42.4522 131.5174 0.0000 0.0000 0.0000
# 4 0.0000 0.0000 0.0000 24.4574 0.0000 0.0000
# 5 0.0000 0.0000 0.0000 0.0000 24.4574 0.0000
# 6 0.0000 0.0000 0.0000 0.0000 0.0000 12.5940
#
#
#
# Elastic Compliance Matrix: (Units=1/GPa)
#
#
# Indices 1 2 3 4 5 6 
#
# 1 0.029484 -0.010218 -0.006219 0.000000 0.000000 0.000000
# 2 -0.010218 0.029484 -0.006219 0.000000 0.000000 0.000000
# 3 -0.006219 -0.006219 0.011618 0.000000 0.000000 0.000000
# 4 0.000000 0.000000 0.000000 0.040887 0.000000 0.000000
# 5 0.000000 0.000000 0.000000 0.000000 0.040887 0.000000
# 6 0.000000 0.000000 0.000000 0.000000 0.000000 0.079403
#
#
# Mechanical properties :
#
#
# Convention : Reuss Voigt Hill
#
# Bulk Modulus (GPa) = 39.56430 51.10514 45.33472
# Shear Modulus (GPa) = 17.51311 20.57176 19.04244
#
# Velocity S-wave (km/s) = 3.44388 3.73252 3.59110
# Velocity P-wave (km/s) = 6.52746 7.29283 6.92073
#
# Compressibility (1/GPa) = 0.02527531
#
# Stress axis : x y z
#
# Youngs Moduli (GPa) = 33.91672 33.91672 86.07070
#
# Poissons Ratio (x) = 0.34655 0.53527
# Poissons Ratio (y) = 0.34655 0.53527
# Poissons Ratio (z) = 0.21093 0.21093
#
# Static dielectric constant tensor:
#      x y z
#    x 2.594130 0.000000 0.000000 
#    y 0.000000 2.594130 0.000000 
#    z 0.000000 0.000000 3.019310 
# 
# 
# High freq. dielectric constant tensor:
#      x y z
#    x 1.533120 0.000000 0.000000 
#    y 0.000000 1.533120 0.000000 
#    z 0.000000 0.000000 1.592550 
# 
# From -- ./inp_files/719.got.cif
#   From: 2010.03.12/outbox.cif.g09.slc.cpg/sg175_1_cif.got.tgz:719.got - 2010.04.02 06:55:29.
