data_PCOD8325729
_publ_section_title
;
Structure prediction by ZEFSAII (Michael W. Deem and Ramdas Pophale) SiO2 
 PCOD8325729
Probable space group: P 63/M
;
_chemical_formula_sum "Si O2"
_cell_formula_units_Z 42
_cell_length_a 9.000000
_cell_length_b 9.000000
_cell_length_c 30.000000
_cell_angle_alpha 90.000000
_cell_angle_beta 90.000000
_cell_angle_gamma 120.000000
_cell_volume 2104.441731
_symmetry_space_group_name_H-M "P 63/M"
_symmetry_group_IT_number 176
_symmetry_cell_setting 'hexagonal'
loop_
_space_group_symop_operation_xyz
x,y,z
x-y,x,1/2+z
-y,x-y,z
-x,-y,1/2+z
-x+y,-x,z
y,-x+y,1/2+z
-x,-y,-z
-x+y,-x,1/2-z
y,-x+y,-z
x,y,1/2-z
x-y,x,-z
-y,x-y,1/2-z
loop_
_atom_site_type_symbol
_atom_site_label
_atom_site_fract_x
_atom_site_fract_y
_atom_site_fract_z
Si Si1 0.153272 0.215190 0.167278
Si Si2 0.674779 0.658919 0.918923
Si Si3 0.000000 0.000000 0.550864
Si Si4 0.183865 0.732031 0.250000
Si Si5 0.333334 0.666667 0.566986
Si Si6 0.666668 0.333334 0.538046
O O1 0.256825 0.354582 0.129308
O O2 0.233618 0.325650 0.210139
O O3 0.188745 0.053843 0.164976
O O4 0.489283 0.642753 0.915858
O O5 0.666667 0.505281 0.947742
O O6 0.814079 0.849414 0.934769
O O7 0.000000 0.000000 0.500000
O O8 0.142970 0.534249 0.250000
O O9 0.333334 0.666667 0.514373
#
# Coordination Sequence:
#
# PCOD8325729 Si02
#       6
#    12  12   4   6   4   4
#     4  10  22  43  69  95 133 180 223 270 348 410
#     4  12  24  42  67  99 135 186 234 288 352 413
#     4  12  21  42  66  97 137 178 234 279 342 411
#     4  10  24  38  68 106 128 166 220 278 332 410
#     4  12  27  45  63 103 140 184 243 297 351 414
#     4  12  27  42  69  94 143 190 237 300 351 408
#
# _framework density 19.957787
#
# number of rings (size 3 to 8) (size 9 to 14) (size 15 to 20)
#    0.857    0.000    2.857    5.143    4.000    0.000 
#    0.000    0.000    0.000    4.571    0.000    0.000 
#    0.000    0.000    0.000    0.000    0.000    0.000 
#
# Total GULP energy -520382.478563 kJ/mol
# GULP energy per Si atom -12390.059013 kJ/mol
# Density = 1.991236 g / cm^3
# Si number density = 19.957787 Si / 1000 Ang^3
#
#
#
# Elastic Constant Matrix: (Units=GPa)
#
#
# Indices 1 2 3 4 5 6 
#
# 1 107.6377 37.6230 25.9274 0.0000 0.0000 -0.0002
# 2 37.6230 107.6381 25.9274 0.0000 0.0000 -0.0005
# 3 25.9274 25.9274 127.6773 0.0000 0.0000 0.0006
# 4 0.0000 0.0000 0.0000 46.4107 -0.0006 0.0000
# 5 0.0000 0.0000 0.0000 -0.0006 46.4104 0.0000
# 6 -0.0002 -0.0005 0.0006 0.0000 0.0000 35.0074
#
#
#
# Elastic Compliance Matrix: (Units=1/GPa)
#
#
# Indices 1 2 3 4 5 6 
#
# 1 0.010852 -0.003430 -0.001507 0.000000 0.000000 0.000000
# 2 -0.003430 0.010852 -0.001507 0.000000 0.000000 0.000000
# 3 -0.001507 -0.001507 0.008444 0.000000 0.000000 0.000000
# 4 0.000000 0.000000 0.000000 0.021547 0.000000 0.000000
# 5 0.000000 0.000000 0.000000 0.000000 0.021547 0.000000
# 6 0.000000 0.000000 0.000000 0.000000 0.000000 0.028565
#
#
# Mechanical properties :
#
#
# Convention : Reuss Voigt Hill
#
# Bulk Modulus (GPa) = 57.93775 57.98985 57.96380
# Shear Modulus (GPa) = 41.51066 42.46405 41.98735
#
# Velocity S-wave (km/s) = 4.56557 4.61770 4.59170
# Velocity P-wave (km/s) = 7.54226 7.58618 7.56425
#
# Compressibility (1/GPa) = 0.01725991
#
# Stress axis : x y z
#
# Youngs Moduli (GPa) = 92.14495 92.14531 118.42175
#
# Poissons Ratio (x) = 0.31608 0.17849
# Poissons Ratio (y) = 0.31608 0.17849
# Poissons Ratio (z) = 0.13888 0.13888
#
# Static dielectric constant tensor:
#      x y z
#    x 3.808470 0.000010 0.000000 
#    y 0.000010 3.808480 0.000000 
#    z 0.000000 0.000000 2.545120 
# 
# 
# High freq. dielectric constant tensor:
#      x y z
#    x 1.783930 0.000000 0.000000 
#    y 0.000000 1.783930 0.000000 
#    z 0.000000 0.000000 1.780760 
# 
# From -- ./inp_files/4427.got.cif
#   From: 2010.06.25/outbox.ucp.g09.slc.cvg/sg176_3_cif.got.tgz:4427.got - 2010.06.28 17:01:40.
