data_PCOD8325475
_publ_section_title
;
Structure prediction by ZEFSAII (Michael W. Deem and Ramdas Pophale) SiO2 
 PCOD8325475
Probable space group: P 63/M
;
_chemical_formula_sum "Si O2"
_cell_formula_units_Z 72
_cell_length_a 22.853125
_cell_length_b 22.853125
_cell_length_c 8.616203
_cell_angle_alpha 90.000000
_cell_angle_beta 90.000000
_cell_angle_gamma 120.000000
_cell_volume 3897.065851
_symmetry_space_group_name_H-M "P 63/M"
_symmetry_group_IT_number 176
_symmetry_cell_setting 'hexagonal'
loop_
_space_group_symop_operation_xyz
x,y,z
x-y,x,1/2+z
-y,x-y,z
-x,-y,1/2+z
-x+y,-x,z
y,-x+y,1/2+z
-x,-y,-z
-x+y,-x,1/2-z
y,-x+y,-z
x,y,1/2-z
x-y,x,-z
-y,x-y,1/2-z
loop_
_atom_site_type_symbol
_atom_site_label
_atom_site_fract_x
_atom_site_fract_y
_atom_site_fract_z
Si Si1 0.869379 0.872781 0.566069
Si Si2 0.610877 0.748115 0.568750
Si Si3 0.734555 0.605248 0.568366
Si Si4 0.465143 0.801025 0.934467
Si Si5 0.794120 0.461711 0.069502
Si Si6 0.262806 0.000356 0.933869
O O1 0.867262 0.882933 0.750000
O O2 0.935782 0.869861 0.523509
O O3 0.803974 0.804228 0.505935
O O4 0.618622 0.768412 0.750000
O O5 0.615945 0.808444 0.467820
O O6 0.537567 0.681402 0.539216
O O7 0.669680 0.735258 0.509484
O O8 0.722018 0.600923 0.750000
O O9 0.674713 0.536434 0.494752
O O10 0.733501 0.669961 0.496552
O O11 0.468171 0.803252 0.750000
O O12 0.454632 0.729689 0.998569
O O13 0.404130 0.810254 0.003298
O O14 0.782016 0.445363 0.250000
O O15 0.263964 0.004741 0.750000
#
# Coordination Sequence:
#
# PCOD8325475 Si02
#       6
#    12  12  12  12  12  12
#     4  11  22  37  55  77 102 130 161 199 243 292
#     4   9  17  33  53  72  93 125 165 204 238 280
#     4  10  19  32  48  71 100 128 156 197 246 292
#     4   9  16  29  48  72  97 127 164 203 241 283
#     4   8  14  25  47  71  92 119 160 203 235 270
#     4   9  19  34  53  73  97 129 165 198 239 289
#
# _framework density 18.475439000000001
#
# number of rings (size 3 to 8) (size 9 to 14) (size 15 to 20)
#    0.000    2.667    0.000    3.500    0.000    1.333 
#    0.000    9.167    0.000    0.000    0.000    0.000 
#    0.000    0.000    0.000    0.000    0.000    0.000 
#
# Total GULP energy -892529.220124 kJ/mol
# GULP energy per Si atom -12396.239168 kJ/mol
# Density = 1.843339 g / cm^3
# Si number density = 18.475439 Si / 1000 Ang^3
#
#
#
# Elastic Constant Matrix: (Units=GPa)
#
#
# Indices 1 2 3 4 5 6 
#
# 1 141.1625 74.5904 11.6080 0.0000 0.0000 0.0000
# 2 74.5904 141.1625 11.6080 0.0000 0.0000 0.0000
# 3 11.6080 11.6080 22.8391 0.0000 0.0000 0.0000
# 4 0.0000 0.0000 0.0000 19.5101 0.0000 0.0000
# 5 0.0000 0.0000 0.0000 0.0000 19.5101 0.0000
# 6 0.0000 0.0000 0.0000 0.0000 0.0000 33.2860
#
#
#
# Elastic Compliance Matrix: (Units=1/GPa)
#
#
# Indices 1 2 3 4 5 6 
#
# 1 0.009962 -0.005059 -0.002492 0.000000 0.000000 0.000000
# 2 -0.005059 0.009962 -0.002492 0.000000 0.000000 0.000000
# 3 -0.002492 -0.002492 0.046318 0.000000 0.000000 0.000000
# 4 0.000000 0.000000 0.000000 0.051255 0.000000 0.000000
# 5 0.000000 0.000000 0.000000 0.000000 0.051255 0.000000
# 6 0.000000 0.000000 0.000000 0.000000 0.000000 0.030043
#
#
# Mechanical properties :
#
#
# Convention : Reuss Voigt Hill
#
# Bulk Modulus (GPa) = 21.66569 55.64190 38.65379
# Shear Modulus (GPa) = 21.34313 28.28508 24.81411
#
# Velocity S-wave (km/s) = 3.40253 3.91699 3.66879
# Velocity P-wave (km/s) = 5.21426 7.11612 6.23809
#
# Compressibility (1/GPa) = 0.04615592
#
# Stress axis : x y z
#
# Youngs Moduli (GPa) = 100.37940 100.37940 21.58997
#
# Poissons Ratio (x) = 0.50783 0.05380
# Poissons Ratio (y) = 0.50783 0.05380
# Poissons Ratio (z) = 0.25015 0.25015
#
# Static dielectric constant tensor:
#      x y z
#    x 3.649970 0.000000 0.000000 
#    y 0.000000 3.649970 0.000000 
#    z 0.000000 0.000000 3.031400 
# 
# 
# High freq. dielectric constant tensor:
#      x y z
#    x 1.719660 0.000000 0.000000 
#    y 0.000000 1.719660 0.000000 
#    z 0.000000 0.000000 1.683150 
# 
# From -- ./inp_files/1177.got.cif
#   From: 2010.06.25/outbox.cif.g09.slc.cpg/sg176_1_cif.got.tgz:1177.got - 2010.06.28 12:15:01.
