data_PCOD8325810
_publ_section_title
;
Structure prediction by ZEFSAII (Michael W. Deem and Ramdas Pophale) SiO2 
 PCOD8325810
Probable space group: P 61 2 2
;
_chemical_formula_sum "Si O2"
_cell_formula_units_Z 60
_cell_length_a 11.412905
_cell_length_b 11.412905
_cell_length_c 29.220337
_cell_angle_alpha 90.000000
_cell_angle_beta 90.000000
_cell_angle_gamma 120.000000
_cell_volume 3296.159786
_symmetry_space_group_name_H-M "P 61 2 2"
_symmetry_group_IT_number 178
_symmetry_cell_setting 'hexagonal'
loop_
_space_group_symop_operation_xyz
x,y,z
x-y,x,1/6+z
-y,x-y,1/3+z
-x,-y,1/2+z
-x+y,-x,2/3+z
y,-x+y,5/6+z
x-y,-y,-z
-x,-x+y,2/3-z
y,x,1/3-z
-y,-x,5/6-z
-x+y,y,1/2-z
x,x-y,1/6-z
loop_
_atom_site_type_symbol
_atom_site_label
_atom_site_fract_x
_atom_site_fract_y
_atom_site_fract_z
Si Si1 0.701348 0.414623 0.844071
Si Si2 0.326587 0.434122 0.630060
Si Si3 0.052004 0.634234 0.547435
Si Si4 0.500827 0.974434 0.623973
Si Si5 0.552289 0.761806 0.767632
O O1 0.811129 0.388732 0.820888
O O2 0.634058 0.456370 0.803862
O O3 0.775800 0.536716 0.879670
O O4 0.589555 0.286772 0.871992
O O5 0.327341 0.327341 0.666667
O O6 0.176412 0.391194 0.612357
O O7 0.417111 0.441922 0.586875
O O8 0.052802 0.526401 0.583334
O O9 0.054819 0.581334 0.497110
O O10 0.917951 0.647515 0.552035
O O11 0.662558 0.052354 0.613524
#
# Coordination Sequence:
#
# PCOD8325810 Si02
#       5
#    12  12  12  12  12
#     4  10  19  36  54  86 121 150 199 236 296 357
#     4  12  24  36  58  91 122 157 202 249 299 366
#     4  11  22  37  58  88 122 151 201 248 303 359
#     4  11  21  35  62  84 122 159 188 254 300 357
#     4  10  19  35  59  85 119 155 187 253 303 351
#
# _framework density 18.203001
#
# number of rings (size 3 to 8) (size 9 to 14) (size 15 to 20)
#    0.000    1.200    8.000    1.800    2.800    0.800 
#    0.000    0.000    0.000    1.200    5.200    0.000 
#    0.000    0.000    0.000    0.000    0.000    0.000 
#
# Total GULP energy -743766.204081 kJ/mol
# GULP energy per Si atom -12396.103401 kJ/mol
# Density = 1.816157 g / cm^3
# Si number density = 18.203001 Si / 1000 Ang^3
#
#
#
# Elastic Constant Matrix: (Units=GPa)
#
#
# Indices 1 2 3 4 5 6 
#
# 1 83.7623 25.2248 25.1810 0.0000 0.0000 0.0000
# 2 25.2248 83.7623 25.1810 0.0000 0.0000 0.0000
# 3 25.1810 25.1810 104.0100 0.0000 0.0000 0.0000
# 4 0.0000 0.0000 0.0000 22.3672 0.0000 0.0000
# 5 0.0000 0.0000 0.0000 0.0000 22.3672 0.0000
# 6 0.0000 0.0000 0.0000 0.0000 0.0000 29.2688
#
#
#
# Elastic Compliance Matrix: (Units=1/GPa)
#
#
# Indices 1 2 3 4 5 6 
#
# 1 0.013707 -0.003376 -0.002501 0.000000 0.000000 0.000000
# 2 -0.003376 0.013707 -0.002501 0.000000 0.000000 0.000000
# 3 -0.002501 -0.002501 0.010826 0.000000 0.000000 0.000000
# 4 0.000000 0.000000 0.000000 0.044708 0.000000 0.000000
# 5 0.000000 0.000000 0.000000 0.000000 0.044708 0.000000
# 6 0.000000 0.000000 0.000000 0.000000 0.000000 0.034166
#
#
# Mechanical properties :
#
#
# Convention : Reuss Voigt Hill
#
# Bulk Modulus (GPa) = 46.54816 46.96757 46.75787
# Shear Modulus (GPa) = 26.91929 27.86381 27.39155
#
# Velocity S-wave (km/s) = 3.84974 3.91669 3.88336
# Velocity P-wave (km/s) = 6.73705 6.80530 6.77126
#
# Compressibility (1/GPa) = 0.02148312
#
# Stress axis : x y z
#
# Youngs Moduli (GPa) = 72.95483 72.95483 92.37411
#
# Poissons Ratio (x) = 0.24629 0.23105
# Poissons Ratio (y) = 0.24629 0.23105
# Poissons Ratio (z) = 0.18247 0.18247
#
# Static dielectric constant tensor:
#      x y z
#    x 3.227940 0.000000 0.000000 
#    y 0.000000 3.227940 0.000000 
#    z 0.000000 0.000000 3.648500 
# 
# 
# High freq. dielectric constant tensor:
#      x y z
#    x 1.682360 0.000000 0.000000 
#    y 0.000000 1.682360 0.000000 
#    z 0.000000 0.000000 1.728860 
# 
# From -- ./inp_files/8758.got.cif
#   From: 2010.03.12/outbox.cif.g09.slc.cpg/sg178_5_cif.got.tgz:8758.got - 2010.04.02 07:02:38.
