data_PCOD8325642
_publ_section_title
;
Structure prediction by ZEFSAII (Michael W. Deem and Ramdas Pophale) SiO2 
 PCOD8325642
Probable space group: P 63/M
;
_chemical_formula_sum "Si O2"
_cell_formula_units_Z 42
_cell_length_a 11.378913
_cell_length_b 11.378913
_cell_length_c 17.106426
_cell_angle_alpha 90.000000
_cell_angle_beta 90.000000
_cell_angle_gamma 120.000000
_cell_volume 1918.189320
_symmetry_space_group_name_H-M "P 63/M"
_symmetry_group_IT_number 176
_symmetry_cell_setting 'hexagonal'
loop_
_space_group_symop_operation_xyz
x,y,z
x-y,x,1/2+z
-y,x-y,z
-x,-y,1/2+z
-x+y,-x,z
y,-x+y,1/2+z
-x,-y,-z
-x+y,-x,1/2-z
y,-x+y,-z
x,y,1/2-z
x-y,x,-z
-y,x-y,1/2-z
loop_
_atom_site_type_symbol
_atom_site_label
_atom_site_fract_x
_atom_site_fract_y
_atom_site_fract_z
Si Si1 0.113439 0.297709 0.841494
Si Si2 0.805011 0.112460 0.616342
Si Si3 0.220070 0.496930 0.972430
Si Si4 0.311926 0.805047 0.250000
O O1 0.146915 0.320438 0.750000
O O2 0.175812 0.211276 0.879852
O O3 0.180612 0.442967 0.884068
O O4 0.953928 0.219386 0.855498
O O5 0.772180 0.141545 0.529702
O O6 0.696541 0.119866 0.673204
O O7 0.384102 0.566032 0.984711
O O8 0.190213 0.646620 0.250000
#
# Coordination Sequence:
#
# PCOD8325642 Si02
#       4
#    12  12  12   6
#     4  12  25  43  70 106 139 182 219 294 356 400
#     4  12  23  46  70 100 141 178 234 278 340 414
#     4  10  26  48  66  99 137 185 236 286 337 406
#     4  10  22  38  66 104 124 180 228 270 322 396
#
# _framework density 21.895648000000001
#
# number of rings (size 3 to 8) (size 9 to 14) (size 15 to 20)
#    0.857    0.000    2.857    4.000    0.000    8.000 
#    0.000    2.857    0.000    0.000    0.000    0.000 
#    0.000    0.000    0.000    0.000    0.000    0.000 
#
# Total GULP energy -520808.851460 kJ/mol
# GULP energy per Si atom -12400.210749 kJ/mol
# Density = 2.184581 g / cm^3
# Si number density = 21.895648 Si / 1000 Ang^3
#
#
#
# Elastic Constant Matrix: (Units=GPa)
#
#
# Indices 1 2 3 4 5 6 
#
# 1 59.7662 -9.8029 38.1508 0.0000 0.0000 0.0000
# 2 -9.8029 59.7662 38.1508 0.0000 0.0000 0.0000
# 3 38.1508 38.1508 147.0819 0.0000 0.0000 0.0000
# 4 0.0000 0.0000 0.0000 20.9008 0.0000 0.0000
# 5 0.0000 0.0000 0.0000 0.0000 20.9008 0.0000
# 6 0.0000 0.0000 0.0000 0.0000 0.0000 34.7846
#
#
#
# Elastic Compliance Matrix: (Units=1/GPa)
#
#
# Indices 1 2 3 4 5 6 
#
# 1 0.023759 0.009385 -0.008597 0.000000 0.000000 0.000000
# 2 0.009385 0.023759 -0.008597 0.000000 0.000000 0.000000
# 3 -0.008597 -0.008597 0.011259 0.000000 0.000000 0.000000
# 4 0.000000 0.000000 0.000000 0.047845 0.000000 0.000000
# 5 0.000000 0.000000 0.000000 0.000000 0.047845 0.000000
# 6 0.000000 0.000000 0.000000 0.000000 0.000000 0.028748
#
#
# Mechanical properties :
#
#
# Convention : Reuss Voigt Hill
#
# Bulk Modulus (GPa) = 23.17064 44.40132 33.78598
# Shear Modulus (GPa) = 23.45000 28.65825 26.05413
#
# Velocity S-wave (km/s) = 3.27615 3.62174 3.45327
# Velocity P-wave (km/s) = 4.99161 6.14914 5.60036
#
# Compressibility (1/GPa) = 0.04315807
#
# Stress axis : x y z
#
# Youngs Moduli (GPa) = 42.08957 42.08957 88.81967
#
# Poissons Ratio (x) = -0.39500 0.76358
# Poissons Ratio (y) = -0.39500 0.76358
# Poissons Ratio (z) = 0.36184 0.36184
#
# Static dielectric constant tensor:
#      x y z
#    x 3.825700 0.000000 0.000000 
#    y 0.000000 3.825700 0.000000 
#    z 0.000000 0.000000 3.982110 
# 
# 
# High freq. dielectric constant tensor:
#      x y z
#    x 1.857790 0.000000 0.000000 
#    y 0.000000 1.857790 0.000000 
#    z 0.000000 0.000000 1.869200 
# 
# From -- ./inp_files/3166.got.cif
#   From: 2010.06.25/outbox.cif.g09.slc.cpg/sg176_2_cif.got.tgz:3166.got - 2010.06.28 12:15:01.
