data_PCOD8325415
_publ_section_title
;
Structure prediction by ZEFSAII (Michael W. Deem and Ramdas Pophale) SiO2 
 PCOD8325415
Probable space group: P 63/M
;
_chemical_formula_sum "Si O2"
_cell_formula_units_Z 72
_cell_length_a 23.589127
_cell_length_b 23.589127
_cell_length_c 9.006347
_cell_angle_alpha 90.000000
_cell_angle_beta 90.000000
_cell_angle_gamma 120.000000
_cell_volume 4340.133061
_symmetry_space_group_name_H-M "P 63/M"
_symmetry_group_IT_number 176
_symmetry_cell_setting 'hexagonal'
loop_
_space_group_symop_operation_xyz
x,y,z
x-y,x,1/2+z
-y,x-y,z
-x,-y,1/2+z
-x+y,-x,z
y,-x+y,1/2+z
-x,-y,-z
-x+y,-x,1/2-z
y,-x+y,-z
x,y,1/2-z
x-y,x,-z
-y,x-y,1/2-z
loop_
_atom_site_type_symbol
_atom_site_label
_atom_site_fract_x
_atom_site_fract_y
_atom_site_fract_z
Si Si1 0.067616 0.707958 0.924966
Si Si2 0.142538 0.072981 0.071413
Si Si3 0.590113 0.511743 0.085358
Si Si4 0.070414 0.366421 0.926005
Si Si5 0.518135 0.595855 0.415957
Si Si6 0.851025 0.144181 0.425363
O O1 0.050202 0.703570 0.750000
O O2 0.104180 0.666031 0.957280
O O3 0.112640 0.781425 0.982148
O O4 0.002738 0.679483 0.020489
O O5 0.134048 0.068528 0.250000
O O6 0.218209 0.111707 0.020463
O O7 0.108589 0.110325 0.999989
O O8 0.584861 0.483609 0.250000
O O9 0.554452 0.554250 0.077622
O O10 0.555577 0.448895 0.978404
O O11 0.072005 0.371247 0.750000
O O12 0.110611 0.332910 0.988628
O O13 0.102053 0.440088 0.989639
O O14 0.512209 0.616339 0.250000
O O15 0.848636 0.142669 0.250000
#
# Coordination Sequence:
#
# PCOD8325415 Si02
#       6
#    12  12  12  12  12  12
#     4   9  17  31  47  64  89 120 151 183 226 273
#     4  11  22  37  54  71  90 116 156 205 258 308
#     4   8  14  24  41  63  86 113 143 173 206 248
#     4  10  18  29  45  66  91 118 150 185 225 271
#     4   9  16  26  41  62  89 118 144 171 206 249
#     4   9  19  33  49  68  92 121 152 191 239 291
#
# _framework density 16.589352999999999
#
# number of rings (size 3 to 8) (size 9 to 14) (size 15 to 20)
#    0.000    2.667    0.000    3.667    0.000    4.000 
#    0.000    5.000    0.000    0.000    0.000    0.000 
#    1.667    0.000    3.000    0.000    1.000    0.000 
#
# Total GULP energy -892428.761636 kJ/mol
# GULP energy per Si atom -12394.843912 kJ/mol
# Density = 1.655160 g / cm^3
# Si number density = 16.589353 Si / 1000 Ang^3
#
#
#
# Elastic Constant Matrix: (Units=GPa)
#
#
# Indices 1 2 3 4 5 6 
#
# 1 111.8726 64.9345 45.9080 0.0000 0.0000 0.0000
# 2 64.9345 111.8726 45.9080 0.0000 0.0000 0.0000
# 3 45.9080 45.9080 81.5762 0.0000 0.0000 0.0000
# 4 0.0000 0.0000 0.0000 16.6221 0.0000 0.0000
# 5 0.0000 0.0000 0.0000 0.0000 16.6221 0.0000
# 6 0.0000 0.0000 0.0000 0.0000 0.0000 23.4691
#
#
#
# Elastic Compliance Matrix: (Units=1/GPa)
#
#
# Indices 1 2 3 4 5 6 
#
# 1 0.014648 -0.006657 -0.004497 0.000000 0.000000 0.000000
# 2 -0.006657 0.014648 -0.004497 0.000000 0.000000 0.000000
# 3 -0.004497 -0.004497 0.017320 0.000000 0.000000 0.000000
# 4 0.000000 0.000000 0.000000 0.060161 0.000000 0.000000
# 5 0.000000 0.000000 0.000000 0.000000 0.060161 0.000000
# 6 0.000000 0.000000 0.000000 0.000000 0.000000 0.042609
#
#
# Mechanical properties :
#
#
# Convention : Reuss Voigt Hill
#
# Bulk Modulus (GPa) = 65.29985 68.75805 67.02895
# Shear Modulus (GPa) = 20.32902 21.24738 20.78820
#
# Velocity S-wave (km/s) = 3.50441 3.58269 3.54376
# Velocity P-wave (km/s) = 7.47144 7.65841 7.56550
#
# Compressibility (1/GPa) = 0.01531397
#
# Stress axis : x y z
#
# Youngs Moduli (GPa) = 68.26889 68.26889 57.73609
#
# Poissons Ratio (x) = 0.45444 0.25965
# Poissons Ratio (y) = 0.45444 0.25965
# Poissons Ratio (z) = 0.30702 0.30702
#
# Static dielectric constant tensor:
#      x y z
#    x 3.245660 0.000000 0.000000 
#    y 0.000000 3.245660 0.000000 
#    z 0.000000 0.000000 3.116510 
# 
# 
# High freq. dielectric constant tensor:
#      x y z
#    x 1.622500 0.000000 0.000000 
#    y 0.000000 1.622500 0.000000 
#    z 0.000000 0.000000 1.636370 
# 
# From -- ./inp_files/1198.got.cif
#   From: 2010.06.25/outbox.cif.g09.slc.cpg/sg176_1_cif.got.tgz:1198.got - 2010.06.28 12:15:01.
