data_PCOD8325238
_publ_section_title
;
Structure prediction by ZEFSAII (Michael W. Deem and Ramdas Pophale) SiO2 
 PCOD8325238
Probable space group: P 6/M
;
_chemical_formula_sum "Si O2"
_cell_formula_units_Z 52
_cell_length_a 15.298922
_cell_length_b 15.298922
_cell_length_c 13.102199
_cell_angle_alpha 90.000000
_cell_angle_beta 90.000000
_cell_angle_gamma 120.000000
_cell_volume 2655.806833
_symmetry_space_group_name_H-M "P 6/M"
_symmetry_group_IT_number 175
_symmetry_cell_setting 'hexagonal'
loop_
_space_group_symop_operation_xyz
x,y,z
x-y,x,z
-y,x-y,z
-x,-y,z
-x+y,-x,z
y,-x+y,z
-x,-y,-z
-x+y,-x,-z
y,-x+y,-z
x,y,-z
x-y,x,-z
-y,x-y,-z
loop_
_atom_site_type_symbol
_atom_site_label
_atom_site_fract_x
_atom_site_fract_y
_atom_site_fract_z
Si Si1 0.366818 0.255597 0.799815
Si Si2 0.666667 0.333333 0.380123
Si Si3 0.855070 0.087978 0.384362
Si Si4 0.885193 0.442418 0.277550
Si Si5 0.092897 0.697085 0.114530
O O1 0.327272 0.202028 0.690382
O O2 0.477801 0.347087 0.783918
O O3 0.372901 0.183620 0.883718
O O4 0.295387 0.292389 0.848762
O O5 0.666667 0.333334 0.500000
O O6 0.785452 0.379795 0.348303
O O7 0.828970 0.103848 0.500000
O O8 0.973049 0.151572 0.363020
O O9 0.883752 0.368095 0.192309
O O10 0.000000 0.500000 0.330822
O O11 0.078964 0.653246 0.000000
#
# Coordination Sequence:
#
# PCOD8325238 Si02
#       5
#    12   4  12  12  12
#     4  11  21  39  62  91 127 157 207 259 310 374
#     4  12  24  45  70  95 130 171 210 258 331 389
#     4  10  20  36  62  92 126 167 205 249 301 360
#     4  10  24  44  63  93 126 158 213 263 309 378
#     4  11  23  40  64  89 124 166 208 258 316 372
#
# _framework density 19.579737000000002
#
# number of rings (size 3 to 8) (size 9 to 14) (size 15 to 20)
#    0.000    1.385    4.615    0.923    0.000    7.385 
#    0.000    3.462    0.000    0.000    0.000    3.231 
#    0.000    0.000    0.000    0.000    0.000    0.000 
#
# Total GULP energy -644437.035021 kJ/mol
# GULP energy per Si atom -12393.019904 kJ/mol
# Density = 1.953517 g / cm^3
# Si number density = 19.579737 Si / 1000 Ang^3
#
#
#
# Elastic Constant Matrix: (Units=GPa)
#
#
# Indices 1 2 3 4 5 6 
#
# 1 104.0243 36.5683 39.1573 0.0000 0.0000 0.0001
# 2 36.5683 104.0240 39.1575 0.0000 0.0000 0.0000
# 3 39.1573 39.1575 110.7092 0.0000 0.0000 0.0000
# 4 0.0000 0.0000 0.0000 15.1114 0.0000 0.0000
# 5 0.0000 0.0000 0.0000 0.0000 15.1117 0.0000
# 6 0.0001 0.0000 0.0000 0.0000 0.0000 33.7279
#
#
#
# Elastic Compliance Matrix: (Units=1/GPa)
#
#
# Indices 1 2 3 4 5 6 
#
# 1 0.011841 -0.002983 -0.003133 0.000000 0.000000 0.000000
# 2 -0.002983 0.011841 -0.003133 0.000000 0.000000 0.000000
# 3 -0.003133 -0.003133 0.011249 0.000000 0.000000 0.000000
# 4 0.000000 0.000000 0.000000 0.066175 0.000000 0.000000
# 5 0.000000 0.000000 0.000000 0.000000 0.066174 0.000000
# 6 0.000000 0.000000 0.000000 0.000000 0.000000 0.029649
#
#
# Mechanical properties :
#
#
# Convention : Reuss Voigt Hill
#
# Bulk Modulus (GPa) = 60.85404 60.94710 60.90057
# Shear Modulus (GPa) = 22.63407 26.38182 24.50795
#
# Velocity S-wave (km/s) = 3.40368 3.67468 3.54177
# Velocity P-wave (km/s) = 6.82600 7.01424 6.92076
#
# Compressibility (1/GPa) = 0.01643276
#
# Stress axis : x y z
#
# Youngs Moduli (GPa) = 84.45086 84.45046 88.89723
#
# Poissons Ratio (x) = 0.25194 0.27852
# Poissons Ratio (y) = 0.25194 0.27852
# Poissons Ratio (z) = 0.26458 0.26459
#
# Static dielectric constant tensor:
#      x y z
#    x 3.984810 -0.000010 0.000000 
#    y -0.000010 3.984800 0.000000 
#    z 0.000000 0.000000 3.429710 
# 
# 
# High freq. dielectric constant tensor:
#      x y z
#    x 1.776180 0.000000 0.000000 
#    y 0.000000 1.776180 0.000000 
#    z 0.000000 0.000000 1.747990 
# 
# From -- ./inp_files/2307.got.cif
#   From: 2010.03.12/outbox.cif.g09.slc.cpg/sg175_2_cif.got.tgz:2307.got - 2010.04.02 06:55:29.
