data_PCOD8325491
_publ_section_title
;
Structure prediction by ZEFSAII (Michael W. Deem and Ramdas Pophale) SiO2 
 PCOD8325491
Probable space group: P 63/M
;
_chemical_formula_sum "Si O2"
_cell_formula_units_Z 72
_cell_length_a 22.608375
_cell_length_b 22.608375
_cell_length_c 8.904269
_cell_angle_alpha 90.000000
_cell_angle_beta 90.000000
_cell_angle_gamma 120.000000
_cell_volume 3941.555077
_symmetry_space_group_name_H-M "P 63/M"
_symmetry_group_IT_number 176
_symmetry_cell_setting 'hexagonal'
loop_
_space_group_symop_operation_xyz
x,y,z
x-y,x,1/2+z
-y,x-y,z
-x,-y,1/2+z
-x+y,-x,z
y,-x+y,1/2+z
-x,-y,-z
-x+y,-x,1/2-z
y,-x+y,-z
x,y,1/2-z
x-y,x,-z
-y,x-y,1/2-z
loop_
_atom_site_type_symbol
_atom_site_label
_atom_site_fract_x
_atom_site_fract_y
_atom_site_fract_z
Si Si1 0.874084 0.379203 0.076728
Si Si2 0.013706 0.759188 0.427733
Si Si3 0.713028 0.852095 0.928248
Si Si4 0.210837 0.769950 0.575952
Si Si5 0.638378 0.130747 0.424429
Si Si6 0.371921 0.367808 0.923049
O O1 0.853127 0.373588 0.250000
O O2 0.827034 0.305114 0.999035
O O3 0.861886 0.438130 0.005549
O O4 0.952801 0.401090 0.055142
O O5 0.020231 0.761546 0.250000
O O6 0.939865 0.747051 0.478321
O O7 0.024752 0.698616 0.488360
O O8 0.073284 0.829953 0.496945
O O9 0.715522 0.860165 0.750000
O O10 0.634751 0.814507 0.990278
O O11 0.190255 0.761133 0.750000
O O12 0.291247 0.798754 0.553784
O O13 0.625061 0.108448 0.250000
O O14 0.648643 0.076092 0.514159
O O15 0.357220 0.346278 0.750000
#
# Coordination Sequence:
#
# PCOD8325491 Si02
#       6
#    12  12  12  12  12  12
#     4   9  18  31  49  73 102 138 176 220 274 322
#     4  11  22  36  58  87 114 145 182 219 268 326
#     4  10  20  37  58  81 114 146 174 221 274 318
#     4   9  16  31  51  73 105 139 173 224 280 319
#     4  10  19  33  52  73 102 138 181 227 269 326
#     4  11  20  32  52  77 108 142 176 221 277 324
#
# _framework density 18.266902000000002
#
# number of rings (size 3 to 8) (size 9 to 14) (size 15 to 20)
#    0.000    2.000    3.333    1.500    0.000    1.333 
#    1.000    0.833    0.000    0.333    0.000    0.000 
#    0.000    0.000    0.000    0.000    0.000    0.000 
#
# Total GULP energy -892671.315854 kJ/mol
# GULP energy per Si atom -12398.212720 kJ/mol
# Density = 1.822533 g / cm^3
# Si number density = 18.266902 Si / 1000 Ang^3
#
#
#
# Elastic Constant Matrix: (Units=GPa)
#
#
# Indices 1 2 3 4 5 6 
#
# 1 95.3733 34.7745 24.6104 0.0000 0.0000 0.0000
# 2 34.7745 95.3733 24.6104 0.0000 0.0000 0.0000
# 3 24.6104 24.6104 29.0603 0.0000 0.0000 0.0000
# 4 0.0000 0.0000 0.0000 20.3983 0.0000 0.0000
# 5 0.0000 0.0000 0.0000 0.0000 20.3983 0.0000
# 6 0.0000 0.0000 0.0000 0.0000 0.0000 30.2994
#
#
#
# Elastic Compliance Matrix: (Units=1/GPa)
#
#
# Indices 1 2 3 4 5 6 
#
# 1 0.013903 -0.002599 -0.009573 0.000000 0.000000 0.000000
# 2 -0.002599 0.013903 -0.009573 0.000000 0.000000 0.000000
# 3 -0.009573 -0.009573 0.050626 0.000000 0.000000 0.000000
# 4 0.000000 0.000000 0.000000 0.049024 0.000000 0.000000
# 5 0.000000 0.000000 0.000000 0.000000 0.049024 0.000000
# 6 0.000000 0.000000 0.000000 0.000000 0.000000 0.033004
#
#
# Mechanical properties :
#
#
# Convention : Reuss Voigt Hill
#
# Bulk Modulus (GPa) = 28.61946 43.08864 35.85405
# Shear Modulus (GPa) = 18.89498 23.27328 21.08413
#
# Velocity S-wave (km/s) = 3.21967 3.57328 3.40108
# Velocity P-wave (km/s) = 5.43352 6.37684 5.92398
#
# Compressibility (1/GPa) = 0.03494126
#
# Stress axis : x y z
#
# Youngs Moduli (GPa) = 71.92687 71.92687 19.75287
#
# Poissons Ratio (x) = 0.18694 0.18910
# Poissons Ratio (y) = 0.18694 0.18910
# Poissons Ratio (z) = 0.68856 0.68856
#
# Static dielectric constant tensor:
#      x y z
#    x 3.509300 0.000000 0.000000 
#    y 0.000000 3.509300 0.000000 
#    z 0.000000 0.000000 3.063030 
# 
# 
# High freq. dielectric constant tensor:
#      x y z
#    x 1.707980 0.000000 0.000000 
#    y 0.000000 1.707980 0.000000 
#    z 0.000000 0.000000 1.672980 
# 
# From -- ./inp_files/1138.got.cif
#   From: 2010.06.25/outbox.cif.g09.slc.cpg/sg176_1_cif.got.tgz:1138.got - 2010.06.28 12:15:01.
