data_PCOD8325651
_publ_section_title
;
Structure prediction by ZEFSAII (Michael W. Deem and Ramdas Pophale) SiO2 
 PCOD8325651
Probable space group: P 63/M
;
_chemical_formula_sum "Si O2"
_cell_formula_units_Z 48
_cell_length_a 19.199892
_cell_length_b 19.199892
_cell_length_c 7.616283
_cell_angle_alpha 90.000000
_cell_angle_beta 90.000000
_cell_angle_gamma 120.000000
_cell_volume 2431.483216
_symmetry_space_group_name_H-M "P 63/M"
_symmetry_group_IT_number 176
_symmetry_cell_setting 'hexagonal'
loop_
_space_group_symop_operation_xyz
x,y,z
x-y,x,1/2+z
-y,x-y,z
-x,-y,1/2+z
-x+y,-x,z
y,-x+y,1/2+z
-x,-y,-z
-x+y,-x,1/2-z
y,-x+y,-z
x,y,1/2-z
x-y,x,-z
-y,x-y,1/2-z
loop_
_atom_site_type_symbol
_atom_site_label
_atom_site_fract_x
_atom_site_fract_y
_atom_site_fract_z
Si Si1 0.723028 0.710816 0.051806
Si Si2 0.796811 0.519371 0.750000
Si Si3 0.535356 0.944716 0.553731
Si Si4 0.350422 0.190619 0.450556
Si Si5 0.830630 0.378218 0.750000
O O1 0.745236 0.741601 0.250000
O O2 0.635749 0.631338 0.039927
O O3 0.791619 0.692982 0.977297
O O4 0.715107 0.779530 0.947145
O O5 0.822024 0.574980 0.576663
O O6 0.839690 0.465936 0.750000
O O7 0.703291 0.448270 0.750000
O O8 0.507838 0.911231 0.750000
O O9 0.503269 0.870240 0.424382
O O10 0.500000 0.000000 0.500000
O O11 0.381224 0.193107 0.250000
#
# Coordination Sequence:
#
# PCOD8325651 Si02
#       5
#    12   6  12  12   6
#     4  10  22  40  61  95 126 161 211 260 320 381
#     4  12  25  44  60  91 127 167 215 259 317 384
#     4  11  22  37  59  90 120 155 209 260 310 369
#     4  11  24  40  66  93 130 166 211 266 320 377
#     4  12  25  40  62  83 123 169 203 257 313 374
#
# _framework density 19.741036000000001
#
# number of rings (size 3 to 8) (size 9 to 14) (size 15 to 20)
#    0.000    1.000    5.000    1.750    3.500    3.000 
#    0.000    0.000    0.000    3.500    0.000    0.000 
#    0.000    0.000    0.000    0.000    0.000    0.000 
#
# Total GULP energy -594984.901083 kJ/mol
# GULP energy per Si atom -12395.518773 kJ/mol
# Density = 1.969610 g / cm^3
# Si number density = 19.741036 Si / 1000 Ang^3
#
#
#
# Elastic Constant Matrix: (Units=GPa)
#
#
# Indices 1 2 3 4 5 6 
#
# 1 100.9703 30.0095 29.8229 0.0000 0.0000 0.0000
# 2 30.0095 100.9703 29.8229 0.0000 0.0000 0.0000
# 3 29.8229 29.8229 116.1590 0.0000 0.0000 0.0000
# 4 0.0000 0.0000 0.0000 20.4554 0.0000 0.0000
# 5 0.0000 0.0000 0.0000 0.0000 20.4554 0.0000
# 6 0.0000 0.0000 0.0000 0.0000 0.0000 35.4804
#
#
#
# Elastic Compliance Matrix: (Units=1/GPa)
#
#
# Indices 1 2 3 4 5 6 
#
# 1 0.011369 -0.002723 -0.002220 0.000000 0.000000 0.000000
# 2 -0.002723 0.011369 -0.002220 0.000000 0.000000 0.000000
# 3 -0.002220 -0.002220 0.009749 0.000000 0.000000 0.000000
# 4 0.000000 0.000000 0.000000 0.048887 0.000000 0.000000
# 5 0.000000 0.000000 0.000000 0.000000 0.048887 0.000000
# 6 0.000000 0.000000 0.000000 0.000000 0.000000 0.028185
#
#
# Mechanical properties :
#
#
# Convention : Reuss Voigt Hill
#
# Bulk Modulus (GPa) = 55.06285 55.26782 55.16533
# Shear Modulus (GPa) = 27.96046 30.50786 29.23416
#
# Velocity S-wave (km/s) = 3.76754 3.93543 3.85240
# Velocity P-wave (km/s) = 6.84682 6.97906 6.91326
#
# Compressibility (1/GPa) = 0.01816107
#
# Stress axis : x y z
#
# Youngs Moduli (GPa) = 87.95908 87.95908 102.57816
#
# Poissons Ratio (x) = 0.23954 0.22769
# Poissons Ratio (y) = 0.23954 0.22769
# Poissons Ratio (z) = 0.19524 0.19524
#
# Static dielectric constant tensor:
#      x y z
#    x 3.464450 0.000000 0.000000 
#    y 0.000000 3.464450 0.000000 
#    z 0.000000 0.000000 3.792980 
# 
# 
# High freq. dielectric constant tensor:
#      x y z
#    x 1.760570 0.000000 0.000000 
#    y 0.000000 1.760570 0.000000 
#    z 0.000000 0.000000 1.780680 
# 
# From -- ./inp_files/667.got.cif
#   From: 2010.06.25/outbox.cif.g09.slc.cpg/sg176_1_cif.got.tgz:667.got - 2010.06.28 12:15:01.
