data_PCOD8325644
_publ_section_title
;
Structure prediction by ZEFSAII (Michael W. Deem and Ramdas Pophale) SiO2 
 PCOD8325644
Probable space group: P 63/M
;
_chemical_formula_sum "Si O2"
_cell_formula_units_Z 72
_cell_length_a 22.444207
_cell_length_b 22.444207
_cell_length_c 8.860085
_cell_angle_alpha 90.000000
_cell_angle_beta 90.000000
_cell_angle_gamma 120.000000
_cell_volume 3865.245213
_symmetry_space_group_name_H-M "P 63/M"
_symmetry_group_IT_number 176
_symmetry_cell_setting 'hexagonal'
loop_
_space_group_symop_operation_xyz
x,y,z
x-y,x,1/2+z
-y,x-y,z
-x,-y,1/2+z
-x+y,-x,z
y,-x+y,1/2+z
-x,-y,-z
-x+y,-x,1/2-z
y,-x+y,-z
x,y,1/2-z
x-y,x,-z
-y,x-y,1/2-z
loop_
_atom_site_type_symbol
_atom_site_label
_atom_site_fract_x
_atom_site_fract_y
_atom_site_fract_z
Si Si1 0.135221 0.632308 0.925197
Si Si2 0.359087 0.860496 0.920243
Si Si3 0.749030 0.748806 0.071626
Si Si4 0.618062 0.992277 0.078256
Si Si5 0.138506 0.850230 0.427735
Si Si6 0.447505 0.219715 0.925847
O O1 0.117998 0.633279 0.750000
O O2 0.156875 0.575421 0.958480
O O3 0.069653 0.616093 0.023629
O O4 0.198468 0.705031 0.975060
O O5 0.330909 0.836562 0.750000
O O6 0.390252 0.941586 0.936610
O O7 0.299275 0.823685 0.041720
O O8 0.752802 0.747256 0.250000
O O9 0.743551 0.814630 0.016701
O O10 0.681426 0.680185 0.020686
O O11 0.818005 0.754022 0.004620
O O12 0.631451 0.978522 0.250000
O O13 0.128386 0.847493 0.250000
O O14 0.174704 0.806625 0.476416
O O15 0.455905 0.209576 0.750000
#
# Coordination Sequence:
#
# PCOD8325644 Si02
#       6
#    12  12  12  12  12  12
#     4  11  23  39  58  82 114 152 196 240 290 349
#     4  10  23  40  58  82 113 153 195 239 292 348
#     4  11  22  37  61  90 121 158 192 233 291 347
#     4  11  21  35  58  87 117 149 188 236 291 345
#     4  10  22  39  59  90 125 153 193 242 286 344
#     4  11  22  38  60  85 115 151 194 247 297 346
#
# _framework density 18.627538999999999
#
# number of rings (size 3 to 8) (size 9 to 14) (size 15 to 20)
#    0.000    1.333    3.333    2.500    0.000    4.000 
#    1.000    0.000    0.000    0.333    0.000    0.000 
#    0.000    0.000    0.000    0.000    0.000    0.000 
#
# Total GULP energy -893148.883079 kJ/mol
# GULP energy per Si atom -12404.845598 kJ/mol
# Density = 1.858514 g / cm^3
# Si number density = 18.627539 Si / 1000 Ang^3
#
#
#
# Elastic Constant Matrix: (Units=GPa)
#
#
# Indices 1 2 3 4 5 6 
#
# 1 94.5934 33.2230 33.9814 0.0000 0.0000 0.0000
# 2 33.2230 94.5934 33.9814 0.0000 0.0000 0.0000
# 3 33.9814 33.9814 30.5228 0.0000 0.0000 0.0000
# 4 0.0000 0.0000 0.0000 30.7932 0.0000 0.0000
# 5 0.0000 0.0000 0.0000 0.0000 30.7932 0.0000
# 6 0.0000 0.0000 0.0000 0.0000 0.0000 30.6852
#
#
#
# Elastic Compliance Matrix: (Units=1/GPa)
#
#
# Indices 1 2 3 4 5 6 
#
# 1 0.017735 0.001440 -0.021347 0.000000 0.000000 0.000000
# 2 0.001440 0.017735 -0.021347 0.000000 0.000000 0.000000
# 3 -0.021347 -0.021347 0.080295 0.000000 0.000000 0.000000
# 4 0.000000 0.000000 0.000000 0.032475 0.000000 0.000000
# 5 0.000000 0.000000 0.000000 0.000000 0.032475 0.000000
# 6 0.000000 0.000000 0.000000 0.000000 0.000000 0.032589
#
#
# Mechanical properties :
#
#
# Convention : Reuss Voigt Hill
#
# Bulk Modulus (GPa) = 30.07088 46.89792 38.48440
# Shear Modulus (GPa) = 16.29217 26.35590 21.32403
#
# Velocity S-wave (km/s) = 2.96062 3.76558 3.38710
# Velocity P-wave (km/s) = 5.27876 6.64360 6.00012
#
# Compressibility (1/GPa) = 0.03325477
#
# Stress axis : x y z
#
# Youngs Moduli (GPa) = 56.38723 56.38723 12.45414
#
# Poissons Ratio (x) = -0.08120 0.26586
# Poissons Ratio (y) = -0.08120 0.26586
# Poissons Ratio (z) = 1.20371 1.20371
#
# Static dielectric constant tensor:
#      x y z
#    x 3.487850 0.000000 0.000000 
#    y 0.000000 3.487850 0.000000 
#    z 0.000000 0.000000 3.461640 
# 
# 
# High freq. dielectric constant tensor:
#      x y z
#    x 1.720800 0.000000 0.000000 
#    y 0.000000 1.720800 0.000000 
#    z 0.000000 0.000000 1.731060 
# 
# From -- ./inp_files/1194.got.cif
#   From: 2010.06.25/outbox.cif.g09.slc.cpg/sg176_1_cif.got.tgz:1194.got - 2010.06.28 12:15:01.
