data_PCOD8325489
_publ_section_title
;
Structure prediction by ZEFSAII (Michael W. Deem and Ramdas Pophale) SiO2 
 PCOD8325489
Probable space group: P 63/M
;
_chemical_formula_sum "Si O2"
_cell_formula_units_Z 48
_cell_length_a 20.304709
_cell_length_b 20.304709
_cell_length_c 8.697802
_cell_angle_alpha 90.000000
_cell_angle_beta 90.000000
_cell_angle_gamma 120.000000
_cell_volume 3105.515406
_symmetry_space_group_name_H-M "P 63/M"
_symmetry_group_IT_number 176
_symmetry_cell_setting 'hexagonal'
loop_
_space_group_symop_operation_xyz
x,y,z
x-y,x,1/2+z
-y,x-y,z
-x,-y,1/2+z
-x+y,-x,z
y,-x+y,1/2+z
-x,-y,-z
-x+y,-x,1/2-z
y,-x+y,-z
x,y,1/2-z
x-y,x,-z
-y,x-y,1/2-z
loop_
_atom_site_type_symbol
_atom_site_label
_atom_site_fract_x
_atom_site_fract_y
_atom_site_fract_z
Si Si1 0.899201 0.468708 0.424653
Si Si2 0.682418 0.554926 0.930179
Si Si3 0.564003 0.738199 0.922369
Si Si4 0.024817 0.378712 0.069558
O O1 0.925985 0.466279 0.250000
O O2 0.866499 0.388120 0.505239
O O3 0.828760 0.485666 0.421743
O O4 0.967888 0.539509 0.519973
O O5 0.673952 0.559188 0.750000
O O6 0.759095 0.554746 0.968115
O O7 0.686011 0.629127 0.007910
O O8 0.586129 0.771685 0.750000
O O9 0.629678 0.722197 0.990215
O O10 0.030295 0.372594 0.250000
#
# Coordination Sequence:
#
# PCOD8325489 Si02
#       4
#    12  12  12  12
#     4   9  19  34  49  66  90 116 153 193 228 270
#     4  12  21  31  50  69  90 121 153 185 231 274
#     4   9  20  35  48  66  90 114 151 192 230 270
#     4  10  19  33  50  68  91 116 151 190 226 271
#
# _framework density 15.456372
#
# number of rings (size 3 to 8) (size 9 to 14) (size 15 to 20)
#    1.500    0.500    0.000    6.000    0.000    0.000 
#    1.500    0.000    0.000    0.000    0.000    0.000 
#    0.000    0.000    0.000    0.750    0.000   10.500 
#
# Total GULP energy -594845.109128 kJ/mol
# GULP energy per Si atom -12392.606440 kJ/mol
# Density = 1.542119 g / cm^3
# Si number density = 15.456372 Si / 1000 Ang^3
#
#
#
# Elastic Constant Matrix: (Units=GPa)
#
#
# Indices 1 2 3 4 5 6 
#
# 1 44.9250 20.4946 22.0156 0.0000 0.0000 0.0000
# 2 20.4946 44.9250 22.0156 0.0000 0.0000 0.0000
# 3 22.0156 22.0156 120.7159 0.0000 0.0000 0.0000
# 4 0.0000 0.0000 0.0000 26.2873 0.0000 0.0000
# 5 0.0000 0.0000 0.0000 0.0000 26.2873 0.0000
# 6 0.0000 0.0000 0.0000 0.0000 0.0000 12.2152
#
#
#
# Elastic Compliance Matrix: (Units=1/GPa)
#
#
# Indices 1 2 3 4 5 6 
#
# 1 0.029179 -0.011754 -0.003178 0.000000 0.000000 0.000000
# 2 -0.011754 0.029179 -0.003178 0.000000 0.000000 0.000000
# 3 -0.003178 -0.003178 0.009443 0.000000 0.000000 0.000000
# 4 0.000000 0.000000 0.000000 0.038041 0.000000 0.000000
# 5 0.000000 0.000000 0.000000 0.000000 0.038041 0.000000
# 6 0.000000 0.000000 0.000000 0.000000 0.000000 0.081865
#
#
# Mechanical properties :
#
#
# Convention : Reuss Voigt Hill
#
# Bulk Modulus (GPa) = 31.66435 37.73529 34.69982
# Shear Modulus (GPa) = 18.34901 22.69395 20.52148
#
# Velocity S-wave (km/s) = 3.44924 3.83594 3.64772
# Velocity P-wave (km/s) = 6.03272 6.63976 6.34350
#
# Compressibility (1/GPa) = 0.03158125
#
# Stress axis : x y z
#
# Youngs Moduli (GPa) = 34.27157 34.27157 105.89805
#
# Poissons Ratio (x) = 0.40282 0.33653
# Poissons Ratio (y) = 0.40282 0.33653
# Poissons Ratio (z) = 0.10891 0.10891
#
# Static dielectric constant tensor:
#      x y z
#    x 2.731780 0.000000 0.000000 
#    y 0.000000 2.731780 0.000000 
#    z 0.000000 0.000000 3.045820 
# 
# 
# High freq. dielectric constant tensor:
#      x y z
#    x 1.563210 0.000000 0.000000 
#    y 0.000000 1.563210 0.000000 
#    z 0.000000 0.000000 1.618200 
# 
# From -- ./inp_files/779.got.cif
#   From: 2010.06.25/outbox.cif.g09.slc.cpg/sg176_1_cif.got.tgz:779.got - 2010.06.28 12:15:01.
