data_PCOD8325043
_publ_section_title
;
Structure prediction by ZEFSAII (Michael W. Deem and Ramdas Pophale) SiO2 
 PCOD8325043
Probable space group: P 6/M
;
_chemical_formula_sum "Si O2"
_cell_formula_units_Z 76
_cell_length_a 18.229648
_cell_length_b 18.229648
_cell_length_c 13.454222
_cell_angle_alpha 90.000000
_cell_angle_beta 90.000000
_cell_angle_gamma 120.000000
_cell_volume 3872.093064
_symmetry_space_group_name_H-M "P 6/M"
_symmetry_group_IT_number 175
_symmetry_cell_setting 'hexagonal'
loop_
_space_group_symop_operation_xyz
x,y,z
x-y,x,z
-y,x-y,z
-x,-y,z
-x+y,-x,z
y,-x+y,z
-x,-y,-z
-x+y,-x,-z
y,-x+y,-z
x,y,-z
x-y,x,-z
-y,x-y,-z
loop_
_atom_site_type_symbol
_atom_site_label
_atom_site_fract_x
_atom_site_fract_y
_atom_site_fract_z
Si Si1 0.666668 0.333335 0.377664
Si Si2 0.209452 0.377567 0.887508
Si Si3 0.037732 0.598412 0.612388
Si Si4 0.177772 0.144423 0.310427
Si Si5 0.726344 0.516631 0.295672
Si Si6 0.019219 0.244942 0.886714
Si Si7 0.902494 0.640617 0.614349
O O1 0.666667 0.333334 0.500000
O O2 0.716811 0.428164 0.332874
O O3 0.258777 0.463732 0.822368
O O4 0.107114 0.334766 0.872189
O O5 0.244804 0.312888 0.861573
O O6 0.233555 0.408347 0.000000
O O7 0.058696 0.634665 0.500000
O O8 0.124118 0.642976 0.673692
O O9 0.000000 0.500000 0.613635
O O10 0.965415 0.612302 0.662902
O O11 0.103540 0.157966 0.348744
O O12 0.183076 0.154278 0.190412
O O13 0.260810 0.210549 0.366804
O O14 0.809257 0.595109 0.341419
O O15 0.014879 0.212645 0.000000
O O16 0.891991 0.616597 0.500000
#
# Coordination Sequence:
#
# PCOD8325043 Si02
#       7
#     4  12  12  12  12  12  12
#     4  12  27  45  67  98 127 162 201 249 316 380
#     4  10  21  37  63  94 127 166 212 262 313 367
#     4  10  21  37  59  89 121 154 197 255 313 371
#     4  12  23  36  51  79 117 162 209 255 307 361
#     4  12  23  41  66  91 126 162 201 252 314 379
#     4  10  18  33  58  89 122 158 206 259 306 358
#     4  11  22  37  60  85 112 153 206 257 311 375
#
# _framework density 19.627625999999999
#
# number of rings (size 3 to 8) (size 9 to 14) (size 15 to 20)
#    0.000    1.105    3.158    4.421    0.000    3.158 
#    0.000    0.789    0.000    2.368    0.000    0.000 
#    0.000    0.000    0.000    0.000    0.000    0.000 
#
# Total GULP energy -941941.287726 kJ/mol
# GULP energy per Si atom -12393.964312 kJ/mol
# Density = 1.958295 g / cm^3
# Si number density = 19.627626 Si / 1000 Ang^3
#
#
#
# Elastic Constant Matrix: (Units=GPa)
#
#
# Indices 1 2 3 4 5 6 
#
# 1 453.9108 -329.6415 31.8961 0.0000 0.0000 -0.1585
# 2 -329.6415 453.9079 31.8932 0.0000 0.0000 0.1623
# 3 31.8961 31.8932 69.5951 0.0000 0.0000 0.0085
# 4 0.0000 0.0000 0.0000 -119.6478 0.1873 0.0000
# 5 0.0000 0.0000 0.0000 0.1873 -119.6478 0.0000
# 6 -0.1585 0.1623 0.0085 0.0000 0.0000 391.5112
#
#
#
# Elastic Compliance Matrix: (Units=1/GPa)
#
#
# Indices 1 2 3 4 5 6 
#
# 1 0.005899 0.004623 -0.004822 0.000000 0.000000 0.000001
# 2 0.004623 0.005899 -0.004822 0.000000 0.000000 0.000000
# 3 -0.004822 -0.004822 0.018789 0.000000 0.000000 0.000000
# 4 0.000000 0.000000 0.000000 -0.008358 -0.000013 0.000000
# 5 0.000000 0.000000 0.000000 -0.000013 -0.008358 0.000000
# 6 0.000001 0.000000 0.000000 0.000000 0.000000 0.002554
#
#
# Mechanical properties :
#
#
# Convention : Reuss Voigt Hill
#
# Bulk Modulus (GPa) = 48.67474 49.52327 49.09900
# Shear Modulus (GPa) = 150.07159 113.32754 131.69957
#
# Velocity S-wave (km/s) = 8.75359 7.60685 8.20029
# Velocity P-wave (km/s) = 11.27032 10.12118 10.71117
#
# Compressibility (1/GPa) = 0.02054454
#
# Stress axis : x y z
#
# Youngs Moduli (GPa) = 169.50894 169.50888 53.22295
#
# Poissons Ratio (x) = -0.78367 0.25666
# Poissons Ratio (y) = -0.78367 0.25666
# Poissons Ratio (z) = 0.81744 0.81743
#
# Static dielectric constant tensor:
#      x y z
#    x 3.605700 0.000010 0.000000 
#    y 0.000010 3.605680 0.000000 
#    z 0.000000 0.000000 3.726280 
# 
# 
# High freq. dielectric constant tensor:
#      x y z
#    x 1.760470 0.000000 0.000000 
#    y 0.000000 1.760470 0.000000 
#    z 0.000000 0.000000 1.763740 
# 
# From -- ./inp_files/2554.got.cif
#   From: 2010.03.12/outbox.cif.g09.slc.cpg/sg175_2_cif.got.tgz:2554.got - 2010.04.02 06:55:29.
