data_PCOD8325411
_publ_section_title
;
Structure prediction by ZEFSAII (Michael W. Deem and Ramdas Pophale) SiO2 
 PCOD8325411
Probable space group: P 63/M
;
_chemical_formula_sum "Si O2"
_cell_formula_units_Z 72
_cell_length_a 23.210175
_cell_length_b 23.210175
_cell_length_c 9.031119
_cell_angle_alpha 90.000000
_cell_angle_beta 90.000000
_cell_angle_gamma 120.000000
_cell_volume 4213.364449
_symmetry_space_group_name_H-M "P 63/M"
_symmetry_group_IT_number 176
_symmetry_cell_setting 'hexagonal'
loop_
_space_group_symop_operation_xyz
x,y,z
x-y,x,1/2+z
-y,x-y,z
-x,-y,1/2+z
-x+y,-x,z
y,-x+y,1/2+z
-x,-y,-z
-x+y,-x,1/2-z
y,-x+y,-z
x,y,1/2-z
x-y,x,-z
-y,x-y,1/2-z
loop_
_atom_site_type_symbol
_atom_site_label
_atom_site_fract_x
_atom_site_fract_y
_atom_site_fract_z
Si Si1 0.263343 0.398350 0.080943
Si Si2 0.786995 0.449779 0.079502
Si Si3 0.212070 0.666644 0.423708
Si Si4 0.203022 0.268511 0.923180
Si Si5 0.152333 0.404898 0.916129
Si Si6 0.739350 0.805732 0.917987
O O1 0.261046 0.377278 0.250000
O O2 0.325334 0.472371 0.049788
O O3 0.262059 0.339473 0.984238
O O4 0.199140 0.404385 0.044196
O O5 0.774517 0.425824 0.250000
O O6 0.848624 0.526257 0.068131
O O7 0.808543 0.406174 0.982461
O O8 0.719702 0.443986 0.015869
O O9 0.230718 0.674113 0.250000
O O10 0.210418 0.269956 0.750000
O O11 0.130946 0.256838 0.971755
O O12 0.211685 0.208445 0.984464
O O13 0.179889 0.402592 0.750000
O O14 0.081364 0.337193 0.934210
O O15 0.764148 0.813281 0.750000
#
# Coordination Sequence:
#
# PCOD8325411 Si02
#       6
#    12  12  12  12  12  12
#     4   9  17  29  46  66  90 123 158 195 239 280
#     4  10  18  28  43  62  87 122 161 201 248 296
#     4  10  19  29  41  61  90 122 159 203 248 293
#     4  10  20  33  52  78 103 126 154 188 224 266
#     4   8  16  30  46  66  92 121 156 198 239 279
#     4   9  18  33  52  75 102 126 150 185 226 267
#
# _framework density 17.088483
#
# number of rings (size 3 to 8) (size 9 to 14) (size 15 to 20)
#    0.000    2.667    0.000    3.333    0.000    6.000 
#    0.000    0.000    0.000    1.333    0.000    0.000 
#    0.000    0.000    0.000    0.000    0.000    0.000 
#
# Total GULP energy -892126.071282 kJ/mol
# GULP energy per Si atom -12390.639879 kJ/mol
# Density = 1.704959 g / cm^3
# Si number density = 17.088483 Si / 1000 Ang^3
#
#
#
# Elastic Constant Matrix: (Units=GPa)
#
#
# Indices 1 2 3 4 5 6 
#
# 1 86.7463 47.0705 42.6417 0.0000 0.0000 0.0000
# 2 47.0705 86.7463 42.6417 0.0000 0.0000 0.0000
# 3 42.6417 42.6417 77.2170 0.0000 0.0000 0.0000
# 4 0.0000 0.0000 0.0000 25.6478 0.0000 0.0000
# 5 0.0000 0.0000 0.0000 0.0000 25.6478 0.0000
# 6 0.0000 0.0000 0.0000 0.0000 0.0000 19.8379
#
#
#
# Elastic Compliance Matrix: (Units=1/GPa)
#
#
# Indices 1 2 3 4 5 6 
#
# 1 0.018368 -0.006836 -0.006368 0.000000 0.000000 0.000000
# 2 -0.006836 0.018368 -0.006368 0.000000 0.000000 0.000000
# 3 -0.006368 -0.006368 0.019984 0.000000 0.000000 0.000000
# 4 0.000000 0.000000 0.000000 0.038990 0.000000 0.000000
# 5 0.000000 0.000000 0.000000 0.000000 0.038990 0.000000
# 6 0.000000 0.000000 0.000000 0.000000 0.000000 0.050408
#
#
# Mechanical properties :
#
#
# Convention : Reuss Voigt Hill
#
# Bulk Modulus (GPa) = 56.90072 57.26861 57.08467
# Shear Modulus (GPa) = 21.72875 22.11711 21.92293
#
# Velocity S-wave (km/s) = 3.56974 3.60150 3.58565
# Velocity P-wave (km/s) = 7.09653 7.13303 7.11480
#
# Compressibility (1/GPa) = 0.01757447
#
# Stress axis : x y z
#
# Youngs Moduli (GPa) = 54.44321 54.44321 50.04081
#
# Poissons Ratio (x) = 0.37220 0.31866
# Poissons Ratio (y) = 0.37220 0.31866
# Poissons Ratio (z) = 0.34669 0.34669
#
# Static dielectric constant tensor:
#      x y z
#    x 3.112580 0.000000 0.000000 
#    y 0.000000 3.112580 0.000000 
#    z 0.000000 0.000000 3.269180 
# 
# 
# High freq. dielectric constant tensor:
#      x y z
#    x 1.633620 0.000000 0.000000 
#    y 0.000000 1.633620 0.000000 
#    z 0.000000 0.000000 1.673460 
# 
# From -- ./inp_files/1152.got.cif
#   From: 2010.06.25/outbox.cif.g09.slc.cpg/sg176_1_cif.got.tgz:1152.got - 2010.06.28 12:15:01.
