data_PCOD8325664
_publ_section_title
;
Structure prediction by ZEFSAII (Michael W. Deem and Ramdas Pophale) SiO2 
 PCOD8325664
Probable space group: P 63/M
;
_chemical_formula_sum "Si O2"
_cell_formula_units_Z 84
_cell_length_a 17.454020
_cell_length_b 17.454020
_cell_length_c 14.571566
_cell_angle_alpha 90.000000
_cell_angle_beta 90.000000
_cell_angle_gamma 120.000000
_cell_volume 3844.393179
_symmetry_space_group_name_H-M "P 63/M"
_symmetry_group_IT_number 176
_symmetry_cell_setting 'hexagonal'
loop_
_space_group_symop_operation_xyz
x,y,z
x-y,x,1/2+z
-y,x-y,z
-x,-y,1/2+z
-x+y,-x,z
y,-x+y,1/2+z
-x,-y,-z
-x+y,-x,1/2-z
y,-x+y,-z
x,y,1/2-z
x-y,x,-z
-y,x-y,1/2-z
loop_
_atom_site_type_symbol
_atom_site_label
_atom_site_fract_x
_atom_site_fract_y
_atom_site_fract_z
Si Si1 0.422841 0.560976 0.351006
Si Si2 0.129766 0.696870 0.930819
Si Si3 0.747946 0.997890 0.011908
Si Si4 0.621271 0.753417 0.850976
Si Si5 0.506656 0.447349 0.143732
Si Si6 0.268460 0.151340 0.641766
Si Si7 0.472012 0.243974 0.598552
O O1 0.463713 0.589045 0.250000
O O2 0.445995 0.488289 0.391928
O O3 0.470790 0.650401 0.408930
O O4 0.317534 0.519236 0.341911
O O5 0.046977 0.692894 0.983306
O O6 0.168252 0.764983 0.845144
O O7 0.106892 0.599092 0.908433
O O8 0.214815 0.741953 0.995596
O O9 0.801598 0.023786 0.914746
O O10 0.765367 0.938962 0.084500
O O11 0.780078 0.088648 0.067194
O O12 0.658832 0.749134 0.750000
O O13 0.540270 0.656624 0.874611
O O14 0.527451 0.469731 0.250000
O O15 0.238842 0.135093 0.750000
O O16 0.374681 0.212319 0.638891
#
# Coordination Sequence:
#
# PCOD8325664 Si02
#       7
#    12  12  12  12  12  12  12
#     4  11  22  38  60  89 127 172 221 270 334 399
#     4  11  24  39  62  91 131 166 222 277 327 396
#     4  11  22  43  66 102 132 166 220 267 332 404
#     4  11  23  43  66  91 129 174 223 275 329 390
#     4  10  23  40  62  88 121 176 227 274 333 394
#     4  11  23  42  68 100 139 175 215 273 329 391
#     4  11  23  37  58  92 129 175 223 276 335 386
#
# _framework density 21.850002
#
# number of rings (size 3 to 8) (size 9 to 14) (size 15 to 20)
#    0.000    1.143    2.857    5.000    2.000    4.571 
#    0.857    0.000    0.000    0.286    0.000    0.000 
#    0.000    0.000    0.000    0.000    0.000    0.000 
#
# Total GULP energy -1040999.056189 kJ/mol
# GULP energy per Si atom -12392.845907 kJ/mol
# Density = 2.180027 g / cm^3
# Si number density = 21.850002 Si / 1000 Ang^3
#
#
#
# Elastic Constant Matrix: (Units=GPa)
#
#
# Indices 1 2 3 4 5 6 
#
# 1 67.3885 15.9720 29.4990 0.0000 0.0000 0.0000
# 2 15.9720 67.3885 29.4990 0.0000 0.0000 0.0000
# 3 29.4990 29.4990 126.7768 0.0000 0.0000 0.0000
# 4 0.0000 0.0000 0.0000 22.7689 0.0000 0.0000
# 5 0.0000 0.0000 0.0000 0.0000 22.7689 0.0000
# 6 0.0000 0.0000 0.0000 0.0000 0.0000 25.7082
#
#
#
# Elastic Compliance Matrix: (Units=1/GPa)
#
#
# Indices 1 2 3 4 5 6 
#
# 1 0.016905 -0.002544 -0.003342 0.000000 0.000000 0.000000
# 2 -0.002544 0.016905 -0.003342 0.000000 0.000000 0.000000
# 3 -0.003342 -0.003342 0.009443 0.000000 0.000000 0.000000
# 4 0.000000 0.000000 0.000000 0.043920 0.000000 0.000000
# 5 0.000000 0.000000 0.000000 0.000000 0.043920 0.000000
# 6 0.000000 0.000000 0.000000 0.000000 0.000000 0.038898
#
#
# Mechanical properties :
#
#
# Convention : Reuss Voigt Hill
#
# Bulk Modulus (GPa) = 40.32467 45.72156 43.02312
# Shear Modulus (GPa) = 25.41802 26.68812 26.05307
#
# Velocity S-wave (km/s) = 3.41441 3.49868 3.45680
# Velocity P-wave (km/s) = 5.83434 6.10669 5.97207
#
# Compressibility (1/GPa) = 0.02479871
#
# Stress axis : x y z
#
# Youngs Moduli (GPa) = 59.15390 59.15390 105.89903
#
# Poissons Ratio (x) = 0.15049 0.35387
# Poissons Ratio (y) = 0.15049 0.35387
# Poissons Ratio (z) = 0.19767 0.19767
#
# Static dielectric constant tensor:
#      x y z
#    x 3.882460 0.000000 0.000000 
#    y 0.000000 3.882460 0.000000 
#    z 0.000000 0.000000 4.164360 
# 
# 
# High freq. dielectric constant tensor:
#      x y z
#    x 1.845630 0.000000 0.000000 
#    y 0.000000 1.845630 0.000000 
#    z 0.000000 0.000000 1.878120 
# 
# From -- ./inp_files/2927.got.cif
#   From: 2010.06.25/outbox.cif.g09.slc.cpg/sg176_2_cif.got.tgz:2927.got - 2010.06.28 12:15:01.
