data_PCOD8325272
_publ_section_title
;
Structure prediction by ZEFSAII (Michael W. Deem and Ramdas Pophale) SiO2 
 PCOD8325272
Probable space group: P 6/M
;
_chemical_formula_sum "Si O2"
_cell_formula_units_Z 72
_cell_length_a 22.806713
_cell_length_b 22.806713
_cell_length_c 8.500213
_cell_angle_alpha 90.000000
_cell_angle_beta 90.000000
_cell_angle_gamma 120.000000
_cell_volume 3829.004132
_symmetry_space_group_name_H-M "P 6/M"
_symmetry_group_IT_number 175
_symmetry_cell_setting 'hexagonal'
loop_
_space_group_symop_operation_xyz
x,y,z
x-y,x,z
-y,x-y,z
-x,-y,z
-x+y,-x,z
y,-x+y,z
-x,-y,-z
-x+y,-x,-z
y,-x+y,-z
x,y,-z
x-y,x,-z
-y,x-y,-z
loop_
_atom_site_type_symbol
_atom_site_label
_atom_site_fract_x
_atom_site_fract_y
_atom_site_fract_z
Si Si1 0.479948 0.403523 0.317034
Si Si2 0.390117 0.131129 0.684800
Si Si3 0.995490 0.861760 0.181320
Si Si4 0.264679 0.257694 0.681242
Si Si5 0.262405 0.869058 0.182924
Si Si6 0.530630 0.931185 0.816603
O O1 0.497082 0.414671 0.500000
O O2 0.454123 0.326394 0.270724
O O3 0.421521 0.421516 0.278379
O O4 0.548097 0.452077 0.221165
O O5 0.401899 0.139620 0.500000
O O6 0.390028 0.195522 0.753530
O O7 0.451048 0.125233 0.763946
O O8 0.319067 0.065903 0.729885
O O9 0.931969 0.870374 0.221492
O O10 0.993363 0.804723 0.293170
O O11 0.995022 0.841125 0.000000
O O12 0.287282 0.263243 0.500000
O O13 0.322285 0.258821 0.789301
O O14 0.270051 0.860344 0.000000
O O15 0.544102 0.947204 0.000000
#
# Coordination Sequence:
#
# PCOD8325272 Si02
#       6
#    12  12  12  12  12  12
#     4  11  21  37  60  87 120 156 193 237 292 347
#     4  11  23  39  59  85 121 161 199 241 296 353
#     4  10  21  37  56  76 101 137 186 240 296 354
#     4  11  23  38  56  80 113 150 191 239 297 359
#     4  12  24  38  59  87 120 156 199 247 295 348
#     4  11  21  36  60  90 120 152 194 241 289 341
#
# _framework density 18.803844999999999
#
# number of rings (size 3 to 8) (size 9 to 14) (size 15 to 20)
#    0.000    1.000    1.667    7.667    0.000    6.000 
#    0.000    0.000    0.000    1.667    0.000    4.667 
#    0.000    0.000    0.000    0.000    0.000    0.000 
#
# Total GULP energy -893321.374152 kJ/mol
# GULP energy per Si atom -12407.241308 kJ/mol
# Density = 1.876105 g / cm^3
# Si number density = 18.803845 Si / 1000 Ang^3
#
#
#
# Elastic Constant Matrix: (Units=GPa)
#
#
# Indices 1 2 3 4 5 6 
#
# 1 118.7067 20.0894 25.3544 0.0000 0.0000 0.0000
# 2 20.0894 118.7067 25.3544 0.0000 0.0000 0.0000
# 3 25.3544 25.3544 92.7636 0.0000 0.0000 0.0000
# 4 0.0000 0.0000 0.0000 30.3432 0.0000 0.0000
# 5 0.0000 0.0000 0.0000 0.0000 30.3432 0.0000
# 6 0.0000 0.0000 0.0000 0.0000 0.0000 49.3086
#
#
#
# Elastic Compliance Matrix: (Units=1/GPa)
#
#
# Indices 1 2 3 4 5 6 
#
# 1 0.009072 -0.001068 -0.002188 0.000000 0.000000 0.000000
# 2 -0.001068 0.009072 -0.002188 0.000000 0.000000 0.000000
# 3 -0.002188 -0.002188 0.011976 0.000000 0.000000 0.000000
# 4 0.000000 0.000000 0.000000 0.032956 0.000000 0.000000
# 5 0.000000 0.000000 0.000000 0.000000 0.032956 0.000000
# 6 0.000000 0.000000 0.000000 0.000000 0.000000 0.020280
#
#
# Mechanical properties :
#
#
# Convention : Reuss Voigt Hill
#
# Bulk Modulus (GPa) = 51.99298 52.41925 52.20611
# Shear Modulus (GPa) = 37.42194 39.29091 38.35642
#
# Velocity S-wave (km/s) = 4.46592 4.57608 4.52133
# Velocity P-wave (km/s) = 7.36904 7.47383 7.42162
#
# Compressibility (1/GPa) = 0.01923337
#
# Stress axis : x y z
#
# Youngs Moduli (GPa) = 110.22747 110.22747 83.50049
#
# Poissons Ratio (x) = 0.11773 0.18267
# Poissons Ratio (y) = 0.11773 0.18267
# Poissons Ratio (z) = 0.24114 0.24114
#
# Static dielectric constant tensor:
#      x y z
#    x 3.441380 0.000000 0.000000 
#    y 0.000000 3.441380 0.000000 
#    z 0.000000 0.000000 3.534280 
# 
# 
# High freq. dielectric constant tensor:
#      x y z
#    x 1.726340 0.000000 0.000000 
#    y 0.000000 1.726340 0.000000 
#    z 0.000000 0.000000 1.744850 
# 
# From -- ./inp_files/1156.got.cif
#   From: 2010.03.12/outbox.cif.g09.slc.cpg/sg175_1_cif.got.tgz:1156.got - 2010.04.02 06:55:29.
