data_PCOD8325795
_publ_section_title
;
Structure prediction by ZEFSAII (Michael W. Deem and Ramdas Pophale) SiO2 
 PCOD8325795
Probable space group: P 61 2 2
;
_chemical_formula_sum "Si O2"
_cell_formula_units_Z 72
_cell_length_a 17.572509
_cell_length_b 17.572509
_cell_length_c 16.831477
_cell_angle_alpha 90.000000
_cell_angle_beta 90.000000
_cell_angle_gamma 120.000000
_cell_volume 4501.118104
_symmetry_space_group_name_H-M "P 61 2 2"
_symmetry_group_IT_number 178
_symmetry_cell_setting 'hexagonal'
loop_
_space_group_symop_operation_xyz
x,y,z
x-y,x,1/6+z
-y,x-y,1/3+z
-x,-y,1/2+z
-x+y,-x,2/3+z
y,-x+y,5/6+z
x-y,-y,-z
-x,-x+y,2/3-z
y,x,1/3-z
-y,-x,5/6-z
-x+y,y,1/2-z
x,x-y,1/6-z
loop_
_atom_site_type_symbol
_atom_site_label
_atom_site_fract_x
_atom_site_fract_y
_atom_site_fract_z
Si Si1 0.985580 0.609566 0.424108
Si Si2 0.546585 0.530598 0.830285
Si Si3 0.828664 0.299042 0.980327
Si Si4 0.837658 0.359776 0.229117
Si Si5 0.645716 0.178488 0.421646
Si Si6 0.281094 0.488812 0.539151
O O1 0.983385 0.517268 0.427911
O O2 0.893214 0.592988 0.462273
O O3 0.000000 0.643227 0.333334
O O4 0.069572 0.677458 0.475761
O O5 0.511762 0.488239 0.916667
O O6 0.548697 0.622673 0.818698
O O7 0.637795 0.534168 0.807719
O O8 0.775427 0.224574 0.916667
O O9 0.813775 0.381105 0.966279
O O10 0.797008 0.262594 0.066994
O O11 0.857101 0.371428 0.322178
O O12 0.757513 0.261025 0.210078
O O13 0.743710 0.256291 0.416667
O O14 0.578473 0.211463 0.397337
#
# Coordination Sequence:
#
# PCOD8325795 Si02
#       6
#    12  12  12  12  12  12
#     4  10  19  32  48  66  91 122 156 195 243 286
#     4  10  20  35  50  65  90 126 164 201 247 290
#     4  11  17  31  49  68  92 123 160 198 239 287
#     4  11  21  34  49  69  94 126 169 204 243 289
#     4  11  23  32  48  69  98 126 159 211 250 284
#     4  11  21  32  49  69  92 127 163 200 239 290
#
# _framework density 15.996026000000001
#
# number of rings (size 3 to 8) (size 9 to 14) (size 15 to 20)
#    0.000    1.333    3.333    7.000    4.667    0.000 
#    0.000    0.000    0.000    0.000    0.000    0.000 
#    0.000    0.000    0.000    4.500    0.333    0.000 
#
# Total GULP energy -892179.936026 kJ/mol
# GULP energy per Si atom -12391.388000 kJ/mol
# Density = 1.595962 g / cm^3
# Si number density = 15.996026 Si / 1000 Ang^3
#
#
#
# Elastic Constant Matrix: (Units=GPa)
#
#
# Indices 1 2 3 4 5 6 
#
# 1 80.9313 43.6666 21.5879 0.0000 0.0000 0.0000
# 2 43.6666 80.9313 21.5879 0.0000 0.0000 0.0000
# 3 21.5879 21.5879 60.4601 0.0000 0.0000 0.0000
# 4 0.0000 0.0000 0.0000 26.3406 0.0000 0.0000
# 5 0.0000 0.0000 0.0000 0.0000 26.3406 0.0000
# 6 0.0000 0.0000 0.0000 0.0000 0.0000 18.6323
#
#
#
# Elastic Compliance Matrix: (Units=1/GPa)
#
#
# Indices 1 2 3 4 5 6 
#
# 1 0.017997 -0.008838 -0.003270 0.000000 0.000000 0.000000
# 2 -0.008838 0.017997 -0.003270 0.000000 0.000000 0.000000
# 3 -0.003270 -0.003270 0.018875 0.000000 0.000000 0.000000
# 4 0.000000 0.000000 0.000000 0.037964 0.000000 0.000000
# 5 0.000000 0.000000 0.000000 0.000000 0.037964 0.000000
# 6 0.000000 0.000000 0.000000 0.000000 0.000000 0.053670
#
#
# Mechanical properties :
#
#
# Convention : Reuss Voigt Hill
#
# Bulk Modulus (GPa) = 41.47308 44.00082 42.73695
# Shear Modulus (GPa) = 22.39514 23.29471 22.84492
#
# Velocity S-wave (km/s) = 3.74578 3.82027 3.78320
# Velocity P-wave (km/s) = 6.68515 6.85757 6.77191
#
# Compressibility (1/GPa) = 0.02411202
#
# Stress axis : x y z
#
# Youngs Moduli (GPa) = 55.56458 55.56458 52.97947
#
# Poissons Ratio (x) = 0.49108 0.17326
# Poissons Ratio (y) = 0.49108 0.17326
# Poissons Ratio (z) = 0.18171 0.18171
#
# Static dielectric constant tensor:
#      x y z
#    x 3.179960 0.000000 0.000000 
#    y 0.000000 3.179960 0.000000 
#    z 0.000000 0.000000 2.813810 
# 
# 
# High freq. dielectric constant tensor:
#      x y z
#    x 1.586090 0.000000 0.000000 
#    y 0.000000 1.586090 0.000000 
#    z 0.000000 0.000000 1.632390 
# 
# From -- ./inp_files/6911.got.cif
#   From: 2010.03.12/outbox.cif.g09.slc.cpg/sg178_4_cif.got.tgz:6911.got - 2010.04.02 07:02:38.
