data_PCOD8325762
_publ_section_title
;
Structure prediction by ZEFSAII (Michael W. Deem and Ramdas Pophale) SiO2 
 PCOD8325762
Probable space group: P 61 2 2
;
_chemical_formula_sum "Si O2"
_cell_formula_units_Z 84
_cell_length_a 14.141077
_cell_length_b 14.141077
_cell_length_c 27.870743
_cell_angle_alpha 90.000000
_cell_angle_beta 90.000000
_cell_angle_gamma 120.000000
_cell_volume 4826.631606
_symmetry_space_group_name_H-M "P 61 2 2"
_symmetry_group_IT_number 178
_symmetry_cell_setting 'hexagonal'
loop_
_space_group_symop_operation_xyz
x,y,z
x-y,x,1/6+z
-y,x-y,1/3+z
-x,-y,1/2+z
-x+y,-x,2/3+z
y,-x+y,5/6+z
x-y,-y,-z
-x,-x+y,2/3-z
y,x,1/3-z
-y,-x,5/6-z
-x+y,y,1/2-z
x,x-y,1/6-z
loop_
_atom_site_type_symbol
_atom_site_label
_atom_site_fract_x
_atom_site_fract_y
_atom_site_fract_z
Si Si1 0.256972 0.628486 0.583334
Si Si2 0.241829 0.682861 0.990568
Si Si3 0.156266 0.009987 0.127910
Si Si4 0.389892 0.101245 0.966709
Si Si5 0.833833 0.050741 0.273146
Si Si6 0.618571 0.986757 0.626475
Si Si7 0.123924 0.561962 0.083334
Si Si8 0.657374 0.594168 0.438876
O O1 0.332198 0.670579 0.630215
O O2 0.177398 0.680698 0.582545
O O3 0.136340 0.651557 0.956943
O O4 0.306870 0.811141 0.004410
O O5 0.202734 0.608373 0.037729
O O6 0.174023 0.087012 0.083334
O O7 0.133362 0.035595 0.182322
O O8 0.273495 0.020510 0.134131
O O9 0.059220 0.891724 0.111081
O O10 0.329359 0.165270 0.948548
O O11 0.426283 0.053726 0.921750
O O12 0.308489 0.000000 0.000000
O O13 0.712561 0.946052 0.269935
O O14 0.611247 0.051297 0.673138
O O15 0.042586 0.432199 0.076054
#
# Coordination Sequence:
#
# PCOD8325762 Si02
#       8
#     6  12  12  12  12  12   6  12
#     4  11  24  32  54  70 112 130 186 231 254 302
#     4  11  21  34  51  81 105 149 176 218 266 322
#     4  10  17  26  45  76 107 133 161 202 254 325
#     4  11  19  29  50  79 115 143 167 210 270 335
#     4  10  18  29  48  71 105 141 164 203 265 325
#     4   9  19  31  49  71 114 142 171 203 268 325
#     4   9  18  34  52  66 104 132 186 211 254 314
#     4   9  19  37  46  72  97 145 177 224 255 303
#
# _framework density 17.403441999999998
#
# number of rings (size 3 to 8) (size 9 to 14) (size 15 to 20)
#    0.000    2.000    4.286    3.000    3.000    1.143 
#    0.000    0.000    0.000    0.000    0.000    6.000 
#    0.000    0.000    0.000    0.000    0.000    0.000 
#
# Total GULP energy -1040739.825308 kJ/mol
# GULP energy per Si atom -12389.759825 kJ/mol
# Density = 1.736383 g / cm^3
# Si number density = 17.403442 Si / 1000 Ang^3
#
#
#
# Elastic Constant Matrix: (Units=GPa)
#
#
# Indices 1 2 3 4 5 6 
#
# 1 74.1142 30.4213 41.0179 0.0000 0.0000 0.0000
# 2 30.4213 74.1142 41.0179 0.0000 0.0000 0.0000
# 3 41.0179 41.0179 94.6725 0.0000 0.0000 0.0000
# 4 0.0000 0.0000 0.0000 23.4687 0.0000 0.0000
# 5 0.0000 0.0000 0.0000 0.0000 23.4687 0.0000
# 6 0.0000 0.0000 0.0000 0.0000 0.0000 21.8464
#
#
#
# Elastic Compliance Matrix: (Units=1/GPa)
#
#
# Indices 1 2 3 4 5 6 
#
# 1 0.018691 -0.004196 -0.006280 0.000000 0.000000 0.000000
# 2 -0.004196 0.018691 -0.006280 0.000000 0.000000 0.000000
# 3 -0.006280 -0.006280 0.016004 0.000000 0.000000 0.000000
# 4 0.000000 0.000000 0.000000 0.042610 0.000000 0.000000
# 5 0.000000 0.000000 0.000000 0.000000 0.042610 0.000000
# 6 0.000000 0.000000 0.000000 0.000000 0.000000 0.045774
#
#
# Mechanical properties :
#
#
# Convention : Reuss Voigt Hill
#
# Bulk Modulus (GPa) = 50.31781 51.97944 51.14862
# Shear Modulus (GPa) = 22.27011 22.45301 22.36156
#
# Velocity S-wave (km/s) = 3.58108 3.59576 3.58843
# Velocity P-wave (km/s) = 6.78780 6.86815 6.82809
#
# Compressibility (1/GPa) = 0.01987368
#
# Stress axis : x y z
#
# Youngs Moduli (GPa) = 53.50261 53.50261 62.48317
#
# Poissons Ratio (x) = 0.22452 0.39238
# Poissons Ratio (y) = 0.22452 0.39238
# Poissons Ratio (z) = 0.33599 0.33599
#
# Static dielectric constant tensor:
#      x y z
#    x 3.144340 0.000000 0.000000 
#    y 0.000000 3.144340 0.000000 
#    z 0.000000 0.000000 3.612190 
# 
# 
# High freq. dielectric constant tensor:
#      x y z
#    x 1.645930 0.000000 0.000000 
#    y 0.000000 1.645930 0.000000 
#    z 0.000000 0.000000 1.679450 
# 
# From -- ./inp_files/9682.got.cif
#   From: 2010.03.12/outbox.cif.g09.slc.cpg/sg178_5_cif.got.tgz:9682.got - 2010.04.02 07:02:38.
