data_PCOD8325676
_publ_section_title
;
Structure prediction by ZEFSAII (Michael W. Deem and Ramdas Pophale) SiO2 
 PCOD8325676
Probable space group: P 63/M
;
_chemical_formula_sum "Si O2"
_cell_formula_units_Z 58
_cell_length_a 14.313891
_cell_length_b 14.313891
_cell_length_c 15.744477
_cell_angle_alpha 90.000000
_cell_angle_beta 90.000000
_cell_angle_gamma 120.000000
_cell_volume 2793.664712
_symmetry_space_group_name_H-M "P 63/M"
_symmetry_group_IT_number 176
_symmetry_cell_setting 'hexagonal'
loop_
_space_group_symop_operation_xyz
x,y,z
x-y,x,1/2+z
-y,x-y,z
-x,-y,1/2+z
-x+y,-x,z
y,-x+y,1/2+z
-x,-y,-z
-x+y,-x,1/2-z
y,-x+y,-z
x,y,1/2-z
x-y,x,-z
-y,x-y,1/2-z
loop_
_atom_site_type_symbol
_atom_site_label
_atom_site_fract_x
_atom_site_fract_y
_atom_site_fract_z
Si Si1 0.239991 0.531401 0.750000
Si Si2 0.898237 0.415957 0.651720
Si Si3 0.826517 0.768193 0.651677
Si Si4 0.098543 0.405759 0.902198
Si Si5 0.439981 0.254361 0.588308
Si Si6 0.000000 0.000000 0.600517
O O1 0.370235 0.583386 0.750000
O O2 0.191542 0.457290 0.832143
O O3 0.900184 0.386161 0.750000
O O4 0.801877 0.313615 0.603744
O O5 0.877874 0.515643 0.644116
O O6 0.012569 0.446394 0.609759
O O7 0.795568 0.745627 0.750000
O O8 0.724247 0.760622 0.602606
O O9 0.857131 0.682022 0.616446
O O10 0.931206 0.881469 0.637165
O O11 0.159505 0.445949 0.990627
O O12 0.000000 0.000000 0.500000
#
# Coordination Sequence:
#
# PCOD8325676 Si02
#       6
#     6  12  12  12  12   4
#     4  10  24  42  66  88 132 174 216 256 322 394
#     4  11  22  42  64  93 135 170 211 271 327 385
#     4  11  23  46  66  93 132 170 215 272 332 383
#     4  11  22  44  62  95 132 173 211 273 321 382
#     4  11  24  38  67  97 126 172 222 264 321 392
#     4  12  25  44  67  99 127 170 223 277 323 388
#
# _framework density 20.76126
#
# number of rings (size 3 to 8) (size 9 to 14) (size 15 to 20)
#    0.207    0.828    2.069    6.000    2.897    1.655 
#    3.724    0.000    0.000    0.000    0.000    0.000 
#    0.000    0.000    0.000    0.000    0.000    0.000 
#
# Total GULP energy -719482.671369 kJ/mol
# GULP energy per Si atom -12404.873644 kJ/mol
# Density = 2.071401 g / cm^3
# Si number density = 20.761260 Si / 1000 Ang^3
#
#
#
# Elastic Constant Matrix: (Units=GPa)
#
#
# Indices 1 2 3 4 5 6 
#
# 1 108.0653 48.4410 36.9576 0.0000 0.0000 0.0000
# 2 48.4410 108.0653 36.9576 0.0000 0.0000 0.0000
# 3 36.9576 36.9576 138.1315 0.0000 0.0000 0.0000
# 4 0.0000 0.0000 0.0000 31.2251 0.0000 0.0000
# 5 0.0000 0.0000 0.0000 0.0000 31.2251 0.0000
# 6 0.0000 0.0000 0.0000 0.0000 0.0000 29.8121
#
#
#
# Elastic Compliance Matrix: (Units=1/GPa)
#
#
# Indices 1 2 3 4 5 6 
#
# 1 0.012043 -0.004729 -0.001957 0.000000 0.000000 0.000000
# 2 -0.004729 0.012043 -0.001957 0.000000 0.000000 0.000000
# 3 -0.001957 -0.001957 0.008287 0.000000 0.000000 0.000000
# 4 0.000000 0.000000 0.000000 0.032025 0.000000 0.000000
# 5 0.000000 0.000000 0.000000 0.000000 0.032025 0.000000
# 6 0.000000 0.000000 0.000000 0.000000 0.000000 0.033543
#
#
# Mechanical properties :
#
#
# Convention : Reuss Voigt Hill
#
# Bulk Modulus (GPa) = 66.28341 66.55272 66.41806
# Shear Modulus (GPa) = 32.83416 33.91288 33.37352
#
# Velocity S-wave (km/s) = 3.98114 4.04600 4.01370
# Velocity P-wave (km/s) = 7.28892 7.34525 7.31714
#
# Compressibility (1/GPa) = 0.01508673
#
# Stress axis : x y z
#
# Youngs Moduli (GPa) = 83.03797 83.03797 120.67709
#
# Poissons Ratio (x) = 0.39269 0.23614
# Poissons Ratio (y) = 0.39269 0.23614
# Poissons Ratio (z) = 0.16249 0.16249
#
# Static dielectric constant tensor:
#      x y z
#    x 3.714170 0.000000 0.000000 
#    y 0.000000 3.714170 0.000000 
#    z 0.000000 0.000000 3.812580 
# 
# 
# High freq. dielectric constant tensor:
#      x y z
#    x 1.815480 0.000000 0.000000 
#    y 0.000000 1.815480 0.000000 
#    z 0.000000 0.000000 1.823730 
# 
# From -- ./inp_files/2681.got.cif
#   From: 2010.06.25/outbox.cif.g09.slc.cpg/sg176_2_cif.got.tgz:2681.got - 2010.06.28 12:15:01.
