data_PCOD8325432
_publ_section_title
;
Structure prediction by ZEFSAII (Michael W. Deem and Ramdas Pophale) SiO2 
 PCOD8325432
Probable space group: P 63/M
;
_chemical_formula_sum "Si O2"
_cell_formula_units_Z 58
_cell_length_a 16.694124
_cell_length_b 16.694124
_cell_length_c 12.592737
_cell_angle_alpha 90.000000
_cell_angle_beta 90.000000
_cell_angle_gamma 120.000000
_cell_volume 3039.331246
_symmetry_space_group_name_H-M "P 63/M"
_symmetry_group_IT_number 176
_symmetry_cell_setting 'hexagonal'
loop_
_space_group_symop_operation_xyz
x,y,z
x-y,x,1/2+z
-y,x-y,z
-x,-y,1/2+z
-x+y,-x,z
y,-x+y,1/2+z
-x,-y,-z
-x+y,-x,1/2-z
y,-x+y,-z
x,y,1/2-z
x-y,x,-z
-y,x-y,1/2-z
loop_
_atom_site_type_symbol
_atom_site_label
_atom_site_fract_x
_atom_site_fract_y
_atom_site_fract_z
Si Si1 0.972685 0.320161 0.875213
Si Si2 0.160877 0.165512 0.046984
Si Si3 0.333334 0.666668 0.127175
Si Si4 0.308605 0.504656 0.996887
Si Si5 0.063075 0.117038 0.250000
Si Si6 0.644558 0.153932 0.127878
O O1 0.950833 0.291405 0.750000
O O2 0.011352 0.263236 0.940841
O O3 0.049318 0.427043 0.883131
O O4 0.884326 0.302716 0.942262
O O5 0.104136 0.177306 0.144990
O O6 0.166234 0.070852 0.048645
O O7 0.333334 0.666668 0.250000
O O8 0.296692 0.563469 0.088571
O O9 0.223567 0.475930 0.915931
O O10 0.404097 0.563988 0.934043
O O11 0.105986 0.047431 0.250000
O O12 0.642104 0.180166 0.250000
#
# Coordination Sequence:
#
# PCOD8325432 Si02
#       6
#    12  12   4  12   6  12
#     4  11  23  36  54  83 119 147 179 232 293 342
#     4  12  21  35  57  79 110 154 195 241 284 340
#     4   9  18  33  58  80 103 138 186 222 268 338
#     4  10  20  37  59  83 110 145 186 230 279 334
#     4  10  18  34  54  80 102 138 210 242 276 332
#     4  10  21  38  61  85 109 146 190 232 276 335
#
# _framework density 19.083144999999998
#
# number of rings (size 3 to 8) (size 9 to 14) (size 15 to 20)
#    0.207    1.241    3.103    3.724    0.000    0.000 
#    0.000    0.000    2.276    6.207    0.000    0.000 
#    0.000    0.000    0.000    0.000    0.000    0.000 
#
# Total GULP energy -718629.463195 kJ/mol
# GULP energy per Si atom -12390.163159 kJ/mol
# Density = 1.903971 g / cm^3
# Si number density = 19.083145 Si / 1000 Ang^3
#
#
#
# Elastic Constant Matrix: (Units=GPa)
#
#
# Indices 1 2 3 4 5 6 
#
# 1 70.2539 -8.1792 16.0006 0.0000 0.0000 0.0027
# 2 -8.1792 70.2493 15.9975 0.0000 0.0000 -0.0012
# 3 16.0006 15.9975 92.3979 0.0000 0.0000 -0.0003
# 4 0.0000 0.0000 0.0000 25.7873 0.0000 0.0000
# 5 0.0000 0.0000 0.0000 0.0000 25.7875 0.0000
# 6 0.0027 -0.0012 -0.0003 0.0000 0.0000 39.2141
#
#
#
# Elastic Compliance Matrix: (Units=1/GPa)
#
#
# Indices 1 2 3 4 5 6 
#
# 1 0.015219 0.002470 -0.003063 0.000000 0.000000 -0.000001
# 2 0.002470 0.015220 -0.003063 0.000000 0.000000 0.000000
# 3 -0.003063 -0.003063 0.011883 0.000000 0.000000 0.000000
# 4 0.000000 0.000000 0.000000 0.038779 0.000000 0.000000
# 5 0.000000 0.000000 0.000000 0.000000 0.038778 0.000000
# 6 -0.000001 0.000000 0.000000 0.000000 0.000000 0.025501
#
#
# Mechanical properties :
#
#
# Convention : Reuss Voigt Hill
#
# Bulk Modulus (GPa) = 28.56326 31.17099 29.86713
# Shear Modulus (GPa) = 30.42033 32.09659 31.25846
#
# Velocity S-wave (km/s) = 3.99694 4.10559 4.05163
# Velocity P-wave (km/s) = 6.02503 6.23251 6.12965
#
# Compressibility (1/GPa) = 0.03501001
#
# Stress axis : x y z
#
# Youngs Moduli (GPa) = 65.70633 65.70295 84.15049
#
# Poissons Ratio (x) = -0.16226 0.25776
# Poissons Ratio (y) = -0.16226 0.25774
# Poissons Ratio (z) = 0.20126 0.20123
#
# Static dielectric constant tensor:
#      x y z
#    x 3.210150 0.000020 0.000000 
#    y 0.000020 3.210000 0.000000 
#    z 0.000000 0.000000 3.601870 
# 
# 
# High freq. dielectric constant tensor:
#      x y z
#    x 1.734420 0.000000 0.000000 
#    y 0.000000 1.734420 0.000000 
#    z 0.000000 0.000000 1.754170 
# 
# From -- ./inp_files/2688.got.cif
#   From: 2010.06.25/outbox.cif.g09.slc.cpg/sg176_2_cif.got.tgz:2688.got - 2010.06.28 12:15:01.
