data_PCOD8325157
_publ_section_title
;
Structure prediction by ZEFSAII (Michael W. Deem and Ramdas Pophale) SiO2 
 PCOD8325157
Probable space group: P 6/M
;
_chemical_formula_sum "Si O2"
_cell_formula_units_Z 84
_cell_length_a 18.108824
_cell_length_b 18.108824
_cell_length_c 15.001528
_cell_angle_alpha 90.000000
_cell_angle_beta 90.000000
_cell_angle_gamma 120.000000
_cell_volume 4260.363196
_symmetry_space_group_name_H-M "P 6/M"
_symmetry_group_IT_number 175
_symmetry_cell_setting 'hexagonal'
loop_
_space_group_symop_operation_xyz
x,y,z
x-y,x,z
-y,x-y,z
-x,-y,z
-x+y,-x,z
y,-x+y,z
-x,-y,-z
-x+y,-x,-z
y,-x+y,-z
x,y,-z
x-y,x,-z
-y,x-y,-z
loop_
_atom_site_type_symbol
_atom_site_label
_atom_site_fract_x
_atom_site_fract_y
_atom_site_fract_z
Si Si1 0.993956 0.275727 0.158974
Si Si2 0.090456 0.764854 0.341935
Si Si3 0.756180 0.166843 0.216821
Si Si4 0.537933 0.437249 0.234063
Si Si5 0.481559 0.078332 0.597197
Si Si6 0.026339 0.842204 0.000000
Si Si7 0.134725 0.199594 0.500000
Si Si8 0.861559 0.325754 0.895478
O O1 0.095964 0.330906 0.159981
O O2 0.965406 0.237773 0.257627
O O3 0.951078 0.332453 0.131949
O O4 0.962531 0.200769 0.088076
O O5 0.187659 0.803836 0.306998
O O6 0.053120 0.669639 0.382636
O O7 0.086344 0.827628 0.413498
O O8 0.659282 0.125668 0.246241
O O9 0.782826 0.242948 0.147498
O O10 0.500000 0.500000 0.232452
O O11 0.599870 0.461303 0.321472
O O12 0.592244 0.452355 0.144322
O O13 0.506571 0.123957 0.500000
O O14 0.500000 0.000000 0.594491
O O15 0.938514 0.840228 0.000000
O O16 0.157738 0.124818 0.500000
O O17 0.849054 0.324867 0.000000
#
# Coordination Sequence:
#
# PCOD8325157 Si02
#       8
#    12  12  12  12  12   6   6  12
#     4  11  21  39  65  92 121 166 225 275 322 378
#     4  11  22  44  66  99 130 171 224 272 327 399
#     4  11  23  40  66  92 131 173 220 272 328 384
#     4  11  21  42  63  94 130 167 210 271 322 384
#     4  10  19  36  66  97 127 159 209 264 318 374
#     4  12  25  40  60  91 128 170 214 276 348 407
#     4  12  27  44  69  98 140 172 218 276 347 413
#     4  11  23  39  61  93 128 167 219 268 326 388
#
# _framework density 19.716628
#
# number of rings (size 3 to 8) (size 9 to 14) (size 15 to 20)
#    0.000    1.000    5.714    3.571    1.000    0.857 
#    2.143    0.000    0.000    1.714    0.000    0.000 
#    0.000    0.000    0.000    0.000    0.000    0.000 
#
# Total GULP energy -1041213.122162 kJ/mol
# GULP energy per Si atom -12395.394311 kJ/mol
# Density = 1.967175 g / cm^3
# Si number density = 19.716628 Si / 1000 Ang^3
#
#
#
# Elastic Constant Matrix: (Units=GPa)
#
#
# Indices 1 2 3 4 5 6 
#
# 1 106.6866 43.1790 47.4002 0.0000 0.0000 0.0000
# 2 43.1790 106.6866 47.4002 0.0000 0.0000 0.0000
# 3 47.4002 47.4002 176.1886 0.0000 0.0000 0.0000
# 4 0.0000 0.0000 0.0000 20.4624 0.0000 0.0000
# 5 0.0000 0.0000 0.0000 0.0000 20.4624 0.0000
# 6 0.0000 0.0000 0.0000 0.0000 0.0000 31.7538
#
#
#
# Elastic Compliance Matrix: (Units=1/GPa)
#
#
# Indices 1 2 3 4 5 6 
#
# 1 0.011894 -0.003853 -0.002163 0.000000 0.000000 0.000000
# 2 -0.003853 0.011894 -0.002163 0.000000 0.000000 0.000000
# 3 -0.002163 -0.002163 0.006840 0.000000 0.000000 0.000000
# 4 0.000000 0.000000 0.000000 0.048870 0.000000 0.000000
# 5 0.000000 0.000000 0.000000 0.000000 0.048870 0.000000
# 6 0.000000 0.000000 0.000000 0.000000 0.000000 0.031492
#
#
# Mechanical properties :
#
#
# Convention : Reuss Voigt Hill
#
# Bulk Modulus (GPa) = 70.08352 73.94672 72.01512
# Shear Modulus (GPa) = 27.62827 31.30788 29.46808
#
# Velocity S-wave (km/s) = 3.74741 3.98916 3.87017
# Velocity P-wave (km/s) = 7.37202 7.66838 7.52166
#
# Compressibility (1/GPa) = 0.01426869
#
# Stress axis : x y z
#
# Youngs Moduli (GPa) = 84.07877 84.07877 146.20472
#
# Poissons Ratio (x) = 0.32392 0.31628
# Poissons Ratio (y) = 0.32392 0.31628
# Poissons Ratio (z) = 0.18189 0.18189
#
# Static dielectric constant tensor:
#      x y z
#    x 3.586470 0.000000 0.000000 
#    y 0.000000 3.586470 0.000000 
#    z 0.000000 0.000000 4.152490 
# 
# 
# High freq. dielectric constant tensor:
#      x y z
#    x 1.758500 0.000000 0.000000 
#    y 0.000000 1.758500 0.000000 
#    z 0.000000 0.000000 1.787220 
# 
# From -- ./inp_files/2647.got.cif
#   From: 2010.03.12/outbox.cif.g09.slc.cpg/sg175_2_cif.got.tgz:2647.got - 2010.04.02 06:55:29.
