data_PCOD8325291
_publ_section_title
;
Structure prediction by ZEFSAII (Michael W. Deem and Ramdas Pophale) SiO2 
 PCOD8325291
Probable space group: P 6/M
;
_chemical_formula_sum "Si O2"
_cell_formula_units_Z 48
_cell_length_a 17.694968
_cell_length_b 17.694968
_cell_length_c 8.468444
_cell_angle_alpha 90.000000
_cell_angle_beta 90.000000
_cell_angle_gamma 120.000000
_cell_volume 2296.327437
_symmetry_space_group_name_H-M "P 6/M"
_symmetry_group_IT_number 175
_symmetry_cell_setting 'hexagonal'
loop_
_space_group_symop_operation_xyz
x,y,z
x-y,x,z
-y,x-y,z
-x,-y,z
-x+y,-x,z
y,-x+y,z
-x,-y,-z
-x+y,-x,-z
y,-x+y,-z
x,y,-z
x-y,x,-z
-y,x-y,-z
loop_
_atom_site_type_symbol
_atom_site_label
_atom_site_fract_x
_atom_site_fract_y
_atom_site_fract_z
Si Si1 0.654557 0.662046 0.315007
Si Si2 0.011552 0.176034 0.688052
Si Si3 0.670035 0.495959 0.318631
Si Si4 0.336209 0.830119 0.181083
O O1 0.638257 0.666422 0.500000
O O2 0.734472 0.752996 0.252620
O O3 0.677022 0.587168 0.275306
O O4 0.567506 0.639523 0.221673
O O5 0.008934 0.172895 0.500000
O O6 0.094003 0.170839 0.754654
O O7 0.642244 0.470766 0.500000
O O8 0.600061 0.420148 0.208706
O O9 0.764420 0.507178 0.291411
O O10 0.307897 0.808680 0.000000
#
# Coordination Sequence:
#
# PCOD8325291 Si02
#       4
#    12  12  12  12
#     4  10  21  38  60  85 115 155 201 246 292 349
#     4   9  16  28  50  82 117 150 188 237 290 340
#     4  11  23  41  64  87 116 155 200 244 290 350
#     4  12  25  40  60  88 122 154 191 242 300 357
#
# _framework density 20.902943
#
# number of rings (size 3 to 8) (size 9 to 14) (size 15 to 20)
#    0.000    1.500    0.000    6.000    0.000   10.000 
#    0.000    0.000    0.000    0.000    0.000    0.000 
#    0.000    4.000    0.000    0.000    0.000    0.000 
#
# Total GULP energy -595536.550487 kJ/mol
# GULP energy per Si atom -12407.011468 kJ/mol
# Density = 2.085537 g / cm^3
# Si number density = 20.902943 Si / 1000 Ang^3
#
#
#
# Elastic Constant Matrix: (Units=GPa)
#
#
# Indices 1 2 3 4 5 6 
#
# 1 109.0777 21.4624 22.9180 0.0000 0.0000 0.0000
# 2 21.4624 109.0777 22.9180 0.0000 0.0000 0.0000
# 3 22.9180 22.9180 42.3840 0.0000 0.0000 0.0000
# 4 0.0000 0.0000 0.0000 11.4512 0.0000 0.0000
# 5 0.0000 0.0000 0.0000 0.0000 11.4512 0.0000
# 6 0.0000 0.0000 0.0000 0.0000 0.0000 43.8077
#
#
#
# Elastic Compliance Matrix: (Units=1/GPa)
#
#
# Indices 1 2 3 4 5 6 
#
# 1 0.010435 -0.000979 -0.005113 0.000000 0.000000 0.000000
# 2 -0.000979 0.010435 -0.005113 0.000000 0.000000 0.000000
# 3 -0.005113 -0.005113 0.029123 0.000000 0.000000 0.000000
# 4 0.000000 0.000000 0.000000 0.087327 0.000000 0.000000
# 5 0.000000 0.000000 0.000000 0.000000 0.087327 0.000000
# 6 0.000000 0.000000 0.000000 0.000000 0.000000 0.022827
#
#
# Mechanical properties :
#
#
# Convention : Reuss Voigt Hill
#
# Bulk Modulus (GPa) = 36.25434 43.90403 40.07919
# Shear Modulus (GPa) = 17.91620 26.22476 22.07048
#
# Velocity S-wave (km/s) = 2.93083 3.54587 3.25292
# Velocity P-wave (km/s) = 5.36980 6.14928 5.77271
#
# Compressibility (1/GPa) = 0.02758290
#
# Stress axis : x y z
#
# Youngs Moduli (GPa) = 95.83454 95.83454 34.33693
#
# Poissons Ratio (x) = 0.09381 0.17556
# Poissons Ratio (y) = 0.09381 0.17556
# Poissons Ratio (z) = 0.49000 0.49000
#
# Static dielectric constant tensor:
#      x y z
#    x 3.862330 0.000000 0.000000 
#    y 0.000000 3.862330 0.000000 
#    z 0.000000 0.000000 3.385410 
# 
# 
# High freq. dielectric constant tensor:
#      x y z
#    x 1.833970 0.000000 0.000000 
#    y 0.000000 1.833970 0.000000 
#    z 0.000000 0.000000 1.784620 
# 
# From -- ./inp_files/515.got.cif
#   From: 2010.03.12/outbox.cif.g09.slc.cpg/sg175_1_cif.got.tgz:515.got - 2010.04.02 06:55:29.
