data_PCOD8325935
_publ_section_title
;
Structure prediction by ZEFSAII (Michael W. Deem and Ramdas Pophale) SiO2 
 PCOD8325935
Probable space group: P 61 2 2
;
_chemical_formula_sum "Si O2"
_cell_formula_units_Z 42
_cell_length_a 13.833134
_cell_length_b 13.833134
_cell_length_c 12.310429
_cell_angle_alpha 90.000000
_cell_angle_beta 90.000000
_cell_angle_gamma 120.000000
_cell_volume 2040.069614
_symmetry_space_group_name_H-M "P 61 2 2"
_symmetry_group_IT_number 178
_symmetry_cell_setting 'hexagonal'
loop_
_space_group_symop_operation_xyz
x,y,z
x-y,x,1/6+z
-y,x-y,1/3+z
-x,-y,1/2+z
-x+y,-x,2/3+z
y,-x+y,5/6+z
x-y,-y,-z
-x,-x+y,2/3-z
y,x,1/3-z
-y,-x,5/6-z
-x+y,y,1/2-z
x,x-y,1/6-z
loop_
_atom_site_type_symbol
_atom_site_label
_atom_site_fract_x
_atom_site_fract_y
_atom_site_fract_z
Si Si1 0.837209 0.389055 0.899195
Si Si2 0.000000 0.168464 0.333334
Si Si3 0.546913 0.938265 0.836204
Si Si4 0.214409 0.397620 0.121034
O O1 0.716011 0.283990 0.916667
O O2 0.874308 0.387742 0.777888
O O3 0.832893 0.501571 0.923352
O O4 0.927669 0.384038 0.979403
O O5 0.067332 0.134664 0.250000
O O6 0.075040 0.279399 0.403302
O O7 0.450154 0.900308 0.750000
O O8 0.620698 0.891022 0.784084
O O9 0.206868 0.413736 0.250000
#
# Coordination Sequence:
#
# PCOD8325935 Si02
#       4
#    12   6  12  12
#     4  11  26  41  65 104 137 174 222 273 339 407
#     4  10  24  44  66  94 120 166 228 274 314 378
#     4  11  24  42  64  96 139 175 214 274 339 403
#     4  11  23  41  69  97 128 176 223 274 330 397
#
# _framework density 20.587533000000001
#
# number of rings (size 3 to 8) (size 9 to 14) (size 15 to 20)
#    0.000    1.143    2.857    2.571    8.000    0.000 
#    0.000    4.286    0.000    0.000    0.000    0.000 
#    0.000    0.000    0.000    0.000    0.000    0.000 
#
# Total GULP energy -520617.736977 kJ/mol
# GULP energy per Si atom -12395.660404 kJ/mol
# Density = 2.054068 g / cm^3
# Si number density = 20.587533 Si / 1000 Ang^3
#
#
#
# Elastic Constant Matrix: (Units=GPa)
#
#
# Indices 1 2 3 4 5 6 
#
# 1 166.3282 84.5225 51.2865 0.0000 0.0000 0.0000
# 2 84.5225 166.3282 51.2865 0.0000 0.0000 0.0000
# 3 51.2865 51.2865 87.1999 0.0000 0.0000 0.0000
# 4 0.0000 0.0000 0.0000 1204.4147 0.0004 0.0000
# 5 0.0000 0.0000 0.0000 0.0004 1204.4142 0.0000
# 6 0.0000 0.0000 0.0000 0.0000 0.0000 40.9029
#
#
#
# Elastic Compliance Matrix: (Units=1/GPa)
#
#
# Indices 1 2 3 4 5 6 
#
# 1 0.008736 -0.003488 -0.003087 0.000000 0.000000 0.000000
# 2 -0.003488 0.008736 -0.003087 0.000000 0.000000 0.000000
# 3 -0.003087 -0.003087 0.015099 0.000000 0.000000 0.000000
# 4 0.000000 0.000000 0.000000 0.000830 0.000000 0.000000
# 5 0.000000 0.000000 0.000000 0.000000 0.000830 0.000000
# 6 0.000000 0.000000 0.000000 0.000000 0.000000 0.024448
#
#
# Mechanical properties :
#
#
# Convention : Reuss Voigt Hill
#
# Bulk Modulus (GPa) = 75.48025 88.22748 81.85387
# Shear Modulus (GPa) = 60.66463 505.46375 283.06419
#
# Velocity S-wave (km/s) = 5.43421 15.68606 11.73846
# Velocity P-wave (km/s) = 8.72450 19.26182 14.95217
#
# Compressibility (1/GPa) = 0.01324850
#
# Stress axis : x y z
#
# Youngs Moduli (GPa) = 114.46358 114.46358 66.22880
#
# Poissons Ratio (x) = 0.39921 0.20445
# Poissons Ratio (y) = 0.39921 0.20445
# Poissons Ratio (z) = 0.35335 0.35335
#
# Static dielectric constant tensor:
#      x y z
#    x -4.306370 0.000000 0.000000 
#    y 0.000000 -4.306370 0.000000 
#    z 0.000000 0.000000 3.752750 
# 
# 
# High freq. dielectric constant tensor:
#      x y z
#    x 1.808030 0.000000 0.000000 
#    y 0.000000 1.808030 0.000000 
#    z 0.000000 0.000000 1.810880 
# 
# From -- ./inp_files/3932.got.cif
#   From: 2010.03.12/outbox.cif.g09.slc.cpg/sg178_2_cif.got.tgz:3932.got - 2010.04.02 07:02:38.
