data_PCOD8325662
_publ_section_title
;
Structure prediction by ZEFSAII (Michael W. Deem and Ramdas Pophale) SiO2 
 PCOD8325662
Probable space group: P 63/M
;
_chemical_formula_sum "Si O2"
_cell_formula_units_Z 60
_cell_length_a 14.572392
_cell_length_b 14.572392
_cell_length_c 16.713483
_cell_angle_alpha 90.000000
_cell_angle_beta 90.000000
_cell_angle_gamma 120.000000
_cell_volume 3073.684495
_symmetry_space_group_name_H-M "P 63/M"
_symmetry_group_IT_number 176
_symmetry_cell_setting 'hexagonal'
loop_
_space_group_symop_operation_xyz
x,y,z
x-y,x,1/2+z
-y,x-y,z
-x,-y,1/2+z
-x+y,-x,z
y,-x+y,1/2+z
-x,-y,-z
-x+y,-x,1/2-z
y,-x+y,-z
x,y,1/2-z
x-y,x,-z
-y,x-y,1/2-z
loop_
_atom_site_type_symbol
_atom_site_label
_atom_site_fract_x
_atom_site_fract_y
_atom_site_fract_z
Si Si1 0.751924 0.288746 0.391992
Si Si2 0.939756 0.172971 0.008060
Si Si3 0.120499 0.516747 0.157711
Si Si4 0.943424 0.287630 0.337632
Si Si5 0.274465 0.458144 0.068730
O O1 0.785198 0.411709 0.373445
O O2 0.819164 0.252184 0.339162
O O3 0.767699 0.278249 0.485060
O O4 0.893049 0.224978 0.946039
O O5 0.970250 0.228334 0.094666
O O6 0.049948 0.190603 0.973587
O O7 0.144334 0.552334 0.250000
O O8 0.206668 0.485623 0.129208
O O9 0.117688 0.608368 0.106073
O O10 0.006368 0.413077 0.146196
O O11 0.970725 0.260026 0.250000
#
# Coordination Sequence:
#
# PCOD8325662 Si02
#       5
#    12  12  12  12  12
#     4   9  18  34  56  81 119 162 204 241 300 381
#     4  11  24  45  70  92 121 170 227 276 319 380
#     4  11  21  36  58  91 132 166 200 253 322 383
#     4  10  23  39  59  90 127 159 203 273 321 368
#     4  11  20  37  59  95 126 166 210 256 311 390
#
# _framework density 19.520546
#
# number of rings (size 3 to 8) (size 9 to 14) (size 15 to 20)
#    0.400    1.200    4.000    1.200    0.000    7.200 
#    0.000    5.000    0.000    0.000    0.000    0.000 
#    0.000    0.000    0.000    0.000    0.000    0.000 
#
# Total GULP energy -743659.817633 kJ/mol
# GULP energy per Si atom -12394.330294 kJ/mol
# Density = 1.947612 g / cm^3
# Si number density = 19.520546 Si / 1000 Ang^3
#
#
#
# Elastic Constant Matrix: (Units=GPa)
#
#
# Indices 1 2 3 4 5 6 
#
# 1 86.3905 15.3623 31.0582 0.0000 0.0000 0.0000
# 2 15.3623 86.3905 31.0582 0.0000 0.0000 0.0000
# 3 31.0582 31.0582 87.7718 0.0000 0.0000 0.0000
# 4 0.0000 0.0000 0.0000 15.3484 0.0000 0.0000
# 5 0.0000 0.0000 0.0000 0.0000 15.3484 0.0000
# 6 0.0000 0.0000 0.0000 0.0000 0.0000 35.5141
#
#
#
# Elastic Compliance Matrix: (Units=1/GPa)
#
#
# Indices 1 2 3 4 5 6 
#
# 1 0.013307 -0.000772 -0.004436 0.000000 0.000000 0.000000
# 2 -0.000772 0.013307 -0.004436 0.000000 0.000000 0.000000
# 3 -0.004436 -0.004436 0.014532 0.000000 0.000000 0.000000
# 4 0.000000 0.000000 0.000000 0.065153 0.000000 0.000000
# 5 0.000000 0.000000 0.000000 0.000000 0.065153 0.000000
# 6 0.000000 0.000000 0.000000 0.000000 0.000000 0.028158
#
#
# Mechanical properties :
#
#
# Convention : Reuss Voigt Hill
#
# Bulk Modulus (GPa) = 45.74438 46.16779 45.95609
# Shear Modulus (GPa) = 22.10582 25.44711 23.77647
#
# Velocity S-wave (km/s) = 3.36882 3.61447 3.49380
# Velocity P-wave (km/s) = 6.21424 6.41259 6.31420
#
# Compressibility (1/GPa) = 0.02186061
#
# Stress axis : x y z
#
# Youngs Moduli (GPa) = 75.14694 75.14694 68.81192
#
# Poissons Ratio (x) = 0.05799 0.30523
# Poissons Ratio (y) = 0.05799 0.30523
# Poissons Ratio (z) = 0.33333 0.33333
#
# Static dielectric constant tensor:
#      x y z
#    x 3.552970 0.000000 0.000000 
#    y 0.000000 3.552970 0.000000 
#    z 0.000000 0.000000 3.540200 
# 
# 
# High freq. dielectric constant tensor:
#      x y z
#    x 1.753830 0.000000 0.000000 
#    y 0.000000 1.753830 0.000000 
#    z 0.000000 0.000000 1.759500 
# 
# From -- ./inp_files/2626.got.cif
#   From: 2010.06.25/outbox.cif.g09.slc.cpg/sg176_2_cif.got.tgz:2626.got - 2010.06.28 12:15:01.
