data_PCOD8325280
_publ_section_title
;
Structure prediction by ZEFSAII (Michael W. Deem and Ramdas Pophale) SiO2 
 PCOD8325280
Probable space group: P 6/M
;
_chemical_formula_sum "Si O2"
_cell_formula_units_Z 60
_cell_length_a 21.629516
_cell_length_b 21.629516
_cell_length_c 7.665390
_cell_angle_alpha 90.000000
_cell_angle_beta 90.000000
_cell_angle_gamma 120.000000
_cell_volume 3105.692765
_symmetry_space_group_name_H-M "P 6/M"
_symmetry_group_IT_number 175
_symmetry_cell_setting 'hexagonal'
loop_
_space_group_symop_operation_xyz
x,y,z
x-y,x,z
-y,x-y,z
-x,-y,z
-x+y,-x,z
y,-x+y,z
-x,-y,-z
-x+y,-x,-z
y,-x+y,-z
x,y,-z
x-y,x,-z
-y,x-y,-z
loop_
_atom_site_type_symbol
_atom_site_label
_atom_site_fract_x
_atom_site_fract_y
_atom_site_fract_z
Si Si1 0.736007 0.146433 0.699514
Si Si2 0.278567 0.279213 0.204740
Si Si3 0.323281 0.807225 0.000000
Si Si4 0.343322 0.526077 0.000000
Si Si5 0.144578 0.010180 0.207743
Si Si6 0.705161 0.576359 0.693754
O O1 0.710912 0.143839 0.500000
O O2 0.744470 0.079568 0.746267
O O3 0.679753 0.151697 0.827174
O O4 0.813810 0.213243 0.735810
O O5 0.201842 0.217966 0.275074
O O6 0.302656 0.354067 0.296810
O O7 0.275864 0.289684 0.000000
O O8 0.397116 0.808886 0.000000
O O9 0.260954 0.725465 0.000000
O O10 0.346092 0.483886 0.829695
O O11 0.077433 0.937606 0.280741
O O12 0.142467 0.008098 0.000000
O O13 0.683049 0.543344 0.500000
#
# Coordination Sequence:
#
# PCOD8325280 Si02
#       6
#    12  12   6   6  12  12
#     4  10  21  37  57  83 116 151 189 234 279 328
#     4  11  19  32  55  80 109 150 198 240 281 331
#     4  10  21  39  63  89 116 144 178 221 275 337
#     4  10  21  39  63  89 116 144 178 221 275 337
#     4   9  17  27  44  73 110 149 190 238 288 334
#     4  10  21  37  57  83 116 151 189 234 279 328
#
# _framework density 19.319361000000001
#
# number of rings (size 3 to 8) (size 9 to 14) (size 15 to 20)
#    0.000    2.000    2.000    2.200    0.000    3.200 
#    0.000    2.000    0.000    4.800    0.000    0.000 
#    0.000    9.600    0.000    0.000    0.000    0.000 
#
# Total GULP energy -744145.440409 kJ/mol
# GULP energy per Si atom -12402.424007 kJ/mol
# Density = 1.927539 g / cm^3
# Si number density = 19.319361 Si / 1000 Ang^3
#
#
#
# Elastic Constant Matrix: (Units=GPa)
#
#
# Indices 1 2 3 4 5 6 
#
# 1 82.0354 13.8245 27.6362 0.0000 0.0000 0.0000
# 2 13.8245 82.0354 27.6362 0.0000 0.0000 0.0000
# 3 27.6362 27.6362 99.8453 0.0000 0.0000 0.0000
# 4 0.0000 0.0000 0.0000 12.5794 0.0000 0.0000
# 5 0.0000 0.0000 0.0000 0.0000 12.5794 0.0000
# 6 0.0000 0.0000 0.0000 0.0000 0.0000 34.1054
#
#
#
# Elastic Compliance Matrix: (Units=1/GPa)
#
#
# Indices 1 2 3 4 5 6 
#
# 1 0.013537 -0.001124 -0.003436 0.000000 0.000000 0.000000
# 2 -0.001124 0.013537 -0.003436 0.000000 0.000000 0.000000
# 3 -0.003436 -0.003436 0.011917 0.000000 0.000000 0.000000
# 4 0.000000 0.000000 0.000000 0.079495 0.000000 0.000000
# 5 0.000000 0.000000 0.000000 0.000000 0.079495 0.000000
# 6 0.000000 0.000000 0.000000 0.000000 0.000000 0.029321
#
#
# Mechanical properties :
#
#
# Convention : Reuss Voigt Hill
#
# Bulk Modulus (GPa) = 43.47780 44.67888 44.07834
# Shear Modulus (GPa) = 19.92358 24.84079 22.38219
#
# Velocity S-wave (km/s) = 3.21483 3.58969 3.40742
# Velocity P-wave (km/s) = 6.02775 6.35278 6.19240
#
# Compressibility (1/GPa) = 0.02300024
#
# Stress axis : x y z
#
# Youngs Moduli (GPa) = 73.87331 73.87331 83.91032
#
# Poissons Ratio (x) = 0.08301 0.28830
# Poissons Ratio (y) = 0.08301 0.28830
# Poissons Ratio (z) = 0.25381 0.25381
#
# Static dielectric constant tensor:
#      x y z
#    x 3.402240 0.000000 0.000000 
#    y 0.000000 3.402240 0.000000 
#    z 0.000000 0.000000 3.641170 
# 
# 
# High freq. dielectric constant tensor:
#      x y z
#    x 1.742720 0.000000 0.000000 
#    y 0.000000 1.742720 0.000000 
#    z 0.000000 0.000000 1.755700 
# 
# From -- ./inp_files/936.got.cif
#   From: 2010.03.12/outbox.cif.g09.slc.cpg/sg175_1_cif.got.tgz:936.got - 2010.04.02 06:55:29.
