data_PCOD8325225
_publ_section_title
;
Structure prediction by ZEFSAII (Michael W. Deem and Ramdas Pophale) SiO2 
 PCOD8325225
Probable space group: P 6/M
;
_chemical_formula_sum "Si O2"
_cell_formula_units_Z 72
_cell_length_a 23.217520
_cell_length_b 23.217520
_cell_length_c 8.828913
_cell_angle_alpha 90.000000
_cell_angle_beta 90.000000
_cell_angle_gamma 120.000000
_cell_volume 4121.634966
_symmetry_space_group_name_H-M "P 6/M"
_symmetry_group_IT_number 175
_symmetry_cell_setting 'hexagonal'
loop_
_space_group_symop_operation_xyz
x,y,z
x-y,x,z
-y,x-y,z
-x,-y,z
-x+y,-x,z
y,-x+y,z
-x,-y,-z
-x+y,-x,-z
y,-x+y,-z
x,y,-z
x-y,x,-z
-y,x-y,-z
loop_
_atom_site_type_symbol
_atom_site_label
_atom_site_fract_x
_atom_site_fract_y
_atom_site_fract_z
Si Si1 0.592557 0.866106 0.832793
Si Si2 0.333123 0.798085 0.319931
Si Si3 0.538453 0.203679 0.322074
Si Si4 0.807997 0.073982 0.679910
Si Si5 0.133938 0.401469 0.169749
Si Si6 0.260817 0.064907 0.181050
O O1 0.532491 0.858555 0.728032
O O2 0.592904 0.797788 0.835426
O O3 0.665310 0.921624 0.773936
O O4 0.579581 0.884412 0.000000
O O5 0.332436 0.804334 0.500000
O O6 0.401410 0.804735 0.257238
O O7 0.273375 0.726567 0.264858
O O8 0.325930 0.857876 0.247183
O O9 0.541753 0.203760 0.500000
O O10 0.815205 0.079520 0.500000
O O11 0.747197 0.084557 0.731858
O O12 0.876728 0.126406 0.757210
O O13 0.792786 0.002161 0.737551
O O14 0.104845 0.393816 0.000000
O O15 0.251930 0.060762 0.000000
#
# Coordination Sequence:
#
# PCOD8325225 Si02
#       6
#    12  12  12  12  12  12
#     4   8  16  29  45  65  91 123 162 201 240 287
#     4   9  16  26  40  62  91 126 166 210 258 310
#     4   9  16  25  40  61  90 125 163 207 257 305
#     4  11  21  34  55  83 108 131 162 201 238 278
#     4   9  17  30  46  66  93 128 165 204 249 296
#     4  10  20  36  56  79 107 137 164 195 236 284
#
# _framework density 17.468796000000001
#
# number of rings (size 3 to 8) (size 9 to 14) (size 15 to 20)
#    0.000    2.667    0.000    3.833    0.000    6.667 
#    0.000    0.000    0.000    3.333    0.000    9.333 
#    0.000    0.000    0.000    0.000    0.000    0.000 
#
# Total GULP energy -892496.733132 kJ/mol
# GULP energy per Si atom -12395.787960 kJ/mol
# Density = 1.742904 g / cm^3
# Si number density = 17.468796 Si / 1000 Ang^3
#
#
#
# Elastic Constant Matrix: (Units=GPa)
#
#
# Indices 1 2 3 4 5 6 
#
# 1 81.1913 38.3593 23.6447 0.0000 0.0000 0.0000
# 2 38.3593 81.1913 23.6447 0.0000 0.0000 0.0000
# 3 23.6447 23.6447 62.9764 0.0000 0.0000 0.0000
# 4 0.0000 0.0000 0.0000 24.9955 0.0000 0.0000
# 5 0.0000 0.0000 0.0000 0.0000 24.9955 0.0000
# 6 0.0000 0.0000 0.0000 0.0000 0.0000 21.4160
#
#
#
# Elastic Compliance Matrix: (Units=1/GPa)
#
#
# Indices 1 2 3 4 5 6 
#
# 1 0.016585 -0.006762 -0.003688 0.000000 0.000000 0.000000
# 2 -0.006762 0.016585 -0.003688 0.000000 0.000000 0.000000
# 3 -0.003688 -0.003688 0.018649 0.000000 0.000000 0.000000
# 4 0.000000 0.000000 0.000000 0.040007 0.000000 0.000000
# 5 0.000000 0.000000 0.000000 0.000000 0.040007 0.000000
# 6 0.000000 0.000000 0.000000 0.000000 0.000000 0.046694
#
#
# Mechanical properties :
#
#
# Convention : Reuss Voigt Hill
#
# Bulk Modulus (GPa) = 42.47631 44.07292 43.27462
# Shear Modulus (GPa) = 23.29353 23.59542 23.44448
#
# Velocity S-wave (km/s) = 3.65559 3.67920 3.66741
# Velocity P-wave (km/s) = 6.49508 6.58278 6.53908
#
# Compressibility (1/GPa) = 0.02354253
#
# Stress axis : x y z
#
# Youngs Moduli (GPa) = 60.29423 60.29423 53.62354
#
# Poissons Ratio (x) = 0.40769 0.19778
# Poissons Ratio (y) = 0.40769 0.19778
# Poissons Ratio (z) = 0.22238 0.22238
#
# Static dielectric constant tensor:
#      x y z
#    x 3.227830 0.000000 0.000000 
#    y 0.000000 3.227830 0.000000 
#    z 0.000000 0.000000 3.282400 
# 
# 
# High freq. dielectric constant tensor:
#      x y z
#    x 1.654860 0.000000 0.000000 
#    y 0.000000 1.654860 0.000000 
#    z 0.000000 0.000000 1.676950 
# 
# From -- ./inp_files/1233.got.cif
#   From: 2010.03.12/outbox.cif.g09.slc.cpg/sg175_1_cif.got.tgz:1233.got - 2010.04.02 06:55:29.
