data_PCOD8325540
_publ_section_title
;
Structure prediction by ZEFSAII (Michael W. Deem and Ramdas Pophale) SiO2 
 PCOD8325540
Probable space group: P 63/M
;
_chemical_formula_sum "Si O2"
_cell_formula_units_Z 60
_cell_length_a 12.624782
_cell_length_b 12.624782
_cell_length_c 25.402977
_cell_angle_alpha 90.000000
_cell_angle_beta 90.000000
_cell_angle_gamma 120.000000
_cell_volume 3506.412630
_symmetry_space_group_name_H-M "P 63/M"
_symmetry_group_IT_number 176
_symmetry_cell_setting 'hexagonal'
loop_
_space_group_symop_operation_xyz
x,y,z
x-y,x,1/2+z
-y,x-y,z
-x,-y,1/2+z
-x+y,-x,z
y,-x+y,1/2+z
-x,-y,-z
-x+y,-x,1/2-z
y,-x+y,-z
x,y,1/2-z
x-y,x,-z
-y,x-y,1/2-z
loop_
_atom_site_type_symbol
_atom_site_label
_atom_site_fract_x
_atom_site_fract_y
_atom_site_fract_z
Si Si1 0.419420 0.087317 0.652667
Si Si2 0.001594 0.248317 0.250000
Si Si3 0.243338 0.000052 0.559874
Si Si4 0.419420 0.332103 0.652667
Si Si5 0.000052 0.243338 0.440126
Si Si6 0.246723 0.248317 0.250000
O O1 0.357469 0.029424 0.596831
O O2 0.458714 0.229357 0.655887
O O3 0.537748 0.075497 0.659665
O O4 0.325653 0.011391 0.698607
O O5 0.011391 0.325653 0.198607
O O6 0.104888 0.209776 0.250000
O O7 0.871610 0.128390 0.250000
O O8 0.285050 1.000000 0.500000
O O9 0.202175 0.101088 0.567354
O O10 0.129540 0.870460 0.576113
O O11 0.357469 0.328044 0.596831
#
# Coordination Sequence:
#
# PCOD8325540 Si02
#       6
#    12   6  12  12  12   6
#     4  10  20  33  50  71  97 130 165 199 233 276
#     4  10  20  34  54  78 100 122 152 196 248 294
#     4   9  17  30  50  75 100 126 158 200 249 294
#     4  10  20  33  50  71  97 130 165 199 233 276
#     4   9  17  30  50  75 100 126 158 200 249 294
#     4  10  20  34  54  78 100 122 152 196 248 294
#
# _framework density 17.111507
#
# number of rings (size 3 to 8) (size 9 to 14) (size 15 to 20)
#    0.000    2.400    0.000    2.800    0.000    2.400 
#    0.000    6.000    0.000   11.200    0.000    0.000 
#    0.000    0.000    0.000    0.000    0.000    0.000 
#
# Total GULP energy -744164.103852 kJ/mol
# GULP energy per Si atom -12402.735064 kJ/mol
# Density = 1.707256 g / cm^3
# Si number density = 17.111507 Si / 1000 Ang^3
#
#
#
# Elastic Constant Matrix: (Units=GPa)
#
#
# Indices 1 2 3 4 5 6 
#
# 1 117.3715 77.8650 62.2650 0.0000 0.0000 0.0000
# 2 77.8650 117.3715 62.2650 0.0000 0.0000 0.0000
# 3 62.2650 62.2650 119.8440 0.0000 0.0000 0.0000
# 4 0.0000 0.0000 0.0000 16.5426 0.0000 0.0000
# 5 0.0000 0.0000 0.0000 0.0000 16.5426 0.0000
# 6 0.0000 0.0000 0.0000 0.0000 0.0000 19.7532
#
#
#
# Elastic Compliance Matrix: (Units=1/GPa)
#
#
# Indices 1 2 3 4 5 6 
#
# 1 0.016486 -0.008826 -0.003980 0.000000 0.000000 0.000000
# 2 -0.008826 0.016486 -0.003980 0.000000 0.000000 0.000000
# 3 -0.003980 -0.003980 0.012480 0.000000 0.000000 0.000000
# 4 0.000000 0.000000 0.000000 0.060450 0.000000 0.000000
# 5 0.000000 0.000000 0.000000 0.000000 0.060450 0.000000
# 6 0.000000 0.000000 0.000000 0.000000 0.000000 0.050625
#
#
# Mechanical properties :
#
#
# Convention : Reuss Voigt Hill
#
# Bulk Modulus (GPa) = 84.16916 84.37520 84.27218
# Shear Modulus (GPa) = 19.64560 20.71382 20.17971
#
# Velocity S-wave (km/s) = 3.39203 3.48303 3.43783
# Velocity P-wave (km/s) = 8.03969 8.09885 8.06932
#
# Compressibility (1/GPa) = 0.01188084
#
# Stress axis : x y z
#
# Youngs Moduli (GPa) = 60.65577 60.65577 80.12881
#
# Poissons Ratio (x) = 0.53534 0.31892
# Poissons Ratio (y) = 0.53534 0.31892
# Poissons Ratio (z) = 0.24142 0.24142
#
# Static dielectric constant tensor:
#      x y z
#    x 2.995920 0.000000 0.000000 
#    y 0.000000 2.995920 0.000000 
#    z 0.000000 0.000000 3.516280 
# 
# 
# High freq. dielectric constant tensor:
#      x y z
#    x 1.647580 0.000000 0.000000 
#    y 0.000000 1.647580 0.000000 
#    z 0.000000 0.000000 1.680940 
# 
# From -- ./inp_files/4230.got.cif
#   From: 2010.06.25/outbox.cif.g09.slc.cpg/sg176_3_cif.got.tgz:4230.got - 2010.06.28 12:15:01.
