data_PCOD8325314
_publ_section_title
;
Structure prediction by ZEFSAII (Michael W. Deem and Ramdas Pophale) SiO2 
 PCOD8325314
Probable space group: P 6/M
;
_chemical_formula_sum "Si O2"
_cell_formula_units_Z 78
_cell_length_a 24.196032
_cell_length_b 24.196032
_cell_length_c 7.536196
_cell_angle_alpha 90.000000
_cell_angle_beta 90.000000
_cell_angle_gamma 120.000000
_cell_volume 3820.947910
_symmetry_space_group_name_H-M "P 6/M"
_symmetry_group_IT_number 175
_symmetry_cell_setting 'hexagonal'
loop_
_space_group_symop_operation_xyz
x,y,z
x-y,x,z
-y,x-y,z
-x,-y,z
-x+y,-x,z
y,-x+y,z
-x,-y,-z
-x+y,-x,-z
y,-x+y,-z
x,y,-z
x-y,x,-z
-y,x-y,-z
loop_
_atom_site_type_symbol
_atom_site_label
_atom_site_fract_x
_atom_site_fract_y
_atom_site_fract_z
Si Si1 0.735933 0.886911 0.701324
Si Si2 0.453973 0.025125 0.210821
Si Si3 0.596432 0.794783 0.790763
Si Si4 0.255214 0.649875 0.500000
Si Si5 0.776698 0.022235 0.287112
Si Si6 0.510517 0.171005 0.210043
Si Si7 0.316569 0.931571 0.799333
O O1 0.758212 0.898232 0.500000
O O2 0.659549 0.854085 0.710698
O O3 0.761003 0.842451 0.788291
O O4 0.769439 0.956772 0.790783
O O5 0.479032 0.097606 0.273667
O O6 0.500000 0.000000 0.280104
O O7 0.384950 0.975100 0.295443
O O8 0.449665 0.024514 0.000000
O O9 0.536799 0.802663 0.738452
O O10 0.589027 0.728190 0.713318
O O11 0.606113 0.796610 0.000000
O O12 0.279105 0.597829 0.500000
O O13 0.213574 0.638977 0.322248
O O14 0.773282 0.023713 0.500000
O O15 0.718702 0.027694 0.207498
O O16 0.526932 0.178741 0.000000
O O17 0.330412 0.920652 0.000000
#
# Coordination Sequence:
#
# PCOD8325314 Si02
#       7
#    12  12  12   6  12  12  12
#     4   9  17  28  45  68  99 137 171 218 266 323
#     4   9  18  33  55  83 113 146 181 224 279 334
#     4   9  18  31  52  83 108 139 179 216 273 334
#     4  10  26  46  61  86 114 142 192 248 288 325
#     4   9  17  29  44  66  95 130 172 209 263 317
#     4  10  21  39  64  87 114 153 192 233 289 349
#     4   9  17  31  50  76 109 135 168 216 263 323
#
# _framework density 20.413782999999999
#
# number of rings (size 3 to 8) (size 9 to 14) (size 15 to 20)
#    0.154    2.615    0.000    0.923    1.077    3.692 
#    1.385    3.462    0.000    0.308    0.000    2.154 
#    0.000    0.000    0.000    7.692    0.000    8.000 
#
# Total GULP energy -966508.554701 kJ/mol
# GULP energy per Si atom -12391.135317 kJ/mol
# Density = 2.036732 g / cm^3
# Si number density = 20.413783 Si / 1000 Ang^3
#
#
#
# Elastic Constant Matrix: (Units=GPa)
#
#
# Indices 1 2 3 4 5 6 
#
# 1 144.0916 76.1172 14.0392 0.0000 0.0000 0.0000
# 2 76.1172 144.0916 14.0392 0.0000 0.0000 0.0000
# 3 14.0392 14.0392 40.9451 0.0000 0.0000 0.0000
# 4 0.0000 0.0000 0.0000 33.8053 0.0000 0.0000
# 5 0.0000 0.0000 0.0000 0.0000 33.8053 0.0000
# 6 0.0000 0.0000 0.0000 0.0000 0.0000 33.9872
#
#
#
# Elastic Compliance Matrix: (Units=1/GPa)
#
#
# Indices 1 2 3 4 5 6 
#
# 1 0.009730 -0.004981 -0.001628 0.000000 0.000000 0.000000
# 2 -0.004981 0.009730 -0.001628 0.000000 0.000000 0.000000
# 3 -0.001628 -0.001628 0.025540 0.000000 0.000000 0.000000
# 4 0.000000 0.000000 0.000000 0.029581 0.000000 0.000000
# 5 0.000000 0.000000 0.000000 0.000000 0.029581 0.000000
# 6 0.000000 0.000000 0.000000 0.000000 0.000000 0.029423
#
#
# Mechanical properties :
#
#
# Convention : Reuss Voigt Hill
#
# Bulk Modulus (GPa) = 35.05815 59.72440 47.39128
# Shear Modulus (GPa) = 31.33450 35.31507 33.32478
#
# Velocity S-wave (km/s) = 3.92212 4.16379 4.04476
# Velocity P-wave (km/s) = 6.14180 7.24132 6.71410
#
# Compressibility (1/GPa) = 0.02852404
#
# Stress axis : x y z
#
# Youngs Moduli (GPa) = 102.77401 102.77401 39.15501
#
# Poissons Ratio (x) = 0.51195 0.06375
# Poissons Ratio (y) = 0.51195 0.06375
# Poissons Ratio (z) = 0.16734 0.16734
#
# Static dielectric constant tensor:
#      x y z
#    x 3.891090 0.000000 0.000000 
#    y 0.000000 3.891090 0.000000 
#    z 0.000000 0.000000 3.407620 
# 
# 
# High freq. dielectric constant tensor:
#      x y z
#    x 1.792790 0.000000 0.000000 
#    y 0.000000 1.792790 0.000000 
#    z 0.000000 0.000000 1.779540 
# 
# From -- ./inp_files/1342.got.cif
#   From: 2010.03.12/outbox.cif.g09.slc.cpg/sg175_1_cif.got.tgz:1342.got - 2010.04.02 06:55:29.
