data_PCOD8325833
_publ_section_title
;
Structure prediction by ZEFSAII (Michael W. Deem and Ramdas Pophale) SiO2 
 PCOD8325833
Probable space group: P 61 2 2
;
_chemical_formula_sum "Si O2"
_cell_formula_units_Z 42
_cell_length_a 21.715054
_cell_length_b 21.715054
_cell_length_c 5.167515
_cell_angle_alpha 90.000000
_cell_angle_beta 90.000000
_cell_angle_gamma 120.000000
_cell_volume 2110.251439
_symmetry_space_group_name_H-M "P 61 2 2"
_symmetry_group_IT_number 178
_symmetry_cell_setting 'hexagonal'
loop_
_space_group_symop_operation_xyz
x,y,z
x-y,x,1/6+z
-y,x-y,1/3+z
-x,-y,1/2+z
-x+y,-x,2/3+z
y,-x+y,5/6+z
x-y,-y,-z
-x,-x+y,2/3-z
y,x,1/3-z
-y,-x,5/6-z
-x+y,y,1/2-z
x,x-y,1/6-z
loop_
_atom_site_type_symbol
_atom_site_label
_atom_site_fract_x
_atom_site_fract_y
_atom_site_fract_z
Si Si1 0.141682 0.530258 0.840031
Si Si2 0.286678 0.918054 0.499069
Si Si3 0.084551 0.298764 0.328218
Si Si4 0.294401 0.588802 0.750000
O O1 0.136692 0.568346 0.583334
O O2 0.093015 0.446833 0.795518
O O3 0.220755 0.541654 0.903205
O O4 0.115751 0.557876 0.083334
O O5 0.251526 0.890997 0.778586
O O6 0.313894 0.000000 0.500000
O O7 0.230176 0.887250 0.262836
O O8 0.129855 0.259709 0.250000
O O9 0.000000 0.240841 0.333334
O O10 0.274957 0.637479 0.583334
#
# Coordination Sequence:
#
# PCOD8325833 Si02
#       4
#    12  12  12   6
#     4  11  23  36  55  78 104 150 189 237 301 343
#     4  10  22  39  57  86 117 147 192 238 284 347
#     4  10  21  38  61  89 120 152 189 233 280 335
#     4  10  20  36  48  68 106 130 188 240 282 332
#
# _framework density 19.902840000000001
#
# number of rings (size 3 to 8) (size 9 to 14) (size 15 to 20)
#    0.000    1.714    1.429    2.571    4.000    1.143 
#    0.000    0.000    0.000    0.000    0.000    6.000 
#    0.000    0.000    0.000    0.000    0.000    0.000 
#
# Total GULP energy -520344.153621 kJ/mol
# GULP energy per Si atom -12389.146515 kJ/mol
# Density = 1.985754 g / cm^3
# Si number density = 19.902840 Si / 1000 Ang^3
#
#
#
# Elastic Constant Matrix: (Units=GPa)
#
#
# Indices 1 2 3 4 5 6 
#
# 1 63.0499 37.8851 41.0232 0.0000 0.0000 0.0000
# 2 37.8851 63.0499 41.0232 0.0000 0.0000 0.0000
# 3 41.0232 41.0232 141.6855 0.0000 0.0000 0.0000
# 4 0.0000 0.0000 0.0000 21.5247 0.0000 0.0000
# 5 0.0000 0.0000 0.0000 0.0000 21.5247 0.0000
# 6 0.0000 0.0000 0.0000 0.0000 0.0000 12.5824
#
#
#
# Elastic Compliance Matrix: (Units=1/GPa)
#
#
# Indices 1 2 3 4 5 6 
#
# 1 0.026347 -0.013391 -0.003751 0.000000 0.000000 0.000000
# 2 -0.013391 0.026347 -0.003751 0.000000 0.000000 0.000000
# 3 -0.003751 -0.003751 0.009230 0.000000 0.000000 0.000000
# 4 0.000000 0.000000 0.000000 0.046458 0.000000 0.000000
# 5 0.000000 0.000000 0.000000 0.000000 0.046458 0.000000
# 6 0.000000 0.000000 0.000000 0.000000 0.000000 0.079476
#
#
# Mechanical properties :
#
#
# Convention : Reuss Voigt Hill
#
# Bulk Modulus (GPa) = 49.65741 56.40535 53.03138
# Shear Modulus (GPa) = 17.67925 20.98328 19.33127
#
# Velocity S-wave (km/s) = 2.98363 3.25050 3.11992
# Velocity P-wave (km/s) = 6.07235 6.51840 6.29933
#
# Compressibility (1/GPa) = 0.02013798
#
# Stress axis : x y z
#
# Youngs Moduli (GPa) = 37.95439 37.95439 108.33928
#
# Poissons Ratio (x) = 0.50823 0.40643
# Poissons Ratio (y) = 0.50823 0.40643
# Poissons Ratio (z) = 0.14238 0.14238
#
# Static dielectric constant tensor:
#      x y z
#    x 3.616000 0.000000 0.000000 
#    y 0.000000 3.616000 0.000000 
#    z 0.000000 0.000000 4.194260 
# 
# 
# High freq. dielectric constant tensor:
#      x y z
#    x 1.763810 0.000000 0.000000 
#    y 0.000000 1.763810 0.000000 
#    z 0.000000 0.000000 1.790640 
# 
# From -- ./inp_files/711.got.cif
#   From: 2010.03.12/outbox.cif.g09.slc.cpg/sg178_1_cif.got.tgz:711.got - 2010.04.02 07:02:38.
