data_PCOD8325548
_publ_section_title
;
Structure prediction by ZEFSAII (Michael W. Deem and Ramdas Pophale) SiO2 
 PCOD8325548
Probable space group: P 63/M
;
_chemical_formula_sum "Si O2"
_cell_formula_units_Z 68
_cell_length_a 18.410059
_cell_length_b 18.410059
_cell_length_c 13.293391
_cell_angle_alpha 90.000000
_cell_angle_beta 90.000000
_cell_angle_gamma 120.000000
_cell_volume 3901.905717
_symmetry_space_group_name_H-M "P 63/M"
_symmetry_group_IT_number 176
_symmetry_cell_setting 'hexagonal'
loop_
_space_group_symop_operation_xyz
x,y,z
x-y,x,1/2+z
-y,x-y,z
-x,-y,1/2+z
-x+y,-x,z
y,-x+y,1/2+z
-x,-y,-z
-x+y,-x,1/2-z
y,-x+y,-z
x,y,1/2-z
x-y,x,-z
-y,x-y,1/2-z
loop_
_atom_site_type_symbol
_atom_site_label
_atom_site_fract_x
_atom_site_fract_y
_atom_site_fract_z
Si Si1 0.405613 0.303625 0.365374
Si Si2 0.247300 0.999501 0.497854
Si Si3 0.333335 0.666667 0.629063
Si Si4 0.585569 0.436476 0.131670
Si Si5 0.000000 0.000000 0.883745
Si Si6 0.264064 0.393579 0.634670
Si Si7 0.190542 0.093701 0.639013
O O1 0.379135 0.307951 0.250000
O O2 0.334494 0.291791 0.442560
O O3 0.487306 0.392168 0.397299
O O4 0.426877 0.228673 0.374581
O O5 0.181887 0.937021 0.416639
O O6 0.315249 0.081191 0.438865
O O7 0.196597 0.022124 0.577824
O O8 0.333334 0.666668 0.750000
O O9 0.240507 0.624178 0.582715
O O10 0.593773 0.432043 0.250000
O O11 0.642951 0.533842 0.099204
O O12 0.933865 0.026935 0.846695
O O13 0.000000 0.000000 0.000000
O O14 0.266230 0.366246 0.750000
O O15 0.229835 0.103356 0.750000
#
# Coordination Sequence:
#
# PCOD8325548 Si02
#       7
#    12  12   4  12   4  12  12
#     4  10  20  34  54  79 108 139 172 220 274 322
#     4  12  22  38  52  74 112 144 182 222 264 326
#     4   9  12  21  45  72 102 126 151 194 247 306
#     4   9  16  29  52  81 105 131 167 208 264 322
#     4  12  22  41  55  79 104 136 190 242 271 325
#     4  10  20  34  54  79 108 139 172 220 274 322
#     4  12  24  38  57  77 105 148 191 231 275 321
#
# _framework density 17.427382000000001
#
# number of rings (size 3 to 8) (size 9 to 14) (size 15 to 20)
#    0.000    1.412    5.294    1.588    0.000    0.706 
#    0.000    0.000    0.000    0.000    0.000    0.000 
#    0.000    0.000    0.000    0.000    0.000    0.000 
#
# Total GULP energy -842952.146695 kJ/mol
# GULP energy per Si atom -12396.355098 kJ/mol
# Density = 1.738772 g / cm^3
# Si number density = 17.427382 Si / 1000 Ang^3
#
#
#
# Elastic Constant Matrix: (Units=GPa)
#
#
# Indices 1 2 3 4 5 6 
#
# 1 63.3004 5.0374 23.1912 0.0000 0.0000 0.0000
# 2 5.0374 63.3013 23.1912 0.0000 0.0000 0.0000
# 3 23.1912 23.1912 87.8729 0.0000 0.0000 0.0000
# 4 0.0000 0.0000 0.0000 15.2317 0.0000 0.0000
# 5 0.0000 0.0000 0.0000 0.0000 15.2315 0.0000
# 6 0.0000 0.0000 0.0000 0.0000 0.0000 29.1316
#
#
#
# Elastic Compliance Matrix: (Units=1/GPa)
#
#
# Indices 1 2 3 4 5 6 
#
# 1 0.017495 0.000331 -0.004705 0.000000 0.000000 0.000000
# 2 0.000331 0.017495 -0.004705 0.000000 0.000000 0.000000
# 3 -0.004705 -0.004705 0.013863 0.000000 0.000000 0.000000
# 4 0.000000 0.000000 0.000000 0.065653 0.000000 0.000000
# 5 0.000000 0.000000 0.000000 0.000000 0.065653 0.000000
# 6 0.000000 0.000000 0.000000 0.000000 0.000000 0.034327
#
#
# Mechanical properties :
#
#
# Convention : Reuss Voigt Hill
#
# Bulk Modulus (GPa) = 32.57628 35.25714 33.91671
# Shear Modulus (GPa) = 20.58680 22.78927 21.68804
#
# Velocity S-wave (km/s) = 3.44072 3.62010 3.53155
# Velocity P-wave (km/s) = 5.87519 6.14396 6.01108
#
# Compressibility (1/GPa) = 0.03069718
#
# Stress axis : x y z
#
# Youngs Moduli (GPa) = 57.15933 57.16019 72.13261
#
# Poissons Ratio (x) = -0.01894 0.33936
# Poissons Ratio (y) = -0.01894 0.33936
# Poissons Ratio (z) = 0.26892 0.26892
#
# Static dielectric constant tensor:
#      x y z
#    x 3.122530 0.000000 0.000000 
#    y 0.000000 3.122530 0.000000 
#    z 0.000000 0.000000 3.122580 
# 
# 
# High freq. dielectric constant tensor:
#      x y z
#    x 1.669590 0.000000 0.000000 
#    y 0.000000 1.669590 0.000000 
#    z 0.000000 0.000000 1.649880 
# 
# From -- ./inp_files/2833.got.cif
#   From: 2010.06.25/outbox.cif.g09.slc.cpg/sg176_2_cif.got.tgz:2833.got - 2010.06.28 12:15:01.
