data_PCOD8325283
_publ_section_title
;
Structure prediction by ZEFSAII (Michael W. Deem and Ramdas Pophale) SiO2 
 PCOD8325283
Probable space group: P 6/M
;
_chemical_formula_sum "Si O2"
_cell_formula_units_Z 48
_cell_length_a 17.931743
_cell_length_b 17.931743
_cell_length_c 8.674777
_cell_angle_alpha 90.000000
_cell_angle_beta 90.000000
_cell_angle_gamma 120.000000
_cell_volume 2415.649736
_symmetry_space_group_name_H-M "P 6/M"
_symmetry_group_IT_number 175
_symmetry_cell_setting 'hexagonal'
loop_
_space_group_symop_operation_xyz
x,y,z
x-y,x,z
-y,x-y,z
-x,-y,z
-x+y,-x,z
y,-x+y,z
-x,-y,-z
-x+y,-x,-z
y,-x+y,-z
x,y,-z
x-y,x,-z
-y,x-y,-z
loop_
_atom_site_type_symbol
_atom_site_label
_atom_site_fract_x
_atom_site_fract_y
_atom_site_fract_z
Si Si1 0.083256 0.198454 0.819391
Si Si2 0.375567 0.463640 0.821147
Si Si3 0.383725 0.905846 0.322396
Si Si4 0.186876 0.806727 0.322382
O O1 0.136372 0.151780 0.771489
O O2 0.117100 0.286798 0.727089
O O3 0.092163 0.218971 0.000000
O O4 0.422463 0.553700 0.726230
O O5 0.419058 0.406613 0.783180
O O6 0.276105 0.406780 0.780278
O O7 0.385599 0.486183 0.000000
O O8 0.399515 0.935056 0.500000
O O9 0.285741 0.834162 0.293327
O O10 0.161263 0.784121 0.500000
#
# Coordination Sequence:
#
# PCOD8325283 Si02
#       4
#    12  12  12  12
#     4  10  21  37  58  85 119 158 199 245 294 344
#     4  11  22  37  60  86 114 147 186 235 288 342
#     4  10  21  39  61  83 113 151 190 233 283 342
#     4  11  23  38  58  85 115 152 194 237 285 344
#
# _framework density 19.870432000000001
#
# number of rings (size 3 to 8) (size 9 to 14) (size 15 to 20)
#    0.000    1.500    0.000    7.000    0.000   10.000 
#    1.500    0.000    0.000    1.500    0.000    0.000 
#    0.000    0.000    0.000    0.000    0.000    0.000 
#
# Total GULP energy -595427.844062 kJ/mol
# GULP energy per Si atom -12404.746751 kJ/mol
# Density = 1.982521 g / cm^3
# Si number density = 19.870432 Si / 1000 Ang^3
#
#
#
# Elastic Constant Matrix: (Units=GPa)
#
#
# Indices 1 2 3 4 5 6 
#
# 1 69.0773 11.8521 24.2702 0.0000 0.0000 0.0000
# 2 11.8521 69.0773 24.2702 0.0000 0.0000 0.0000
# 3 24.2702 24.2702 82.4994 0.0000 0.0000 0.0000
# 4 0.0000 0.0000 0.0000 24.5517 0.0000 0.0000
# 5 0.0000 0.0000 0.0000 0.0000 24.5517 0.0000
# 6 0.0000 0.0000 0.0000 0.0000 0.0000 28.6126
#
#
#
# Elastic Compliance Matrix: (Units=1/GPa)
#
#
# Indices 1 2 3 4 5 6 
#
# 1 0.016239 -0.001235 -0.004414 0.000000 0.000000 0.000000
# 2 -0.001235 0.016239 -0.004414 0.000000 0.000000 0.000000
# 3 -0.004414 -0.004414 0.014718 0.000000 0.000000 0.000000
# 4 0.000000 0.000000 0.000000 0.040730 0.000000 0.000000
# 5 0.000000 0.000000 0.000000 0.000000 0.040730 0.000000
# 6 0.000000 0.000000 0.000000 0.000000 0.000000 0.034950
#
#
# Mechanical properties :
#
#
# Convention : Reuss Voigt Hill
#
# Bulk Modulus (GPa) = 36.94078 37.93764 37.43921
# Shear Modulus (GPa) = 25.93933 26.22730 26.08331
#
# Velocity S-wave (km/s) = 3.61698 3.63701 3.62701
# Velocity P-wave (km/s) = 6.00622 6.06391 6.03513
#
# Compressibility (1/GPa) = 0.02707035
#
# Stress axis : x y z
#
# Youngs Moduli (GPa) = 61.57881 61.57881 67.94249
#
# Poissons Ratio (x) = 0.07608 0.29989
# Poissons Ratio (y) = 0.07608 0.29989
# Poissons Ratio (z) = 0.27180 0.27180
#
# Static dielectric constant tensor:
#      x y z
#    x 3.672720 0.000000 0.000000 
#    y 0.000000 3.672720 0.000000 
#    z 0.000000 0.000000 3.627400 
# 
# 
# High freq. dielectric constant tensor:
#      x y z
#    x 1.776600 0.000000 0.000000 
#    y 0.000000 1.776600 0.000000 
#    z 0.000000 0.000000 1.782280 
# 
# From -- ./inp_files/518.got.cif
#   From: 2010.03.12/outbox.cif.g09.slc.cpg/sg175_1_cif.got.tgz:518.got - 2010.04.02 06:55:29.
