data_PCOD8325337
_publ_section_title
;
Structure prediction by ZEFSAII (Michael W. Deem and Ramdas Pophale) SiO2 
 PCOD8325337
Probable space group: P 6/M
;
_chemical_formula_sum "Si O2"
_cell_formula_units_Z 60
_cell_length_a 17.466266
_cell_length_b 17.466266
_cell_length_c 11.172780
_cell_angle_alpha 90.000000
_cell_angle_beta 90.000000
_cell_angle_gamma 120.000000
_cell_volume 2951.834598
_symmetry_space_group_name_H-M "P 6/M"
_symmetry_group_IT_number 175
_symmetry_cell_setting 'hexagonal'
loop_
_space_group_symop_operation_xyz
x,y,z
x-y,x,z
-y,x-y,z
-x,-y,z
-x+y,-x,z
y,-x+y,z
-x,-y,-z
-x+y,-x,-z
y,-x+y,-z
x,y,-z
x-y,x,-z
-y,x-y,-z
loop_
_atom_site_type_symbol
_atom_site_label
_atom_site_fract_x
_atom_site_fract_y
_atom_site_fract_z
Si Si1 0.804391 0.618978 0.638400
Si Si2 0.501304 0.108782 0.638252
Si Si3 0.871773 0.801196 0.743396
Si Si4 0.641921 0.682844 0.000000
Si Si5 0.072682 0.440257 0.748944
Si Si6 0.271726 0.108347 0.000000
O O1 0.828391 0.627726 0.500000
O O2 0.709946 0.532514 0.664161
O O3 0.805769 0.707056 0.683331
O O4 0.877314 0.611166 0.713158
O O5 0.529851 0.114039 0.500000
O O6 0.585034 0.131321 0.724254
O O7 0.419739 0.012065 0.664961
O O8 0.838992 0.867259 0.699444
O O9 0.868587 0.792250 0.886292
O O10 0.581608 0.629210 0.887432
O O11 0.664742 0.785271 0.000000
O O12 0.729433 0.673115 0.000000
#
# Coordination Sequence:
#
# PCOD8325337 Si02
#       6
#    12  12  12   6  12   6
#     4  11  22  39  64  90 120 166 213 262 320 384
#     4  10  22  40  64  93 126 159 206 262 315 383
#     4  12  23  38  59  90 130 174 218 266 315 374
#     4  12  24  37  66  92 127 165 214 265 311 379
#     4  11  22  40  62  91 123 161 203 261 318 372
#     4  12  20  38  57  89 122 162 215 261 305 369
#
# _framework density 20.326340999999999
#
# number of rings (size 3 to 8) (size 9 to 14) (size 15 to 20)
#    0.000    0.800    4.000    5.000    0.000    4.000 
#    1.200    3.000    0.000    1.200    0.000    0.000 
#    0.000    0.000    0.000    0.000    0.000    0.000 
#
# Total GULP energy -744086.805849 kJ/mol
# GULP energy per Si atom -12401.446764 kJ/mol
# Density = 2.028008 g / cm^3
# Si number density = 20.326341 Si / 1000 Ang^3
#
#
#
# Elastic Constant Matrix: (Units=GPa)
#
#
# Indices 1 2 3 4 5 6 
#
# 1 82.6618 19.8673 28.8733 0.0000 0.0000 0.0000
# 2 19.8673 82.6618 28.8733 0.0000 0.0000 0.0000
# 3 28.8733 28.8733 68.5667 0.0000 0.0000 0.0000
# 4 0.0000 0.0000 0.0000 29.4482 0.0000 0.0000
# 5 0.0000 0.0000 0.0000 0.0000 29.4482 0.0000
# 6 0.0000 0.0000 0.0000 0.0000 0.0000 31.3972
#
#
#
# Elastic Compliance Matrix: (Units=1/GPa)
#
#
# Indices 1 2 3 4 5 6 
#
# 1 0.014355 -0.001570 -0.005384 0.000000 0.000000 0.000000
# 2 -0.001570 0.014355 -0.005384 0.000000 0.000000 0.000000
# 3 -0.005384 -0.005384 0.019119 0.000000 0.000000 0.000000
# 4 0.000000 0.000000 0.000000 0.033958 0.000000 0.000000
# 5 0.000000 0.000000 0.000000 0.000000 0.033958 0.000000
# 6 0.000000 0.000000 0.000000 0.000000 0.000000 0.031850
#
#
# Mechanical properties :
#
#
# Convention : Reuss Voigt Hill
#
# Bulk Modulus (GPa) = 43.18901 43.23536 43.21219
# Shear Modulus (GPa) = 27.77952 28.47715 28.12834
#
# Velocity S-wave (km/s) = 3.70087 3.74705 3.72403
# Velocity P-wave (km/s) = 6.28934 6.32750 6.30845
#
# Compressibility (1/GPa) = 0.02315404
#
# Stress axis : x y z
#
# Youngs Moduli (GPa) = 69.66041 69.66041 52.30459
#
# Poissons Ratio (x) = 0.10934 0.28161
# Poissons Ratio (y) = 0.10934 0.28161
# Poissons Ratio (z) = 0.37506 0.37506
#
# Static dielectric constant tensor:
#      x y z
#    x 3.794080 0.000000 0.000000 
#    y 0.000000 3.794080 0.000000 
#    z 0.000000 0.000000 3.682140 
# 
# 
# High freq. dielectric constant tensor:
#      x y z
#    x 1.789870 0.000000 0.000000 
#    y 0.000000 1.789870 0.000000 
#    z 0.000000 0.000000 1.797010 
# 
# From -- ./inp_files/1846.got.cif
#   From: 2010.03.12/outbox.cif.g09.slc.cpg/sg175_1_cif.got.tgz:1846.got - 2010.04.02 06:55:29.
