data_PCOD8325401
_publ_section_title
;
Structure prediction by ZEFSAII (Michael W. Deem and Ramdas Pophale) SiO2 
 PCOD8325401
Probable space group: P 63/M
;
_chemical_formula_sum "Si O2"
_cell_formula_units_Z 84
_cell_length_a 24.287443
_cell_length_b 24.287443
_cell_length_c 9.830848
_cell_angle_alpha 90.000000
_cell_angle_beta 90.000000
_cell_angle_gamma 120.000000
_cell_volume 5022.098214
_symmetry_space_group_name_H-M "P 63/M"
_symmetry_group_IT_number 176
_symmetry_cell_setting 'hexagonal'
loop_
_space_group_symop_operation_xyz
x,y,z
x-y,x,1/2+z
-y,x-y,z
-x,-y,1/2+z
-x+y,-x,z
y,-x+y,1/2+z
-x,-y,-z
-x+y,-x,1/2-z
y,-x+y,-z
x,y,1/2-z
x-y,x,-z
-y,x-y,1/2-z
loop_
_atom_site_type_symbol
_atom_site_label
_atom_site_fract_x
_atom_site_fract_y
_atom_site_fract_z
Si Si1 0.286298 0.919988 0.904783
Si Si2 0.190295 0.382895 0.409041
Si Si3 0.057661 0.592548 0.899534
Si Si4 0.368483 0.063549 0.907349
Si Si5 0.206063 0.586882 0.099108
Si Si6 0.756675 0.280749 0.912393
Si Si7 0.513375 0.594219 0.005349
O O1 0.261150 0.906770 0.750000
O O2 0.346067 0.908333 0.914219
O O3 0.310574 0.993642 0.946042
O O4 0.227765 0.874762 0.004047
O O5 0.172319 0.381130 0.250000
O O6 0.230427 0.346249 0.432162
O O7 0.237413 0.453206 0.468204
O O8 0.077007 0.623643 0.750000
O O9 0.083129 0.543195 0.915367
O O10 0.082202 0.648874 0.010343
O O11 0.981663 0.550588 0.905952
O O12 0.388158 0.065072 0.750000
O O13 0.231734 0.610605 0.250000
O O14 0.203674 0.646600 0.030456
O O15 0.255035 0.569335 0.028322
O O16 0.138863 0.522499 0.108738
O O17 0.758308 0.275883 0.750000
#
# Coordination Sequence:
#
# PCOD8325401 Si02
#       7
#    12  12  12  12  12  12  12
#     4  10  20  34  51  72  98 129 158 193 242 293
#     4  10  19  34  52  72  95 126 163 199 239 291
#     4  10  20  31  47  70  93 122 160 199 241 294
#     4   9  20  36  52  72 101 129 157 199 252 295
#     4  10  17  27  42  63  86 113 151 197 240 285
#     4   9  17  26  41  64  88 113 149 197 245 284
#     4  10  19  30  45  64  93 124 152 195 245 293
#
# _framework density 16.726075999999999
#
# number of rings (size 3 to 8) (size 9 to 14) (size 15 to 20)
#    0.000    2.286    1.429    2.000    0.000    9.143 
#    0.000    0.000    0.000    0.000    0.000    0.000 
#    0.000    0.000    0.000    0.429    0.000    5.143 
#
# Total GULP energy -1040693.242294 kJ/mol
# GULP energy per Si atom -12389.205265 kJ/mol
# Density = 1.668801 g / cm^3
# Si number density = 16.726076 Si / 1000 Ang^3
#
#
#
# Elastic Constant Matrix: (Units=GPa)
#
#
# Indices 1 2 3 4 5 6 
#
# 1 85.1887 36.1058 28.2104 0.0000 0.0000 0.0000
# 2 36.1058 85.1887 28.2104 0.0000 0.0000 0.0000
# 3 28.2104 28.2104 68.0526 0.0000 0.0000 0.0000
# 4 0.0000 0.0000 0.0000 17.1343 0.0000 0.0000
# 5 0.0000 0.0000 0.0000 0.0000 17.1343 0.0000
# 6 0.0000 0.0000 0.0000 0.0000 0.0000 24.5415
#
#
#
# Elastic Compliance Matrix: (Units=1/GPa)
#
#
# Indices 1 2 3 4 5 6 
#
# 1 0.015294 -0.005080 -0.004234 0.000000 0.000000 0.000000
# 2 -0.005080 0.015294 -0.004234 0.000000 0.000000 0.000000
# 3 -0.004234 -0.004234 0.018205 0.000000 0.000000 0.000000
# 4 0.000000 0.000000 0.000000 0.058362 0.000000 0.000000
# 5 0.000000 0.000000 0.000000 0.000000 0.058362 0.000000
# 6 0.000000 0.000000 0.000000 0.000000 0.000000 0.040747
#
#
# Mechanical properties :
#
#
# Convention : Reuss Voigt Hill
#
# Bulk Modulus (GPa) = 46.09050 47.05371 46.57210
# Shear Modulus (GPa) = 20.78201 21.48891 21.13546
#
# Velocity S-wave (km/s) = 3.52872 3.58824 3.55860
# Velocity P-wave (km/s) = 6.64969 6.73500 6.69248
#
# Compressibility (1/GPa) = 0.02169645
#
# Stress axis : x y z
#
# Youngs Moduli (GPa) = 65.38601 65.38601 54.93028
#
# Poissons Ratio (x) = 0.33215 0.23258
# Poissons Ratio (y) = 0.33215 0.23258
# Poissons Ratio (z) = 0.27685 0.27685
#
# Static dielectric constant tensor:
#      x y z
#    x 3.147250 0.000000 0.000000 
#    y 0.000000 3.147250 0.000000 
#    z 0.000000 0.000000 2.830670 
# 
# 
# High freq. dielectric constant tensor:
#      x y z
#    x 1.627250 0.000000 0.000000 
#    y 0.000000 1.627250 0.000000 
#    z 0.000000 0.000000 1.615740 
# 
# From -- ./inp_files/2154.got.cif
#   From: 2010.06.25/outbox.cif.g09.slc.cpg/sg176_2_cif.got.tgz:2154.got - 2010.06.28 12:15:01.
