data_PCOD8325237
_publ_section_title
;
Structure prediction by ZEFSAII (Michael W. Deem and Ramdas Pophale) SiO2 
 PCOD8325237
Probable space group: P 6/M
;
_chemical_formula_sum "Si O2"
_cell_formula_units_Z 84
_cell_length_a 19.002626
_cell_length_b 19.002626
_cell_length_c 13.934391
_cell_angle_alpha 90.000000
_cell_angle_beta 90.000000
_cell_angle_gamma 120.000000
_cell_volume 4357.584988
_symmetry_space_group_name_H-M "P 6/M"
_symmetry_group_IT_number 175
_symmetry_cell_setting 'hexagonal'
loop_
_space_group_symop_operation_xyz
x,y,z
x-y,x,z
-y,x-y,z
-x,-y,z
-x+y,-x,z
y,-x+y,z
-x,-y,-z
-x+y,-x,-z
y,-x+y,-z
x,y,-z
x-y,x,-z
-y,x-y,-z
loop_
_atom_site_type_symbol
_atom_site_label
_atom_site_fract_x
_atom_site_fract_y
_atom_site_fract_z
Si Si1 0.159353 0.988139 0.283580
Si Si2 0.467636 0.062738 0.602971
Si Si3 0.730326 0.741420 0.110110
Si Si4 0.284945 0.430573 0.108088
Si Si5 0.442113 0.538072 0.207351
Si Si6 0.948599 0.669294 0.389863
Si Si7 0.856223 0.575065 0.212441
O O1 0.157507 0.070214 0.301983
O O2 0.187278 0.986235 0.174683
O O3 0.222048 0.984485 0.358502
O O4 0.485541 0.109162 0.500000
O O5 0.513750 0.122365 0.691777
O O6 0.500000 0.000000 0.595810
O O7 0.371891 0.018324 0.624431
O O8 0.731287 0.659099 0.128603
O O9 0.641792 0.724899 0.137631
O O10 0.748612 0.770175 0.000000
O O11 0.379038 0.498966 0.120493
O O12 0.234393 0.448898 0.185414
O O13 0.259447 0.437138 0.000000
O O14 0.500000 0.500000 0.205663
O O15 0.493167 0.634087 0.198852
O O16 0.918128 0.657180 0.500000
O O17 0.873897 0.609211 0.321283
#
# Coordination Sequence:
#
# PCOD8325237 Si02
#       7
#    12  12  12  12  12  12  12
#     4  11  24  41  59  82 119 163 208 253 302 358
#     4   9  16  30  58  95 124 147 184 240 302 354
#     4  10  20  37  61  86 112 147 198 259 312 357
#     4  11  24  38  56  86 122 158 200 253 309 356
#     4  11  19  38  62  87 118 159 204 244 291 368
#     4  10  20  36  62  92 120 151 195 248 299 353
#     4  11  21  37  60  87 121 155 196 248 301 357
#
# _framework density 19.276731999999999
#
# number of rings (size 3 to 8) (size 9 to 14) (size 15 to 20)
#    0.000    1.571    4.286    3.143    0.000    3.714 
#    0.857    2.143    0.000    1.714    0.000    0.000 
#    0.000    0.000    0.000    0.000    0.000    0.000 
#
# Total GULP energy -1041458.844380 kJ/mol
# GULP energy per Si atom -12398.319576 kJ/mol
# Density = 1.923286 g / cm^3
# Si number density = 19.276732 Si / 1000 Ang^3
#
#
#
# Elastic Constant Matrix: (Units=GPa)
#
#
# Indices 1 2 3 4 5 6 
#
# 1 92.1724 44.0037 31.9281 0.0000 0.0000 0.0000
# 2 44.0037 92.1724 31.9281 0.0000 0.0000 0.0000
# 3 31.9281 31.9281 58.1003 0.0000 0.0000 0.0000
# 4 0.0000 0.0000 0.0000 24.5513 0.0000 0.0000
# 5 0.0000 0.0000 0.0000 0.0000 24.5513 0.0000
# 6 0.0000 0.0000 0.0000 0.0000 0.0000 24.0844
#
#
#
# Elastic Compliance Matrix: (Units=1/GPa)
#
#
# Indices 1 2 3 4 5 6 
#
# 1 0.015327 -0.005434 -0.005436 0.000000 0.000000 0.000000
# 2 -0.005434 0.015327 -0.005436 0.000000 0.000000 0.000000
# 3 -0.005436 -0.005436 0.023187 0.000000 0.000000 0.000000
# 4 0.000000 0.000000 0.000000 0.040731 0.000000 0.000000
# 5 0.000000 0.000000 0.000000 0.000000 0.040731 0.000000
# 6 0.000000 0.000000 0.000000 0.000000 0.000000 0.041521
#
#
# Mechanical properties :
#
#
# Convention : Reuss Voigt Hill
#
# Bulk Modulus (GPa) = 47.11103 50.90720 49.00911
# Shear Modulus (GPa) = 23.09351 23.60973 23.35162
#
# Velocity S-wave (km/s) = 3.46497 3.50348 3.48428
# Velocity P-wave (km/s) = 6.36399 6.54460 6.45493
#
# Compressibility (1/GPa) = 0.02122645
#
# Stress axis : x y z
#
# Youngs Moduli (GPa) = 65.24640 65.24640 43.12847
#
# Poissons Ratio (x) = 0.35454 0.23446
# Poissons Ratio (y) = 0.35454 0.23446
# Poissons Ratio (z) = 0.35470 0.35470
#
# Static dielectric constant tensor:
#      x y z
#    x 3.461250 0.000000 0.000000 
#    y 0.000000 3.461250 0.000000 
#    z 0.000000 0.000000 4.086710 
# 
# 
# High freq. dielectric constant tensor:
#      x y z
#    x 1.734480 0.000000 0.000000 
#    y 0.000000 1.734480 0.000000 
#    z 0.000000 0.000000 1.765130 
# 
# From -- ./inp_files/2612.got.cif
#   From: 2010.03.12/outbox.cif.g09.slc.cpg/sg175_2_cif.got.tgz:2612.got - 2010.04.02 06:55:29.
