data_PCOD8325029
_publ_section_title
;
Structure prediction by ZEFSAII (Michael W. Deem and Ramdas Pophale) SiO2 
 PCOD8325029
Probable space group: P 6/M
;
_chemical_formula_sum "Si O2"
_cell_formula_units_Z 54
_cell_length_a 17.348716
_cell_length_b 17.348716
_cell_length_c 12.324992
_cell_angle_alpha 90.000000
_cell_angle_beta 90.000000
_cell_angle_gamma 120.000000
_cell_volume 3212.565218
_symmetry_space_group_name_H-M "P 6/M"
_symmetry_group_IT_number 175
_symmetry_cell_setting 'hexagonal'
loop_
_space_group_symop_operation_xyz
x,y,z
x-y,x,z
-y,x-y,z
-x,-y,z
-x+y,-x,z
y,-x+y,z
-x,-y,-z
-x+y,-x,-z
y,-x+y,-z
x,y,-z
x-y,x,-z
-y,x-y,-z
loop_
_atom_site_type_symbol
_atom_site_label
_atom_site_fract_x
_atom_site_fract_y
_atom_site_fract_z
Si Si1 0.637589 0.535010 0.270471
Si Si2 0.362411 0.897421 0.729529
Si Si3 0.491814 0.331467 0.500000
Si Si4 0.804839 0.609677 0.880499
Si Si5 0.892427 0.784855 0.000000
Si Si6 0.839653 0.331467 0.500000
O O1 0.577999 0.577999 0.247956
O O2 0.573228 0.426772 0.262559
O O3 0.712392 0.573811 0.180058
O O4 0.683627 0.564212 0.389701
O O5 0.316373 0.880585 0.610299
O O6 0.287608 0.861420 0.819942
O O7 0.567056 0.432944 0.500000
O O8 0.532177 0.266088 0.500000
O O9 0.782961 0.565921 0.000000
O O10 0.859273 0.718547 0.894007
O O11 0.847127 0.847127 0.000000
#
# Coordination Sequence:
#
# PCOD8325029 Si02
#       6
#    12  12   6  12   6   6
#     4  10  20  35  55  77 105 140 178 219 266 317
#     4  10  20  35  55  77 105 140 178 219 266 317
#     4  10  18  31  51  78 103 135 174 221 268 313
#     4  10  22  36  53  80 108 143 179 220 263 320
#     4  10  21  38  60  82 106 136 178 230 279 330
#     4  10  18  31  51  78 103 135 174 221 268 313
#
# _framework density 16.808997000000002
#
# number of rings (size 3 to 8) (size 9 to 14) (size 15 to 20)
#    0.667    1.333    2.222    2.333    0.000    3.556 
#    1.333    2.222    0.000    0.000    0.000    0.000 
#    0.000    0.000    0.000    9.556    0.000    0.000 
#
# Total GULP energy -668984.346081 kJ/mol
# GULP energy per Si atom -12388.599002 kJ/mol
# Density = 1.677074 g / cm^3
# Si number density = 16.808997 Si / 1000 Ang^3
#
#
#
# Elastic Constant Matrix: (Units=GPa)
#
#
# Indices 1 2 3 4 5 6 
#
# 1 94.6152 39.7849 53.2610 0.0000 0.0000 0.0000
# 2 39.7849 94.6152 53.2610 0.0000 0.0000 0.0000
# 3 53.2610 53.2610 147.4620 0.0000 0.0000 0.0000
# 4 0.0000 0.0000 0.0000 24.0818 0.0000 0.0000
# 5 0.0000 0.0000 0.0000 0.0000 24.0818 0.0000
# 6 0.0000 0.0000 0.0000 0.0000 0.0000 27.4152
#
#
#
# Elastic Compliance Matrix: (Units=1/GPa)
#
#
# Indices 1 2 3 4 5 6 
#
# 1 0.014331 -0.003907 -0.003765 0.000000 0.000000 0.000000
# 2 -0.003907 0.014331 -0.003765 0.000000 0.000000 0.000000
# 3 -0.003765 -0.003765 0.009501 0.000000 0.000000 0.000000
# 4 0.000000 0.000000 0.000000 0.041525 0.000000 0.000000
# 5 0.000000 0.000000 0.000000 0.000000 0.041525 0.000000
# 6 0.000000 0.000000 0.000000 0.000000 0.000000 0.036476
#
#
# Mechanical properties :
#
#
# Convention : Reuss Voigt Hill
#
# Bulk Modulus (GPa) = 65.40332 69.92290 67.66311
# Shear Modulus (GPa) = 26.93073 27.80812 27.36942
#
# Velocity S-wave (km/s) = 4.00704 4.07179 4.03955
# Velocity P-wave (km/s) = 7.77192 7.98717 7.88028
#
# Compressibility (1/GPa) = 0.01528974
#
# Stress axis : x y z
#
# Youngs Moduli (GPa) = 69.77690 69.77690 105.24868
#
# Poissons Ratio (x) = 0.27260 0.39629
# Poissons Ratio (y) = 0.27260 0.39629
# Poissons Ratio (z) = 0.26273 0.26273
#
# Static dielectric constant tensor:
#      x y z
#    x 3.173910 0.000000 0.000000 
#    y 0.000000 3.173910 0.000000 
#    z 0.000000 0.000000 3.351090 
# 
# 
# High freq. dielectric constant tensor:
#      x y z
#    x 1.637190 0.000000 0.000000 
#    y 0.000000 1.637190 0.000000 
#    z 0.000000 0.000000 1.654910 
# 
# From -- ./inp_files/1768.got.cif
#   From: 2010.03.12/outbox.cif.g09.slc.cpg/sg175_1_cif.got.tgz:1768.got - 2010.04.02 06:55:29.
