data_PCOD8325509
_publ_section_title
;
Structure prediction by ZEFSAII (Michael W. Deem and Ramdas Pophale) SiO2 
 PCOD8325509
Probable space group: P 63/M
;
_chemical_formula_sum "Si O2"
_cell_formula_units_Z 90
_cell_length_a 16.530657
_cell_length_b 16.530657
_cell_length_c 19.120015
_cell_angle_alpha 90.000000
_cell_angle_beta 90.000000
_cell_angle_gamma 120.000000
_cell_volume 4524.796894
_symmetry_space_group_name_H-M "P 63/M"
_symmetry_group_IT_number 176
_symmetry_cell_setting 'hexagonal'
loop_
_space_group_symop_operation_xyz
x,y,z
x-y,x,1/2+z
-y,x-y,z
-x,-y,1/2+z
-x+y,-x,z
y,-x+y,1/2+z
-x,-y,-z
-x+y,-x,1/2-z
y,-x+y,-z
x,y,1/2-z
x-y,x,-z
-y,x-y,1/2-z
loop_
_atom_site_type_symbol
_atom_site_label
_atom_site_fract_x
_atom_site_fract_y
_atom_site_fract_z
Si Si1 0.349213 0.265011 0.404362
Si Si2 0.462531 0.973480 0.891053
Si Si3 0.410923 0.342877 0.826274
Si Si4 0.473439 0.864133 0.493509
Si Si5 0.088932 0.115621 0.750000
Si Si6 0.725673 0.931516 0.642077
Si Si7 0.463297 0.277952 0.539154
Si Si8 0.180593 0.192258 0.496051
O O1 0.414369 0.359963 0.359558
O O2 0.342326 0.181043 0.356843
O O3 0.396938 0.280012 0.480018
O O4 0.243564 0.239064 0.426193
O O5 0.546291 0.028319 0.836864
O O6 0.470037 0.037428 0.956025
O O7 0.469122 0.885276 0.923514
O O8 0.434612 0.317388 0.750000
O O9 0.306392 0.325884 0.822090
O O10 0.420911 0.277690 0.884387
O O11 0.530972 0.813487 0.475532
O O12 0.368325 0.802385 0.464846
O O13 0.136240 0.177163 0.680975
O O14 0.101322 0.023463 0.750000
O O15 0.739261 0.962128 0.561612
O O16 0.174125 0.096037 0.519281
#
# Coordination Sequence:
#
# PCOD8325509 Si02
#       8
#    12  12  12  12   6  12  12  12
#     4  10  21  34  59  91 115 148 196 263 308 368
#     4   9  20  36  56  85 117 150 189 246 309 361
#     4  11  22  40  59  82 119 164 201 246 307 371
#     4   9  18  32  58  80 114 142 183 243 296 355
#     4  10  26  44  60  78 126 184 218 248 294 372
#     4  11  22  40  60  87 119 160 212 253 308 371
#     4  10  19  35  56  87 112 148 194 242 311 362
#     4  10  22  33  55  87 121 154 196 261 315 356
#
# _framework density 19.890395000000002
#
# number of rings (size 3 to 8) (size 9 to 14) (size 15 to 20)
#    0.133    1.867    2.000    2.000    7.467    0.000 
#    1.200    2.667    0.000    0.533    0.000    0.000 
#    0.000    0.000    0.000    0.000    0.000    0.000 
#
# Total GULP energy -1115195.996578 kJ/mol
# GULP energy per Si atom -12391.066629 kJ/mol
# Density = 1.984512 g / cm^3
# Si number density = 19.890395 Si / 1000 Ang^3
#
#
#
# Elastic Constant Matrix: (Units=GPa)
#
#
# Indices 1 2 3 4 5 6 
#
# 1 89.6838 29.8744 2.3668 0.0000 0.0000 0.0000
# 2 29.8744 89.6838 2.3668 0.0000 0.0000 0.0000
# 3 2.3668 2.3668 37.8047 0.0000 0.0000 0.0000
# 4 0.0000 0.0000 0.0000 20.6181 0.0000 0.0000
# 5 0.0000 0.0000 0.0000 0.0000 20.6181 0.0000
# 6 0.0000 0.0000 0.0000 0.0000 0.0000 29.9047
#
#
#
# Elastic Compliance Matrix: (Units=1/GPa)
#
#
# Indices 1 2 3 4 5 6 
#
# 1 0.012552 -0.004167 -0.000525 0.000000 0.000000 0.000000
# 2 -0.004167 0.012552 -0.000525 0.000000 0.000000 0.000000
# 3 -0.000525 -0.000525 0.026517 0.000000 0.000000 0.000000
# 4 0.000000 0.000000 0.000000 0.048501 0.000000 0.000000
# 5 0.000000 0.000000 0.000000 0.000000 0.048501 0.000000
# 6 0.000000 0.000000 0.000000 0.000000 0.000000 0.033440
#
#
# Mechanical properties :
#
#
# Convention : Reuss Voigt Hill
#
# Bulk Modulus (GPa) = 24.27922 31.82094 28.05008
# Shear Modulus (GPa) = 24.24504 26.39913 25.32208
#
# Velocity S-wave (km/s) = 3.49511 3.64707 3.57190
# Velocity P-wave (km/s) = 5.34048 5.81100 5.58070
#
# Compressibility (1/GPa) = 0.04118748
#
# Stress axis : x y z
#
# Youngs Moduli (GPa) = 79.66641 79.66641 37.71102
#
# Poissons Ratio (x) = 0.33200 0.01980
# Poissons Ratio (y) = 0.33200 0.01980
# Poissons Ratio (z) = 0.04182 0.04182
#
# Static dielectric constant tensor:
#      x y z
#    x 3.793760 0.000000 0.000000 
#    y 0.000000 3.793760 0.000000 
#    z 0.000000 0.000000 3.313650 
# 
# 
# High freq. dielectric constant tensor:
#      x y z
#    x 1.777040 0.000000 0.000000 
#    y 0.000000 1.777040 0.000000 
#    z 0.000000 0.000000 1.741050 
# 
# From -- ./inp_files/3530.got.cif
#   From: 2010.06.25/outbox.cif.g09.slc.cpg/sg176_2_cif.got.tgz:3530.got - 2010.06.28 12:15:01.
