data_PCOD8325318
_publ_section_title
;
Structure prediction by ZEFSAII (Michael W. Deem and Ramdas Pophale) SiO2 
 PCOD8325318
Probable space group: P 6/M
;
_chemical_formula_sum "Si O2"
_cell_formula_units_Z 60
_cell_length_a 14.612976
_cell_length_b 14.612976
_cell_length_c 12.910214
_cell_angle_alpha 90.000000
_cell_angle_beta 90.000000
_cell_angle_gamma 120.000000
_cell_volume 2387.489196
_symmetry_space_group_name_H-M "P 6/M"
_symmetry_group_IT_number 175
_symmetry_cell_setting 'hexagonal'
loop_
_space_group_symop_operation_xyz
x,y,z
x-y,x,z
-y,x-y,z
-x,-y,z
-x+y,-x,z
y,-x+y,z
-x,-y,-z
-x+y,-x,-z
y,-x+y,-z
x,y,-z
x-y,x,-z
-y,x-y,-z
loop_
_atom_site_type_symbol
_atom_site_label
_atom_site_fract_x
_atom_site_fract_y
_atom_site_fract_z
Si Si1 0.474595 0.884724 0.117766
Si Si2 0.769435 0.847754 0.877438
Si Si3 0.802653 0.783753 0.621196
Si Si4 0.570314 0.623399 0.619250
Si Si5 0.543888 0.738960 0.200382
O O1 0.535165 0.844419 0.193416
O O2 0.349704 0.804075 0.126553
O O3 0.500000 0.000000 0.157594
O O4 0.514205 0.890645 0.000000
O O5 0.842406 0.804872 0.828907
O O6 0.653167 0.760036 0.847316
O O7 0.781707 0.859186 0.000000
O O8 0.906771 0.784389 0.669058
O O9 0.823401 0.804201 0.500000
O O10 0.696181 0.670678 0.641034
O O11 0.500000 0.500000 0.649180
O O12 0.552350 0.641045 0.500000
O O13 0.529761 0.691363 0.684013
#
# Coordination Sequence:
#
# PCOD8325318 Si02
#       5
#    12  12  12  12  12
#     4  11  24  42  67 102 140 177 226 292 365 438
#     4  10  21  39  66 101 140 179 220 272 341 424
#     4   9  18  35  63  98 134 173 220 280 350 421
#     4  10  24  46  70  98 137 188 245 302 360 425
#     4  12  24  42  68  96 131 181 236 289 351 421
#
# _framework density 25.131004999999998
#
# number of rings (size 3 to 8) (size 9 to 14) (size 15 to 20)
#    0.000    1.600    0.000    4.400    0.000    9.600 
#    0.000    3.000    0.000    3.800    0.000    5.600 
#    0.000    0.000    0.000    0.000    0.000    0.000 
#
# Total GULP energy -744114.347563 kJ/mol
# GULP energy per Si atom -12401.905793 kJ/mol
# Density = 2.507381 g / cm^3
# Si number density = 25.131005 Si / 1000 Ang^3
#
#
#
# Elastic Constant Matrix: (Units=GPa)
#
#
# Indices 1 2 3 4 5 6 
#
# 1 148.3847 48.1328 55.0983 0.0000 0.0000 0.0000
# 2 48.1328 148.3847 55.0983 0.0000 0.0000 0.0000
# 3 55.0983 55.0983 67.9336 0.0000 0.0000 0.0000
# 4 0.0000 0.0000 0.0000 33.9519 0.0000 0.0000
# 5 0.0000 0.0000 0.0000 0.0000 33.9519 0.0000
# 6 0.0000 0.0000 0.0000 0.0000 0.0000 50.1259
#
#
#
# Elastic Compliance Matrix: (Units=1/GPa)
#
#
# Indices 1 2 3 4 5 6 
#
# 1 0.009654 -0.000321 -0.007570 0.000000 0.000000 0.000000
# 2 -0.000321 0.009654 -0.007570 0.000000 0.000000 0.000000
# 3 -0.007570 -0.007570 0.027000 0.000000 0.000000 0.000000
# 4 0.000000 0.000000 0.000000 0.029453 0.000000 0.000000
# 5 0.000000 0.000000 0.000000 0.000000 0.029453 0.000000
# 6 0.000000 0.000000 0.000000 0.000000 0.000000 0.019950
#
#
# Mechanical properties :
#
#
# Convention : Reuss Voigt Hill
#
# Bulk Modulus (GPa) = 64.99150 75.70687 70.34919
# Shear Modulus (GPa) = 31.01452 37.36421 34.18937
#
# Velocity S-wave (km/s) = 3.51681 3.86006 3.69242
# Velocity P-wave (km/s) = 6.51213 7.07510 6.79944
#
# Compressibility (1/GPa) = 0.01538663
#
# Stress axis : x y z
#
# Youngs Moduli (GPa) = 103.58229 103.58229 37.03748
#
# Poissons Ratio (x) = 0.03322 0.28037
# Poissons Ratio (y) = 0.03322 0.28037
# Poissons Ratio (z) = 0.78412 0.78412
#
# Static dielectric constant tensor:
#      x y z
#    x 4.564510 0.000000 0.000000 
#    y 0.000000 4.564510 0.000000 
#    z 0.000000 0.000000 4.583000 
# 
# 
# High freq. dielectric constant tensor:
#      x y z
#    x 1.999350 0.000000 0.000000 
#    y 0.000000 1.999350 0.000000 
#    z 0.000000 0.000000 2.031560 
# 
# From -- ./inp_files/2361.got.cif
#   From: 2010.03.12/outbox.cif.g09.slc.cpg/sg175_2_cif.got.tgz:2361.got - 2010.04.02 06:55:29.
