data_PCOD8325710
_publ_section_title
;
Structure prediction by ZEFSAII (Michael W. Deem and Ramdas Pophale) SiO2 
 PCOD8325710
Probable space group: P 63/M
;
_chemical_formula_sum "Si O2"
_cell_formula_units_Z 40
_cell_length_a 16.261210
_cell_length_b 16.261210
_cell_length_c 8.498564
_cell_angle_alpha 90.000000
_cell_angle_beta 90.000000
_cell_angle_gamma 120.000000
_cell_volume 1946.175037
_symmetry_space_group_name_H-M "P 63/M"
_symmetry_group_IT_number 176
_symmetry_cell_setting 'hexagonal'
loop_
_space_group_symop_operation_xyz
x,y,z
x-y,x,1/2+z
-y,x-y,z
-x,-y,1/2+z
-x+y,-x,z
y,-x+y,1/2+z
-x,-y,-z
-x+y,-x,1/2-z
y,-x+y,-z
x,y,1/2-z
x-y,x,-z
-y,x-y,1/2-z
loop_
_atom_site_type_symbol
_atom_site_label
_atom_site_fract_x
_atom_site_fract_y
_atom_site_fract_z
Si Si1 0.391183 0.126510 0.434004
Si Si2 0.666668 0.333334 0.063239
Si Si3 0.699765 0.065270 0.065534
Si Si4 0.421864 0.862114 0.434480
O O1 0.414442 0.139131 0.250000
O O2 0.369449 0.207888 0.493609
O O3 0.479071 0.129866 0.523993
O O4 0.301323 0.023307 0.476020
O O5 0.666667 0.333334 0.250000
O O6 0.576441 0.337404 0.997043
O O7 0.703155 0.050793 0.250000
O O8 0.600947 0.063124 0.021515
O O9 0.413339 0.872191 0.250000
#
# Coordination Sequence:
#
# PCOD8325710 Si02
#       4
#    12   4  12  12
#     4  11  24  41  62  87 120 157 197 247 298 351
#     4  12  22  35  55  84 124 164 202 243 292 341
#     4  11  24  41  62  87 120 157 197 247 298 351
#     4  12  23  37  60  88 121 162 204 241 289 349
#
# _framework density 20.553135000000001
#
# number of rings (size 3 to 8) (size 9 to 14) (size 15 to 20)
#    0.000    0.600    3.000    6.300    0.000    3.600 
#    0.000    0.000    0.000    0.600    0.000    0.000 
#    0.000    0.000    0.000    0.000    0.000    0.000 
#
# Total GULP energy -496077.479426 kJ/mol
# GULP energy per Si atom -12401.936986 kJ/mol
# Density = 2.050636 g / cm^3
# Si number density = 20.553135 Si / 1000 Ang^3
#
#
#
# Elastic Constant Matrix: (Units=GPa)
#
#
# Indices 1 2 3 4 5 6 
#
# 1 90.9247 34.0085 8.7524 0.0000 0.0000 0.0005
# 2 34.0085 90.9245 8.7537 0.0000 0.0000 -0.0002
# 3 8.7524 8.7537 74.5108 0.0000 0.0000 -0.0001
# 4 0.0000 0.0000 0.0000 32.8462 0.0001 0.0000
# 5 0.0000 0.0000 0.0000 0.0001 32.8461 0.0000
# 6 0.0005 -0.0002 -0.0001 0.0000 0.0000 28.4654
#
#
#
# Elastic Compliance Matrix: (Units=1/GPa)
#
#
# Indices 1 2 3 4 5 6 
#
# 1 0.012854 -0.004716 -0.000956 0.000000 0.000000 0.000000
# 2 -0.004716 0.012854 -0.000956 0.000000 0.000000 0.000000
# 3 -0.000956 -0.000956 0.013645 0.000000 0.000000 0.000000
# 4 0.000000 0.000000 0.000000 0.030445 0.000000 0.000000
# 5 0.000000 0.000000 0.000000 0.000000 0.030445 0.000000
# 6 0.000000 0.000000 0.000000 0.000000 0.000000 0.035130
#
#
# Mechanical properties :
#
#
# Convention : Reuss Voigt Hill
#
# Bulk Modulus (GPa) = 38.31733 39.93215 39.12474
# Shear Modulus (GPa) = 31.78060 32.48789 32.13424
#
# Velocity S-wave (km/s) = 3.93652 3.98009 3.95837
# Velocity P-wave (km/s) = 6.27257 6.37121 6.32209
#
# Compressibility (1/GPa) = 0.02609785
#
# Stress axis : x y z
#
# Youngs Moduli (GPa) = 77.79709 77.79666 73.28430
#
# Poissons Ratio (x) = 0.36687 0.07005
# Poissons Ratio (y) = 0.36687 0.07007
# Poissons Ratio (z) = 0.07436 0.07439
#
# Static dielectric constant tensor:
#      x y z
#    x 3.992050 -0.000010 0.000000 
#    y -0.000010 3.992070 0.000000 
#    z 0.000000 0.000000 3.655640 
# 
# 
# High freq. dielectric constant tensor:
#      x y z
#    x 1.797550 0.000000 0.000000 
#    y 0.000000 1.797550 0.000000 
#    z 0.000000 0.000000 1.810260 
# 
# From -- ./inp_files/516.got.cif
#   From: 2010.06.25/outbox.cif.g09.slc.cpg/sg176_1_cif.got.tgz:516.got - 2010.06.28 12:15:01.
