data_PCOD8325389
_publ_section_title
;
Structure prediction by ZEFSAII (Michael W. Deem and Ramdas Pophale) SiO2 
 PCOD8325389
Probable space group: P 6/M
;
_chemical_formula_sum "Si O2"
_cell_formula_units_Z 64
_cell_length_a 28.069463
_cell_length_b 28.069463
_cell_length_c 9.908702
_cell_angle_alpha 90.000000
_cell_angle_beta 90.000000
_cell_angle_gamma 120.000000
_cell_volume 6761.072725
_symmetry_space_group_name_H-M "P 6/M"
_symmetry_group_IT_number 175
_symmetry_cell_setting 'hexagonal'
loop_
_space_group_symop_operation_xyz
x,y,z
x-y,x,z
-y,x-y,z
-x,-y,z
-x+y,-x,z
y,-x+y,z
-x,-y,-z
-x+y,-x,-z
y,-x+y,-z
x,y,-z
x-y,x,-z
-y,x-y,-z
loop_
_atom_site_type_symbol
_atom_site_label
_atom_site_fract_x
_atom_site_fract_y
_atom_site_fract_z
Si Si1 0.473943 0.060950 0.349004
Si Si2 0.634388 0.156949 0.156574
Si Si3 0.272728 0.545453 0.159218
Si Si4 0.060952 0.473946 0.650996
Si Si5 0.333334 0.666668 0.837792
Si Si6 0.156946 0.634390 0.843427
O O1 0.464476 0.076550 0.500000
O O2 0.530111 0.060224 0.344147
O O3 0.477232 0.105595 0.242612
O O4 0.424313 0.999999 0.309989
O O5 0.693148 0.208707 0.202557
O O6 0.628361 0.105597 0.242610
O O7 0.584969 0.169943 0.183846
O O8 0.634963 0.142717 0.000000
O O9 0.302908 0.605798 0.223541
O O10 0.306848 0.515551 0.202543
O O11 0.276228 0.552462 0.000000
O O12 0.076553 0.464480 0.500000
O O13 0.333334 0.666668 0.000000
O O14 0.142710 0.634961 0.000000
#
# Coordination Sequence:
#
# PCOD8325389 Si02
#       6
#    12  12  12  12   4  12
#     4   8  14  24  34  41  51  67  83 100 126 155
#     4   9  15  21  31  45  56  67  85 106 123 142
#     4   9  14  20  29  43  59  72  86 103 124 148
#     4   8  14  24  34  41  51  67  83 100 126 155
#     4   9  12  18  30  39  52  74  91 102 118 146
#     4   9  15  21  31  45  56  67  85 106 123 142
#
# _framework density 9.4659530000000007
#
# number of rings (size 3 to 8) (size 9 to 14) (size 15 to 20)
#    0.000    3.375    1.875    1.125    0.000    0.750 
#    0.000    4.688    0.000    0.000    0.000    0.000 
#    0.000    0.000    0.000    0.000    0.000    0.000 
#
# Total GULP energy -792852.423795 kJ/mol
# GULP energy per Si atom -12388.319122 kJ/mol
# Density = 0.944441 g / cm^3
# Si number density = 9.465953 Si / 1000 Ang^3
#
#
#
# Elastic Constant Matrix: (Units=GPa)
#
#
# Indices 1 2 3 4 5 6 
#
# 1 48.6974 30.9359 31.0849 0.0000 0.0000 0.0001
# 2 30.9359 48.6971 31.0849 0.0000 0.0000 0.0001
# 3 31.0849 31.0849 44.0095 0.0000 0.0000 0.0000
# 4 0.0000 0.0000 0.0000 8.8184 0.0000 0.0000
# 5 0.0000 0.0000 0.0000 0.0000 8.8183 0.0000
# 6 0.0001 0.0001 0.0000 0.0000 0.0000 8.8807
#
#
#
# Elastic Compliance Matrix: (Units=1/GPa)
#
#
# Indices 1 2 3 4 5 6 
#
# 1 0.042148 -0.014154 -0.019773 0.000000 0.000000 0.000000
# 2 -0.014154 0.042149 -0.019773 0.000000 0.000000 0.000000
# 3 -0.019773 -0.019773 0.050655 0.000000 0.000000 0.000000
# 4 0.000000 0.000000 0.000000 0.113399 0.000000 0.000000
# 5 0.000000 0.000000 0.000000 0.000000 0.113400 0.000000
# 6 0.000000 0.000000 0.000000 0.000000 0.000000 0.112604
#
#
# Mechanical properties :
#
#
# Convention : Reuss Voigt Hill
#
# Bulk Modulus (GPa) = 36.29603 36.40172 36.34888
# Shear Modulus (GPa) = 8.46111 8.52337 8.49224
#
# Velocity S-wave (km/s) = 2.99297 3.00396 2.99847
# Velocity P-wave (km/s) = 7.09724 7.11130 7.10428
#
# Compressibility (1/GPa) = 0.02755122
#
# Stress axis : x y z
#
# Youngs Moduli (GPa) = 23.72589 23.72556 19.74148
#
# Poissons Ratio (x) = 0.33581 0.39035
# Poissons Ratio (y) = 0.33581 0.39036
# Poissons Ratio (z) = 0.46913 0.46913
#
# Static dielectric constant tensor:
#      x y z
#    x 2.115800 0.000000 0.000000 
#    y 0.000000 2.115800 0.000000 
#    z 0.000000 0.000000 2.134770 
# 
# 
# High freq. dielectric constant tensor:
#      x y z
#    x 1.325530 0.000000 0.000000 
#    y 0.000000 1.325530 0.000000 
#    z 0.000000 0.000000 1.349110 
# 
# From -- ./inp_files/1921.got.cif
#   From: 2010.03.12/outbox.cif.g09.slc.cpg/sg175_1_cif.got.tgz:1921.got - 2010.04.02 06:55:29.
