data_PCOD8325594
_publ_section_title
;
Structure prediction by ZEFSAII (Michael W. Deem and Ramdas Pophale) SiO2 
 PCOD8325594
Probable space group: P 63/M
;
_chemical_formula_sum "Si O2"
_cell_formula_units_Z 58
_cell_length_a 15.161300
_cell_length_b 15.161300
_cell_length_c 13.906936
_cell_angle_alpha 90.000000
_cell_angle_beta 90.000000
_cell_angle_gamma 120.000000
_cell_volume 2768.439074
_symmetry_space_group_name_H-M "P 63/M"
_symmetry_group_IT_number 176
_symmetry_cell_setting 'hexagonal'
loop_
_space_group_symop_operation_xyz
x,y,z
x-y,x,1/2+z
-y,x-y,z
-x,-y,1/2+z
-x+y,-x,z
y,-x+y,1/2+z
-x,-y,-z
-x+y,-x,1/2-z
y,-x+y,-z
x,y,1/2-z
x-y,x,-z
-y,x-y,1/2-z
loop_
_atom_site_type_symbol
_atom_site_label
_atom_site_fract_x
_atom_site_fract_y
_atom_site_fract_z
Si Si1 0.383160 0.348500 0.951545
Si Si2 0.333335 0.666668 0.365535
Si Si3 0.884200 0.696122 0.250000
Si Si4 0.123094 0.609798 0.434440
Si Si5 0.607149 0.955542 0.750000
Si Si6 0.781174 0.844121 0.958678
Si Si7 0.013969 0.441543 0.750000
O O1 0.502189 0.399107 0.976967
O O2 0.363649 0.333760 0.838438
O O3 0.339240 0.422471 0.987250
O O4 0.328859 0.239769 0.002506
O O5 0.333334 0.666668 0.250000
O O6 0.241259 0.679973 0.406890
O O7 0.763312 0.622841 0.250000
O O8 0.922506 0.771253 0.342924
O O9 0.919945 0.613245 0.250000
O O10 0.056910 0.594621 0.341472
O O11 0.486133 0.920242 0.750000
O O12 0.863289 0.812288 0.988379
#
# Coordination Sequence:
#
# PCOD8325594 Si02
#       7
#    12   4   6  12   6  12   6
#     4  10  22  43  68  92 131 179 223 276 342 404
#     4  12  24  36  63 103 137 166 219 273 336 412
#     4  12  24  43  75 101 138 190 233 278 359 417
#     4  10  22  39  63  97 136 174 218 278 329 409
#     4  10  22  43  67  97 130 177 230 276 331 402
#     4  12  27  46  71 102 134 177 235 298 355 419
#     4  10  20  40  66  96 134 177 229 276 332 411
#
# _framework density 20.950431999999999
#
# number of rings (size 3 to 8) (size 9 to 14) (size 15 to 20)
#    0.000    1.241    5.172    0.207    2.897    1.655 
#    0.621    0.000    0.000    0.000    0.000    0.000 
#    0.000    0.000    0.000    0.000    0.000    0.000 
#
# Total GULP energy -719036.355775 kJ/mol
# GULP energy per Si atom -12397.178548 kJ/mol
# Density = 2.090275 g / cm^3
# Si number density = 20.950432 Si / 1000 Ang^3
#
#
#
# Elastic Constant Matrix: (Units=GPa)
#
#
# Indices 1 2 3 4 5 6 
#
# 1 79.1648 22.9124 29.7449 0.0000 0.0000 0.0004
# 2 22.9124 79.1642 29.7446 0.0000 0.0000 0.0011
# 3 29.7449 29.7446 138.6792 0.0000 0.0000 0.0002
# 4 0.0000 0.0000 0.0000 28.9468 0.0002 0.0000
# 5 0.0000 0.0000 0.0000 0.0002 28.9468 0.0000
# 6 0.0004 0.0011 0.0002 0.0000 0.0000 28.1258
#
#
#
# Elastic Compliance Matrix: (Units=1/GPa)
#
#
# Indices 1 2 3 4 5 6 
#
# 1 0.014487 -0.003291 -0.002401 0.000000 0.000000 0.000000
# 2 -0.003291 0.014487 -0.002401 0.000000 0.000000 -0.000001
# 3 -0.002401 -0.002401 0.008241 0.000000 0.000000 0.000000
# 4 0.000000 0.000000 0.000000 0.034546 0.000000 0.000000
# 5 0.000000 0.000000 0.000000 0.000000 0.034546 0.000000
# 6 0.000000 -0.000001 0.000000 0.000000 0.000000 0.035555
#
#
# Mechanical properties :
#
#
# Convention : Reuss Voigt Hill
#
# Bulk Modulus (GPa) = 47.55668 51.31243 49.43456
# Shear Modulus (GPa) = 30.29263 31.51100 30.90181
#
# Velocity S-wave (km/s) = 3.80665 3.88245 3.84473
# Velocity P-wave (km/s) = 6.48611 6.68157 6.58457
#
# Compressibility (1/GPa) = 0.02102754
#
# Stress axis : x y z
#
# Youngs Moduli (GPa) = 69.02968 69.02919 121.34426
#
# Poissons Ratio (x) = 0.22714 0.29140
# Poissons Ratio (y) = 0.22714 0.29139
# Poissons Ratio (z) = 0.16577 0.16577
#
# Static dielectric constant tensor:
#      x y z
#    x 3.764580 -0.000010 0.000000 
#    y -0.000010 3.764570 0.000000 
#    z 0.000000 0.000000 4.031700 
# 
# 
# High freq. dielectric constant tensor:
#      x y z
#    x 1.812970 0.000000 0.000000 
#    y 0.000000 1.812970 0.000000 
#    z 0.000000 0.000000 1.837610 
# 
# From -- ./inp_files/2710.got.cif
#   From: 2010.06.25/outbox.cif.g09.slc.cpg/sg176_2_cif.got.tgz:2710.got - 2010.06.28 12:15:01.
