data_PCOD8325346
_publ_section_title
;
Structure prediction by ZEFSAII (Michael W. Deem and Ramdas Pophale) SiO2 
 PCOD8325346
Probable space group: P 6/M
;
_chemical_formula_sum "Si O2"
_cell_formula_units_Z 58
_cell_length_a 15.156670
_cell_length_b 15.156670
_cell_length_c 15.396881
_cell_angle_alpha 90.000000
_cell_angle_beta 90.000000
_cell_angle_gamma 120.000000
_cell_volume 3063.169118
_symmetry_space_group_name_H-M "P 6/M"
_symmetry_group_IT_number 175
_symmetry_cell_setting 'hexagonal'
loop_
_space_group_symop_operation_xyz
x,y,z
x-y,x,z
-y,x-y,z
-x,-y,z
-x+y,-x,z
y,-x+y,z
-x,-y,-z
-x+y,-x,-z
y,-x+y,-z
x,y,-z
x-y,x,-z
-y,x-y,-z
loop_
_atom_site_type_symbol
_atom_site_label
_atom_site_fract_x
_atom_site_fract_y
_atom_site_fract_z
Si Si1 0.442122 0.879370 0.903778
Si Si2 0.110260 0.599448 0.600730
Si Si3 0.103674 0.369657 0.159689
Si Si4 0.666667 0.333333 0.399214
Si Si5 0.774813 0.817907 0.000000
Si Si6 0.699553 0.594044 0.234562
O O1 0.325395 0.839676 0.876034
O O2 0.495931 0.847768 0.829819
O O3 0.500000 0.000000 0.910604
O O4 0.445268 0.835233 0.000000
O O5 0.114151 0.630897 0.500000
O O6 0.212827 0.594443 0.627134
O O7 0.121004 0.688539 0.663617
O O8 0.000000 0.500000 0.620768
O O9 0.050849 0.290898 0.082630
O O10 0.181539 0.346055 0.211132
O O11 0.015067 0.351868 0.225409
O O12 0.666667 0.333334 0.500000
O O13 0.874131 0.808827 0.000000
#
# Coordination Sequence:
#
# PCOD8325346 Si02
#       6
#    12  12  12   4   6  12
#     4   9  19  33  53  78 111 153 193 240 295 356
#     4  10  22  41  64  90 123 162 204 253 309 369
#     4  11  22  38  57  83 120 155 203 249 299 357
#     4   9  21  39  63  93 124 158 202 252 306 366
#     4  12  23  40  61  87 117 159 201 250 301 356
#     4  11  24  37  59  86 119 159 205 251 307 363
#
# _framework density 18.934640000000002
#
# number of rings (size 3 to 8) (size 9 to 14) (size 15 to 20)
#    0.000    1.655    3.103    1.966    8.690    0.000 
#    1.241    0.000    0.000    0.000    0.000    0.000 
#    0.000    0.000    0.000    3.724    0.000    0.414 
#
# Total GULP energy -718628.735851 kJ/mol
# GULP energy per Si atom -12390.150618 kJ/mol
# Density = 1.889154 g / cm^3
# Si number density = 18.934640 Si / 1000 Ang^3
#
#
#
# Elastic Constant Matrix: (Units=GPa)
#
#
# Indices 1 2 3 4 5 6 
#
# 1 75.8666 31.2863 22.7195 0.0000 0.0000 0.0004
# 2 31.2863 75.8662 22.7205 0.0000 0.0000 -0.0001
# 3 22.7195 22.7205 105.1447 0.0000 0.0000 0.0002
# 4 0.0000 0.0000 0.0000 30.0253 0.0000 0.0000
# 5 0.0000 0.0000 0.0000 0.0000 30.0252 0.0000
# 6 0.0004 -0.0001 0.0002 0.0000 0.0000 22.2908
#
#
#
# Elastic Compliance Matrix: (Units=1/GPa)
#
#
# Indices 1 2 3 4 5 6 
#
# 1 0.016353 -0.006079 -0.002220 0.000000 0.000000 0.000000
# 2 -0.006079 0.016353 -0.002220 0.000000 0.000000 0.000000
# 3 -0.002220 -0.002220 0.010470 0.000000 0.000000 0.000000
# 4 0.000000 0.000000 0.000000 0.033305 0.000000 0.000000
# 5 0.000000 0.000000 0.000000 0.000000 0.033305 0.000000
# 6 0.000000 0.000000 0.000000 0.000000 0.000000 0.044862
#
#
# Mechanical properties :
#
#
# Convention : Reuss Voigt Hill
#
# Bulk Modulus (GPa) = 45.17146 45.59223 45.38185
# Shear Modulus (GPa) = 27.31274 28.47834 27.89554
#
# Velocity S-wave (km/s) = 3.80211 3.88239 3.84246
# Velocity P-wave (km/s) = 6.57138 6.65044 6.61103
#
# Compressibility (1/GPa) = 0.02213787
#
# Stress axis : x y z
#
# Youngs Moduli (GPa) = 61.15226 61.15155 95.50983
#
# Poissons Ratio (x) = 0.37173 0.21202
# Poissons Ratio (y) = 0.37173 0.21205
# Poissons Ratio (z) = 0.13575 0.13577
#
# Static dielectric constant tensor:
#      x y z
#    x 4.023580 0.000010 0.000000 
#    y 0.000010 4.023570 0.000000 
#    z 0.000000 0.000000 3.455490 
# 
# 
# High freq. dielectric constant tensor:
#      x y z
#    x 1.725500 0.000000 0.000000 
#    y 0.000000 1.725500 0.000000 
#    z 0.000000 0.000000 1.737340 
# 
# From -- ./inp_files/2393.got.cif
#   From: 2010.03.12/outbox.cif.g09.slc.cpg/sg175_2_cif.got.tgz:2393.got - 2010.04.02 06:55:29.
