data_PCOD8325772
_publ_section_title
;
Structure prediction by ZEFSAII (Michael W. Deem and Ramdas Pophale) SiO2 
 PCOD8325772
Probable space group: P 61 2 2
;
_chemical_formula_sum "Si O2"
_cell_formula_units_Z 84
_cell_length_a 17.845420
_cell_length_b 17.845420
_cell_length_c 15.209087
_cell_angle_alpha 90.000000
_cell_angle_beta 90.000000
_cell_angle_gamma 120.000000
_cell_volume 4194.568811
_symmetry_space_group_name_H-M "P 61 2 2"
_symmetry_group_IT_number 178
_symmetry_cell_setting 'hexagonal'
loop_
_space_group_symop_operation_xyz
x,y,z
x-y,x,1/6+z
-y,x-y,1/3+z
-x,-y,1/2+z
-x+y,-x,2/3+z
y,-x+y,5/6+z
x-y,-y,-z
-x,-x+y,2/3-z
y,x,1/3-z
-y,-x,5/6-z
-x+y,y,1/2-z
x,x-y,1/6-z
loop_
_atom_site_type_symbol
_atom_site_label
_atom_site_fract_x
_atom_site_fract_y
_atom_site_fract_z
Si Si1 0.737404 0.442899 0.047049
Si Si2 0.415665 0.924628 0.164271
Si Si3 0.602902 0.839751 0.172872
Si Si4 0.331540 0.200102 0.987301
Si Si5 0.595151 0.585572 0.262416
Si Si6 0.486579 0.352129 0.890847
Si Si7 0.754037 0.689228 0.502966
O O1 0.690201 0.345101 0.083334
O O2 0.759053 0.514424 0.123549
O O3 0.821472 0.457789 0.993813
O O4 0.674502 0.445399 0.975657
O O5 0.478573 0.957146 0.250000
O O6 0.485201 0.967550 0.085046
O O7 0.345675 0.956288 0.157446
O O8 0.580667 0.913840 0.153410
O O9 0.676161 0.876371 0.249411
O O10 0.636536 0.818268 0.083334
O O11 0.423468 0.284853 0.963823
O O12 0.306654 0.120232 0.919158
O O13 0.342604 0.171302 0.083334
O O14 0.254785 0.224897 0.992276
O O15 0.627144 0.627144 0.166667
O O16 0.572779 0.651655 0.310124
O O17 0.546776 0.453225 0.916667
#
# Coordination Sequence:
#
# PCOD8325772 Si02
#       7
#    12  12  12  12  12  12  12
#     4  10  20  40  58  78 125 173 220 269 322 369
#     4  10  17  39  60  82 122 179 212 263 319 376
#     4  11  21  37  65  94 122 167 214 265 328 390
#     4  12  25  44  68  97 130 173 225 274 338 400
#     4  12  23  36  62  90 126 169 220 262 333 392
#     4  12  25  41  59  93 134 170 218 282 318 373
#     4  11  23  43  69  94 135 167 219 281 331 400
#
# _framework density 20.025897000000001
#
# number of rings (size 3 to 8) (size 9 to 14) (size 15 to 20)
#    0.000    0.857    8.571    2.571    0.000    3.429 
#    2.571    0.000    0.000    0.000    0.000    5.000 
#    0.000    0.000    0.000    0.000    0.000    0.000 
#
# Total GULP energy -1040653.072095 kJ/mol
# GULP energy per Si atom -12388.727049 kJ/mol
# Density = 1.998032 g / cm^3
# Si number density = 20.025897 Si / 1000 Ang^3
#
#
#
# Elastic Constant Matrix: (Units=GPa)
#
#
# Indices 1 2 3 4 5 6 
#
# 1 69.6511 56.7650 46.4041 0.0000 0.0000 0.0000
# 2 56.7650 69.6511 46.4041 0.0000 0.0000 0.0000
# 3 46.4041 46.4041 140.8990 0.0000 0.0000 0.0000
# 4 0.0000 0.0000 0.0000 30.7394 0.0000 0.0000
# 5 0.0000 0.0000 0.0000 0.0000 30.7394 0.0000
# 6 0.0000 0.0000 0.0000 0.0000 0.0000 6.4431
#
#
#
# Elastic Compliance Matrix: (Units=1/GPa)
#
#
# Indices 1 2 3 4 5 6 
#
# 1 0.044018 -0.033585 -0.003436 0.000000 0.000000 0.000000
# 2 -0.033585 0.044018 -0.003436 0.000000 0.000000 0.000000
# 3 -0.003436 -0.003436 0.009361 0.000000 0.000000 0.000000
# 4 0.000000 0.000000 0.000000 0.032531 0.000000 0.000000
# 5 0.000000 0.000000 0.000000 0.000000 0.032531 0.000000
# 6 0.000000 0.000000 0.000000 0.000000 0.000000 0.155205
#
#
# Mechanical properties :
#
#
# Convention : Reuss Voigt Hill
#
# Bulk Modulus (GPa) = 60.67096 64.37193 62.52145
# Shear Modulus (GPa) = 12.37402 22.29293 17.33348
#
# Velocity S-wave (km/s) = 2.48846 3.34009 2.94522
# Velocity P-wave (km/s) = 6.21439 6.86215 6.54628
#
# Compressibility (1/GPa) = 0.01648235
#
# Stress axis : x y z
#
# Youngs Moduli (GPa) = 22.71809 22.71809 106.83149
#
# Poissons Ratio (x) = 0.76298 0.36707
# Poissons Ratio (y) = 0.76298 0.36707
# Poissons Ratio (z) = 0.07806 0.07806
#
# Static dielectric constant tensor:
#      x y z
#    x 3.647350 0.000000 0.000000 
#    y 0.000000 3.647350 0.000000 
#    z 0.000000 0.000000 3.697650 
# 
# 
# High freq. dielectric constant tensor:
#      x y z
#    x 1.767610 0.000000 0.000000 
#    y 0.000000 1.767610 0.000000 
#    z 0.000000 0.000000 1.780550 
# 
# From -- ./inp_files/6044.got.cif
#   From: 2010.03.12/outbox.cif.g09.slc.cpg/sg178_4_cif.got.tgz:6044.got - 2010.04.02 07:02:38.
