data_PCOD8325927
_publ_section_title
;
Structure prediction by ZEFSAII (Michael W. Deem and Ramdas Pophale) SiO2 
 PCOD8325927
Probable space group: P 61 2 2
;
_chemical_formula_sum "Si O2"
_cell_formula_units_Z 60
_cell_length_a 14.814169
_cell_length_b 14.814169
_cell_length_c 13.255622
_cell_angle_alpha 90.000000
_cell_angle_beta 90.000000
_cell_angle_gamma 120.000000
_cell_volume 2519.331590
_symmetry_space_group_name_H-M "P 61 2 2"
_symmetry_group_IT_number 178
_symmetry_cell_setting 'hexagonal'
loop_
_space_group_symop_operation_xyz
x,y,z
x-y,x,1/6+z
-y,x-y,1/3+z
-x,-y,1/2+z
-x+y,-x,2/3+z
y,-x+y,5/6+z
x-y,-y,-z
-x,-x+y,2/3-z
y,x,1/3-z
-y,-x,5/6-z
-x+y,y,1/2-z
x,x-y,1/6-z
loop_
_atom_site_type_symbol
_atom_site_label
_atom_site_fract_x
_atom_site_fract_y
_atom_site_fract_z
Si Si1 0.924855 0.633125 0.246008
Si Si2 0.885293 0.003392 0.303042
Si Si3 0.330685 0.303274 0.971217
Si Si4 0.292212 0.762230 0.803823
Si Si5 0.420560 0.528060 0.031980
O O1 0.811915 0.623829 0.250000
O O2 0.917007 0.521172 0.265079
O O3 0.000000 0.710614 0.333334
O O4 0.976006 0.673130 0.138186
O O5 0.878154 0.895722 0.346397
O O6 0.788719 0.011184 0.348396
O O7 0.000000 0.102459 0.333334
O O8 0.409593 0.259469 0.967073
O O9 0.383184 0.405078 0.044140
O O10 0.405223 0.810445 0.750000
O O11 0.218567 0.670330 0.730917
O O12 0.282783 0.717218 0.916667
O O13 0.441913 0.558088 0.916667
#
# Coordination Sequence:
#
# PCOD8325927 Si02
#       5
#    12  12  12  12  12
#     4  11  27  47  76 109 149 200 252 320 392 466
#     4  10  23  45  71 101 147 195 247 311 370 457
#     4  11  26  48  72 108 147 198 255 311 382 471
#     4  12  27  43  74 109 146 192 248 314 385 462
#     4  10  24  47  76 102 146 192 240 310 375 459
#
# _framework density 23.815839
#
# number of rings (size 3 to 8) (size 9 to 14) (size 15 to 20)
#    0.000    1.200    0.000    4.200   16.800    0.000 
#    7.200    0.000    0.000    0.000    0.000    0.000 
#    0.000    0.000    0.000    0.000    0.000    0.000 
#
# Total GULP energy -743498.800214 kJ/mol
# GULP energy per Si atom -12391.646670 kJ/mol
# Density = 2.376163 g / cm^3
# Si number density = 23.815839 Si / 1000 Ang^3
#
#
#
# Elastic Constant Matrix: (Units=GPa)
#
#
# Indices 1 2 3 4 5 6 
#
# 1 128.4692 39.0869 35.1438 0.0000 0.0000 0.0000
# 2 39.0869 128.4692 35.1438 0.0000 0.0000 0.0000
# 3 35.1438 35.1438 63.2843 0.0000 0.0000 0.0000
# 4 0.0000 0.0000 0.0000 30.1317 0.0000 0.0000
# 5 0.0000 0.0000 0.0000 0.0000 30.1317 0.0000
# 6 0.0000 0.0000 0.0000 0.0000 0.0000 44.6912
#
#
#
# Elastic Compliance Matrix: (Units=1/GPa)
#
#
# Indices 1 2 3 4 5 6 
#
# 1 0.009484 -0.001704 -0.004321 0.000000 0.000000 0.000000
# 2 -0.001704 0.009484 -0.004321 0.000000 0.000000 0.000000
# 3 -0.004321 -0.004321 0.020601 0.000000 0.000000 0.000000
# 4 0.000000 0.000000 0.000000 0.033188 0.000000 0.000000
# 5 0.000000 0.000000 0.000000 0.000000 0.033188 0.000000
# 6 0.000000 0.000000 0.000000 0.000000 0.000000 0.022376
#
#
# Mechanical properties :
#
#
# Convention : Reuss Voigt Hill
#
# Bulk Modulus (GPa) = 52.96985 59.88574 56.42780
# Shear Modulus (GPa) = 32.19491 35.04745 33.62118
#
# Velocity S-wave (km/s) = 3.68071 3.84031 3.76136
# Velocity P-wave (km/s) = 6.35242 6.69805 6.52752
#
# Compressibility (1/GPa) = 0.01887866
#
# Stress axis : x y z
#
# Youngs Moduli (GPa) = 105.43747 105.43747 48.54195
#
# Poissons Ratio (x) = 0.17962 0.20974
# Poissons Ratio (y) = 0.17962 0.20974
# Poissons Ratio (z) = 0.45558 0.45558
#
# Static dielectric constant tensor:
#      x y z
#    x 4.519870 0.000000 0.000000 
#    y 0.000000 4.519870 0.000000 
#    z 0.000000 0.000000 4.855050 
# 
# 
# High freq. dielectric constant tensor:
#      x y z
#    x 1.949330 0.000000 0.000000 
#    y 0.000000 1.949330 0.000000 
#    z 0.000000 0.000000 1.947210 
# 
# From -- ./inp_files/5658.got.cif
#   From: 2010.03.12/outbox.cif.g09.slc.cpg/sg178_3_cif.got.tgz:5658.got - 2010.04.02 07:02:38.
