data_PCOD8325679
_publ_section_title
;
Structure prediction by ZEFSAII (Michael W. Deem and Ramdas Pophale) SiO2 
 PCOD8325679
Probable space group: P 63/M
;
_chemical_formula_sum "Si O2"
_cell_formula_units_Z 36
_cell_length_a 10.666531
_cell_length_b 10.666531
_cell_length_c 14.144123
_cell_angle_alpha 90.000000
_cell_angle_beta 90.000000
_cell_angle_gamma 120.000000
_cell_volume 1393.647872
_symmetry_space_group_name_H-M "P 63/M"
_symmetry_group_IT_number 176
_symmetry_cell_setting 'hexagonal'
loop_
_space_group_symop_operation_xyz
x,y,z
x-y,x,1/2+z
-y,x-y,z
-x,-y,1/2+z
-x+y,-x,z
y,-x+y,1/2+z
-x,-y,-z
-x+y,-x,1/2-z
y,-x+y,-z
x,y,1/2-z
x-y,x,-z
-y,x-y,1/2-z
loop_
_atom_site_type_symbol
_atom_site_label
_atom_site_fract_x
_atom_site_fract_y
_atom_site_fract_z
Si Si1 0.847833 0.379478 0.946134
Si Si2 0.997600 0.559192 0.250000
Si Si3 0.106008 0.765631 0.750000
Si Si4 0.740087 0.000688 0.950928
O O1 0.785552 0.490694 0.959646
O O2 0.899111 0.382723 0.840011
O O3 0.970413 0.396114 0.026121
O O4 0.898057 0.386430 0.250000
O O5 0.892038 0.623285 0.250000
O O6 0.024464 0.780402 0.841175
O O7 0.731926 0.879313 0.021324
#
# Coordination Sequence:
#
# PCOD8325679 Si02
#       4
#    12   6   6  12
#     4  10  24  44  77 106 148 196 252 302 375 444
#     4  12  23  48  70 116 151 195 243 315 367 445
#     4  12  29  42  76 110 151 189 251 305 373 445
#     4  12  27  50  75 107 152 203 248 310 371 450
#
# _framework density 25.831489000000001
#
# number of rings (size 3 to 8) (size 9 to 14) (size 15 to 20)
#    0.667    0.000    3.333    3.667    4.667    5.333 
#    0.000    0.000    0.000    0.000    0.000    0.000 
#    0.000    0.000    0.000    0.000    0.000    0.000 
#
# Total GULP energy -446551.807034 kJ/mol
# GULP energy per Si atom -12404.216862 kJ/mol
# Density = 2.577270 g / cm^3
# Si number density = 25.831489 Si / 1000 Ang^3
#
#
#
# Elastic Constant Matrix: (Units=GPa)
#
#
# Indices 1 2 3 4 5 6 
#
# 1 68.2171 31.1091 7.5074 0.0000 0.0000 0.0000
# 2 31.1091 68.2171 7.5074 0.0000 0.0000 0.0000
# 3 7.5074 7.5074 158.6187 0.0000 0.0000 0.0000
# 4 0.0000 0.0000 0.0000 45.5802 0.0000 0.0000
# 5 0.0000 0.0000 0.0000 0.0000 45.5802 0.0000
# 6 0.0000 0.0000 0.0000 0.0000 0.0000 18.5540
#
#
#
# Elastic Compliance Matrix: (Units=1/GPa)
#
#
# Indices 1 2 3 4 5 6 
#
# 1 0.018544 -0.008404 -0.000480 0.000000 0.000000 0.000000
# 2 -0.008404 0.018544 -0.000480 0.000000 0.000000 0.000000
# 3 -0.000480 -0.000480 0.006350 0.000000 0.000000 0.000000
# 4 0.000000 0.000000 0.000000 0.021939 0.000000 0.000000
# 5 0.000000 0.000000 0.000000 0.000000 0.021939 0.000000
# 6 0.000000 0.000000 0.000000 0.000000 0.000000 0.053897
#
#
# Mechanical properties :
#
#
# Convention : Reuss Voigt Hill
#
# Bulk Modulus (GPa) = 40.46801 43.03339 41.75070
# Shear Modulus (GPa) = 29.73030 38.53817 34.13423
#
# Velocity S-wave (km/s) = 3.39622 3.86671 3.63908
# Velocity P-wave (km/s) = 5.57488 6.05233 5.81850
#
# Compressibility (1/GPa) = 0.02471088
#
# Stress axis : x y z
#
# Youngs Moduli (GPa) = 53.92475 53.92475 157.48384
#
# Poissons Ratio (x) = 0.45318 0.07558
# Poissons Ratio (y) = 0.45318 0.07558
# Poissons Ratio (z) = 0.02588 0.02588
#
# Static dielectric constant tensor:
#      x y z
#    x 5.248530 0.000000 0.000000 
#    y 0.000000 5.248530 0.000000 
#    z 0.000000 0.000000 4.576950 
# 
# 
# High freq. dielectric constant tensor:
#      x y z
#    x 2.082610 0.000000 0.000000 
#    y 0.000000 2.082610 0.000000 
#    z 0.000000 0.000000 2.030510 
# 
# From -- ./inp_files/2346.got.cif
#   From: 2010.06.25/outbox.cif.g09.slc.cpg/sg176_2_cif.got.tgz:2346.got - 2010.06.28 12:15:01.
