data_PCOD8325413
_publ_section_title
;
Structure prediction by ZEFSAII (Michael W. Deem and Ramdas Pophale) SiO2 
 PCOD8325413
Probable space group: P 63/M
;
_chemical_formula_sum "Si O2"
_cell_formula_units_Z 64
_cell_length_a 20.322438
_cell_length_b 20.322438
_cell_length_c 12.432196
_cell_angle_alpha 90.000000
_cell_angle_beta 90.000000
_cell_angle_gamma 120.000000
_cell_volume 4446.620795
_symmetry_space_group_name_H-M "P 63/M"
_symmetry_group_IT_number 176
_symmetry_cell_setting 'hexagonal'
loop_
_space_group_symop_operation_xyz
x,y,z
x-y,x,1/2+z
-y,x-y,z
-x,-y,1/2+z
-x+y,-x,z
y,-x+y,1/2+z
-x,-y,-z
-x+y,-x,1/2-z
y,-x+y,-z
x,y,1/2-z
x-y,x,-z
-y,x-y,1/2-z
loop_
_atom_site_type_symbol
_atom_site_label
_atom_site_fract_x
_atom_site_fract_y
_atom_site_fract_z
Si Si1 0.595658 0.421806 0.433621
Si Si2 0.608450 0.617099 0.500137
Si Si3 0.072565 0.538736 0.373858
Si Si4 0.581795 0.874884 0.629031
Si Si5 0.333334 0.666668 0.877486
Si Si6 0.565004 0.714803 0.627212
O O1 0.581895 0.431616 0.558168
O O2 0.627151 0.501554 0.371821
O O3 0.664355 0.405139 0.424576
O O4 0.521632 0.354217 0.377202
O O5 0.550503 0.585010 0.399595
O O6 0.572189 0.554325 0.595000
O O7 0.690895 0.633958 0.455045
O O8 0.616759 0.694716 0.549570
O O9 0.094213 0.554146 0.250000
O O10 0.615022 0.893701 0.750000
O O11 0.573694 0.795212 0.589173
O O12 0.333334 0.666668 0.750000
O O13 0.593071 0.722954 0.750000
#
# Coordination Sequence:
#
# PCOD8325413 Si02
#       6
#    12  12  12  12   4  12
#     4  10  19  27  42  64  83 104 140 182 224 260
#     4   9  18  28  44  62  80 104 139 174 204 252
#     4   9  17  30  43  56  80 112 140 170 208 256
#     4  10  18  28  44  64  83 105 136 177 218 249
#     4  12  18  27  43  59  85 105 132 192 238 251
#     4  10  18  28  44  64  83 105 136 177 218 249
#
# _framework density 14.392951
#
# number of rings (size 3 to 8) (size 9 to 14) (size 15 to 20)
#    0.000    2.250    1.875    3.938    0.000    0.000 
#    0.000    0.938    0.000    3.375    0.000    0.000 
#    0.000    0.000    0.000    0.562    0.000    2.625 
#
# Total GULP energy -793051.992112 kJ/mol
# GULP energy per Si atom -12391.437377 kJ/mol
# Density = 1.436019 g / cm^3
# Si number density = 14.392951 Si / 1000 Ang^3
#
#
#
# Elastic Constant Matrix: (Units=GPa)
#
#
# Indices 1 2 3 4 5 6 
#
# 1 65.5250 31.9376 33.7923 0.0000 0.0000 0.0000
# 2 31.9376 65.5246 33.7917 0.0000 0.0000 0.0007
# 3 33.7923 33.7917 92.0605 0.0000 0.0000 -0.0001
# 4 0.0000 0.0000 0.0000 19.4934 0.0001 0.0000
# 5 0.0000 0.0000 0.0000 0.0001 19.4935 0.0000
# 6 0.0000 0.0007 -0.0001 0.0000 0.0000 16.7942
#
#
#
# Elastic Compliance Matrix: (Units=1/GPa)
#
#
# Indices 1 2 3 4 5 6 
#
# 1 0.021768 -0.008005 -0.005052 0.000000 0.000000 0.000000
# 2 -0.008005 0.021768 -0.005052 0.000000 0.000000 -0.000001
# 3 -0.005052 -0.005052 0.014571 0.000000 0.000000 0.000000
# 4 0.000000 0.000000 0.000000 0.051299 0.000000 0.000000
# 5 0.000000 0.000000 0.000000 0.000000 0.051299 0.000000
# 6 0.000000 -0.000001 0.000000 0.000000 0.000000 0.059544
#
#
# Mechanical properties :
#
#
# Convention : Reuss Voigt Hill
#
# Bulk Modulus (GPa) = 45.68261 46.90592 46.29426
# Shear Modulus (GPa) = 18.95618 19.39544 19.17581
#
# Velocity S-wave (km/s) = 3.63305 3.67490 3.65404
# Velocity P-wave (km/s) = 7.02903 7.11806 7.07368
#
# Compressibility (1/GPa) = 0.02189017
#
# Stress axis : x y z
#
# Youngs Moduli (GPa) = 45.93796 45.93795 68.62787
#
# Poissons Ratio (x) = 0.36772 0.34672
# Poissons Ratio (y) = 0.36772 0.34671
# Poissons Ratio (z) = 0.23209 0.23208
#
# Static dielectric constant tensor:
#      x y z
#    x 2.815480 -0.000030 0.000000 
#    y -0.000030 2.815530 0.000000 
#    z 0.000000 0.000000 2.707680 
# 
# 
# High freq. dielectric constant tensor:
#      x y z
#    x 1.522260 0.000000 0.000000 
#    y 0.000000 1.522260 0.000000 
#    z 0.000000 0.000000 1.544650 
# 
# From -- ./inp_files/1969.got.cif
#   From: 2010.06.25/outbox.cif.g09.slc.cpg/sg176_1_cif.got.tgz:1969.got - 2010.06.28 12:15:01.
