data_PCOD8325554
_publ_section_title
;
Structure prediction by ZEFSAII (Michael W. Deem and Ramdas Pophale) SiO2 
 PCOD8325554
Probable space group: P 63/M
;
_chemical_formula_sum "Si O2"
_cell_formula_units_Z 48
_cell_length_a 18.547202
_cell_length_b 18.547202
_cell_length_c 8.712390
_cell_angle_alpha 90.000000
_cell_angle_beta 90.000000
_cell_angle_gamma 120.000000
_cell_volume 2595.522174
_symmetry_space_group_name_H-M "P 63/M"
_symmetry_group_IT_number 176
_symmetry_cell_setting 'hexagonal'
loop_
_space_group_symop_operation_xyz
x,y,z
x-y,x,1/2+z
-y,x-y,z
-x,-y,1/2+z
-x+y,-x,z
y,-x+y,1/2+z
-x,-y,-z
-x+y,-x,1/2-z
y,-x+y,-z
x,y,1/2-z
x-y,x,-z
-y,x-y,1/2-z
loop_
_atom_site_type_symbol
_atom_site_label
_atom_site_fract_x
_atom_site_fract_y
_atom_site_fract_z
Si Si1 0.748956 0.660411 0.428345
Si Si2 0.754523 0.082362 0.426341
Si Si3 0.487208 0.817945 0.070504
Si Si4 0.480337 0.661203 0.928170
O O1 0.733727 0.636251 0.250000
O O2 0.844769 0.691698 0.470574
O O3 0.729863 0.733591 0.467578
O O4 0.687640 0.578894 0.525701
O O5 0.750230 0.055946 0.250000
O O6 0.688958 0.113053 0.460225
O O7 0.483289 0.800179 0.250000
O O8 0.462117 0.733495 0.979929
O O9 0.422029 0.847445 0.025401
O O10 0.457885 0.643194 0.750000
#
# Coordination Sequence:
#
# PCOD8325554 Si02
#       4
#    12  12  12  12
#     4  10  21  37  57  80 106 137 171 211 262 313
#     4   9  20  37  56  79 104 133 171 212 258 313
#     4  11  21  33  51  76 106 142 184 223 260 305
#     4  10  20  35  52  73 106 144 182 223 264 305
#
# _framework density 18.493389000000001
#
# number of rings (size 3 to 8) (size 9 to 14) (size 15 to 20)
#    0.000    2.000    0.000    5.750    0.000    7.000 
#    0.000    0.000    0.000    0.500    0.000    0.000 
#    0.000    0.000    0.000    0.000    0.000    0.000 
#
# Total GULP energy -595439.779122 kJ/mol
# GULP energy per Si atom -12404.995398 kJ/mol
# Density = 1.845130 g / cm^3
# Si number density = 18.493389 Si / 1000 Ang^3
#
#
#
# Elastic Constant Matrix: (Units=GPa)
#
#
# Indices 1 2 3 4 5 6 
#
# 1 90.5571 56.8397 31.5643 0.0000 0.0000 0.0000
# 2 56.8397 90.5571 31.5643 0.0000 0.0000 0.0000
# 3 31.5643 31.5643 64.9447 0.0000 0.0000 0.0000
# 4 0.0000 0.0000 0.0000 30.5421 0.0000 0.0000
# 5 0.0000 0.0000 0.0000 0.0000 30.5421 0.0000
# 6 0.0000 0.0000 0.0000 0.0000 0.0000 16.8587
#
#
#
# Elastic Compliance Matrix: (Units=1/GPa)
#
#
# Indices 1 2 3 4 5 6 
#
# 1 0.019113 -0.010545 -0.004164 0.000000 0.000000 0.000000
# 2 -0.010545 0.019113 -0.004164 0.000000 0.000000 0.000000
# 3 -0.004164 -0.004164 0.019445 0.000000 0.000000 0.000000
# 4 0.000000 0.000000 0.000000 0.032742 0.000000 0.000000
# 5 0.000000 0.000000 0.000000 0.000000 0.032742 0.000000
# 6 0.000000 0.000000 0.000000 0.000000 0.000000 0.059316
#
#
# Mechanical properties :
#
#
# Convention : Reuss Voigt Hill
#
# Bulk Modulus (GPa) = 50.18925 53.99949 52.09437
# Shear Modulus (GPa) = 22.04004 23.99463 23.01733
#
# Velocity S-wave (km/s) = 3.45596 3.60595 3.53175
# Velocity P-wave (km/s) = 6.56680 6.82641 6.69786
#
# Compressibility (1/GPa) = 0.01992459
#
# Stress axis : x y z
#
# Youngs Moduli (GPa) = 52.32026 52.32026 51.42608
#
# Poissons Ratio (x) = 0.55173 0.21415
# Poissons Ratio (y) = 0.55173 0.21415
# Poissons Ratio (z) = 0.21787 0.21787
#
# Static dielectric constant tensor:
#      x y z
#    x 3.264280 0.000000 0.000000 
#    y 0.000000 3.264280 0.000000 
#    z 0.000000 0.000000 3.380360 
# 
# 
# High freq. dielectric constant tensor:
#      x y z
#    x 1.704720 0.000000 0.000000 
#    y 0.000000 1.704720 0.000000 
#    z 0.000000 0.000000 1.727700 
# 
# From -- ./inp_files/563.got.cif
#   From: 2010.06.25/outbox.cif.g09.slc.cpg/sg176_1_cif.got.tgz:563.got - 2010.06.28 12:15:01.
