data_PCOD8325086
_publ_section_title
;
Structure prediction by ZEFSAII (Michael W. Deem and Ramdas Pophale) SiO2 
 PCOD8325086
Probable space group: P 6/M
;
_chemical_formula_sum "Si O2"
_cell_formula_units_Z 72
_cell_length_a 15.247356
_cell_length_b 15.247356
_cell_length_c 19.604486
_cell_angle_alpha 90.000000
_cell_angle_beta 90.000000
_cell_angle_gamma 120.000000
_cell_volume 3947.073129
_symmetry_space_group_name_H-M "P 6/M"
_symmetry_group_IT_number 175
_symmetry_cell_setting 'hexagonal'
loop_
_space_group_symop_operation_xyz
x,y,z
x-y,x,z
-y,x-y,z
-x,-y,z
-x+y,-x,z
y,-x+y,z
-x,-y,-z
-x+y,-x,-z
y,-x+y,-z
x,y,-z
x-y,x,-z
-y,x-y,-z
loop_
_atom_site_type_symbol
_atom_site_label
_atom_site_fract_x
_atom_site_fract_y
_atom_site_fract_z
Si Si1 0.128102 0.883273 0.500000
Si Si2 0.239133 0.133345 0.147663
Si Si3 0.432335 0.222191 0.237862
Si Si4 0.234336 0.130352 0.000000
Si Si5 0.218008 0.789128 0.600043
Si Si6 0.112152 0.559803 0.398956
Si Si7 0.549763 0.112074 0.237235
O O1 0.166746 0.849248 0.566521
O O2 0.005358 0.828978 0.500000
O O3 0.163061 0.176075 0.157737
O O4 0.324103 0.183313 0.204739
O O5 0.294613 0.163942 0.072324
O O6 0.414303 0.212866 0.318788
O O7 0.482545 0.158434 0.210080
O O8 0.509921 0.335205 0.212647
O O9 0.154972 0.167056 0.000000
O O10 0.332769 0.832466 0.574986
O O11 0.162636 0.673875 0.573614
O O12 0.112192 0.563407 0.318117
O O13 0.000000 0.500000 0.429077
O O14 0.500000 0.000000 0.206735
#
# Coordination Sequence:
#
# PCOD8325086 Si02
#       7
#     6  12  12   6  12  12  12
#     4  12  27  44  58  72 100 144 185 216 250 302
#     4  10  19  31  50  76 106 138 173 217 267 316
#     4  10  19  33  54  78 104 135 172 212 253 304
#     4   8  15  28  46  70 100 134 172 216 269 318
#     4  10  21  37  57  81 105 132 168 211 262 315
#     4   9  17  32  54  77 100 124 156 204 257 304
#     4   9  17  29  47  73 102 129 159 200 250 297
#
# _framework density 18.241364999999998
#
# number of rings (size 3 to 8) (size 9 to 14) (size 15 to 20)
#    0.000    2.333    0.000    3.000    0.000    8.667 
#    0.000    1.667    0.000    3.000    0.000    4.667 
#    0.000    0.000    0.000    0.000    0.000    0.000 
#
# Total GULP energy -892268.462902 kJ/mol
# GULP energy per Si atom -12392.617540 kJ/mol
# Density = 1.819985 g / cm^3
# Si number density = 18.241365 Si / 1000 Ang^3
#
#
#
# Elastic Constant Matrix: (Units=GPa)
#
#
# Indices 1 2 3 4 5 6 
#
# 1 106.6178 23.8637 22.6472 0.0000 0.0000 0.0000
# 2 23.8637 106.6178 22.6472 0.0000 0.0000 0.0000
# 3 22.6472 22.6472 68.5244 0.0000 0.0000 0.0000
# 4 0.0000 0.0000 0.0000 -3.2836 0.0000 0.0000
# 5 0.0000 0.0000 0.0000 0.0000 -3.2836 0.0000
# 6 0.0000 0.0000 0.0000 0.0000 0.0000 41.3771
#
#
#
# Elastic Compliance Matrix: (Units=1/GPa)
#
#
# Indices 1 2 3 4 5 6 
#
# 1 0.010371 -0.001713 -0.002861 0.000000 0.000000 0.000000
# 2 -0.001713 0.010371 -0.002861 0.000000 0.000000 0.000000
# 3 -0.002861 -0.002861 0.016485 0.000000 0.000000 0.000000
# 4 0.000000 0.000000 0.000000 -0.304541 0.000000 0.000000
# 5 0.000000 0.000000 0.000000 0.000000 -0.304541 0.000000
# 6 0.000000 0.000000 0.000000 0.000000 0.000000 0.024168
#
#
# Mechanical properties :
#
#
# Convention : Reuss Voigt Hill
#
# Bulk Modulus (GPa) = 44.73442 46.67513 45.70477
# Shear Modulus (GPa) = -9.51719 21.13543 5.80912
#
# Velocity S-wave (km/s) = -2.28663 3.40759 1.78648
# Velocity P-wave (km/s) = 4.19586 6.41290 5.41898
#
# Compressibility (1/GPa) = 0.02235415
#
# Stress axis : x y z
#
# Youngs Moduli (GPa) = 96.42686 96.42686 60.66284
#
# Poissons Ratio (x) = 0.16522 0.17357
# Poissons Ratio (y) = 0.16522 0.17357
# Poissons Ratio (z) = 0.27589 0.27589
#
# Static dielectric constant tensor:
#      x y z
#    x 3.518710 0.000000 0.000000 
#    y 0.000000 3.518710 0.000000 
#    z 0.000000 0.000000 3.336760 
# 
# 
# High freq. dielectric constant tensor:
#      x y z
#    x 1.712840 0.000000 0.000000 
#    y 0.000000 1.712840 0.000000 
#    z 0.000000 0.000000 1.681690 
# 
# From -- ./inp_files/3132.got.cif
#   From: 2010.03.12/outbox.cif.g09.slc.cpg/sg175_2_cif.got.tgz:3132.got - 2010.04.02 06:55:29.
