data_PCOD8325351
_publ_section_title
;
Structure prediction by ZEFSAII (Michael W. Deem and Ramdas Pophale) SiO2 
 PCOD8325351
Probable space group: P 6/M
;
_chemical_formula_sum "Si O2"
_cell_formula_units_Z 30
_cell_length_a 11.306443
_cell_length_b 11.306443
_cell_length_c 12.831775
_cell_angle_alpha 90.000000
_cell_angle_beta 90.000000
_cell_angle_gamma 120.000000
_cell_volume 1420.591994
_symmetry_space_group_name_H-M "P 6/M"
_symmetry_group_IT_number 175
_symmetry_cell_setting 'hexagonal'
loop_
_space_group_symop_operation_xyz
x,y,z
x-y,x,z
-y,x-y,z
-x,-y,z
-x+y,-x,z
y,-x+y,z
-x,-y,-z
-x+y,-x,-z
y,-x+y,-z
x,y,-z
x-y,x,-z
-y,x-y,-z
loop_
_atom_site_type_symbol
_atom_site_label
_atom_site_fract_x
_atom_site_fract_y
_atom_site_fract_z
Si Si1 0.703489 0.499731 0.383058
Si Si2 0.781697 0.688097 0.191819
Si Si3 0.196570 0.692486 0.000000
O O1 0.552177 0.366102 0.367052
O O2 0.716282 0.557740 0.500000
O O3 0.729540 0.618375 0.303780
O O4 0.751453 0.809731 0.178980
O O5 0.701173 0.577930 0.103089
O O6 0.188107 0.544808 0.000000
#
# Coordination Sequence:
#
# PCOD8325351 Si02
#       3
#    12  12   6
#     4   8  18  39  63  93 119 148 200 258 312 346
#     4  12  25  40  60  87 125 167 199 233 285 359
#     4  10  24  44  64  96 114 140 196 258 312 348
#
# _framework density 21.117958000000002
#
# number of rings (size 3 to 8) (size 9 to 14) (size 15 to 20)
#    1.200    0.800    0.000    4.000    0.000    9.600 
#    0.000    6.000    0.000    2.400    0.000    0.000 
#    0.000    0.000    0.000    0.000    0.000    0.000 
#
# Total GULP energy -371905.881370 kJ/mol
# GULP energy per Si atom -12396.862712 kJ/mol
# Density = 2.106989 g / cm^3
# Si number density = 21.117958 Si / 1000 Ang^3
#
#
#
# Elastic Constant Matrix: (Units=GPa)
#
#
# Indices 1 2 3 4 5 6 
#
# 1 70.9346 -29.9788 18.7316 0.0000 0.0000 0.0000
# 2 -29.9788 70.9346 18.7316 0.0000 0.0000 0.0000
# 3 18.7316 18.7316 129.2249 0.0000 0.0000 0.0000
# 4 0.0000 0.0000 0.0000 2.5776 0.0000 0.0000
# 5 0.0000 0.0000 0.0000 0.0000 2.5776 0.0000
# 6 0.0000 0.0000 0.0000 0.0000 0.0000 50.4567
#
#
#
# Elastic Compliance Matrix: (Units=1/GPa)
#
#
# Indices 1 2 3 4 5 6 
#
# 1 0.019029 0.009120 -0.004080 0.000000 0.000000 0.000000
# 2 0.009120 0.019029 -0.004080 0.000000 0.000000 0.000000
# 3 -0.004080 -0.004080 0.008921 0.000000 0.000000 0.000000
# 4 0.000000 0.000000 0.000000 0.387951 0.000000 0.000000
# 5 0.000000 0.000000 0.000000 0.000000 0.387951 0.000000
# 6 0.000000 0.000000 0.000000 0.000000 0.000000 0.019819
#
#
# Mechanical properties :
#
#
# Convention : Reuss Voigt Hill
#
# Bulk Modulus (GPa) = 20.45074 31.78476 26.11775
# Shear Modulus (GPa) = 5.83375 28.69639 17.26507
#
# Velocity S-wave (km/s) = 1.66387 3.69027 2.86239
# Velocity P-wave (km/s) = 3.66010 5.76552 4.82895
#
# Compressibility (1/GPa) = 0.04889800
#
# Stress axis : x y z
#
# Youngs Moduli (GPa) = 52.55087 52.55087 112.09065
#
# Poissons Ratio (x) = -0.47925 0.45736
# Poissons Ratio (y) = -0.47925 0.45736
# Poissons Ratio (z) = 0.21442 0.21442
#
# Static dielectric constant tensor:
#      x y z
#    x 3.596340 0.000000 0.000000 
#    y 0.000000 3.596340 0.000000 
#    z 0.000000 0.000000 3.783270 
# 
# 
# High freq. dielectric constant tensor:
#      x y z
#    x 1.814620 0.000000 0.000000 
#    y 0.000000 1.814620 0.000000 
#    z 0.000000 0.000000 1.839930 
# 
# From -- ./inp_files/2188.got.cif
#   From: 2010.03.12/outbox.cif.g09.slc.cpg/sg175_2_cif.got.tgz:2188.got - 2010.04.02 06:55:29.
