data_PCOD8325752
_publ_section_title
;
Structure prediction by ZEFSAII (Michael W. Deem and Ramdas Pophale) SiO2 
 PCOD8325752
Probable space group: P 6 2 2
;
_chemical_formula_sum "Si O2"
_cell_formula_units_Z 84
_cell_length_a 18.000000
_cell_length_b 18.000000
_cell_length_c 15.000000
_cell_angle_alpha 90.000000
_cell_angle_beta 90.000000
_cell_angle_gamma 120.000000
_cell_volume 4208.883462
_symmetry_space_group_name_H-M "P 6 2 2"
_symmetry_group_IT_number 177
_symmetry_cell_setting 'hexagonal'
loop_
_space_group_symop_operation_xyz
x,y,z
x-y,x,z
-y,x-y,z
-x,-y,z
-x+y,-x,z
y,-x+y,z
x-y,-y,-z
-x,-x+y,-z
y,x,-z
-y,-x,-z
-x+y,y,-z
x,x-y,-z
loop_
_atom_site_type_symbol
_atom_site_label
_atom_site_fract_x
_atom_site_fract_y
_atom_site_fract_z
Si Si1 0.272314 0.371725 0.488578
Si Si2 0.170220 0.502007 0.016549
Si Si3 0.725456 0.103501 0.853643
Si Si4 0.199381 0.114050 0.895007
Si Si5 0.051903 0.604755 0.822166
Si Si6 0.483633 0.308849 0.675753
Si Si7 0.645436 0.150175 0.354163
O O1 0.293923 0.293923 0.500000
O O2 0.169958 0.339915 0.500000
O O3 0.292568 0.405003 0.387517
O O4 0.334779 0.450807 0.553945
O O5 0.129524 0.421268 0.950575
O O6 0.272498 0.544996 0.000000
O O7 0.139746 0.569873 0.000000
O O8 0.136532 0.475013 0.117392
O O9 0.821615 0.115778 0.852260
O O10 0.706060 0.155137 0.777173
O O11 0.653241 0.005058 0.843071
O O12 0.139614 0.153900 0.863631
O O13 0.209765 0.104883 0.000000
O O14 0.081081 0.630263 0.721093
O O15 0.000000 0.500000 0.837128
O O16 0.519149 0.244264 0.661671
O O17 0.560277 0.402654 0.649350
#
# Coordination Sequence:
#
# PCOD8325752 Si02
#       7
#    12  12  12  12  12  12  12
#     4  10  23  42  69  98 134 172 223 282 346 408
#     4  12  25  40  59  84 125 173 217 270 319 386
#     4  12  25  38  63  91 128 167 223 271 335 392
#     4  10  24  44  68  94 123 164 215 284 353 418
#     4  12  24  41  61  90 124 174 225 275 325 392
#     4  11  23  41  62  98 135 178 223 279 327 408
#     4  11  23  40  65  94 133 178 223 272 337 396
#
# _framework density 19.957787
#
# number of rings (size 3 to 8) (size 9 to 14) (size 15 to 20)
#    0.000    0.857    2.857    3.571    8.000    1.143 
#    0.000    4.286    0.000    0.143    0.000    0.000 
#    0.000    0.000    0.000    0.000    0.000    0.000 
#
# Total GULP energy -1040659.109460 kJ/mol
# GULP energy per Si atom -12388.798922 kJ/mol
# Density = 1.991236 g / cm^3
# Si number density = 19.957787 Si / 1000 Ang^3
#
#
#
# Elastic Constant Matrix: (Units=GPa)
#
#
# Indices 1 2 3 4 5 6 
#
# 1 123.8477 41.1531 20.8744 0.0000 0.0000 0.0000
# 2 41.1531 123.8477 20.8744 0.0000 0.0000 0.0000
# 3 20.8744 20.8744 84.1494 0.0000 0.0000 0.0000
# 4 0.0000 0.0000 0.0000 35.3031 0.0000 0.0000
# 5 0.0000 0.0000 0.0000 0.0000 35.3031 0.0000
# 6 0.0000 0.0000 0.0000 0.0000 0.0000 41.3473
#
#
#
# Elastic Compliance Matrix: (Units=1/GPa)
#
#
# Indices 1 2 3 4 5 6 
#
# 1 0.009280 -0.002813 -0.001604 0.000000 0.000000 0.000000
# 2 -0.002813 0.009280 -0.001604 0.000000 0.000000 0.000000
# 3 -0.001604 -0.001604 0.012679 0.000000 0.000000 0.000000
# 4 0.000000 0.000000 0.000000 0.028326 0.000000 0.000000
# 5 0.000000 0.000000 0.000000 0.000000 0.028326 0.000000
# 6 0.000000 0.000000 0.000000 0.000000 0.000000 0.024185
#
#
# Mechanical properties :
#
#
# Convention : Reuss Voigt Hill
#
# Bulk Modulus (GPa) = 52.09421 55.29428 53.69425
# Shear Modulus (GPa) = 38.30903 38.98687 38.64795
#
# Velocity S-wave (km/s) = 4.38597 4.42460 4.40532
# Velocity P-wave (km/s) = 7.19776 7.33952 7.26899
#
# Compressibility (1/GPa) = 0.01919599
#
# Stress axis : x y z
#
# Youngs Moduli (GPa) = 107.76363 107.76363 78.86767
#
# Poissons Ratio (x) = 0.30315 0.12651
# Poissons Ratio (y) = 0.30315 0.12651
# Poissons Ratio (z) = 0.17286 0.17286
#
# Static dielectric constant tensor:
#      x y z
#    x 3.982060 0.000000 0.000000 
#    y 0.000000 3.982060 0.000000 
#    z 0.000000 0.000000 3.782150 
# 
# 
# High freq. dielectric constant tensor:
#      x y z
#    x 1.795230 0.000000 0.000000 
#    y 0.000000 1.795230 0.000000 
#    z 0.000000 0.000000 1.782920 
# 
# From -- ./inp_files/2622.got.cif
#   From: 2010.03.12/outbox.ucp.g09.slc.cvg/sg177_2_cif.got.tgz:2622.got - 2010.05.04 20:43:04.
