data_PCOD8325627
_publ_section_title
;
Structure prediction by ZEFSAII (Michael W. Deem and Ramdas Pophale) SiO2 
 PCOD8325627
Probable space group: P 63/M
;
_chemical_formula_sum "Si O2"
_cell_formula_units_Z 76
_cell_length_a 17.589894
_cell_length_b 17.589894
_cell_length_c 13.614708
_cell_angle_alpha 90.000000
_cell_angle_beta 90.000000
_cell_angle_gamma 120.000000
_cell_volume 3648.088854
_symmetry_space_group_name_H-M "P 63/M"
_symmetry_group_IT_number 176
_symmetry_cell_setting 'hexagonal'
loop_
_space_group_symop_operation_xyz
x,y,z
x-y,x,1/2+z
-y,x-y,z
-x,-y,1/2+z
-x+y,-x,z
y,-x+y,1/2+z
-x,-y,-z
-x+y,-x,1/2-z
y,-x+y,-z
x,y,1/2-z
x-y,x,-z
-y,x-y,1/2-z
loop_
_atom_site_type_symbol
_atom_site_label
_atom_site_fract_x
_atom_site_fract_y
_atom_site_fract_z
Si Si1 0.001509 0.570414 0.924707
Si Si2 0.631435 0.137547 0.750000
Si Si3 0.168693 0.699145 0.250000
Si Si4 0.183592 0.692882 0.860646
Si Si5 0.704863 0.664749 0.909306
Si Si6 0.138972 0.331501 0.857727
Si Si7 0.333334 0.666668 0.631894
Si Si8 0.067327 0.875291 0.997014
O O1 0.919175 0.534044 0.850153
O O2 0.088507 0.606414 0.859249
O O3 0.000000 0.500000 0.000000
O O4 0.016390 0.654793 0.986444
O O5 0.564161 0.174845 0.750000
O O6 0.732598 0.217040 0.750000
O O7 0.114760 0.698895 0.346812
O O8 0.217372 0.720651 0.750000
O O9 0.191034 0.778908 0.915061
O O10 0.250646 0.669647 0.914128
O O11 0.657966 0.710999 0.852779
O O12 0.806560 0.737118 0.926441
O O13 0.174295 0.331643 0.750000
O O14 0.116555 0.239356 0.901499
O O15 0.333334 0.666668 0.750000
O O16 0.972520 0.853543 0.956484
#
# Coordination Sequence:
#
# PCOD8325627 Si02
#       8
#    12   6   6  12  12  12   4  12
#     4  12  25  44  71 100 134 184 242 290 351 425
#     4  12  29  48  75 104 146 196 242 308 366 443
#     4  12  27  50  69 102 146 190 242 296 370 435
#     4  10  21  39  62  94 129 167 217 276 338 402
#     4  11  24  44  69  99 133 183 237 291 351 422
#     4  10  21  39  66  95 127 170 226 287 340 412
#     4   9  21  36  57  90 126 163 200 271 348 390
#     4  10  22  41  65  96 137 175 224 282 356 420
#
# _framework density 20.832826000000001
#
# number of rings (size 3 to 8) (size 9 to 14) (size 15 to 20)
#    0.000    1.263    4.737    0.316    6.632    0.000 
#    1.421    0.000    0.000    0.000    0.000    0.000 
#    0.000    0.000    0.000    0.000    0.000    0.000 
#
# Total GULP energy -941726.826929 kJ/mol
# GULP energy per Si atom -12391.142460 kJ/mol
# Density = 2.078541 g / cm^3
# Si number density = 20.832826 Si / 1000 Ang^3
#
#
#
# Elastic Constant Matrix: (Units=GPa)
#
#
# Indices 1 2 3 4 5 6 
#
# 1 154.0882 78.9514 37.3664 0.0000 0.0000 0.0000
# 2 78.9514 154.0896 37.3667 0.0000 0.0000 0.0005
# 3 37.3664 37.3667 78.2347 0.0000 0.0000 0.0000
# 4 0.0000 0.0000 0.0000 24.5792 -0.0001 0.0000
# 5 0.0000 0.0000 0.0000 -0.0001 24.5793 0.0000
# 6 0.0000 0.0005 0.0000 0.0000 0.0000 37.5690
#
#
#
# Elastic Compliance Matrix: (Units=1/GPa)
#
#
# Indices 1 2 3 4 5 6 
#
# 1 0.009188 -0.004121 -0.002420 0.000000 0.000000 0.000000
# 2 -0.004121 0.009188 -0.002420 0.000000 0.000000 0.000000
# 3 -0.002420 -0.002420 0.015094 0.000000 0.000000 0.000000
# 4 0.000000 0.000000 0.000000 0.040685 0.000000 0.000000
# 5 0.000000 0.000000 0.000000 0.000000 0.040685 0.000000
# 6 0.000000 0.000000 0.000000 0.000000 0.000000 0.026618
#
#
# Mechanical properties :
#
#
# Convention : Reuss Voigt Hill
#
# Bulk Modulus (GPa) = 64.31883 77.08684 70.70283
# Shear Modulus (GPa) = 30.38364 32.86071 31.62218
#
# Velocity S-wave (km/s) = 3.82311 3.97590 3.90025
# Velocity P-wave (km/s) = 7.10134 7.62627 7.36848
#
# Compressibility (1/GPa) = 0.01554755
#
# Stress axis : x y z
#
# Youngs Moduli (GPa) = 108.83613 108.83700 66.25169
#
# Poissons Ratio (x) = 0.44850 0.16034
# Poissons Ratio (y) = 0.44850 0.16034
# Poissons Ratio (z) = 0.26341 0.26341
#
# Static dielectric constant tensor:
#      x y z
#    x 4.083270 0.000000 0.000000 
#    y 0.000000 4.083270 0.000000 
#    z 0.000000 0.000000 3.589900 
# 
# 
# High freq. dielectric constant tensor:
#      x y z
#    x 1.828460 0.000000 0.000000 
#    y 0.000000 1.828460 0.000000 
#    z 0.000000 0.000000 1.792000 
# 
# From -- ./inp_files/2905.got.cif
#   From: 2010.06.25/outbox.cif.g09.slc.cpg/sg176_2_cif.got.tgz:2905.got - 2010.06.28 12:15:01.
