data_PCOD8325052
_publ_section_title
;
Structure prediction by ZEFSAII (Michael W. Deem and Ramdas Pophale) SiO2 
 PCOD8325052
Probable space group: P 6/M
;
_chemical_formula_sum "Si O2"
_cell_formula_units_Z 30
_cell_length_a 13.618623
_cell_length_b 13.618623
_cell_length_c 10.953299
_cell_angle_alpha 90.000000
_cell_angle_beta 90.000000
_cell_angle_gamma 120.000000
_cell_volume 1759.308375
_symmetry_space_group_name_H-M "P 6/M"
_symmetry_group_IT_number 175
_symmetry_cell_setting 'hexagonal'
loop_
_space_group_symop_operation_xyz
x,y,z
x-y,x,z
-y,x-y,z
-x,-y,z
-x+y,-x,z
y,-x+y,z
-x,-y,-z
-x+y,-x,-z
y,-x+y,-z
x,y,-z
x-y,x,-z
-y,x-y,-z
loop_
_atom_site_type_symbol
_atom_site_label
_atom_site_fract_x
_atom_site_fract_y
_atom_site_fract_z
Si Si1 0.128275 0.670560 0.261866
Si Si2 0.335538 0.883823 0.357375
Si Si3 0.787992 0.324077 0.000000
O O1 0.207609 0.790214 0.326744
O O2 0.160542 0.579927 0.314139
O O3 0.145074 0.681399 0.116850
O O4 0.999074 0.634576 0.288281
O O5 0.351774 0.909865 0.500000
O O6 0.782269 0.440833 0.000000
#
# Coordination Sequence:
#
# PCOD8325052 Si02
#       3
#    12  12   6
#     4  11  21  34  54  76 107 141 177 219 264 317
#     4  11  21  35  53  79 107 142 177 220 269 318
#     4  10  18  35  53  75 110 142 175 215 266 320
#
# _framework density 17.052154999999999
#
# number of rings (size 3 to 8) (size 9 to 14) (size 15 to 20)
#    0.400    0.800    4.000    5.600    0.000    4.800 
#    0.000    0.000    0.000    0.800    0.000    2.800 
#    0.000    3.200    0.000    0.000    0.000    0.000 
#
# Total GULP energy -372109.078731 kJ/mol
# GULP energy per Si atom -12403.635958 kJ/mol
# Density = 1.701334 g / cm^3
# Si number density = 17.052155 Si / 1000 Ang^3
#
#
#
# Elastic Constant Matrix: (Units=GPa)
#
#
# Indices 1 2 3 4 5 6 
#
# 1 82.4467 34.3413 12.9931 0.0000 0.0000 0.0000
# 2 34.3413 82.4467 12.9931 0.0000 0.0000 0.0000
# 3 12.9931 12.9931 116.9431 0.0000 0.0000 0.0000
# 4 0.0000 0.0000 0.0000 17.2415 0.0000 0.0000
# 5 0.0000 0.0000 0.0000 0.0000 17.2415 0.0000
# 6 0.0000 0.0000 0.0000 0.0000 0.0000 24.0527
#
#
#
# Elastic Compliance Matrix: (Units=1/GPa)
#
#
# Indices 1 2 3 4 5 6 
#
# 1 0.014784 -0.006004 -0.000975 0.000000 0.000000 0.000000
# 2 -0.006004 0.014784 -0.000975 0.000000 0.000000 0.000000
# 3 -0.000975 -0.000975 0.008768 0.000000 0.000000 0.000000
# 4 0.000000 0.000000 0.000000 0.057999 0.000000 0.000000
# 5 0.000000 0.000000 0.000000 0.000000 0.057999 0.000000
# 6 0.000000 0.000000 0.000000 0.000000 0.000000 0.041575
#
#
# Mechanical properties :
#
#
# Convention : Reuss Voigt Hill
#
# Bulk Modulus (GPa) = 44.59268 44.72129 44.65698
# Shear Modulus (GPa) = 22.80039 26.47443 24.63741
#
# Velocity S-wave (km/s) = 3.66060 3.94452 3.80521
# Velocity P-wave (km/s) = 6.63884 6.85775 6.74918
#
# Compressibility (1/GPa) = 0.02242521
#
# Stress axis : x y z
#
# Youngs Moduli (GPa) = 67.64243 67.64243 114.05205
#
# Poissons Ratio (x) = 0.40613 0.11125
# Poissons Ratio (y) = 0.40613 0.11125
# Poissons Ratio (z) = 0.06598 0.06598
#
# Static dielectric constant tensor:
#      x y z
#    x 3.011870 0.000000 0.000000 
#    y 0.000000 3.011870 0.000000 
#    z 0.000000 0.000000 3.310580 
# 
# 
# High freq. dielectric constant tensor:
#      x y z
#    x 1.635520 0.000000 0.000000 
#    y 0.000000 1.635520 0.000000 
#    z 0.000000 0.000000 1.682240 
# 
# From -- ./inp_files/327.got.cif
#   From: 2010.03.12/outbox.cif.g09.slc.cpg/sg175_1_cif.got.tgz:327.got - 2010.04.02 06:55:29.
