data_PCOD8325207
_publ_section_title
;
Structure prediction by ZEFSAII (Michael W. Deem and Ramdas Pophale) SiO2 
 PCOD8325207
Probable space group: P 6/M
;
_chemical_formula_sum "Si O2"
_cell_formula_units_Z 84
_cell_length_a 17.697047
_cell_length_b 17.697047
_cell_length_c 17.186417
_cell_angle_alpha 90.000000
_cell_angle_beta 90.000000
_cell_angle_gamma 120.000000
_cell_volume 4661.413025
_symmetry_space_group_name_H-M "P 6/M"
_symmetry_group_IT_number 175
_symmetry_cell_setting 'hexagonal'
loop_
_space_group_symop_operation_xyz
x,y,z
x-y,x,z
-y,x-y,z
-x,-y,z
-x+y,-x,z
y,-x+y,z
-x,-y,-z
-x+y,-x,-z
y,-x+y,-z
x,y,-z
x-y,x,-z
-y,x-y,-z
loop_
_atom_site_type_symbol
_atom_site_label
_atom_site_fract_x
_atom_site_fract_y
_atom_site_fract_z
Si Si1 0.993214 0.410380 0.683758
Si Si2 0.172912 0.179732 0.090295
Si Si3 0.185707 0.505383 0.663806
Si Si4 0.007744 0.663719 0.156258
Si Si5 0.344581 0.509971 0.911768
Si Si6 0.516235 0.172606 0.409541
Si Si7 0.677602 0.178282 0.156658
O O1 0.085632 0.433536 0.646705
O O2 0.967381 0.342453 0.754465
O O3 0.000000 0.500000 0.716358
O O4 0.924679 0.368701 0.614320
O O5 0.168904 0.089332 0.110555
O O6 0.245334 0.255641 0.143800
O O7 0.196990 0.204364 0.000000
O O8 0.205709 0.601382 0.639645
O O9 0.242786 0.478191 0.611153
O O10 0.206659 0.503074 0.754321
O O11 0.912343 0.584879 0.135869
O O12 0.077920 0.659397 0.100818
O O13 0.250481 0.499781 0.897867
O O14 0.414941 0.583650 0.855989
O O15 0.372384 0.539667 0.000000
O O16 0.537102 0.175089 0.500000
#
# Coordination Sequence:
#
# PCOD8325207 Si02
#       7
#    12  12  12  12  12  12  12
#     4   9  20  37  54  73 102 141 173 203 254 311
#     4  10  21  37  57  81 109 139 171 214 269 320
#     4  10  20  35  54  74 100 135 173 210 249 303
#     4  11  21  36  57  79 101 134 181 224 261 307
#     4  12  24  36  52  75 105 139 179 226 274 317
#     4  11  21  33  53  80 106 130 164 210 257 304
#     4  11  23  39  55  72 103 144 183 221 264 316
#
# _framework density 18.020285999999999
#
# number of rings (size 3 to 8) (size 9 to 14) (size 15 to 20)
#    0.000    1.429    0.000    7.571    0.000    8.857 
#    0.000    0.000    0.000    0.000    0.000    0.000 
#    0.000    0.000    0.000    0.000    0.000   10.571 
#
# Total GULP energy -1042014.326554 kJ/mol
# GULP energy per Si atom -12404.932459 kJ/mol
# Density = 1.797927 g / cm^3
# Si number density = 18.020286 Si / 1000 Ang^3
#
#
#
# Elastic Constant Matrix: (Units=GPa)
#
#
# Indices 1 2 3 4 5 6 
#
# 1 101.6276 36.5000 38.3476 0.0000 0.0000 0.0000
# 2 36.5000 101.6276 38.3476 0.0000 0.0000 0.0000
# 3 38.3476 38.3476 68.7586 0.0000 0.0000 0.0000
# 4 0.0000 0.0000 0.0000 21.3292 0.0000 0.0000
# 5 0.0000 0.0000 0.0000 0.0000 21.3292 0.0000
# 6 0.0000 0.0000 0.0000 0.0000 0.0000 32.5638
#
#
#
# Elastic Compliance Matrix: (Units=1/GPa)
#
#
# Indices 1 2 3 4 5 6 
#
# 1 0.012921 -0.002434 -0.005849 0.000000 0.000000 0.000000
# 2 -0.002434 0.012921 -0.005849 0.000000 0.000000 0.000000
# 3 -0.005849 -0.005849 0.021068 0.000000 0.000000 0.000000
# 4 0.000000 0.000000 0.000000 0.046884 0.000000 0.000000
# 5 0.000000 0.000000 0.000000 0.000000 0.046884 0.000000
# 6 0.000000 0.000000 0.000000 0.000000 0.000000 0.030709
#
#
# Mechanical properties :
#
#
# Convention : Reuss Voigt Hill
#
# Bulk Modulus (GPa) = 53.62902 55.37825 54.50364
# Shear Modulus (GPa) = 24.28775 25.63232 24.96004
#
# Velocity S-wave (km/s) = 3.67522 3.77558 3.72574
# Velocity P-wave (km/s) = 6.91626 7.05723 6.98710
#
# Compressibility (1/GPa) = 0.01864662
#
# Stress axis : x y z
#
# Youngs Moduli (GPa) = 77.39413 77.39413 47.46613
#
# Poissons Ratio (x) = 0.18835 0.27762
# Poissons Ratio (y) = 0.18835 0.27762
# Poissons Ratio (z) = 0.45267 0.45267
#
# Static dielectric constant tensor:
#      x y z
#    x 3.389860 0.000000 0.000000 
#    y 0.000000 3.389860 0.000000 
#    z 0.000000 0.000000 3.155000 
# 
# 
# High freq. dielectric constant tensor:
#      x y z
#    x 1.700870 0.000000 0.000000 
#    y 0.000000 1.700870 0.000000 
#    z 0.000000 0.000000 1.687000 
# 
# From -- ./inp_files/2635.got.cif
#   From: 2010.03.12/outbox.cif.g09.slc.cpg/sg175_2_cif.got.tgz:2635.got - 2010.04.02 06:55:29.
