data_PCOD8325373
_publ_section_title
;
Structure prediction by ZEFSAII (Michael W. Deem and Ramdas Pophale) SiO2 
 PCOD8325373
Probable space group: P 6/M
;
_chemical_formula_sum "Si O2"
_cell_formula_units_Z 54
_cell_length_a 18.016150
_cell_length_b 18.016150
_cell_length_c 10.151806
_cell_angle_alpha 90.000000
_cell_angle_beta 90.000000
_cell_angle_gamma 120.000000
_cell_volume 2853.631693
_symmetry_space_group_name_H-M "P 6/M"
_symmetry_group_IT_number 175
_symmetry_cell_setting 'hexagonal'
loop_
_space_group_symop_operation_xyz
x,y,z
x-y,x,z
-y,x-y,z
-x,-y,z
-x+y,-x,z
y,-x+y,z
-x,-y,-z
-x+y,-x,-z
y,-x+y,-z
x,y,-z
x-y,x,-z
-y,x-y,-z
loop_
_atom_site_type_symbol
_atom_site_label
_atom_site_fract_x
_atom_site_fract_y
_atom_site_fract_z
Si Si1 0.911290 0.686089 0.253135
Si Si2 0.135634 0.935126 0.000000
Si Si3 0.736948 0.649368 0.646282
Si Si4 0.500153 0.839869 0.846318
Si Si5 0.832724 0.503288 0.848207
O O1 0.912762 0.738067 0.124690
O O2 0.835382 0.674645 0.346907
O O3 0.896923 0.592212 0.220849
O O4 0.999086 0.736160 0.332193
O O5 0.033244 0.874846 0.000000
O O6 0.702487 0.612617 0.500000
O O7 0.679279 0.581580 0.758124
O O8 0.420064 0.847928 0.794500
O O9 0.476366 0.742177 0.824790
O O10 0.522463 0.866255 0.000000
O O11 0.855927 0.515629 0.000000
#
# Coordination Sequence:
#
# PCOD8325373 Si02
#       5
#    12   6  12  12  12
#     4  11  22  37  63  85 118 153 191 243 301 358
#     4  12  23  40  66  97 123 151 189 249 307 367
#     4  11  24  41  58  82 115 158 201 240 295 359
#     4   9  19  34  58  86 118 154 198 249 294 348
#     4   9  17  32  56  88 117 150 195 243 297 339
#
# _framework density 18.923255000000001
#
# number of rings (size 3 to 8) (size 9 to 14) (size 15 to 20)
#    0.000    1.778    3.333    1.222    3.111    2.667 
#    0.000    8.889    0.000    0.000    0.000    3.111 
#    0.000    0.000    0.000    0.000    0.000    0.000 
#
# Total GULP energy -669599.865913 kJ/mol
# GULP energy per Si atom -12399.997517 kJ/mol
# Density = 1.888018 g / cm^3
# Si number density = 18.923255 Si / 1000 Ang^3
#
#
#
# Elastic Constant Matrix: (Units=GPa)
#
#
# Indices 1 2 3 4 5 6 
#
# 1 87.0820 40.9413 27.3300 0.0000 0.0000 0.0000
# 2 40.9413 87.0820 27.3300 0.0000 0.0000 0.0000
# 3 27.3300 27.3300 87.0681 0.0000 0.0000 0.0000
# 4 0.0000 0.0000 0.0000 10.6145 0.0000 0.0000
# 5 0.0000 0.0000 0.0000 0.0000 10.6145 0.0000
# 6 0.0000 0.0000 0.0000 0.0000 0.0000 23.0703
#
#
#
# Elastic Compliance Matrix: (Units=1/GPa)
#
#
# Indices 1 2 3 4 5 6 
#
# 1 0.015346 -0.006326 -0.002831 0.000000 0.000000 0.000000
# 2 -0.006326 0.015346 -0.002831 0.000000 0.000000 0.000000
# 3 -0.002831 -0.002831 0.013263 0.000000 0.000000 0.000000
# 4 0.000000 0.000000 0.000000 0.094211 0.000000 0.000000
# 5 0.000000 0.000000 0.000000 0.000000 0.094211 0.000000
# 6 0.000000 0.000000 0.000000 0.000000 0.000000 0.043346
#
#
# Mechanical properties :
#
#
# Convention : Reuss Voigt Hill
#
# Bulk Modulus (GPa) = 50.05660 50.27054 50.16357
# Shear Modulus (GPa) = 16.32069 19.90192 18.11131
#
# Velocity S-wave (km/s) = 2.93997 3.24654 3.09705
# Velocity P-wave (km/s) = 6.16720 6.37781 6.27339
#
# Compressibility (1/GPa) = 0.01997738
#
# Stress axis : x y z
#
# Youngs Moduli (GPa) = 65.16196 65.16196 75.39945
#
# Poissons Ratio (x) = 0.41225 0.21348
# Poissons Ratio (y) = 0.41225 0.21348
# Poissons Ratio (z) = 0.18449 0.18449
#
# Static dielectric constant tensor:
#      x y z
#    x 3.557220 0.000000 0.000000 
#    y 0.000000 3.557220 0.000000 
#    z 0.000000 0.000000 3.274760 
# 
# 
# High freq. dielectric constant tensor:
#      x y z
#    x 1.740460 0.000000 0.000000 
#    y 0.000000 1.740460 0.000000 
#    z 0.000000 0.000000 1.716960 
# 
# From -- ./inp_files/1761.got.cif
#   From: 2010.03.12/outbox.cif.g09.slc.cpg/sg175_1_cif.got.tgz:1761.got - 2010.04.02 06:55:29.
