data_PCOD8325777
_publ_section_title
;
Structure prediction by ZEFSAII (Michael W. Deem and Ramdas Pophale) SiO2 
 PCOD8325777
Probable space group: P 61 2 2
;
_chemical_formula_sum "Si O2"
_cell_formula_units_Z 60
_cell_length_a 17.547135
_cell_length_b 17.547135
_cell_length_c 14.941700
_cell_angle_alpha 90.000000
_cell_angle_beta 90.000000
_cell_angle_gamma 120.000000
_cell_volume 3984.217868
_symmetry_space_group_name_H-M "P 61 2 2"
_symmetry_group_IT_number 178
_symmetry_cell_setting 'hexagonal'
loop_
_space_group_symop_operation_xyz
x,y,z
x-y,x,1/6+z
-y,x-y,1/3+z
-x,-y,1/2+z
-x+y,-x,2/3+z
y,-x+y,5/6+z
x-y,-y,-z
-x,-x+y,2/3-z
y,x,1/3-z
-y,-x,5/6-z
-x+y,y,1/2-z
x,x-y,1/6-z
loop_
_atom_site_type_symbol
_atom_site_label
_atom_site_fract_x
_atom_site_fract_y
_atom_site_fract_z
Si Si1 0.507845 0.309299 0.814306
Si Si2 0.415092 0.998912 0.900359
Si Si3 0.996258 0.593523 0.433136
Si Si4 0.344515 0.473446 0.917444
Si Si5 0.514125 0.192859 0.150369
O O1 0.430212 0.332538 0.807828
O O2 0.485772 0.226158 0.751873
O O3 0.599274 0.392607 0.781756
O O4 0.520019 0.289665 0.917013
O O5 0.509842 0.008375 0.906884
O O6 0.349936 0.909230 0.849509
O O7 0.421304 0.078136 0.840692
O O8 0.379558 0.000000 0.000000
O O9 0.000000 0.631514 0.333334
O O10 0.075813 0.661513 0.497668
O O11 0.431708 0.568292 0.916667
O O12 0.481927 0.240964 0.083334
#
# Coordination Sequence:
#
# PCOD8325777 Si02
#       5
#    12  12  12  12  12
#     4  10  19  30  44  64  88 117 155 195 228 270
#     4   9  16  28  44  60  82 115 147 180 223 278
#     4   9  18  31  44  59  84 117 154 189 228 271
#     4  10  18  30  45  63  86 119 156 189 229 278
#     4  10  18  29  43  64  90 115 148 194 233 260
#
# _framework density 15.059417
#
# number of rings (size 3 to 8) (size 9 to 14) (size 15 to 20)
#    0.000    2.400    2.000    1.800    0.000    2.400 
#    0.000    0.000    0.000    0.000    0.000    0.000 
#    0.000    0.000    0.000    0.000   15.200    0.000 
#
# Total GULP energy -743741.957454 kJ/mol
# GULP energy per Si atom -12395.699291 kJ/mol
# Density = 1.502514 g / cm^3
# Si number density = 15.059417 Si / 1000 Ang^3
#
#
#
# Elastic Constant Matrix: (Units=GPa)
#
#
# Indices 1 2 3 4 5 6 
#
# 1 51.7605 26.1366 22.2839 0.0000 0.0000 0.0000
# 2 26.1366 51.7605 22.2839 0.0000 0.0000 0.0000
# 3 22.2839 22.2839 89.4520 0.0000 0.0000 0.0000
# 4 0.0000 0.0000 0.0000 20.9464 0.0000 0.0000
# 5 0.0000 0.0000 0.0000 0.0000 20.9464 0.0000
# 6 0.0000 0.0000 0.0000 0.0000 0.0000 12.8120
#
#
#
# Elastic Compliance Matrix: (Units=1/GPa)
#
#
# Indices 1 2 3 4 5 6 
#
# 1 0.026999 -0.012027 -0.003730 0.000000 0.000000 0.000000
# 2 -0.012027 0.026999 -0.003730 0.000000 0.000000 0.000000
# 3 -0.003730 -0.003730 0.013037 0.000000 0.000000 0.000000
# 4 0.000000 0.000000 0.000000 0.047741 0.000000 0.000000
# 5 0.000000 0.000000 0.000000 0.000000 0.047741 0.000000
# 6 0.000000 0.000000 0.000000 0.000000 0.000000 0.078052
#
#
# Mechanical properties :
#
#
# Convention : Reuss Voigt Hill
#
# Bulk Modulus (GPa) = 35.63589 37.15354 36.39471
# Shear Modulus (GPa) = 17.30731 19.09222 18.19976
#
# Velocity S-wave (km/s) = 3.39376 3.56447 3.48016
# Velocity P-wave (km/s) = 6.25074 6.45488 6.35363
#
# Compressibility (1/GPa) = 0.02806160
#
# Stress axis : x y z
#
# Youngs Moduli (GPa) = 37.03890 37.03890 76.70254
#
# Poissons Ratio (x) = 0.44548 0.28607
# Poissons Ratio (y) = 0.44548 0.28607
# Poissons Ratio (z) = 0.13814 0.13814
#
# Static dielectric constant tensor:
#      x y z
#    x 2.644240 0.000000 0.000000 
#    y 0.000000 2.644240 0.000000 
#    z 0.000000 0.000000 3.200940 
# 
# 
# High freq. dielectric constant tensor:
#      x y z
#    x 1.538470 0.000000 0.000000 
#    y 0.000000 1.538470 0.000000 
#    z 0.000000 0.000000 1.596380 
# 
# From -- ./inp_files/5806.got.cif
#   From: 2010.03.12/outbox.cif.g09.slc.cpg/sg178_3_cif.got.tgz:5806.got - 2010.04.02 07:02:38.
