data_PCOD8325728
_publ_section_title
;
Structure prediction by ZEFSAII (Michael W. Deem and Ramdas Pophale) SiO2 
 PCOD8325728
Probable space group: P 63/M
;
_chemical_formula_sum "Si O2"
_cell_formula_units_Z 64
_cell_length_a 21.448472
_cell_length_b 21.448472
_cell_length_c 9.455869
_cell_angle_alpha 90.000000
_cell_angle_beta 90.000000
_cell_angle_gamma 120.000000
_cell_volume 3767.253067
_symmetry_space_group_name_H-M "P 63/M"
_symmetry_group_IT_number 176
_symmetry_cell_setting 'hexagonal'
loop_
_space_group_symop_operation_xyz
x,y,z
x-y,x,1/2+z
-y,x-y,z
-x,-y,1/2+z
-x+y,-x,z
y,-x+y,1/2+z
-x,-y,-z
-x+y,-x,1/2-z
y,-x+y,-z
x,y,1/2-z
x-y,x,-z
-y,x-y,1/2-z
loop_
_atom_site_type_symbol
_atom_site_label
_atom_site_fract_x
_atom_site_fract_y
_atom_site_fract_z
Si Si1 0.426490 0.070338 0.585058
Si Si2 0.213345 0.284172 0.085195
Si Si3 0.586600 0.413409 0.917231
Si Si4 0.333333 0.666666 0.419668
Si Si5 0.715824 0.786663 0.414805
Si Si6 0.356143 0.929649 0.414940
O O1 0.427873 0.053896 0.750000
O O2 0.366446 0.092580 0.551929
O O3 0.503758 0.133345 0.532159
O O4 0.410777 0.999991 0.500006
O O5 0.213061 0.267026 0.250000
O O6 0.136884 0.273758 0.036619
O O7 0.228267 0.228262 1.000000
O O8 0.589306 0.410722 0.750000
O O9 0.626421 0.373599 0.982160
O O10 0.503764 0.370402 0.967818
O O11 0.333334 0.666668 0.250000
O O12 0.732971 0.786946 0.250000
O O13 0.633550 0.726144 0.448070
O O14 0.373970 0.946100 0.250000
#
# Coordination Sequence:
#
# PCOD8325728 Si02
#       6
#    12  12  12   4  12  12
#     4   9  17  29  46  69  93 119 152 191 234 275
#     4   9  18  31  48  70  96 123 151 186 227 269
#     4   9  17  27  42  64  92 122 156 196 234 273
#     4   9  18  27  39  66  94 122 160 198 235 269
#     4   9  18  31  48  70  96 123 151 186 227 269
#     4   9  17  29  46  69  93 119 152 191 234 275
#
# _framework density 16.988505
#
# number of rings (size 3 to 8) (size 9 to 14) (size 15 to 20)
#    0.000    3.000    0.000    0.562    2.625    0.750 
#    0.000    0.000    0.000    0.375    0.000    3.938 
#    0.000    0.000    0.000    0.000    0.000    0.000 
#
# Total GULP energy -793517.406703 kJ/mol
# GULP energy per Si atom -12398.709480 kJ/mol
# Density = 1.694984 g / cm^3
# Si number density = 16.988505 Si / 1000 Ang^3
#
#
#
# Elastic Constant Matrix: (Units=GPa)
#
#
# Indices 1 2 3 4 5 6 
#
# 1 152.6524 93.7803 40.7193 0.0000 0.0000 -0.0001
# 2 93.7803 152.6521 40.7193 0.0000 0.0000 0.0000
# 3 40.7193 40.7193 31.7934 0.0000 0.0000 0.0000
# 4 0.0000 0.0000 0.0000 21.0084 0.0000 0.0000
# 5 0.0000 0.0000 0.0000 0.0000 21.0084 0.0000
# 6 -0.0001 0.0000 0.0000 0.0000 0.0000 29.4360
#
#
#
# Elastic Compliance Matrix: (Units=1/GPa)
#
#
# Indices 1 2 3 4 5 6 
#
# 1 0.012011 -0.004975 -0.009011 0.000000 0.000000 0.000000
# 2 -0.004975 0.012011 -0.009011 0.000000 0.000000 0.000000
# 3 -0.009011 -0.009011 0.054535 0.000000 0.000000 0.000000
# 4 0.000000 0.000000 0.000000 0.047600 0.000000 0.000000
# 5 0.000000 0.000000 0.000000 0.000000 0.047600 0.000000
# 6 0.000000 0.000000 0.000000 0.000000 0.000000 0.033972
#
#
# Mechanical properties :
#
#
# Convention : Reuss Voigt Hill
#
# Bulk Modulus (GPa) = 30.71050 76.39286 53.55168
# Shear Modulus (GPa) = 18.89808 25.08251 21.99030
#
# Velocity S-wave (km/s) = 3.33889 3.84662 3.60171
# Velocity P-wave (km/s) = 5.74288 8.04945 6.99194
#
# Compressibility (1/GPa) = 0.03256216
#
# Stress axis : x y z
#
# Youngs Moduli (GPa) = 83.25783 83.25759 18.33689
#
# Poissons Ratio (x) = 0.41421 0.16523
# Poissons Ratio (y) = 0.41422 0.16524
# Poissons Ratio (z) = 0.75024 0.75024
#
# Static dielectric constant tensor:
#      x y z
#    x 3.283710 0.000000 0.000000 
#    y 0.000000 3.283710 0.000000 
#    z 0.000000 0.000000 2.909140 
# 
# 
# High freq. dielectric constant tensor:
#      x y z
#    x 1.655410 0.000000 0.000000 
#    y 0.000000 1.655410 0.000000 
#    z 0.000000 0.000000 1.623550 
# 
# From -- ./inp_files/1971.got.cif
#   From: 2010.06.25/outbox.cif.g09.slc.cpg/sg176_1_cif.got.tgz:1971.got - 2010.06.28 12:15:01.
