data_PCOD8325213
_publ_section_title
;
Structure prediction by ZEFSAII (Michael W. Deem and Ramdas Pophale) SiO2 
 PCOD8325213
Probable space group: P 6/M
;
_chemical_formula_sum "Si O2"
_cell_formula_units_Z 64
_cell_length_a 14.200994
_cell_length_b 14.200994
_cell_length_c 18.081466
_cell_angle_alpha 90.000000
_cell_angle_beta 90.000000
_cell_angle_gamma 120.000000
_cell_volume 3157.924616
_symmetry_space_group_name_H-M "P 6/M"
_symmetry_group_IT_number 175
_symmetry_cell_setting 'hexagonal'
loop_
_space_group_symop_operation_xyz
x,y,z
x-y,x,z
-y,x-y,z
-x,-y,z
-x+y,-x,z
y,-x+y,z
-x,-y,-z
-x+y,-x,-z
y,-x+y,-z
x,y,-z
x-y,x,-z
-y,x-y,-z
loop_
_atom_site_type_symbol
_atom_site_label
_atom_site_fract_x
_atom_site_fract_y
_atom_site_fract_z
Si Si1 0.333334 0.666668 0.085306
Si Si2 0.802340 0.027279 0.587056
Si Si3 0.623830 0.091075 0.419189
Si Si4 0.448995 0.575102 0.270949
Si Si5 0.854322 0.746397 0.084123
Si Si6 0.757914 0.534702 0.178331
O O1 0.243833 0.696105 0.111899
O O2 0.333334 0.666668 0.000000
O O3 0.815148 0.024644 0.500000
O O4 0.698092 0.039512 0.606277
O O5 0.913103 0.128813 0.620653
O O6 0.665317 0.150657 0.500000
O O7 0.629988 0.171044 0.352325
O O8 0.500000 0.000000 0.430255
O O9 0.500000 0.500000 0.280599
O O10 0.324284 0.499791 0.247502
O O11 0.519752 0.663775 0.208554
O O12 0.810994 0.828779 0.097635
O O13 0.798724 0.653338 0.145946
O O14 0.828049 0.699467 0.000000
#
# Coordination Sequence:
#
# PCOD8325213 Si02
#       6
#     4  12  12  12  12  12
#     4   9  18  33  54  81 112 140 172 222 273 324
#     4   9  17  31  54  84 116 148 184 233 296 364
#     4   9  19  35  54  77 107 146 194 245 297 354
#     4  10  21  37  56  78 107 143 184 236 291 346
#     4  10  20  35  57  86 120 157 195 234 278 336
#     4  10  20  35  56  82 111 145 187 227 281 346
#
# _framework density 20.266473999999999
#
# number of rings (size 3 to 8) (size 9 to 14) (size 15 to 20)
#    0.000    2.438    0.000    2.438    0.000    4.500 
#    0.000    2.812    0.000    9.750    0.000    7.875 
#    0.000    0.000    0.000    0.000    0.000    0.562 
#
# Total GULP energy -792957.474977 kJ/mol
# GULP energy per Si atom -12389.960547 kJ/mol
# Density = 2.022035 g / cm^3
# Si number density = 20.266474 Si / 1000 Ang^3
#
#
#
# Elastic Constant Matrix: (Units=GPa)
#
#
# Indices 1 2 3 4 5 6 
#
# 1 106.7573 60.7371 51.3392 0.0000 0.0000 0.0001
# 2 60.7371 106.7585 51.3388 0.0000 0.0000 -0.0004
# 3 51.3392 51.3388 126.3139 0.0000 0.0000 -0.0005
# 4 0.0000 0.0000 0.0000 12.2957 0.0005 0.0000
# 5 0.0000 0.0000 0.0000 0.0005 12.2954 0.0000
# 6 0.0001 -0.0004 -0.0005 0.0000 0.0000 23.0054
#
#
#
# Elastic Compliance Matrix: (Units=1/GPa)
#
#
# Indices 1 2 3 4 5 6 
#
# 1 0.014841 -0.006889 -0.003232 0.000000 0.000000 0.000000
# 2 -0.006889 0.014840 -0.003232 0.000000 0.000000 0.000000
# 3 -0.003232 -0.003232 0.010544 0.000000 0.000000 0.000000
# 4 0.000000 0.000000 0.000000 0.081329 -0.000003 0.000000
# 5 0.000000 0.000000 0.000000 -0.000003 0.081331 0.000000
# 6 0.000000 0.000000 0.000000 0.000000 0.000000 0.043468
#
#
# Mechanical properties :
#
#
# Convention : Reuss Voigt Hill
#
# Bulk Modulus (GPa) = 73.96655 74.07331 74.01993
# Shear Modulus (GPa) = 18.01381 21.28027 19.64704
#
# Velocity S-wave (km/s) = 2.98459 3.24392 3.11695
# Velocity P-wave (km/s) = 6.96084 7.11756 7.03964
#
# Compressibility (1/GPa) = 0.01351963
#
# Stress axis : x y z
#
# Youngs Moduli (GPa) = 67.38307 67.38425 94.84200
#
# Poissons Ratio (x) = 0.46420 0.30652
# Poissons Ratio (y) = 0.46420 0.30650
# Poissons Ratio (z) = 0.21777 0.21777
#
# Static dielectric constant tensor:
#      x y z
#    x 3.064690 0.000190 0.000000 
#    y 0.000190 3.065010 0.000000 
#    z 0.000000 0.000000 3.947050 
# 
# 
# High freq. dielectric constant tensor:
#      x y z
#    x 1.785740 0.000000 0.000000 
#    y 0.000000 1.785740 0.000000 
#    z 0.000000 0.000000 1.786830 
# 
# From -- ./inp_files/2846.got.cif
#   From: 2010.03.12/outbox.cif.g09.slc.cpg/sg175_2_cif.got.tgz:2846.got - 2010.04.02 06:55:29.
