data_PCOD8325172
_publ_section_title
;
Structure prediction by ZEFSAII (Michael W. Deem and Ramdas Pophale) SiO2 
 PCOD8325172
Probable space group: P 6/M
;
_chemical_formula_sum "Si O2"
_cell_formula_units_Z 60
_cell_length_a 23.185009
_cell_length_b 23.185009
_cell_length_c 7.753086
_cell_angle_alpha 90.000000
_cell_angle_beta 90.000000
_cell_angle_gamma 120.000000
_cell_volume 3609.273316
_symmetry_space_group_name_H-M "P 6/M"
_symmetry_group_IT_number 175
_symmetry_cell_setting 'hexagonal'
loop_
_space_group_symop_operation_xyz
x,y,z
x-y,x,z
-y,x-y,z
-x,-y,z
-x+y,-x,z
y,-x+y,z
-x,-y,-z
-x+y,-x,-z
y,-x+y,-z
x,y,-z
x-y,x,-z
-y,x-y,-z
loop_
_atom_site_type_symbol
_atom_site_label
_atom_site_fract_x
_atom_site_fract_y
_atom_site_fract_z
Si Si1 0.381324 0.125561 0.807472
Si Si2 0.791542 0.717177 0.500000
Si Si3 0.074364 0.282823 0.500000
Si Si4 0.874439 0.618676 0.807472
Si Si5 0.601880 0.076200 0.703100
Si Si6 0.601880 0.525680 0.703100
O O1 0.325562 0.079876 0.669192
O O2 0.404580 0.202290 0.770810
O O3 0.447635 0.120216 0.793850
O O4 0.350961 0.104051 0.000000
O O5 0.781806 0.781806 0.500000
O O6 0.870137 0.740274 0.500000
O O7 0.079876 0.325562 0.669192
O O8 0.879783 0.552365 0.793850
O O9 0.895949 0.649039 0.000000
O O10 0.611816 0.083547 0.500000
O O11 0.550150 0.100301 0.762098
O O12 0.572921 0.000000 0.759329
O O13 0.611816 0.528270 0.500000
#
# Coordination Sequence:
#
# PCOD8325172 Si02
#       6
#    12   6   6  12  12  12
#     4  10  20  32  48  71  97 127 162 198 238 282
#     4  10  20  34  51  72  99 127 155 191 235 283
#     4  10  20  34  51  72  99 127 155 191 235 283
#     4  10  20  32  48  71  97 127 162 198 238 282
#     4   9  17  29  46  69  95 122 154 193 235 278
#     4   9  17  29  46  69  95 122 154 193 235 278
#
# _framework density 16.623843999999998
#
# number of rings (size 3 to 8) (size 9 to 14) (size 15 to 20)
#    0.000    2.400    2.000    2.400    0.000    4.000 
#    0.000    2.000    0.000    1.000    0.000    0.000 
#    0.000    0.000    0.000   10.000    0.000    0.000 
#
# Total GULP energy -743770.128740 kJ/mol
# GULP energy per Si atom -12396.168812 kJ/mol
# Density = 1.658601 g / cm^3
# Si number density = 16.623844 Si / 1000 Ang^3
#
#
#
# Elastic Constant Matrix: (Units=GPa)
#
#
# Indices 1 2 3 4 5 6 
#
# 1 102.8949 51.0327 35.9900 0.0000 0.0000 0.0000
# 2 51.0327 102.8949 35.9900 0.0000 0.0000 0.0000
# 3 35.9900 35.9900 87.8679 0.0000 0.0000 0.0000
# 4 0.0000 0.0000 0.0000 8.2082 0.0000 0.0000
# 5 0.0000 0.0000 0.0000 0.0000 8.2082 0.0000
# 6 0.0000 0.0000 0.0000 0.0000 0.0000 25.9311
#
#
#
# Elastic Compliance Matrix: (Units=1/GPa)
#
#
# Indices 1 2 3 4 5 6 
#
# 1 0.013659 -0.005623 -0.003291 0.000000 0.000000 0.000000
# 2 -0.005623 0.013659 -0.003291 0.000000 0.000000 0.000000
# 3 -0.003291 -0.003291 0.014077 0.000000 0.000000 0.000000
# 4 0.000000 0.000000 0.000000 0.121829 0.000000 0.000000
# 5 0.000000 0.000000 0.000000 0.000000 0.121829 0.000000
# 6 0.000000 0.000000 0.000000 0.000000 0.000000 0.038564
#
#
# Mechanical properties :
#
#
# Convention : Reuss Voigt Hill
#
# Bulk Modulus (GPa) = 58.88278 59.96477 59.42377
# Shear Modulus (GPa) = 14.13672 19.84584 16.99128
#
# Velocity S-wave (km/s) = 2.91931 3.45892 3.20050
# Velocity P-wave (km/s) = 6.84549 7.21817 7.03430
#
# Compressibility (1/GPa) = 0.01698290
#
# Stress axis : x y z
#
# Youngs Moduli (GPa) = 73.21303 73.21303 71.03815
#
# Poissons Ratio (x) = 0.41168 0.23381
# Poissons Ratio (y) = 0.41168 0.23381
# Poissons Ratio (z) = 0.24097 0.24097
#
# Static dielectric constant tensor:
#      x y z
#    x 3.091440 0.000000 0.000000 
#    y 0.000000 3.091440 0.000000 
#    z 0.000000 0.000000 3.269440 
# 
# 
# High freq. dielectric constant tensor:
#      x y z
#    x 1.619110 0.000000 0.000000 
#    y 0.000000 1.619110 0.000000 
#    z 0.000000 0.000000 1.654530 
# 
# From -- ./inp_files/1129.got.cif
#   From: 2010.03.12/outbox.cif.g09.slc.cpg/sg175_1_cif.got.tgz:1129.got - 2010.04.02 06:55:29.
