data_PCOD8325468
_publ_section_title
;
Structure prediction by ZEFSAII (Michael W. Deem and Ramdas Pophale) SiO2 
 PCOD8325468
Probable space group: P 63/M
;
_chemical_formula_sum "Si O2"
_cell_formula_units_Z 48
_cell_length_a 18.711419
_cell_length_b 18.711419
_cell_length_c 9.251909
_cell_angle_alpha 90.000000
_cell_angle_beta 90.000000
_cell_angle_gamma 120.000000
_cell_volume 2805.274939
_symmetry_space_group_name_H-M "P 63/M"
_symmetry_group_IT_number 176
_symmetry_cell_setting 'hexagonal'
loop_
_space_group_symop_operation_xyz
x,y,z
x-y,x,1/2+z
-y,x-y,z
-x,-y,1/2+z
-x+y,-x,z
y,-x+y,1/2+z
-x,-y,-z
-x+y,-x,1/2-z
y,-x+y,-z
x,y,1/2-z
x-y,x,-z
-y,x-y,1/2-z
loop_
_atom_site_type_symbol
_atom_site_label
_atom_site_fract_x
_atom_site_fract_y
_atom_site_fract_z
Si Si1 0.388446 0.899052 0.090801
Si Si2 0.328940 0.077660 0.581759
Si Si3 0.761384 0.086620 0.582632
Si Si4 0.477749 0.094028 0.089485
O O1 0.383180 0.861212 0.250000
O O2 0.297298 0.876176 0.035401
O O3 0.442653 0.997286 0.099137
O O4 0.431307 0.863634 0.983516
O O5 0.339102 0.063688 0.750000
O O6 0.299102 0.143928 0.559231
O O7 0.417292 0.112419 0.505912
O O8 0.258333 0.992710 0.512757
O O9 0.742200 0.058367 0.750000
O O10 0.486432 0.131475 0.250000
#
# Coordination Sequence:
#
# PCOD8325468 Si02
#       4
#    12  12  12  12
#     4   8  14  26  43  63  89 117 145 180 222 271
#     4  10  19  31  49  71  95 126 162 200 246 294
#     4   9  19  33  48  70  97 124 160 204 246 291
#     4   9  16  26  42  66  93 117 145 182 222 270
#
# _framework density 17.110624000000001
#
# number of rings (size 3 to 8) (size 9 to 14) (size 15 to 20)
#    0.000    3.000    0.000    3.000    0.000    8.000 
#    0.000    0.000    0.000    1.500    0.000    3.500 
#    0.000    0.000    0.000    0.000    0.000    0.000 
#
# Total GULP energy -594971.863889 kJ/mol
# GULP energy per Si atom -12395.247164 kJ/mol
# Density = 1.707168 g / cm^3
# Si number density = 17.110624 Si / 1000 Ang^3
#
#
#
# Elastic Constant Matrix: (Units=GPa)
#
#
# Indices 1 2 3 4 5 6 
#
# 1 71.0465 38.8755 54.6191 0.0000 0.0000 0.0000
# 2 38.8755 71.0465 54.6191 0.0000 0.0000 0.0000
# 3 54.6191 54.6191 126.7319 0.0000 0.0000 0.0000
# 4 0.0000 0.0000 0.0000 24.1657 0.0000 0.0000
# 5 0.0000 0.0000 0.0000 0.0000 24.1657 0.0000
# 6 0.0000 0.0000 0.0000 0.0000 0.0000 16.0855
#
#
#
# Elastic Compliance Matrix: (Units=1/GPa)
#
#
# Indices 1 2 3 4 5 6 
#
# 1 0.023498 -0.007586 -0.006858 0.000000 0.000000 0.000000
# 2 -0.007586 0.023498 -0.006858 0.000000 0.000000 0.000000
# 3 -0.006858 -0.006858 0.013802 0.000000 0.000000 0.000000
# 4 0.000000 0.000000 0.000000 0.041381 0.000000 0.000000
# 5 0.000000 0.000000 0.000000 0.000000 0.041381 0.000000
# 6 0.000000 0.000000 0.000000 0.000000 0.000000 0.062168
#
#
# Mechanical properties :
#
#
# Convention : Reuss Voigt Hill
#
# Bulk Modulus (GPa) = 54.95936 62.78357 58.87147
# Shear Modulus (GPa) = 19.65430 20.93080 20.29255
#
# Velocity S-wave (km/s) = 3.39287 3.50131 3.44752
# Velocity P-wave (km/s) = 6.89482 7.28821 7.09424
#
# Compressibility (1/GPa) = 0.01819526
#
# Stress axis : x y z
#
# Youngs Moduli (GPa) = 42.55616 42.55616 72.45265
#
# Poissons Ratio (x) = 0.32281 0.49689
# Poissons Ratio (y) = 0.32281 0.49689
# Poissons Ratio (z) = 0.29186 0.29186
#
# Static dielectric constant tensor:
#      x y z
#    x 2.957970 0.000000 0.000000 
#    y 0.000000 2.957970 0.000000 
#    z 0.000000 0.000000 3.474820 
# 
# 
# High freq. dielectric constant tensor:
#      x y z
#    x 1.628250 0.000000 0.000000 
#    y 0.000000 1.628250 0.000000 
#    z 0.000000 0.000000 1.673370 
# 
# From -- ./inp_files/577.got.cif
#   From: 2010.06.25/outbox.cif.g09.slc.cpg/sg176_1_cif.got.tgz:577.got - 2010.06.28 12:15:01.
