data_PCOD8325894
_publ_section_title
;
Structure prediction by ZEFSAII (Michael W. Deem and Ramdas Pophale) SiO2 
 PCOD8325894
Probable space group: P 61 2 2
;
_chemical_formula_sum "Si O2"
_cell_formula_units_Z 54
_cell_length_a 11.890521
_cell_length_b 11.890521
_cell_length_c 20.745553
_cell_angle_alpha 90.000000
_cell_angle_beta 90.000000
_cell_angle_gamma 120.000000
_cell_volume 2540.138613
_symmetry_space_group_name_H-M "P 61 2 2"
_symmetry_group_IT_number 178
_symmetry_cell_setting 'hexagonal'
loop_
_space_group_symop_operation_xyz
x,y,z
x-y,x,1/6+z
-y,x-y,1/3+z
-x,-y,1/2+z
-x+y,-x,2/3+z
y,-x+y,5/6+z
x-y,-y,-z
-x,-x+y,2/3-z
y,x,1/3-z
-y,-x,5/6-z
-x+y,y,1/2-z
x,x-y,1/6-z
loop_
_atom_site_type_symbol
_atom_site_label
_atom_site_fract_x
_atom_site_fract_y
_atom_site_fract_z
Si Si1 0.468714 0.169838 0.269724
Si Si2 0.435010 0.151917 0.017831
Si Si3 0.777799 0.000000 0.000000
Si Si4 0.272128 0.312057 0.805608
Si Si5 0.590806 0.327320 0.485972
O O1 0.549411 0.098821 0.250000
O O2 0.397260 0.180381 0.206671
O O3 0.566753 0.311740 0.297246
O O4 0.367693 0.087945 0.323696
O O5 0.390697 0.195349 0.083334
O O6 0.589861 0.206003 0.020341
O O7 0.361328 0.000000 0.000000
O O8 0.699460 0.999589 0.063978
O O9 0.794509 0.873382 0.005149
O O10 0.282196 0.449288 0.819881
O O11 0.606620 0.393381 0.416667
#
# Coordination Sequence:
#
# PCOD8325894 Si02
#       5
#    12  12   6  12  12
#     4  10  23  41  62  96 134 176 216 274 340 408
#     4  10  24  43  67  99 136 177 230 282 353 418
#     4  10  26  38  64  98 122 176 218 286 338 400
#     4  11  23  43  65  96 134 170 229 280 346 409
#     4  10  22  39  65 104 135 173 218 282 350 417
#
# _framework density 21.258683999999999
#
# number of rings (size 3 to 8) (size 9 to 14) (size 15 to 20)
#    0.000    1.778    0.000    2.000   10.889    8.889 
#    0.000    0.000   17.111    0.000    0.000    0.000 
#    0.000    0.000    0.000    0.000    0.000    0.000 
#
# Total GULP energy -669319.718612 kJ/mol
# GULP energy per Si atom -12394.809604 kJ/mol
# Density = 2.121030 g / cm^3
# Si number density = 21.258684 Si / 1000 Ang^3
#
#
#
# Elastic Constant Matrix: (Units=GPa)
#
#
# Indices 1 2 3 4 5 6 
#
# 1 85.9979 63.9705 57.1222 0.0000 0.0000 0.0000
# 2 63.9705 85.9979 57.1222 0.0000 0.0000 0.0000
# 3 57.1222 57.1222 195.4992 0.0000 0.0000 0.0000
# 4 0.0000 0.0000 0.0000 30.8189 0.0000 0.0000
# 5 0.0000 0.0000 0.0000 0.0000 30.8189 0.0000
# 6 0.0000 0.0000 0.0000 0.0000 0.0000 11.0137
#
#
#
# Elastic Compliance Matrix: (Units=1/GPa)
#
#
# Indices 1 2 3 4 5 6 
#
# 1 0.026988 -0.018410 -0.002506 0.000000 0.000000 0.000000
# 2 -0.018410 0.026988 -0.002506 0.000000 0.000000 0.000000
# 3 -0.002506 -0.002506 0.006580 0.000000 0.000000 0.000000
# 4 0.000000 0.000000 0.000000 0.032448 0.000000 0.000000
# 5 0.000000 0.000000 0.000000 0.000000 0.032448 0.000000
# 6 0.000000 0.000000 0.000000 0.000000 0.000000 0.090796
#
#
# Mechanical properties :
#
#
# Convention : Reuss Voigt Hill
#
# Bulk Modulus (GPa) = 72.94210 80.43606 76.68908
# Shear Modulus (GPa) = 18.68035 27.14898 22.91466
#
# Velocity S-wave (km/s) = 2.96753 3.57750 3.28670
# Velocity P-wave (km/s) = 6.79175 7.41509 7.11025
#
# Compressibility (1/GPa) = 0.01370950
#
# Stress axis : x y z
#
# Youngs Moduli (GPa) = 37.05410 37.05410 151.98414
#
# Poissons Ratio (x) = 0.68218 0.38089
# Poissons Ratio (y) = 0.68218 0.38089
# Poissons Ratio (z) = 0.09286 0.09286
#
# Static dielectric constant tensor:
#      x y z
#    x 3.748080 0.000000 0.000000 
#    y 0.000000 3.748080 0.000000 
#    z 0.000000 0.000000 4.252000 
# 
# 
# High freq. dielectric constant tensor:
#      x y z
#    x 1.816340 0.000000 0.000000 
#    y 0.000000 1.816340 0.000000 
#    z 0.000000 0.000000 1.866690 
# 
# From -- ./inp_files/7423.got.cif
#   From: 2010.03.12/outbox.cif.g09.slc.cpg/sg178_4_cif.got.tgz:7423.got - 2010.04.02 07:02:38.
