data_PCOD8325939
_publ_section_title
;
Structure prediction by ZEFSAII (Michael W. Deem and Ramdas Pophale) SiO2 
 PCOD8325939
Probable space group: P 61 2 2
;
_chemical_formula_sum "Si O2"
_cell_formula_units_Z 60
_cell_length_a 13.739743
_cell_length_b 13.739743
_cell_length_c 15.184268
_cell_angle_alpha 90.000000
_cell_angle_beta 90.000000
_cell_angle_gamma 120.000000
_cell_volume 2482.456864
_symmetry_space_group_name_H-M "P 61 2 2"
_symmetry_group_IT_number 178
_symmetry_cell_setting 'hexagonal'
loop_
_space_group_symop_operation_xyz
x,y,z
x-y,x,1/6+z
-y,x-y,1/3+z
-x,-y,1/2+z
-x+y,-x,2/3+z
y,-x+y,5/6+z
x-y,-y,-z
-x,-x+y,2/3-z
y,x,1/3-z
-y,-x,5/6-z
-x+y,y,1/2-z
x,x-y,1/6-z
loop_
_atom_site_type_symbol
_atom_site_label
_atom_site_fract_x
_atom_site_fract_y
_atom_site_fract_z
Si Si1 0.933161 0.257795 0.968622
Si Si2 0.273929 0.586334 0.994039
Si Si3 0.718725 0.094237 0.667270
Si Si4 0.516138 0.480715 0.761920
Si Si5 0.919503 0.073376 0.653179
O O1 0.819785 0.180216 0.916667
O O2 0.987349 0.383990 0.934344
O O3 0.892185 0.248072 0.065908
O O4 0.020381 0.212203 0.961562
O O5 0.368119 0.631882 0.916667
O O6 0.167037 0.584218 0.949410
O O7 0.317198 0.658599 0.083334
O O8 0.245404 0.464802 0.030329
O O9 0.795721 0.049259 0.620948
O O10 0.585241 0.013907 0.661605
O O11 0.539806 0.539806 0.666667
O O12 0.983804 0.073585 0.562361
#
# Coordination Sequence:
#
# PCOD8325939 Si02
#       5
#    12  12  12  12  12
#     4  11  23  43  80 109 142 184 253 325 379 440
#     4  12  25  43  70 107 152 198 251 314 383 464
#     4  11  24  45  72 107 148 195 249 308 387 462
#     4  12  25  43  71 108 149 199 248 309 384 466
#     4  10  24  46  81 111 153 199 257 326 392 460
#
# _framework density 24.169605000000001
#
# number of rings (size 3 to 8) (size 9 to 14) (size 15 to 20)
#    0.000    0.800    2.000    5.400    5.600    1.600 
#    0.000    0.000   13.200    0.000    0.000    0.000 
#    0.000    0.000    0.000    0.000    0.000    0.000 
#
# Total GULP energy -743690.518208 kJ/mol
# GULP energy per Si atom -12394.841970 kJ/mol
# Density = 2.411459 g / cm^3
# Si number density = 24.169605 Si / 1000 Ang^3
#
#
#
# Elastic Constant Matrix: (Units=GPa)
#
#
# Indices 1 2 3 4 5 6 
#
# 1 112.2331 36.8511 38.9326 0.0000 0.0000 0.0000
# 2 36.8511 112.2331 38.9326 0.0000 0.0000 0.0000
# 3 38.9326 38.9326 103.2780 0.0000 0.0000 0.0000
# 4 0.0000 0.0000 0.0000 47.0446 0.0000 0.0000
# 5 0.0000 0.0000 0.0000 0.0000 47.0446 0.0000
# 6 0.0000 0.0000 0.0000 0.0000 0.0000 37.6910
#
#
#
# Elastic Compliance Matrix: (Units=1/GPa)
#
#
# Indices 1 2 3 4 5 6 
#
# 1 0.010809 -0.002457 -0.003148 0.000000 0.000000 0.000000
# 2 -0.002457 0.010809 -0.003148 0.000000 0.000000 0.000000
# 3 -0.003148 -0.003148 0.012056 0.000000 0.000000 0.000000
# 4 0.000000 0.000000 0.000000 0.021256 0.000000 0.000000
# 5 0.000000 0.000000 0.000000 0.000000 0.021256 0.000000
# 6 0.000000 0.000000 0.000000 0.000000 0.000000 0.026532
#
#
# Mechanical properties :
#
#
# Convention : Reuss Voigt Hill
#
# Bulk Modulus (GPa) = 61.85600 61.90852 61.88226
# Shear Modulus (GPa) = 39.80420 40.55792 40.18106
#
# Velocity S-wave (km/s) = 4.06257 4.10085 4.08175
# Velocity P-wave (km/s) = 6.90319 6.93487 6.91905
#
# Compressibility (1/GPa) = 0.01616658
#
# Stress axis : x y z
#
# Youngs Moduli (GPa) = 92.51645 92.51645 82.94389
#
# Poissons Ratio (x) = 0.22730 0.26114
# Poissons Ratio (y) = 0.22730 0.26114
# Poissons Ratio (z) = 0.29128 0.29128
#
# Static dielectric constant tensor:
#      x y z
#    x 4.817230 0.000000 0.000000 
#    y 0.000000 4.817230 0.000000 
#    z 0.000000 0.000000 4.474920 
# 
# 
# High freq. dielectric constant tensor:
#      x y z
#    x 1.968740 0.000000 0.000000 
#    y 0.000000 1.968740 0.000000 
#    z 0.000000 0.000000 1.959600 
# 
# From -- ./inp_files/5683.got.cif
#   From: 2010.03.12/outbox.cif.g09.slc.cpg/sg178_3_cif.got.tgz:5683.got - 2010.04.02 07:02:38.
