data_PCOD8325044
_publ_section_title
;
Structure prediction by ZEFSAII (Michael W. Deem and Ramdas Pophale) SiO2 
 PCOD8325044
Probable space group: P 6/M
;
_chemical_formula_sum "Si O2"
_cell_formula_units_Z 76
_cell_length_a 18.386407
_cell_length_b 18.386407
_cell_length_c 13.839990
_cell_angle_alpha 90.000000
_cell_angle_beta 90.000000
_cell_angle_gamma 120.000000
_cell_volume 4051.913326
_symmetry_space_group_name_H-M "P 6/M"
_symmetry_group_IT_number 175
_symmetry_cell_setting 'hexagonal'
loop_
_space_group_symop_operation_xyz
x,y,z
x-y,x,z
-y,x-y,z
-x,-y,z
-x+y,-x,z
y,-x+y,z
-x,-y,-z
-x+y,-x,-z
y,-x+y,-z
x,y,-z
x-y,x,-z
-y,x-y,-z
loop_
_atom_site_type_symbol
_atom_site_label
_atom_site_fract_x
_atom_site_fract_y
_atom_site_fract_z
Si Si1 0.328865 0.297736 0.392335
Si Si2 0.105255 0.852506 0.391650
Si Si3 0.133655 0.181279 0.195822
Si Si4 0.898684 0.260461 0.885792
Si Si5 0.427924 0.405916 0.217348
Si Si6 0.708309 0.194484 0.886167
Si Si7 0.666668 0.333334 0.884864
O O1 0.367389 0.315101 0.500000
O O2 0.303740 0.202806 0.360889
O O3 0.248522 0.311698 0.390172
O O4 0.398954 0.362678 0.321287
O O5 0.096740 0.882333 0.500000
O O6 0.052980 0.872982 0.313011
O O7 0.157566 0.114555 0.154245
O O8 0.205288 0.271014 0.160345
O O9 0.801743 0.217856 0.856885
O O10 0.947334 0.353229 0.842150
O O11 0.912500 0.266350 0.000000
O O12 0.500000 0.500000 0.235537
O O13 0.464329 0.358049 0.156919
O O14 0.690250 0.265699 0.844682
O O15 0.696263 0.187351 0.000000
O O16 0.666667 0.333334 0.000000
#
# Coordination Sequence:
#
# PCOD8325044 Si02
#       7
#    12  12  12  12  12  12   4
#     4  10  21  37  59  87 118 154 194 237 288 346
#     4  10  18  33  59  85 113 151 194 239 284 335
#     4  12  23  37  55  83 121 160 202 243 291 344
#     4  11  23  40  61  82 112 153 199 246 290 347
#     4  12  24  37  59  90 118 145 186 241 295 352
#     4  10  21  37  58  84 114 151 190 233 291 345
#     4   9  18  36  57  81 115 149 184 234 294 357
#
# _framework density 18.756571999999998
#
# number of rings (size 3 to 8) (size 9 to 14) (size 15 to 20)
#    0.000    1.263    3.158    3.474    0.000    4.737 
#    0.000    0.000    0.000    1.895    0.000    0.000 
#    0.000    0.000    0.000    0.000    0.000    0.000 
#
# Total GULP energy -942385.467391 kJ/mol
# GULP energy per Si atom -12399.808781 kJ/mol
# Density = 1.871388 g / cm^3
# Si number density = 18.756572 Si / 1000 Ang^3
#
#
#
# Elastic Constant Matrix: (Units=GPa)
#
#
# Indices 1 2 3 4 5 6 
#
# 1 106.8651 37.8841 11.7246 0.0000 0.0000 -0.0001
# 2 37.8841 106.8658 11.7250 0.0000 0.0000 0.0000
# 3 11.7246 11.7250 25.2149 0.0000 0.0000 0.0003
# 4 0.0000 0.0000 0.0000 22.2102 0.0001 0.0000
# 5 0.0000 0.0000 0.0000 0.0001 22.2104 0.0000
# 6 -0.0001 0.0000 0.0003 0.0000 0.0000 34.4904
#
#
#
# Elastic Compliance Matrix: (Units=1/GPa)
#
#
# Indices 1 2 3 4 5 6 
#
# 1 0.010984 -0.003513 -0.003474 0.000000 0.000000 0.000000
# 2 -0.003513 0.010984 -0.003474 0.000000 0.000000 0.000000
# 3 -0.003474 -0.003474 0.042890 0.000000 0.000000 0.000000
# 4 0.000000 0.000000 0.000000 0.045024 0.000000 0.000000
# 5 0.000000 0.000000 0.000000 0.000000 0.045024 0.000000
# 6 0.000000 0.000000 0.000000 0.000000 0.000000 0.028994
#
#
# Mechanical properties :
#
#
# Convention : Reuss Voigt Hill
#
# Bulk Modulus (GPa) = 22.76030 40.17924 31.46977
# Shear Modulus (GPa) = 22.78244 27.62299 25.20272
#
# Velocity S-wave (km/s) = 3.48895 3.84175 3.66959
# Velocity P-wave (km/s) = 5.32834 6.41457 5.89652
#
# Compressibility (1/GPa) = 0.04393615
#
# Stress axis : x y z
#
# Youngs Moduli (GPa) = 91.04154 91.04185 23.31544
#
# Poissons Ratio (x) = 0.31980 0.08100
# Poissons Ratio (y) = 0.31980 0.08100
# Poissons Ratio (z) = 0.31628 0.31630
#
# Static dielectric constant tensor:
#      x y z
#    x 3.494900 0.000000 0.000000 
#    y 0.000000 3.494890 0.000000 
#    z 0.000000 0.000000 3.493080 
# 
# 
# High freq. dielectric constant tensor:
#      x y z
#    x 1.728050 0.000000 0.000000 
#    y 0.000000 1.728050 0.000000 
#    z 0.000000 0.000000 1.724470 
# 
# From -- ./inp_files/2556.got.cif
#   From: 2010.03.12/outbox.cif.g09.slc.cpg/sg175_2_cif.got.tgz:2556.got - 2010.04.02 06:55:29.
