data_PCOD8325730
_publ_section_title
;
Structure prediction by ZEFSAII (Michael W. Deem and Ramdas Pophale) SiO2 
 PCOD8325730
Probable space group: P 6 2 2
;
_chemical_formula_sum "Si O2"
_cell_formula_units_Z 84
_cell_length_a 22.684621
_cell_length_b 22.684621
_cell_length_c 12.601830
_cell_angle_alpha 90.000000
_cell_angle_beta 90.000000
_cell_angle_gamma 120.000000
_cell_volume 5616.002647
_symmetry_space_group_name_H-M "P 6 2 2"
_symmetry_group_IT_number 177
_symmetry_cell_setting 'hexagonal'
loop_
_space_group_symop_operation_xyz
x,y,z
x-y,x,z
-y,x-y,z
-x,-y,z
-x+y,-x,z
y,-x+y,z
x-y,-y,-z
-x,-x+y,-z
y,x,-z
-y,-x,-z
-x+y,y,-z
x,x-y,-z
loop_
_atom_site_type_symbol
_atom_site_label
_atom_site_fract_x
_atom_site_fract_y
_atom_site_fract_z
Si Si1 0.373988 0.499780 0.376043
Si Si2 0.857472 0.149084 0.621777
Si Si3 0.865984 0.499727 0.374559
Si Si4 0.002142 0.639971 0.624538
Si Si5 0.236806 0.004208 0.292669
Si Si6 0.555887 0.780227 0.372926
Si Si7 0.862138 0.862362 0.124299
O O1 0.435248 0.567948 0.321666
O O2 0.374351 0.511088 0.500530
O O3 0.385852 0.437674 0.352131
O O4 0.300928 0.480614 0.328617
O O5 0.846049 0.153952 0.500000
O O6 0.827354 0.071356 0.654399
O O7 0.819054 0.186257 0.675798
O O8 0.937360 0.186692 0.642404
O O9 0.928399 0.572418 0.343432
O O10 0.802018 0.505429 0.332935
O O11 0.000000 0.659571 0.500000
O O12 0.989815 0.688920 0.704009
O O13 0.202280 0.998760 0.177988
O O14 0.560401 0.780201 0.500000
O O15 0.866312 0.933317 0.157669
O O16 0.849739 0.849739 0.000000
#
# Coordination Sequence:
#
# PCOD8325730 Si02
#       7
#    12  12  12  12  12  12  12
#     4   9  16  25  36  52  77 112 152 186 212 244
#     4  11  20  30  43  64  94 123 149 177 218 274
#     4   9  16  25  36  52  77 112 152 186 212 244
#     4  10  17  26  41  61  86 116 144 174 214 261
#     4  12  20  30  48  67  87 116 148 181 224 265
#     4   9  16  26  38  53  80 118 151 184 221 254
#     4  10  21  38  55  68  83 108 147 191 229 268
#
# _framework density 14.957257999999999
#
# number of rings (size 3 to 8) (size 9 to 14) (size 15 to 20)
#    0.000    2.000    4.286    1.857    0.000    2.286 
#    0.857    0.000    0.000    0.000    0.000    2.000 
#    0.000    2.286    0.000    0.000    0.000    0.000 
#
# Total GULP energy -1040666.980569 kJ/mol
# GULP energy per Si atom -12388.892626 kJ/mol
# Density = 1.492321 g / cm^3
# Si number density = 14.957258 Si / 1000 Ang^3
#
#
#
# Elastic Constant Matrix: (Units=GPa)
#
#
# Indices 1 2 3 4 5 6 
#
# 1 76.4080 44.2547 16.9254 0.0000 0.0000 0.0000
# 2 44.2547 76.4080 16.9254 0.0000 0.0000 0.0000
# 3 16.9254 16.9254 24.6941 0.0000 0.0000 0.0000
# 4 0.0000 0.0000 0.0000 7.9633 0.0000 0.0000
# 5 0.0000 0.0000 0.0000 0.0000 7.9633 0.0000
# 6 0.0000 0.0000 0.0000 0.0000 0.0000 16.0766
#
#
#
# Elastic Compliance Matrix: (Units=1/GPa)
#
#
# Indices 1 2 3 4 5 6 
#
# 1 0.020681 -0.010420 -0.007033 0.000000 0.000000 0.000000
# 2 -0.010420 0.020681 -0.007033 0.000000 0.000000 0.000000
# 3 -0.007033 -0.007033 0.050136 0.000000 0.000000 0.000000
# 4 0.000000 0.000000 0.000000 0.125576 0.000000 0.000000
# 5 0.000000 0.000000 0.000000 0.000000 0.125576 0.000000
# 6 0.000000 0.000000 0.000000 0.000000 0.000000 0.062202
#
#
# Mechanical properties :
#
#
# Convention : Reuss Voigt Hill
#
# Bulk Modulus (GPa) = 23.51476 37.08012 30.29744
# Shear Modulus (GPa) = 10.68382 13.02762 11.85572
#
# Velocity S-wave (km/s) = 2.67552 2.95446 2.81844
# Velocity P-wave (km/s) = 5.02991 6.04011 5.55801
#
# Compressibility (1/GPa) = 0.04252647
#
# Stress axis : x y z
#
# Youngs Moduli (GPa) = 48.35410 48.35410 19.94584
#
# Poissons Ratio (x) = 0.50386 0.14027
# Poissons Ratio (y) = 0.50386 0.14027
# Poissons Ratio (z) = 0.34005 0.34005
#
# Static dielectric constant tensor:
#      x y z
#    x 3.242160 0.000000 0.000000 
#    y 0.000000 3.242160 0.000000 
#    z 0.000000 0.000000 2.330150 
# 
# 
# High freq. dielectric constant tensor:
#      x y z
#    x 1.590910 0.000000 0.000000 
#    y 0.000000 1.590910 0.000000 
#    z 0.000000 0.000000 1.482640 
# 
# From -- ./inp_files/2164.got.cif
#   From: 2010.03.12/outbox.cif.g09.slc.cpg/sg177_2_cif.got.tgz:2164.got - 2010.04.02 07:00:27.
