data_PCOD8325201
_publ_section_title
;
Structure prediction by ZEFSAII (Michael W. Deem and Ramdas Pophale) SiO2 
 PCOD8325201
Probable space group: P 6/M
;
_chemical_formula_sum "Si O2"
_cell_formula_units_Z 60
_cell_length_a 22.034724
_cell_length_b 22.034724
_cell_length_c 7.711900
_cell_angle_alpha 90.000000
_cell_angle_beta 90.000000
_cell_angle_gamma 120.000000
_cell_volume 3242.703581
_symmetry_space_group_name_H-M "P 6/M"
_symmetry_group_IT_number 175
_symmetry_cell_setting 'hexagonal'
loop_
_space_group_symop_operation_xyz
x,y,z
x-y,x,z
-y,x-y,z
-x,-y,z
-x+y,-x,z
y,-x+y,z
-x,-y,-z
-x+y,-x,-z
y,-x+y,-z
x,y,-z
x-y,x,-z
-y,x-y,-z
loop_
_atom_site_type_symbol
_atom_site_label
_atom_site_fract_x
_atom_site_fract_y
_atom_site_fract_z
Si Si1 0.655892 0.195992 0.304568
Si Si2 0.388478 0.309483 0.299880
Si Si3 0.203135 0.675883 0.805347
Si Si4 0.784477 0.078472 0.000000
Si Si5 0.213909 0.294744 0.000000
Si Si6 0.386174 0.079732 0.305379
O O1 0.627711 0.184231 0.500000
O O2 0.661010 0.129227 0.240689
O O3 0.731133 0.265737 0.299466
O O4 0.600447 0.203852 0.187590
O O5 0.377317 0.282720 0.500000
O O6 0.339661 0.245713 0.174052
O O7 0.370521 0.371498 0.275250
O O8 0.131550 0.662933 0.718370
O O9 0.208103 0.703391 0.000000
O O10 0.868016 0.130286 0.000000
O O11 0.768929 0.998863 0.000000
O O12 0.244604 0.342116 0.829053
O O13 0.363626 0.087478 0.500000
#
# Coordination Sequence:
#
# PCOD8325201 Si02
#       6
#    12  12  12   6   6  12
#     4  11  23  39  55  74 102 144 186 228 278 324
#     4   9  21  37  58  83 107 139 178 226 276 324
#     4  12  24  37  53  78 106 141 184 228 276 327
#     4  10  20  34  59  80 119 139 183 215 270 314
#     4  10  20  36  55  88 109 151 175 225 262 320
#     4  10  20  38  58  82 111 139 178 224 277 329
#
# _framework density 18.503080000000001
#
# number of rings (size 3 to 8) (size 9 to 14) (size 15 to 20)
#    0.000    1.600    1.000    4.000    2.800    3.200 
#    0.000    4.000    0.000    0.200    0.000    0.000 
#    0.000    0.000    0.000   10.000    0.000    0.000 
#
# Total GULP energy -744156.274419 kJ/mol
# GULP energy per Si atom -12402.604574 kJ/mol
# Density = 1.846097 g / cm^3
# Si number density = 18.503080 Si / 1000 Ang^3
#
#
#
# Elastic Constant Matrix: (Units=GPa)
#
#
# Indices 1 2 3 4 5 6 
#
# 1 115.8451 73.0725 28.0058 0.0000 0.0000 0.0000
# 2 73.0725 115.8451 28.0058 0.0000 0.0000 0.0000
# 3 28.0058 28.0058 91.1271 0.0000 0.0000 0.0000
# 4 0.0000 0.0000 0.0000 18.3391 0.0000 0.0000
# 5 0.0000 0.0000 0.0000 0.0000 18.3391 0.0000
# 6 0.0000 0.0000 0.0000 0.0000 0.0000 21.3863
#
#
#
# Elastic Compliance Matrix: (Units=1/GPa)
#
#
# Indices 1 2 3 4 5 6 
#
# 1 0.014602 -0.008778 -0.001790 0.000000 0.000000 0.000000
# 2 -0.008778 0.014602 -0.001790 0.000000 0.000000 0.000000
# 3 -0.001790 -0.001790 0.012074 0.000000 0.000000 0.000000
# 4 0.000000 0.000000 0.000000 0.054528 0.000000 0.000000
# 5 0.000000 0.000000 0.000000 0.000000 0.054528 0.000000
# 6 0.000000 0.000000 0.000000 0.000000 0.000000 0.046759
#
#
# Mechanical properties :
#
#
# Convention : Reuss Voigt Hill
#
# Bulk Modulus (GPa) = 60.37793 64.55392 62.46593
# Shear Modulus (GPa) = 21.99458 24.52843 23.26151
#
# Velocity S-wave (km/s) = 3.45149 3.64488 3.54950
# Velocity P-wave (km/s) = 6.97035 7.25793 7.11559
#
# Compressibility (1/GPa) = 0.01656234
#
# Stress axis : x y z
#
# Youngs Moduli (GPa) = 68.48505 68.48505 82.82372
#
# Poissons Ratio (x) = 0.60114 0.14824
# Poissons Ratio (y) = 0.60114 0.14824
# Poissons Ratio (z) = 0.12258 0.12258
#
# Static dielectric constant tensor:
#      x y z
#    x 3.278000 0.000000 0.000000 
#    y 0.000000 3.278000 0.000000 
#    z 0.000000 0.000000 3.585620 
# 
# 
# High freq. dielectric constant tensor:
#      x y z
#    x 1.703330 0.000000 0.000000 
#    y 0.000000 1.703330 0.000000 
#    z 0.000000 0.000000 1.739640 
# 
# From -- ./inp_files/920.got.cif
#   From: 2010.03.12/outbox.cif.g09.slc.cpg/sg175_1_cif.got.tgz:920.got - 2010.04.02 06:55:29.
