data_PCOD8325565
_publ_section_title
;
Structure prediction by ZEFSAII (Michael W. Deem and Ramdas Pophale) SiO2 
 PCOD8325565
Probable space group: P 63/M
;
_chemical_formula_sum "Si O2"
_cell_formula_units_Z 54
_cell_length_a 19.849775
_cell_length_b 19.849775
_cell_length_c 8.063934
_cell_angle_alpha 90.000000
_cell_angle_beta 90.000000
_cell_angle_gamma 120.000000
_cell_volume 2751.621999
_symmetry_space_group_name_H-M "P 63/M"
_symmetry_group_IT_number 176
_symmetry_cell_setting 'hexagonal'
loop_
_space_group_symop_operation_xyz
x,y,z
x-y,x,1/2+z
-y,x-y,z
-x,-y,1/2+z
-x+y,-x,z
y,-x+y,1/2+z
-x,-y,-z
-x+y,-x,1/2-z
y,-x+y,-z
x,y,1/2-z
x-y,x,-z
-y,x-y,1/2-z
loop_
_atom_site_type_symbol
_atom_site_label
_atom_site_fract_x
_atom_site_fract_y
_atom_site_fract_z
Si Si1 0.958408 0.547724 0.445463
Si Si2 0.285358 0.568950 0.750000
Si Si3 0.292984 0.016085 0.940202
Si Si4 0.798924 0.514157 0.933075
Si Si5 0.825213 0.153307 0.062849
O O1 0.945035 0.542127 0.250000
O O2 0.874345 0.506159 0.532016
O O3 0.000000 0.500000 0.500000
O O4 0.004925 0.639161 0.498571
O O5 0.378645 0.622303 0.750000
O O6 0.264757 0.523140 0.577526
O O7 0.305701 0.041799 0.750000
O O8 0.209256 0.938608 0.968487
O O9 0.287544 0.082221 0.044218
O O10 0.765644 0.478565 0.750000
O O11 0.820160 0.603309 0.930637
O O12 0.801121 0.162822 0.250000
#
# Coordination Sequence:
#
# PCOD8325565 Si02
#       5
#    12   6  12  12  12
#     4  10  20  36  56  85 120 152 195 248 298 354
#     4  10  24  42  58  78 114 154 198 242 292 352
#     4   9  20  36  56  86 118 155 198 244 300 362
#     4  11  21  39  62  82 115 155 196 250 298 352
#     4  10  20  37  60  87 123 155 195 249 302 356
#
# _framework density 19.624789
#
# number of rings (size 3 to 8) (size 9 to 14) (size 15 to 20)
#    0.222    1.778    2.222    2.667    0.000    8.000 
#    0.000    0.000    0.000    0.444    0.000    0.000 
#    0.000    0.000    0.000    0.000    0.000    0.000 
#
# Total GULP energy -669179.091284 kJ/mol
# GULP energy per Si atom -12392.205394 kJ/mol
# Density = 1.958012 g / cm^3
# Si number density = 19.624789 Si / 1000 Ang^3
#
#
#
# Elastic Constant Matrix: (Units=GPa)
#
#
# Indices 1 2 3 4 5 6 
#
# 1 84.7029 30.3875 22.8611 0.0000 0.0000 0.0000
# 2 30.3875 84.7029 22.8611 0.0000 0.0000 0.0000
# 3 22.8611 22.8611 117.5270 0.0000 0.0000 0.0000
# 4 0.0000 0.0000 0.0000 22.0624 0.0000 0.0000
# 5 0.0000 0.0000 0.0000 0.0000 22.0624 0.0000
# 6 0.0000 0.0000 0.0000 0.0000 0.0000 27.1577
#
#
#
# Elastic Compliance Matrix: (Units=1/GPa)
#
#
# Indices 1 2 3 4 5 6 
#
# 1 0.013914 -0.004497 -0.001832 0.000000 0.000000 0.000000
# 2 -0.004497 0.013914 -0.001832 0.000000 0.000000 0.000000
# 3 -0.001832 -0.001832 0.009221 0.000000 0.000000 0.000000
# 4 0.000000 0.000000 0.000000 0.045326 0.000000 0.000000
# 5 0.000000 0.000000 0.000000 0.000000 0.045326 0.000000
# 6 0.000000 0.000000 0.000000 0.000000 0.000000 0.036822
#
#
# Mechanical properties :
#
#
# Convention : Reuss Voigt Hill
#
# Bulk Modulus (GPa) = 48.24498 48.79471 48.51985
# Shear Modulus (GPa) = 26.63071 28.31137 27.47104
#
# Velocity S-wave (km/s) = 3.68774 3.80232 3.74547
# Velocity P-wave (km/s) = 6.53985 6.64791 6.59410
#
# Compressibility (1/GPa) = 0.02072755
#
# Stress axis : x y z
#
# Youngs Moduli (GPa) = 71.87142 71.87142 108.44496
#
# Poissons Ratio (x) = 0.32322 0.19864
# Poissons Ratio (y) = 0.32322 0.19864
# Poissons Ratio (z) = 0.13165 0.13165
#
# Static dielectric constant tensor:
#      x y z
#    x 3.482330 0.000000 0.000000 
#    y 0.000000 3.482330 0.000000 
#    z 0.000000 0.000000 3.591180 
# 
# 
# High freq. dielectric constant tensor:
#      x y z
#    x 1.745790 0.000000 0.000000 
#    y 0.000000 1.745790 0.000000 
#    z 0.000000 0.000000 1.774310 
# 
# From -- ./inp_files/852.got.cif
#   From: 2010.06.25/outbox.cif.g09.slc.cpg/sg176_1_cif.got.tgz:852.got - 2010.06.28 12:15:01.
