data_PCOD8325134
_publ_section_title
;
Structure prediction by ZEFSAII (Michael W. Deem and Ramdas Pophale) SiO2 
 PCOD8325134
Probable space group: P 6/M
;
_chemical_formula_sum "Si O2"
_cell_formula_units_Z 78
_cell_length_a 23.604704
_cell_length_b 23.604704
_cell_length_c 9.534416
_cell_angle_alpha 90.000000
_cell_angle_beta 90.000000
_cell_angle_gamma 120.000000
_cell_volume 4600.678085
_symmetry_space_group_name_H-M "P 6/M"
_symmetry_group_IT_number 175
_symmetry_cell_setting 'hexagonal'
loop_
_space_group_symop_operation_xyz
x,y,z
x-y,x,z
-y,x-y,z
-x,-y,z
-x+y,-x,z
y,-x+y,z
-x,-y,-z
-x+y,-x,-z
y,-x+y,-z
x,y,-z
x-y,x,-z
-y,x-y,-z
loop_
_atom_site_type_symbol
_atom_site_label
_atom_site_fract_x
_atom_site_fract_y
_atom_site_fract_z
Si Si1 0.095422 0.448351 0.660441
Si Si2 0.192260 0.393876 0.340107
Si Si3 0.899996 0.720326 0.152955
Si Si4 0.465294 0.923582 0.162554
Si Si5 0.437952 0.128728 0.157572
Si Si6 0.992852 0.668614 0.156789
Si Si7 0.155568 0.092997 0.000000
O O1 0.078883 0.454556 0.500000
O O2 0.153439 0.432622 0.672849
O O3 0.114946 0.515412 0.742209
O O4 0.031967 0.389707 0.732497
O O5 0.204073 0.381693 0.500000
O O6 0.154853 0.322002 0.267470
O O7 0.260483 0.443250 0.265831
O O8 0.966059 0.718190 0.189815
O O9 0.873579 0.686309 0.000000
O O10 0.919001 0.796892 0.138574
O O11 0.513212 0.896508 0.203656
O O12 0.500000 0.000000 0.198778
O O13 0.445291 0.910891 0.000000
O O14 0.362477 0.070877 0.166508
O O15 0.454530 0.157473 0.000000
O O16 0.971973 0.638027 0.000000
O O17 0.102873 0.117473 0.000000
#
# Coordination Sequence:
#
# PCOD8325134 Si02
#       7
#    12  12  12  12  12  12   6
#     4  10  20  33  49  71 106 144 178 210 258 317
#     4  10  21  35  50  75 109 142 176 220 266 317
#     4   8  18  31  54  74 101 137 174 211 262 321
#     4  10  19  34  52  77 105 137 171 216 258 312
#     4  10  20  31  53  78 108 135 175 216 266 315
#     4   9  16  30  50  75 102 137 168 211 257 313
#     4  10  21  34  56  82 108 135 181 231 273 309
#
# _framework density 16.954022999999999
#
# number of rings (size 3 to 8) (size 9 to 14) (size 15 to 20)
#    0.462    2.000    1.538    1.000    2.154    3.385 
#    0.000    0.000    0.000    0.615    0.000    0.000 
#    0.000    1.231    0.000    0.000    0.000    0.000 
#
# Total GULP energy -966643.565851 kJ/mol
# GULP energy per Si atom -12392.866229 kJ/mol
# Density = 1.691543 g / cm^3
# Si number density = 16.954023 Si / 1000 Ang^3
#
#
#
# Elastic Constant Matrix: (Units=GPa)
#
#
# Indices 1 2 3 4 5 6 
#
# 1 80.8928 35.4189 46.3935 0.0000 0.0000 0.0000
# 2 35.4189 80.8928 46.3935 0.0000 0.0000 0.0000
# 3 46.3935 46.3935 98.7999 0.0000 0.0000 0.0000
# 4 0.0000 0.0000 0.0000 19.9759 0.0000 0.0000
# 5 0.0000 0.0000 0.0000 0.0000 19.9759 0.0000
# 6 0.0000 0.0000 0.0000 0.0000 0.0000 22.7369
#
#
#
# Elastic Compliance Matrix: (Units=1/GPa)
#
#
# Indices 1 2 3 4 5 6 
#
# 1 0.017869 -0.004122 -0.006455 0.000000 0.000000 0.000000
# 2 -0.004122 0.017869 -0.006455 0.000000 0.000000 0.000000
# 3 -0.006455 -0.006455 0.016184 0.000000 0.000000 0.000000
# 4 0.000000 0.000000 0.000000 0.050060 0.000000 0.000000
# 5 0.000000 0.000000 0.000000 0.000000 0.050060 0.000000
# 6 0.000000 0.000000 0.000000 0.000000 0.000000 0.043981
#
#
# Mechanical properties :
#
#
# Convention : Reuss Voigt Hill
#
# Bulk Modulus (GPa) = 55.99976 57.44413 56.72195
# Shear Modulus (GPa) = 21.18278 21.36305 21.27292
#
# Velocity S-wave (km/s) = 3.53856 3.55358 3.54608
# Velocity P-wave (km/s) = 7.05672 7.12693 7.09191
#
# Compressibility (1/GPa) = 0.01785722
#
# Stress axis : x y z
#
# Youngs Moduli (GPa) = 55.96294 55.96294 61.78977
#
# Poissons Ratio (x) = 0.23066 0.39887
# Poissons Ratio (y) = 0.23066 0.39887
# Poissons Ratio (z) = 0.36126 0.36126
#
# Static dielectric constant tensor:
#      x y z
#    x 3.046740 0.000000 0.000000 
#    y 0.000000 3.046740 0.000000 
#    z 0.000000 0.000000 3.217850 
# 
# 
# High freq. dielectric constant tensor:
#      x y z
#    x 1.639600 0.000000 0.000000 
#    y 0.000000 1.639600 0.000000 
#    z 0.000000 0.000000 1.644670 
# 
# From -- ./inp_files/1274.got.cif
#   From: 2010.03.12/outbox.cif.g09.slc.cpg/sg175_1_cif.got.tgz:1274.got - 2010.04.02 06:55:29.
