data_PCOD8325497
_publ_section_title
;
Structure prediction by ZEFSAII (Michael W. Deem and Ramdas Pophale) SiO2 
 PCOD8325497
Probable space group: P 63/M
;
_chemical_formula_sum "Si O2"
_cell_formula_units_Z 46
_cell_length_a 15.097126
_cell_length_b 15.097126
_cell_length_c 11.656048
_cell_angle_alpha 90.000000
_cell_angle_beta 90.000000
_cell_angle_gamma 120.000000
_cell_volume 2300.755761
_symmetry_space_group_name_H-M "P 63/M"
_symmetry_group_IT_number 176
_symmetry_cell_setting 'hexagonal'
loop_
_space_group_symop_operation_xyz
x,y,z
x-y,x,1/2+z
-y,x-y,z
-x,-y,1/2+z
-x+y,-x,z
y,-x+y,1/2+z
-x,-y,-z
-x+y,-x,1/2-z
y,-x+y,-z
x,y,1/2-z
x-y,x,-z
-y,x-y,1/2-z
loop_
_atom_site_type_symbol
_atom_site_label
_atom_site_fract_x
_atom_site_fract_y
_atom_site_fract_z
Si Si1 0.117629 0.391206 0.542384
Si Si2 0.638126 0.905860 0.380317
Si Si3 0.333334 0.666668 0.384578
Si Si4 0.461559 0.701286 0.750000
Si Si5 0.110697 0.533200 0.119108
O O1 0.181183 0.354335 0.465269
O O2 0.189782 0.470181 0.638533
O O3 0.057736 0.437323 0.466550
O O4 0.021721 0.290485 0.598302
O O5 0.642261 0.871646 0.250000
O O6 0.536114 0.912603 0.399001
O O7 0.333334 0.666668 0.250000
O O8 0.344383 0.772777 0.423614
O O9 0.415467 0.779000 0.750000
O O10 0.089451 0.494402 0.250000
#
# Coordination Sequence:
#
# PCOD8325497 Si02
#       5
#    12  12   4   6  12
#     4  12  22  42  60  89 127 167 214 266 317 372
#     4  11  24  41  62  91 124 163 216 268 315 386
#     4   9  15  27  51  82 119 163 204 240 280 338
#     4  10  24  38  60  86 134 178 208 250 322 374
#     4  10  19  33  59  87 121 166 214 248 296 364
#
# _framework density 19.993431000000001
#
# number of rings (size 3 to 8) (size 9 to 14) (size 15 to 20)
#    0.261    1.043    3.913    3.130    0.000    0.000 
#    4.696    0.000    0.000    0.522    0.000    0.000 
#    0.000    0.000    0.000    0.000    0.000    0.000 
#
# Total GULP energy -569884.261907 kJ/mol
# GULP energy per Si atom -12388.788302 kJ/mol
# Density = 1.994792 g / cm^3
# Si number density = 19.993431 Si / 1000 Ang^3
#
#
#
# Elastic Constant Matrix: (Units=GPa)
#
#
# Indices 1 2 3 4 5 6 
#
# 1 64.5545 34.9702 52.2681 0.0000 0.0000 -0.0002
# 2 34.9702 64.5545 52.2683 0.0000 0.0000 -0.0003
# 3 52.2681 52.2683 130.1472 0.0000 0.0000 0.0000
# 4 0.0000 0.0000 0.0000 14.2264 -0.0003 0.0000
# 5 0.0000 0.0000 0.0000 -0.0003 14.2261 0.0000
# 6 -0.0002 -0.0003 0.0000 0.0000 0.0000 14.7922
#
#
#
# Elastic Compliance Matrix: (Units=1/GPa)
#
#
# Indices 1 2 3 4 5 6 
#
# 1 0.025590 -0.008212 -0.006979 0.000000 0.000000 0.000000
# 2 -0.008212 0.025590 -0.006979 0.000000 0.000000 0.000000
# 3 -0.006979 -0.006979 0.013290 0.000000 0.000000 0.000000
# 4 0.000000 0.000000 0.000000 0.070292 0.000001 0.000000
# 5 0.000000 0.000000 0.000000 0.000001 0.070294 0.000000
# 6 0.000000 0.000000 0.000000 0.000000 0.000000 0.067603
#
#
# Mechanical properties :
#
#
# Convention : Reuss Voigt Hill
#
# Bulk Modulus (GPa) = 49.67905 59.80770 54.74338
# Shear Modulus (GPa) = 15.44595 16.63222 16.03908
#
# Velocity S-wave (km/s) = 2.78250 2.88737 2.83542
# Velocity P-wave (km/s) = 5.93504 6.41050 6.17734
#
# Compressibility (1/GPa) = 0.02012921
#
# Stress axis : x y z
#
# Youngs Moduli (GPa) = 39.07753 39.07743 75.24702
#
# Poissons Ratio (x) = 0.32089 0.52518
# Poissons Ratio (y) = 0.32089 0.52518
# Poissons Ratio (z) = 0.27274 0.27274
#
# Static dielectric constant tensor:
#      x y z
#    x 3.304280 -0.000010 0.000000 
#    y -0.000010 3.304270 0.000000 
#    z 0.000000 0.000000 3.810480 
# 
# 
# High freq. dielectric constant tensor:
#      x y z
#    x 1.751390 0.000000 0.000000 
#    y 0.000000 1.751390 0.000000 
#    z 0.000000 0.000000 1.803910 
# 
# From -- ./inp_files/1709.got.cif
#   From: 2010.06.25/outbox.cif.g09.slc.cpg/sg176_1_cif.got.tgz:1709.got - 2010.06.28 12:15:01.
