data_PCOD8325282
_publ_section_title
;
Structure prediction by ZEFSAII (Michael W. Deem and Ramdas Pophale) SiO2 
 PCOD8325282
Probable space group: P 6/M
;
_chemical_formula_sum "Si O2"
_cell_formula_units_Z 46
_cell_length_a 17.817904
_cell_length_b 17.817904
_cell_length_c 8.950033
_cell_angle_alpha 90.000000
_cell_angle_beta 90.000000
_cell_angle_gamma 120.000000
_cell_volume 2460.755688
_symmetry_space_group_name_H-M "P 6/M"
_symmetry_group_IT_number 175
_symmetry_cell_setting 'hexagonal'
loop_
_space_group_symop_operation_xyz
x,y,z
x-y,x,z
-y,x-y,z
-x,-y,z
-x+y,-x,z
y,-x+y,z
-x,-y,-z
-x+y,-x,-z
y,-x+y,-z
x,y,-z
x-y,x,-z
-y,x-y,-z
loop_
_atom_site_type_symbol
_atom_site_label
_atom_site_fract_x
_atom_site_fract_y
_atom_site_fract_z
Si Si1 0.263338 0.774093 0.173291
Si Si2 0.145089 0.196948 0.500000
Si Si3 0.333334 0.666667 0.323300
Si Si4 0.904107 0.262304 0.665019
Si Si5 0.565872 0.597329 0.827093
O O1 0.271126 0.700954 0.263553
O O2 0.178187 0.774893 0.227202
O O3 0.347042 0.866594 0.203551
O O4 0.252658 0.748689 0.000000
O O5 0.160504 0.116754 0.500000
O O6 0.189252 0.256645 0.647367
O O7 0.333334 0.666668 0.500000
O O8 0.881076 0.283628 0.500000
O O9 0.984678 0.347730 0.730965
O O10 0.500000 0.500000 0.774530
O O11 0.590848 0.599808 0.000000
#
# Coordination Sequence:
#
# PCOD8325282 Si02
#       5
#    12   6   4  12  12
#     4  11  22  38  59  84 120 160 204 249 298 359
#     4  10  21  38  61  88 118 152 192 246 308 378
#     4  12  25  38  58  87 124 167 208 249 292 344
#     4  10  22  36  59  85 118 154 196 254 301 362
#     4  10  21  37  58  84 116 157 203 248 299 358
#
# _framework density 18.693444
#
# number of rings (size 3 to 8) (size 9 to 14) (size 15 to 20)
#    0.783    0.783    0.000    5.609    0.000    3.652 
#    0.000    0.000    0.000    0.000    0.000    0.000 
#    0.000   12.522    0.000    0.000    0.000    0.000 
#
# Total GULP energy -570481.576845 kJ/mol
# GULP energy per Si atom -12401.773410 kJ/mol
# Density = 1.865090 g / cm^3
# Si number density = 18.693444 Si / 1000 Ang^3
#
#
#
# Elastic Constant Matrix: (Units=GPa)
#
#
# Indices 1 2 3 4 5 6 
#
# 1 122.9221 50.3153 48.4094 0.0000 0.0000 0.0005
# 2 50.3153 122.9229 48.4095 0.0000 0.0000 0.0003
# 3 48.4094 48.4095 105.4914 0.0000 0.0000 0.0002
# 4 0.0000 0.0000 0.0000 33.1622 0.0001 0.0000
# 5 0.0000 0.0000 0.0000 0.0001 33.1623 0.0000
# 6 0.0005 0.0003 0.0002 0.0000 0.0000 36.3038
#
#
#
# Elastic Compliance Matrix: (Units=1/GPa)
#
#
# Indices 1 2 3 4 5 6 
#
# 1 0.010768 -0.003005 -0.003563 0.000000 0.000000 0.000000
# 2 -0.003005 0.010768 -0.003563 0.000000 0.000000 0.000000
# 3 -0.003563 -0.003563 0.012749 0.000000 0.000000 0.000000
# 4 0.000000 0.000000 0.000000 0.030155 0.000000 0.000000
# 5 0.000000 0.000000 0.000000 0.000000 0.030155 0.000000
# 6 0.000000 0.000000 0.000000 0.000000 0.000000 0.027545
#
#
# Mechanical properties :
#
#
# Convention : Reuss Voigt Hill
#
# Bulk Modulus (GPa) = 71.29787 71.73385 71.51586
# Shear Modulus (GPa) = 33.99621 34.13914 34.06767
#
# Velocity S-wave (km/s) = 4.26915 4.27812 4.27364
# Velocity P-wave (km/s) = 7.90723 7.92844 7.91784
#
# Compressibility (1/GPa) = 0.01402567
#
# Stress axis : x y z
#
# Youngs Moduli (GPa) = 92.86643 92.86710 78.43638
#
# Poissons Ratio (x) = 0.27903 0.27944
# Poissons Ratio (y) = 0.27903 0.27944
# Poissons Ratio (z) = 0.33085 0.33085
#
# Static dielectric constant tensor:
#      x y z
#    x 3.378470 0.000000 0.000000 
#    y 0.000000 3.378480 0.000000 
#    z 0.000000 0.000000 3.393830 
# 
# 
# High freq. dielectric constant tensor:
#      x y z
#    x 1.730560 0.000000 0.000000 
#    y 0.000000 1.730560 0.000000 
#    z 0.000000 0.000000 1.721400 
# 
# From -- ./inp_files/551.got.cif
#   From: 2010.03.12/outbox.cif.g09.slc.cpg/sg175_1_cif.got.tgz:551.got - 2010.04.02 06:55:29.
