data_PCOD8325846
_publ_section_title
;
Structure prediction by ZEFSAII (Michael W. Deem and Ramdas Pophale) SiO2 
 PCOD8325846
Probable space group: P 61 2 2
;
_chemical_formula_sum "Si O2"
_cell_formula_units_Z 72
_cell_length_a 14.719082
_cell_length_b 14.719082
_cell_length_c 17.067709
_cell_angle_alpha 90.000000
_cell_angle_beta 90.000000
_cell_angle_gamma 120.000000
_cell_volume 3202.339047
_symmetry_space_group_name_H-M "P 61 2 2"
_symmetry_group_IT_number 178
_symmetry_cell_setting 'hexagonal'
loop_
_space_group_symop_operation_xyz
x,y,z
x-y,x,1/6+z
-y,x-y,1/3+z
-x,-y,1/2+z
-x+y,-x,2/3+z
y,-x+y,5/6+z
x-y,-y,-z
-x,-x+y,2/3-z
y,x,1/3-z
-y,-x,5/6-z
-x+y,y,1/2-z
x,x-y,1/6-z
loop_
_atom_site_type_symbol
_atom_site_label
_atom_site_fract_x
_atom_site_fract_y
_atom_site_fract_z
Si Si1 0.989366 0.755735 0.580915
Si Si2 0.804737 0.751140 0.089685
Si Si3 0.770548 0.436822 0.893732
Si Si4 0.199203 0.458972 0.834488
Si Si5 0.123760 0.785175 0.835771
Si Si6 0.638026 0.101673 0.716738
O O1 0.013169 0.758211 0.487041
O O2 0.871351 0.726327 0.601385
O O3 0.078413 0.869380 0.609888
O O4 0.015389 0.673548 0.623585
O O5 0.821114 0.821114 0.166667
O O6 0.734404 0.630967 0.117409
O O7 0.647233 0.352768 0.916667
O O8 0.815652 0.374641 0.844644
O O9 0.792963 0.536928 0.841038
O O10 0.842088 0.491351 0.968442
O O11 0.207167 0.414333 0.750000
O O12 0.302326 0.493417 0.884838
O O13 0.151461 0.848540 0.916667
O O14 0.000000 0.695209 0.833334
O O15 0.519655 0.039309 0.750000
#
# Coordination Sequence:
#
# PCOD8325846 Si02
#       6
#    12  12  12  12  12  12
#     4  11  25  46  67  97 137 185 233 298 358 421
#     4  11  22  41  71 100 136 170 232 298 371 421
#     4  11  24  40  70 103 140 182 232 288 348 427
#     4  10  20  37  63  98 139 179 214 279 350 422
#     4  12  27  50  70  96 142 194 247 297 357 431
#     4  11  20  39  66  96 140 177 224 273 354 425
#
# _framework density 22.483566
#
# number of rings (size 3 to 8) (size 9 to 14) (size 15 to 20)
#    0.000    1.000    3.333    6.500    2.333    1.333 
#    3.000    5.000    0.000    0.000    0.000    0.000 
#    0.000    0.000    0.000    0.000    0.000    0.000 
#
# Total GULP energy -891996.206966 kJ/mol
# GULP energy per Si atom -12388.836208 kJ/mol
# Density = 2.243239 g / cm^3
# Si number density = 22.483566 Si / 1000 Ang^3
#
#
#
# Elastic Constant Matrix: (Units=GPa)
#
#
# Indices 1 2 3 4 5 6 
#
# 1 85.1414 56.8033 10.7413 0.0000 0.0000 0.0000
# 2 56.8033 85.1414 10.7413 0.0000 0.0000 0.0000
# 3 10.7413 10.7413 84.1344 0.0000 0.0000 0.0000
# 4 0.0000 0.0000 0.0000 33.4148 0.0000 0.0000
# 5 0.0000 0.0000 0.0000 0.0000 33.4148 0.0000
# 6 0.0000 0.0000 0.0000 0.0000 0.0000 14.1691
#
#
#
# Elastic Compliance Matrix: (Units=1/GPa)
#
#
# Indices 1 2 3 4 5 6 
#
# 1 0.021236 -0.014052 -0.000917 0.000000 0.000000 0.000000
# 2 -0.014052 0.021236 -0.000917 0.000000 0.000000 0.000000
# 3 -0.000917 -0.000917 0.012120 0.000000 0.000000 0.000000
# 4 0.000000 0.000000 0.000000 0.029927 0.000000 0.000000
# 5 0.000000 0.000000 0.000000 0.000000 0.029927 0.000000
# 6 0.000000 0.000000 0.000000 0.000000 0.000000 0.070576
#
#
# Mechanical properties :
#
#
# Convention : Reuss Voigt Hill
#
# Bulk Modulus (GPa) = 43.82322 45.66544 44.74433
# Shear Modulus (GPa) = 22.28155 27.94184 25.11170
#
# Velocity S-wave (km/s) = 3.15145 3.52911 3.34562
# Velocity P-wave (km/s) = 5.72501 6.07955 5.90494
#
# Compressibility (1/GPa) = 0.02281895
#
# Stress axis : x y z
#
# Youngs Moduli (GPa) = 47.08996 47.08996 82.50880
#
# Poissons Ratio (x) = 0.66172 0.07567
# Poissons Ratio (y) = 0.66172 0.07567
# Poissons Ratio (z) = 0.04319 0.04319
#
# Static dielectric constant tensor:
#      x y z
#    x 4.169360 0.000000 0.000000 
#    y 0.000000 4.169360 0.000000 
#    z 0.000000 0.000000 4.413770 
# 
# 
# High freq. dielectric constant tensor:
#      x y z
#    x 1.875490 0.000000 0.000000 
#    y 0.000000 1.875490 0.000000 
#    z 0.000000 0.000000 1.906930 
# 
# From -- ./inp_files/6768.got.cif
#   From: 2010.03.12/outbox.cif.g09.slc.cpg/sg178_4_cif.got.tgz:6768.got - 2010.04.02 07:02:38.
