data_PCOD8325049
_publ_section_title
;
Structure prediction by ZEFSAII (Michael W. Deem and Ramdas Pophale) SiO2 
 PCOD8325049
Probable space group: P 6/M
;
_chemical_formula_sum "Si O2"
_cell_formula_units_Z 72
_cell_length_a 23.007758
_cell_length_b 23.007758
_cell_length_c 8.619596
_cell_angle_alpha 90.000000
_cell_angle_beta 90.000000
_cell_angle_gamma 120.000000
_cell_volume 3951.537831
_symmetry_space_group_name_H-M "P 6/M"
_symmetry_group_IT_number 175
_symmetry_cell_setting 'hexagonal'
loop_
_space_group_symop_operation_xyz
x,y,z
x-y,x,z
-y,x-y,z
-x,-y,z
-x+y,-x,z
y,-x+y,z
-x,-y,-z
-x+y,-x,-z
y,-x+y,-z
x,y,-z
x-y,x,-z
-y,x-y,-z
loop_
_atom_site_type_symbol
_atom_site_label
_atom_site_fract_x
_atom_site_fract_y
_atom_site_fract_z
Si Si1 0.397671 0.265675 0.818518
Si Si2 0.987100 0.864185 0.683392
Si Si3 0.254732 0.381990 0.816095
Si Si4 0.744161 0.748293 0.181326
Si Si5 0.072690 0.476153 0.681474
Si Si6 0.476026 0.072330 0.182794
O O1 0.392518 0.197547 0.751388
O O2 0.330096 0.266647 0.782714
O O3 0.457619 0.328514 0.729314
O O4 0.414415 0.272780 0.000000
O O5 0.924765 0.869126 0.753387
O O6 0.987582 0.869580 0.500000
O O7 0.978166 0.793471 0.729594
O O8 0.247181 0.312586 0.751875
O O9 0.326357 0.444224 0.764969
O O10 0.251002 0.376264 0.000000
O O11 0.760398 0.759458 0.000000
O O12 0.057365 0.465797 0.500000
O O13 0.099624 0.553607 0.726493
O O14 0.004806 0.428964 0.775706
O O15 0.489471 0.077096 0.000000
#
# Coordination Sequence:
#
# PCOD8325049 Si02
#       6
#    12  12  12  12  12  12
#     4  10  19  34  55  78 108 142 177 214 259 315
#     4  10  21  36  51  67  92 131 177 221 267 321
#     4   9  18  32  54  82 106 136 177 216 256 311
#     4  10  19  34  54  77 104 133 169 219 270 314
#     4  11  21  33  51  80 111 138 173 215 262 313
#     4  10  18  34  57  79 105 139 177 217 264 309
#
# _framework density 18.220752999999998
#
# number of rings (size 3 to 8) (size 9 to 14) (size 15 to 20)
#    0.000    2.000    1.667    4.167    0.000    3.333 
#    0.000    2.500    0.000    1.667    0.000    2.333 
#    0.000    0.000    0.000    0.000    0.000    0.000 
#
# Total GULP energy -892881.343908 kJ/mol
# GULP energy per Si atom -12401.129777 kJ/mol
# Density = 1.817928 g / cm^3
# Si number density = 18.220753 Si / 1000 Ang^3
#
#
#
# Elastic Constant Matrix: (Units=GPa)
#
#
# Indices 1 2 3 4 5 6 
#
# 1 86.6651 24.1251 18.4342 0.0000 0.0000 0.0000
# 2 24.1251 86.6651 18.4342 0.0000 0.0000 0.0000
# 3 18.4342 18.4342 33.8380 0.0000 0.0000 0.0000
# 4 0.0000 0.0000 0.0000 18.6257 0.0000 0.0000
# 5 0.0000 0.0000 0.0000 0.0000 18.6257 0.0000
# 6 0.0000 0.0000 0.0000 0.0000 0.0000 31.2700
#
#
#
# Elastic Compliance Matrix: (Units=1/GPa)
#
#
# Indices 1 2 3 4 5 6 
#
# 1 0.013507 -0.002483 -0.006006 0.000000 0.000000 0.000000
# 2 -0.002483 0.013507 -0.006006 0.000000 0.000000 0.000000
# 3 -0.006006 -0.006006 0.036097 0.000000 0.000000 0.000000
# 4 0.000000 0.000000 0.000000 0.053689 0.000000 0.000000
# 5 0.000000 0.000000 0.000000 0.000000 0.053689 0.000000
# 6 0.000000 0.000000 0.000000 0.000000 0.000000 0.031980
#
#
# Mechanical properties :
#
#
# Convention : Reuss Voigt Hill
#
# Bulk Modulus (GPa) = 29.30676 36.57281 32.93978
# Shear Modulus (GPa) = 20.59034 23.44926 22.01980
#
# Velocity S-wave (km/s) = 3.36527 3.59131 3.48012
# Velocity P-wave (km/s) = 5.58742 6.10838 5.85369
#
# Compressibility (1/GPa) = 0.03412182
#
# Stress axis : x y z
#
# Youngs Moduli (GPa) = 74.03434 74.03434 27.70351
#
# Poissons Ratio (x) = 0.18379 0.16639
# Poissons Ratio (y) = 0.18379 0.16639
# Poissons Ratio (z) = 0.44465 0.44465
#
# Static dielectric constant tensor:
#      x y z
#    x 3.489760 0.000000 0.000000 
#    y 0.000000 3.489760 0.000000 
#    z 0.000000 0.000000 3.101410 
# 
# 
# High freq. dielectric constant tensor:
#      x y z
#    x 1.703110 0.000000 0.000000 
#    y 0.000000 1.703110 0.000000 
#    z 0.000000 0.000000 1.685690 
# 
# From -- ./inp_files/1150.got.cif
#   From: 2010.03.12/outbox.cif.g09.slc.cpg/sg175_1_cif.got.tgz:1150.got - 2010.04.02 06:55:29.
