data_PCOD8325592
_publ_section_title
;
Structure prediction by ZEFSAII (Michael W. Deem and Ramdas Pophale) SiO2 
 PCOD8325592
Probable space group: P 63/M
;
_chemical_formula_sum "Si O2"
_cell_formula_units_Z 84
_cell_length_a 17.046506
_cell_length_b 17.046506
_cell_length_c 17.207098
_cell_angle_alpha 90.000000
_cell_angle_beta 90.000000
_cell_angle_gamma 120.000000
_cell_volume 4330.210564
_symmetry_space_group_name_H-M "P 63/M"
_symmetry_group_IT_number 176
_symmetry_cell_setting 'hexagonal'
loop_
_space_group_symop_operation_xyz
x,y,z
x-y,x,1/2+z
-y,x-y,z
-x,-y,1/2+z
-x+y,-x,z
y,-x+y,1/2+z
-x,-y,-z
-x+y,-x,1/2-z
y,-x+y,-z
x,y,1/2-z
x-y,x,-z
-y,x-y,1/2-z
loop_
_atom_site_type_symbol
_atom_site_label
_atom_site_fract_x
_atom_site_fract_y
_atom_site_fract_z
Si Si1 0.426377 0.941849 0.660493
Si Si2 0.145424 0.943796 0.486175
Si Si3 0.248246 0.954531 0.163533
Si Si4 0.438948 0.124640 0.339529
Si Si5 0.469938 0.267111 0.892957
Si Si6 0.252809 0.855301 0.559117
Si Si7 0.541466 0.148952 0.661103
O O1 0.395193 0.927952 0.750000
O O2 0.470712 0.879785 0.639729
O O3 0.340895 0.921594 0.608263
O O4 0.503939 0.044032 0.644125
O O5 0.182529 0.962083 0.398395
O O6 0.193723 0.903485 0.541416
O O7 0.038713 0.874521 0.479005
O O8 0.220324 0.969171 0.250000
O O9 0.239801 0.856818 0.160346
O O10 0.351729 0.027566 0.144674
O O11 0.442329 0.153818 0.250000
O O12 0.434630 0.197567 0.393808
O O13 0.557443 0.353109 0.858737
O O14 0.487577 0.183066 0.892671
O O15 0.452761 0.287169 0.979999
O O16 0.527277 0.166863 0.750000
#
# Coordination Sequence:
#
# PCOD8325592 Si02
#       7
#    12  12  12  12  12  12  12
#     4  10  23  41  65  93 121 163 210 260 308 362
#     4  11  24  44  66  95 127 167 207 268 330 381
#     4  10  20  40  65  91 119 162 211 250 313 384
#     4  10  20  42  68  87 122 167 209 256 313 374
#     4  11  24  36  59  88 125 165 199 252 307 362
#     4  11  25  40  63  93 127 159 214 257 314 373
#     4  11  22  39  60  87 122 162 206 247 301 362
#
# _framework density 19.398596000000001
#
# number of rings (size 3 to 8) (size 9 to 14) (size 15 to 20)
#    0.000    1.429    2.857    2.143    6.000    0.571 
#    0.857    1.429    0.000    0.000    0.000    0.000 
#    0.000    0.000    0.000    0.000    0.000    0.000 
#
# Total GULP energy -1041910.072359 kJ/mol
# GULP energy per Si atom -12403.691338 kJ/mol
# Density = 1.935444 g / cm^3
# Si number density = 19.398596 Si / 1000 Ang^3
#
#
#
# Elastic Constant Matrix: (Units=GPa)
#
#
# Indices 1 2 3 4 5 6 
#
# 1 89.7624 26.9645 37.0549 0.0000 0.0000 0.0000
# 2 26.9645 89.7624 37.0549 0.0000 0.0000 0.0000
# 3 37.0549 37.0549 85.5936 0.0000 0.0000 0.0000
# 4 0.0000 0.0000 0.0000 25.8010 0.0000 0.0000
# 5 0.0000 0.0000 0.0000 0.0000 25.8010 0.0000
# 6 0.0000 0.0000 0.0000 0.0000 0.0000 31.3990
#
#
#
# Elastic Compliance Matrix: (Units=1/GPa)
#
#
# Indices 1 2 3 4 5 6 
#
# 1 0.013869 -0.002055 -0.005115 0.000000 0.000000 0.000000
# 2 -0.002055 0.013869 -0.005115 0.000000 0.000000 0.000000
# 3 -0.005115 -0.005115 0.016112 0.000000 0.000000 0.000000
# 4 0.000000 0.000000 0.000000 0.038758 0.000000 0.000000
# 5 0.000000 0.000000 0.000000 0.000000 0.038758 0.000000
# 6 0.000000 0.000000 0.000000 0.000000 0.000000 0.031848
#
#
# Mechanical properties :
#
#
# Convention : Reuss Voigt Hill
#
# Bulk Modulus (GPa) = 51.86275 51.91854 51.89064
# Shear Modulus (GPa) = 27.14295 27.53646 27.33970
#
# Velocity S-wave (km/s) = 3.74468 3.77172 3.75822
# Velocity P-wave (km/s) = 6.74464 6.76683 6.75575
#
# Compressibility (1/GPa) = 0.01928166
#
# Stress axis : x y z
#
# Youngs Moduli (GPa) = 72.10231 72.10231 62.06744
#
# Poissons Ratio (x) = 0.14816 0.31745
# Poissons Ratio (y) = 0.14816 0.31745
# Poissons Ratio (z) = 0.36877 0.36877
#
# Static dielectric constant tensor:
#      x y z
#    x 3.483270 0.000000 0.000000 
#    y 0.000000 3.483270 0.000000 
#    z 0.000000 0.000000 3.589900 
# 
# 
# High freq. dielectric constant tensor:
#      x y z
#    x 1.754860 0.000000 0.000000 
#    y 0.000000 1.754860 0.000000 
#    z 0.000000 0.000000 1.759720 
# 
# From -- ./inp_files/2921.got.cif
#   From: 2010.06.25/outbox.cif.g09.slc.cpg/sg176_2_cif.got.tgz:2921.got - 2010.06.28 12:15:01.
