data_PCOD8325508
_publ_section_title
;
Structure prediction by ZEFSAII (Michael W. Deem and Ramdas Pophale) SiO2 
 PCOD8325508
Probable space group: P 63/M
;
_chemical_formula_sum "Si O2"
_cell_formula_units_Z 36
_cell_length_a 15.564127
_cell_length_b 15.564127
_cell_length_c 8.319501
_cell_angle_alpha 90.000000
_cell_angle_beta 90.000000
_cell_angle_gamma 120.000000
_cell_volume 1745.329550
_symmetry_space_group_name_H-M "P 63/M"
_symmetry_group_IT_number 176
_symmetry_cell_setting 'hexagonal'
loop_
_space_group_symop_operation_xyz
x,y,z
x-y,x,1/2+z
-y,x-y,z
-x,-y,1/2+z
-x+y,-x,z
y,-x+y,1/2+z
-x,-y,-z
-x+y,-x,1/2-z
y,-x+y,-z
x,y,1/2-z
x-y,x,-z
-y,x-y,1/2-z
loop_
_atom_site_type_symbol
_atom_site_label
_atom_site_fract_x
_atom_site_fract_y
_atom_site_fract_z
Si Si1 0.117064 0.216804 0.563189
Si Si2 0.220621 0.778358 0.941109
Si Si3 0.443751 0.888999 0.940702
O O1 0.162083 0.162540 0.459504
O O2 0.141285 0.213724 0.750000
O O3 0.166060 0.329088 0.498069
O O4 0.223471 0.778433 0.750000
O O5 0.332201 0.835081 0.010218
O O6 0.166141 0.666573 0.008753
O O7 0.442146 0.886048 0.750000
O O8 0.500000 0.000000 0.000000
#
# Coordination Sequence:
#
# PCOD8325508 Si02
#       3
#    12  12  12
#     4  11  22  37  55  79 107 140 177 219 265 313
#     4   9  19  34  56  81 108 140 176 213 260 314
#     4  10  19  35  56  80 107 140 177 216 258 311
#
# _framework density 20.626476
#
# number of rings (size 3 to 8) (size 9 to 14) (size 15 to 20)
#    0.000    2.000    0.000    4.000    0.000    2.667 
#    0.000    5.000    0.000    0.000    0.000    0.000 
#    0.000    0.000    0.000    0.000    0.000    0.000 
#
# Total GULP energy -446532.221764 kJ/mol
# GULP energy per Si atom -12403.672827 kJ/mol
# Density = 2.057953 g / cm^3
# Si number density = 20.626476 Si / 1000 Ang^3
#
#
#
# Elastic Constant Matrix: (Units=GPa)
#
#
# Indices 1 2 3 4 5 6 
#
# 1 198.1718 97.2609 4.8699 0.0000 0.0000 0.0000
# 2 97.2609 198.1718 4.8699 0.0000 0.0000 0.0000
# 3 4.8699 4.8699 19.8064 0.0000 0.0000 0.0000
# 4 0.0000 0.0000 0.0000 7.6300 0.0000 0.0000
# 5 0.0000 0.0000 0.0000 0.0000 7.6300 0.0000
# 6 0.0000 0.0000 0.0000 0.0000 0.0000 50.4555
#
#
#
# Elastic Compliance Matrix: (Units=1/GPa)
#
#
# Indices 1 2 3 4 5 6 
#
# 1 0.006661 -0.003249 -0.000839 0.000000 0.000000 0.000000
# 2 -0.003249 0.006661 -0.000839 0.000000 0.000000 0.000000
# 3 -0.000839 -0.000839 0.050901 0.000000 0.000000 0.000000
# 4 0.000000 0.000000 0.000000 0.131061 0.000000 0.000000
# 5 0.000000 0.000000 0.000000 0.000000 0.131061 0.000000
# 6 0.000000 0.000000 0.000000 0.000000 0.000000 0.019819
#
#
# Mechanical properties :
#
#
# Convention : Reuss Voigt Hill
#
# Bulk Modulus (GPa) = 18.39242 70.01680 44.20461
# Shear Modulus (GPa) = 13.36388 33.75305 23.55846
#
# Velocity S-wave (km/s) = 2.54815 4.04963 3.38323
# Velocity P-wave (km/s) = 4.19448 7.47561 6.06129
#
# Compressibility (1/GPa) = 0.05437024
#
# Stress axis : x y z
#
# Youngs Moduli (GPa) = 150.12469 150.12469 19.64583
#
# Poissons Ratio (x) = 0.48770 0.01648
# Poissons Ratio (y) = 0.48770 0.01648
# Poissons Ratio (z) = 0.12596 0.12596
#
# Static dielectric constant tensor:
#      x y z
#    x 4.014870 0.000000 0.000000 
#    y 0.000000 4.014870 0.000000 
#    z 0.000000 0.000000 3.256200 
# 
# 
# High freq. dielectric constant tensor:
#      x y z
#    x 1.825990 0.000000 0.000000 
#    y 0.000000 1.825990 0.000000 
#    z 0.000000 0.000000 1.767630 
# 
# From -- ./inp_files/351.got.cif
#   From: 2010.06.25/outbox.cif.g09.slc.cpg/sg176_1_cif.got.tgz:351.got - 2010.06.28 12:15:01.
