data_PCOD8325759
_publ_section_title
;
Structure prediction by ZEFSAII (Michael W. Deem and Ramdas Pophale) SiO2 
 PCOD8325759
Probable space group: P 61 2 2
;
_chemical_formula_sum "Si O2"
_cell_formula_units_Z 84
_cell_length_a 13.816546
_cell_length_b 13.816546
_cell_length_c 31.404647
_cell_angle_alpha 90.000000
_cell_angle_beta 90.000000
_cell_angle_gamma 120.000000
_cell_volume 5191.866567
_symmetry_space_group_name_H-M "P 61 2 2"
_symmetry_group_IT_number 178
_symmetry_cell_setting 'hexagonal'
loop_
_space_group_symop_operation_xyz
x,y,z
x-y,x,1/6+z
-y,x-y,1/3+z
-x,-y,1/2+z
-x+y,-x,2/3+z
y,-x+y,5/6+z
x-y,-y,-z
-x,-x+y,2/3-z
y,x,1/3-z
-y,-x,5/6-z
-x+y,y,1/2-z
x,x-y,1/6-z
loop_
_atom_site_type_symbol
_atom_site_label
_atom_site_fract_x
_atom_site_fract_y
_atom_site_fract_z
Si Si1 0.501474 0.423848 0.761407
Si Si2 0.634442 0.119044 0.489265
Si Si3 0.165391 0.551262 0.759264
Si Si4 0.335759 0.499266 0.337803
Si Si5 0.199318 0.706975 0.601882
Si Si6 0.406729 0.363888 0.915783
Si Si7 0.511783 0.251061 0.302966
O O1 0.584217 0.476470 0.723068
O O2 0.399104 0.448022 0.758270
O O3 0.568367 0.480868 0.804579
O O4 0.459069 0.292703 0.758894
O O5 0.568993 0.151517 0.524241
O O6 0.761636 0.215353 0.483345
O O7 0.624803 0.000000 0.500000
O O8 0.258508 0.517015 0.750000
O O9 0.191301 0.664353 0.734677
O O10 0.311386 0.402259 0.371496
O O11 0.373908 0.619501 0.360254
O O12 0.229798 0.614899 0.583334
O O13 0.190435 0.701119 0.653498
O O14 0.086158 0.692394 0.579755
O O15 0.518988 0.481013 0.916667
O O16 0.411146 0.285932 0.877617
#
# Coordination Sequence:
#
# PCOD8325759 Si02
#       7
#    12  12  12  12  12  12  12
#     4  10  21  30  45  70  99 131 165 198 248 300
#     4  10  19  30  45  67  97 130 160 191 240 302
#     4  11  19  32  49  68  98 132 165 197 246 307
#     4  10  16  31  47  68  98 126 162 198 246 296
#     4  10  20  32  47  72 105 128 164 210 251 291
#     4   9  17  29  48  71  94 131 166 202 245 303
#     4  10  17  30  50  69  95 135 161 196 256 292
#
# _framework density 16.179151999999998
#
# number of rings (size 3 to 8) (size 9 to 14) (size 15 to 20)
#    0.000    2.000    2.857    3.429    0.000    1.143 
#    0.000    0.000    0.000    0.000    0.000    0.000 
#    8.571    0.000    0.000    0.000    0.000    0.000 
#
# Total GULP energy -1040706.127100 kJ/mol
# GULP energy per Si atom -12389.358656 kJ/mol
# Density = 1.614233 g / cm^3
# Si number density = 16.179152 Si / 1000 Ang^3
#
#
#
# Elastic Constant Matrix: (Units=GPa)
#
#
# Indices 1 2 3 4 5 6 
#
# 1 68.1167 40.4919 10.3842 0.0000 0.0000 0.0000
# 2 40.4919 68.1167 10.3842 0.0000 0.0000 0.0000
# 3 10.3842 10.3842 54.6655 0.0000 0.0000 0.0000
# 4 0.0000 0.0000 0.0000 21.5547 0.0000 0.0000
# 5 0.0000 0.0000 0.0000 0.0000 21.5547 0.0000
# 6 0.0000 0.0000 0.0000 0.0000 0.0000 13.8124
#
#
#
# Elastic Compliance Matrix: (Units=1/GPa)
#
#
# Indices 1 2 3 4 5 6 
#
# 1 0.022877 -0.013322 -0.001815 0.000000 0.000000 0.000000
# 2 -0.013322 0.022877 -0.001815 0.000000 0.000000 0.000000
# 3 -0.001815 -0.001815 0.018983 0.000000 0.000000 0.000000
# 4 0.000000 0.000000 0.000000 0.046394 0.000000 0.000000
# 5 0.000000 0.000000 0.000000 0.000000 0.046394 0.000000
# 6 0.000000 0.000000 0.000000 0.000000 0.000000 0.072399
#
#
# Mechanical properties :
#
#
# Convention : Reuss Voigt Hill
#
# Bulk Modulus (GPa) = 32.43420 34.82440 33.62930
# Shear Modulus (GPa) = 18.24122 20.02692 19.13407
#
# Velocity S-wave (km/s) = 3.36140 3.52209 3.44268
# Velocity P-wave (km/s) = 5.92923 6.17342 6.05256
#
# Compressibility (1/GPa) = 0.03083166
#
# Stress axis : x y z
#
# Youngs Moduli (GPa) = 43.71216 43.71216 52.67978
#
# Poissons Ratio (x) = 0.58235 0.09561
# Poissons Ratio (y) = 0.58235 0.09561
# Poissons Ratio (z) = 0.07934 0.07934
#
# Static dielectric constant tensor:
#      x y z
#    x 1.444800 0.000000 0.000000 
#    y 0.000000 1.444800 0.000000 
#    z 0.000000 0.000000 1.948080 
# 
# 
# High freq. dielectric constant tensor:
#      x y z
#    x 1.591360 0.000000 0.000000 
#    y 0.000000 1.591360 0.000000 
#    z 0.000000 0.000000 1.643520 
# 
# From -- ./inp_files/8975.got.cif
#   From: 2010.03.12/outbox.cif.g09.slc.cpg/sg178_5_cif.got.tgz:8975.got - 2010.04.02 07:02:38.
