data_PCOD8325670
_publ_section_title
;
Structure prediction by ZEFSAII (Michael W. Deem and Ramdas Pophale) SiO2 
 PCOD8325670
Probable space group: P 63/M
;
_chemical_formula_sum "Si O2"
_cell_formula_units_Z 48
_cell_length_a 17.651199
_cell_length_b 17.651199
_cell_length_c 8.439864
_cell_angle_alpha 90.000000
_cell_angle_beta 90.000000
_cell_angle_gamma 120.000000
_cell_volume 2277.269883
_symmetry_space_group_name_H-M "P 63/M"
_symmetry_group_IT_number 176
_symmetry_cell_setting 'hexagonal'
loop_
_space_group_symop_operation_xyz
x,y,z
x-y,x,1/2+z
-y,x-y,z
-x,-y,1/2+z
-x+y,-x,z
y,-x+y,1/2+z
-x,-y,-z
-x+y,-x,1/2-z
y,-x+y,-z
x,y,1/2-z
x-y,x,-z
-y,x-y,1/2-z
loop_
_atom_site_type_symbol
_atom_site_label
_atom_site_fract_x
_atom_site_fract_y
_atom_site_fract_z
Si Si1 0.986635 0.831289 0.069189
Si Si2 0.496363 0.668816 0.431888
Si Si3 0.674338 0.000249 0.565751
Si Si4 0.168600 0.665010 0.932860
O O1 0.958702 0.830538 0.250000
O O2 0.989656 0.743918 0.036956
O O3 0.915320 0.834385 0.957689
O O4 0.499508 0.697037 0.250000
O O5 0.578468 0.657643 0.475046
O O6 0.496890 0.741789 0.544108
O O7 0.409416 0.577208 0.459376
O O8 0.695502 0.997898 0.750000
O O9 0.589260 0.911070 0.513057
O O10 0.159061 0.636452 0.750000
#
# Coordination Sequence:
#
# PCOD8325670 Si02
#       4
#    12  12  12  12
#     4  12  25  42  65  92 125 162 203 250 301 358
#     4  11  23  40  62  89 122 159 202 250 302 360
#     4  10  23  42  64  92 123 158 202 250 303 362
#     4  11  23  40  62  89 122 159 202 250 302 360
#
# _framework density 21.077871999999999
#
# number of rings (size 3 to 8) (size 9 to 14) (size 15 to 20)
#    0.000    1.000    0.000    6.750    0.000    8.000 
#    0.000    0.000    0.000    0.000    0.000    0.000 
#    0.000    0.000    0.000    0.000    0.000    0.000 
#
# Total GULP energy -595671.824951 kJ/mol
# GULP energy per Si atom -12409.829686 kJ/mol
# Density = 2.102990 g / cm^3
# Si number density = 21.077872 Si / 1000 Ang^3
#
#
#
# Elastic Constant Matrix: (Units=GPa)
#
#
# Indices 1 2 3 4 5 6 
#
# 1 77.7987 -10.1450 25.3421 0.0000 0.0000 0.0000
# 2 -10.1450 77.7987 25.3421 0.0000 0.0000 0.0000
# 3 25.3421 25.3421 59.0512 0.0000 0.0000 0.0000
# 4 0.0000 0.0000 0.0000 3799.7283 0.0004 0.0000
# 5 0.0000 0.0000 0.0000 0.0004 3799.7318 0.0000
# 6 0.0000 0.0000 0.0000 0.0000 0.0000 43.9718
#
#
#
# Elastic Compliance Matrix: (Units=1/GPa)
#
#
# Indices 1 2 3 4 5 6 
#
# 1 0.016578 0.005207 -0.009349 0.000000 0.000000 0.000000
# 2 0.005207 0.016578 -0.009349 0.000000 0.000000 0.000000
# 3 -0.009349 -0.009349 0.024959 0.000000 0.000000 0.000000
# 4 0.000000 0.000000 0.000000 0.000263 0.000000 0.000000
# 5 0.000000 0.000000 0.000000 0.000000 0.000263 0.000000
# 6 0.000000 0.000000 0.000000 0.000000 0.000000 0.022742
#
#
# Mechanical properties :
#
#
# Convention : Reuss Voigt Hill
#
# Bulk Modulus (GPa) = 32.12068 32.85858 32.48963
# Shear Modulus (GPa) = 42.10740 1540.29368 791.20054
#
# Velocity S-wave (km/s) = 4.47442 27.06196 19.39549
# Velocity P-wave (km/s) = 6.47812 31.49745 22.73824
#
# Compressibility (1/GPa) = 0.03113259
#
# Stress axis : x y z
#
# Youngs Moduli (GPa) = 60.32032 60.32032 40.06554
#
# Poissons Ratio (x) = -0.31410 0.37459
# Poissons Ratio (y) = -0.31410 0.37459
# Poissons Ratio (z) = 0.56395 0.56395
#
# Static dielectric constant tensor:
#      x y z
#    x 3.871460 0.000000 0.000000 
#    y 0.000000 3.871460 0.000000 
#    z 0.000000 0.000000 3.461360 
# 
# 
# High freq. dielectric constant tensor:
#      x y z
#    x 1.840530 0.000000 0.000000 
#    y 0.000000 1.840530 0.000000 
#    z 0.000000 0.000000 1.827350 
# 
# From -- ./inp_files/559.got.cif
#   From: 2010.06.25/outbox.cif.g09.slc.cpg/sg176_1_cif.got.tgz:559.got - 2010.06.28 12:15:01.
