data_PCOD8325718
_publ_section_title
;
Structure prediction by ZEFSAII (Michael W. Deem and Ramdas Pophale) SiO2 
 PCOD8325718
Probable space group: P 63/M
;
_chemical_formula_sum "Si O2"
_cell_formula_units_Z 70
_cell_length_a 14.092073
_cell_length_b 14.092073
_cell_length_c 18.564038
_cell_angle_alpha 90.000000
_cell_angle_beta 90.000000
_cell_angle_gamma 120.000000
_cell_volume 3192.661307
_symmetry_space_group_name_H-M "P 63/M"
_symmetry_group_IT_number 176
_symmetry_cell_setting 'hexagonal'
loop_
_space_group_symop_operation_xyz
x,y,z
x-y,x,1/2+z
-y,x-y,z
-x,-y,1/2+z
-x+y,-x,z
y,-x+y,1/2+z
-x,-y,-z
-x+y,-x,1/2-z
y,-x+y,-z
x,y,1/2-z
x-y,x,-z
-y,x-y,1/2-z
loop_
_atom_site_type_symbol
_atom_site_label
_atom_site_fract_x
_atom_site_fract_y
_atom_site_fract_z
Si Si1 0.424896 0.621888 0.250000
Si Si2 0.719007 0.063905 0.405517
Si Si3 0.333334 0.666667 0.834252
Si Si4 0.397198 0.160907 0.518846
Si Si5 0.941740 0.756868 0.750000
Si Si6 0.942553 0.750022 0.250000
Si Si7 0.591999 0.471082 0.416642
Si Si8 0.089529 0.414095 0.133013
O O1 0.457124 0.751185 0.250000
O O2 0.475510 0.601242 0.178834
O O3 0.821948 0.160085 0.448467
O O4 0.613830 0.078150 0.418539
O O5 0.690749 0.947508 0.439295
O O6 0.745764 0.067670 0.320695
O O7 0.333334 0.666668 0.750000
O O8 0.220443 0.655345 0.861351
O O9 0.507113 0.157898 0.495006
O O10 0.441025 0.267591 0.568315
O O11 0.864607 0.809759 0.750000
O O12 0.914719 0.682698 0.679751
O O13 0.067498 0.848964 0.750000
O O14 0.622391 0.592747 0.395481
#
# Coordination Sequence:
#
# PCOD8325718 Si02
#       8
#     6  12   4  12   6   6  12  12
#     4   9  24  42  63 104 134 185 240 301 352 428
#     4  12  28  45  77 105 151 196 249 307 384 445
#     4  12  30  48  72 111 153 199 251 307 381 465
#     4  12  25  47  68 107 142 194 245 301 373 449
#     4  11  25  47  72 107 141 187 243 313 367 445
#     4  12  27  49  77 107 143 194 251 314 373 457
#     4  12  27  47  71 108 147 194 247 303 370 449
#     4  11  25  43  74  99 147 190 240 300 371 436
#
# _framework density 21.925283
#
# number of rings (size 3 to 8) (size 9 to 14) (size 15 to 20)
#    0.171    0.343    5.143    1.714    6.000    0.000 
#    0.000    0.000    0.000    1.371    0.000    0.000 
#    0.000    0.000    0.000    0.000    0.000    0.000 
#
# Total GULP energy -868098.148368 kJ/mol
# GULP energy per Si atom -12401.402120 kJ/mol
# Density = 2.187538 g / cm^3
# Si number density = 21.925283 Si / 1000 Ang^3
#
#
#
# Elastic Constant Matrix: (Units=GPa)
#
#
# Indices 1 2 3 4 5 6 
#
# 1 97.3525 47.7886 56.2002 0.0000 0.0000 0.0017
# 2 47.7886 97.3539 56.1997 0.0000 0.0000 -0.0006
# 3 56.2002 56.1997 160.4832 0.0000 0.0000 -0.0002
# 4 0.0000 0.0000 0.0000 -89.3511 0.0115 0.0000
# 5 0.0000 0.0000 0.0000 0.0115 -89.3354 0.0000
# 6 0.0017 -0.0006 -0.0002 0.0000 0.0000 24.7805
#
#
#
# Elastic Compliance Matrix: (Units=1/GPa)
#
#
# Indices 1 2 3 4 5 6 
#
# 1 0.014815 -0.005361 -0.003311 0.000000 0.000000 -0.000001
# 2 -0.005361 0.014814 -0.003310 0.000000 0.000000 0.000001
# 3 -0.003311 -0.003310 0.008550 0.000000 0.000000 0.000000
# 4 0.000000 0.000000 0.000000 -0.011192 -0.000001 0.000000
# 5 0.000000 0.000000 0.000000 -0.000001 -0.011194 0.000000
# 6 -0.000001 0.000001 0.000000 0.000000 0.000000 0.040354
#
#
# Mechanical properties :
#
#
# Convention : Reuss Voigt Hill
#
# Bulk Modulus (GPa) = 70.34961 75.06295 72.70628
# Shear Modulus (GPa) = 58.92717 -17.78112 20.57302
#
# Velocity S-wave (km/s) = 5.18987 -2.85087 3.06653
# Velocity P-wave (km/s) = 8.25037 4.84494 6.76543
#
# Compressibility (1/GPa) = 0.01421472
#
# Stress axis : x y z
#
# Youngs Moduli (GPa) = 67.50005 67.50155 116.96120
#
# Poissons Ratio (x) = 0.36188 0.38722
# Poissons Ratio (y) = 0.36187 0.38720
# Poissons Ratio (z) = 0.22347 0.22346
#
# Static dielectric constant tensor:
#      x y z
#    x 4.019680 0.000010 0.000000 
#    y 0.000010 4.019670 0.000000 
#    z 0.000000 0.000000 4.202130 
# 
# 
# High freq. dielectric constant tensor:
#      x y z
#    x 1.866290 0.000000 0.000000 
#    y 0.000000 1.866290 0.000000 
#    z 0.000000 0.000000 1.876270 
# 
# From -- ./inp_files/3426.got.cif
#   From: 2010.06.25/outbox.cif.g09.slc.cpg/sg176_2_cif.got.tgz:3426.got - 2010.06.28 12:15:01.
