data_PCOD8325972
_publ_section_title
;
Structure prediction by ZEFSAII (Michael W. Deem and Ramdas Pophale) SiO2 
 PCOD8325972
Probable space group: P 61 2 2
;
_chemical_formula_sum "Si O2"
_cell_formula_units_Z 66
_cell_length_a 13.877139
_cell_length_b 13.877139
_cell_length_c 18.667614
_cell_angle_alpha 90.000000
_cell_angle_beta 90.000000
_cell_angle_gamma 120.000000
_cell_volume 3113.288165
_symmetry_space_group_name_H-M "P 61 2 2"
_symmetry_group_IT_number 178
_symmetry_cell_setting 'hexagonal'
loop_
_space_group_symop_operation_xyz
x,y,z
x-y,x,1/6+z
-y,x-y,1/3+z
-x,-y,1/2+z
-x+y,-x,2/3+z
y,-x+y,5/6+z
x-y,-y,-z
-x,-x+y,2/3-z
y,x,1/3-z
-y,-x,5/6-z
-x+y,y,1/2-z
x,x-y,1/6-z
loop_
_atom_site_type_symbol
_atom_site_label
_atom_site_fract_x
_atom_site_fract_y
_atom_site_fract_z
Si Si1 0.742165 0.257836 0.916667
Si Si2 0.646536 0.685473 0.905411
Si Si3 0.557709 0.820739 0.660836
Si Si4 0.488056 0.424123 0.805777
Si Si5 0.141079 0.637716 0.721360
Si Si6 0.348232 0.114562 0.468396
O O1 0.632404 0.225118 0.871124
O O2 0.840264 0.280699 0.862982
O O3 0.734488 0.665953 0.859544
O O4 0.562955 0.696636 0.850507
O O5 0.699018 0.801577 0.950189
O O6 0.579357 0.578163 0.955751
O O7 0.588459 0.794230 0.583334
O O8 0.447580 0.835231 0.658292
O O9 0.535229 0.719414 0.711634
O O10 0.511545 0.531959 0.759194
O O11 0.409222 0.308753 0.766916
O O12 0.246384 0.000000 0.500000
#
# Coordination Sequence:
#
# PCOD8325972 Si02
#       6
#     6  12  12  12  12  12
#     4  12  24  34  60 100 132 186 224 282 336 414
#     4  11  25  43  63  93 144 186 229 291 345 420
#     4  11  25  41  64  97 141 188 230 280 349 429
#     4  11  24  45  63 100 146 183 234 285 347 423
#     4  11  23  41  64  93 141 180 229 279 345 419
#     4  12  23  42  63  92 139 185 237 279 350 412
#
# _framework density 21.199452000000001
#
# number of rings (size 3 to 8) (size 9 to 14) (size 15 to 20)
#    0.000    0.727    3.636    4.364    5.091    2.182 
#    0.000    0.000    0.000    0.000    0.000    0.000 
#  390.000    0.000    0.000    0.000    0.000    0.000 
#
# Total GULP energy -817954.097400 kJ/mol
# GULP energy per Si atom -12393.243900 kJ/mol
# Density = 2.115120 g / cm^3
# Si number density = 21.199452 Si / 1000 Ang^3
#
#
#
# Elastic Constant Matrix: (Units=GPa)
#
#
# Indices 1 2 3 4 5 6 
#
# 1 109.2177 44.7419 53.3140 0.0000 0.0000 0.0000
# 2 44.7419 109.2177 53.3140 0.0000 0.0000 0.0000
# 3 53.3140 53.3140 127.4958 0.0000 0.0000 0.0000
# 4 0.0000 0.0000 0.0000 32.0744 0.0000 0.0000
# 5 0.0000 0.0000 0.0000 0.0000 32.0744 0.0000
# 6 0.0000 0.0000 0.0000 0.0000 0.0000 32.2379
#
#
#
# Elastic Compliance Matrix: (Units=1/GPa)
#
#
# Indices 1 2 3 4 5 6 
#
# 1 0.012326 -0.003183 -0.003823 0.000000 0.000000 0.000000
# 2 -0.003183 0.012326 -0.003823 0.000000 0.000000 0.000000
# 3 -0.003823 -0.003823 0.011041 0.000000 0.000000 0.000000
# 4 0.000000 0.000000 0.000000 0.031178 0.000000 0.000000
# 5 0.000000 0.000000 0.000000 0.000000 0.031178 0.000000
# 6 0.000000 0.000000 0.000000 0.000000 0.000000 0.031019
#
#
# Mechanical properties :
#
#
# Convention : Reuss Voigt Hill
#
# Bulk Modulus (GPa) = 71.25590 72.07456 71.66523
# Shear Modulus (GPa) = 32.17379 32.24809 32.21094
#
# Velocity S-wave (km/s) = 3.89996 3.90446 3.90221
# Velocity P-wave (km/s) = 7.34606 7.37553 7.36081
#
# Compressibility (1/GPa) = 0.01403393
#
# Stress axis : x y z
#
# Youngs Moduli (GPa) = 81.12659 81.12659 90.57208
#
# Poissons Ratio (x) = 0.25825 0.34629
# Poissons Ratio (y) = 0.25825 0.34629
# Poissons Ratio (z) = 0.31017 0.31017
#
# Static dielectric constant tensor:
#      x y z
#    x 3.818200 0.000000 0.000000 
#    y 0.000000 3.818200 0.000000 
#    z 0.000000 0.000000 4.119520 
# 
# 
# High freq. dielectric constant tensor:
#      x y z
#    x 1.815070 0.000000 0.000000 
#    y 0.000000 1.815070 0.000000 
#    z 0.000000 0.000000 1.847280 
# 
# From -- ./inp_files/6671.got.cif
#   From: 2010.03.12/outbox.cif.g09.slc.cpg/sg178_4_cif.got.tgz:6671.got - 2010.04.02 07:02:38.
