data_PCOD8325871
_publ_section_title
;
Structure prediction by ZEFSAII (Michael W. Deem and Ramdas Pophale) SiO2 
 PCOD8325871
Probable space group: P 61 2 2
;
_chemical_formula_sum "Si O2"
_cell_formula_units_Z 60
_cell_length_a 14.806463
_cell_length_b 14.806463
_cell_length_c 14.966513
_cell_angle_alpha 90.000000
_cell_angle_beta 90.000000
_cell_angle_gamma 120.000000
_cell_volume 2841.540893
_symmetry_space_group_name_H-M "P 61 2 2"
_symmetry_group_IT_number 178
_symmetry_cell_setting 'hexagonal'
loop_
_space_group_symop_operation_xyz
x,y,z
x-y,x,1/6+z
-y,x-y,1/3+z
-x,-y,1/2+z
-x+y,-x,2/3+z
y,-x+y,5/6+z
x-y,-y,-z
-x,-x+y,2/3-z
y,x,1/3-z
-y,-x,5/6-z
-x+y,y,1/2-z
x,x-y,1/6-z
loop_
_atom_site_type_symbol
_atom_site_label
_atom_site_fract_x
_atom_site_fract_y
_atom_site_fract_z
Si Si1 0.271468 0.390262 0.186836
Si Si2 0.309756 0.070658 0.700240
Si Si3 0.157247 0.392292 0.017965
Si Si4 0.382945 0.588651 0.598399
Si Si5 0.239481 0.760520 0.416667
Si Si6 0.929043 0.070958 0.916667
O O1 0.305590 0.305590 0.166667
O O2 0.168679 0.337357 0.250000
O O3 0.243095 0.426910 0.095054
O O4 0.362749 0.491983 0.237344
O O5 0.314050 0.140871 0.784560
O O6 0.415582 0.140668 0.647149
O O7 0.215699 0.035069 0.629994
O O8 0.293960 0.958607 0.728691
O O9 0.170496 0.496479 0.972980
O O10 0.350885 0.675443 0.583334
O O11 0.345341 0.546014 0.696878
O O12 0.000000 0.073389 0.833334
#
# Coordination Sequence:
#
# PCOD8325871 Si02
#       6
#    12  12  12  12   6   6
#     4  11  25  44  67  94 132 179 221 279 343 418
#     4  10  21  35  64  94 127 174 213 279 323 398
#     4  11  22  41  64  94 130 171 224 267 341 407
#     4  10  22  39  63  92 131 168 209 276 331 406
#     4   9  20  34  60  98 128 162 222 266 329 384
#     4  11  20  38  62  96 140 168 226 282 347 394
#
# _framework density 21.115303000000001
#
# number of rings (size 3 to 8) (size 9 to 14) (size 15 to 20)
#    0.000    1.600    2.000    2.400    2.800    2.400 
#    0.000    1.000    0.000    0.000    0.000    0.000 
#    0.000    0.000    0.000    0.000    0.000    0.000 
#
# Total GULP energy -743579.516660 kJ/mol
# GULP energy per Si atom -12392.991944 kJ/mol
# Density = 2.106724 g / cm^3
# Si number density = 21.115303 Si / 1000 Ang^3
#
#
#
# Elastic Constant Matrix: (Units=GPa)
#
#
# Indices 1 2 3 4 5 6 
#
# 1 103.5597 69.9880 36.4853 0.0000 0.0000 0.0000
# 2 69.9880 103.5597 36.4853 0.0000 0.0000 0.0000
# 3 36.4853 36.4853 102.7444 0.0000 0.0000 0.0000
# 4 0.0000 0.0000 0.0000 34.7787 0.0000 0.0000
# 5 0.0000 0.0000 0.0000 0.0000 34.7787 0.0000
# 6 0.0000 0.0000 0.0000 0.0000 0.0000 16.7858
#
#
#
# Elastic Compliance Matrix: (Units=1/GPa)
#
#
# Indices 1 2 3 4 5 6 
#
# 1 0.018280 -0.011507 -0.002405 0.000000 0.000000 0.000000
# 2 -0.011507 0.018280 -0.002405 0.000000 0.000000 0.000000
# 3 -0.002405 -0.002405 0.011441 0.000000 0.000000 0.000000
# 4 0.000000 0.000000 0.000000 0.028753 0.000000 0.000000
# 5 0.000000 0.000000 0.000000 0.000000 0.028753 0.000000
# 6 0.000000 0.000000 0.000000 0.000000 0.000000 0.059574
#
#
# Mechanical properties :
#
#
# Convention : Reuss Voigt Hill
#
# Bulk Modulus (GPa) = 65.07512 66.19790 65.63651
# Shear Modulus (GPa) = 24.65006 28.39564 26.52285
#
# Velocity S-wave (km/s) = 3.42043 3.67112 3.54799
# Velocity P-wave (km/s) = 6.81799 7.02767 6.92363
#
# Compressibility (1/GPa) = 0.01536686
#
# Stress axis : x y z
#
# Youngs Moduli (GPa) = 54.70390 54.70390 87.40363
#
# Poissons Ratio (x) = 0.62947 0.21023
# Poissons Ratio (y) = 0.62947 0.21023
# Poissons Ratio (z) = 0.13158 0.13158
#
# Static dielectric constant tensor:
#      x y z
#    x 3.666590 0.000000 0.000000 
#    y 0.000000 3.666590 0.000000 
#    z 0.000000 0.000000 3.740220 
# 
# 
# High freq. dielectric constant tensor:
#      x y z
#    x 1.819780 0.000000 0.000000 
#    y 0.000000 1.819780 0.000000 
#    z 0.000000 0.000000 1.837360 
# 
# From -- ./inp_files/5739.got.cif
#   From: 2010.03.12/outbox.cif.g09.slc.cpg/sg178_3_cif.got.tgz:5739.got - 2010.04.02 07:02:38.
