data_PCOD8325094
_publ_section_title
;
Structure prediction by ZEFSAII (Michael W. Deem and Ramdas Pophale) SiO2 
 PCOD8325094
Probable space group: P 6/M
;
_chemical_formula_sum "Si O2"
_cell_formula_units_Z 78
_cell_length_a 27.027638
_cell_length_b 27.027638
_cell_length_c 7.714700
_cell_angle_alpha 90.000000
_cell_angle_beta 90.000000
_cell_angle_gamma 120.000000
_cell_volume 4880.517351
_symmetry_space_group_name_H-M "P 6/M"
_symmetry_group_IT_number 175
_symmetry_cell_setting 'hexagonal'
loop_
_space_group_symop_operation_xyz
x,y,z
x-y,x,z
-y,x-y,z
-x,-y,z
-x+y,-x,z
y,-x+y,z
-x,-y,-z
-x+y,-x,-z
y,-x+y,-z
x,y,-z
x-y,x,-z
-y,x-y,-z
loop_
_atom_site_type_symbol
_atom_site_label
_atom_site_fract_x
_atom_site_fract_y
_atom_site_fract_z
Si Si1 0.066810 0.348214 0.500000
Si Si2 0.764781 0.233797 0.802032
Si Si3 0.655164 0.938369 0.500000
Si Si4 0.172525 0.536538 0.199466
Si Si5 0.947374 0.382115 0.691102
Si Si6 0.829535 0.357592 0.302993
Si Si7 0.814313 0.191290 0.500000
Si Si8 0.065127 0.424578 0.191919
O O1 0.121435 0.338177 0.500000
O O2 0.072082 0.384343 0.329350
O O3 0.003009 0.290488 0.500000
O O4 0.700510 0.208354 0.731962
O O5 0.789618 0.301543 0.805921
O O6 0.797501 0.212948 0.673464
O O7 0.766122 0.213527 0.000000
O O8 0.617132 0.933123 0.670126
O O9 0.665620 0.883932 0.500000
O O10 0.190658 0.595726 0.297187
O O11 0.106548 0.490885 0.237652
O O12 0.185371 0.553059 0.000000
O O13 0.962767 0.411347 0.500000
O O14 0.893761 0.384146 0.773623
O O15 0.001822 0.415889 0.813420
O O16 0.829625 0.338170 0.500000
O O17 0.080465 0.411438 0.000000
#
# Coordination Sequence:
#
# PCOD8325094 Si02
#       8
#     6  12   6  12  12  12   6  12
#     4  10  20  32  54  75 106 132 153 206 240 270
#     4  11  22  37  54  74  92 121 168 206 250 309
#     4   8  16  34  48  79 104 118 169 194 228 294
#     4  10  23  36  48  70  94 117 159 205 242 302
#     4   8  16  32  48  70 100 121 153 195 236 288
#     4  11  21  35  54  71  92 125 159 198 254 305
#     4  12  18  36  60  74 102 138 157 196 248 286
#     4  10  19  32  50  73  98 126 159 192 241 295
#
# _framework density 15.981913
#
# number of rings (size 3 to 8) (size 9 to 14) (size 15 to 20)
#    0.462    1.538    4.615    0.462    2.154    1.846 
#    0.923    3.077    0.000    0.000    0.000    0.000 
#    0.000    0.000    0.000    0.231    0.000    0.000 
#
# Total GULP energy -966351.585496 kJ/mol
# GULP energy per Si atom -12389.122891 kJ/mol
# Density = 1.594554 g / cm^3
# Si number density = 15.981913 Si / 1000 Ang^3
#
#
#
# Elastic Constant Matrix: (Units=GPa)
#
#
# Indices 1 2 3 4 5 6 
#
# 1 85.2988 42.2262 18.3745 0.0000 0.0000 0.0000
# 2 42.2262 85.2988 18.3745 0.0000 0.0000 0.0000
# 3 18.3745 18.3745 58.8090 0.0000 0.0000 0.0000
# 4 0.0000 0.0000 0.0000 12.2207 0.0000 0.0000
# 5 0.0000 0.0000 0.0000 0.0000 12.2207 0.0000
# 6 0.0000 0.0000 0.0000 0.0000 0.0000 21.5363
#
#
#
# Elastic Compliance Matrix: (Units=1/GPa)
#
#
# Indices 1 2 3 4 5 6 
#
# 1 0.015917 -0.007300 -0.002692 0.000000 0.000000 0.000000
# 2 -0.007300 0.015917 -0.002692 0.000000 0.000000 0.000000
# 3 -0.002692 -0.002692 0.018687 0.000000 0.000000 0.000000
# 4 0.000000 0.000000 0.000000 0.081828 0.000000 0.000000
# 5 0.000000 0.000000 0.000000 0.000000 0.081828 0.000000
# 6 0.000000 0.000000 0.000000 0.000000 0.000000 0.046433
#
#
# Mechanical properties :
#
#
# Convention : Reuss Voigt Hill
#
# Bulk Modulus (GPa) = 39.75865 43.03966 41.39916
# Shear Modulus (GPa) = 16.98583 19.22432 18.10507
#
# Velocity S-wave (km/s) = 3.26362 3.47202 3.36943
# Velocity P-wave (km/s) = 6.25563 6.56216 6.41073
#
# Compressibility (1/GPa) = 0.02515176
#
# Stress axis : x y z
#
# Youngs Moduli (GPa) = 62.82570 62.82570 53.51398
#
# Poissons Ratio (x) = 0.45860 0.14409
# Poissons Ratio (y) = 0.45860 0.14409
# Poissons Ratio (z) = 0.16916 0.16916
#
# Static dielectric constant tensor:
#      x y z
#    x 2.967600 0.000000 0.000000 
#    y 0.000000 2.967600 0.000000 
#    z 0.000000 0.000000 2.980430 
# 
# 
# High freq. dielectric constant tensor:
#      x y z
#    x 1.586200 0.000000 0.000000 
#    y 0.000000 1.586200 0.000000 
#    z 0.000000 0.000000 1.617350 
# 
# From -- ./inp_files/1426.got.cif
#   From: 2010.03.12/outbox.cif.g09.slc.cpg/sg175_1_cif.got.tgz:1426.got - 2010.04.02 06:55:29.
