data_PCOD8325841
_publ_section_title
;
Structure prediction by ZEFSAII (Michael W. Deem and Ramdas Pophale) SiO2 
 PCOD8325841
Probable space group: P 61 2 2
;
_chemical_formula_sum "Si O2"
_cell_formula_units_Z 54
_cell_length_a 11.906291
_cell_length_b 11.906291
_cell_length_c 21.531910
_cell_angle_alpha 90.000000
_cell_angle_beta 90.000000
_cell_angle_gamma 120.000000
_cell_volume 2643.420011
_symmetry_space_group_name_H-M "P 61 2 2"
_symmetry_group_IT_number 178
_symmetry_cell_setting 'hexagonal'
loop_
_space_group_symop_operation_xyz
x,y,z
x-y,x,1/6+z
-y,x-y,1/3+z
-x,-y,1/2+z
-x+y,-x,2/3+z
y,-x+y,5/6+z
x-y,-y,-z
-x,-x+y,2/3-z
y,x,1/3-z
-y,-x,5/6-z
-x+y,y,1/2-z
x,x-y,1/6-z
loop_
_atom_site_type_symbol
_atom_site_label
_atom_site_fract_x
_atom_site_fract_y
_atom_site_fract_z
Si Si1 0.192560 0.937810 0.298008
Si Si2 0.068578 0.137155 0.750000
Si Si3 0.524956 0.695133 0.380144
Si Si4 0.526762 0.872743 0.926014
Si Si5 0.838968 0.435828 0.275288
O O1 0.180847 0.941055 0.371512
O O2 0.165892 0.798554 0.277657
O O3 0.075668 0.959077 0.274568
O O4 0.328959 0.055413 0.276150
O O5 0.436433 0.563568 0.416667
O O6 0.475947 0.668400 0.308197
O O7 0.511745 0.812952 0.410141
O O8 0.580524 0.025542 0.919629
O O9 0.421471 0.825467 0.982372
O O10 0.734660 0.469319 0.250000
#
# Coordination Sequence:
#
# PCOD8325841 Si02
#       5
#    12   6  12  12  12
#     4  11  22  40  66 101 129 172 227 287 333 403
#     4  10  20  36  68  94 128 166 226 280 340 388
#     4  11  26  42  65 102 139 174 225 279 349 407
#     4  11  23  40  70  92 134 179 225 282 329 408
#     4  10  23  42  66  99 132 175 224 274 344 400
#
# _framework density 20.428080000000001
#
# number of rings (size 3 to 8) (size 9 to 14) (size 15 to 20)
#    0.000    1.333    2.222    4.000    6.222    3.556 
#    0.000    4.444    0.000    0.000    0.000    0.000 
#    0.000    0.000    0.000    0.000    0.000    0.000 
#
# Total GULP energy -669004.696900 kJ/mol
# GULP energy per Si atom -12388.975869 kJ/mol
# Density = 2.038159 g / cm^3
# Si number density = 20.428080 Si / 1000 Ang^3
#
#
#
# Elastic Constant Matrix: (Units=GPa)
#
#
# Indices 1 2 3 4 5 6 
#
# 1 131.1856 52.6952 49.4257 0.0000 0.0000 0.0000
# 2 52.6952 131.1856 49.4257 0.0000 0.0000 0.0000
# 3 49.4257 49.4257 135.9043 0.0000 0.0000 0.0000
# 4 0.0000 0.0000 0.0000 30.3376 0.0000 0.0000
# 5 0.0000 0.0000 0.0000 0.0000 30.3376 0.0000
# 6 0.0000 0.0000 0.0000 0.0000 0.0000 39.2452
#
#
#
# Elastic Compliance Matrix: (Units=1/GPa)
#
#
# Indices 1 2 3 4 5 6 
#
# 1 0.009750 -0.002990 -0.002458 0.000000 0.000000 0.000000
# 2 -0.002990 0.009750 -0.002458 0.000000 0.000000 0.000000
# 3 -0.002458 -0.002458 0.009146 0.000000 0.000000 0.000000
# 4 0.000000 0.000000 0.000000 0.032962 0.000000 0.000000
# 5 0.000000 0.000000 0.000000 0.000000 0.032962 0.000000
# 6 0.000000 0.000000 0.000000 0.000000 0.000000 0.025481
#
#
# Mechanical properties :
#
#
# Convention : Reuss Voigt Hill
#
# Bulk Modulus (GPa) = 77.92806 77.92987 77.92897
# Shear Modulus (GPa) = 35.67757 36.43267 36.05512
#
# Velocity S-wave (km/s) = 4.18364 4.22768 4.20572
# Velocity P-wave (km/s) = 7.84650 7.87796 7.86225
#
# Compressibility (1/GPa) = 0.01283235
#
# Stress axis : x y z
#
# Youngs Moduli (GPa) = 102.56233 102.56233 109.33384
#
# Poissons Ratio (x) = 0.30669 0.26879
# Poissons Ratio (y) = 0.30669 0.26879
# Poissons Ratio (z) = 0.25214 0.25214
#
# Static dielectric constant tensor:
#      x y z
#    x 3.662450 0.000000 0.000000 
#    y 0.000000 3.662450 0.000000 
#    z 0.000000 0.000000 4.614360 
# 
# 
# High freq. dielectric constant tensor:
#      x y z
#    x 1.790730 0.000000 0.000000 
#    y 0.000000 1.790730 0.000000 
#    z 0.000000 0.000000 1.818880 
# 
# From -- ./inp_files/7395.got.cif
#   From: 2010.03.12/outbox.cif.g09.slc.cpg/sg178_4_cif.got.tgz:7395.got - 2010.04.02 07:02:38.
