data_PCOD8325359
_publ_section_title
;
Structure prediction by ZEFSAII (Michael W. Deem and Ramdas Pophale) SiO2 
 PCOD8325359
Probable space group: P 6/M
;
_chemical_formula_sum "Si O2"
_cell_formula_units_Z 72
_cell_length_a 23.994428
_cell_length_b 23.994428
_cell_length_c 8.711915
_cell_angle_alpha 90.000000
_cell_angle_beta 90.000000
_cell_angle_gamma 120.000000
_cell_volume 4343.752419
_symmetry_space_group_name_H-M "P 6/M"
_symmetry_group_IT_number 175
_symmetry_cell_setting 'hexagonal'
loop_
_space_group_symop_operation_xyz
x,y,z
x-y,x,z
-y,x-y,z
-x,-y,z
-x+y,-x,z
y,-x+y,z
-x,-y,-z
-x+y,-x,-z
y,-x+y,-z
x,y,-z
x-y,x,-z
-y,x-y,-z
loop_
_atom_site_type_symbol
_atom_site_label
_atom_site_fract_x
_atom_site_fract_y
_atom_site_fract_z
Si Si1 0.526853 0.926100 0.681621
Si Si2 0.596871 0.071006 0.318902
Si Si3 0.736485 0.595479 0.180174
Si Si4 0.410051 0.260127 0.318722
Si Si5 0.190493 0.927257 0.319561
Si Si6 0.930708 0.196691 0.316808
O O1 0.534078 0.919986 0.500000
O O2 0.453646 0.906109 0.725980
O O3 0.542742 0.877986 0.772033
O O4 0.573534 0.998975 0.741146
O O5 0.600680 0.067337 0.500000
O O6 0.667441 0.121800 0.254856
O O7 0.783131 0.569023 0.234661
O O8 0.754388 0.662668 0.259364
O O9 0.742025 0.605523 0.000000
O O10 0.417613 0.254604 0.500000
O O11 0.336892 0.239129 0.275315
O O12 0.187230 0.933023 0.500000
O O13 0.118939 0.875966 0.258243
O O14 0.216643 0.998443 0.249029
O O15 0.930877 0.199945 0.500000
#
# Coordination Sequence:
#
# PCOD8325359 Si02
#       6
#    12  12  12  12  12  12
#     4   9  16  30  50  71  92 115 142 180 221 263
#     4   8  15  28  51  75  90 109 145 183 220 263
#     4  11  21  30  41  64  93 122 150 179 216 260
#     4   9  16  29  47  67  88 115 147 181 217 259
#     4   8  14  24  44  67  86 110 144 180 219 262
#     4   9  16  29  46  64  85 115 150 185 221 263
#
# _framework density 16.575530000000001
#
# number of rings (size 3 to 8) (size 9 to 14) (size 15 to 20)
#    0.000    3.000    0.000    4.500    0.000    2.667 
#    0.000   10.000    0.000    1.000    0.000    4.667 
#    0.000    0.000    0.000    6.000    0.000    6.667 
#
# Total GULP energy -892390.865675 kJ/mol
# GULP energy per Si atom -12394.317579 kJ/mol
# Density = 1.653780 g / cm^3
# Si number density = 16.575530 Si / 1000 Ang^3
#
#
#
# Elastic Constant Matrix: (Units=GPa)
#
#
# Indices 1 2 3 4 5 6 
#
# 1 129.7036 71.9219 20.9145 0.0000 0.0000 0.0000
# 2 71.9219 129.7036 20.9145 0.0000 0.0000 0.0000
# 3 20.9145 20.9145 31.1063 0.0000 0.0000 0.0000
# 4 0.0000 0.0000 0.0000 4.0063 0.0000 0.0000
# 5 0.0000 0.0000 0.0000 0.0000 4.0063 0.0000
# 6 0.0000 0.0000 0.0000 0.0000 0.0000 28.8908
#
#
#
# Elastic Compliance Matrix: (Units=1/GPa)
#
#
# Indices 1 2 3 4 5 6 
#
# 1 0.011535 -0.005771 -0.003875 0.000000 0.000000 0.000000
# 2 -0.005771 0.011535 -0.003875 0.000000 0.000000 0.000000
# 3 -0.003875 -0.003875 0.037359 0.000000 0.000000 0.000000
# 4 0.000000 0.000000 0.000000 0.249605 0.000000 0.000000
# 5 0.000000 0.000000 0.000000 0.000000 0.249605 0.000000
# 6 0.000000 0.000000 0.000000 0.000000 0.000000 0.034613
#
#
# Mechanical properties :
#
#
# Convention : Reuss Voigt Hill
#
# Bulk Modulus (GPa) = 29.95327 57.55724 43.75526
# Shear Modulus (GPa) = 7.90607 19.16487 13.53547
#
# Velocity S-wave (km/s) = 2.18634 3.40400 2.86071
# Velocity P-wave (km/s) = 4.94808 7.08867 6.11280
#
# Compressibility (1/GPa) = 0.03338533
#
# Stress axis : x y z
#
# Youngs Moduli (GPa) = 86.69205 86.69205 26.76737
#
# Poissons Ratio (x) = 0.50034 0.10373
# Poissons Ratio (y) = 0.50034 0.10373
# Poissons Ratio (z) = 0.33595 0.33595
#
# Static dielectric constant tensor:
#      x y z
#    x 3.352240 0.000000 0.000000 
#    y 0.000000 3.352240 0.000000 
#    z 0.000000 0.000000 2.724330 
# 
# 
# High freq. dielectric constant tensor:
#      x y z
#    x 1.632560 0.000000 0.000000 
#    y 0.000000 1.632560 0.000000 
#    z 0.000000 0.000000 1.601160 
# 
# From -- ./inp_files/1169.got.cif
#   From: 2010.03.12/outbox.cif.g09.slc.cpg/sg175_1_cif.got.tgz:1169.got - 2010.04.02 06:55:29.
