data_PCOD8325755
_publ_section_title
;
Structure prediction by ZEFSAII (Michael W. Deem and Ramdas Pophale) SiO2 
 PCOD8325755
Probable space group: P 61 2 2
;
_chemical_formula_sum "Si O2"
_cell_formula_units_Z 66
_cell_length_a 17.413745
_cell_length_b 17.413745
_cell_length_c 15.069237
_cell_angle_alpha 90.000000
_cell_angle_beta 90.000000
_cell_angle_gamma 120.000000
_cell_volume 3957.366345
_symmetry_space_group_name_H-M "P 61 2 2"
_symmetry_group_IT_number 178
_symmetry_cell_setting 'hexagonal'
loop_
_space_group_symop_operation_xyz
x,y,z
x-y,x,1/6+z
-y,x-y,1/3+z
-x,-y,1/2+z
-x+y,-x,2/3+z
y,-x+y,5/6+z
x-y,-y,-z
-x,-x+y,2/3-z
y,x,1/3-z
-y,-x,5/6-z
-x+y,y,1/2-z
x,x-y,1/6-z
loop_
_atom_site_type_symbol
_atom_site_label
_atom_site_fract_x
_atom_site_fract_y
_atom_site_fract_z
Si Si1 0.623590 0.648852 0.467552
Si Si2 0.644381 0.480969 0.985283
Si Si3 0.907538 0.412903 0.371202
Si Si4 0.438428 0.283658 0.285045
Si Si5 0.000000 0.909805 0.833334
Si Si6 0.715733 0.845818 0.482787
O O1 0.556838 0.624266 0.384748
O O2 0.571568 0.643385 0.557904
O O3 0.662621 0.581834 0.472359
O O4 0.702139 0.750057 0.456462
O O5 0.601388 0.398613 0.916667
O O6 0.748196 0.513963 0.995087
O O7 0.601414 0.453528 0.082694
O O8 0.847758 0.348848 0.292149
O O9 0.000000 0.492193 0.333334
O O10 0.343312 0.214424 0.244899
O O11 0.081715 0.898985 0.801531
O O12 0.975339 0.950678 0.750000
O O13 0.685966 0.842983 0.583334
#
# Coordination Sequence:
#
# PCOD8325755 Si02
#       6
#    12  12  12  12   6  12
#     4   9  17  28  46  73  95 118 160 199 241 290
#     4   9  19  30  46  71  96 125 160 196 238 293
#     4   9  17  30  51  70  95 125 155 191 250 295
#     4  10  17  28  50  71  94 126 153 199 248 294
#     4  10  20  28  42  70 108 132 154 196 246 298
#     4  10  16  25  44  76  99 114 148 199 247 294
#
# _framework density 16.677758000000001
#
# number of rings (size 3 to 8) (size 9 to 14) (size 15 to 20)
#    0.000    2.545    1.818    2.182    1.273    0.000 
#    0.000    0.000   20.000    0.000   21.273    0.000 
#    0.000    0.000    0.000    0.000    0.000    0.000 
#
# Total GULP energy -818203.061501 kJ/mol
# GULP energy per Si atom -12397.016083 kJ/mol
# Density = 1.663980 g / cm^3
# Si number density = 16.677758 Si / 1000 Ang^3
#
#
#
# Elastic Constant Matrix: (Units=GPa)
#
#
# Indices 1 2 3 4 5 6 
#
# 1 90.8074 48.6354 35.2366 0.0000 0.0000 0.0000
# 2 48.6354 90.8074 35.2366 0.0000 0.0000 0.0000
# 3 35.2366 35.2366 55.4289 0.0000 0.0000 0.0000
# 4 0.0000 0.0000 0.0000 20.4916 0.0000 0.0000
# 5 0.0000 0.0000 0.0000 0.0000 20.4916 0.0000
# 6 0.0000 0.0000 0.0000 0.0000 0.0000 21.0860
#
#
#
# Elastic Compliance Matrix: (Units=1/GPa)
#
#
# Indices 1 2 3 4 5 6 
#
# 1 0.017139 -0.006573 -0.006717 0.000000 0.000000 0.000000
# 2 -0.006573 0.017139 -0.006717 0.000000 0.000000 0.000000
# 3 -0.006717 -0.006717 0.026581 0.000000 0.000000 0.000000
# 4 0.000000 0.000000 0.000000 0.048801 0.000000 0.000000
# 5 0.000000 0.000000 0.000000 0.000000 0.048801 0.000000
# 6 0.000000 0.000000 0.000000 0.000000 0.000000 0.047425
#
#
# Mechanical properties :
#
#
# Convention : Reuss Voigt Hill
#
# Bulk Modulus (GPa) = 47.97190 52.80679 50.38935
# Shear Modulus (GPa) = 19.77472 20.27618 20.02545
#
# Velocity S-wave (km/s) = 3.44713 3.49056 3.46891
# Velocity P-wave (km/s) = 6.68356 6.92655 6.80614
#
# Compressibility (1/GPa) = 0.02084554
#
# Stress axis : x y z
#
# Youngs Moduli (GPa) = 58.34566 58.34566 37.62063
#
# Poissons Ratio (x) = 0.38351 0.25270
# Poissons Ratio (y) = 0.38351 0.25270
# Poissons Ratio (z) = 0.39190 0.39190
#
# Static dielectric constant tensor:
#      x y z
#    x 3.072740 0.000000 0.000000 
#    y 0.000000 3.072740 0.000000 
#    z 0.000000 0.000000 2.931940 
# 
# 
# High freq. dielectric constant tensor:
#      x y z
#    x 1.635300 0.000000 0.000000 
#    y 0.000000 1.635300 0.000000 
#    z 0.000000 0.000000 1.608360 
# 
# From -- ./inp_files/5903.got.cif
#   From: 2010.03.12/outbox.cif.g09.slc.cpg/sg178_3_cif.got.tgz:5903.got - 2010.04.02 07:02:38.
