data_PCOD8325916
_publ_section_title
;
Structure prediction by ZEFSAII (Michael W. Deem and Ramdas Pophale) SiO2 
 PCOD8325916
Probable space group: P 61 2 2
;
_chemical_formula_sum "Si O2"
_cell_formula_units_Z 60
_cell_length_a 11.674345
_cell_length_b 11.674345
_cell_length_c 26.465753
_cell_angle_alpha 90.000000
_cell_angle_beta 90.000000
_cell_angle_gamma 120.000000
_cell_volume 3123.776357
_symmetry_space_group_name_H-M "P 61 2 2"
_symmetry_group_IT_number 178
_symmetry_cell_setting 'hexagonal'
loop_
_space_group_symop_operation_xyz
x,y,z
x-y,x,1/6+z
-y,x-y,1/3+z
-x,-y,1/2+z
-x+y,-x,2/3+z
y,-x+y,5/6+z
x-y,-y,-z
-x,-x+y,2/3-z
y,x,1/3-z
-y,-x,5/6-z
-x+y,y,1/2-z
x,x-y,1/6-z
loop_
_atom_site_type_symbol
_atom_site_label
_atom_site_fract_x
_atom_site_fract_y
_atom_site_fract_z
Si Si1 0.104810 0.511268 0.795038
Si Si2 0.010917 0.770754 0.240593
Si Si3 0.976216 0.283592 0.039978
Si Si4 0.248342 0.748951 0.105134
Si Si5 0.592225 0.360896 0.471872
O O1 0.132161 0.627078 0.756232
O O2 0.232618 0.539526 0.826544
O O3 0.000000 0.511263 0.833334
O O4 0.048009 0.371673 0.767063
O O5 0.152414 0.872760 0.263941
O O6 0.914830 0.829660 0.250000
O O7 0.017617 0.759928 0.180978
O O8 0.914625 0.380582 0.036064
O O9 0.114719 0.360325 0.070385
O O10 0.222451 0.611226 0.083334
O O11 0.286632 0.767277 0.164897
O O12 0.648329 0.351672 0.416667
#
# Coordination Sequence:
#
# PCOD8325916 Si02
#       5
#    12  12  12  12  12
#     4  11  20  41  66  92 125 168 225 270 319 392
#     4  12  21  40  66  98 122 168 226 278 318 384
#     4  12  23  38  64  94 130 168 219 273 328 390
#     4  10  23  39  57  91 136 162 206 272 326 386
#     4  11  21  36  62  95 127 166 212 266 330 381
#
# _framework density 19.207522000000001
#
# number of rings (size 3 to 8) (size 9 to 14) (size 15 to 20)
#    0.000    0.800    6.000    3.000    0.000    0.000 
#    0.000    2.000    0.000    0.000    0.000    0.000 
#    0.000    0.000    0.000    0.000    0.000    0.000 
#
# Total GULP energy -743784.031537 kJ/mol
# GULP energy per Si atom -12396.400526 kJ/mol
# Density = 1.916380 g / cm^3
# Si number density = 19.207522 Si / 1000 Ang^3
#
#
#
# Elastic Constant Matrix: (Units=GPa)
#
#
# Indices 1 2 3 4 5 6 
#
# 1 102.2820 52.5010 38.3735 0.0000 0.0000 0.0000
# 2 52.5010 102.2820 38.3735 0.0000 0.0000 0.0000
# 3 38.3735 38.3735 126.0173 0.0000 0.0000 0.0000
# 4 0.0000 0.0000 0.0000 25.2641 0.0000 0.0000
# 5 0.0000 0.0000 0.0000 0.0000 25.2641 0.0000
# 6 0.0000 0.0000 0.0000 0.0000 0.0000 24.8905
#
#
#
# Elastic Compliance Matrix: (Units=1/GPa)
#
#
# Indices 1 2 3 4 5 6 
#
# 1 0.013849 -0.006239 -0.002317 0.000000 0.000000 0.000000
# 2 -0.006239 0.013849 -0.002317 0.000000 0.000000 0.000000
# 3 -0.002317 -0.002317 0.009347 0.000000 0.000000 0.000000
# 4 0.000000 0.000000 0.000000 0.039582 0.000000 0.000000
# 5 0.000000 0.000000 0.000000 0.000000 0.039582 0.000000
# 6 0.000000 0.000000 0.000000 0.000000 0.000000 0.040176
#
#
# Mechanical properties :
#
#
# Convention : Reuss Voigt Hill
#
# Bulk Modulus (GPa) = 65.37206 65.45303 65.41254
# Shear Modulus (GPa) = 27.28810 28.50597 27.89703
#
# Velocity S-wave (km/s) = 3.77330 3.85659 3.81517
# Velocity P-wave (km/s) = 7.28644 7.34723 7.31690
#
# Compressibility (1/GPa) = 0.01529706
#
# Stress axis : x y z
#
# Youngs Moduli (GPa) = 72.20849 72.20849 106.99041
#
# Poissons Ratio (x) = 0.45052 0.24792
# Poissons Ratio (y) = 0.45052 0.24792
# Poissons Ratio (z) = 0.16732 0.16732
#
# Static dielectric constant tensor:
#      x y z
#    x 3.572650 0.000000 0.000000 
#    y 0.000000 3.572650 0.000000 
#    z 0.000000 0.000000 4.111500 
# 
# 
# High freq. dielectric constant tensor:
#      x y z
#    x 1.734240 0.000000 0.000000 
#    y 0.000000 1.734240 0.000000 
#    z 0.000000 0.000000 1.767160 
# 
# From -- ./inp_files/8761.got.cif
#   From: 2010.03.12/outbox.cif.g09.slc.cpg/sg178_5_cif.got.tgz:8761.got - 2010.04.02 07:02:38.
