data_PCOD8325779
_publ_section_title
;
Structure prediction by ZEFSAII (Michael W. Deem and Ramdas Pophale) SiO2 
 PCOD8325779
Probable space group: P 61 2 2
;
_chemical_formula_sum "Si O2"
_cell_formula_units_Z 78
_cell_length_a 16.836732
_cell_length_b 16.836732
_cell_length_c 21.497376
_cell_angle_alpha 90.000000
_cell_angle_beta 90.000000
_cell_angle_gamma 120.000000
_cell_volume 5277.541807
_symmetry_space_group_name_H-M "P 61 2 2"
_symmetry_group_IT_number 178
_symmetry_cell_setting 'hexagonal'
loop_
_space_group_symop_operation_xyz
x,y,z
x-y,x,1/6+z
-y,x-y,1/3+z
-x,-y,1/2+z
-x+y,-x,2/3+z
y,-x+y,5/6+z
x-y,-y,-z
-x,-x+y,2/3-z
y,x,1/3-z
-y,-x,5/6-z
-x+y,y,1/2-z
x,x-y,1/6-z
loop_
_atom_site_type_symbol
_atom_site_label
_atom_site_fract_x
_atom_site_fract_y
_atom_site_fract_z
Si Si1 0.650239 0.178540 0.138338
Si Si2 0.001830 0.370777 0.403200
Si Si3 0.557486 0.000529 0.068979
Si Si4 0.293733 0.824116 0.863303
Si Si5 0.638672 0.194167 0.885567
Si Si6 0.797021 0.532592 0.923459
Si Si7 0.628743 0.371258 0.416667
O O1 0.551949 0.161159 0.163320
O O2 0.726570 0.201601 0.190588
O O3 0.683456 0.262273 0.090613
O O4 0.637995 0.087499 0.104999
O O5 0.986239 0.456642 0.397925
O O6 0.096232 0.395332 0.439115
O O7 0.000000 0.333615 0.333334
O O8 0.916537 0.297948 0.444268
O O9 0.531729 0.906396 0.104285
O O10 0.594537 0.000000 0.000000
O O11 0.253688 0.746313 0.916667
O O12 0.224561 0.793008 0.806027
O O13 0.735481 0.264520 0.916667
O O14 0.565624 0.210968 0.923542
O O15 0.618985 0.199691 0.812334
#
# Coordination Sequence:
#
# PCOD8325779 Si02
#       7
#    12  12  12  12  12  12   6
#     4  10  19  30  43  65  85 115 153 187 223 259
#     4   9  17  29  43  63  84 112 151 186 223 263
#     4   9  18  30  44  60  83 112 151 193 219 255
#     4  11  18  27  48  63  84 118 153 183 220 270
#     4  10  19  30  46  63  85 116 153 188 228 261
#     4  10  19  31  42  64  90 116 150 189 221 265
#     4  10  18  30  46  62  86 116 144 188 220 264
#
# _framework density 14.779609000000001
#
# number of rings (size 3 to 8) (size 9 to 14) (size 15 to 20)
#    0.000    2.154    2.308    3.231    2.154    0.000 
#   11.077    0.000    0.000    0.000    0.000    0.000 
#    0.000    0.000    0.000    4.154    0.000    0.000 
#
# Total GULP energy -966640.237849 kJ/mol
# GULP energy per Si atom -12392.823562 kJ/mol
# Density = 1.474597 g / cm^3
# Si number density = 14.779609 Si / 1000 Ang^3
#
#
#
# Elastic Constant Matrix: (Units=GPa)
#
#
# Indices 1 2 3 4 5 6 
#
# 1 71.0333 42.6780 44.0615 0.0000 0.0000 0.0000
# 2 42.6780 71.0333 44.0615 0.0000 0.0000 0.0000
# 3 44.0615 44.0615 92.8660 0.0000 0.0000 0.0000
# 4 0.0000 0.0000 0.0000 20.6420 0.0000 0.0000
# 5 0.0000 0.0000 0.0000 0.0000 20.6420 0.0000
# 6 0.0000 0.0000 0.0000 0.0000 0.0000 14.1776
#
#
#
# Elastic Compliance Matrix: (Units=1/GPa)
#
#
# Indices 1 2 3 4 5 6 
#
# 1 0.024588 -0.010679 -0.006599 0.000000 0.000000 0.000000
# 2 -0.010679 0.024588 -0.006599 0.000000 0.000000 0.000000
# 3 -0.006599 -0.006599 0.017030 0.000000 0.000000 0.000000
# 4 0.000000 0.000000 0.000000 0.048445 0.000000 0.000000
# 5 0.000000 0.000000 0.000000 0.000000 0.048445 0.000000
# 6 0.000000 0.000000 0.000000 0.000000 0.000000 0.070534
#
#
# Mechanical properties :
#
#
# Convention : Reuss Voigt Hill
#
# Bulk Modulus (GPa) = 54.19829 55.17053 54.68441
# Shear Modulus (GPa) = 17.38929 18.03441 17.71185
#
# Velocity S-wave (km/s) = 3.43384 3.49696 3.46554
# Velocity P-wave (km/s) = 7.24378 7.32904 7.28653
#
# Compressibility (1/GPa) = 0.01845077
#
# Stress axis : x y z
#
# Youngs Moduli (GPa) = 40.67106 40.67106 58.71958
#
# Poissons Ratio (x) = 0.43434 0.38749
# Poissons Ratio (y) = 0.43434 0.38749
# Poissons Ratio (z) = 0.26839 0.26839
#
# Static dielectric constant tensor:
#      x y z
#    x 2.728850 0.000000 0.000000 
#    y 0.000000 2.728850 0.000000 
#    z 0.000000 0.000000 2.913110 
# 
# 
# High freq. dielectric constant tensor:
#      x y z
#    x 1.534140 0.000000 0.000000 
#    y 0.000000 1.534140 0.000000 
#    z 0.000000 0.000000 1.571450 
# 
# From -- ./inp_files/6957.got.cif
#   From: 2010.03.12/outbox.cif.g09.slc.cpg/sg178_4_cif.got.tgz:6957.got - 2010.04.02 07:02:38.
