data_PCOD8325625
_publ_section_title
;
Structure prediction by ZEFSAII (Michael W. Deem and Ramdas Pophale) SiO2 
 PCOD8325625
Probable space group: P 63/M
;
_chemical_formula_sum "Si O2"
_cell_formula_units_Z 60
_cell_length_a 15.160745
_cell_length_b 15.160745
_cell_length_c 15.626252
_cell_angle_alpha 90.000000
_cell_angle_beta 90.000000
_cell_angle_gamma 120.000000
_cell_volume 3110.473757
_symmetry_space_group_name_H-M "P 63/M"
_symmetry_group_IT_number 176
_symmetry_cell_setting 'hexagonal'
loop_
_space_group_symop_operation_xyz
x,y,z
x-y,x,1/2+z
-y,x-y,z
-x,-y,1/2+z
-x+y,-x,z
y,-x+y,1/2+z
-x,-y,-z
-x+y,-x,1/2-z
y,-x+y,-z
x,y,1/2-z
x-y,x,-z
-y,x-y,1/2-z
loop_
_atom_site_type_symbol
_atom_site_label
_atom_site_fract_x
_atom_site_fract_y
_atom_site_fract_z
Si Si1 0.198341 0.985045 0.499234
Si Si2 0.424112 0.787570 0.849829
Si Si3 0.635136 0.738009 0.151820
Si Si4 0.488393 0.481853 0.901376
Si Si5 0.295373 0.348359 0.346293
O O1 0.192772 0.085960 0.486245
O O2 0.263412 0.989722 0.582662
O O3 0.245890 0.970734 0.412049
O O4 0.304987 0.749664 0.876808
O O5 0.433330 0.801354 0.750000
O O6 0.504994 0.895352 0.886757
O O7 0.669039 0.737256 0.250000
O O8 0.536556 0.629869 0.128361
O O9 0.606267 0.826182 0.138227
O O10 0.588772 0.561278 0.851367
O O11 0.500000 0.500000 0.000000
O O12 0.277980 0.301543 0.250000
#
# Coordination Sequence:
#
# PCOD8325625 Si02
#       5
#    12  12  12  12  12
#     4  10  21  39  62  90 122 154 198 245 301 354
#     4   8  18  36  56  84 116 143 187 249 301 355
#     4  10  22  40  59  84 121 160 204 249 292 358
#     4  12  22  36  62  87 121 162 199 249 310 356
#     4  10  22  40  59  84 121 160 204 249 292 358
#
# _framework density 19.289667000000001
#
# number of rings (size 3 to 8) (size 9 to 14) (size 15 to 20)
#    0.400    1.600    2.000    2.000    0.000    4.000 
#    1.200    0.000    0.000    2.400    0.000    0.000 
#    0.000    0.000    0.000    0.000    0.000    0.000 
#
# Total GULP energy -743415.096792 kJ/mol
# GULP energy per Si atom -12390.251613 kJ/mol
# Density = 1.924576 g / cm^3
# Si number density = 19.289667 Si / 1000 Ang^3
#
#
#
# Elastic Constant Matrix: (Units=GPa)
#
#
# Indices 1 2 3 4 5 6 
#
# 1 79.1383 24.3962 31.0888 0.0000 0.0000 0.0000
# 2 24.3962 79.1383 31.0888 0.0000 0.0000 0.0000
# 3 31.0888 31.0888 130.6657 0.0000 0.0000 0.0000
# 4 0.0000 0.0000 0.0000 26.8249 0.0000 0.0000
# 5 0.0000 0.0000 0.0000 0.0000 26.8249 0.0000
# 6 0.0000 0.0000 0.0000 0.0000 0.0000 27.3710
#
#
#
# Elastic Compliance Matrix: (Units=1/GPa)
#
#
# Indices 1 2 3 4 5 6 
#
# 1 0.014768 -0.003499 -0.002681 0.000000 0.000000 0.000000
# 2 -0.003499 0.014768 -0.002681 0.000000 0.000000 0.000000
# 3 -0.002681 -0.002681 0.008929 0.000000 0.000000 0.000000
# 4 0.000000 0.000000 0.000000 0.037279 0.000000 0.000000
# 5 0.000000 0.000000 0.000000 0.000000 0.037279 0.000000
# 6 0.000000 0.000000 0.000000 0.000000 0.000000 0.036535
#
#
# Mechanical properties :
#
#
# Convention : Reuss Voigt Hill
#
# Bulk Modulus (GPa) = 48.21153 51.34334 49.77743
# Shear Modulus (GPa) = 28.70347 29.69541 29.19944
#
# Velocity S-wave (km/s) = 3.86168 3.92783 3.89490
# Velocity P-wave (km/s) = 6.70307 6.87352 6.78883
#
# Compressibility (1/GPa) = 0.02074193
#
# Stress axis : x y z
#
# Youngs Moduli (GPa) = 67.71344 67.71344 111.99541
#
# Poissons Ratio (x) = 0.23695 0.30027
# Poissons Ratio (y) = 0.23695 0.30027
# Poissons Ratio (z) = 0.18155 0.18155
#
# Static dielectric constant tensor:
#      x y z
#    x 3.534750 0.000000 0.000000 
#    y 0.000000 3.534750 0.000000 
#    z 0.000000 0.000000 3.671080 
# 
# 
# High freq. dielectric constant tensor:
#      x y z
#    x 1.744910 0.000000 0.000000 
#    y 0.000000 1.744910 0.000000 
#    z 0.000000 0.000000 1.764540 
# 
# From -- ./inp_files/2639.got.cif
#   From: 2010.06.25/outbox.cif.g09.slc.cpg/sg176_2_cif.got.tgz:2639.got - 2010.06.28 12:15:01.
