data_PCOD8325657
_publ_section_title
;
Structure prediction by ZEFSAII (Michael W. Deem and Ramdas Pophale) SiO2 
 PCOD8325657
Probable space group: P 63/M
;
_chemical_formula_sum "Si O2"
_cell_formula_units_Z 52
_cell_length_a 11.198687
_cell_length_b 11.198687
_cell_length_c 22.517066
_cell_angle_alpha 90.000000
_cell_angle_beta 90.000000
_cell_angle_gamma 120.000000
_cell_volume 2445.550556
_symmetry_space_group_name_H-M "P 63/M"
_symmetry_group_IT_number 176
_symmetry_cell_setting 'hexagonal'
loop_
_space_group_symop_operation_xyz
x,y,z
x-y,x,1/2+z
-y,x-y,z
-x,-y,1/2+z
-x+y,-x,z
y,-x+y,1/2+z
-x,-y,-z
-x+y,-x,1/2-z
y,-x+y,-z
x,y,1/2-z
x-y,x,-z
-y,x-y,1/2-z
loop_
_atom_site_type_symbol
_atom_site_label
_atom_site_fract_x
_atom_site_fract_y
_atom_site_fract_z
Si Si1 0.928534 0.582322 0.318031
Si Si2 0.716449 0.505065 0.498188
Si Si3 0.827443 0.692703 0.890033
Si Si4 0.315755 0.410717 0.628119
Si Si5 0.000000 0.000000 0.429568
O O1 0.943041 0.550088 0.250000
O O2 0.800071 0.607761 0.325001
O O3 0.902144 0.454272 0.358768
O O4 0.068528 0.717883 0.337239
O O5 0.558110 0.377785 0.501376
O O6 0.748076 0.608532 0.551744
O O7 0.740821 0.588853 0.437600
O O8 0.940489 0.656216 0.866728
O O9 0.889319 0.852218 0.904739
O O10 0.000000 0.000000 0.500000
#
# Coordination Sequence:
#
# PCOD8325657 Si02
#       5
#    12  12  12  12   4
#     4  12  27  47  71 100 135 187 244 292 349 418
#     4  10  22  43  71 107 140 176 228 293 363 419
#     4  12  26  43  70 105 145 187 227 290 359 431
#     4  12  24  47  74 103 140 183 238 296 355 417
#     4  12  24  42  64 107 145 186 222 277 356 439
#
# _framework density 21.263104999999999
#
# number of rings (size 3 to 8) (size 9 to 14) (size 15 to 20)
#    0.462    0.000    4.615    3.923    3.231    3.692 
#    1.385    0.000    0.000    0.000    0.000    0.000 
#    0.000    0.000    0.000    0.000    0.000    0.000 
#
# Total GULP energy -645160.614543 kJ/mol
# GULP energy per Si atom -12406.934895 kJ/mol
# Density = 2.121471 g / cm^3
# Si number density = 21.263105 Si / 1000 Ang^3
#
#
#
# Elastic Constant Matrix: (Units=GPa)
#
#
# Indices 1 2 3 4 5 6 
#
# 1 111.0992 32.8398 39.7572 0.0000 0.0000 0.0000
# 2 32.8398 111.0992 39.7572 0.0000 0.0000 0.0000
# 3 39.7572 39.7572 102.8721 0.0000 0.0000 0.0000
# 4 0.0000 0.0000 0.0000 27.5071 0.0000 0.0000
# 5 0.0000 0.0000 0.0000 0.0000 27.5071 0.0000
# 6 0.0000 0.0000 0.0000 0.0000 0.0000 39.1297
#
#
#
# Elastic Compliance Matrix: (Units=1/GPa)
#
#
# Indices 1 2 3 4 5 6 
#
# 1 0.010806 -0.001972 -0.003414 0.000000 0.000000 0.000000
# 2 -0.001972 0.010806 -0.003414 0.000000 0.000000 0.000000
# 3 -0.003414 -0.003414 0.012359 0.000000 0.000000 0.000000
# 4 0.000000 0.000000 0.000000 0.036354 0.000000 0.000000
# 5 0.000000 0.000000 0.000000 0.000000 0.036354 0.000000
# 6 0.000000 0.000000 0.000000 0.000000 0.000000 0.025556
#
#
# Mechanical properties :
#
#
# Convention : Reuss Voigt Hill
#
# Bulk Modulus (GPa) = 61.08455 61.08655 61.08555
# Shear Modulus (GPa) = 32.19739 33.00988 32.60363
#
# Velocity S-wave (km/s) = 3.89554 3.94439 3.92004
# Velocity P-wave (km/s) = 7.00171 7.03815 7.01995
#
# Compressibility (1/GPa) = 0.01637075
#
# Stress axis : x y z
#
# Youngs Moduli (GPa) = 92.54439 92.54439 80.90948
#
# Poissons Ratio (x) = 0.18253 0.27621
# Poissons Ratio (y) = 0.18253 0.27621
# Poissons Ratio (z) = 0.31593 0.31593
#
# Static dielectric constant tensor:
#      x y z
#    x 3.890060 0.000000 0.000000 
#    y 0.000000 3.890060 0.000000 
#    z 0.000000 0.000000 3.626070 
# 
# 
# High freq. dielectric constant tensor:
#      x y z
#    x 1.843030 0.000000 0.000000 
#    y 0.000000 1.843030 0.000000 
#    z 0.000000 0.000000 1.822650 
# 
# From -- ./inp_files/3714.got.cif
#   From: 2010.06.25/outbox.cif.g09.slc.cpg/sg176_2_cif.got.tgz:3714.got - 2010.06.28 12:15:01.
