data_PCOD8325502
_publ_section_title
;
Structure prediction by ZEFSAII (Michael W. Deem and Ramdas Pophale) SiO2 
 PCOD8325502
Probable space group: P 63/M
;
_chemical_formula_sum "Si O2"
_cell_formula_units_Z 68
_cell_length_a 12.127502
_cell_length_b 12.127502
_cell_length_c 27.053187
_cell_angle_alpha 90.000000
_cell_angle_beta 90.000000
_cell_angle_gamma 120.000000
_cell_volume 3445.813563
_symmetry_space_group_name_H-M "P 63/M"
_symmetry_group_IT_number 176
_symmetry_cell_setting 'hexagonal'
loop_
_space_group_symop_operation_xyz
x,y,z
x-y,x,1/2+z
-y,x-y,z
-x,-y,1/2+z
-x+y,-x,z
y,-x+y,1/2+z
-x,-y,-z
-x+y,-x,1/2-z
y,-x+y,-z
x,y,1/2-z
x-y,x,-z
-y,x-y,1/2-z
loop_
_atom_site_type_symbol
_atom_site_label
_atom_site_fract_x
_atom_site_fract_y
_atom_site_fract_z
Si Si1 0.113046 0.648986 0.837079
Si Si2 0.015237 0.259715 0.090617
Si Si3 0.401613 0.318890 0.303659
Si Si4 0.923437 0.572296 0.999013
Si Si5 0.756561 0.019679 0.404367
Si Si6 0.666668 0.333334 0.510288
Si Si7 0.333334 0.666668 0.603632
O O1 0.059749 0.522557 0.804111
O O2 0.209187 0.769402 0.804361
O O3 0.193010 0.632529 0.880705
O O4 0.000224 0.663578 0.862969
O O5 0.153520 0.275975 0.087126
O O6 0.908244 0.112548 0.096284
O O7 0.999296 0.310153 0.037849
O O8 0.334341 0.305506 0.250000
O O9 0.314308 0.301995 0.350324
O O10 0.925758 0.626216 0.054043
O O11 0.783237 0.473978 0.975411
O O12 0.000000 0.500000 0.000000
O O13 0.666668 0.333334 0.453037
#
# Coordination Sequence:
#
# PCOD8325502 Si02
#       7
#    12  12  12  12  12   4   4
#     4   9  18  32  57  84 110 137 174 225 284 341
#     4  11  22  38  56  80 113 152 191 229 274 329
#     4  10  19  34  56  85 112 139 177 230 285 335
#     4  12  23  37  58  86 115 146 182 229 286 339
#     4  11  23  38  56  79 112 151 193 232 272 329
#     4  12  21  33  54  82 115 147 184 226 279 342
#     4   9  15  30  52  82 111 132 162 223 286 333
#
# _framework density 19.734092
#
# number of rings (size 3 to 8) (size 9 to 14) (size 15 to 20)
#    0.000    1.412    0.000    9.706    0.000    0.000 
#    0.000    6.176    0.000    0.706    0.000    0.000 
#    0.000    0.000    0.000    0.000    0.000    0.000 
#
# Total GULP energy -842656.551171 kJ/mol
# GULP energy per Si atom -12392.008105 kJ/mol
# Density = 1.968918 g / cm^3
# Si number density = 19.734092 Si / 1000 Ang^3
#
#
#
# Elastic Constant Matrix: (Units=GPa)
#
#
# Indices 1 2 3 4 5 6 
#
# 1 87.3443 29.1560 25.8281 0.0000 0.0000 -0.0001
# 2 29.1560 87.3451 25.8281 0.0000 0.0000 0.0000
# 3 25.8281 25.8281 114.8168 0.0000 0.0000 0.0000
# 4 0.0000 0.0000 0.0000 18.2959 0.0000 0.0000
# 5 0.0000 0.0000 0.0000 0.0000 18.2959 0.0000
# 6 -0.0001 0.0000 0.0000 0.0000 0.0000 29.0945
#
#
#
# Elastic Compliance Matrix: (Units=1/GPa)
#
#
# Indices 1 2 3 4 5 6 
#
# 1 0.013360 -0.003825 -0.002145 0.000000 0.000000 0.000000
# 2 -0.003825 0.013360 -0.002145 0.000000 0.000000 0.000000
# 3 -0.002145 -0.002145 0.009674 0.000000 0.000000 0.000000
# 4 0.000000 0.000000 0.000000 0.054657 0.000000 0.000000
# 5 0.000000 0.000000 0.000000 0.000000 0.054657 0.000000
# 6 0.000000 0.000000 0.000000 0.000000 0.000000 0.034371
#
#
# Mechanical properties :
#
#
# Convention : Reuss Voigt Hill
#
# Bulk Modulus (GPa) = 49.59214 50.12563 49.85889
# Shear Modulus (GPa) = 24.62675 27.05018 25.83846
#
# Velocity S-wave (km/s) = 3.53644 3.70636 3.62239
# Velocity P-wave (km/s) = 6.46992 6.61603 6.54338
#
# Compressibility (1/GPa) = 0.02016448
#
# Stress axis : x y z
#
# Youngs Moduli (GPa) = 74.84962 74.85038 103.36464
#
# Poissons Ratio (x) = 0.28633 0.22170
# Poissons Ratio (y) = 0.28633 0.22170
# Poissons Ratio (z) = 0.16054 0.16054
#
# Static dielectric constant tensor:
#      x y z
#    x 3.377040 0.000000 0.000000 
#    y 0.000000 3.377030 0.000000 
#    z 0.000000 0.000000 3.583400 
# 
# 
# High freq. dielectric constant tensor:
#      x y z
#    x 1.760140 0.000000 0.000000 
#    y 0.000000 1.760140 0.000000 
#    z 0.000000 0.000000 1.762290 
# 
# From -- ./inp_files/4493.got.cif
#   From: 2010.06.25/outbox.cif.g09.slc.cpg/sg176_3_cif.got.tgz:4493.got - 2010.06.28 12:15:01.
