data_PCOD8325539
_publ_section_title
;
Structure prediction by ZEFSAII (Michael W. Deem and Ramdas Pophale) SiO2 
 PCOD8325539
Probable space group: P 63/M
;
_chemical_formula_sum "Si O2"
_cell_formula_units_Z 72
_cell_length_a 12.557472
_cell_length_b 12.557472
_cell_length_c 31.421419
_cell_angle_alpha 90.000000
_cell_angle_beta 90.000000
_cell_angle_gamma 120.000000
_cell_volume 4291.023200
_symmetry_space_group_name_H-M "P 63/M"
_symmetry_group_IT_number 176
_symmetry_cell_setting 'hexagonal'
loop_
_space_group_symop_operation_xyz
x,y,z
x-y,x,1/2+z
-y,x-y,z
-x,-y,1/2+z
-x+y,-x,z
y,-x+y,1/2+z
-x,-y,-z
-x+y,-x,1/2-z
y,-x+y,-z
x,y,1/2-z
x-y,x,-z
-y,x-y,1/2-z
loop_
_atom_site_type_symbol
_atom_site_label
_atom_site_fract_x
_atom_site_fract_y
_atom_site_fract_z
Si Si1 0.332465 0.915080 0.829930
Si Si2 0.249422 0.247763 0.250000
Si Si3 0.250818 0.001078 0.408056
Si Si4 0.417386 0.084920 0.329930
Si Si5 0.000000 0.244981 1.000000
Si Si6 0.750259 0.001078 0.091944
Si Si7 0.249422 0.001658 0.250000
O O1 0.460865 0.921729 0.824117
O O2 0.226710 0.773290 0.829814
O O3 0.333597 0.981226 0.873828
O O4 0.315368 0.988163 0.791505
O O5 0.129110 0.258220 0.250000
O O6 0.210052 0.105026 0.250000
O O7 0.314304 0.012056 0.455043
O O8 0.129398 0.870602 0.400235
O O9 0.352371 0.018774 0.373828
O O10 0.214694 0.107347 0.403223
O O11 0.327205 0.011837 0.291505
O O12 0.112444 0.224888 0.008046
O O13 0.012056 0.314304 0.955043
#
# Coordination Sequence:
#
# PCOD8325539 Si02
#       7
#    12   6  12  12  12  12   6
#     4  10  20  33  49  68  92 124 160 194 224 259
#     4  10  20  34  54  78 100 118 140 180 234 286
#     4   9  16  27  46  71  97 122 150 190 239 287
#     4  10  20  33  49  68  92 124 160 194 224 259
#     4   8  13  22  39  66  96 122 148 182 232 288
#     4   9  16  27  46  71  97 122 150 190 239 287
#     4  10  20  34  54  78 100 118 140 180 234 286
#
# _framework density 16.779214
#
# number of rings (size 3 to 8) (size 9 to 14) (size 15 to 20)
#    0.000    2.667    0.000    2.500    0.000    2.667 
#    0.000    5.833    0.000    9.333    0.000    0.000 
#    0.000    0.000    0.000    0.000    0.000    0.000 
#
# Total GULP energy -892145.379581 kJ/mol
# GULP energy per Si atom -12390.908050 kJ/mol
# Density = 1.674102 g / cm^3
# Si number density = 16.779214 Si / 1000 Ang^3
#
#
#
# Elastic Constant Matrix: (Units=GPa)
#
#
# Indices 1 2 3 4 5 6 
#
# 1 87.8825 58.1945 59.3642 0.0000 0.0000 0.0000
# 2 58.1945 87.8825 59.3642 0.0000 0.0000 0.0000
# 3 59.3642 59.3642 168.3915 0.0000 0.0000 0.0000
# 4 0.0000 0.0000 0.0000 4.4710 0.0000 0.0000
# 5 0.0000 0.0000 0.0000 0.0000 4.4710 0.0000
# 6 0.0000 0.0000 0.0000 0.0000 0.0000 14.8440
#
#
#
# Elastic Compliance Matrix: (Units=1/GPa)
#
#
# Indices 1 2 3 4 5 6 
#
# 1 0.021639 -0.012044 -0.003383 0.000000 0.000000 0.000000
# 2 -0.012044 0.021639 -0.003383 0.000000 0.000000 0.000000
# 3 -0.003383 -0.003383 0.008324 0.000000 0.000000 0.000000
# 4 0.000000 0.000000 0.000000 0.223662 0.000000 0.000000
# 5 0.000000 0.000000 0.000000 0.000000 0.223662 0.000000
# 6 0.000000 0.000000 0.000000 0.000000 0.000000 0.067367
#
#
# Mechanical properties :
#
#
# Convention : Reuss Voigt Hill
#
# Bulk Modulus (GPa) = 71.51460 77.55583 74.53522
# Shear Modulus (GPa) = 8.21592 15.90611 12.06101
#
# Velocity S-wave (km/s) = 2.21520 3.08224 2.68397
# Velocity P-wave (km/s) = 7.01828 7.68041 7.35680
#
# Compressibility (1/GPa) = 0.01398316
#
# Stress axis : x y z
#
# Youngs Moduli (GPa) = 46.21214 46.21214 120.14145
#
# Poissons Ratio (x) = 0.55659 0.40639
# Poissons Ratio (y) = 0.55659 0.40639
# Poissons Ratio (z) = 0.15632 0.15632
#
# Static dielectric constant tensor:
#      x y z
#    x 2.841760 0.000000 0.000000 
#    y 0.000000 2.841760 0.000000 
#    z 0.000000 0.000000 3.626690 
# 
# 
# High freq. dielectric constant tensor:
#      x y z
#    x 1.618970 0.000000 0.000000 
#    y 0.000000 1.618970 0.000000 
#    z 0.000000 0.000000 1.681010 
# 
# From -- ./inp_files/4518.got.cif
#   From: 2010.06.25/outbox.cif.g09.slc.cpg/sg176_3_cif.got.tgz:4518.got - 2010.06.28 12:15:01.
