data_PCOD8325918
_publ_section_title
;
Structure prediction by ZEFSAII (Michael W. Deem and Ramdas Pophale) SiO2 
 PCOD8325918
Probable space group: P 61 2 2
;
_chemical_formula_sum "Si O2"
_cell_formula_units_Z 54
_cell_length_a 14.976397
_cell_length_b 14.976397
_cell_length_c 13.606898
_cell_angle_alpha 90.000000
_cell_angle_beta 90.000000
_cell_angle_gamma 120.000000
_cell_volume 2643.044340
_symmetry_space_group_name_H-M "P 61 2 2"
_symmetry_group_IT_number 178
_symmetry_cell_setting 'hexagonal'
loop_
_space_group_symop_operation_xyz
x,y,z
x-y,x,1/6+z
-y,x-y,1/3+z
-x,-y,1/2+z
-x+y,-x,2/3+z
y,-x+y,5/6+z
x-y,-y,-z
-x,-x+y,2/3-z
y,x,1/3-z
-y,-x,5/6-z
-x+y,y,1/2-z
x,x-y,1/6-z
loop_
_atom_site_type_symbol
_atom_site_label
_atom_site_fract_x
_atom_site_fract_y
_atom_site_fract_z
Si Si1 0.461533 0.530810 0.762292
Si Si2 0.556122 0.272263 0.973638
Si Si3 0.860335 0.000000 0.500000
Si Si4 0.622560 0.948124 0.255758
Si Si5 0.663533 0.819179 0.399088
O O1 0.479553 0.479553 0.666667
O O2 0.420353 0.607130 0.734721
O O3 0.366944 0.447173 0.826285
O O4 0.569253 0.589746 0.823239
O O5 0.620154 0.379847 0.916667
O O6 0.435347 0.232573 0.969278
O O7 0.596321 0.298161 0.083334
O O8 0.897402 0.948701 0.583334
O O9 0.753687 0.918365 0.451331
O O10 0.635658 0.852680 0.294944
O O11 0.734303 0.036859 0.220425
#
# Coordination Sequence:
#
# PCOD8325918 Si02
#       5
#    12  12   6  12  12
#     4  10  23  41  63  95 138 178 224 276 337 413
#     4  11  26  38  65  97 135 177 225 272 337 410
#     4  12  24  44  76 106 134 178 230 304 350 400
#     4  10  23  39  66  95 132 172 222 279 341 409
#     4  11  23  41  68 100 134 169 227 282 346 399
#
# _framework density 20.430983999999999
#
# number of rings (size 3 to 8) (size 9 to 14) (size 15 to 20)
#    0.000    1.333    2.222    2.000   18.667    0.000 
#    0.000    0.000    2.444    0.000    0.000    0.000 
#    0.000    0.000    0.000    0.000    0.000    0.000 
#
# Total GULP energy -669590.243815 kJ/mol
# GULP energy per Si atom -12399.819330 kJ/mol
# Density = 2.038448 g / cm^3
# Si number density = 20.430984 Si / 1000 Ang^3
#
#
#
# Elastic Constant Matrix: (Units=GPa)
#
#
# Indices 1 2 3 4 5 6 
#
# 1 108.4886 52.8324 45.8843 0.0000 0.0000 0.0000
# 2 52.8324 108.4886 45.8843 0.0000 0.0000 0.0000
# 3 45.8843 45.8843 119.4251 0.0000 0.0000 0.0000
# 4 0.0000 0.0000 0.0000 36.1671 0.0000 0.0000
# 5 0.0000 0.0000 0.0000 0.0000 36.1671 0.0000
# 6 0.0000 0.0000 0.0000 0.0000 0.0000 27.8281
#
#
#
# Elastic Compliance Matrix: (Units=1/GPa)
#
#
# Indices 1 2 3 4 5 6 
#
# 1 0.012950 -0.005017 -0.003048 0.000000 0.000000 0.000000
# 2 -0.005017 0.012950 -0.003048 0.000000 0.000000 0.000000
# 3 -0.003048 -0.003048 0.010715 0.000000 0.000000 0.000000
# 4 0.000000 0.000000 0.000000 0.027649 0.000000 0.000000
# 5 0.000000 0.000000 0.000000 0.000000 0.027649 0.000000
# 6 0.000000 0.000000 0.000000 0.000000 0.000000 0.035935
#
#
# Mechanical properties :
#
#
# Convention : Reuss Voigt Hill
#
# Bulk Modulus (GPa) = 69.49525 69.51157 69.50341
# Shear Modulus (GPa) = 32.28480 32.81922 32.55201
#
# Velocity S-wave (km/s) = 3.97947 4.01227 3.99591
# Velocity P-wave (km/s) = 7.42990 7.45392 7.44192
#
# Compressibility (1/GPa) = 0.01438947
#
# Stress axis : x y z
#
# Youngs Moduli (GPa) = 77.22005 77.22005 93.32345
#
# Poissons Ratio (x) = 0.38745 0.28443
# Poissons Ratio (y) = 0.38745 0.28443
# Poissons Ratio (z) = 0.23535 0.23535
#
# Static dielectric constant tensor:
#      x y z
#    x 3.724220 0.000000 0.000000 
#    y 0.000000 3.724220 0.000000 
#    z 0.000000 0.000000 4.017920 
# 
# 
# High freq. dielectric constant tensor:
#      x y z
#    x 1.798370 0.000000 0.000000 
#    y 0.000000 1.798370 0.000000 
#    z 0.000000 0.000000 1.796330 
# 
# From -- ./inp_files/5565.got.cif
#   From: 2010.03.12/outbox.cif.g09.slc.cpg/sg178_3_cif.got.tgz:5565.got - 2010.04.02 07:02:38.
