data_PCOD8325861
_publ_section_title
;
Structure prediction by ZEFSAII (Michael W. Deem and Ramdas Pophale) SiO2 
 PCOD8325861
Probable space group: P 61 2 2
;
_chemical_formula_sum "Si O2"
_cell_formula_units_Z 84
_cell_length_a 18.358292
_cell_length_b 18.358292
_cell_length_c 13.469529
_cell_angle_alpha 90.000000
_cell_angle_beta 90.000000
_cell_angle_gamma 120.000000
_cell_volume 3931.403210
_symmetry_space_group_name_H-M "P 61 2 2"
_symmetry_group_IT_number 178
_symmetry_cell_setting 'hexagonal'
loop_
_space_group_symop_operation_xyz
x,y,z
x-y,x,1/6+z
-y,x-y,1/3+z
-x,-y,1/2+z
-x+y,-x,2/3+z
y,-x+y,5/6+z
x-y,-y,-z
-x,-x+y,2/3-z
y,x,1/3-z
-y,-x,5/6-z
-x+y,y,1/2-z
x,x-y,1/6-z
loop_
_atom_site_type_symbol
_atom_site_label
_atom_site_fract_x
_atom_site_fract_y
_atom_site_fract_z
Si Si1 0.505718 0.731183 0.188500
Si Si2 0.059149 0.928742 0.070373
Si Si3 0.685423 0.816499 0.474506
Si Si4 0.940259 0.512943 0.427687
Si Si5 0.382877 0.417619 0.361774
Si Si6 0.599957 0.321913 0.185162
Si Si7 0.703449 0.554903 0.533176
O O1 0.527269 0.662590 0.229265
O O2 0.405552 0.685592 0.178911
O O3 0.542714 0.810228 0.259958
O O4 0.547739 0.773870 0.083334
O O5 0.075213 0.850103 0.081494
O O6 0.067522 0.969453 0.180933
O O7 0.131843 0.000000 0.000000
O O8 0.707573 0.853787 0.583334
O O9 0.633362 0.716586 0.477263
O O10 0.630942 0.850275 0.421134
O O11 0.000000 0.536807 0.333334
O O12 0.912727 0.418298 0.466780
O O13 0.983354 0.571843 0.523357
O O14 0.423403 0.369639 0.306948
O O15 0.634863 0.269726 0.250000
O O16 0.533608 0.337624 0.242985
O O17 0.553559 0.276780 0.083334
#
# Coordination Sequence:
#
# PCOD8325861 Si02
#       7
#    12  12  12  12  12  12  12
#     4  11  24  42  66  93 128 182 232 287 350 404
#     4  10  20  40  68 103 136 175 211 265 341 414
#     4  12  25  41  65 102 141 174 218 286 348 417
#     4  11  24  46  68  93 138 182 235 293 338 409
#     4  11  27  43  68 102 134 182 238 283 351 418
#     4  11  23  39  62  91 134 173 230 289 351 401
#     4  12  25  41  66 100 135 178 234 287 348 425
#
# _framework density 21.366416999999998
#
# number of rings (size 3 to 8) (size 9 to 14) (size 15 to 20)
#    0.000    0.857    4.286    3.000    6.000    3.429 
#    0.000    0.000    0.000    4.286   18.571    0.000 
#    0.000    0.000    0.000    0.000    0.000    0.000 
#
# Total GULP energy -1041182.845899 kJ/mol
# GULP energy per Si atom -12395.033880 kJ/mol
# Density = 2.131779 g / cm^3
# Si number density = 21.366417 Si / 1000 Ang^3
#
#
#
# Elastic Constant Matrix: (Units=GPa)
#
#
# Indices 1 2 3 4 5 6 
#
# 1 89.6734 33.9697 32.4755 0.0000 0.0000 0.0000
# 2 33.9697 89.6734 32.4755 0.0000 0.0000 0.0000
# 3 32.4755 32.4755 115.8943 0.0000 0.0000 0.0000
# 4 0.0000 0.0000 0.0000 27.9465 0.0000 0.0000
# 5 0.0000 0.0000 0.0000 0.0000 27.9465 0.0000
# 6 0.0000 0.0000 0.0000 0.0000 0.0000 27.8519
#
#
#
# Elastic Compliance Matrix: (Units=1/GPa)
#
#
# Indices 1 2 3 4 5 6 
#
# 1 0.013718 -0.004234 -0.002658 0.000000 0.000000 0.000000
# 2 -0.004234 0.013718 -0.002658 0.000000 0.000000 0.000000
# 3 -0.002658 -0.002658 0.010118 0.000000 0.000000 0.000000
# 4 0.000000 0.000000 0.000000 0.035783 0.000000 0.000000
# 5 0.000000 0.000000 0.000000 0.000000 0.035783 0.000000
# 6 0.000000 0.000000 0.000000 0.000000 0.000000 0.035904
#
#
# Mechanical properties :
#
#
# Convention : Reuss Voigt Hill
#
# Bulk Modulus (GPa) = 54.18451 54.78695 54.48573
# Shear Modulus (GPa) = 29.36452 29.83702 29.60077
#
# Velocity S-wave (km/s) = 3.71122 3.74096 3.72612
# Velocity P-wave (km/s) = 6.61656 6.66010 6.63837
#
# Compressibility (1/GPa) = 0.01845546
#
# Stress axis : x y z
#
# Youngs Moduli (GPa) = 72.89710 72.89710 98.83464
#
# Poissons Ratio (x) = 0.30866 0.26265
# Poissons Ratio (y) = 0.30866 0.26265
# Poissons Ratio (z) = 0.19373 0.19373
#
# Static dielectric constant tensor:
#      x y z
#    x 3.806560 0.000000 0.000000 
#    y 0.000000 3.806560 0.000000 
#    z 0.000000 0.000000 3.197320 
# 
# 
# High freq. dielectric constant tensor:
#      x y z
#    x 1.830460 0.000000 0.000000 
#    y 0.000000 1.830460 0.000000 
#    z 0.000000 0.000000 1.854410 
# 
# From -- ./inp_files/6026.got.cif
#   From: 2010.03.12/outbox.cif.g09.slc.cpg/sg178_4_cif.got.tgz:6026.got - 2010.04.02 07:02:38.
