data_PCOD8325077
_publ_section_title
;
Structure prediction by ZEFSAII (Michael W. Deem and Ramdas Pophale) SiO2 
 PCOD8325077
Probable space group: P 6/M
;
_chemical_formula_sum "Si O2"
_cell_formula_units_Z 72
_cell_length_a 23.751909
_cell_length_b 23.751909
_cell_length_c 9.059966
_cell_angle_alpha 90.000000
_cell_angle_beta 90.000000
_cell_angle_gamma 120.000000
_cell_volume 4426.436526
_symmetry_space_group_name_H-M "P 6/M"
_symmetry_group_IT_number 175
_symmetry_cell_setting 'hexagonal'
loop_
_space_group_symop_operation_xyz
x,y,z
x-y,x,z
-y,x-y,z
-x,-y,z
-x+y,-x,z
y,-x+y,z
-x,-y,-z
-x+y,-x,-z
y,-x+y,-z
x,y,-z
x-y,x,-z
-y,x-y,-z
loop_
_atom_site_type_symbol
_atom_site_label
_atom_site_fract_x
_atom_site_fract_y
_atom_site_fract_z
Si Si1 0.516626 0.253185 0.662916
Si Si2 0.819447 0.637551 0.335325
Si Si3 0.515749 0.143633 0.827819
Si Si4 0.925671 0.292098 0.170002
Si Si5 0.625313 0.136197 0.674028
Si Si6 0.076076 0.374509 0.827403
O O1 0.542921 0.249661 0.500000
O O2 0.439508 0.218470 0.658944
O O3 0.539820 0.218009 0.779200
O O4 0.540838 0.327568 0.708647
O O5 0.839411 0.666837 0.500000
O O6 0.774745 0.663227 0.261841
O O7 0.883870 0.657965 0.239386
O O8 0.440594 0.097415 0.784698
O O9 0.554980 0.115475 0.740024
O O10 0.529101 0.142904 0.000000
O O11 0.001256 0.323419 0.203067
O O12 0.908371 0.273378 0.000000
O O13 0.620663 0.122615 0.500000
O O14 0.651159 0.092732 0.749942
O O15 0.091782 0.388084 0.000000
#
# Coordination Sequence:
#
# PCOD8325077 Si02
#       6
#    12  12  12  12  12  12
#     4   8  16  31  46  59  78 108 143 180 228 284
#     4   9  17  30  49  70  92 118 148 185 225 268
#     4  10  19  31  47  65  86 112 148 194 239 285
#     4   9  19  33  49  70  94 124 157 189 229 278
#     4  10  20  33  47  64  88 117 150 191 242 291
#     4  10  19  32  50  70  94 123 156 191 229 276
#
# _framework density 16.265906999999999
#
# number of rings (size 3 to 8) (size 9 to 14) (size 15 to 20)
#    0.000    2.667    0.000    3.000    0.000    7.333 
#    1.000    3.333    0.000    0.000    0.000    0.000 
#    0.000    0.000    0.000    0.500    0.000    9.667 
#
# Total GULP energy -892676.523415 kJ/mol
# GULP energy per Si atom -12398.285047 kJ/mol
# Density = 1.622888 g / cm^3
# Si number density = 16.265907 Si / 1000 Ang^3
#
#
#
# Elastic Constant Matrix: (Units=GPa)
#
#
# Indices 1 2 3 4 5 6 
#
# 1 72.2707 41.8014 50.7345 0.0000 0.0000 0.0000
# 2 41.8014 72.2707 50.7345 0.0000 0.0000 0.0000
# 3 50.7345 50.7345 109.5865 0.0000 0.0000 0.0000
# 4 0.0000 0.0000 0.0000 21.7550 0.0000 0.0000
# 5 0.0000 0.0000 0.0000 0.0000 21.7550 0.0000
# 6 0.0000 0.0000 0.0000 0.0000 0.0000 15.2346
#
#
#
# Elastic Compliance Matrix: (Units=1/GPa)
#
#
# Indices 1 2 3 4 5 6 
#
# 1 0.023862 -0.008958 -0.006900 0.000000 0.000000 0.000000
# 2 -0.008958 0.023862 -0.006900 0.000000 0.000000 0.000000
# 3 -0.006900 -0.006900 0.015514 0.000000 0.000000 0.000000
# 4 0.000000 0.000000 0.000000 0.045966 0.000000 0.000000
# 5 0.000000 0.000000 0.000000 0.000000 0.045966 0.000000
# 6 0.000000 0.000000 0.000000 0.000000 0.000000 0.065640
#
#
# Mechanical properties :
#
#
# Convention : Reuss Voigt Hill
#
# Bulk Modulus (GPa) = 56.42657 60.07428 58.25042
# Shear Modulus (GPa) = 18.36653 19.13943 18.75298
#
# Velocity S-wave (km/s) = 3.36392 3.43397 3.39912
# Velocity P-wave (km/s) = 7.06069 7.26193 7.16202
#
# Compressibility (1/GPa) = 0.01772215
#
# Stress axis : x y z
#
# Youngs Moduli (GPa) = 41.90762 41.90762 64.45734
#
# Poissons Ratio (x) = 0.37541 0.44476
# Poissons Ratio (y) = 0.37541 0.44476
# Poissons Ratio (z) = 0.28916 0.28916
#
# Static dielectric constant tensor:
#      x y z
#    x 2.935530 0.000000 0.000000 
#    y 0.000000 2.935530 0.000000 
#    z 0.000000 0.000000 3.253950 
# 
# 
# High freq. dielectric constant tensor:
#      x y z
#    x 1.597710 0.000000 0.000000 
#    y 0.000000 1.597710 0.000000 
#    z 0.000000 0.000000 1.640960 
# 
# From -- ./inp_files/1161.got.cif
#   From: 2010.03.12/outbox.cif.g09.slc.cpg/sg175_1_cif.got.tgz:1161.got - 2010.04.02 06:55:29.
