data_PCOD8325660
_publ_section_title
;
Structure prediction by ZEFSAII (Michael W. Deem and Ramdas Pophale) SiO2 
 PCOD8325660
Probable space group: P 63/M
;
_chemical_formula_sum "Si O2"
_cell_formula_units_Z 30
_cell_length_a 8.633378
_cell_length_b 8.633378
_cell_length_c 22.109730
_cell_angle_alpha 90.000000
_cell_angle_beta 90.000000
_cell_angle_gamma 120.000000
_cell_volume 1427.169590
_symmetry_space_group_name_H-M "P 63/M"
_symmetry_group_IT_number 176
_symmetry_cell_setting 'hexagonal'
loop_
_space_group_symop_operation_xyz
x,y,z
x-y,x,1/2+z
-y,x-y,z
-x,-y,1/2+z
-x+y,-x,z
y,-x+y,1/2+z
-x,-y,-z
-x+y,-x,1/2-z
y,-x+y,-z
x,y,1/2-z
x-y,x,-z
-y,x-y,1/2-z
loop_
_atom_site_type_symbol
_atom_site_label
_atom_site_fract_x
_atom_site_fract_y
_atom_site_fract_z
Si Si1 0.862165 0.325966 0.250000
Si Si2 0.333335 0.666668 0.935788
Si Si3 0.000000 0.000000 0.928365
Si Si4 0.666667 0.333335 0.579054
Si Si5 0.009032 0.669856 0.879798
O O1 0.845874 0.506068 0.250000
O O2 0.970706 0.321236 0.307703
O O3 0.392217 0.529717 0.910633
O O4 0.333334 0.666667 0.007227
O O5 0.060455 0.863529 0.904531
O O6 0.000000 0.000000 0.000000
O O7 0.723104 0.194010 0.603369
#
# Coordination Sequence:
#
# PCOD8325660 Si02
#       5
#     6   4   4   4  12
#     4  10  22  44  72  92 138 172 230 278 344 402
#     4  12  21  46  68  97 141 180 217 284 337 396
#     4  12  27  46  68 106 141 177 232 281 340 414
#     4  12  27  40  68 106 132 177 232 266 340 411
#     4  12  24  43  71  97 137 182 222 282 338 397
#
# _framework density 21.020627000000001
#
# number of rings (size 3 to 8) (size 9 to 14) (size 15 to 20)
#    0.400    0.000    4.000    6.000    0.000    3.200 
#    0.000    0.000    0.000    0.000    0.000    0.000 
#    0.000    0.000    0.000    0.000    0.000    0.000 
#
# Total GULP energy -372253.371151 kJ/mol
# GULP energy per Si atom -12408.445705 kJ/mol
# Density = 2.097278 g / cm^3
# Si number density = 21.020627 Si / 1000 Ang^3
#
#
#
# Elastic Constant Matrix: (Units=GPa)
#
#
# Indices 1 2 3 4 5 6 
#
# 1 80.0564 18.2542 47.1188 0.0000 0.0000 -0.0020
# 2 18.2542 80.0593 47.1172 0.0000 0.0000 0.0006
# 3 47.1188 47.1172 238.7202 0.0000 0.0000 0.0001
# 4 0.0000 0.0000 0.0000 -6.5498 0.0053 0.0000
# 5 0.0000 0.0000 0.0000 0.0053 -6.5820 0.0000
# 6 -0.0020 0.0006 0.0001 0.0000 0.0000 30.9035
#
#
#
# Elastic Compliance Matrix: (Units=1/GPa)
#
#
# Indices 1 2 3 4 5 6 
#
# 1 0.014363 -0.001818 -0.002476 0.000000 0.000000 0.000001
# 2 -0.001818 0.014362 -0.002476 0.000000 0.000000 0.000000
# 3 -0.002476 -0.002476 0.005166 0.000000 0.000000 0.000000
# 4 0.000000 0.000000 0.000000 -0.152677 -0.000123 0.000000
# 5 0.000000 0.000000 0.000000 -0.000123 -0.151930 0.000000
# 6 0.000001 0.000000 0.000000 0.000000 0.000000 0.032359
#
#
# Mechanical properties :
#
#
# Convention : Reuss Voigt Hill
#
# Bulk Modulus (GPa) = 49.13460 69.31293 59.22377
# Shear Modulus (GPa) = -22.93237 22.64406 -0.14416
#
# Velocity S-wave (km/s) = -3.30653 3.28568 -0.26216
# Velocity P-wave (km/s) = 2.97451 6.88764 5.30506
#
# Compressibility (1/GPa) = 0.02035226
#
# Stress axis : x y z
#
# Youngs Moduli (GPa) = 69.62300 69.62642 193.55578
#
# Poissons Ratio (x) = 0.12655 0.47929
# Poissons Ratio (y) = 0.12654 0.47925
# Poissons Ratio (z) = 0.17240 0.17240
#
# Static dielectric constant tensor:
#      x y z
#    x 3.515860 0.000040 0.000000 
#    y 0.000040 3.515920 0.000000 
#    z 0.000000 0.000000 3.855010 
# 
# 
# High freq. dielectric constant tensor:
#      x y z
#    x 1.823580 0.000000 0.000000 
#    y 0.000000 1.823580 0.000000 
#    z 0.000000 0.000000 1.841560 
# 
# From -- ./inp_files/3940.got.cif
#   From: 2010.06.25/outbox.cif.g09.slc.cpg/sg176_2_cif.got.tgz:3940.got - 2010.06.28 12:15:01.
