data_PCOD8325635
_publ_section_title
;
Structure prediction by ZEFSAII (Michael W. Deem and Ramdas Pophale) SiO2 
 PCOD8325635
Probable space group: P 63/M
;
_chemical_formula_sum "Si O2"
_cell_formula_units_Z 60
_cell_length_a 17.645829
_cell_length_b 17.645829
_cell_length_c 10.560586
_cell_angle_alpha 90.000000
_cell_angle_beta 90.000000
_cell_angle_gamma 120.000000
_cell_volume 2847.756042
_symmetry_space_group_name_H-M "P 63/M"
_symmetry_group_IT_number 176
_symmetry_cell_setting 'hexagonal'
loop_
_space_group_symop_operation_xyz
x,y,z
x-y,x,1/2+z
-y,x-y,z
-x,-y,1/2+z
-x+y,-x,z
y,-x+y,1/2+z
-x,-y,-z
-x+y,-x,1/2-z
y,-x+y,-z
x,y,1/2-z
x-y,x,-z
-y,x-y,1/2-z
loop_
_atom_site_type_symbol
_atom_site_label
_atom_site_fract_x
_atom_site_fract_y
_atom_site_fract_z
Si Si1 0.233306 0.759152 0.391848
Si Si2 0.806803 0.953965 0.250000
Si Si3 0.948705 0.146075 0.250000
Si Si4 0.398184 0.426086 0.613542
Si Si5 0.306093 0.080811 0.503733
Si Si6 0.576912 0.142473 0.547213
O O1 0.254848 0.799932 0.250000
O O2 0.179669 0.797075 0.466290
O O3 0.321304 0.786542 0.471983
O O4 0.182560 0.654848 0.373795
O O5 0.815882 0.868177 0.250000
O O6 0.756966 0.956718 0.124144
O O7 0.901233 0.040931 0.250000
O O8 0.920285 0.175416 0.377404
O O9 0.352086 0.400904 0.750000
O O10 0.330530 0.353109 0.515608
O O11 0.488901 0.427353 0.621912
O O12 0.417674 0.524234 0.583876
#
# Coordination Sequence:
#
# PCOD8325635 Si02
#       6
#    12   6   6  12  12  12
#     4  11  21  39  62  99 134 181 231 286 331 403
#     4  12  27  48  72 105 135 177 227 285 351 434
#     4  12  27  48  72 101 139 177 221 287 359 424
#     4  10  21  43  63  96 135 182 224 288 337 397
#     4  11  25  43  72 102 136 179 231 279 350 410
#     4  10  23  37  64  95 133 177 225 276 339 395
#
# _framework density 21.069220999999999
#
# number of rings (size 3 to 8) (size 9 to 14) (size 15 to 20)
#    0.000    1.200    2.000    3.600    5.600    0.000 
#    3.600    2.000    0.000    0.000    0.000    0.000 
#    0.000    0.000    0.000    0.000    0.000    0.000 
#
# Total GULP energy -743702.446343 kJ/mol
# GULP energy per Si atom -12395.040772 kJ/mol
# Density = 2.102127 g / cm^3
# Si number density = 21.069221 Si / 1000 Ang^3
#
#
#
# Elastic Constant Matrix: (Units=GPa)
#
#
# Indices 1 2 3 4 5 6 
#
# 1 128.0688 49.2721 53.5584 0.0000 0.0000 0.0000
# 2 49.2721 128.0688 53.5584 0.0000 0.0000 0.0000
# 3 53.5584 53.5584 135.9210 0.0000 0.0000 0.0000
# 4 0.0000 0.0000 0.0000 18.9768 0.0000 0.0000
# 5 0.0000 0.0000 0.0000 0.0000 18.9768 0.0000
# 6 0.0000 0.0000 0.0000 0.0000 0.0000 39.3983
#
#
#
# Elastic Compliance Matrix: (Units=1/GPa)
#
#
# Indices 1 2 3 4 5 6 
#
# 1 0.010046 -0.002645 -0.002916 0.000000 0.000000 0.000000
# 2 -0.002645 0.010046 -0.002916 0.000000 0.000000 0.000000
# 3 -0.002916 -0.002916 0.009655 0.000000 0.000000 0.000000
# 4 0.000000 0.000000 0.000000 0.052696 0.000000 0.000000
# 5 0.000000 0.000000 0.000000 0.000000 0.052696 0.000000
# 6 0.000000 0.000000 0.000000 0.000000 0.000000 0.025382
#
#
# Mechanical properties :
#
#
# Convention : Reuss Voigt Hill
#
# Bulk Modulus (GPa) = 78.17581 78.31518 78.24550
# Shear Modulus (GPa) = 27.51210 31.18171 29.34691
#
# Velocity S-wave (km/s) = 3.61750 3.85120 3.73618
# Velocity P-wave (km/s) = 7.39143 7.55161 7.47195
#
# Compressibility (1/GPa) = 0.01279168
#
# Stress axis : x y z
#
# Youngs Moduli (GPa) = 99.54689 99.54689 103.57083
#
# Poissons Ratio (x) = 0.26334 0.30201
# Poissons Ratio (y) = 0.26334 0.30201
# Poissons Ratio (z) = 0.29027 0.29027
#
# Static dielectric constant tensor:
#      x y z
#    x 3.878510 0.000000 0.000000 
#    y 0.000000 3.878510 0.000000 
#    z 0.000000 0.000000 3.717700 
# 
# 
# High freq. dielectric constant tensor:
#      x y z
#    x 1.833080 0.000000 0.000000 
#    y 0.000000 1.833080 0.000000 
#    z 0.000000 0.000000 1.817880 
# 
# From -- ./inp_files/1913.got.cif
#   From: 2010.06.25/outbox.cif.g09.slc.cpg/sg176_1_cif.got.tgz:1913.got - 2010.06.28 12:15:01.
