data_PCOD8325549
_publ_section_title
;
Structure prediction by ZEFSAII (Michael W. Deem and Ramdas Pophale) SiO2 
 PCOD8325549
Probable space group: P 63/M
;
_chemical_formula_sum "Si O2"
_cell_formula_units_Z 40
_cell_length_a 13.490387
_cell_length_b 13.490387
_cell_length_c 13.774832
_cell_angle_alpha 90.000000
_cell_angle_beta 90.000000
_cell_angle_gamma 120.000000
_cell_volume 2171.029674
_symmetry_space_group_name_H-M "P 63/M"
_symmetry_group_IT_number 176
_symmetry_cell_setting 'hexagonal'
loop_
_space_group_symop_operation_xyz
x,y,z
x-y,x,1/2+z
-y,x-y,z
-x,-y,1/2+z
-x+y,-x,z
y,-x+y,1/2+z
-x,-y,-z
-x+y,-x,1/2-z
y,-x+y,-z
x,y,1/2-z
x-y,x,-z
-y,x-y,1/2-z
loop_
_atom_site_type_symbol
_atom_site_label
_atom_site_fract_x
_atom_site_fract_y
_atom_site_fract_z
Si Si1 0.051171 0.694351 0.250000
Si Si2 0.918682 0.625772 0.750000
Si Si3 0.884485 0.791063 0.250000
Si Si4 0.489761 0.992342 0.385971
Si Si5 0.619777 0.427697 0.250000
Si Si6 0.000000 0.000000 0.884773
O O1 0.165157 0.815650 0.250000
O O2 0.942109 0.712014 0.250000
O O3 0.049326 0.624165 0.345233
O O4 0.037557 0.747231 0.750000
O O5 0.911602 0.551384 0.845761
O O6 0.923143 0.870495 0.346108
O O7 0.526381 0.117970 0.346845
O O8 0.500000 0.000000 0.500000
O O9 0.537417 0.289484 0.250000
O O10 0.000000 0.000000 0.000000
#
# Coordination Sequence:
#
# PCOD8325549 Si02
#       6
#     6   6   6  12   6   4
#     4  10  21  42  60  84 125 160 186 246 304 347
#     4  10  21  42  60  84 125 160 186 246 304 347
#     4  10  20  39  62  86 126 155 190 232 308 362
#     4  10  24  38  59  90 114 156 211 243 286 347
#     4   8  18  37  62  80 110 149 194 238 304 330
#     4  10  20  34  55  92 124 154 197 229 286 365
#
# _framework density 18.424436
#
# number of rings (size 3 to 8) (size 9 to 14) (size 15 to 20)
#    0.300    2.400    3.000    0.000    8.400    4.800 
#    7.200    0.000    0.000    0.000    0.000    0.000 
#    0.000    0.000    0.000    0.000    0.000    0.000 
#
# Total GULP energy -495710.956809 kJ/mol
# GULP energy per Si atom -12392.773920 kJ/mol
# Density = 1.838250 g / cm^3
# Si number density = 18.424436 Si / 1000 Ang^3
#
#
#
# Elastic Constant Matrix: (Units=GPa)
#
#
# Indices 1 2 3 4 5 6 
#
# 1 95.1459 17.7371 34.2451 0.0000 0.0000 0.0000
# 2 17.7371 95.1459 34.2451 0.0000 0.0000 0.0000
# 3 34.2451 34.2451 188.9269 0.0000 0.0000 0.0000
# 4 0.0000 0.0000 0.0000 13.6211 0.0000 0.0000
# 5 0.0000 0.0000 0.0000 0.0000 13.6211 0.0000
# 6 0.0000 0.0000 0.0000 0.0000 0.0000 38.7044
#
#
#
# Elastic Compliance Matrix: (Units=1/GPa)
#
#
# Indices 1 2 3 4 5 6 
#
# 1 0.011436 -0.001483 -0.001804 0.000000 0.000000 0.000000
# 2 -0.001483 0.011436 -0.001804 0.000000 0.000000 0.000000
# 3 -0.001804 -0.001804 0.005947 0.000000 0.000000 0.000000
# 4 0.000000 0.000000 0.000000 0.073415 0.000000 0.000000
# 5 0.000000 0.000000 0.000000 0.000000 0.073415 0.000000
# 6 0.000000 0.000000 0.000000 0.000000 0.000000 0.025837
#
#
# Mechanical properties :
#
#
# Convention : Reuss Voigt Hill
#
# Bulk Modulus (GPa) = 53.65608 61.29702 57.47655
# Shear Modulus (GPa) = 22.94832 32.72207 27.83520
#
# Velocity S-wave (km/s) = 3.53305 4.21885 3.89109
# Velocity P-wave (km/s) = 6.76969 7.55468 7.17293
#
# Compressibility (1/GPa) = 0.01863722
#
# Stress axis : x y z
#
# Youngs Moduli (GPa) = 87.44388 87.44388 168.14918
#
# Poissons Ratio (x) = 0.12964 0.30337
# Poissons Ratio (y) = 0.12964 0.30337
# Poissons Ratio (z) = 0.15776 0.15776
#
# Static dielectric constant tensor:
#      x y z
#    x 3.459490 0.000000 0.000000 
#    y 0.000000 3.459490 0.000000 
#    z 0.000000 0.000000 3.130820 
# 
# 
# High freq. dielectric constant tensor:
#      x y z
#    x 1.724930 0.000000 0.000000 
#    y 0.000000 1.724930 0.000000 
#    z 0.000000 0.000000 1.690730 
# 
# From -- ./inp_files/2451.got.cif
#   From: 2010.06.25/outbox.cif.g09.slc.cpg/sg176_2_cif.got.tgz:2451.got - 2010.06.28 12:15:01.
