data_PCOD8325440
_publ_section_title
;
Structure prediction by ZEFSAII (Michael W. Deem and Ramdas Pophale) SiO2 
 PCOD8325440
Probable space group: P 63/M
;
_chemical_formula_sum "Si O2"
_cell_formula_units_Z 66
_cell_length_a 12.016518
_cell_length_b 12.016518
_cell_length_c 26.554653
_cell_angle_alpha 90.000000
_cell_angle_beta 90.000000
_cell_angle_gamma 120.000000
_cell_volume 3320.691611
_symmetry_space_group_name_H-M "P 63/M"
_symmetry_group_IT_number 176
_symmetry_cell_setting 'hexagonal'
loop_
_space_group_symop_operation_xyz
x,y,z
x-y,x,1/2+z
-y,x-y,z
-x,-y,1/2+z
-x+y,-x,z
y,-x+y,1/2+z
-x,-y,-z
-x+y,-x,1/2-z
y,-x+y,-z
x,y,1/2-z
x-y,x,-z
-y,x-y,1/2-z
loop_
_atom_site_type_symbol
_atom_site_label
_atom_site_fract_x
_atom_site_fract_y
_atom_site_fract_z
Si Si1 0.519624 0.329426 0.250000
Si Si2 0.876592 0.843923 0.306818
Si Si3 0.671205 0.083312 0.966550
Si Si4 0.083723 0.457387 0.645263
Si Si5 0.659982 0.575916 0.558428
Si Si6 0.282305 0.391281 0.880318
O O1 0.542886 0.206469 0.250000
O O2 0.431227 0.323546 0.202887
O O3 0.833805 0.789641 0.250000
O O4 0.791046 0.736954 0.347101
O O5 0.862020 0.971054 0.314340
O O6 0.812164 0.195340 0.953412
O O7 0.572919 0.134250 0.954188
O O8 0.641469 0.957593 0.934585
O O9 0.661795 0.043248 0.024810
O O10 0.081769 0.588589 0.647122
O O11 0.198656 0.461080 0.612350
O O12 0.953069 0.350287 0.617930
#
# Coordination Sequence:
#
# PCOD8325440 Si02
#       6
#     6  12  12  12  12  12
#     4  10  18  36  56  88 134 158 200 264 316 366
#     4   8  19  37  55  83 122 172 214 252 311 391
#     4  10  22  40  64  89 122 162 210 275 311 401
#     4  11  22  34  59  91 128 163 205 267 327 375
#     4  10  22  40  61  90 119 163 210 258 334 379
#     4  11  21  36  60  90 124 167 212 269 325 377
#
# _framework density 19.875377
#
# number of rings (size 3 to 8) (size 9 to 14) (size 15 to 20)
#    0.545    1.455    1.818    1.818    5.091    0.000 
#    0.000    3.636    0.000    1.455    0.000    0.000 
#    0.000    0.000    0.000    0.000    0.000    0.000 
#
# Total GULP energy -817734.637890 kJ/mol
# GULP energy per Si atom -12389.918756 kJ/mol
# Density = 1.983014 g / cm^3
# Si number density = 19.875377 Si / 1000 Ang^3
#
#
#
# Elastic Constant Matrix: (Units=GPa)
#
#
# Indices 1 2 3 4 5 6 
#
# 1 69.0195 34.8860 33.0663 0.0000 0.0000 0.0000
# 2 34.8860 69.0195 33.0663 0.0000 0.0000 0.0000
# 3 33.0663 33.0663 102.9438 0.0000 0.0000 0.0000
# 4 0.0000 0.0000 0.0000 21.6773 0.0000 0.0000
# 5 0.0000 0.0000 0.0000 0.0000 21.6773 0.0000
# 6 0.0000 0.0000 0.0000 0.0000 0.0000 17.0667
#
#
#
# Elastic Compliance Matrix: (Units=1/GPa)
#
#
# Indices 1 2 3 4 5 6 
#
# 1 0.020697 -0.008600 -0.003886 0.000000 0.000000 0.000000
# 2 -0.008600 0.020697 -0.003886 0.000000 0.000000 0.000000
# 3 -0.003886 -0.003886 0.012210 0.000000 0.000000 0.000000
# 4 0.000000 0.000000 0.000000 0.046131 0.000000 0.000000
# 5 0.000000 0.000000 0.000000 0.000000 0.046131 0.000000
# 6 0.000000 0.000000 0.000000 0.000000 0.000000 0.058594
#
#
# Mechanical properties :
#
#
# Convention : Reuss Voigt Hill
#
# Bulk Modulus (GPa) = 47.93426 49.22446 48.57936
# Shear Modulus (GPa) = 20.47864 21.41520 20.94692
#
# Velocity S-wave (km/s) = 3.21339 3.28605 3.24992
# Velocity P-wave (km/s) = 6.15935 6.26241 6.21110
#
# Compressibility (1/GPa) = 0.02086191
#
# Stress axis : x y z
#
# Youngs Moduli (GPa) = 48.31610 48.31610 81.89811
#
# Poissons Ratio (x) = 0.41551 0.31823
# Poissons Ratio (y) = 0.41551 0.31823
# Poissons Ratio (z) = 0.18774 0.18774
#
# Static dielectric constant tensor:
#      x y z
#    x 3.488840 0.000000 0.000000 
#    y 0.000000 3.488840 0.000000 
#    z 0.000000 0.000000 3.625390 
# 
# 
# High freq. dielectric constant tensor:
#      x y z
#    x 1.761310 0.000000 0.000000 
#    y 0.000000 1.761310 0.000000 
#    z 0.000000 0.000000 1.780780 
# 
# From -- ./inp_files/4466.got.cif
#   From: 2010.06.25/outbox.cif.g09.slc.cpg/sg176_3_cif.got.tgz:4466.got - 2010.06.28 12:15:01.
