data_PCOD8325214
_publ_section_title
;
Structure prediction by ZEFSAII (Michael W. Deem and Ramdas Pophale) SiO2 
 PCOD8325214
Probable space group: P 6/M
;
_chemical_formula_sum "Si O2"
_cell_formula_units_Z 60
_cell_length_a 14.732299
_cell_length_b 14.732299
_cell_length_c 13.349426
_cell_angle_alpha 90.000000
_cell_angle_beta 90.000000
_cell_angle_gamma 120.000000
_cell_volume 2509.194188
_symmetry_space_group_name_H-M "P 6/M"
_symmetry_group_IT_number 175
_symmetry_cell_setting 'hexagonal'
loop_
_space_group_symop_operation_xyz
x,y,z
x-y,x,z
-y,x-y,z
-x,-y,z
-x+y,-x,z
y,-x+y,z
-x,-y,-z
-x+y,-x,-z
y,-x+y,-z
x,y,-z
x-y,x,-z
-y,x-y,-z
loop_
_atom_site_type_symbol
_atom_site_label
_atom_site_fract_x
_atom_site_fract_y
_atom_site_fract_z
Si Si1 0.698662 0.535020 0.802440
Si Si2 0.264076 0.267895 0.887240
Si Si3 0.504457 0.361895 0.887078
Si Si4 0.221492 0.190992 0.678826
Si Si5 0.622705 0.584395 0.614942
O O1 0.771402 0.646223 0.861349
O O2 0.583907 0.478962 0.852001
O O3 0.758921 0.471149 0.816259
O O4 0.691524 0.552469 0.684371
O O5 0.388172 0.340203 0.874520
O O6 0.217397 0.179923 0.800872
O O7 0.228463 0.220749 0.000000
O O8 0.528322 0.344559 0.000000
O O9 0.125996 0.207208 0.637995
O O10 0.333826 0.291684 0.643230
O O11 0.500000 0.500000 0.636065
O O12 0.648660 0.576681 0.500000
#
# Coordination Sequence:
#
# PCOD8325214 Si02
#       5
#    12  12  12  12  12
#     4  11  21  36  56  83 118 159 207 261 324 394
#     4  10  20  35  56  83 120 167 216 264 319 388
#     4  11  21  33  54  86 123 162 205 256 317 390
#     4  11  24  43  68  99 137 182 232 284 341 408
#     4  10  23  44  69  94 122 162 216 282 351 411
#
# _framework density 23.912058999999999
#
# number of rings (size 3 to 8) (size 9 to 14) (size 15 to 20)
#    0.000    1.400    0.000    7.800    0.000    4.800 
#    0.000    3.000    0.000    3.200    0.000    0.000 
#    0.000    0.000    0.000    0.000    0.000    0.000 
#
# Total GULP energy -743429.023982 kJ/mol
# GULP energy per Si atom -12390.483733 kJ/mol
# Density = 2.385763 g / cm^3
# Si number density = 23.912059 Si / 1000 Ang^3
#
#
#
# Elastic Constant Matrix: (Units=GPa)
#
#
# Indices 1 2 3 4 5 6 
#
# 1 91.8342 26.2934 11.4039 0.0000 0.0000 0.0000
# 2 26.2934 91.8342 11.4039 0.0000 0.0000 0.0000
# 3 11.4039 11.4039 120.3703 0.0000 0.0000 0.0000
# 4 0.0000 0.0000 0.0000 17.6797 0.0000 0.0000
# 5 0.0000 0.0000 0.0000 0.0000 17.6797 0.0000
# 6 0.0000 0.0000 0.0000 0.0000 0.0000 32.7704
#
#
#
# Elastic Compliance Matrix: (Units=1/GPa)
#
#
# Indices 1 2 3 4 5 6 
#
# 1 0.011940 -0.003317 -0.000817 0.000000 0.000000 0.000000
# 2 -0.003317 0.011940 -0.000817 0.000000 0.000000 0.000000
# 3 -0.000817 -0.000817 0.008462 0.000000 0.000000 0.000000
# 4 0.000000 0.000000 0.000000 0.056562 0.000000 0.000000
# 5 0.000000 0.000000 0.000000 0.000000 0.056562 0.000000
# 6 0.000000 0.000000 0.000000 0.000000 0.000000 0.030515
#
#
# Mechanical properties :
#
#
# Convention : Reuss Voigt Hill
#
# Bulk Modulus (GPa) = 44.56133 44.69344 44.62739
# Shear Modulus (GPa) = 25.85777 30.62180 28.23979
#
# Velocity S-wave (km/s) = 3.29199 3.58243 3.44027
# Velocity P-wave (km/s) = 5.75548 5.98691 5.87233
#
# Compressibility (1/GPa) = 0.02244098
#
# Stress axis : x y z
#
# Youngs Moduli (GPa) = 83.74921 83.74921 118.16843
#
# Poissons Ratio (x) = 0.27782 0.09654
# Poissons Ratio (y) = 0.27782 0.09654
# Poissons Ratio (z) = 0.06842 0.06842
#
# Static dielectric constant tensor:
#      x y z
#    x 4.242110 0.000000 0.000000 
#    y 0.000000 4.242110 0.000000 
#    z 0.000000 0.000000 4.236750 
# 
# 
# High freq. dielectric constant tensor:
#      x y z
#    x 1.945870 0.000000 0.000000 
#    y 0.000000 1.945870 0.000000 
#    z 0.000000 0.000000 1.933990 
# 
# From -- ./inp_files/2380.got.cif
#   From: 2010.03.12/outbox.cif.g09.slc.cpg/sg175_2_cif.got.tgz:2380.got - 2010.04.02 06:55:29.
