data_PCOD8325414
_publ_section_title
;
Structure prediction by ZEFSAII (Michael W. Deem and Ramdas Pophale) SiO2 
 PCOD8325414
Probable space group: P 63/M
;
_chemical_formula_sum "Si O2"
_cell_formula_units_Z 96
_cell_length_a 27.661026
_cell_length_b 27.661026
_cell_length_c 9.420282
_cell_angle_alpha 90.000000
_cell_angle_beta 90.000000
_cell_angle_gamma 120.000000
_cell_volume 6242.105510
_symmetry_space_group_name_H-M "P 63/M"
_symmetry_group_IT_number 176
_symmetry_cell_setting 'hexagonal'
loop_
_space_group_symop_operation_xyz
x,y,z
x-y,x,1/2+z
-y,x-y,z
-x,-y,1/2+z
-x+y,-x,z
y,-x+y,1/2+z
-x,-y,-z
-x+y,-x,1/2-z
y,-x+y,-z
x,y,1/2-z
x-y,x,-z
-y,x-y,1/2-z
loop_
_atom_site_type_symbol
_atom_site_label
_atom_site_fract_x
_atom_site_fract_y
_atom_site_fract_z
Si Si1 0.577419 0.511402 0.914902
Si Si2 0.594085 0.706131 0.583047
Si Si3 0.483097 0.420551 0.086043
Si Si4 0.812162 0.179757 0.581673
Si Si5 0.593622 0.895779 0.081910
Si Si6 0.237186 0.126662 0.581834
Si Si7 0.997995 0.693859 0.410241
Si Si8 0.806666 0.998550 0.089631
O O1 0.568186 0.496425 0.750000
O O2 0.559850 0.557757 0.952692
O O3 0.642423 0.535391 0.958511
O O4 0.540358 0.454420 0.999510
O O5 0.596355 0.719566 0.750000
O O6 0.543554 0.644523 0.547285
O O7 0.591260 0.753502 0.493331
O O8 0.651189 0.711813 0.519761
O O9 0.499057 0.430919 0.250000
O O10 0.804292 0.174524 0.750000
O O11 0.845339 0.243897 0.528316
O O12 0.843116 0.145416 0.530912
O O13 0.602254 0.900242 0.250000
O O14 0.643234 0.951934 0.011125
O O15 0.236054 0.133149 0.750000
O O16 0.202882 0.153363 0.511511
O O17 0.202292 0.061190 0.538169
O O18 0.993350 0.671355 0.250000
O O19 0.010818 0.756127 0.414123
O O20 0.830819 0.012447 0.250000
#
# Coordination Sequence:
#
# PCOD8325414 Si02
#       8
#    12  12  12  12  12  12  12  12
#     4   9  16  27  45  65  85 116 155 184 209 250
#     4  10  18  29  45  64  90 125 158 181 212 268
#     4   9  17  28  43  64  89 118 150 183 215 251
#     4  10  19  29  44  67  94 120 150 190 227 261
#     4   9  15  27  45  64  89 123 156 181 213 263
#     4  10  20  32  47  70  94 117 150 190 231 275
#     4   9  14  24  44  65  86 120 157 179 207 262
#     4  10  19  32  50  67  89 122 154 186 226 276
#
# _framework density 15.379424999999999
#
# number of rings (size 3 to 8) (size 9 to 14) (size 15 to 20)
#    0.000    2.500    3.750    0.000    0.000    1.000 
#    0.000    0.625    0.000    1.750    0.000    0.000 
#    1.250    0.000    0.750    0.000    1.000    0.000 
#
# Total GULP energy -1189525.010999 kJ/mol
# GULP energy per Si atom -12390.885531 kJ/mol
# Density = 1.534442 g / cm^3
# Si number density = 15.379425 Si / 1000 Ang^3
#
#
#
# Elastic Constant Matrix: (Units=GPa)
#
#
# Indices 1 2 3 4 5 6 
#
# 1 97.7295 50.4629 35.2245 0.0000 0.0000 0.0000
# 2 50.4629 97.7295 35.2245 0.0000 0.0000 0.0000
# 3 35.2245 35.2245 34.1026 0.0000 0.0000 0.0000
# 4 0.0000 0.0000 0.0000 23.0382 0.0000 0.0000
# 5 0.0000 0.0000 0.0000 0.0000 23.0382 0.0000
# 6 0.0000 0.0000 0.0000 0.0000 0.0000 23.6333
#
#
#
# Elastic Compliance Matrix: (Units=1/GPa)
#
#
# Indices 1 2 3 4 5 6 
#
# 1 0.017207 -0.003949 -0.013694 0.000000 0.000000 0.000000
# 2 -0.003949 0.017207 -0.013694 0.000000 0.000000 0.000000
# 3 -0.013694 -0.013694 0.057613 0.000000 0.000000 0.000000
# 4 0.000000 0.000000 0.000000 0.043406 0.000000 0.000000
# 5 0.000000 0.000000 0.000000 0.000000 0.043406 0.000000
# 6 0.000000 0.000000 0.000000 0.000000 0.000000 0.042313
#
#
# Mechanical properties :
#
#
# Convention : Reuss Voigt Hill
#
# Bulk Modulus (GPa) = 34.06921 52.37615 43.22268
# Shear Modulus (GPa) = 17.02923 21.18524 19.10724
#
# Velocity S-wave (km/s) = 3.33118 3.71550 3.52858
# Velocity P-wave (km/s) = 6.08245 7.24821 6.69077
#
# Compressibility (1/GPa) = 0.02935202
#
# Stress axis : x y z
#
# Youngs Moduli (GPa) = 58.11477 58.11477 17.35723
#
# Poissons Ratio (x) = 0.22951 0.23769
# Poissons Ratio (y) = 0.22951 0.23769
# Poissons Ratio (z) = 0.79584 0.79584
#
# Static dielectric constant tensor:
#      x y z
#    x 2.915170 0.000000 0.000000 
#    y 0.000000 2.915170 0.000000 
#    z 0.000000 0.000000 2.717390 
# 
# 
# High freq. dielectric constant tensor:
#      x y z
#    x 1.577550 0.000000 0.000000 
#    y 0.000000 1.577550 0.000000 
#    z 0.000000 0.000000 1.564110 
# 
# From -- ./inp_files/2184.got.cif
#   From: 2010.06.25/outbox.cif.g09.slc.cpg/sg176_2_cif.got.tgz:2184.got - 2010.06.28 12:15:01.
