data_PCOD8325338
_publ_section_title
;
Structure prediction by ZEFSAII (Michael W. Deem and Ramdas Pophale) SiO2 
 PCOD8325338
Probable space group: P 6/M
;
_chemical_formula_sum "Si O2"
_cell_formula_units_Z 70
_cell_length_a 14.849444
_cell_length_b 14.849444
_cell_length_c 16.938878
_cell_angle_alpha 90.000000
_cell_angle_beta 90.000000
_cell_angle_gamma 120.000000
_cell_volume 3234.712282
_symmetry_space_group_name_H-M "P 6/M"
_symmetry_group_IT_number 175
_symmetry_cell_setting 'hexagonal'
loop_
_space_group_symop_operation_xyz
x,y,z
x-y,x,z
-y,x-y,z
-x,-y,z
-x+y,-x,z
y,-x+y,z
-x,-y,-z
-x+y,-x,-z
y,-x+y,-z
x,y,-z
x-y,x,-z
-y,x-y,-z
loop_
_atom_site_type_symbol
_atom_site_label
_atom_site_fract_x
_atom_site_fract_y
_atom_site_fract_z
Si Si1 0.144281 0.238954 0.154855
Si Si2 0.764690 0.917568 0.660542
Si Si3 0.110616 0.530691 0.656121
Si Si4 0.500000 0.500000 0.192568
Si Si5 0.548858 0.859388 0.907897
Si Si6 0.250378 0.452644 0.408182
Si Si7 0.666668 0.333335 0.906733
O O1 0.185200 0.161137 0.130158
O O2 0.165061 0.262744 0.247294
O O3 0.201638 0.347601 0.108179
O O4 0.813162 0.847020 0.635844
O O5 0.661731 0.890393 0.611852
O O6 0.092669 0.508837 0.750629
O O7 0.191136 0.651439 0.639991
O O8 0.149964 0.458050 0.619110
O O9 0.000000 0.500000 0.615014
O O10 0.399007 0.439686 0.138127
O O11 0.447345 0.754501 0.876809
O O12 0.538390 0.875834 0.000000
O O13 0.272433 0.476897 0.500000
O O14 0.666667 0.333334 0.000000
#
# Coordination Sequence:
#
# PCOD8325338 Si02
#       7
#    12  12  12   6  12  12   4
#     4  10  23  42  70  99 139 183 234 285 343 407
#     4  10  22  40  64  93 129 171 221 275 332 396
#     4  10  25  44  65  96 134 173 226 271 341 400
#     4  10  25  44  67  96 134 182 228 286 341 416
#     4  11  24  43  70 103 138 183 232 289 350 413
#     4  12  24  41  67  97 132 176 220 275 337 406
#     4   9  24  45  63  96 144 177 220 281 349 411
#
# _framework density 21.640256000000001
#
# number of rings (size 3 to 8) (size 9 to 14) (size 15 to 20)
#    0.514    1.029    0.000    3.514    7.200    6.857 
#    0.000    0.000    0.000    2.057    0.000    0.000 
#    0.000    0.000    0.000    0.000    0.000    0.000 
#
# Total GULP energy -868210.357435 kJ/mol
# GULP energy per Si atom -12403.005106 kJ/mol
# Density = 2.159100 g / cm^3
# Si number density = 21.640256 Si / 1000 Ang^3
#
#
#
# Elastic Constant Matrix: (Units=GPa)
#
#
# Indices 1 2 3 4 5 6 
#
# 1 129.7402 51.6641 45.2348 0.0000 0.0000 -0.0001
# 2 51.6641 129.7399 45.2355 0.0000 0.0000 -0.0003
# 3 45.2348 45.2355 88.6447 0.0000 0.0000 0.0000
# 4 0.0000 0.0000 0.0000 18.6622 -0.0001 0.0000
# 5 0.0000 0.0000 0.0000 -0.0001 18.6622 0.0000
# 6 -0.0001 -0.0003 0.0000 0.0000 0.0000 39.0378
#
#
#
# Elastic Compliance Matrix: (Units=1/GPa)
#
#
# Indices 1 2 3 4 5 6 
#
# 1 0.010101 -0.002707 -0.003773 0.000000 0.000000 0.000000
# 2 -0.002707 0.010101 -0.003773 0.000000 0.000000 0.000000
# 3 -0.003773 -0.003773 0.015132 0.000000 0.000000 0.000000
# 4 0.000000 0.000000 0.000000 0.053584 0.000000 0.000000
# 5 0.000000 0.000000 0.000000 0.000000 0.053584 0.000000
# 6 0.000000 0.000000 0.000000 0.000000 0.000000 0.025616
#
#
# Mechanical properties :
#
#
# Convention : Reuss Voigt Hill
#
# Bulk Modulus (GPa) = 67.44236 70.26595 68.85415
# Shear Modulus (GPa) = 25.83062 29.00514 27.41788
#
# Velocity S-wave (km/s) = 3.45865 3.66503 3.56333
# Velocity P-wave (km/s) = 6.86896 7.10284 6.98688
#
# Compressibility (1/GPa) = 0.01482748
#
# Stress axis : x y z
#
# Youngs Moduli (GPa) = 98.99840 98.99752 66.08495
#
# Poissons Ratio (x) = 0.26797 0.24936
# Poissons Ratio (y) = 0.26797 0.24937
# Poissons Ratio (z) = 0.37355 0.37356
#
# Static dielectric constant tensor:
#      x y z
#    x 3.908740 0.000010 0.000000 
#    y 0.000010 3.908730 0.000000 
#    z 0.000000 0.000000 3.699220 
# 
# 
# High freq. dielectric constant tensor:
#      x y z
#    x 1.856790 0.000000 0.000000 
#    y 0.000000 1.856790 0.000000 
#    z 0.000000 0.000000 1.835920 
# 
# From -- ./inp_files/2902.got.cif
#   From: 2010.03.12/outbox.cif.g09.slc.cpg/sg175_2_cif.got.tgz:2902.got - 2010.04.02 06:55:29.
