data_PCOD8325002
_publ_section_title
;
Structure prediction by ZEFSAII (Michael W. Deem and Ramdas Pophale) SiO2 
 PCOD8325002
Probable space group: P 6/M
;
_chemical_formula_sum "Si O2"
_cell_formula_units_Z 72
_cell_length_a 22.754335
_cell_length_b 22.754335
_cell_length_c 9.231710
_cell_angle_alpha 90.000000
_cell_angle_beta 90.000000
_cell_angle_gamma 120.000000
_cell_volume 4139.435124
_symmetry_space_group_name_H-M "P 6/M"
_symmetry_group_IT_number 175
_symmetry_cell_setting 'hexagonal'
loop_
_space_group_symop_operation_xyz
x,y,z
x-y,x,z
-y,x-y,z
-x,-y,z
-x+y,-x,z
y,-x+y,z
-x,-y,-z
-x+y,-x,-z
y,-x+y,-z
x,y,-z
x-y,x,-z
-y,x-y,-z
loop_
_atom_site_type_symbol
_atom_site_label
_atom_site_fract_x
_atom_site_fract_y
_atom_site_fract_z
Si Si1 0.436692 0.222082 0.330622
Si Si2 0.633505 0.498359 0.668767
Si Si3 0.374691 0.002773 0.666047
Si Si4 0.011020 0.259983 0.831285
Si Si5 0.503773 0.371326 0.665571
Si Si6 0.157217 0.295858 0.830872
O O1 0.419171 0.221579 0.500000
O O2 0.493013 0.199921 0.305936
O O3 0.471377 0.297205 0.260536
O O4 0.366679 0.171561 0.253070
O O5 0.615249 0.496554 0.500000
O O6 0.634607 0.564167 0.737133
O O7 0.574658 0.427894 0.739482
O O8 0.361625 0.014739 0.500000
O O9 0.397422 0.946849 0.678895
O O10 0.305481 0.979589 0.749973
O O11 0.940996 0.192073 0.786123
O O12 0.076818 0.252821 0.792001
O O13 0.009937 0.274157 0.000000
O O14 0.518467 0.361298 0.500000
O O15 0.167410 0.313426 0.000000
#
# Coordination Sequence:
#
# PCOD8325002 Si02
#       6
#    12  12  12  12  12  12
#     4  10  18  30  50  72  95 127 167 207 243 282
#     4   9  17  28  43  68  98 127 158 196 241 283
#     4  10  17  28  50  72  95 125 158 198 240 285
#     4  10  20  33  51  74 100 128 155 192 244 296
#     4   9  17  28  43  68  98 127 158 196 241 283
#     4  10  20  34  52  73 100 128 156 194 243 295
#
# _framework density 17.393677
#
# number of rings (size 3 to 8) (size 9 to 14) (size 15 to 20)
#    0.000    2.333    3.333    0.500    0.000    2.000 
#    1.000    0.000    0.000    5.333    0.000    2.333 
#    0.000    0.000    0.000    3.000    0.000    3.333 
#
# Total GULP energy -892422.917615 kJ/mol
# GULP energy per Si atom -12394.762745 kJ/mol
# Density = 1.735409 g / cm^3
# Si number density = 17.393677 Si / 1000 Ang^3
#
#
#
# Elastic Constant Matrix: (Units=GPa)
#
#
# Indices 1 2 3 4 5 6 
#
# 1 112.4565 51.3946 21.5100 0.0000 0.0000 0.0000
# 2 51.3946 112.4565 21.5100 0.0000 0.0000 0.0000
# 3 21.5100 21.5100 22.1216 0.0000 0.0000 0.0000
# 4 0.0000 0.0000 0.0000 15.1008 0.0000 0.0000
# 5 0.0000 0.0000 0.0000 0.0000 15.1008 0.0000
# 6 0.0000 0.0000 0.0000 0.0000 0.0000 30.5309
#
#
#
# Elastic Compliance Matrix: (Units=1/GPa)
#
#
# Indices 1 2 3 4 5 6 
#
# 1 0.012286 -0.004091 -0.007969 0.000000 0.000000 0.000000
# 2 -0.004091 0.012286 -0.007969 0.000000 0.000000 0.000000
# 3 -0.007969 -0.007969 0.060702 0.000000 0.000000 0.000000
# 4 0.000000 0.000000 0.000000 0.066222 0.000000 0.000000
# 5 0.000000 0.000000 0.000000 0.000000 0.066222 0.000000
# 6 0.000000 0.000000 0.000000 0.000000 0.000000 0.032754
#
#
# Mechanical properties :
#
#
# Convention : Reuss Voigt Hill
#
# Bulk Modulus (GPa) = 22.11543 48.42931 35.27237
# Shear Modulus (GPa) = 16.36124 22.32116 19.34120
#
# Velocity S-wave (km/s) = 3.07032 3.58619 3.33823
# Velocity P-wave (km/s) = 5.03104 6.71202 5.93138
#
# Compressibility (1/GPa) = 0.04521730
#
# Stress axis : x y z
#
# Youngs Moduli (GPa) = 81.39281 81.39281 16.47396
#
# Poissons Ratio (x) = 0.33296 0.13128
# Poissons Ratio (y) = 0.33296 0.13128
# Poissons Ratio (z) = 0.64860 0.64860
#
# Static dielectric constant tensor:
#      x y z
#    x 3.430940 0.000000 0.000000 
#    y 0.000000 3.430940 0.000000 
#    z 0.000000 0.000000 2.910910 
# 
# 
# High freq. dielectric constant tensor:
#      x y z
#    x 1.674290 0.000000 0.000000 
#    y 0.000000 1.674290 0.000000 
#    z 0.000000 0.000000 1.626490 
# 
# From -- ./inp_files/1147.got.cif
#   From: 2010.03.12/outbox.cif.g09.slc.cpg/sg175_1_cif.got.tgz:1147.got - 2010.04.02 06:55:29.
