data_PCOD8325323
_publ_section_title
;
Structure prediction by ZEFSAII (Michael W. Deem and Ramdas Pophale) SiO2 
 PCOD8325323
Probable space group: P 6/M
;
_chemical_formula_sum "Si O2"
_cell_formula_units_Z 66
_cell_length_a 19.345757
_cell_length_b 19.345757
_cell_length_c 10.240264
_cell_angle_alpha 90.000000
_cell_angle_beta 90.000000
_cell_angle_gamma 120.000000
_cell_volume 3319.045771
_symmetry_space_group_name_H-M "P 6/M"
_symmetry_group_IT_number 175
_symmetry_cell_setting 'hexagonal'
loop_
_space_group_symop_operation_xyz
x,y,z
x-y,x,z
-y,x-y,z
-x,-y,z
-x+y,-x,z
y,-x+y,z
-x,-y,-z
-x+y,-x,-z
y,-x+y,-z
x,y,-z
x-y,x,-z
-y,x-y,-z
loop_
_atom_site_type_symbol
_atom_site_label
_atom_site_fract_x
_atom_site_fract_y
_atom_site_fract_z
Si Si1 0.545280 0.456766 0.648245
Si Si2 0.835797 0.864564 0.846630
Si Si3 0.406915 0.126757 0.350856
Si Si4 0.435148 0.706095 0.000000
Si Si5 0.169348 0.459551 0.771803
Si Si6 0.690605 0.701344 0.850566
O O1 0.500000 0.500000 0.716911
O O2 0.516673 0.443239 0.500000
O O3 0.639972 0.508424 0.664772
O O4 0.522357 0.370168 0.699969
O O5 0.845347 0.944743 0.782677
O O6 0.747714 0.793868 0.816783
O O7 0.850749 0.876191 0.000000
O O8 0.375169 0.102308 0.500000
O O9 0.416765 0.213360 0.322509
O O10 0.347662 0.060949 0.249136
O O11 0.388868 0.756995 0.000000
O O12 0.492605 0.730603 0.123408
O O13 0.084794 0.397559 0.835538
O O14 0.703032 0.680957 0.000000
#
# Coordination Sequence:
#
# PCOD8325323 Si02
#       6
#    12  12  12   6  12  12
#     4  10  21  41  64  89 124 166 217 272 326 395
#     4   9  17  31  53  83 119 157 200 249 305 368
#     4  11  25  42  66  95 127 169 217 275 333 392
#     4  10  24  42  59  91 133 168 213 272 331 398
#     4  12  22  41  65  92 126 173 216 267 335 391
#     4  11  23  39  62  93 128 169 214 264 324 399
#
# _framework density 19.885232999999999
#
# number of rings (size 3 to 8) (size 9 to 14) (size 15 to 20)
#    0.182    1.273    2.727    2.909    1.273    2.909 
#    2.727    1.364    0.000    0.000    0.000    0.000 
#    0.000    2.909    0.000    0.000    0.000    0.000 
#
# Total GULP energy -818184.553454 kJ/mol
# GULP energy per Si atom -12396.735658 kJ/mol
# Density = 1.983997 g / cm^3
# Si number density = 19.885233 Si / 1000 Ang^3
#
#
#
# Elastic Constant Matrix: (Units=GPa)
#
#
# Indices 1 2 3 4 5 6 
#
# 1 79.1318 1.7131 24.6652 0.0000 0.0000 0.0000
# 2 1.7131 79.1318 24.6652 0.0000 0.0000 0.0000
# 3 24.6652 24.6652 83.5422 0.0000 0.0000 0.0000
# 4 0.0000 0.0000 0.0000 24.6941 0.0000 0.0000
# 5 0.0000 0.0000 0.0000 0.0000 24.6941 0.0000
# 6 0.0000 0.0000 0.0000 0.0000 0.0000 38.7094
#
#
#
# Elastic Compliance Matrix: (Units=1/GPa)
#
#
# Indices 1 2 3 4 5 6 
#
# 1 0.014002 0.001085 -0.004454 0.000000 0.000000 0.000000
# 2 0.001085 0.014002 -0.004454 0.000000 0.000000 0.000000
# 3 -0.004454 -0.004454 0.014600 0.000000 0.000000 0.000000
# 4 0.000000 0.000000 0.000000 0.040496 0.000000 0.000000
# 5 0.000000 0.000000 0.000000 0.000000 0.040496 0.000000
# 6 0.000000 0.000000 0.000000 0.000000 0.000000 0.025834
#
#
# Mechanical properties :
#
#
# Convention : Reuss Voigt Hill
#
# Bulk Modulus (GPa) = 37.09567 38.21030 37.65298
# Shear Modulus (GPa) = 28.72540 30.33699 29.53120
#
# Velocity S-wave (km/s) = 3.80486 3.91014 3.85786
# Velocity P-wave (km/s) = 6.16425 6.29624 6.23060
#
# Compressibility (1/GPa) = 0.02695733
#
# Stress axis : x y z
#
# Youngs Moduli (GPa) = 71.41796 71.41796 68.49192
#
# Poissons Ratio (x) = -0.07751 0.30509
# Poissons Ratio (y) = -0.07751 0.30509
# Poissons Ratio (z) = 0.31813 0.31813
#
# Static dielectric constant tensor:
#      x y z
#    x 3.675340 0.000000 0.000000 
#    y 0.000000 3.675340 0.000000 
#    z 0.000000 0.000000 3.774810 
# 
# 
# High freq. dielectric constant tensor:
#      x y z
#    x 1.783330 0.000000 0.000000 
#    y 0.000000 1.783330 0.000000 
#    z 0.000000 0.000000 1.748770 
# 
# From -- ./inp_files/960.got.cif
#   From: 2010.03.12/outbox.cif.g09.slc.cpg/sg175_1_cif.got.tgz:960.got - 2010.04.02 06:55:29.
