data_PCOD8325010
_publ_section_title
;
Structure prediction by ZEFSAII (Michael W. Deem and Ramdas Pophale) SiO2 
 PCOD8325010
Probable space group: P 6/M
;
_chemical_formula_sum "Si O2"
_cell_formula_units_Z 82
_cell_length_a 19.606876
_cell_length_b 19.606876
_cell_length_c 18.493960
_cell_angle_alpha 90.000000
_cell_angle_beta 90.000000
_cell_angle_gamma 120.000000
_cell_volume 6157.116204
_symmetry_space_group_name_H-M "P 6/M"
_symmetry_group_IT_number 175
_symmetry_cell_setting 'hexagonal'
loop_
_space_group_symop_operation_xyz
x,y,z
x-y,x,z
-y,x-y,z
-x,-y,z
-x+y,-x,z
y,-x+y,z
-x,-y,-z
-x+y,-x,-z
y,-x+y,-z
x,y,-z
x-y,x,-z
-y,x-y,-z
loop_
_atom_site_type_symbol
_atom_site_label
_atom_site_fract_x
_atom_site_fract_y
_atom_site_fract_z
Si Si1 0.666668 0.333334 0.413289
Si Si2 0.855844 0.589780 0.583641
Si Si3 0.259561 0.256988 0.365913
Si Si4 0.986973 0.154121 0.500000
Si Si5 0.835850 0.994762 0.233340
Si Si6 0.408667 0.840617 0.414310
Si Si7 0.692165 0.576736 0.583743
Si Si8 0.156695 0.161905 0.923709
O O1 0.666667 0.333334 0.500000
O O2 0.618402 0.372403 0.381038
O O3 0.879327 0.610346 0.500000
O O4 0.876329 0.522813 0.610373
O O5 0.763578 0.559034 0.595251
O O6 0.907531 0.669826 0.627878
O O7 0.196121 0.216676 0.429019
O O8 0.219024 0.227110 0.289231
O O9 0.295867 0.350694 0.368094
O O10 0.066205 0.150914 0.500000
O O11 0.847536 0.920057 0.245156
O O12 0.798240 0.993520 0.153543
O O13 0.404214 0.832874 0.500000
O O14 0.500455 0.890800 0.391028
O O15 0.687204 0.596321 0.500000
O O16 0.147460 0.077347 0.924197
O O17 0.200188 0.206841 0.000000
#
# Coordination Sequence:
#
# PCOD8325010 Si02
#       8
#     4  12  12   6  12  12  12  12
#     4   9  12  24  39  66  75  84 114 156 202 242
#     4  10  18  29  42  56  74  98 126 163 205 239
#     4  12  22  31  40  54  76 104 132 164 200 231
#     4  12  23  36  46  51  62  92 140 184 204 211
#     4  10  19  30  43  57  74  98 131 166 197 231
#     4   9  16  25  44  61  74  90 120 160 202 246
#     4  10  18  29  42  56  74  98 126 163 205 239
#     4   8  13  22  38  59  78  93 112 146 193 238
#
# _framework density 13.317923
#
# number of rings (size 3 to 8) (size 9 to 14) (size 15 to 20)
#    0.000    2.049    2.927    3.000    0.000    2.341 
#    0.000    3.659    0.000    0.000    0.000    0.000 
#    0.000    0.000    0.000    2.634    0.000    2.634 
#
# Total GULP energy -1015937.400513 kJ/mol
# GULP energy per Si atom -12389.480494 kJ/mol
# Density = 1.328761 g / cm^3
# Si number density = 13.317923 Si / 1000 Ang^3
#
#
#
# Elastic Constant Matrix: (Units=GPa)
#
#
# Indices 1 2 3 4 5 6 
#
# 1 46.5073 0.6646 18.8449 0.0000 0.0000 0.0002
# 2 0.6646 46.5077 18.8451 0.0000 0.0000 0.0001
# 3 18.8449 18.8451 80.5580 0.0000 0.0000 0.0000
# 4 0.0000 0.0000 0.0000 7.4254 0.0000 0.0000
# 5 0.0000 0.0000 0.0000 0.0000 7.4254 0.0000
# 6 0.0002 0.0001 0.0000 0.0000 0.0000 22.9215
#
#
#
# Elastic Compliance Matrix: (Units=1/GPa)
#
#
# Indices 1 2 3 4 5 6 
#
# 1 0.023943 0.002129 -0.006099 0.000000 0.000000 0.000000
# 2 0.002129 0.023943 -0.006099 0.000000 0.000000 0.000000
# 3 -0.006099 -0.006099 0.015267 0.000000 0.000000 0.000000
# 4 0.000000 0.000000 0.000000 0.134672 0.000000 0.000000
# 5 0.000000 0.000000 0.000000 0.000000 0.134674 0.000000
# 6 0.000000 0.000000 0.000000 0.000000 0.000000 0.043627
#
#
# Mechanical properties :
#
#
# Convention : Reuss Voigt Hill
#
# Bulk Modulus (GPa) = 23.24780 27.80914 25.52847
# Shear Modulus (GPa) = 12.17725 16.56902 14.37314
#
# Velocity S-wave (km/s) = 3.02710 3.53103 3.28873
# Velocity P-wave (km/s) = 5.45085 6.12785 5.79924
#
# Compressibility (1/GPa) = 0.04301482
#
# Stress axis : x y z
#
# Youngs Moduli (GPa) = 41.76596 41.76626 65.50106
#
# Poissons Ratio (x) = -0.08893 0.39950
# Poissons Ratio (y) = -0.08893 0.39950
# Poissons Ratio (z) = 0.25473 0.25474
#
# Static dielectric constant tensor:
#      x y z
#    x 2.690040 0.000000 0.000000 
#    y 0.000000 2.690040 0.000000 
#    z 0.000000 0.000000 2.698580 
# 
# 
# High freq. dielectric constant tensor:
#      x y z
#    x 1.504280 0.000000 0.000000 
#    y 0.000000 1.504280 0.000000 
#    z 0.000000 0.000000 1.455630 
# 
# From -- ./inp_files/3176.got.cif
#   From: 2010.03.12/outbox.cif.g09.slc.cpg/sg175_2_cif.got.tgz:3176.got - 2010.04.02 06:55:29.
