data_PCOD8325674
_publ_section_title
;
Structure prediction by ZEFSAII (Michael W. Deem and Ramdas Pophale) SiO2 
 PCOD8325674
Probable space group: P 63/M
;
_chemical_formula_sum "Si O2"
_cell_formula_units_Z 46
_cell_length_a 12.926795
_cell_length_b 12.926795
_cell_length_c 17.629644
_cell_angle_alpha 90.000000
_cell_angle_beta 90.000000
_cell_angle_gamma 120.000000
_cell_volume 2551.266917
_symmetry_space_group_name_H-M "P 63/M"
_symmetry_group_IT_number 176
_symmetry_cell_setting 'hexagonal'
loop_
_space_group_symop_operation_xyz
x,y,z
x-y,x,1/2+z
-y,x-y,z
-x,-y,1/2+z
-x+y,-x,z
y,-x+y,1/2+z
-x,-y,-z
-x+y,-x,1/2-z
y,-x+y,-z
x,y,1/2-z
x-y,x,-z
-y,x-y,1/2-z
loop_
_atom_site_type_symbol
_atom_site_label
_atom_site_fract_x
_atom_site_fract_y
_atom_site_fract_z
Si Si1 0.449519 0.639603 0.750000
Si Si2 0.203313 0.179840 0.448470
Si Si3 0.588259 0.182530 0.955819
Si Si4 0.454630 0.401393 0.098145
Si Si5 0.000000 0.000000 0.657763
O O1 0.461619 0.770804 0.750000
O O2 0.515877 0.627233 0.678989
O O3 0.138136 0.228790 0.502740
O O4 0.328846 0.291684 0.426541
O O5 0.122657 0.112140 0.374450
O O6 0.731702 0.262187 0.944547
O O7 0.522976 0.075344 0.896138
O O8 0.568987 0.132034 0.041201
O O9 0.000000 0.000000 0.750000
#
# Coordination Sequence:
#
# PCOD8325674 Si02
#       5
#     6  12  12  12   4
#     4  10  24  40  54  84 122 146 188 244 284 358
#     4   9  19  34  55  88 116 148 206 248 286 354
#     4   9  20  36  58  87 114 145 196 253 278 345
#     4  11  19  35  63  82 114 162 189 231 314 345
#     4   9  19  35  55  78 127 161 184 264 292 332
#
# _framework density 18.030259000000001
#
# number of rings (size 3 to 8) (size 9 to 14) (size 15 to 20)
#    0.783    1.565    0.000    4.174    1.826    2.087 
#    0.000    1.304    0.000    0.000    0.000    0.000 
#    0.000    0.000    0.000    0.000    0.000    0.000 
#
# Total GULP energy -569956.012396 kJ/mol
# GULP energy per Si atom -12390.348096 kJ/mol
# Density = 1.798922 g / cm^3
# Si number density = 18.030259 Si / 1000 Ang^3
#
#
#
# Elastic Constant Matrix: (Units=GPa)
#
#
# Indices 1 2 3 4 5 6 
#
# 1 105.9830 56.3478 40.2095 0.0000 0.0000 0.0000
# 2 56.3478 105.9830 40.2095 0.0000 0.0000 0.0000
# 3 40.2095 40.2095 97.7599 0.0000 0.0000 0.0000
# 4 0.0000 0.0000 0.0000 104.8143 0.0000 0.0000
# 5 0.0000 0.0000 0.0000 0.0000 104.8143 0.0000
# 6 0.0000 0.0000 0.0000 0.0000 0.0000 24.8176
#
#
#
# Elastic Compliance Matrix: (Units=1/GPa)
#
#
# Indices 1 2 3 4 5 6 
#
# 1 0.013942 -0.006205 -0.003182 0.000000 0.000000 0.000000
# 2 -0.006205 0.013942 -0.003182 0.000000 0.000000 0.000000
# 3 -0.003182 -0.003182 0.012847 0.000000 0.000000 0.000000
# 4 0.000000 0.000000 0.000000 0.009541 0.000000 0.000000
# 5 0.000000 0.000000 0.000000 0.000000 0.009541 0.000000
# 6 0.000000 0.000000 0.000000 0.000000 0.000000 0.040294
#
#
# Mechanical properties :
#
#
# Convention : Reuss Voigt Hill
#
# Bulk Modulus (GPa) = 64.13720 64.80662 64.47191
# Shear Modulus (GPa) = 38.33119 58.41984 48.37552
#
# Velocity S-wave (km/s) = 4.61579 5.69836 5.18541
# Velocity P-wave (km/s) = 8.00353 8.90598 8.46679
#
# Compressibility (1/GPa) = 0.01559158
#
# Stress axis : x y z
#
# Youngs Moduli (GPa) = 71.72650 71.72650 77.83998
#
# Poissons Ratio (x) = 0.44507 0.24770
# Poissons Ratio (y) = 0.44507 0.24770
# Poissons Ratio (z) = 0.22825 0.22825
#
# Static dielectric constant tensor:
#      x y z
#    x 3.398300 0.000000 0.000000 
#    y 0.000000 3.398300 0.000000 
#    z 0.000000 0.000000 3.101340 
# 
# 
# High freq. dielectric constant tensor:
#      x y z
#    x 1.705400 0.000000 0.000000 
#    y 0.000000 1.705400 0.000000 
#    z 0.000000 0.000000 1.673520 
# 
# From -- ./inp_files/2524.got.cif
#   From: 2010.06.25/outbox.cif.g09.slc.cpg/sg176_2_cif.got.tgz:2524.got - 2010.06.28 12:15:01.
