data_PCOD8325108
_publ_section_title
;
Structure prediction by ZEFSAII (Michael W. Deem and Ramdas Pophale) SiO2 
 PCOD8325108
Probable space group: P 6/M
;
_chemical_formula_sum "Si O2"
_cell_formula_units_Z 78
_cell_length_a 23.175572
_cell_length_b 23.175572
_cell_length_c 9.723162
_cell_angle_alpha 90.000000
_cell_angle_beta 90.000000
_cell_angle_gamma 120.000000
_cell_volume 4522.713497
_symmetry_space_group_name_H-M "P 6/M"
_symmetry_group_IT_number 175
_symmetry_cell_setting 'hexagonal'
loop_
_space_group_symop_operation_xyz
x,y,z
x-y,x,z
-y,x-y,z
-x,-y,z
-x+y,-x,z
y,-x+y,z
-x,-y,-z
-x+y,-x,-z
y,-x+y,-z
x,y,-z
x-y,x,-z
-y,x-y,-z
loop_
_atom_site_type_symbol
_atom_site_label
_atom_site_fract_x
_atom_site_fract_y
_atom_site_fract_z
Si Si1 0.151535 0.400699 0.159238
Si Si2 0.398079 0.932413 0.839847
Si Si3 0.087479 0.931878 0.000000
Si Si4 0.854443 0.269410 0.335002
Si Si5 0.734568 0.938943 0.348113
Si Si6 0.250225 0.170746 0.770236
Si Si7 0.397641 0.479930 0.162478
O O1 0.113926 0.438226 0.218990
O O2 0.212878 0.425028 0.262924
O O3 0.101017 0.321797 0.165873
O O4 0.175054 0.419822 0.000000
O O5 0.444130 0.899850 0.810142
O O6 0.431302 0.007421 0.782438
O O7 0.392229 0.940043 0.000000
O O8 0.112070 0.908082 0.871517
O O9 0.009118 0.895824 0.000000
O O10 0.844348 0.271108 0.500000
O O11 0.914670 0.255444 0.299318
O O12 0.869486 0.337280 0.260980
O O13 0.745042 0.967871 0.500000
O O14 0.743828 0.873769 0.351028
O O15 0.787579 0.001213 0.260339
O O16 0.377689 0.469147 0.000000
#
# Coordination Sequence:
#
# PCOD8325108 Si02
#       7
#    12  12   6  12  12  12  12
#     4  10  19  32  52  79 104 134 169 213 260 311
#     4   8  16  30  52  80 107 131 165 207 258 304
#     4  12  23  38  52  72 104 133 173 227 277 315
#     4  10  21  34  49  74 106 138 172 210 254 302
#     4  10  21  35  50  69  98 133 167 210 261 316
#     4  11  20  33  53  74  97 127 169 215 263 318
#     4   9  16  32  54  77 104 136 167 205 249 309
#
# _framework density 17.246283999999999
#
# number of rings (size 3 to 8) (size 9 to 14) (size 15 to 20)
#    0.000    2.154    2.308    2.846    0.000    0.615 
#    1.385    3.077    0.000    0.615    0.000    4.308 
#    0.000    0.000    0.000    0.000    0.000    0.000 
#
# Total GULP energy -966600.899724 kJ/mol
# GULP energy per Si atom -12392.319227 kJ/mol
# Density = 1.720703 g / cm^3
# Si number density = 17.246284 Si / 1000 Ang^3
#
#
#
# Elastic Constant Matrix: (Units=GPa)
#
#
# Indices 1 2 3 4 5 6 
#
# 1 104.9672 50.6777 33.4733 0.0000 0.0000 0.0000
# 2 50.6777 104.9672 33.4733 0.0000 0.0000 0.0000
# 3 33.4733 33.4733 65.2438 0.0000 0.0000 0.0000
# 4 0.0000 0.0000 0.0000 21.4749 0.0000 0.0000
# 5 0.0000 0.0000 0.0000 0.0000 21.4749 0.0000
# 6 0.0000 0.0000 0.0000 0.0000 0.0000 27.1448
#
#
#
# Elastic Compliance Matrix: (Units=1/GPa)
#
#
# Indices 1 2 3 4 5 6 
#
# 1 0.013332 -0.005088 -0.004230 0.000000 0.000000 0.000000
# 2 -0.005088 0.013332 -0.004230 0.000000 0.000000 0.000000
# 3 -0.004230 -0.004230 0.019667 0.000000 0.000000 0.000000
# 4 0.000000 0.000000 0.000000 0.046566 0.000000 0.000000
# 5 0.000000 0.000000 0.000000 0.000000 0.046566 0.000000
# 6 0.000000 0.000000 0.000000 0.000000 0.000000 0.036840
#
#
# Mechanical properties :
#
#
# Convention : Reuss Voigt Hill
#
# Bulk Modulus (GPa) = 51.98358 56.71411 54.34885
# Shear Modulus (GPa) = 23.83119 24.52251 24.17685
#
# Velocity S-wave (km/s) = 3.72131 3.77490 3.74820
# Velocity P-wave (km/s) = 6.97650 7.20806 7.09322
#
# Compressibility (1/GPa) = 0.01923684
#
# Stress axis : x y z
#
# Youngs Moduli (GPa) = 75.00775 75.00775 50.84612
#
# Poissons Ratio (x) = 0.38162 0.21506
# Poissons Ratio (y) = 0.38162 0.21506
# Poissons Ratio (z) = 0.31726 0.31726
#
# Static dielectric constant tensor:
#      x y z
#    x 3.278630 0.000000 0.000000 
#    y 0.000000 3.278630 0.000000 
#    z 0.000000 0.000000 3.033100 
# 
# 
# High freq. dielectric constant tensor:
#      x y z
#    x 1.661920 0.000000 0.000000 
#    y 0.000000 1.661920 0.000000 
#    z 0.000000 0.000000 1.651590 
# 
# From -- ./inp_files/1293.got.cif
#   From: 2010.03.12/outbox.cif.g09.slc.cpg/sg175_1_cif.got.tgz:1293.got - 2010.04.02 06:55:29.
