data_PCOD8325321
_publ_section_title
;
Structure prediction by ZEFSAII (Michael W. Deem and Ramdas Pophale) SiO2 
 PCOD8325321
Probable space group: P 6/M
;
_chemical_formula_sum "Si O2"
_cell_formula_units_Z 84
_cell_length_a 17.062822
_cell_length_b 17.062822
_cell_length_c 14.656833
_cell_angle_alpha 90.000000
_cell_angle_beta 90.000000
_cell_angle_gamma 120.000000
_cell_volume 3695.493916
_symmetry_space_group_name_H-M "P 6/M"
_symmetry_group_IT_number 175
_symmetry_cell_setting 'hexagonal'
loop_
_space_group_symop_operation_xyz
x,y,z
x-y,x,z
-y,x-y,z
-x,-y,z
-x+y,-x,z
y,-x+y,z
-x,-y,-z
-x+y,-x,-z
y,-x+y,-z
x,y,-z
x-y,x,-z
-y,x-y,-z
loop_
_atom_site_type_symbol
_atom_site_label
_atom_site_fract_x
_atom_site_fract_y
_atom_site_fract_z
Si Si1 0.642037 0.136175 0.901548
Si Si2 0.807756 0.827431 0.105539
Si Si3 0.756442 0.318415 0.356306
Si Si4 0.663251 0.659648 0.210447
Si Si5 0.311881 0.500279 0.844941
Si Si6 0.884168 0.800797 0.606566
Si Si7 0.627630 0.915307 0.600873
O O1 0.627982 0.066553 0.820922
O O2 0.739385 0.225841 0.900307
O O3 0.563551 0.160984 0.899228
O O4 0.634854 0.089910 0.000000
O O5 0.898945 0.825999 0.126896
O O6 0.728887 0.760820 0.174628
O O7 0.777824 0.800364 0.000000
O O8 0.761463 0.414641 0.380972
O O9 0.767725 0.315036 0.249377
O O10 0.832872 0.307612 0.407782
O O11 0.700333 0.598278 0.167899
O O12 0.656562 0.645652 0.320889
O O13 0.836261 0.853732 0.651401
O O14 0.897831 0.821209 0.500000
O O15 0.818847 0.693684 0.624649
O O16 0.653041 0.962477 0.500000
#
# Coordination Sequence:
#
# PCOD8325321 Si02
#       7
#    12  12  12  12  12  12  12
#     4  12  24  40  67  99 134 175 219 262 323 401
#     4  10  21  40  66  98 134 176 224 273 330 401
#     4   9  18  39  68  95 129 173 223 273 340 412
#     4  11  25  40  63  93 137 175 215 274 338 397
#     4  11  22  42  64  95 134 173 215 265 327 390
#     4   9  18  35  60  89 123 163 212 269 336 407
#     4  10  23  41  64  97 131 172 228 289 347 402
#
# _framework density 22.730385999999999
#
# number of rings (size 3 to 8) (size 9 to 14) (size 15 to 20)
#    0.286    1.429    1.429    2.714    0.000    9.143 
#    0.000    0.000    0.000    8.571    0.000    0.000 
#    0.000    0.000    0.000    0.000    0.000    0.000 
#
# Total GULP energy -1041193.047970 kJ/mol
# GULP energy per Si atom -12395.155333 kJ/mol
# Density = 2.267865 g / cm^3
# Si number density = 22.730386 Si / 1000 Ang^3
#
#
#
# Elastic Constant Matrix: (Units=GPa)
#
#
# Indices 1 2 3 4 5 6 
#
# 1 95.4297 16.6393 36.7657 0.0000 0.0000 0.0000
# 2 16.6393 95.4297 36.7657 0.0000 0.0000 0.0000
# 3 36.7657 36.7657 114.3180 0.0000 0.0000 0.0000
# 4 0.0000 0.0000 0.0000 -20.4256 0.0000 0.0000
# 5 0.0000 0.0000 0.0000 0.0000 -20.4256 0.0000
# 6 0.0000 0.0000 0.0000 0.0000 0.0000 39.3952
#
#
#
# Elastic Compliance Matrix: (Units=1/GPa)
#
#
# Indices 1 2 3 4 5 6 
#
# 1 0.012001 -0.000691 -0.003637 0.000000 0.000000 0.000000
# 2 -0.000691 0.012001 -0.003637 0.000000 0.000000 0.000000
# 3 -0.003637 -0.003637 0.011087 0.000000 0.000000 0.000000
# 4 0.000000 0.000000 0.000000 -0.048958 0.000000 0.000000
# 5 0.000000 0.000000 0.000000 0.000000 -0.048958 0.000000
# 6 0.000000 0.000000 0.000000 0.000000 0.000000 0.025384
#
#
# Mechanical properties :
#
#
# Convention : Reuss Voigt Hill
#
# Bulk Modulus (GPa) = 52.19971 53.94651 53.07311
# Shear Modulus (GPa) = -330.53906 14.04259 -158.24824
#
# Velocity S-wave (km/s) = -12.07199 2.48823 -8.35289
# Velocity P-wave (km/s) = 13.08801 5.66037 8.34435
#
# Compressibility (1/GPa) = 0.01915719
#
# Stress axis : x y z
#
# Youngs Moduli (GPa) = 83.32825 83.32825 90.19509
#
# Poissons Ratio (x) = 0.05759 0.32806
# Poissons Ratio (y) = 0.05759 0.32806
# Poissons Ratio (z) = 0.30309 0.30309
#
# Static dielectric constant tensor:
#      x y z
#    x 4.086650 0.000000 0.000000 
#    y 0.000000 4.086650 0.000000 
#    z 0.000000 0.000000 4.058340 
# 
# 
# High freq. dielectric constant tensor:
#      x y z
#    x 1.892290 0.000000 0.000000 
#    y 0.000000 1.892290 0.000000 
#    z 0.000000 0.000000 1.896510 
# 
# From -- ./inp_files/2606.got.cif
#   From: 2010.03.12/outbox.cif.g09.slc.cpg/sg175_2_cif.got.tgz:2606.got - 2010.04.02 06:55:29.
