data_PCOD8325057
_publ_section_title
;
Structure prediction by ZEFSAII (Michael W. Deem and Ramdas Pophale) SiO2 
 PCOD8325057
Probable space group: P 6/M
;
_chemical_formula_sum "Si O2"
_cell_formula_units_Z 90
_cell_length_a 23.829080
_cell_length_b 23.829080
_cell_length_c 12.196219
_cell_angle_alpha 90.000000
_cell_angle_beta 90.000000
_cell_angle_gamma 120.000000
_cell_volume 5997.501930
_symmetry_space_group_name_H-M "P 6/M"
_symmetry_group_IT_number 175
_symmetry_cell_setting 'hexagonal'
loop_
_space_group_symop_operation_xyz
x,y,z
x-y,x,z
-y,x-y,z
-x,-y,z
-x+y,-x,z
y,-x+y,z
-x,-y,-z
-x+y,-x,-z
y,-x+y,-z
x,y,-z
x-y,x,-z
-y,x-y,-z
loop_
_atom_site_type_symbol
_atom_site_label
_atom_site_fract_x
_atom_site_fract_y
_atom_site_fract_z
Si Si1 0.722122 0.909217 0.130346
Si Si2 0.572881 0.189926 0.869307
Si Si3 0.001310 0.332455 0.130567
Si Si4 0.952687 0.099638 0.500000
Si Si5 0.761144 0.477839 0.869228
Si Si6 0.048507 0.897758 0.262084
Si Si7 0.766094 0.144379 0.869431
Si Si8 0.952969 0.427864 0.869245
O O1 0.793705 0.933815 0.173789
O O2 0.673091 0.837187 0.174162
O O3 0.695372 0.955239 0.173861
O O4 0.726181 0.910596 0.000000
O O5 0.550792 0.239296 0.824321
O O6 0.644143 0.211173 0.824047
O O7 0.523022 0.118739 0.824265
O O8 0.573196 0.190144 0.000000
O O9 0.073352 0.357743 0.175936
O O10 0.976286 0.379462 0.176687
O O11 0.001112 0.333552 0.000000
O O12 0.940539 0.125235 0.383823
O O13 0.023931 0.112778 0.500000
O O14 0.805225 0.550530 0.823735
O O15 0.761564 0.478188 0.000000
O O16 0.974530 0.880081 0.244514
O O17 0.765605 0.144960 0.000000
O O18 0.000000 0.500000 0.824377
O O19 0.953483 0.427594 0.000000
#
# Coordination Sequence:
#
# PCOD8325057 Si02
#       8
#    12  12  12   6  12  12  12  12
#     4  10  19  29  40  55  77 105 134 161 189 226
#     4   9  15  21  29  41  56  75 103 143 186 219
#     4   9  16  25  35  47  65  91 123 156 188 222
#     4   8  15  28  46  64  78  94 119 154 196 238
#     4   9  15  22  31  43  60  83 114 152 189 223
#     4  10  19  31  46  62  79  99 126 161 199 236
#     4   9  16  25  35  46  63  90 122 152 182 219
#     4   9  15  22  32  45  60  81 114 155 191 218
#
# _framework density 15.006247999999999
#
# number of rings (size 3 to 8) (size 9 to 14) (size 15 to 20)
#    0.000    2.800    0.000    2.867    0.000   10.133 
#    0.000    0.000    0.000    0.800    0.000    0.000 
#    0.000    0.000    0.000    0.600    0.000   13.400 
#
# Total GULP energy -1115484.549195 kJ/mol
# GULP energy per Si atom -12394.272769 kJ/mol
# Density = 1.497209 g / cm^3
# Si number density = 15.006248 Si / 1000 Ang^3
#
#
#
# Elastic Constant Matrix: (Units=GPa)
#
#
# Indices 1 2 3 4 5 6 
#
# 1 144.6419 73.2695 14.1864 0.0000 0.0000 0.0000
# 2 73.2695 144.6419 14.1864 0.0000 0.0000 0.0000
# 3 14.1864 14.1864 12.6816 0.0000 0.0000 0.0000
# 4 0.0000 0.0000 0.0000 3.6007 0.0000 0.0000
# 5 0.0000 0.0000 0.0000 0.0000 3.6007 0.0000
# 6 0.0000 0.0000 0.0000 0.0000 0.0000 35.6862
#
#
#
# Elastic Compliance Matrix: (Units=1/GPa)
#
#
# Indices 1 2 3 4 5 6 
#
# 1 0.009691 -0.004320 -0.006009 0.000000 0.000000 0.000000
# 2 -0.004320 0.009691 -0.006009 0.000000 0.000000 0.000000
# 3 -0.006009 -0.006009 0.092298 0.000000 0.000000 0.000000
# 4 0.000000 0.000000 0.000000 0.277727 0.000000 0.000000
# 5 0.000000 0.000000 0.000000 0.000000 0.277727 0.000000
# 6 0.000000 0.000000 0.000000 0.000000 0.000000 0.028022
#
#
# Mechanical properties :
#
#
# Convention : Reuss Voigt Hill
#
# Bulk Modulus (GPa) = 12.65729 56.13887 34.39808
# Shear Modulus (GPa) = 6.62983 21.93238 14.28111
#
# Velocity S-wave (km/s) = 2.10420 3.82717 3.08827
# Velocity P-wave (km/s) = 3.78900 7.55124 5.97401
#
# Compressibility (1/GPa) = 0.07900587
#
# Stress axis : x y z
#
# Youngs Moduli (GPa) = 103.18644 103.18644 10.83446
#
# Poissons Ratio (x) = 0.44575 0.06510
# Poissons Ratio (y) = 0.44575 0.06510
# Poissons Ratio (z) = 0.62002 0.62002
#
# Static dielectric constant tensor:
#      x y z
#    x 3.091670 0.000000 0.000000 
#    y 0.000000 3.091670 0.000000 
#    z 0.000000 0.000000 2.320670 
# 
# 
# High freq. dielectric constant tensor:
#      x y z
#    x 1.591910 0.000000 0.000000 
#    y 0.000000 1.591910 0.000000 
#    z 0.000000 0.000000 1.475760 
# 
# From -- ./inp_files/2730.got.cif
#   From: 2010.03.12/outbox.cif.g09.slc.cpg/sg175_2_cif.got.tgz:2730.got - 2010.04.02 06:55:29.
