data_PCOD8325813
_publ_section_title
;
Structure prediction by ZEFSAII (Michael W. Deem and Ramdas Pophale) SiO2 
 PCOD8325813
Probable space group: P 61 2 2
;
_chemical_formula_sum "Si O2"
_cell_formula_units_Z 30
_cell_length_a 12.985276
_cell_length_b 12.985276
_cell_length_c 12.237735
_cell_angle_alpha 90.000000
_cell_angle_beta 90.000000
_cell_angle_gamma 120.000000
_cell_volume 1787.039064
_symmetry_space_group_name_H-M "P 61 2 2"
_symmetry_group_IT_number 178
_symmetry_cell_setting 'hexagonal'
loop_
_space_group_symop_operation_xyz
x,y,z
x-y,x,1/6+z
-y,x-y,1/3+z
-x,-y,1/2+z
-x+y,-x,2/3+z
y,-x+y,5/6+z
x-y,-y,-z
-x,-x+y,2/3-z
y,x,1/3-z
-y,-x,5/6-z
-x+y,y,1/2-z
x,x-y,1/6-z
loop_
_atom_site_type_symbol
_atom_site_label
_atom_site_fract_x
_atom_site_fract_y
_atom_site_fract_z
Si Si1 0.916939 0.315783 0.240461
Si Si2 0.445699 0.000000 0.500000
Si Si3 0.337955 0.429039 0.447934
O O1 0.789326 0.201393 0.244245
O O2 0.000000 0.303756 0.333334
O O3 0.905202 0.432030 0.270801
O O4 0.978183 0.334167 0.122060
O O5 0.405317 0.062838 0.410122
O O6 0.436939 0.563062 0.416667
#
# Coordination Sequence:
#
# PCOD8325813 Si02
#       3
#    12   6  12
#     4   9  19  34  53  77 107 141 179 212 270 317
#     4   8  20  34  50  78 106 142 174 216 272 324
#     4  10  19  36  51  81 111 138 180 224 267 330
#
# _framework density 16.787545999999999
#
# number of rings (size 3 to 8) (size 9 to 14) (size 15 to 20)
#    1.200    1.600    0.000    1.200    0.000    1.600 
#   21.600    0.000    0.000    0.000   26.000    0.000 
#    0.000    0.000    0.000    0.000    0.000    0.000 
#
# Total GULP energy -371708.076548 kJ/mol
# GULP energy per Si atom -12390.269218 kJ/mol
# Density = 1.674934 g / cm^3
# Si number density = 16.787546 Si / 1000 Ang^3
#
#
#
# Elastic Constant Matrix: (Units=GPa)
#
#
# Indices 1 2 3 4 5 6 
#
# 1 69.5723 39.3058 38.5378 0.0000 0.0000 0.0000
# 2 39.3058 69.5723 38.5378 0.0000 0.0000 0.0000
# 3 38.5378 38.5378 131.1377 0.0000 0.0000 0.0000
# 4 0.0000 0.0000 0.0000 20.1717 0.0000 0.0000
# 5 0.0000 0.0000 0.0000 0.0000 20.1717 0.0000
# 6 0.0000 0.0000 0.0000 0.0000 0.0000 15.1333
#
#
#
# Elastic Compliance Matrix: (Units=1/GPa)
#
#
# Indices 1 2 3 4 5 6 
#
# 1 0.022319 -0.010721 -0.003408 0.000000 0.000000 0.000000
# 2 -0.010721 0.022319 -0.003408 0.000000 0.000000 0.000000
# 3 -0.003408 -0.003408 0.009629 0.000000 0.000000 0.000000
# 4 0.000000 0.000000 0.000000 0.049574 0.000000 0.000000
# 5 0.000000 0.000000 0.000000 0.000000 0.049574 0.000000
# 6 0.000000 0.000000 0.000000 0.000000 0.000000 0.066080
#
#
# Mechanical properties :
#
#
# Convention : Reuss Voigt Hill
#
# Bulk Modulus (GPa) = 52.10864 55.89389 54.00126
# Shear Modulus (GPa) = 19.15957 21.35538 20.25748
#
# Velocity S-wave (km/s) = 3.38197 3.57052 3.47752
# Velocity P-wave (km/s) = 6.80865 7.09685 6.95424
#
# Compressibility (1/GPa) = 0.01919068
#
# Stress axis : x y z
#
# Youngs Moduli (GPa) = 44.80584 44.80584 103.85648
#
# Poissons Ratio (x) = 0.48038 0.35395
# Poissons Ratio (y) = 0.48038 0.35395
# Poissons Ratio (z) = 0.15270 0.15270
#
# Static dielectric constant tensor:
#      x y z
#    x 2.770360 0.000000 0.000000 
#    y 0.000000 2.770360 0.000000 
#    z 0.000000 0.000000 3.549700 
# 
# 
# High freq. dielectric constant tensor:
#      x y z
#    x 1.613780 0.000000 0.000000 
#    y 0.000000 1.613780 0.000000 
#    z 0.000000 0.000000 1.670650 
# 
# From -- ./inp_files/4983.got.cif
#   From: 2010.03.12/outbox.cif.g09.slc.cpg/sg178_3_cif.got.tgz:4983.got - 2010.04.02 07:02:38.
