data_PCOD8325569
_publ_section_title
;
Structure prediction by ZEFSAII (Michael W. Deem and Ramdas Pophale) SiO2 
 PCOD8325569
Probable space group: P 63/M
;
_chemical_formula_sum "Si O2"
_cell_formula_units_Z 72
_cell_length_a 22.644676
_cell_length_b 22.644676
_cell_length_c 8.377912
_cell_angle_alpha 90.000000
_cell_angle_beta 90.000000
_cell_angle_gamma 120.000000
_cell_volume 3720.477208
_symmetry_space_group_name_H-M "P 63/M"
_symmetry_group_IT_number 176
_symmetry_cell_setting 'hexagonal'
loop_
_space_group_symop_operation_xyz
x,y,z
x-y,x,1/2+z
-y,x-y,z
-x,-y,1/2+z
-x+y,-x,z
y,-x+y,1/2+z
-x,-y,-z
-x+y,-x,1/2-z
y,-x+y,-z
x,y,1/2-z
x-y,x,-z
-y,x-y,1/2-z
loop_
_atom_site_type_symbol
_atom_site_label
_atom_site_fract_x
_atom_site_fract_y
_atom_site_fract_z
Si Si1 0.483063 0.399775 0.562117
Si Si2 0.395921 0.470215 0.562245
Si Si3 0.743917 0.751661 0.435672
Si Si4 0.258982 0.868959 0.563563
Si Si5 0.373361 0.121695 0.565419
Si Si6 0.870982 0.878207 0.931340
O O1 0.484201 0.389849 0.750000
O O2 0.431526 0.426562 0.514385
O O3 0.558411 0.452753 0.499692
O O4 0.460080 0.328395 0.474062
O O5 0.384846 0.469489 0.750000
O O6 0.323531 0.439089 0.475952
O O7 0.748765 0.769077 0.250000
O O8 0.669157 0.728004 0.499797
O O9 0.760923 0.691614 0.462027
O O10 0.795346 0.819090 0.530446
O O11 0.242862 0.860779 0.750000
O O12 0.197658 0.807412 0.470991
O O13 0.354354 0.105047 0.750000
O O14 0.889744 0.871635 0.750000
O O15 0.873730 0.949751 0.951047
#
# Coordination Sequence:
#
# PCOD8325569 Si02
#       6
#    12  12  12  12  12  12
#     4  10  20  36  60  89 122 156 195 242 293 348
#     4  10  20  36  60  89 122 156 195 242 293 348
#     4  12  24  41  60  85 118 154 196 246 302 360
#     4  12  24  39  60  88 123 162 202 247 299 354
#     4  12  24  39  60  88 123 162 202 247 299 354
#     4  12  25  43  62  83 108 144 191 244 299 358
#
# _framework density 19.352356
#
# number of rings (size 3 to 8) (size 9 to 14) (size 15 to 20)
#    0.000    0.667    1.667    8.167    0.000    1.333 
#    0.000    0.000    0.000    0.667    0.000    4.667 
#    0.000    0.000    0.000    0.000    0.000    0.000 
#
# Total GULP energy -893438.111034 kJ/mol
# GULP energy per Si atom -12408.862653 kJ/mol
# Density = 1.930831 g / cm^3
# Si number density = 19.352356 Si / 1000 Ang^3
#
#
#
# Elastic Constant Matrix: (Units=GPa)
#
#
# Indices 1 2 3 4 5 6 
#
# 1 82.2876 16.7557 19.4344 0.0000 0.0000 0.0000
# 2 16.7557 82.2876 19.4344 0.0000 0.0000 0.0000
# 3 19.4344 19.4344 91.9642 0.0000 0.0000 0.0000
# 4 0.0000 0.0000 0.0000 31.0001 0.0000 0.0000
# 5 0.0000 0.0000 0.0000 0.0000 31.0001 0.0000
# 6 0.0000 0.0000 0.0000 0.0000 0.0000 32.7659
#
#
#
# Elastic Compliance Matrix: (Units=1/GPa)
#
#
# Indices 1 2 3 4 5 6 
#
# 1 0.013135 -0.002125 -0.002327 0.000000 0.000000 0.000000
# 2 -0.002125 0.013135 -0.002327 0.000000 0.000000 0.000000
# 3 -0.002327 -0.002327 0.011857 0.000000 0.000000 0.000000
# 4 0.000000 0.000000 0.000000 0.032258 0.000000 0.000000
# 5 0.000000 0.000000 0.000000 0.000000 0.032258 0.000000
# 6 0.000000 0.000000 0.000000 0.000000 0.000000 0.030520
#
#
# Mechanical properties :
#
#
# Convention : Reuss Voigt Hill
#
# Bulk Modulus (GPa) = 40.70010 40.86539 40.78274
# Shear Modulus (GPa) = 32.27709 32.34754 32.31231
#
# Velocity S-wave (km/s) = 4.08838 4.09284 4.09061
# Velocity P-wave (km/s) = 6.58507 6.59526 6.59017
#
# Compressibility (1/GPa) = 0.02456997
#
# Stress axis : x y z
#
# Youngs Moduli (GPa) = 76.13415 76.13415 84.33730
#
# Poissons Ratio (x) = 0.16179 0.19622
# Poissons Ratio (y) = 0.16179 0.19622
# Poissons Ratio (z) = 0.17714 0.17714
#
# Static dielectric constant tensor:
#      x y z
#    x 3.524580 0.000000 0.000000 
#    y 0.000000 3.524580 0.000000 
#    z 0.000000 0.000000 3.612020 
# 
# 
# High freq. dielectric constant tensor:
#      x y z
#    x 1.746470 0.000000 0.000000 
#    y 0.000000 1.746470 0.000000 
#    z 0.000000 0.000000 1.772560 
# 
# From -- ./inp_files/1197.got.cif
#   From: 2010.06.25/outbox.cif.g09.slc.cpg/sg176_1_cif.got.tgz:1197.got - 2010.06.28 12:15:01.
