data_PCOD8325244
_publ_section_title
;
Structure prediction by ZEFSAII (Michael W. Deem and Ramdas Pophale) SiO2 
 PCOD8325244
Probable space group: P 6/M
;
_chemical_formula_sum "Si O2"
_cell_formula_units_Z 66
_cell_length_a 18.746806
_cell_length_b 18.746806
_cell_length_c 10.949622
_cell_angle_alpha 90.000000
_cell_angle_beta 90.000000
_cell_angle_gamma 120.000000
_cell_volume 3332.608739
_symmetry_space_group_name_H-M "P 6/M"
_symmetry_group_IT_number 175
_symmetry_cell_setting 'hexagonal'
loop_
_space_group_symop_operation_xyz
x,y,z
x-y,x,z
-y,x-y,z
-x,-y,z
-x+y,-x,z
y,-x+y,z
-x,-y,-z
-x+y,-x,-z
y,-x+y,-z
x,y,-z
x-y,x,-z
-y,x-y,-z
loop_
_atom_site_type_symbol
_atom_site_label
_atom_site_fract_x
_atom_site_fract_y
_atom_site_fract_z
Si Si1 0.966709 0.147438 0.864703
Si Si2 0.466862 0.560313 0.207707
Si Si3 0.691896 0.547247 0.636056
Si Si4 0.579997 0.714438 0.640554
Si Si5 0.372376 0.772842 0.000000
Si Si6 0.747383 0.733077 0.364925
O O1 0.053372 0.153345 0.852426
O O2 0.952829 0.192060 0.750124
O O3 0.959324 0.181475 0.000000
O O4 0.500000 0.500000 0.156288
O O5 0.386016 0.511460 0.286290
O O6 0.540204 0.629924 0.285986
O O7 0.441335 0.606401 0.110622
O O8 0.677717 0.510477 0.500000
O O9 0.774316 0.551739 0.691158
O O10 0.699273 0.635342 0.633087
O O11 0.554664 0.692951 0.500000
O O12 0.679187 0.760616 0.654854
O O13 0.275043 0.700615 0.000000
O O14 0.790463 0.765477 0.500000
#
# Coordination Sequence:
#
# PCOD8325244 Si02
#       6
#    12  12  12  12   6  12
#     4  10  21  38  59  85 117 156 203 252 307 367
#     4  12  22  40  65  91 120 160 212 259 315 380
#     4  10  21  37  60  91 125 160 200 252 314 376
#     4  10  21  37  60  91 125 160 200 252 314 376
#     4  10  25  46  64  84 124 168 206 258 324 383
#     4  10  20  38  61  88 123 161 200 256 317 376
#
# _framework density 19.804303999999998
#
# number of rings (size 3 to 8) (size 9 to 14) (size 15 to 20)
#    0.182    1.455    1.818    3.182    0.000    3.636 
#    4.364    0.000    0.000    1.091    0.000    0.000 
#    0.000    0.000    0.000    0.000    0.000    0.000 
#
# Total GULP energy -817806.148318 kJ/mol
# GULP energy per Si atom -12391.002247 kJ/mol
# Density = 1.975923 g / cm^3
# Si number density = 19.804304 Si / 1000 Ang^3
#
#
#
# Elastic Constant Matrix: (Units=GPa)
#
#
# Indices 1 2 3 4 5 6 
#
# 1 65.9961 12.1483 29.0710 0.0000 0.0000 0.0000
# 2 12.1483 65.9961 29.0710 0.0000 0.0000 0.0000
# 3 29.0710 29.0710 111.5842 0.0000 0.0000 0.0000
# 4 0.0000 0.0000 0.0000 33.2895 0.0000 0.0000
# 5 0.0000 0.0000 0.0000 0.0000 33.2895 0.0000
# 6 0.0000 0.0000 0.0000 0.0000 0.0000 26.9239
#
#
#
# Elastic Compliance Matrix: (Units=1/GPa)
#
#
# Indices 1 2 3 4 5 6 
#
# 1 0.017222 -0.001349 -0.004136 0.000000 0.000000 0.000000
# 2 -0.001349 0.017222 -0.004136 0.000000 0.000000 0.000000
# 3 -0.004136 -0.004136 0.011117 0.000000 0.000000 0.000000
# 4 0.000000 0.000000 0.000000 0.030040 0.000000 0.000000
# 5 0.000000 0.000000 0.000000 0.000000 0.030040 0.000000
# 6 0.000000 0.000000 0.000000 0.000000 0.000000 0.037142
#
#
# Mechanical properties :
#
#
# Convention : Reuss Voigt Hill
#
# Bulk Modulus (GPa) = 37.99101 42.68410 40.33756
# Shear Modulus (GPa) = 29.27473 30.25297 29.76385
#
# Velocity S-wave (km/s) = 3.84891 3.91269 3.88093
# Velocity P-wave (km/s) = 6.24316 6.48166 6.36352
#
# Compressibility (1/GPa) = 0.02632201
#
# Stress axis : x y z
#
# Youngs Moduli (GPa) = 58.06403 58.06403 89.95436
#
# Poissons Ratio (x) = 0.07830 0.37202
# Poissons Ratio (y) = 0.07830 0.37202
# Poissons Ratio (z) = 0.24013 0.24013
#
# Static dielectric constant tensor:
#      x y z
#    x 3.595120 0.000000 0.000000 
#    y 0.000000 3.595120 0.000000 
#    z 0.000000 0.000000 3.505670 
# 
# 
# High freq. dielectric constant tensor:
#      x y z
#    x 1.772500 0.000000 0.000000 
#    y 0.000000 1.772500 0.000000 
#    z 0.000000 0.000000 1.772060 
# 
# From -- ./inp_files/1053.got.cif
#   From: 2010.03.12/outbox.cif.g09.slc.cpg/sg175_1_cif.got.tgz:1053.got - 2010.04.02 06:55:29.
