data_PCOD8325686
_publ_section_title
;
Structure prediction by ZEFSAII (Michael W. Deem and Ramdas Pophale) SiO2 
 PCOD8325686
Probable space group: P 63/M
;
_chemical_formula_sum "Si O2"
_cell_formula_units_Z 30
_cell_length_a 14.024204
_cell_length_b 14.024204
_cell_length_c 7.677400
_cell_angle_alpha 90.000000
_cell_angle_beta 90.000000
_cell_angle_gamma 120.000000
_cell_volume 1307.679276
_symmetry_space_group_name_H-M "P 63/M"
_symmetry_group_IT_number 176
_symmetry_cell_setting 'hexagonal'
loop_
_space_group_symop_operation_xyz
x,y,z
x-y,x,1/2+z
-y,x-y,z
-x,-y,1/2+z
-x+y,-x,z
y,-x+y,1/2+z
-x,-y,-z
-x+y,-x,1/2-z
y,-x+y,-z
x,y,1/2-z
x-y,x,-z
-y,x-y,1/2-z
loop_
_atom_site_type_symbol
_atom_site_label
_atom_site_fract_x
_atom_site_fract_y
_atom_site_fract_z
Si Si1 0.564315 0.626196 0.553103
Si Si2 0.536320 0.314117 0.750000
Si Si3 0.800980 0.776457 0.447889
O O1 0.500000 0.500000 0.500000
O O2 0.533235 0.639697 0.750000
O O3 0.531975 0.696054 0.423524
O O4 0.694863 0.675137 0.537157
O O5 0.566533 0.216841 0.750000
O O6 0.809852 0.744704 0.250000
O O7 0.907231 0.794753 0.551680
#
# Coordination Sequence:
#
# PCOD8325686 Si02
#       3
#    12   6  12
#     4  12  25  45  72 103 140 185 235 290 354 418
#     4  10  26  46  70  98 144 180 234 298 344 420
#     4  12  26  46  71 104 142 186 234 290 352 420
#
# _framework density 22.941403999999999
#
# number of rings (size 3 to 8) (size 9 to 14) (size 15 to 20)
#    0.400    0.000    4.000    4.000    5.600    1.600 
#    0.000    0.000    0.000    0.000    0.000    0.000 
#    0.000    0.000    0.000    0.000    0.000    0.000 
#
# Total GULP energy -372166.449301 kJ/mol
# GULP energy per Si atom -12405.548310 kJ/mol
# Density = 2.288919 g / cm^3
# Si number density = 22.941404 Si / 1000 Ang^3
#
#
#
# Elastic Constant Matrix: (Units=GPa)
#
#
# Indices 1 2 3 4 5 6 
#
# 1 104.6104 16.8332 3.0407 0.0000 0.0000 0.0000
# 2 16.8332 104.6104 3.0407 0.0000 0.0000 0.0000
# 3 3.0407 3.0407 185.8369 0.0000 0.0000 0.0000
# 4 0.0000 0.0000 0.0000 30.4048 0.0000 0.0000
# 5 0.0000 0.0000 0.0000 0.0000 30.4048 0.0000
# 6 0.0000 0.0000 0.0000 0.0000 0.0000 43.8886
#
#
#
# Elastic Compliance Matrix: (Units=1/GPa)
#
#
# Indices 1 2 3 4 5 6 
#
# 1 0.009817 -0.001576 -0.000135 0.000000 0.000000 0.000000
# 2 -0.001576 0.009817 -0.000135 0.000000 0.000000 0.000000
# 3 -0.000135 -0.000135 0.005385 0.000000 0.000000 0.000000
# 4 0.000000 0.000000 0.000000 0.032890 0.000000 0.000000
# 5 0.000000 0.000000 0.000000 0.000000 0.032890 0.000000
# 6 0.000000 0.000000 0.000000 0.000000 0.000000 0.022785
#
#
# Mechanical properties :
#
#
# Convention : Reuss Voigt Hill
#
# Bulk Modulus (GPa) = 46.88638 48.98745 47.93692
# Shear Modulus (GPa) = 40.19836 45.74920 42.97378
#
# Velocity S-wave (km/s) = 4.19049 4.47046 4.33274
# Velocity P-wave (km/s) = 6.62536 6.93155 6.78019
#
# Compressibility (1/GPa) = 0.02132816
#
# Stress axis : x y z
#
# Youngs Moduli (GPa) = 101.86668 101.86668 185.68468
#
# Poissons Ratio (x) = 0.16051 0.02504
# Poissons Ratio (y) = 0.16051 0.02504
# Poissons Ratio (z) = 0.01374 0.01374
#
# Static dielectric constant tensor:
#      x y z
#    x 4.096350 0.000000 0.000000 
#    y 0.000000 4.096350 0.000000 
#    z 0.000000 0.000000 4.269360 
# 
# 
# High freq. dielectric constant tensor:
#      x y z
#    x 1.907270 0.000000 0.000000 
#    y 0.000000 1.907270 0.000000 
#    z 0.000000 0.000000 1.920250 
# 
# From -- ./inp_files/290.got.cif
#   From: 2010.06.25/outbox.cif.g09.slc.cpg/sg176_1_cif.got.tgz:290.got - 2010.06.28 12:15:01.
