data_PCOD8325869
_publ_section_title
;
Structure prediction by ZEFSAII (Michael W. Deem and Ramdas Pophale) SiO2 
 PCOD8325869
Probable space group: P 61 2 2
;
_chemical_formula_sum "Si O2"
_cell_formula_units_Z 72
_cell_length_a 15.783877
_cell_length_b 15.783877
_cell_length_c 18.655100
_cell_angle_alpha 90.000000
_cell_angle_beta 90.000000
_cell_angle_gamma 120.000000
_cell_volume 4024.904581
_symmetry_space_group_name_H-M "P 61 2 2"
_symmetry_group_IT_number 178
_symmetry_cell_setting 'hexagonal'
loop_
_space_group_symop_operation_xyz
x,y,z
x-y,x,1/6+z
-y,x-y,1/3+z
-x,-y,1/2+z
-x+y,-x,2/3+z
y,-x+y,5/6+z
x-y,-y,-z
-x,-x+y,2/3-z
y,x,1/3-z
-y,-x,5/6-z
-x+y,y,1/2-z
x,x-y,1/6-z
loop_
_atom_site_type_symbol
_atom_site_label
_atom_site_fract_x
_atom_site_fract_y
_atom_site_fract_z
Si Si1 0.749176 0.498292 0.449368
Si Si2 0.464240 0.596109 0.497292
Si Si3 0.666331 0.885212 0.654574
Si Si4 0.891472 0.241848 0.219011
Si Si5 0.452028 0.500426 0.091641
Si Si6 0.343070 0.782475 0.358607
O O1 0.804533 0.436223 0.454877
O O2 0.794919 0.602586 0.489945
O O3 0.642963 0.433212 0.482267
O O4 0.739088 0.512798 0.364217
O O5 0.429843 0.570158 0.416667
O O6 0.548372 0.709454 0.504968
O O7 0.512726 0.534952 0.523940
O O8 0.689023 0.844512 0.583334
O O9 0.700954 0.847222 0.723622
O O10 0.729216 0.003791 0.650174
O O11 0.900343 0.334234 0.263375
O O12 0.498096 0.498096 0.166667
O O13 0.493661 0.614335 0.074073
O O14 0.304286 0.695715 0.416667
#
# Coordination Sequence:
#
# PCOD8325869 Si02
#       6
#    12  12  12  12  12  12
#     4  10  21  33  51  74 105 142 191 226 276 325
#     4  11  21  33  53  76 107 151 186 223 270 341
#     4  11  22  35  57  79 115 147 190 234 294 343
#     4  10  21  36  53  79 110 147 181 234 285 348
#     4  10  21  34  51  72 105 141 188 229 280 324
#     4  10  21  32  49  70 101 136 185 235 263 311
#
# _framework density 17.888622999999999
#
# number of rings (size 3 to 8) (size 9 to 14) (size 15 to 20)
#    0.000    1.667    1.667    4.000   11.667    0.000 
#    0.000    0.000    0.000    0.000    0.000    0.000 
#    0.000   26.667    0.000    0.000    0.000    0.000 
#
# Total GULP energy -892189.103321 kJ/mol
# GULP energy per Si atom -12391.515324 kJ/mol
# Density = 1.784791 g / cm^3
# Si number density = 17.888623 Si / 1000 Ang^3
#
#
#
# Elastic Constant Matrix: (Units=GPa)
#
#
# Indices 1 2 3 4 5 6 
#
# 1 70.2788 29.9777 33.4633 0.0000 0.0000 0.0000
# 2 29.9777 70.2788 33.4633 0.0000 0.0000 0.0000
# 3 33.4633 33.4633 101.7265 0.0000 0.0000 0.0000
# 4 0.0000 0.0000 0.0000 20.6730 0.0000 0.0000
# 5 0.0000 0.0000 0.0000 0.0000 20.6730 0.0000
# 6 0.0000 0.0000 0.0000 0.0000 0.0000 20.1505
#
#
#
# Elastic Compliance Matrix: (Units=1/GPa)
#
#
# Indices 1 2 3 4 5 6 
#
# 1 0.018797 -0.006016 -0.004204 0.000000 0.000000 0.000000
# 2 -0.006016 0.018797 -0.004204 0.000000 0.000000 0.000000
# 3 -0.004204 -0.004204 0.012596 0.000000 0.000000 0.000000
# 4 0.000000 0.000000 0.000000 0.048372 0.000000 0.000000
# 5 0.000000 0.000000 0.000000 0.000000 0.048372 0.000000
# 6 0.000000 0.000000 0.000000 0.000000 0.000000 0.049626
#
#
# Mechanical properties :
#
#
# Convention : Reuss Voigt Hill
#
# Bulk Modulus (GPa) = 46.85817 48.45473 47.65645
# Shear Modulus (GPa) = 21.50306 21.99129 21.74718
#
# Velocity S-wave (km/s) = 3.47082 3.51001 3.49047
# Velocity P-wave (km/s) = 6.50488 6.60095 6.55309
#
# Compressibility (1/GPa) = 0.02134099
#
# Stress axis : x y z
#
# Youngs Moduli (GPa) = 53.19958 53.19958 79.38797
#
# Poissons Ratio (x) = 0.32005 0.33378
# Poissons Ratio (y) = 0.32005 0.33378
# Poissons Ratio (z) = 0.22367 0.22367
#
# Static dielectric constant tensor:
#      x y z
#    x 3.344370 0.000000 0.000000 
#    y 0.000000 3.344370 0.000000 
#    z 0.000000 0.000000 3.735710 
# 
# 
# High freq. dielectric constant tensor:
#      x y z
#    x 1.665650 0.000000 0.000000 
#    y 0.000000 1.665650 0.000000 
#    z 0.000000 0.000000 1.708230 
# 
# From -- ./inp_files/6888.got.cif
#   From: 2010.03.12/outbox.cif.g09.slc.cpg/sg178_4_cif.got.tgz:6888.got - 2010.04.02 07:02:38.
