data_PCOD8325296
_publ_section_title
;
Structure prediction by ZEFSAII (Michael W. Deem and Ramdas Pophale) SiO2 
 PCOD8325296
Probable space group: P 6/M
;
_chemical_formula_sum "Si O2"
_cell_formula_units_Z 60
_cell_length_a 13.885929
_cell_length_b 13.885929
_cell_length_c 16.631622
_cell_angle_alpha 90.000000
_cell_angle_beta 90.000000
_cell_angle_gamma 120.000000
_cell_volume 2777.250913
_symmetry_space_group_name_H-M "P 6/M"
_symmetry_group_IT_number 175
_symmetry_cell_setting 'hexagonal'
loop_
_space_group_symop_operation_xyz
x,y,z
x-y,x,z
-y,x-y,z
-x,-y,z
-x+y,-x,z
y,-x+y,z
-x,-y,-z
-x+y,-x,-z
y,-x+y,-z
x,y,-z
x-y,x,-z
-y,x-y,-z
loop_
_atom_site_type_symbol
_atom_site_label
_atom_site_fract_x
_atom_site_fract_y
_atom_site_fract_z
Si Si1 0.111342 0.660709 0.906739
Si Si2 0.510771 0.114067 0.406374
Si Si3 0.325599 0.868317 0.848106
Si Si4 0.230692 0.193665 0.595401
Si Si5 0.546635 0.724856 0.337170
O O1 0.210496 0.787032 0.894131
O O2 0.152061 0.576501 0.877001
O O3 0.997603 0.636597 0.861535
O O4 0.081140 0.639054 0.000000
O O5 0.479264 0.105493 0.500000
O O6 0.434570 0.152240 0.357564
O O7 0.639748 0.202502 0.387596
O O8 0.500000 0.000000 0.371844
O O9 0.302543 0.833674 0.755868
O O10 0.132917 0.209756 0.629826
O O11 0.232925 0.198536 0.500000
O O12 0.349670 0.286594 0.629291
#
# Coordination Sequence:
#
# PCOD8325296 Si02
#       5
#    12  12  12  12  12
#     4  11  23  46  70 100 134 171 215 264 334 418
#     4  11  24  40  60  85 124 177 224 266 319 384
#     4  11  25  39  69 101 132 172 214 273 337 396
#     4  10  21  38  61  86 116 160 210 260 310 363
#     4  12  24  38  60  87 129 159 211 266 319 379
#
# _framework density 21.604095999999998
#
# number of rings (size 3 to 8) (size 9 to 14) (size 15 to 20)
#    0.000    1.000    0.000    7.600    8.400    4.000 
#    0.000    0.000    0.000    0.400    0.000    1.400 
#    0.000    0.000    0.000    0.000    0.000    0.000 
#
# Total GULP energy -743979.552349 kJ/mol
# GULP energy per Si atom -12399.659206 kJ/mol
# Density = 2.155492 g / cm^3
# Si number density = 21.604096 Si / 1000 Ang^3
#
#
#
# Elastic Constant Matrix: (Units=GPa)
#
#
# Indices 1 2 3 4 5 6 
#
# 1 98.7475 28.0126 18.0700 0.0000 0.0000 0.0000
# 2 28.0126 98.7475 18.0700 0.0000 0.0000 0.0000
# 3 18.0700 18.0700 92.0456 0.0000 0.0000 0.0000
# 4 0.0000 0.0000 0.0000 8.3384 0.0000 0.0000
# 5 0.0000 0.0000 0.0000 0.0000 8.3384 0.0000
# 6 0.0000 0.0000 0.0000 0.0000 0.0000 35.3674
#
#
#
# Elastic Compliance Matrix: (Units=1/GPa)
#
#
# Indices 1 2 3 4 5 6 
#
# 1 0.011247 -0.002890 -0.001641 0.000000 0.000000 0.000000
# 2 -0.002890 0.011247 -0.001641 0.000000 0.000000 0.000000
# 3 -0.001641 -0.001641 0.011508 0.000000 0.000000 0.000000
# 4 0.000000 0.000000 0.000000 0.119928 0.000000 0.000000
# 5 0.000000 0.000000 0.000000 0.000000 0.119928 0.000000
# 6 0.000000 0.000000 0.000000 0.000000 0.000000 0.028275
#
#
# Mechanical properties :
#
#
# Convention : Reuss Voigt Hill
#
# Bulk Modulus (GPa) = 46.16925 46.42731 46.29828
# Shear Modulus (GPa) = 15.54269 25.43470 20.48870
#
# Velocity S-wave (km/s) = 2.68513 3.43492 3.08290
# Velocity P-wave (km/s) = 5.57048 6.10477 5.84374
#
# Compressibility (1/GPa) = 0.02165944
#
# Stress axis : x y z
#
# Youngs Moduli (GPa) = 88.91281 88.91281 86.89378
#
# Poissons Ratio (x) = 0.25699 0.14255
# Poissons Ratio (y) = 0.25699 0.14255
# Poissons Ratio (z) = 0.14586 0.14586
#
# Static dielectric constant tensor:
#      x y z
#    x 4.206150 0.000000 0.000000 
#    y 0.000000 4.206150 0.000000 
#    z 0.000000 0.000000 3.653690 
# 
# 
# High freq. dielectric constant tensor:
#      x y z
#    x 1.862350 0.000000 0.000000 
#    y 0.000000 1.862350 0.000000 
#    z 0.000000 0.000000 1.829700 
# 
# From -- ./inp_files/2379.got.cif
#   From: 2010.03.12/outbox.cif.g09.slc.cpg/sg175_2_cif.got.tgz:2379.got - 2010.04.02 06:55:29.
