data_PCOD8325765
_publ_section_title
;
Structure prediction by ZEFSAII (Michael W. Deem and Ramdas Pophale) SiO2 
 PCOD8325765
Probable space group: P 61 2 2
;
_chemical_formula_sum "Si O2"
_cell_formula_units_Z 48
_cell_length_a 15.549747
_cell_length_b 15.549747
_cell_length_c 12.138173
_cell_angle_alpha 90.000000
_cell_angle_beta 90.000000
_cell_angle_gamma 120.000000
_cell_volume 2541.736990
_symmetry_space_group_name_H-M "P 61 2 2"
_symmetry_group_IT_number 178
_symmetry_cell_setting 'hexagonal'
loop_
_space_group_symop_operation_xyz
x,y,z
x-y,x,1/6+z
-y,x-y,1/3+z
-x,-y,1/2+z
-x+y,-x,2/3+z
y,-x+y,5/6+z
x-y,-y,-z
-x,-x+y,2/3-z
y,x,1/3-z
-y,-x,5/6-z
-x+y,y,1/2-z
x,x-y,1/6-z
loop_
_atom_site_type_symbol
_atom_site_label
_atom_site_fract_x
_atom_site_fract_y
_atom_site_fract_z
Si Si1 0.075974 0.908698 0.743585
Si Si2 0.419472 0.754135 0.868845
Si Si3 0.543393 0.645710 0.612576
Si Si4 0.611394 0.774313 0.413324
O O1 0.168468 0.894430 0.710960
O O2 0.017207 0.900484 0.631438
O O3 0.000000 0.827021 0.833334
O O4 0.358748 0.641253 0.916667
O O5 0.377549 0.755098 0.750000
O O6 0.399917 0.824940 0.949227
O O7 0.538055 0.797285 0.859794
O O8 0.564372 0.564372 0.666667
O O9 0.587152 0.677747 0.488179
O O10 0.594996 0.743259 0.684947
#
# Coordination Sequence:
#
# PCOD8325765 Si02
#       4
#    12  12  12  12
#     4  10  19  33  57  85 111 136 182 237 293 346
#     4  10  18  34  53  76 111 160 192 231 282 351
#     4  10  17  29  51  75 108 145 190 243 279 329
#     4  10  18  31  53  80 111 139 191 237 285 334
#
# _framework density 18.884723999999999
#
# number of rings (size 3 to 8) (size 9 to 14) (size 15 to 20)
#    0.000    2.000    5.000    5.250    0.000    0.000 
#    0.000    6.250    0.000    7.500    0.000    0.000 
#    0.000    0.000    0.000    0.000    0.000    0.000 
#
# Total GULP energy -594855.192304 kJ/mol
# GULP energy per Si atom -12392.816506 kJ/mol
# Density = 1.884174 g / cm^3
# Si number density = 18.884724 Si / 1000 Ang^3
#
#
#
# Elastic Constant Matrix: (Units=GPa)
#
#
# Indices 1 2 3 4 5 6 
#
# 1 109.0510 49.7849 41.4597 0.0000 0.0000 0.0000
# 2 49.7849 109.0510 41.4597 0.0000 0.0000 0.0000
# 3 41.4597 41.4597 46.0677 0.0000 0.0000 0.0000
# 4 0.0000 0.0000 0.0000 24.8918 0.0000 0.0000
# 5 0.0000 0.0000 0.0000 0.0000 24.8918 0.0000
# 6 0.0000 0.0000 0.0000 0.0000 0.0000 29.6330
#
#
#
# Elastic Compliance Matrix: (Units=1/GPa)
#
#
# Indices 1 2 3 4 5 6 
#
# 1 0.014374 -0.002499 -0.010687 0.000000 0.000000 0.000000
# 2 -0.002499 0.014374 -0.010687 0.000000 0.000000 0.000000
# 3 -0.010687 -0.010687 0.040943 0.000000 0.000000 0.000000
# 4 0.000000 0.000000 0.000000 0.040174 0.000000 0.000000
# 5 0.000000 0.000000 0.000000 0.000000 0.040174 0.000000
# 6 0.000000 0.000000 0.000000 0.000000 0.000000 0.033746
#
#
# Mechanical properties :
#
#
# Convention : Reuss Voigt Hill
#
# Bulk Modulus (GPa) = 45.56890 58.84203 52.20547
# Shear Modulus (GPa) = 20.93391 24.64769 22.79080
#
# Velocity S-wave (km/s) = 3.33304 3.61663 3.47773
# Velocity P-wave (km/s) = 6.24457 6.97611 6.62045
#
# Compressibility (1/GPa) = 0.02194479
#
# Stress axis : x y z
#
# Youngs Moduli (GPa) = 69.56995 69.56995 24.42392
#
# Poissons Ratio (x) = 0.17386 0.26102
# Poissons Ratio (y) = 0.17386 0.26102
# Poissons Ratio (z) = 0.74351 0.74351
#
# Static dielectric constant tensor:
#      x y z
#    x 3.584400 0.000000 0.000000 
#    y 0.000000 3.584400 0.000000 
#    z 0.000000 0.000000 3.324180 
# 
# 
# High freq. dielectric constant tensor:
#      x y z
#    x 1.723800 0.000000 0.000000 
#    y 0.000000 1.723800 0.000000 
#    z 0.000000 0.000000 1.690400 
# 
# From -- ./inp_files/5386.got.cif
#   From: 2010.03.12/outbox.cif.g09.slc.cpg/sg178_3_cif.got.tgz:5386.got - 2010.04.02 07:02:38.
