data_PCOD8325800
_publ_section_title
;
Structure prediction by ZEFSAII (Michael W. Deem and Ramdas Pophale) SiO2 
 PCOD8325800
Probable space group: P 61 2 2
;
_chemical_formula_sum "Si O2"
_cell_formula_units_Z 96
_cell_length_a 14.601356
_cell_length_b 14.601356
_cell_length_c 29.420393
_cell_angle_alpha 90.000000
_cell_angle_beta 90.000000
_cell_angle_gamma 120.000000
_cell_volume 5432.071540
_symmetry_space_group_name_H-M "P 61 2 2"
_symmetry_group_IT_number 178
_symmetry_cell_setting 'hexagonal'
loop_
_space_group_symop_operation_xyz
x,y,z
x-y,x,1/6+z
-y,x-y,1/3+z
-x,-y,1/2+z
-x+y,-x,2/3+z
y,-x+y,5/6+z
x-y,-y,-z
-x,-x+y,2/3-z
y,x,1/3-z
-y,-x,5/6-z
-x+y,y,1/2-z
x,x-y,1/6-z
loop_
_atom_site_type_symbol
_atom_site_label
_atom_site_fract_x
_atom_site_fract_y
_atom_site_fract_z
Si Si1 0.830305 0.530413 0.820534
Si Si2 0.396784 0.389031 0.918191
Si Si3 0.083036 0.433262 0.183008
Si Si4 0.483136 0.335611 0.561582
Si Si5 0.708133 0.321604 0.014594
Si Si6 0.246392 0.470818 0.927741
Si Si7 0.964642 0.402750 0.265667
Si Si8 0.574353 0.637219 0.319626
O O1 0.763643 0.583339 0.800950
O O2 0.735639 0.413801 0.831654
O O3 0.891898 0.586150 0.867565
O O4 0.914614 0.531349 0.784942
O O5 0.489756 0.510245 0.916667
O O6 0.288134 0.389728 0.920118
O O7 0.404169 0.329668 0.872929
O O8 0.400489 0.331281 0.963709
O O9 0.100082 0.551004 0.188095
O O10 0.980310 0.363299 0.215801
O O11 0.434626 0.217313 0.583334
O O12 0.583281 0.353505 0.532583
O O13 0.522405 0.433596 0.597222
O O14 0.400400 0.342732 0.527832
O O15 0.725097 0.238342 0.044746
O O16 0.751094 0.430341 0.040880
O O17 0.135073 0.401415 0.953149
#
# Coordination Sequence:
#
# PCOD8325800 Si02
#       8
#    12  12  12  12  12  12  12  12
#     4  11  21  35  50  78 106 150 197 229 272 337
#     4  10  19  34  49  73 106 135 178 238 277 330
#     4  10  20  34  51  73 107 142 186 237 276 325
#     4  11  20  35  49  72 112 144 188 235 270 326
#     4  11  19  31  51  73 100 149 190 217 271 326
#     4  11  19  32  54  71 103 142 187 224 277 327
#     4  10  22  34  50  73 109 145 190 236 267 321
#     4  10  20  34  50  76 101 142 189 228 278 337
#
# _framework density 17.672816000000001
#
# number of rings (size 3 to 8) (size 9 to 14) (size 15 to 20)
#    0.000    1.500    5.000    3.375    1.750    2.000 
#    2.250    0.000    0.000    0.000    0.000    0.000 
#    0.000    8.000    0.000    0.500    0.000    0.000 
#
# Total GULP energy -1189388.709132 kJ/mol
# GULP energy per Si atom -12389.465720 kJ/mol
# Density = 1.763259 g / cm^3
# Si number density = 17.672816 Si / 1000 Ang^3
#
#
#
# Elastic Constant Matrix: (Units=GPa)
#
#
# Indices 1 2 3 4 5 6 
#
# 1 63.7353 15.3391 20.9061 0.0000 0.0000 0.0000
# 2 15.3391 63.7353 20.9061 0.0000 0.0000 0.0000
# 3 20.9061 20.9061 89.2712 0.0000 0.0000 0.0000
# 4 0.0000 0.0000 0.0000 23.3930 0.0000 0.0000
# 5 0.0000 0.0000 0.0000 0.0000 23.3930 0.0000
# 6 0.0000 0.0000 0.0000 0.0000 0.0000 24.1981
#
#
#
# Elastic Compliance Matrix: (Units=1/GPa)
#
#
# Indices 1 2 3 4 5 6 
#
# 1 0.017548 -0.003115 -0.003380 0.000000 0.000000 0.000000
# 2 -0.003115 0.017548 -0.003380 0.000000 0.000000 0.000000
# 3 -0.003380 -0.003380 0.012785 0.000000 0.000000 0.000000
# 4 0.000000 0.000000 0.000000 0.042748 0.000000 0.000000
# 5 0.000000 0.000000 0.000000 0.000000 0.042748 0.000000
# 6 0.000000 0.000000 0.000000 0.000000 0.000000 0.041326
#
#
# Mechanical properties :
#
#
# Convention : Reuss Voigt Hill
#
# Bulk Modulus (GPa) = 35.54716 36.78270 36.16493
# Shear Modulus (GPa) = 24.53026 24.83616 24.68321
#
# Velocity S-wave (km/s) = 3.72966 3.75284 3.74127
# Velocity P-wave (km/s) = 6.22132 6.29577 6.25866
#
# Compressibility (1/GPa) = 0.02813165
#
# Stress axis : x y z
#
# Youngs Moduli (GPa) = 56.98581 56.98581 78.21666
#
# Poissons Ratio (x) = 0.17749 0.26438
# Poissons Ratio (y) = 0.17749 0.26438
# Poissons Ratio (z) = 0.19262 0.19262
#
# Static dielectric constant tensor:
#      x y z
#    x 3.075730 0.000000 0.000000 
#    y 0.000000 3.075730 0.000000 
#    z 0.000000 0.000000 3.665500 
# 
# 
# High freq. dielectric constant tensor:
#      x y z
#    x 1.645140 0.000000 0.000000 
#    y 0.000000 1.645140 0.000000 
#    z 0.000000 0.000000 1.707870 
# 
# From -- ./inp_files/9691.got.cif
#   From: 2010.03.12/outbox.cif.g09.slc.cpg/sg178_5_cif.got.tgz:9691.got - 2010.04.02 07:02:38.
