data_PCOD8325852
_publ_section_title
;
Structure prediction by ZEFSAII (Michael W. Deem and Ramdas Pophale) SiO2 
 PCOD8325852
Probable space group: P 61 2 2
;
_chemical_formula_sum "Si O2"
_cell_formula_units_Z 84
_cell_length_a 17.597033
_cell_length_b 17.597033
_cell_length_c 14.627132
_cell_angle_alpha 90.000000
_cell_angle_beta 90.000000
_cell_angle_gamma 120.000000
_cell_volume 3922.551997
_symmetry_space_group_name_H-M "P 61 2 2"
_symmetry_group_IT_number 178
_symmetry_cell_setting 'hexagonal'
loop_
_space_group_symop_operation_xyz
x,y,z
x-y,x,1/6+z
-y,x-y,1/3+z
-x,-y,1/2+z
-x+y,-x,2/3+z
y,-x+y,5/6+z
x-y,-y,-z
-x,-x+y,2/3-z
y,x,1/3-z
-y,-x,5/6-z
-x+y,y,1/2-z
x,x-y,1/6-z
loop_
_atom_site_type_symbol
_atom_site_label
_atom_site_fract_x
_atom_site_fract_y
_atom_site_fract_z
Si Si1 0.465836 0.569841 0.165768
Si Si2 0.206088 0.717061 0.197951
Si Si3 0.790120 0.268899 0.322520
Si Si4 0.177853 0.897911 0.641838
Si Si5 0.172776 0.899925 0.006988
Si Si6 0.355700 0.496930 0.861216
Si Si7 0.309742 0.090931 0.655744
O O1 0.527979 0.527979 0.166667
O O2 0.476513 0.619796 0.262047
O O3 0.366680 0.495077 0.148402
O O4 0.488966 0.635351 0.080679
O O5 0.241202 0.720229 0.094383
O O6 0.152912 0.768085 0.195502
O O7 0.291300 0.763137 0.263512
O O8 0.738976 0.261025 0.416667
O O9 0.833354 0.208886 0.324669
O O10 0.126719 0.888692 0.736708
O O11 0.103401 0.852417 0.565337
O O12 0.244126 0.997428 0.611828
O O13 0.114922 0.885079 0.916667
O O14 0.250623 0.000000 0.000000
O O15 0.449662 0.550339 0.916667
O O16 0.305422 0.390560 0.870716
O O17 0.343356 0.171678 0.583334
#
# Coordination Sequence:
#
# PCOD8325852 Si02
#       7
#    12  12  12  12  12  12  12
#     4  12  24  42  65  96 128 169 226 286 341 406
#     4  10  22  42  64  90 129 174 221 273 338 408
#     4  10  23  43  59  91 129 168 218 272 334 396
#     4  10  21  38  64  93 126 164 219 267 326 395
#     4  10  20  38  63  88 119 162 207 259 316 385
#     4  11  22  41  64  92 129 173 218 270 337 397
#     4  11  22  39  65  97 128 168 216 274 331 396
#
# _framework density 21.414631
#
# number of rings (size 3 to 8) (size 9 to 14) (size 15 to 20)
#    0.000    1.429    1.429    4.714    0.000    1.143 
#   12.857    0.000    0.000    8.571    0.000    0.000 
#    0.000    0.000    0.000    0.000    0.000    0.000 
#
# Total GULP energy -1040917.131250 kJ/mol
# GULP energy per Si atom -12391.870610 kJ/mol
# Density = 2.136589 g / cm^3
# Si number density = 21.414631 Si / 1000 Ang^3
#
#
#
# Elastic Constant Matrix: (Units=GPa)
#
#
# Indices 1 2 3 4 5 6 
#
# 1 80.3536 36.8261 44.9443 0.0000 0.0000 0.0000
# 2 36.8261 80.3536 44.9443 0.0000 0.0000 0.0000
# 3 44.9443 44.9443 156.0863 0.0000 0.0000 0.0000
# 4 0.0000 0.0000 0.0000 25.1130 0.0000 0.0000
# 5 0.0000 0.0000 0.0000 0.0000 25.1130 0.0000
# 6 0.0000 0.0000 0.0000 0.0000 0.0000 21.7638
#
#
#
# Elastic Compliance Matrix: (Units=1/GPa)
#
#
# Indices 1 2 3 4 5 6 
#
# 1 0.016964 -0.006010 -0.003154 0.000000 0.000000 0.000000
# 2 -0.006010 0.016964 -0.003154 0.000000 0.000000 0.000000
# 3 -0.003154 -0.003154 0.008223 0.000000 0.000000 0.000000
# 4 0.000000 0.000000 0.000000 0.039820 0.000000 0.000000
# 5 0.000000 0.000000 0.000000 0.000000 0.039820 0.000000
# 6 0.000000 0.000000 0.000000 0.000000 0.000000 0.045948
#
#
# Mechanical properties :
#
#
# Convention : Reuss Voigt Hill
#
# Bulk Modulus (GPa) = 57.09770 63.35811 60.22791
# Shear Modulus (GPa) = 25.22543 27.06988 26.14766
#
# Velocity S-wave (km/s) = 3.43586 3.55925 3.49810
# Velocity P-wave (km/s) = 6.51621 6.82214 6.67093
#
# Compressibility (1/GPa) = 0.01751384
#
# Stress axis : x y z
#
# Youngs Moduli (GPa) = 58.94963 58.94963 121.60950
#
# Poissons Ratio (x) = 0.35431 0.38355
# Poissons Ratio (y) = 0.35431 0.38355
# Poissons Ratio (z) = 0.18592 0.18592
#
# Static dielectric constant tensor:
#      x y z
#    x 3.640640 0.000000 0.000000 
#    y 0.000000 3.640640 0.000000 
#    z 0.000000 0.000000 4.456140 
# 
# 
# High freq. dielectric constant tensor:
#      x y z
#    x 1.820910 0.000000 0.000000 
#    y 0.000000 1.820910 0.000000 
#    z 0.000000 0.000000 1.858600 
# 
# From -- ./inp_files/6043.got.cif
#   From: 2010.03.12/outbox.cif.g09.slc.cpg/sg178_4_cif.got.tgz:6043.got - 2010.04.02 07:02:38.
