data_PCOD8325353
_publ_section_title
;
Structure prediction by ZEFSAII (Michael W. Deem and Ramdas Pophale) SiO2 
 PCOD8325353
Probable space group: P 6/M
;
_chemical_formula_sum "Si O2"
_cell_formula_units_Z 84
_cell_length_a 17.825748
_cell_length_b 17.825748
_cell_length_c 14.059163
_cell_angle_alpha 90.000000
_cell_angle_beta 90.000000
_cell_angle_gamma 120.000000
_cell_volume 3868.883239
_symmetry_space_group_name_H-M "P 6/M"
_symmetry_group_IT_number 175
_symmetry_cell_setting 'hexagonal'
loop_
_space_group_symop_operation_xyz
x,y,z
x-y,x,z
-y,x-y,z
-x,-y,z
-x+y,-x,z
y,-x+y,z
-x,-y,-z
-x+y,-x,-z
y,-x+y,-z
x,y,-z
x-y,x,-z
-y,x-y,-z
loop_
_atom_site_type_symbol
_atom_site_label
_atom_site_fract_x
_atom_site_fract_y
_atom_site_fract_z
Si Si1 0.656226 0.232979 0.711787
Si Si2 0.401058 0.942616 0.612145
Si Si3 0.116328 0.202783 0.000000
Si Si4 0.946035 0.363197 0.106089
Si Si5 0.303849 0.113227 0.806900
Si Si6 0.852000 0.048211 0.500000
Si Si7 0.291377 0.245731 0.685272
Si Si8 0.619043 0.128545 0.106537
O O1 0.746503 0.323575 0.697461
O O2 0.639485 0.158791 0.636522
O O3 0.665112 0.205424 0.818770
O O4 0.398847 0.952622 0.500000
O O5 0.343895 0.978889 0.660832
O O6 0.500000 0.000000 0.650768
O O7 0.149498 0.135578 0.000000
O O8 0.146560 0.260247 0.905598
O O9 0.892470 0.282285 0.174572
O O10 0.903291 0.421903 0.107491
O O11 0.047184 0.417115 0.138148
O O12 0.944486 0.328600 0.000000
O O13 0.333062 0.201799 0.750876
O O14 0.241240 0.031168 0.740990
O O15 0.809672 0.066438 0.590395
O O16 0.953212 0.114709 0.500000
O O17 0.657058 0.160884 0.000000
#
# Coordination Sequence:
#
# PCOD8325353 Si02
#       8
#    12  12   6  12  12   6  12  12
#     4  10  25  42  63  99 138 179 232 277 354 434
#     4  11  27  50  75 104 136 181 238 300 374 433
#     4  12  25  46  66 101 145 193 243 291 345 448
#     4   9  19  36  63  95 135 184 231 285 343 405
#     4  12  24  40  68 102 148 184 238 292 357 413
#     4  12  25  50  73 110 144 182 238 296 364 438
#     4  12  26  43  73 106 142 187 239 304 352 434
#     4   9  19  38  62  95 137 184 235 282 338 415
#
# _framework density 21.711691999999999
#
# number of rings (size 3 to 8) (size 9 to 14) (size 15 to 20)
#    0.286    1.000    4.286    1.857    6.000    1.143 
#    0.000    1.429    0.000    0.000    0.000    0.000 
#    0.000    0.000    0.000    0.000    0.000    0.000 
#
# Total GULP energy -1041484.615338 kJ/mol
# GULP energy per Si atom -12398.626373 kJ/mol
# Density = 2.166227 g / cm^3
# Si number density = 21.711692 Si / 1000 Ang^3
#
#
#
# Elastic Constant Matrix: (Units=GPa)
#
#
# Indices 1 2 3 4 5 6 
#
# 1 97.3481 23.0011 38.9269 0.0000 0.0000 0.0000
# 2 23.0011 97.3481 38.9269 0.0000 0.0000 0.0000
# 3 38.9269 38.9269 112.2726 0.0000 0.0000 0.0000
# 4 0.0000 0.0000 0.0000 30.8958 0.0000 0.0000
# 5 0.0000 0.0000 0.0000 0.0000 30.8958 0.0000
# 6 0.0000 0.0000 0.0000 0.0000 0.0000 37.1735
#
#
#
# Elastic Compliance Matrix: (Units=1/GPa)
#
#
# Indices 1 2 3 4 5 6 
#
# 1 0.012081 -0.001369 -0.003714 0.000000 0.000000 0.000000
# 2 -0.001369 0.012081 -0.003714 0.000000 0.000000 0.000000
# 3 -0.003714 -0.003714 0.011482 0.000000 0.000000 0.000000
# 4 0.000000 0.000000 0.000000 0.032367 0.000000 0.000000
# 5 0.000000 0.000000 0.000000 0.000000 0.032367 0.000000
# 6 0.000000 0.000000 0.000000 0.000000 0.000000 0.026901
#
#
# Mechanical properties :
#
#
# Convention : Reuss Voigt Hill
#
# Bulk Modulus (GPa) = 55.40189 56.51983 55.96086
# Shear Modulus (GPa) = 33.13669 33.53394 33.33531
#
# Velocity S-wave (km/s) = 3.91092 3.93429 3.92262
# Velocity P-wave (km/s) = 6.77984 6.83569 6.80782
#
# Compressibility (1/GPa) = 0.01804993
#
# Stress axis : x y z
#
# Youngs Moduli (GPa) = 82.77412 82.77412 87.09083
#
# Poissons Ratio (x) = 0.11335 0.32345
# Poissons Ratio (y) = 0.11335 0.32345
# Poissons Ratio (z) = 0.30742 0.30742
#
# Static dielectric constant tensor:
#      x y z
#    x 3.870270 0.000000 0.000000 
#    y 0.000000 3.870270 0.000000 
#    z 0.000000 0.000000 4.209630 
# 
# 
# High freq. dielectric constant tensor:
#      x y z
#    x 1.849590 0.000000 0.000000 
#    y 0.000000 1.849590 0.000000 
#    z 0.000000 0.000000 1.867410 
# 
# From -- ./inp_files/2644.got.cif
#   From: 2010.03.12/outbox.cif.g09.slc.cpg/sg175_2_cif.got.tgz:2644.got - 2010.04.02 06:55:29.
