data_PCOD8325455
_publ_section_title
;
Structure prediction by ZEFSAII (Michael W. Deem and Ramdas Pophale) SiO2 
 PCOD8325455
Probable space group: P 63/M
;
_chemical_formula_sum "Si O2"
_cell_formula_units_Z 72
_cell_length_a 23.447723
_cell_length_b 23.447723
_cell_length_c 9.043308
_cell_angle_alpha 90.000000
_cell_angle_beta 90.000000
_cell_angle_gamma 120.000000
_cell_volume 4305.854040
_symmetry_space_group_name_H-M "P 63/M"
_symmetry_group_IT_number 176
_symmetry_cell_setting 'hexagonal'
loop_
_space_group_symop_operation_xyz
x,y,z
x-y,x,1/2+z
-y,x-y,z
-x,-y,1/2+z
-x+y,-x,z
y,-x+y,1/2+z
-x,-y,-z
-x+y,-x,1/2-z
y,-x+y,-z
x,y,1/2-z
x-y,x,-z
-y,x-y,1/2-z
loop_
_atom_site_type_symbol
_atom_site_label
_atom_site_fract_x
_atom_site_fract_y
_atom_site_fract_z
Si Si1 0.935035 0.736971 0.422228
Si Si2 0.598935 0.077614 0.421931
Si Si3 0.394041 0.134479 0.580271
Si Si4 0.867966 0.600620 0.922065
Si Si5 0.194469 0.260280 0.921491
Si Si6 0.926294 0.408430 0.920163
O O1 0.943051 0.727891 0.250000
O O2 0.917960 0.669271 0.501327
O O3 0.879706 0.756604 0.452902
O O4 0.002436 0.795351 0.488710
O O5 0.611844 0.094052 0.250000
O O6 0.666153 0.123073 0.508408
O O7 0.545415 0.096570 0.477221
O O8 0.573643 0.001141 0.456105
O O9 0.370901 0.115676 0.750000
O O10 0.418244 0.210831 0.549532
O O11 0.333422 0.087745 0.476215
O O12 0.453795 0.121937 0.543569
O O13 0.885302 0.607380 0.750000
O O14 0.207422 0.255485 0.750000
O O15 0.920763 0.424987 0.750000
#
# Coordination Sequence:
#
# PCOD8325455 Si02
#       6
#    12  12  12  12  12  12
#     4  10  20  33  49  71  99 128 159 197 238 281
#     4  10  19  30  47  71  97 125 155 192 239 283
#     4   9  18  32  50  71  96 127 159 194 236 280
#     4  10  19  31  49  72  97 126 160 196 235 281
#     4  10  20  32  49  73  98 127 161 195 235 283
#     4   9  18  32  48  67  93 124 158 193 231 279
#
# _framework density 16.721422
#
# number of rings (size 3 to 8) (size 9 to 14) (size 15 to 20)
#    0.000    2.333    0.000    3.000    0.000    5.333 
#    0.000    0.000    0.000    1.000    0.000    2.333 
#    0.000    0.000    0.000    0.000    0.000    0.000 
#
# Total GULP energy -893090.879149 kJ/mol
# GULP energy per Si atom -12404.039988 kJ/mol
# Density = 1.668336 g / cm^3
# Si number density = 16.721422 Si / 1000 Ang^3
#
#
#
# Elastic Constant Matrix: (Units=GPa)
#
#
# Indices 1 2 3 4 5 6 
#
# 1 100.7153 54.5770 58.4677 0.0000 0.0000 0.0000
# 2 54.5770 100.7153 58.4677 0.0000 0.0000 0.0000
# 3 58.4677 58.4677 105.6547 0.0000 0.0000 0.0000
# 4 0.0000 0.0000 0.0000 29.4884 0.0000 0.0000
# 5 0.0000 0.0000 0.0000 0.0000 29.4884 0.0000
# 6 0.0000 0.0000 0.0000 0.0000 0.0000 23.0691
#
#
#
# Elastic Compliance Matrix: (Units=1/GPa)
#
#
# Indices 1 2 3 4 5 6 
#
# 1 0.016357 -0.005317 -0.006109 0.000000 0.000000 0.000000
# 2 -0.005317 0.016357 -0.006109 0.000000 0.000000 0.000000
# 3 -0.006109 -0.006109 0.016226 0.000000 0.000000 0.000000
# 4 0.000000 0.000000 0.000000 0.033912 0.000000 0.000000
# 5 0.000000 0.000000 0.000000 0.000000 0.033912 0.000000
# 6 0.000000 0.000000 0.000000 0.000000 0.000000 0.043348
#
#
# Mechanical properties :
#
#
# Convention : Reuss Voigt Hill
#
# Bulk Modulus (GPa) = 72.10390 72.23444 72.16917
# Shear Modulus (GPa) = 25.02435 25.44736 25.23586
#
# Velocity S-wave (km/s) = 3.87272 3.90531 3.88905
# Velocity P-wave (km/s) = 7.95057 7.97670 7.96365
#
# Compressibility (1/GPa) = 0.01386888
#
# Stress axis : x y z
#
# Youngs Moduli (GPa) = 61.13645 61.13645 61.62849
#
# Poissons Ratio (x) = 0.32507 0.37650
# Poissons Ratio (y) = 0.32507 0.37650
# Poissons Ratio (z) = 0.37349 0.37349
#
# Static dielectric constant tensor:
#      x y z
#    x 3.046120 0.000000 0.000000 
#    y 0.000000 3.046120 0.000000 
#    z 0.000000 0.000000 3.261890 
# 
# 
# High freq. dielectric constant tensor:
#      x y z
#    x 1.632040 0.000000 0.000000 
#    y 0.000000 1.632040 0.000000 
#    z 0.000000 0.000000 1.659130 
# 
# From -- ./inp_files/1163.got.cif
#   From: 2010.06.25/outbox.cif.g09.slc.cpg/sg176_1_cif.got.tgz:1163.got - 2010.06.28 12:15:01.
