data_PCOD8325251
_publ_section_title
;
Structure prediction by ZEFSAII (Michael W. Deem and Ramdas Pophale) SiO2 
 PCOD8325251
Probable space group: P 6/M
;
_chemical_formula_sum "Si O2"
_cell_formula_units_Z 60
_cell_length_a 14.910165
_cell_length_b 14.910165
_cell_length_c 14.481357
_cell_angle_alpha 90.000000
_cell_angle_beta 90.000000
_cell_angle_gamma 120.000000
_cell_volume 2788.077173
_symmetry_space_group_name_H-M "P 6/M"
_symmetry_group_IT_number 175
_symmetry_cell_setting 'hexagonal'
loop_
_space_group_symop_operation_xyz
x,y,z
x-y,x,z
-y,x-y,z
-x,-y,z
-x+y,-x,z
y,-x+y,z
-x,-y,-z
-x+y,-x,-z
y,-x+y,-z
x,y,-z
x-y,x,-z
-y,x-y,-z
loop_
_atom_site_type_symbol
_atom_site_label
_atom_site_fract_x
_atom_site_fract_y
_atom_site_fract_z
Si Si1 0.339029 0.167015 0.393211
Si Si2 0.229793 0.084755 0.784032
Si Si3 0.568241 0.801474 0.107643
Si Si4 0.601656 0.002450 0.393633
Si Si5 0.464931 0.574765 0.107626
O O1 0.302573 0.156531 0.500000
O O2 0.241015 0.097344 0.327249
O O3 0.389102 0.287548 0.358779
O O4 0.409290 0.111622 0.380078
O O5 0.183852 0.154386 0.819991
O O6 0.338427 0.115745 0.831406
O O7 0.534382 0.688813 0.148859
O O8 0.468555 0.813223 0.124070
O O9 0.600399 0.816455 0.000000
O O10 0.600178 0.026858 0.500000
O O11 0.500000 0.000000 0.347330
O O12 0.500000 0.500000 0.155981
O O13 0.491285 0.584581 0.000000
#
# Coordination Sequence:
#
# PCOD8325251 Si02
#       5
#    12  12  12  12  12
#     4  10  20  39  64  88 121 164 209 262 321 370
#     4  12  25  41  60  87 118 161 211 266 317 368
#     4  10  21  39  62  89 121 155 194 245 308 373
#     4   9  18  36  62  89 120 160 205 257 318 387
#     4   9  17  33  58  84 110 145 187 232 283 349
#
# _framework density 21.520206000000002
#
# number of rings (size 3 to 8) (size 9 to 14) (size 15 to 20)
#    0.000    2.000    2.000    1.800    0.000    4.000 
#    4.800    0.000    0.000    2.400    0.000    0.000 
#    0.000    0.000    0.000    0.000    0.000    0.000 
#
# Total GULP energy -743330.290491 kJ/mol
# GULP energy per Si atom -12388.838175 kJ/mol
# Density = 2.147122 g / cm^3
# Si number density = 21.520206 Si / 1000 Ang^3
#
#
#
# Elastic Constant Matrix: (Units=GPa)
#
#
# Indices 1 2 3 4 5 6 
#
# 1 92.8355 17.9912 7.0333 0.0000 0.0000 0.0000
# 2 17.9912 92.8355 7.0333 0.0000 0.0000 0.0000
# 3 7.0333 7.0333 50.3556 0.0000 0.0000 0.0000
# 4 0.0000 0.0000 0.0000 14.3656 0.0000 0.0000
# 5 0.0000 0.0000 0.0000 0.0000 14.3656 0.0000
# 6 0.0000 0.0000 0.0000 0.0000 0.0000 37.4221
#
#
#
# Elastic Compliance Matrix: (Units=1/GPa)
#
#
# Indices 1 2 3 4 5 6 
#
# 1 0.011274 -0.002088 -0.001283 0.000000 0.000000 0.000000
# 2 -0.002088 0.011274 -0.001283 0.000000 0.000000 0.000000
# 3 -0.001283 -0.001283 0.020217 0.000000 0.000000 0.000000
# 4 0.000000 0.000000 0.000000 0.069611 0.000000 0.000000
# 5 0.000000 0.000000 0.000000 0.000000 0.069611 0.000000
# 6 0.000000 0.000000 0.000000 0.000000 0.000000 0.026722
#
#
# Mechanical properties :
#
#
# Convention : Reuss Voigt Hill
#
# Bulk Modulus (GPa) = 29.88915 33.34913 31.61914
# Shear Modulus (GPa) = 21.81811 26.82859 24.32335
#
# Velocity S-wave (km/s) = 3.18754 3.53465 3.36558
# Velocity P-wave (km/s) = 5.24083 5.67350 5.46145
#
# Compressibility (1/GPa) = 0.03345695
#
# Stress axis : x y z
#
# Youngs Moduli (GPa) = 88.70353 88.70353 49.46295
#
# Poissons Ratio (x) = 0.18517 0.06346
# Poissons Ratio (y) = 0.18517 0.06346
# Poissons Ratio (z) = 0.11381 0.11381
#
# Static dielectric constant tensor:
#      x y z
#    x 4.144450 0.000000 0.000000 
#    y 0.000000 4.144450 0.000000 
#    z 0.000000 0.000000 3.613910 
# 
# 
# High freq. dielectric constant tensor:
#      x y z
#    x 1.844480 0.000000 0.000000 
#    y 0.000000 1.844480 0.000000 
#    z 0.000000 0.000000 1.825830 
# 
# From -- ./inp_files/2371.got.cif
#   From: 2010.03.12/outbox.cif.g09.slc.cpg/sg175_2_cif.got.tgz:2371.got - 2010.04.02 06:55:29.
