data_PCOD8325844
_publ_section_title
;
Structure prediction by ZEFSAII (Michael W. Deem and Ramdas Pophale) SiO2 
 PCOD8325844
Probable space group: P 61 2 2
;
_chemical_formula_sum "Si O2"
_cell_formula_units_Z 84
_cell_length_a 16.986324
_cell_length_b 16.986324
_cell_length_c 17.355456
_cell_angle_alpha 90.000000
_cell_angle_beta 90.000000
_cell_angle_gamma 120.000000
_cell_volume 4336.760791
_symmetry_space_group_name_H-M "P 61 2 2"
_symmetry_group_IT_number 178
_symmetry_cell_setting 'hexagonal'
loop_
_space_group_symop_operation_xyz
x,y,z
x-y,x,1/6+z
-y,x-y,1/3+z
-x,-y,1/2+z
-x+y,-x,2/3+z
y,-x+y,5/6+z
x-y,-y,-z
-x,-x+y,2/3-z
y,x,1/3-z
-y,-x,5/6-z
-x+y,y,1/2-z
x,x-y,1/6-z
loop_
_atom_site_type_symbol
_atom_site_label
_atom_site_fract_x
_atom_site_fract_y
_atom_site_fract_z
Si Si1 0.816948 0.452368 0.246018
Si Si2 0.580844 0.020591 0.806227
Si Si3 0.082449 0.670553 0.881195
Si Si4 0.994744 0.706137 0.024551
Si Si5 0.659565 0.823890 0.745162
Si Si6 0.755526 0.295359 0.621421
Si Si7 0.464985 0.860663 0.920762
O O1 0.736387 0.472774 0.250000
O O2 0.880226 0.497890 0.173910
O O3 0.780120 0.344830 0.237134
O O4 0.870873 0.496724 0.324614
O O5 0.497281 0.994561 0.750000
O O6 0.668794 0.032045 0.761832
O O7 0.542064 0.945719 0.873493
O O8 0.123108 0.761885 0.830664
O O9 0.150618 0.635672 0.906382
O O10 0.000000 0.589335 0.833334
O O11 0.046149 0.683034 0.960817
O O12 0.071250 0.805880 0.057105
O O13 0.905683 0.700238 0.984269
O O14 0.565648 0.821834 0.766408
O O15 0.787834 0.393917 0.583334
O O16 0.768186 0.317181 0.713392
#
# Coordination Sequence:
#
# PCOD8325844 Si02
#       7
#    12  12  12  12  12  12  12
#     4  11  27  39  55  81 120 167 206 266 305 366
#     4  12  23  38  62  84 117 160 213 257 311 372
#     4  10  20  37  60  86 119 161 202 255 311 382
#     4  11  23  37  62  88 122 160 201 260 311 392
#     4  11  22  41  58  91 121 163 204 256 332 375
#     4  11  23  38  56  85 117 165 218 261 310 369
#     4  12  22  39  57  83 118 162 217 253 320 364
#
# _framework density 19.369295000000001
#
# number of rings (size 3 to 8) (size 9 to 14) (size 15 to 20)
#    0.000    0.857    4.286    3.857    4.000    1.714 
#    0.000    0.000    0.000    0.000    0.000    0.000 
#    0.000   16.000    0.000    0.000    0.000    0.000 
#
# Total GULP energy -1040883.887497 kJ/mol
# GULP energy per Si atom -12391.474851 kJ/mol
# Density = 1.932521 g / cm^3
# Si number density = 19.369295 Si / 1000 Ang^3
#
#
#
# Elastic Constant Matrix: (Units=GPa)
#
#
# Indices 1 2 3 4 5 6 
#
# 1 70.4628 30.0816 37.6561 0.0000 0.0000 0.0000
# 2 30.0816 70.4628 37.6561 0.0000 0.0000 0.0000
# 3 37.6561 37.6561 94.0243 0.0000 0.0000 0.0000
# 4 0.0000 0.0000 0.0000 10.9133 0.0000 0.0000
# 5 0.0000 0.0000 0.0000 0.0000 10.9133 0.0000
# 6 0.0000 0.0000 0.0000 0.0000 0.0000 20.1906
#
#
#
# Elastic Compliance Matrix: (Units=1/GPa)
#
#
# Indices 1 2 3 4 5 6 
#
# 1 0.019486 -0.005278 -0.005690 0.000000 0.000000 0.000000
# 2 -0.005278 0.019486 -0.005690 0.000000 0.000000 0.000000
# 3 -0.005690 -0.005690 0.015193 0.000000 0.000000 0.000000
# 4 0.000000 0.000000 0.000000 0.091632 0.000000 0.000000
# 5 0.000000 0.000000 0.000000 0.000000 0.091632 0.000000
# 6 0.000000 0.000000 0.000000 0.000000 0.000000 0.049528
#
#
# Mechanical properties :
#
#
# Convention : Reuss Voigt Hill
#
# Bulk Modulus (GPa) = 47.96490 49.52636 48.74563
# Shear Modulus (GPa) = 15.28009 17.04049 16.16029
#
# Velocity S-wave (km/s) = 2.81175 2.96931 2.89160
# Velocity P-wave (km/s) = 5.94629 6.11398 6.03072
#
# Compressibility (1/GPa) = 0.02084858
#
# Stress axis : x y z
#
# Youngs Moduli (GPa) = 51.31873 51.31873 65.81829
#
# Poissons Ratio (x) = 0.27086 0.37452
# Poissons Ratio (y) = 0.27086 0.37452
# Poissons Ratio (z) = 0.29202 0.29202
#
# Static dielectric constant tensor:
#      x y z
#    x 5.350980 0.000000 0.000000 
#    y 0.000000 5.350980 0.000000 
#    z 0.000000 0.000000 4.089440 
# 
# 
# High freq. dielectric constant tensor:
#      x y z
#    x 1.730580 0.000000 0.000000 
#    y 0.000000 1.730580 0.000000 
#    z 0.000000 0.000000 1.774630 
# 
# From -- ./inp_files/6021.got.cif
#   From: 2010.03.12/outbox.cif.g09.slc.cpg/sg178_4_cif.got.tgz:6021.got - 2010.04.02 07:02:38.
