data_PCOD8325458
_publ_section_title
;
Structure prediction by ZEFSAII (Michael W. Deem and Ramdas Pophale) SiO2 
 PCOD8325458
Probable space group: P 63/M
;
_chemical_formula_sum "Si O2"
_cell_formula_units_Z 72
_cell_length_a 22.283070
_cell_length_b 22.283070
_cell_length_c 8.872462
_cell_angle_alpha 90.000000
_cell_angle_beta 90.000000
_cell_angle_gamma 120.000000
_cell_volume 3815.266057
_symmetry_space_group_name_H-M "P 63/M"
_symmetry_group_IT_number 176
_symmetry_cell_setting 'hexagonal'
loop_
_space_group_symop_operation_xyz
x,y,z
x-y,x,1/2+z
-y,x-y,z
-x,-y,1/2+z
-x+y,-x,z
y,-x+y,1/2+z
-x,-y,-z
-x+y,-x,1/2-z
y,-x+y,-z
x,y,1/2-z
x-y,x,-z
-y,x-y,1/2-z
loop_
_atom_site_type_symbol
_atom_site_label
_atom_site_fract_x
_atom_site_fract_y
_atom_site_fract_z
Si Si1 0.916459 0.698120 0.572038
Si Si2 0.238983 0.793647 0.426490
Si Si3 0.950161 0.850522 0.929880
Si Si4 0.991748 0.633000 0.420627
Si Si5 0.136686 0.648354 0.421600
Si Si6 0.889594 0.495351 0.573292
O O1 0.922064 0.694063 0.750000
O O2 0.844646 0.632687 0.511128
O O3 0.923411 0.770883 0.523529
O O4 0.978519 0.689693 0.502715
O O5 0.222923 0.785407 0.250000
O O6 0.198491 0.717122 0.501152
O O7 0.319565 0.823389 0.460738
O O8 0.951390 0.859865 0.750000
O O9 0.898474 0.872028 0.004471
O O10 0.965429 0.625379 0.250000
O O11 0.955852 0.557692 0.495841
O O12 0.072575 0.661143 0.430509
O O13 0.156585 0.643034 0.250000
O O14 0.124017 0.577262 0.499312
O O15 0.906342 0.500020 0.750000
#
# Coordination Sequence:
#
# PCOD8325458 Si02
#       6
#    12  12  12  12  12  12
#     4   9  20  37  57  79 109 145 176 217 272 323
#     4   8  15  30  49  71 103 136 170 214 263 313
#     4  11  24  41  62  86 114 149 188 229 275 328
#     4  10  19  30  51  77 104 135 173 219 265 317
#     4   9  17  28  48  77 102 132 172 214 263 313
#     4   9  17  32  50  70 102 137 170 214 263 317
#
# _framework density 18.871552999999999
#
# number of rings (size 3 to 8) (size 9 to 14) (size 15 to 20)
#    0.000    2.667    0.000    2.667    2.333    1.333 
#    1.000    0.833    0.000    5.000    0.000    0.000 
#    0.000    0.000    0.000    0.000    0.000    0.000 
#
# Total GULP energy -892408.619763 kJ/mol
# GULP energy per Si atom -12394.564163 kJ/mol
# Density = 1.882860 g / cm^3
# Si number density = 18.871553 Si / 1000 Ang^3
#
#
#
# Elastic Constant Matrix: (Units=GPa)
#
#
# Indices 1 2 3 4 5 6 
#
# 1 100.5686 46.8883 24.0848 0.0000 0.0000 0.0000
# 2 46.8883 100.5686 24.0848 0.0000 0.0000 0.0000
# 3 24.0848 24.0848 35.9676 0.0000 0.0000 0.0000
# 4 0.0000 0.0000 0.0000 17.1805 0.0000 0.0000
# 5 0.0000 0.0000 0.0000 0.0000 17.1805 0.0000
# 6 0.0000 0.0000 0.0000 0.0000 0.0000 26.8402
#
#
#
# Elastic Compliance Matrix: (Units=1/GPa)
#
#
# Indices 1 2 3 4 5 6 
#
# 1 0.013655 -0.004974 -0.005813 0.000000 0.000000 0.000000
# 2 -0.004974 0.013655 -0.005813 0.000000 0.000000 0.000000
# 3 -0.005813 -0.005813 0.035587 0.000000 0.000000 0.000000
# 4 0.000000 0.000000 0.000000 0.058205 0.000000 0.000000
# 5 0.000000 0.000000 0.000000 0.000000 0.058205 0.000000
# 6 0.000000 0.000000 0.000000 0.000000 0.000000 0.037258
#
#
# Mechanical properties :
#
#
# Convention : Reuss Voigt Hill
#
# Bulk Modulus (GPa) = 33.67264 47.46897 40.57081
# Shear Modulus (GPa) = 19.25570 21.71004 20.48287
#
# Velocity S-wave (km/s) = 3.19777 3.39545 3.29809
# Velocity P-wave (km/s) = 5.61392 6.37028 6.00402
#
# Compressibility (1/GPa) = 0.02969770
#
# Stress axis : x y z
#
# Youngs Moduli (GPa) = 73.23527 73.23527 28.09983
#
# Poissons Ratio (x) = 0.36428 0.16333
# Poissons Ratio (y) = 0.36428 0.16333
# Poissons Ratio (z) = 0.42569 0.42569
#
# Static dielectric constant tensor:
#      x y z
#    x 3.684390 0.000000 0.000000 
#    y 0.000000 3.684390 0.000000 
#    z 0.000000 0.000000 3.227850 
# 
# 
# High freq. dielectric constant tensor:
#      x y z
#    x 1.740100 0.000000 0.000000 
#    y 0.000000 1.740100 0.000000 
#    z 0.000000 0.000000 1.697630 
# 
# From -- ./inp_files/1221.got.cif
#   From: 2010.06.25/outbox.cif.g09.slc.cpg/sg176_1_cif.got.tgz:1221.got - 2010.06.28 12:15:01.
