data_PCOD8325928
_publ_section_title
;
Structure prediction by ZEFSAII (Michael W. Deem and Ramdas Pophale) SiO2 
 PCOD8325928
Probable space group: P 61 2 2
;
_chemical_formula_sum "Si O2"
_cell_formula_units_Z 60
_cell_length_a 16.136289
_cell_length_b 16.136289
_cell_length_c 12.546309
_cell_angle_alpha 90.000000
_cell_angle_beta 90.000000
_cell_angle_gamma 120.000000
_cell_volume 2829.136737
_symmetry_space_group_name_H-M "P 61 2 2"
_symmetry_group_IT_number 178
_symmetry_cell_setting 'hexagonal'
loop_
_space_group_symop_operation_xyz
x,y,z
x-y,x,1/6+z
-y,x-y,1/3+z
-x,-y,1/2+z
-x+y,-x,2/3+z
y,-x+y,5/6+z
x-y,-y,-z
-x,-x+y,2/3-z
y,x,1/3-z
-y,-x,5/6-z
-x+y,y,1/2-z
x,x-y,1/6-z
loop_
_atom_site_type_symbol
_atom_site_label
_atom_site_fract_x
_atom_site_fract_y
_atom_site_fract_z
Si Si1 0.595601 0.595601 0.166667
Si Si2 0.947056 0.716870 0.199159
Si Si3 0.000000 0.866920 0.833334
Si Si4 0.246280 0.509249 0.082705
Si Si5 0.137345 0.295654 0.484719
Si Si6 0.175774 0.585673 0.252582
O O1 0.621651 0.684771 0.087468
O O2 0.573443 0.501466 0.101783
O O3 0.872589 0.745177 0.250000
O O4 0.057609 0.799216 0.213312
O O5 0.932557 0.701176 0.073168
O O6 0.079787 0.850865 0.779267
O O7 0.952230 0.904459 0.750000
O O8 0.208413 0.399143 0.066093
O O9 0.168693 0.509272 0.164904
O O10 0.352306 0.568507 0.136067
O O11 0.246996 0.557406 0.968561
#
# Coordination Sequence:
#
# PCOD8325928 Si02
#       6
#     6  12   6  12  12  12
#     4  12  24  47  73 112 140 184 254 296 369 449
#     4  12  23  44  72 103 144 187 238 304 363 431
#     4  12  28  45  69 102 140 184 238 288 357 439
#     4  10  23  47  67 102 142 187 232 297 363 423
#     4  12  25  45  71 100 144 188 238 297 366 435
#     4  10  23  45  72 101 144 185 236 297 354 437
#
# _framework density 21.207884
#
# number of rings (size 3 to 8) (size 9 to 14) (size 15 to 20)
#    0.000    0.800    6.000    0.000    2.800    3.200 
#   25.200    0.000    0.000    0.000    0.000    0.000 
#    0.000    0.000    0.000    0.000    0.000    0.000 
#
# Total GULP energy -743747.200257 kJ/mol
# GULP energy per Si atom -12395.786671 kJ/mol
# Density = 2.115961 g / cm^3
# Si number density = 21.207884 Si / 1000 Ang^3
#
#
#
# Elastic Constant Matrix: (Units=GPa)
#
#
# Indices 1 2 3 4 5 6 
#
# 1 119.5434 44.5335 53.8070 0.0000 0.0000 0.0000
# 2 44.5335 119.5434 53.8070 0.0000 0.0000 0.0000
# 3 53.8070 53.8070 110.4016 0.0000 0.0000 0.0000
# 4 0.0000 0.0000 0.0000 -3.0737 0.0000 0.0000
# 5 0.0000 0.0000 0.0000 0.0000 -3.0737 0.0000
# 6 0.0000 0.0000 0.0000 0.0000 0.0000 37.5049
#
#
#
# Elastic Compliance Matrix: (Units=1/GPa)
#
#
# Indices 1 2 3 4 5 6 
#
# 1 0.011145 -0.002187 -0.004366 0.000000 0.000000 0.000000
# 2 -0.002187 0.011145 -0.004366 0.000000 0.000000 0.000000
# 3 -0.004366 -0.004366 0.013314 0.000000 0.000000 0.000000
# 4 0.000000 0.000000 0.000000 -0.325337 0.000000 0.000000
# 5 0.000000 0.000000 0.000000 0.000000 -0.325337 0.000000
# 6 0.000000 0.000000 0.000000 0.000000 0.000000 0.026663
#
#
# Mechanical properties :
#
#
# Convention : Reuss Voigt Hill
#
# Bulk Modulus (GPa) = 72.64255 72.64257 72.64256
# Shear Modulus (GPa) = -8.89710 19.42755 5.26523
#
# Velocity S-wave (km/s) = -2.05044 3.02992 1.57736
# Velocity P-wave (km/s) = 5.35922 6.82404 6.13550
#
# Compressibility (1/GPa) = 0.01376604
#
# Stress axis : x y z
#
# Youngs Moduli (GPa) = 89.72688 89.72688 75.11098
#
# Poissons Ratio (x) = 0.19620 0.32794
# Poissons Ratio (y) = 0.19620 0.32794
# Poissons Ratio (z) = 0.39175 0.39175
#
# Static dielectric constant tensor:
#      x y z
#    x 3.833120 0.000000 0.000000 
#    y 0.000000 3.833120 0.000000 
#    z 0.000000 0.000000 4.137630 
# 
# 
# High freq. dielectric constant tensor:
#      x y z
#    x 1.825910 0.000000 0.000000 
#    y 0.000000 1.825910 0.000000 
#    z 0.000000 0.000000 1.851120 
# 
# From -- ./inp_files/4566.got.cif
#   From: 2010.03.12/outbox.cif.g09.slc.cpg/sg178_3_cif.got.tgz:4566.got - 2010.04.02 07:02:38.
