data_PCOD8325582
_publ_section_title
;
Structure prediction by ZEFSAII (Michael W. Deem and Ramdas Pophale) SiO2 
 PCOD8325582
Probable space group: P 63/M
;
_chemical_formula_sum "Si O2"
_cell_formula_units_Z 66
_cell_length_a 11.938161
_cell_length_b 11.938161
_cell_length_c 27.037599
_cell_angle_alpha 90.000000
_cell_angle_beta 90.000000
_cell_angle_gamma 120.000000
_cell_volume 3337.133783
_symmetry_space_group_name_H-M "P 63/M"
_symmetry_group_IT_number 176
_symmetry_cell_setting 'hexagonal'
loop_
_space_group_symop_operation_xyz
x,y,z
x-y,x,1/2+z
-y,x-y,z
-x,-y,1/2+z
-x+y,-x,z
y,-x+y,1/2+z
-x,-y,-z
-x+y,-x,1/2-z
y,-x+y,-z
x,y,1/2-z
x-y,x,-z
-y,x-y,1/2-z
loop_
_atom_site_type_symbol
_atom_site_label
_atom_site_fract_x
_atom_site_fract_y
_atom_site_fract_z
Si Si1 0.794448 0.300536 0.750000
Si Si2 0.587944 0.660917 0.916250
Si Si3 0.415943 0.090100 0.102866
Si Si4 0.719187 0.947473 0.326990
Si Si5 0.015714 0.261943 0.489376
Si Si6 0.738193 0.954454 0.694895
O O1 0.805009 0.443180 0.750000
O O2 0.866453 0.283591 0.797852
O O3 0.535704 0.760577 0.908271
O O4 0.472711 0.521117 0.904295
O O5 0.710807 0.692067 0.881811
O O6 0.623055 0.661340 0.973557
O O7 0.378074 0.063029 0.160273
O O8 0.297020 0.003108 0.066519
O O9 0.794848 0.867300 0.328945
O O10 0.821030 0.081117 0.300899
O O11 0.134907 0.239178 0.489312
O O12 0.718329 0.993938 0.750000
#
# Coordination Sequence:
#
# PCOD8325582 Si02
#       6
#     6  12  12  12  12  12
#     4  10  24  38  58  88 126 174 196 250 320 370
#     4  10  22  38  60  85 119 155 203 246 308 373
#     4  10  22  37  59  82 115 157 195 247 300 370
#     4  11  22  39  61  91 121 163 209 262 310 367
#     4  10  20  38  61  89 115 148 191 250 310 364
#     4  11  21  37  61  88 118 157 209 257 308 354
#
# _framework density 19.777450000000002
#
# number of rings (size 3 to 8) (size 9 to 14) (size 15 to 20)
#    0.182    1.455    1.818    2.545    2.545    0.000 
#    0.000    3.636    0.000    2.909    0.000    0.000 
#    0.000    0.000    0.000    0.000    0.000    0.000 
#
# Total GULP energy -818114.014874 kJ/mol
# GULP energy per Si atom -12395.666892 kJ/mol
# Density = 1.973244 g / cm^3
# Si number density = 19.777450 Si / 1000 Ang^3
#
#
#
# Elastic Constant Matrix: (Units=GPa)
#
#
# Indices 1 2 3 4 5 6 
#
# 1 109.9368 24.3062 22.6906 0.0000 0.0000 0.0000
# 2 24.3062 109.9368 22.6906 0.0000 0.0000 0.0000
# 3 22.6906 22.6906 62.3331 0.0000 0.0000 0.0000
# 4 0.0000 0.0000 0.0000 159.7438 0.0000 0.0000
# 5 0.0000 0.0000 0.0000 0.0000 159.7438 0.0000
# 6 0.0000 0.0000 0.0000 0.0000 0.0000 42.8153
#
#
#
# Elastic Compliance Matrix: (Units=1/GPa)
#
#
# Indices 1 2 3 4 5 6 
#
# 1 0.010086 -0.001592 -0.003092 0.000000 0.000000 0.000000
# 2 -0.001592 0.010086 -0.003092 0.000000 0.000000 0.000000
# 3 -0.003092 -0.003092 0.018294 0.000000 0.000000 0.000000
# 4 0.000000 0.000000 0.000000 0.006260 0.000000 0.000000
# 5 0.000000 0.000000 0.000000 0.000000 0.006260 0.000000
# 6 0.000000 0.000000 0.000000 0.000000 0.000000 0.023356
#
#
# Mechanical properties :
#
#
# Convention : Reuss Voigt Hill
#
# Bulk Modulus (GPa) = 43.64079 46.84241 45.24160
# Shear Modulus (GPa) = 51.26457 86.62854 68.94656
#
# Velocity S-wave (km/s) = 5.09676 6.62546 5.91074
# Velocity P-wave (km/s) = 7.53325 9.07002 8.33712
#
# Compressibility (1/GPa) = 0.02291434
#
# Stress axis : x y z
#
# Youngs Moduli (GPa) = 99.14456 99.14456 54.66248
#
# Poissons Ratio (x) = 0.15782 0.16903
# Poissons Ratio (y) = 0.15782 0.16903
# Poissons Ratio (z) = 0.30657 0.30657
#
# Static dielectric constant tensor:
#      x y z
#    x 3.499530 0.000000 0.000000 
#    y 0.000000 3.499530 0.000000 
#    z 0.000000 0.000000 3.690260 
# 
# 
# High freq. dielectric constant tensor:
#      x y z
#    x 1.767380 0.000000 0.000000 
#    y 0.000000 1.767380 0.000000 
#    z 0.000000 0.000000 1.780970 
# 
# From -- ./inp_files/4464.got.cif
#   From: 2010.06.25/outbox.cif.g09.slc.cpg/sg176_3_cif.got.tgz:4464.got - 2010.06.28 12:15:01.
