data_PCOD8325815
_publ_section_title
;
Structure prediction by ZEFSAII (Michael W. Deem and Ramdas Pophale) SiO2 
 PCOD8325815
Probable space group: P 61 2 2
;
_chemical_formula_sum "Si O2"
_cell_formula_units_Z 48
_cell_length_a 15.019269
_cell_length_b 15.019269
_cell_length_c 13.698206
_cell_angle_alpha 90.000000
_cell_angle_beta 90.000000
_cell_angle_gamma 120.000000
_cell_volume 2676.035782
_symmetry_space_group_name_H-M "P 61 2 2"
_symmetry_group_IT_number 178
_symmetry_cell_setting 'hexagonal'
loop_
_space_group_symop_operation_xyz
x,y,z
x-y,x,1/6+z
-y,x-y,1/3+z
-x,-y,1/2+z
-x+y,-x,2/3+z
y,-x+y,5/6+z
x-y,-y,-z
-x,-x+y,2/3-z
y,x,1/3-z
-y,-x,5/6-z
-x+y,y,1/2-z
x,x-y,1/6-z
loop_
_atom_site_type_symbol
_atom_site_label
_atom_site_fract_x
_atom_site_fract_y
_atom_site_fract_z
Si Si1 0.609782 0.728720 0.155952
Si Si2 0.403129 0.529356 0.088795
Si Si3 0.522138 0.905305 0.632968
Si Si4 0.482809 0.194925 0.314599
O O1 0.693464 0.693464 0.166667
O O2 0.651336 0.825668 0.083334
O O3 0.502637 0.637553 0.113378
O O4 0.597742 0.764488 0.264016
O O5 0.347409 0.463937 0.187160
O O6 0.437646 0.463951 0.020931
O O7 0.318251 0.543743 0.031808
O O8 0.574782 0.866777 0.713945
O O9 0.401696 0.836899 0.654264
#
# Coordination Sequence:
#
# PCOD8325815 Si02
#       4
#    12  12  12  12
#     4  11  24  40  54  84 120 153 204 247 298 361
#     4  10  19  37  55  79 120 161 190 257 285 354
#     4   9  19  35  51  81 118 142 210 240 289 359
#     4  10  20  32  56  74 108 161 195 240 299 344
#
# _framework density 17.936979999999998
#
# number of rings (size 3 to 8) (size 9 to 14) (size 15 to 20)
#    0.000    2.000    5.000    0.750    7.000    1.000 
#    0.000    0.000    0.000    0.000    0.000    0.000 
#    7.500    0.000    0.000    0.000    0.000    0.000 
#
# Total GULP energy -594715.834613 kJ/mol
# GULP energy per Si atom -12389.913221 kJ/mol
# Density = 1.789615 g / cm^3
# Si number density = 17.936980 Si / 1000 Ang^3
#
#
#
# Elastic Constant Matrix: (Units=GPa)
#
#
# Indices 1 2 3 4 5 6 
#
# 1 92.5717 44.7555 45.3397 0.0000 0.0000 0.0000
# 2 44.7555 92.5717 45.3397 0.0000 0.0000 0.0000
# 3 45.3397 45.3397 94.9383 0.0000 0.0000 0.0000
# 4 0.0000 0.0000 0.0000 28.5600 0.0000 0.0000
# 5 0.0000 0.0000 0.0000 0.0000 28.5600 0.0000
# 6 0.0000 0.0000 0.0000 0.0000 0.0000 23.9081
#
#
#
# Elastic Compliance Matrix: (Units=1/GPa)
#
#
# Indices 1 2 3 4 5 6 
#
# 1 0.015775 -0.005139 -0.005079 0.000000 0.000000 0.000000
# 2 -0.005139 0.015775 -0.005079 0.000000 0.000000 0.000000
# 3 -0.005079 -0.005079 0.015385 0.000000 0.000000 0.000000
# 4 0.000000 0.000000 0.000000 0.035014 0.000000 0.000000
# 5 0.000000 0.000000 0.000000 0.000000 0.035014 0.000000
# 6 0.000000 0.000000 0.000000 0.000000 0.000000 0.041827
#
#
# Mechanical properties :
#
#
# Convention : Reuss Voigt Hill
#
# Bulk Modulus (GPa) = 61.20355 61.21682 61.21018
# Shear Modulus (GPa) = 25.66338 25.84874 25.75606
#
# Velocity S-wave (km/s) = 3.78663 3.80028 3.79346
# Velocity P-wave (km/s) = 7.30162 7.31157 7.30660
#
# Compressibility (1/GPa) = 0.01633892
#
# Stress axis : x y z
#
# Youngs Moduli (GPa) = 63.39286 63.39286 64.99979
#
# Poissons Ratio (x) = 0.32576 0.33016
# Poissons Ratio (y) = 0.32576 0.33016
# Poissons Ratio (z) = 0.32200 0.32200
#
# Static dielectric constant tensor:
#      x y z
#    x 3.067190 0.000000 0.000000 
#    y 0.000000 3.067190 0.000000 
#    z 0.000000 0.000000 4.655160 
# 
# 
# High freq. dielectric constant tensor:
#      x y z
#    x 1.653570 0.000000 0.000000 
#    y 0.000000 1.653570 0.000000 
#    z 0.000000 0.000000 1.726550 
# 
# From -- ./inp_files/5400.got.cif
#   From: 2010.03.12/outbox.cif.g09.slc.cpg/sg178_3_cif.got.tgz:5400.got - 2010.04.02 07:02:38.
