data_PCOD8325985
_publ_section_title
;
Structure prediction by ZEFSAII (Michael W. Deem and Ramdas Pophale) SiO2 
 PCOD8325985
Probable space group: P 61 2 2
;
_chemical_formula_sum "Si O2"
_cell_formula_units_Z 36
_cell_length_a 8.736852
_cell_length_b 8.736852
_cell_length_c 19.532333
_cell_angle_alpha 90.000000
_cell_angle_beta 90.000000
_cell_angle_gamma 120.000000
_cell_volume 1291.203544
_symmetry_space_group_name_H-M "P 61 2 2"
_symmetry_group_IT_number 178
_symmetry_cell_setting 'hexagonal'
loop_
_space_group_symop_operation_xyz
x,y,z
x-y,x,1/6+z
-y,x-y,1/3+z
-x,-y,1/2+z
-x+y,-x,2/3+z
y,-x+y,5/6+z
x-y,-y,-z
-x,-x+y,2/3-z
y,x,1/3-z
-y,-x,5/6-z
-x+y,y,1/2-z
x,x-y,1/6-z
loop_
_atom_site_type_symbol
_atom_site_label
_atom_site_fract_x
_atom_site_fract_y
_atom_site_fract_z
Si Si1 0.484833 0.484833 0.166667
Si Si2 0.833718 0.667436 0.250000
Si Si3 0.117377 0.683941 0.991434
Si Si4 0.654652 0.888169 0.808440
O O1 0.636998 0.538163 0.222652
O O2 0.446942 0.300670 0.131733
O O3 0.821251 0.785242 0.312640
O O4 0.040640 0.688168 0.067013
O O5 0.154319 0.522115 0.983923
O O6 0.947172 0.661841 0.951029
#
# Coordination Sequence:
#
# PCOD8325985 Si02
#       4
#     6   6  12  12
#     4  12  26  46  74 110 150 200 254 310 374 450
#     4  12  26  48  78 110 152 198 250 314 382 448
#     4  11  25  45  70 102 144 192 249 306 374 451
#     4  11  25  46  72 105 145 195 247 308 378 452
#
# _framework density 27.880962
#
# number of rings (size 3 to 8) (size 9 to 14) (size 15 to 20)
#    0.000    0.667    0.000    8.000    0.000   12.000 
#    0.000    0.000    0.000    0.000    0.000    0.000 
#    0.000    0.000    0.000    0.000    0.000    0.000 
#
# Total GULP energy -446272.927500 kJ/mol
# GULP energy per Si atom -12396.470208 kJ/mol
# Density = 2.781750 g / cm^3
# Si number density = 27.880962 Si / 1000 Ang^3
#
#
#
# Elastic Constant Matrix: (Units=GPa)
#
#
# Indices 1 2 3 4 5 6 
#
# 1 167.6304 68.8361 37.6400 0.0000 0.0000 0.0000
# 2 68.8361 167.6304 37.6400 0.0000 0.0000 0.0000
# 3 37.6400 37.6400 98.3204 0.0000 0.0000 0.0000
# 4 0.0000 0.0000 0.0000 47.2906 0.0000 0.0000
# 5 0.0000 0.0000 0.0000 0.0000 47.2906 0.0000
# 6 0.0000 0.0000 0.0000 0.0000 0.0000 49.3971
#
#
#
# Elastic Compliance Matrix: (Units=1/GPa)
#
#
# Indices 1 2 3 4 5 6 
#
# 1 0.007469 -0.002653 -0.001844 0.000000 0.000000 0.000000
# 2 -0.002653 0.007469 -0.001844 0.000000 0.000000 0.000000
# 3 -0.001844 -0.001844 0.011582 0.000000 0.000000 0.000000
# 4 0.000000 0.000000 0.000000 0.021146 0.000000 0.000000
# 5 0.000000 0.000000 0.000000 0.000000 0.021146 0.000000
# 6 0.000000 0.000000 0.000000 0.000000 0.000000 0.020244
#
#
# Mechanical properties :
#
#
# Convention : Reuss Voigt Hill
#
# Bulk Modulus (GPa) = 72.25676 80.20152 76.22914
# Shear Modulus (GPa) = 47.01450 48.09332 47.55391
#
# Velocity S-wave (km/s) = 4.11086 4.15776 4.13438
# Velocity P-wave (km/s) = 6.96453 7.20260 7.08456
#
# Compressibility (1/GPa) = 0.01383954
#
# Stress axis : x y z
#
# Youngs Moduli (GPa) = 133.88754 133.88754 86.33758
#
# Poissons Ratio (x) = 0.35522 0.15918
# Poissons Ratio (y) = 0.35522 0.15918
# Poissons Ratio (z) = 0.24684 0.24684
#
# Static dielectric constant tensor:
#      x y z
#    x 4.954850 0.000000 0.000000 
#    y 0.000000 4.954850 0.000000 
#    z 0.000000 0.000000 5.452410 
# 
# 
# High freq. dielectric constant tensor:
#      x y z
#    x 2.123660 0.000000 0.000000 
#    y 0.000000 2.123660 0.000000 
#    z 0.000000 0.000000 2.183980 
# 
# From -- ./inp_files/8569.got.cif
#   From: 2010.03.12/outbox.cif.g09.slc.cpg/sg178_5_cif.got.tgz:8569.got - 2010.04.02 07:02:38.
