data_PCOD8325619
_publ_section_title
;
Structure prediction by ZEFSAII (Michael W. Deem and Ramdas Pophale) SiO2 
 PCOD8325619
Probable space group: P 63/M
;
_chemical_formula_sum "Si O2"
_cell_formula_units_Z 52
_cell_length_a 15.626656
_cell_length_b 15.626656
_cell_length_c 13.317245
_cell_angle_alpha 90.000000
_cell_angle_beta 90.000000
_cell_angle_gamma 120.000000
_cell_volume 2816.288391
_symmetry_space_group_name_H-M "P 63/M"
_symmetry_group_IT_number 176
_symmetry_cell_setting 'hexagonal'
loop_
_space_group_symop_operation_xyz
x,y,z
x-y,x,1/2+z
-y,x-y,z
-x,-y,1/2+z
-x+y,-x,z
y,-x+y,1/2+z
-x,-y,-z
-x+y,-x,1/2-z
y,-x+y,-z
x,y,1/2-z
x-y,x,-z
-y,x-y,1/2-z
loop_
_atom_site_type_symbol
_atom_site_label
_atom_site_fract_x
_atom_site_fract_y
_atom_site_fract_z
Si Si1 0.000000 0.000000 0.383904
Si Si2 0.521012 0.648252 0.135522
Si Si3 0.710394 0.004998 0.001364
Si Si4 0.853063 0.314288 0.864145
Si Si5 0.116469 0.224750 0.639007
O O1 0.110084 0.076589 0.346977
O O2 0.000000 0.000000 0.500000
O O3 0.554133 0.644158 0.250000
O O4 0.422230 0.548360 0.107022
O O5 0.498648 0.737239 0.123795
O O6 0.602654 0.658314 0.057171
O O7 0.788606 0.077793 0.082220
O O8 0.628990 0.909684 0.059948
O O9 0.768622 0.976985 0.920858
O O10 0.887544 0.312362 0.750000
O O11 0.150486 0.270963 0.750000
#
# Coordination Sequence:
#
# PCOD8325619 Si02
#       5
#     4  12  12  12  12
#     4  12  22  41  55  82 119 169 208 233 289 328
#     4  10  21  38  61  87 113 146 191 243 293 348
#     4  12  21  39  56  86 120 150 196 235 299 348
#     4  10  21  38  61  87 113 146 191 243 293 348
#     4  12  24  37  58  85 122 163 201 243 285 349
#
# _framework density 18.464016999999998
#
# number of rings (size 3 to 8) (size 9 to 14) (size 15 to 20)
#    0.000    0.923    4.615    3.231    0.000    1.846 
#    0.000    0.000    0.000    0.000    0.000    0.000 
#    0.000    0.000    0.000    0.000    0.000    0.000 
#
# Total GULP energy -644946.649264 kJ/mol
# GULP energy per Si atom -12402.820178 kJ/mol
# Density = 1.842199 g / cm^3
# Si number density = 18.464017 Si / 1000 Ang^3
#
#
#
# Elastic Constant Matrix: (Units=GPa)
#
#
# Indices 1 2 3 4 5 6 
#
# 1 70.2602 5.0779 30.0629 0.0000 0.0000 0.0000
# 2 5.0779 70.2602 30.0629 0.0000 0.0000 0.0000
# 3 30.0629 30.0629 121.3954 0.0000 0.0000 0.0000
# 4 0.0000 0.0000 0.0000 17.4770 0.0000 0.0000
# 5 0.0000 0.0000 0.0000 0.0000 17.4770 0.0000
# 6 0.0000 0.0000 0.0000 0.0000 0.0000 32.5912
#
#
#
# Elastic Compliance Matrix: (Units=1/GPa)
#
#
# Indices 1 2 3 4 5 6 
#
# 1 0.015942 0.000601 -0.004097 0.000000 0.000000 0.000000
# 2 0.000601 0.015942 -0.004097 0.000000 0.000000 0.000000
# 3 -0.004097 -0.004097 0.010267 0.000000 0.000000 0.000000
# 4 0.000000 0.000000 0.000000 0.057218 0.000000 0.000000
# 5 0.000000 0.000000 0.000000 0.000000 0.057218 0.000000
# 6 0.000000 0.000000 0.000000 0.000000 0.000000 0.030683
#
#
# Mechanical properties :
#
#
# Convention : Reuss Voigt Hill
#
# Bulk Modulus (GPa) = 37.08434 43.59148 40.33791
# Shear Modulus (GPa) = 23.64686 26.62318 25.13502
#
# Velocity S-wave (km/s) = 3.58257 3.80135 3.69358
# Velocity P-wave (km/s) = 6.10257 6.55188 6.33121
#
# Compressibility (1/GPa) = 0.02696556
#
# Stress axis : x y z
#
# Youngs Moduli (GPa) = 62.72612 62.72612 97.40277
#
# Poissons Ratio (x) = -0.03768 0.39904
# Poissons Ratio (y) = -0.03768 0.39904
# Poissons Ratio (z) = 0.25698 0.25698
#
# Static dielectric constant tensor:
#      x y z
#    x 3.136520 0.000000 0.000000 
#    y 0.000000 3.136520 0.000000 
#    z 0.000000 0.000000 3.626960 
# 
# 
# High freq. dielectric constant tensor:
#      x y z
#    x 1.712660 0.000000 0.000000 
#    y 0.000000 1.712660 0.000000 
#    z 0.000000 0.000000 1.730360 
# 
# From -- ./inp_files/2544.got.cif
#   From: 2010.06.25/outbox.cif.g09.slc.cpg/sg176_2_cif.got.tgz:2544.got - 2010.06.28 12:15:01.
