data_PCOD8325421
_publ_section_title
;
Structure prediction by ZEFSAII (Michael W. Deem and Ramdas Pophale) SiO2 
 PCOD8325421
Probable space group: P 63/M
;
_chemical_formula_sum "Si O2"
_cell_formula_units_Z 84
_cell_length_a 20.601138
_cell_length_b 20.601138
_cell_length_c 13.857827
_cell_angle_alpha 90.000000
_cell_angle_beta 90.000000
_cell_angle_gamma 120.000000
_cell_volume 5093.404758
_symmetry_space_group_name_H-M "P 63/M"
_symmetry_group_IT_number 176
_symmetry_cell_setting 'hexagonal'
loop_
_space_group_symop_operation_xyz
x,y,z
x-y,x,1/2+z
-y,x-y,z
-x,-y,1/2+z
-x+y,-x,z
y,-x+y,1/2+z
-x,-y,-z
-x+y,-x,1/2-z
y,-x+y,-z
x,y,1/2-z
x-y,x,-z
-y,x-y,1/2-z
loop_
_atom_site_type_symbol
_atom_site_label
_atom_site_fract_x
_atom_site_fract_y
_atom_site_fract_z
Si Si1 0.057974 0.781818 0.861572
Si Si2 0.151209 0.135110 0.519472
Si Si3 0.905724 0.512068 0.859939
Si Si4 0.807960 0.586441 0.641738
Si Si5 0.315503 0.199401 0.465641
Si Si6 0.362338 0.354648 0.996057
Si Si7 0.357357 0.468925 0.140450
O O1 0.046319 0.761121 0.750000
O O2 0.146825 0.822599 0.886888
O O3 0.022385 0.835149 0.886015
O O4 0.016600 0.705210 0.920930
O O5 0.082208 0.132095 0.457639
O O6 0.228503 0.176802 0.460696
O O7 0.935922 0.528252 0.750000
O O8 0.839922 0.530788 0.875333
O O9 0.971984 0.563910 0.933649
O O10 0.875245 0.425647 0.887792
O O11 0.825339 0.620342 0.750000
O O12 0.843054 0.658125 0.570528
O O13 0.719699 0.531195 0.625567
O O14 0.366616 0.288395 0.444208
O O15 0.352090 0.404509 0.073072
O O16 0.366512 0.448761 0.250000
#
# Coordination Sequence:
#
# PCOD8325421 Si02
#       7
#    12  12  12  12  12  12  12
#     4  10  19  32  49  70  95 126 167 205 243 297
#     4   9  18  32  49  66  90 125 161 204 254 297
#     4   9  18  31  48  74 102 131 163 197 240 289
#     4   9  17  32  51  72 100 134 164 195 238 293
#     4   9  18  31  49  70  96 125 162 205 243 289
#     4  10  18  31  52  70  99 129 163 200 248 287
#     4  10  19  31  49  75 104 130 162 200 241 287
#
# _framework density 16.491916
#
# number of rings (size 3 to 8) (size 9 to 14) (size 15 to 20)
#    0.000    2.571    1.429    1.000    0.000    4.000 
#    0.857    2.857    0.000    0.000    0.000    0.000 
#    0.000    0.000    0.000    0.000    0.000    0.000 
#
# Total GULP energy -1040736.208198 kJ/mol
# GULP energy per Si atom -12389.716764 kJ/mol
# Density = 1.645438 g / cm^3
# Si number density = 16.491916 Si / 1000 Ang^3
#
#
#
# Elastic Constant Matrix: (Units=GPa)
#
#
# Indices 1 2 3 4 5 6 
#
# 1 82.0615 28.9322 37.7072 0.0000 0.0000 0.0000
# 2 28.9322 82.0615 37.7072 0.0000 0.0000 0.0000
# 3 37.7072 37.7072 68.3947 0.0000 0.0000 0.0000
# 4 0.0000 0.0000 0.0000 19.7852 0.0000 0.0000
# 5 0.0000 0.0000 0.0000 0.0000 19.7852 0.0000
# 6 0.0000 0.0000 0.0000 0.0000 0.0000 26.5647
#
#
#
# Elastic Compliance Matrix: (Units=1/GPa)
#
#
# Indices 1 2 3 4 5 6 
#
# 1 0.016614 -0.002208 -0.007942 0.000000 0.000000 0.000000
# 2 -0.002208 0.016614 -0.007942 0.000000 0.000000 0.000000
# 3 -0.007942 -0.007942 0.023378 0.000000 0.000000 0.000000
# 4 0.000000 0.000000 0.000000 0.050543 0.000000 0.000000
# 5 0.000000 0.000000 0.000000 0.000000 0.050543 0.000000
# 6 0.000000 0.000000 0.000000 0.000000 0.000000 0.037644
#
#
# Mechanical properties :
#
#
# Convention : Reuss Voigt Hill
#
# Bulk Modulus (GPa) = 48.96860 49.02345 48.99602
# Shear Modulus (GPa) = 20.97949 21.77174 21.37561
#
# Velocity S-wave (km/s) = 3.57053 3.63732 3.60408
# Velocity P-wave (km/s) = 6.83778 6.88698 6.86242
#
# Compressibility (1/GPa) = 0.02042125
#
# Stress axis : x y z
#
# Youngs Moduli (GPa) = 60.19052 60.19052 42.77457
#
# Poissons Ratio (x) = 0.13291 0.33972
# Poissons Ratio (y) = 0.13291 0.33972
# Poissons Ratio (z) = 0.47804 0.47804
#
# Static dielectric constant tensor:
#      x y z
#    x 3.238130 0.000000 0.000000 
#    y 0.000000 3.238130 0.000000 
#    z 0.000000 0.000000 2.973000 
# 
# 
# High freq. dielectric constant tensor:
#      x y z
#    x 1.634740 0.000000 0.000000 
#    y 0.000000 1.634740 0.000000 
#    z 0.000000 0.000000 1.610370 
# 
# From -- ./inp_files/2035.got.cif
#   From: 2010.06.25/outbox.cif.g09.slc.cpg/sg176_2_cif.got.tgz:2035.got - 2010.06.28 12:15:01.
