data_PCOD8325781
_publ_section_title
;
Structure prediction by ZEFSAII (Michael W. Deem and Ramdas Pophale) SiO2 
 PCOD8325781
Probable space group: P 61 2 2
;
_chemical_formula_sum "Si O2"
_cell_formula_units_Z 84
_cell_length_a 18.472701
_cell_length_b 18.472701
_cell_length_c 14.691884
_cell_angle_alpha 90.000000
_cell_angle_beta 90.000000
_cell_angle_gamma 120.000000
_cell_volume 4341.791099
_symmetry_space_group_name_H-M "P 61 2 2"
_symmetry_group_IT_number 178
_symmetry_cell_setting 'hexagonal'
loop_
_space_group_symop_operation_xyz
x,y,z
x-y,x,1/6+z
-y,x-y,1/3+z
-x,-y,1/2+z
-x+y,-x,2/3+z
y,-x+y,5/6+z
x-y,-y,-z
-x,-x+y,2/3-z
y,x,1/3-z
-y,-x,5/6-z
-x+y,y,1/2-z
x,x-y,1/6-z
loop_
_atom_site_type_symbol
_atom_site_label
_atom_site_fract_x
_atom_site_fract_y
_atom_site_fract_z
Si Si1 0.472127 0.573723 0.169034
Si Si2 0.204541 0.730114 0.198802
Si Si3 0.797693 0.277006 0.324595
Si Si4 0.161490 0.884416 0.645723
Si Si5 0.184281 0.902643 0.002852
Si Si6 0.296133 0.456846 0.812797
Si Si7 0.274264 0.069604 0.648997
O O1 0.525522 0.525522 0.166667
O O2 0.492229 0.637325 0.256096
O O3 0.374445 0.509693 0.163462
O O4 0.485680 0.618147 0.071529
O O5 0.242606 0.734059 0.096938
O O6 0.148695 0.773581 0.196546
O O7 0.286581 0.787206 0.261462
O O8 0.743462 0.256539 0.416667
O O9 0.853931 0.234644 0.324487
O O10 0.124352 0.877467 0.745276
O O11 0.081536 0.834662 0.582102
O O12 0.210629 0.979097 0.611824
O O13 0.124061 0.875940 0.916667
O O14 0.250148 0.000000 0.000000
O O15 0.219198 0.438395 0.750000
O O16 0.286859 0.365942 0.827715
O O17 0.273959 0.136980 0.583334
#
# Coordination Sequence:
#
# PCOD8325781 Si02
#       7
#    12  12  12  12  12  12  12
#     4  11  21  38  63  89 119 154 202 254 304 351
#     4   9  20  39  58  84 118 149 196 243 297 356
#     4  10  23  41  57  84 119 154 199 238 291 354
#     4  10  19  32  54  78 104 141 180 227 280 338
#     4  10  20  37  59  78 104 140 186 233 272 328
#     4   8  17  33  54  85 113 144 188 236 296 354
#     4  10  18  30  51  79 111 138 176 225 281 340
#
# _framework density 19.346854
#
# number of rings (size 3 to 8) (size 9 to 14) (size 15 to 20)
#    0.000    2.286    0.000    3.429    0.000    1.143 
#    7.714    5.714    0.000    8.571    0.000    0.000 
#    0.000    0.000    0.000    0.000    0.000    0.000 
#
# Total GULP energy -1040605.924498 kJ/mol
# GULP energy per Si atom -12388.165768 kJ/mol
# Density = 1.930282 g / cm^3
# Si number density = 19.346854 Si / 1000 Ang^3
#
#
#
# Elastic Constant Matrix: (Units=GPa)
#
#
# Indices 1 2 3 4 5 6 
#
# 1 61.6167 22.3387 29.8090 0.0000 0.0000 0.0000
# 2 22.3387 61.6167 29.8090 0.0000 0.0000 0.0000
# 3 29.8090 29.8090 141.5935 0.0000 0.0000 0.0000
# 4 0.0000 0.0000 0.0000 6.1486 0.0000 0.0000
# 5 0.0000 0.0000 0.0000 0.0000 6.1486 0.0000
# 6 0.0000 0.0000 0.0000 0.0000 0.0000 19.6390
#
#
#
# Elastic Compliance Matrix: (Units=1/GPa)
#
#
# Indices 1 2 3 4 5 6 
#
# 1 0.019732 -0.005727 -0.002948 0.000000 0.000000 0.000000
# 2 -0.005727 0.019732 -0.002948 0.000000 0.000000 0.000000
# 3 -0.002948 -0.002948 0.008304 0.000000 0.000000 0.000000
# 4 0.000000 0.000000 0.000000 0.162640 0.000000 0.000000
# 5 0.000000 0.000000 0.000000 0.000000 0.162640 0.000000
# 6 0.000000 0.000000 0.000000 0.000000 0.000000 0.050919
#
#
# Mechanical properties :
#
#
# Convention : Reuss Voigt Hill
#
# Bulk Modulus (GPa) = 40.78306 47.63778 44.21042
# Shear Modulus (GPa) = 10.97964 18.57859 14.77911
#
# Velocity S-wave (km/s) = 2.38484 3.10222 2.76688
# Velocity P-wave (km/s) = 5.35808 6.12439 5.75400
#
# Compressibility (1/GPa) = 0.02451998
#
# Stress axis : x y z
#
# Youngs Moduli (GPa) = 50.67877 50.67877 120.42572
#
# Poissons Ratio (x) = 0.29026 0.35506
# Poissons Ratio (y) = 0.29026 0.35506
# Poissons Ratio (z) = 0.14942 0.14942
#
# Static dielectric constant tensor:
#      x y z
#    x 3.378370 0.000000 0.000000 
#    y 0.000000 3.378370 0.000000 
#    z 0.000000 0.000000 4.820140 
# 
# 
# High freq. dielectric constant tensor:
#      x y z
#    x 1.739220 0.000000 0.000000 
#    y 0.000000 1.739220 0.000000 
#    z 0.000000 0.000000 1.768450 
# 
# From -- ./inp_files/6042.got.cif
#   From: 2010.03.12/outbox.cif.g09.slc.cpg/sg178_4_cif.got.tgz:6042.got - 2010.04.02 07:02:38.
