data_PCOD8325616
_publ_section_title
;
Structure prediction by ZEFSAII (Michael W. Deem and Ramdas Pophale) SiO2 
 PCOD8325616
Probable space group: P 63/M
;
_chemical_formula_sum "Si O2"
_cell_formula_units_Z 66
_cell_length_a 20.121485
_cell_length_b 20.121485
_cell_length_c 9.763942
_cell_angle_alpha 90.000000
_cell_angle_beta 90.000000
_cell_angle_gamma 120.000000
_cell_volume 3423.543742
_symmetry_space_group_name_H-M "P 63/M"
_symmetry_group_IT_number 176
_symmetry_cell_setting 'hexagonal'
loop_
_space_group_symop_operation_xyz
x,y,z
x-y,x,1/2+z
-y,x-y,z
-x,-y,1/2+z
-x+y,-x,z
y,-x+y,1/2+z
-x,-y,-z
-x+y,-x,1/2-z
y,-x+y,-z
x,y,1/2-z
x-y,x,-z
-y,x-y,1/2-z
loop_
_atom_site_type_symbol
_atom_site_label
_atom_site_fract_x
_atom_site_fract_y
_atom_site_fract_z
Si Si1 0.535890 0.830775 0.989536
Si Si2 0.457784 0.529512 0.402631
Si Si3 0.561431 0.701749 0.095825
Si Si4 0.421259 0.748402 0.750000
Si Si5 0.081587 0.789452 0.903040
Si Si6 0.940611 0.705685 0.409754
O O1 0.467702 0.792642 0.882130
O O2 0.616506 0.880496 0.913700
O O3 0.520020 0.886308 0.083454
O O4 0.536155 0.765320 0.082113
O O5 0.500000 0.500000 0.500000
O O6 0.479358 0.517980 0.250000
O O7 0.487373 0.618994 0.431184
O O8 0.593753 0.707388 0.250000
O O9 0.625301 0.712513 0.985844
O O10 0.339004 0.745329 0.750000
O O11 0.046506 0.778486 0.750000
O O12 0.145810 0.877816 0.926022
O O13 0.018092 0.770022 0.018880
O O14 0.955793 0.696699 0.250000
#
# Coordination Sequence:
#
# PCOD8325616 Si02
#       6
#    12  12  12   6  12  12
#     4  11  21  39  60  84 116 157 205 251 308 369
#     4  11  25  40  58  84 117 156 199 253 312 371
#     4  10  22  39  59  82 116 156 201 252 309 362
#     4  10  22  36  58  88 118 156 202 260 318 360
#     4  10  21  38  60  88 122 154 195 245 299 356
#     4  10  22  38  61  91 121 157 200 249 298 365
#
# _framework density 19.278269999999999
#
# number of rings (size 3 to 8) (size 9 to 14) (size 15 to 20)
#    0.182    1.455    0.909    3.273    2.545    8.000 
#    1.091    0.000    0.000    0.364    0.000    0.000 
#    0.000    0.000    0.000    0.000    0.000    0.000 
#
# Total GULP energy -818502.049682 kJ/mol
# GULP energy per Si atom -12401.546207 kJ/mol
# Density = 1.923439 g / cm^3
# Si number density = 19.278270 Si / 1000 Ang^3
#
#
#
# Elastic Constant Matrix: (Units=GPa)
#
#
# Indices 1 2 3 4 5 6 
#
# 1 90.5486 45.0983 52.0807 0.0000 0.0000 0.0000
# 2 45.0983 90.5486 52.0807 0.0000 0.0000 0.0000
# 3 52.0807 52.0807 144.4624 0.0000 0.0000 0.0000
# 4 0.0000 0.0000 0.0000 20.5837 0.0000 0.0000
# 5 0.0000 0.0000 0.0000 0.0000 20.5837 0.0000
# 6 0.0000 0.0000 0.0000 0.0000 0.0000 22.7252
#
#
#
# Elastic Compliance Matrix: (Units=1/GPa)
#
#
# Indices 1 2 3 4 5 6 
#
# 1 0.016098 -0.005904 -0.003675 0.000000 0.000000 0.000000
# 2 -0.005904 0.016098 -0.003675 0.000000 0.000000 0.000000
# 3 -0.003675 -0.003675 0.009572 0.000000 0.000000 0.000000
# 4 0.000000 0.000000 0.000000 0.048582 0.000000 0.000000
# 5 0.000000 0.000000 0.000000 0.000000 0.048582 0.000000
# 6 0.000000 0.000000 0.000000 0.000000 0.000000 0.044004
#
#
# Mechanical properties :
#
#
# Convention : Reuss Voigt Hill
#
# Bulk Modulus (GPa) = 65.53130 69.34211 67.43671
# Shear Modulus (GPa) = 23.30656 24.53183 23.91919
#
# Velocity S-wave (km/s) = 3.48077 3.57110 3.52623
# Velocity P-wave (km/s) = 7.08664 7.28360 7.18579
#
# Compressibility (1/GPa) = 0.01525988
#
# Stress axis : x y z
#
# Youngs Moduli (GPa) = 62.11906 62.11906 104.47033
#
# Poissons Ratio (x) = 0.36675 0.38394
# Poissons Ratio (y) = 0.36675 0.38394
# Poissons Ratio (z) = 0.22830 0.22830
#
# Static dielectric constant tensor:
#      x y z
#    x 3.504460 0.000000 0.000000 
#    y 0.000000 3.504460 0.000000 
#    z 0.000000 0.000000 3.785210 
# 
# 
# High freq. dielectric constant tensor:
#      x y z
#    x 1.743340 0.000000 0.000000 
#    y 0.000000 1.743340 0.000000 
#    z 0.000000 0.000000 1.764670 
# 
# From -- ./inp_files/968.got.cif
#   From: 2010.06.25/outbox.cif.g09.slc.cpg/sg176_1_cif.got.tgz:968.got - 2010.06.28 12:15:01.
