data_PCOD8325683
_publ_section_title
;
Structure prediction by ZEFSAII (Michael W. Deem and Ramdas Pophale) SiO2 
 PCOD8325683
Probable space group: P 63/M
;
_chemical_formula_sum "Si O2"
_cell_formula_units_Z 42
_cell_length_a 9.661920
_cell_length_b 9.661920
_cell_length_c 22.392222
_cell_angle_alpha 90.000000
_cell_angle_beta 90.000000
_cell_angle_gamma 120.000000
_cell_volume 1810.317282
_symmetry_space_group_name_H-M "P 63/M"
_symmetry_group_IT_number 176
_symmetry_cell_setting 'hexagonal'
loop_
_space_group_symop_operation_xyz
x,y,z
x-y,x,1/2+z
-y,x-y,z
-x,-y,1/2+z
-x+y,-x,z
y,-x+y,1/2+z
-x,-y,-z
-x+y,-x,1/2-z
y,-x+y,-z
x,y,1/2-z
x-y,x,-z
-y,x-y,1/2-z
loop_
_atom_site_type_symbol
_atom_site_label
_atom_site_fract_x
_atom_site_fract_y
_atom_site_fract_z
Si Si1 0.333334 0.666667 0.147492
Si Si2 0.332215 0.081566 0.517460
Si Si3 0.607913 0.613161 0.647872
Si Si4 0.333334 0.666667 0.005709
Si Si5 0.975147 0.813091 0.250000
Si Si6 0.333334 0.666668 0.821496
O O1 0.389059 0.544176 0.170515
O O2 0.333334 0.666667 0.076703
O O3 0.274260 0.211688 0.525158
O O4 0.507062 0.171783 0.485127
O O5 0.335921 0.012867 0.581676
O O6 0.714565 0.759527 0.690778
O O7 0.428293 0.582181 0.652133
O O8 0.831468 0.854036 0.250000
O O9 0.333334 0.666668 0.750000
#
# Coordination Sequence:
#
# PCOD8325683 Si02
#       6
#     4  12  12   4   6   4
#     4   9  24  43  71 100 142 187 229 298 355 422
#     4  11  25  42  70 103 141 186 234 290 353 424
#     4  11  26  46  72 106 146 185 243 294 364 426
#     4   9  21  46  65  97 138 188 239 279 343 419
#     4  10  26  40  70 102 146 182 234 296 358 426
#     4  12  27  49  74 103 136 185 244 304 365 430
#
# _framework density 23.200354999999998
#
# number of rings (size 3 to 8) (size 9 to 14) (size 15 to 20)
#    0.286    1.143    1.429    1.143    8.000    8.000 
#    0.000    0.000    0.000    0.000    0.000    0.000 
#    0.000    0.000    0.000    0.000    0.000    0.000 
#
# Total GULP energy -520831.371324 kJ/mol
# GULP energy per Si atom -12400.746936 kJ/mol
# Density = 2.314755 g / cm^3
# Si number density = 23.200355 Si / 1000 Ang^3
#
#
#
# Elastic Constant Matrix: (Units=GPa)
#
#
# Indices 1 2 3 4 5 6 
#
# 1 135.7121 48.2654 38.6957 0.0000 0.0000 0.0006
# 2 48.2654 135.7140 38.6955 0.0000 0.0000 0.0002
# 3 38.6957 38.6955 84.4530 0.0000 0.0000 0.0002
# 4 0.0000 0.0000 0.0000 30.1558 0.0000 0.0000
# 5 0.0000 0.0000 0.0000 0.0000 30.1554 0.0000
# 6 0.0006 0.0002 0.0002 0.0000 0.0000 43.7230
#
#
#
# Elastic Compliance Matrix: (Units=1/GPa)
#
#
# Indices 1 2 3 4 5 6 
#
# 1 0.009084 -0.002351 -0.003085 0.000000 0.000000 0.000000
# 2 -0.002351 0.009084 -0.003085 0.000000 0.000000 0.000000
# 3 -0.003085 -0.003085 0.014668 0.000000 0.000000 0.000000
# 4 0.000000 0.000000 0.000000 0.033161 0.000000 0.000000
# 5 0.000000 0.000000 0.000000 0.000000 0.033162 0.000000
# 6 0.000000 0.000000 0.000000 0.000000 0.000000 0.022871
#
#
# Mechanical properties :
#
#
# Convention : Reuss Voigt Hill
#
# Bulk Modulus (GPa) = 63.31502 67.46582 65.39042
# Shear Modulus (GPa) = 34.64099 36.15502 35.39801
#
# Velocity S-wave (km/s) = 3.86829 3.95192 3.91033
# Velocity P-wave (km/s) = 6.87760 7.06869 6.97379
#
# Compressibility (1/GPa) = 0.01579404
#
# Stress axis : x y z
#
# Youngs Moduli (GPa) = 110.07914 110.08109 68.17557
#
# Poissons Ratio (x) = 0.25881 0.21033
# Poissons Ratio (y) = 0.25881 0.21032
# Poissons Ratio (z) = 0.33961 0.33960
#
# Static dielectric constant tensor:
#      x y z
#    x 4.468880 0.000000 0.000000 
#    y 0.000000 4.468870 0.000000 
#    z 0.000000 0.000000 3.921820 
# 
# 
# High freq. dielectric constant tensor:
#      x y z
#    x 1.929210 0.000000 0.000000 
#    y 0.000000 1.929210 0.000000 
#    z 0.000000 0.000000 1.902010 
# 
# From -- ./inp_files/4433.got.cif
#   From: 2010.06.25/outbox.cif.g09.slc.cpg/sg176_3_cif.got.tgz:4433.got - 2010.06.28 12:15:01.
