data_PCOD8325936
_publ_section_title
;
Structure prediction by ZEFSAII (Michael W. Deem and Ramdas Pophale) SiO2 
 PCOD8325936
Probable space group: P 61 2 2
;
_chemical_formula_sum "Si O2"
_cell_formula_units_Z 42
_cell_length_a 15.379908
_cell_length_b 15.379908
_cell_length_c 9.939007
_cell_angle_alpha 90.000000
_cell_angle_beta 90.000000
_cell_angle_gamma 120.000000
_cell_volume 2036.015610
_symmetry_space_group_name_H-M "P 61 2 2"
_symmetry_group_IT_number 178
_symmetry_cell_setting 'hexagonal'
loop_
_space_group_symop_operation_xyz
x,y,z
x-y,x,1/6+z
-y,x-y,1/3+z
-x,-y,1/2+z
-x+y,-x,2/3+z
y,-x+y,5/6+z
x-y,-y,-z
-x,-x+y,2/3-z
y,x,1/3-z
-y,-x,5/6-z
-x+y,y,1/2-z
x,x-y,1/6-z
loop_
_atom_site_type_symbol
_atom_site_label
_atom_site_fract_x
_atom_site_fract_y
_atom_site_fract_z
Si Si1 0.824411 0.824411 0.166667
Si Si2 0.116846 0.723733 0.824657
Si Si3 0.618198 0.834942 0.928937
Si Si4 0.086643 0.560380 0.232657
O O1 0.792312 0.727220 0.069974
O O2 0.924279 0.848557 0.250000
O O3 0.140079 0.746285 0.667303
O O4 0.142816 0.639441 0.876143
O O5 0.000000 0.685182 0.833334
O O6 0.177711 0.822290 0.916667
O O7 0.520623 0.841767 0.890372
O O8 0.612757 0.806379 0.083334
O O9 0.000000 0.545247 0.333334
O O10 0.043401 0.521701 0.083334
#
# Coordination Sequence:
#
# PCOD8325936 Si02
#       4
#     6  12  12  12
#     4  10  24  44  70 100 142 188 246 290 350 416
#     4  11  26  45  70 103 141 187 236 296 359 429
#     4  11  25  45  70 101 139 188 236 295 357 426
#     4  11  24  43  69  97 137 178 235 284 360 427
#
# _framework density 20.628525
#
# number of rings (size 3 to 8) (size 9 to 14) (size 15 to 20)
#    0.000    1.143    4.286    0.000   16.000    0.000 
#    7.714    0.000    0.000    0.000    0.000    0.000 
#    0.000    0.000    0.000    0.000    0.000    0.000 
#
# Total GULP energy -520643.264345 kJ/mol
# GULP energy per Si atom -12396.268199 kJ/mol
# Density = 2.058157 g / cm^3
# Si number density = 20.628525 Si / 1000 Ang^3
#
#
#
# Elastic Constant Matrix: (Units=GPa)
#
#
# Indices 1 2 3 4 5 6 
#
# 1 136.0942 69.1924 57.4638 0.0000 0.0000 0.0000
# 2 69.1924 136.0942 57.4638 0.0000 0.0000 0.0000
# 3 57.4638 57.4638 173.3361 0.0000 0.0000 0.0000
# 4 0.0000 0.0000 0.0000 38.6432 0.0000 0.0000
# 5 0.0000 0.0000 0.0000 0.0000 38.6432 0.0000
# 6 0.0000 0.0000 0.0000 0.0000 0.0000 33.4509
#
#
#
# Elastic Compliance Matrix: (Units=1/GPa)
#
#
# Indices 1 2 3 4 5 6 
#
# 1 0.010464 -0.004483 -0.001983 0.000000 0.000000 0.000000
# 2 -0.004483 0.010464 -0.001983 0.000000 0.000000 0.000000
# 3 -0.001983 -0.001983 0.007084 0.000000 0.000000 0.000000
# 4 0.000000 0.000000 0.000000 0.025878 0.000000 0.000000
# 5 0.000000 0.000000 0.000000 0.000000 0.025878 0.000000
# 6 0.000000 0.000000 0.000000 0.000000 0.000000 0.029895
#
#
# Mechanical properties :
#
#
# Convention : Reuss Voigt Hill
#
# Bulk Modulus (GPa) = 89.96919 90.41828 90.19373
# Shear Modulus (GPa) = 38.38324 39.57443 38.97884
#
# Velocity S-wave (km/s) = 4.31825 4.38474 4.35162
# Velocity P-wave (km/s) = 8.28080 8.34035 8.31063
#
# Compressibility (1/GPa) = 0.01111492
#
# Stress axis : x y z
#
# Youngs Moduli (GPa) = 95.56284 95.56284 141.16551
#
# Poissons Ratio (x) = 0.42840 0.27992
# Poissons Ratio (y) = 0.42840 0.27992
# Poissons Ratio (z) = 0.18949 0.18949
#
# Static dielectric constant tensor:
#      x y z
#    x 3.886850 0.000000 0.000000 
#    y 0.000000 3.886850 0.000000 
#    z 0.000000 0.000000 3.824110 
# 
# 
# High freq. dielectric constant tensor:
#      x y z
#    x 1.806700 0.000000 0.000000 
#    y 0.000000 1.806700 0.000000 
#    z 0.000000 0.000000 1.820010 
# 
# From -- ./inp_files/4002.got.cif
#   From: 2010.03.12/outbox.cif.g09.slc.cpg/sg178_3_cif.got.tgz:4002.got - 2010.04.02 07:02:38.
