data_PCOD8325722
_publ_section_title
;
Structure prediction by ZEFSAII (Michael W. Deem and Ramdas Pophale) SiO2 
 PCOD8325722
Probable space group: P 63/M
;
_chemical_formula_sum "Si O2"
_cell_formula_units_Z 64
_cell_length_a 13.965816
_cell_length_b 13.965816
_cell_length_c 17.444250
_cell_angle_alpha 90.000000
_cell_angle_beta 90.000000
_cell_angle_gamma 120.000000
_cell_volume 2946.561877
_symmetry_space_group_name_H-M "P 63/M"
_symmetry_group_IT_number 176
_symmetry_cell_setting 'hexagonal'
loop_
_space_group_symop_operation_xyz
x,y,z
x-y,x,1/2+z
-y,x-y,z
-x,-y,1/2+z
-x+y,-x,z
y,-x+y,1/2+z
-x,-y,-z
-x+y,-x,1/2-z
y,-x+y,-z
x,y,1/2-z
x-y,x,-z
-y,x-y,1/2-z
loop_
_atom_site_type_symbol
_atom_site_label
_atom_site_fract_x
_atom_site_fract_y
_atom_site_fract_z
Si Si1 0.552494 0.116184 0.163397
Si Si2 0.000000 0.000000 0.091503
Si Si3 0.584921 0.781364 0.890622
Si Si4 0.200995 0.214038 0.161487
Si Si5 0.804184 0.216403 0.937941
Si Si6 0.466175 0.549149 0.071788
O O1 0.593637 0.148129 0.250000
O O2 0.451719 0.137005 0.145725
O O3 0.659372 0.184836 0.108587
O O4 0.506215 0.986630 0.148843
O O5 0.899780 0.013341 0.122555
O O6 0.000000 0.000000 0.000000
O O7 0.679602 0.777198 0.841338
O O8 0.632918 0.823265 0.975232
O O9 0.170044 0.217057 0.250000
O O10 0.200195 0.314612 0.117699
O O11 0.678658 0.133135 0.916449
O O12 0.822709 0.339506 0.934790
O O13 0.500000 0.500000 0.000000
#
# Coordination Sequence:
#
# PCOD8325722 Si02
#       6
#    12   4  12  12  12  12
#     4  12  25  43  70 106 144 184 237 301 369 425
#     4  12  28  50  73  99 133 188 241 291 364 437
#     4  12  24  44  73 106 145 187 238 296 364 435
#     4  12  27  47  71 105 145 187 242 306 362 429
#     4  12  24  44  73 102 144 189 239 293 358 441
#     4  12  24  44  68 105 142 189 237 292 356 438
#
# _framework density 21.720227999999999
#
# number of rings (size 3 to 8) (size 9 to 14) (size 15 to 20)
#    0.000    0.000    5.625    4.125    2.625    0.750 
#    0.000    0.000    0.000    2.250    0.000    0.000 
#    0.000    0.000    0.000    0.000    0.000    0.000 
#
# Total GULP energy -793783.416896 kJ/mol
# GULP energy per Si atom -12402.865889 kJ/mol
# Density = 2.167079 g / cm^3
# Si number density = 21.720228 Si / 1000 Ang^3
#
#
#
# Elastic Constant Matrix: (Units=GPa)
#
#
# Indices 1 2 3 4 5 6 
#
# 1 115.2657 28.8883 37.0737 0.0000 0.0000 0.0000
# 2 28.8883 115.2657 37.0737 0.0000 0.0000 0.0000
# 3 37.0737 37.0737 147.3287 0.0000 0.0000 0.0000
# 4 0.0000 0.0000 0.0000 24.2282 0.0000 0.0000
# 5 0.0000 0.0000 0.0000 0.0000 24.2282 0.0000
# 6 0.0000 0.0000 0.0000 0.0000 0.0000 43.1887
#
#
#
# Elastic Compliance Matrix: (Units=1/GPa)
#
#
# Indices 1 2 3 4 5 6 
#
# 1 0.009773 -0.001804 -0.002005 0.000000 0.000000 0.000000
# 2 -0.001804 0.009773 -0.002005 0.000000 0.000000 0.000000
# 3 -0.002005 -0.002005 0.007797 0.000000 0.000000 0.000000
# 4 0.000000 0.000000 0.000000 0.041274 0.000000 0.000000
# 5 0.000000 0.000000 0.000000 0.000000 0.041274 0.000000
# 6 0.000000 0.000000 0.000000 0.000000 0.000000 0.023154
#
#
# Mechanical properties :
#
#
# Convention : Reuss Voigt Hill
#
# Bulk Modulus (GPa) = 63.64215 64.88127 64.26171
# Shear Modulus (GPa) = 33.35298 36.65067 35.00182
#
# Velocity S-wave (km/s) = 3.92289 4.11225 4.01869
# Velocity P-wave (km/s) = 7.06281 7.24456 7.15426
#
# Compressibility (1/GPa) = 0.01571286
#
# Stress axis : x y z
#
# Youngs Moduli (GPa) = 102.32532 102.32532 128.25941
#
# Poissons Ratio (x) = 0.18463 0.25718
# Poissons Ratio (y) = 0.18463 0.25718
# Poissons Ratio (z) = 0.20518 0.20518
#
# Static dielectric constant tensor:
#      x y z
#    x 4.087940 0.000000 0.000000 
#    y 0.000000 4.087940 0.000000 
#    z 0.000000 0.000000 3.986450 
# 
# 
# High freq. dielectric constant tensor:
#      x y z
#    x 1.862920 0.000000 0.000000 
#    y 0.000000 1.862920 0.000000 
#    z 0.000000 0.000000 1.852910 
# 
# From -- ./inp_files/3334.got.cif
#   From: 2010.06.25/outbox.cif.g09.slc.cpg/sg176_2_cif.got.tgz:3334.got - 2010.06.28 12:15:01.
