data_PCOD8325885
_publ_section_title
;
Structure prediction by ZEFSAII (Michael W. Deem and Ramdas Pophale) SiO2 
 PCOD8325885
Probable space group: P 61 2 2
;
_chemical_formula_sum "Si O2"
_cell_formula_units_Z 36
_cell_length_a 9.266132
_cell_length_b 9.266132
_cell_length_c 22.383015
_cell_angle_alpha 90.000000
_cell_angle_beta 90.000000
_cell_angle_gamma 120.000000
_cell_volume 1664.355834
_symmetry_space_group_name_H-M "P 61 2 2"
_symmetry_group_IT_number 178
_symmetry_cell_setting 'hexagonal'
loop_
_space_group_symop_operation_xyz
x,y,z
x-y,x,1/6+z
-y,x-y,1/3+z
-x,-y,1/2+z
-x+y,-x,2/3+z
y,-x+y,5/6+z
x-y,-y,-z
-x,-x+y,2/3-z
y,x,1/3-z
-y,-x,5/6-z
-x+y,y,1/2-z
x,x-y,1/6-z
loop_
_atom_site_type_symbol
_atom_site_label
_atom_site_fract_x
_atom_site_fract_y
_atom_site_fract_z
Si Si1 0.651391 0.466132 0.192646
Si Si2 0.651684 0.768608 0.462669
Si Si3 0.843643 0.421822 0.083334
Si Si4 0.109206 0.218412 0.250000
O O1 0.586492 0.586492 0.166667
O O2 0.775646 0.551292 0.250000
O O3 0.501950 0.296921 0.221126
O O4 0.733965 0.417121 0.139146
O O5 0.650149 0.611601 0.434573
O O6 0.657318 0.762272 0.534143
O O7 0.824368 0.923923 0.440379
#
# Coordination Sequence:
#
# PCOD8325885 Si02
#       4
#    12  12   6   6
#     4  12  27  47  76 105 150 197 250 310 374 443
#     4  11  23  44  71 106 138 191 237 300 367 438
#     4  12  29  44  74 109 152 188 254 305 380 440
#     4  10  21  42  74  95 140 180 240 285 368 442
#
# _framework density 21.629989999999999
#
# number of rings (size 3 to 8) (size 9 to 14) (size 15 to 20)
#    0.000    0.667    5.000    3.000    4.667    0.000 
#    9.000    0.000    0.000    0.000    0.000    0.000 
#    0.000    0.000    0.000    0.000    0.000    0.000 
#
# Total GULP energy -446336.057510 kJ/mol
# GULP energy per Si atom -12398.223820 kJ/mol
# Density = 2.158076 g / cm^3
# Si number density = 21.629990 Si / 1000 Ang^3
#
#
#
# Elastic Constant Matrix: (Units=GPa)
#
#
# Indices 1 2 3 4 5 6 
#
# 1 115.9839 54.0173 46.7102 0.0000 0.0000 0.0000
# 2 54.0173 115.9839 46.7102 0.0000 0.0000 0.0000
# 3 46.7102 46.7102 137.1922 0.0000 0.0000 0.0000
# 4 0.0000 0.0000 0.0000 31.0401 0.0000 0.0000
# 5 0.0000 0.0000 0.0000 0.0000 31.0401 0.0000
# 6 0.0000 0.0000 0.0000 0.0000 0.0000 30.9833
#
#
#
# Elastic Compliance Matrix: (Units=1/GPa)
#
#
# Indices 1 2 3 4 5 6 
#
# 1 0.011687 -0.004451 -0.002464 0.000000 0.000000 0.000000
# 2 -0.004451 0.011687 -0.002464 0.000000 0.000000 0.000000
# 3 -0.002464 -0.002464 0.008967 0.000000 0.000000 0.000000
# 4 0.000000 0.000000 0.000000 0.032216 0.000000 0.000000
# 5 0.000000 0.000000 0.000000 0.000000 0.032216 0.000000
# 6 0.000000 0.000000 0.000000 0.000000 0.000000 0.032275
#
#
# Mechanical properties :
#
#
# Convention : Reuss Voigt Hill
#
# Bulk Modulus (GPa) = 73.61497 73.78171 73.69834
# Shear Modulus (GPa) = 32.82274 33.39418 33.10846
#
# Velocity S-wave (km/s) = 3.89969 3.93349 3.91663
# Velocity P-wave (km/s) = 7.37458 7.40369 7.38915
#
# Compressibility (1/GPa) = 0.01358419
#
# Stress axis : x y z
#
# Youngs Moduli (GPa) = 85.56542 85.56542 111.52368
#
# Poissons Ratio (x) = 0.38083 0.27476
# Poissons Ratio (y) = 0.38083 0.27476
# Poissons Ratio (z) = 0.21081 0.21081
#
# Static dielectric constant tensor:
#      x y z
#    x 3.849480 0.000000 0.000000 
#    y 0.000000 3.849480 0.000000 
#    z 0.000000 0.000000 12.671510 
# 
# 
# High freq. dielectric constant tensor:
#      x y z
#    x 1.845340 0.000000 0.000000 
#    y 0.000000 1.845340 0.000000 
#    z 0.000000 0.000000 1.871410 
# 
# From -- ./inp_files/8592.got.cif
#   From: 2010.03.12/outbox.cif.g09.slc.cpg/sg178_5_cif.got.tgz:8592.got - 2010.04.02 07:02:38.
