data_PCOD8325825
_publ_section_title
;
Structure prediction by ZEFSAII (Michael W. Deem and Ramdas Pophale) SiO2 
 PCOD8325825
Probable space group: P 61 2 2
;
_chemical_formula_sum "Si O2"
_cell_formula_units_Z 66
_cell_length_a 30.494650
_cell_length_b 30.494650
_cell_length_c 5.111349
_cell_angle_alpha 90.000000
_cell_angle_beta 90.000000
_cell_angle_gamma 120.000000
_cell_volume 4116.361175
_symmetry_space_group_name_H-M "P 61 2 2"
_symmetry_group_IT_number 178
_symmetry_cell_setting 'hexagonal'
loop_
_space_group_symop_operation_xyz
x,y,z
x-y,x,1/6+z
-y,x-y,1/3+z
-x,-y,1/2+z
-x+y,-x,2/3+z
y,-x+y,5/6+z
x-y,-y,-z
-x,-x+y,2/3-z
y,x,1/3-z
-y,-x,5/6-z
-x+y,y,1/2-z
x,x-y,1/6-z
loop_
_atom_site_type_symbol
_atom_site_label
_atom_site_fract_x
_atom_site_fract_y
_atom_site_fract_z
Si Si1 0.120929 0.298059 0.507872
Si Si2 0.653286 0.059399 0.993648
Si Si3 0.556251 0.495790 0.164723
Si Si4 0.059919 0.352337 0.332624
Si Si5 0.810985 0.966459 0.258856
Si Si6 0.056425 0.943576 0.416667
O O1 0.144359 0.288718 0.250000
O O2 0.095403 0.330048 0.413651
O O3 0.077994 0.245287 0.624052
O O4 0.161546 0.323092 0.750000
O O5 0.616968 0.083561 0.021221
O O6 0.696197 0.076566 0.218496
O O7 0.677587 0.073792 0.708741
O O8 0.617937 0.000000 0.000000
O O9 0.527636 0.527636 0.166667
O O10 0.540443 0.459558 0.416667
O O11 0.540664 0.459337 0.916667
O O12 0.000000 0.309365 0.333334
O O13 0.849183 0.944293 0.306733
O O14 0.811698 0.000000 0.500000
O O15 0.829194 0.000000 0.000000
O O16 0.000000 0.924458 0.333334
#
# Coordination Sequence:
#
# PCOD8325825 Si02
#       6
#    12  12  12  12  12   6
#     4  12  24  38  56  76  93 115 149 193 242 294
#     4   9  17  29  45  65  94 122 155 188 224 269
#     4   9  15  23  38  62  91 125 157 187 218 249
#     4  10  20  34  49  69  89 119 150 190 241 292
#     4  11  24  41  60  77  96 114 136 170 222 290
#     4  10  24  40  58  80  96 116 132 160 208 292
#
# _framework density 16.033579
#
# number of rings (size 3 to 8) (size 9 to 14) (size 15 to 20)
#    0.000    1.818    0.909    3.818    2.545    7.273 
#    0.000    0.000    0.000    0.000    0.000    0.000 
#    0.000    0.000    0.000    0.000    0.000    0.000 
#
# Total GULP energy -817895.799610 kJ/mol
# GULP energy per Si atom -12392.360600 kJ/mol
# Density = 1.599709 g / cm^3
# Si number density = 16.033579 Si / 1000 Ang^3
#
#
#
# Elastic Constant Matrix: (Units=GPa)
#
#
# Indices 1 2 3 4 5 6 
#
# 1 74.4626 36.3965 25.3911 0.0000 0.0000 0.0000
# 2 36.3965 74.4626 25.3911 0.0000 0.0000 0.0000
# 3 25.3911 25.3911 106.1927 0.0000 0.0000 0.0000
# 4 0.0000 0.0000 0.0000 36.0153 0.0000 0.0000
# 5 0.0000 0.0000 0.0000 0.0000 36.0153 0.0000
# 6 0.0000 0.0000 0.0000 0.0000 0.0000 19.0331
#
#
#
# Elastic Compliance Matrix: (Units=1/GPa)
#
#
# Indices 1 2 3 4 5 6 
#
# 1 0.018200 -0.008070 -0.002422 0.000000 0.000000 0.000000
# 2 -0.008070 0.018200 -0.002422 0.000000 0.000000 0.000000
# 3 -0.002422 -0.002422 0.010575 0.000000 0.000000 0.000000
# 4 0.000000 0.000000 0.000000 0.027766 0.000000 0.000000
# 5 0.000000 0.000000 0.000000 0.000000 0.027766 0.000000
# 6 0.000000 0.000000 0.000000 0.000000 0.000000 0.052540
#
#
# Mechanical properties :
#
#
# Convention : Reuss Voigt Hill
#
# Bulk Modulus (GPa) = 47.28890 47.71946 47.50418
# Shear Modulus (GPa) = 26.60641 29.40869 28.00755
#
# Velocity S-wave (km/s) = 4.07802 4.28740 4.18402
# Velocity P-wave (km/s) = 7.19245 7.37128 7.28241
#
# Compressibility (1/GPa) = 0.02114661
#
# Stress axis : x y z
#
# Youngs Moduli (GPa) = 54.94501 54.94501 94.56157
#
# Poissons Ratio (x) = 0.44341 0.22904
# Poissons Ratio (y) = 0.44341 0.22904
# Poissons Ratio (z) = 0.13308 0.13308
#
# Static dielectric constant tensor:
#      x y z
#    x 2.941090 0.000000 0.000000 
#    y 0.000000 2.941090 0.000000 
#    z 0.000000 0.000000 1.797200 
# 
# 
# High freq. dielectric constant tensor:
#      x y z
#    x 1.584550 0.000000 0.000000 
#    y 0.000000 1.584550 0.000000 
#    z 0.000000 0.000000 1.635380 
# 
# From -- ./inp_files/1565.got.cif
#   From: 2010.03.12/outbox.cif.g09.slc.cpg/sg178_1_cif.got.tgz:1565.got - 2010.04.02 07:02:38.
