data_PCOD8325387
_publ_section_title
;
Structure prediction by ZEFSAII (Michael W. Deem and Ramdas Pophale) SiO2 
 PCOD8325387
Probable space group: P 6/M
;
_chemical_formula_sum "Si O2"
_cell_formula_units_Z 72
_cell_length_a 24.030457
_cell_length_b 24.030457
_cell_length_c 9.401420
_cell_angle_alpha 90.000000
_cell_angle_beta 90.000000
_cell_angle_gamma 120.000000
_cell_volume 4701.626729
_symmetry_space_group_name_H-M "P 6/M"
_symmetry_group_IT_number 175
_symmetry_cell_setting 'hexagonal'
loop_
_space_group_symop_operation_xyz
x,y,z
x-y,x,z
-y,x-y,z
-x,-y,z
-x+y,-x,z
y,-x+y,z
-x,-y,-z
-x+y,-x,-z
y,-x+y,-z
x,y,-z
x-y,x,-z
-y,x-y,-z
loop_
_atom_site_type_symbol
_atom_site_label
_atom_site_fract_x
_atom_site_fract_y
_atom_site_fract_z
Si Si1 0.135247 0.395877 0.667136
Si Si2 0.268126 0.071864 0.835885
Si Si3 0.928136 0.731874 0.164115
Si Si4 0.739371 0.604123 0.332864
Si Si5 0.402928 0.927733 0.331180
Si Si6 0.072267 0.597072 0.668820
O O1 0.122102 0.383832 0.500000
O O2 0.086885 0.329719 0.743308
O O3 0.209125 0.418251 0.704796
O O4 0.120266 0.450816 0.723062
O O5 0.243318 0.121659 0.798771
O O6 0.329719 0.086885 0.743308
O O7 0.210969 0.000000 0.800543
O O8 0.288817 0.078186 0.000000
O O9 0.921815 0.711183 0.000000
O O10 0.738270 0.616168 0.500000
O O11 0.669450 0.549184 0.276938
O O12 0.403880 0.927817 0.500000
O O13 0.452449 0.904897 0.274676
O O14 0.426724 1.000000 0.276326
O O15 0.072183 0.596120 0.500000
#
# Coordination Sequence:
#
# PCOD8325387 Si02
#       6
#    12  12  12  12  12  12
#     4   9  16  25  39  59  79  98 124 159 193 224
#     4   9  17  28  41  57  78 103 127 152 187 230
#     4   9  17  28  41  57  78 103 127 152 187 230
#     4   9  16  25  39  59  79  98 124 159 193 224
#     4   8  13  21  34  52  73  97 123 149 178 214
#     4   8  13  21  34  52  73  97 123 149 178 214
#
# _framework density 15.31385
#
# number of rings (size 3 to 8) (size 9 to 14) (size 15 to 20)
#    0.000    3.333    0.000    2.000    0.000    2.000 
#    0.000    0.000    0.000    2.000    0.000   11.667 
#    0.000    0.000    0.000    8.333    0.000    8.667 
#
# Total GULP energy -892185.540120 kJ/mol
# GULP energy per Si atom -12391.465835 kJ/mol
# Density = 1.527899 g / cm^3
# Si number density = 15.313850 Si / 1000 Ang^3
#
#
#
# Elastic Constant Matrix: (Units=GPa)
#
#
# Indices 1 2 3 4 5 6 
#
# 1 131.4684 81.0350 23.2598 0.0000 0.0000 0.0000
# 2 81.0350 131.4684 23.2598 0.0000 0.0000 0.0000
# 3 23.2598 23.2598 18.7139 0.0000 0.0000 0.0000
# 4 0.0000 0.0000 0.0000 13.7538 0.0000 0.0000
# 5 0.0000 0.0000 0.0000 0.0000 13.7538 0.0000
# 6 0.0000 0.0000 0.0000 0.0000 0.0000 25.2167
#
#
#
# Elastic Compliance Matrix: (Units=1/GPa)
#
#
# Indices 1 2 3 4 5 6 
#
# 1 0.013146 -0.006682 -0.008035 0.000000 0.000000 0.000000
# 2 -0.006682 0.013146 -0.008035 0.000000 0.000000 0.000000
# 3 -0.008035 -0.008035 0.073411 0.000000 0.000000 0.000000
# 4 0.000000 0.000000 0.000000 0.072707 0.000000 0.000000
# 5 0.000000 0.000000 0.000000 0.000000 0.072707 0.000000
# 6 0.000000 0.000000 0.000000 0.000000 0.000000 0.039656
#
#
# Mechanical properties :
#
#
# Convention : Reuss Voigt Hill
#
# Bulk Modulus (GPa) = 18.45043 59.63998 39.04521
# Shear Modulus (GPa) = 14.35358 20.81792 17.58575
#
# Velocity S-wave (km/s) = 3.06485 3.69103 3.39242
# Velocity P-wave (km/s) = 4.95971 7.56271 6.39505
#
# Compressibility (1/GPa) = 0.05419928
#
# Stress axis : x y z
#
# Youngs Moduli (GPa) = 76.06604 76.06604 13.62201
#
# Poissons Ratio (x) = 0.50825 0.10946
# Poissons Ratio (y) = 0.50825 0.10946
# Poissons Ratio (z) = 0.61121 0.61121
#
# Static dielectric constant tensor:
#      x y z
#    x 3.162520 0.000000 0.000000 
#    y 0.000000 3.162520 0.000000 
#    z 0.000000 0.000000 2.674630 
# 
# 
# High freq. dielectric constant tensor:
#      x y z
#    x 1.580610 0.000000 0.000000 
#    y 0.000000 1.580610 0.000000 
#    z 0.000000 0.000000 1.555300 
# 
# From -- ./inp_files/1216.got.cif
#   From: 2010.03.12/outbox.cif.g09.slc.cpg/sg175_1_cif.got.tgz:1216.got - 2010.04.02 06:55:29.
