data_PCOD8325062
_publ_section_title
;
Structure prediction by ZEFSAII (Michael W. Deem and Ramdas Pophale) SiO2 
 PCOD8325062
Probable space group: P 6/M
;
_chemical_formula_sum "Si O2"
_cell_formula_units_Z 96
_cell_length_a 24.240940
_cell_length_b 24.240940
_cell_length_c 12.826582
_cell_angle_alpha 90.000000
_cell_angle_beta 90.000000
_cell_angle_gamma 120.000000
_cell_volume 6527.403904
_symmetry_space_group_name_H-M "P 6/M"
_symmetry_group_IT_number 175
_symmetry_cell_setting 'hexagonal'
loop_
_space_group_symop_operation_xyz
x,y,z
x-y,x,z
-y,x-y,z
-x,-y,z
-x+y,-x,z
y,-x+y,z
-x,-y,-z
-x+y,-x,-z
y,-x+y,-z
x,y,-z
x-y,x,-z
-y,x-y,-z
loop_
_atom_site_type_symbol
_atom_site_label
_atom_site_fract_x
_atom_site_fract_y
_atom_site_fract_z
Si Si1 0.723701 0.477397 0.123946
Si Si2 0.610730 0.192133 0.875683
Si Si3 0.067534 0.149003 0.621171
Si Si4 0.778156 0.006038 0.881088
Si Si5 0.248277 0.119333 0.791336
Si Si6 0.364042 0.312058 0.881190
Si Si7 0.813261 0.618166 0.880052
Si Si8 0.515775 0.568075 0.875145
O O1 0.652323 0.435721 0.167936
O O2 0.764277 0.446280 0.168698
O O3 0.752777 0.551515 0.157542
O O4 0.724887 0.474970 0.000000
O O5 0.583127 0.120737 0.833610
O O6 0.611363 0.193877 0.000000
O O7 0.104244 0.110912 0.651167
O O8 0.075287 0.166158 0.500000
O O9 0.097552 0.217904 0.679473
O O10 0.786689 0.954513 0.818976
O O11 0.843414 0.073062 0.875041
O O12 0.721401 0.015082 0.829322
O O13 0.762906 0.984921 0.000000
O O14 0.325176 0.149192 0.799808
O O15 0.394010 0.266335 0.874938
O O16 0.414844 0.379357 0.829821
O O17 0.353801 0.324351 0.000000
O O18 0.804580 0.635442 0.000000
O O19 0.500000 0.500000 0.831114
O O20 0.517503 0.570009 0.000000
#
# Coordination Sequence:
#
# PCOD8325062 Si02
#       8
#    12  12  12  12  12  12  12  12
#     4   9  15  23  35  50  73 106 147 189 218 245
#     4   9  15  22  32  47  66  94 137 183 217 241
#     4  10  20  36  55  71  85 103 130 169 215 264
#     4  10  19  29  42  59  84 114 144 171 201 242
#     4  11  19  30  45  64  84 108 141 172 208 246
#     4   8  14  25  36  46  67 102 136 168 201 236
#     4   9  16  26  39  54  79 114 146 171 204 249
#     4   9  15  22  32  45  63  89 128 176 216 240
#
# _framework density 14.707224999999999
#
# number of rings (size 3 to 8) (size 9 to 14) (size 15 to 20)
#    0.000    2.625    2.500    2.250    0.000    2.500 
#    0.000    3.750    0.000    0.000    0.000    1.750 
#    0.000    0.000    0.000    1.125    1.250   14.500 
#
# Total GULP energy -1189465.813945 kJ/mol
# GULP energy per Si atom -12390.268895 kJ/mol
# Density = 1.467375 g / cm^3
# Si number density = 14.707225 Si / 1000 Ang^3
#
#
#
# Elastic Constant Matrix: (Units=GPa)
#
#
# Indices 1 2 3 4 5 6 
#
# 1 99.4659 49.7710 17.8853 0.0000 0.0000 0.0000
# 2 49.7710 99.4659 17.8853 0.0000 0.0000 0.0000
# 3 17.8853 17.8853 25.9698 0.0000 0.0000 0.0000
# 4 0.0000 0.0000 0.0000 7.6632 0.0000 0.0000
# 5 0.0000 0.0000 0.0000 0.0000 7.6632 0.0000
# 6 0.0000 0.0000 0.0000 0.0000 0.0000 24.8475
#
#
#
# Elastic Compliance Matrix: (Units=1/GPa)
#
#
# Indices 1 2 3 4 5 6 
#
# 1 0.014074 -0.006049 -0.005527 0.000000 0.000000 0.000000
# 2 -0.006049 0.014074 -0.005527 0.000000 0.000000 0.000000
# 3 -0.005527 -0.005527 0.046119 0.000000 0.000000 0.000000
# 4 0.000000 0.000000 0.000000 0.130494 0.000000 0.000000
# 5 0.000000 0.000000 0.000000 0.000000 0.130494 0.000000
# 6 0.000000 0.000000 0.000000 0.000000 0.000000 0.040246
#
#
# Mechanical properties :
#
#
# Convention : Reuss Voigt Hill
#
# Bulk Modulus (GPa) = 24.96145 43.99829 34.47987
# Shear Modulus (GPa) = 11.81862 17.32544 14.57203
#
# Velocity S-wave (km/s) = 2.83785 3.43596 3.15112
# Velocity P-wave (km/s) = 5.26753 6.76181 6.06090
#
# Compressibility (1/GPa) = 0.04006177
#
# Stress axis : x y z
#
# Youngs Moduli (GPa) = 71.05215 71.05215 21.68290
#
# Poissons Ratio (x) = 0.42977 0.11984
# Poissons Ratio (y) = 0.42977 0.11984
# Poissons Ratio (z) = 0.39272 0.39272
#
# Static dielectric constant tensor:
#      x y z
#    x 3.042090 0.000000 0.000000 
#    y 0.000000 3.042090 0.000000 
#    z 0.000000 0.000000 2.211460 
# 
# 
# High freq. dielectric constant tensor:
#      x y z
#    x 1.575980 0.000000 0.000000 
#    y 0.000000 1.575980 0.000000 
#    z 0.000000 0.000000 1.466680 
# 
# From -- ./inp_files/2152.got.cif
#   From: 2010.03.12/outbox.cif.g09.slc.cpg/sg175_2_cif.got.tgz:2152.got - 2010.04.02 06:55:29.
