data_PCOD8325054
_publ_section_title
;
Structure prediction by ZEFSAII (Michael W. Deem and Ramdas Pophale) SiO2 
 PCOD8325054
Probable space group: P 6/M
;
_chemical_formula_sum "Si O2"
_cell_formula_units_Z 60
_cell_length_a 16.798870
_cell_length_b 16.798870
_cell_length_c 13.337913
_cell_angle_alpha 90.000000
_cell_angle_beta 90.000000
_cell_angle_gamma 120.000000
_cell_volume 3259.707641
_symmetry_space_group_name_H-M "P 6/M"
_symmetry_group_IT_number 175
_symmetry_cell_setting 'hexagonal'
loop_
_space_group_symop_operation_xyz
x,y,z
x-y,x,z
-y,x-y,z
-x,-y,z
-x+y,-x,z
y,-x+y,z
-x,-y,-z
-x+y,-x,-z
y,-x+y,-z
x,y,-z
x-y,x,-z
-y,x-y,-z
loop_
_atom_site_type_symbol
_atom_site_label
_atom_site_fract_x
_atom_site_fract_y
_atom_site_fract_z
Si Si1 0.911221 0.558340 0.387371
Si Si2 0.897545 0.113637 0.883750
Si Si3 0.365437 0.170303 0.280943
Si Si4 0.491117 0.123953 0.385901
Si Si5 0.951016 0.145549 0.616548
O O1 0.890006 0.578035 0.500000
O O2 0.887492 0.617615 0.311564
O O3 0.852833 0.448490 0.364926
O O4 0.016235 0.589894 0.374880
O O5 0.854922 0.169857 0.826782
O O6 0.005310 0.159427 0.855839
O O7 0.884262 0.126189 0.000000
O O8 0.462572 0.173218 0.298609
O O9 0.300390 0.087258 0.357977
O O10 0.484906 0.156062 0.500000
O O11 0.964978 0.140924 0.500000
O O12 0.048875 0.173972 0.666231
#
# Coordination Sequence:
#
# PCOD8325054 Si02
#       5
#    12  12  12  12  12
#     4   9  18  32  48  69 100 133 162 201 257 315
#     4  10  21  36  54  78 110 146 182 221 264 310
#     4  12  20  30  51  74  94 128 177 222 254 299
#     4   9  18  32  48  69 100 133 162 201 257 315
#     4  10  19  28  40  64 100 136 166 199 244 302
#
# _framework density 18.406559000000001
#
# number of rings (size 3 to 8) (size 9 to 14) (size 15 to 20)
#    0.000    2.000    0.000    7.000    0.000    4.800 
#    1.200    2.000    0.000    1.200    0.000    5.600 
#    0.000    0.000    0.000    0.000    0.000    0.000 
#
# Total GULP energy -743287.030101 kJ/mol
# GULP energy per Si atom -12388.117168 kJ/mol
# Density = 1.836467 g / cm^3
# Si number density = 18.406559 Si / 1000 Ang^3
#
#
#
# Elastic Constant Matrix: (Units=GPa)
#
#
# Indices 1 2 3 4 5 6 
#
# 1 57.5097 -3.6038 24.4644 0.0000 0.0000 0.0000
# 2 -3.6038 57.5097 24.4644 0.0000 0.0000 0.0000
# 3 24.4644 24.4644 81.5011 0.0000 0.0000 0.0000
# 4 0.0000 0.0000 0.0000 6.9042 0.0000 0.0000
# 5 0.0000 0.0000 0.0000 0.0000 6.9042 0.0000
# 6 0.0000 0.0000 0.0000 0.0000 0.0000 30.5567
#
#
#
# Elastic Compliance Matrix: (Units=1/GPa)
#
#
# Indices 1 2 3 4 5 6 
#
# 1 0.020930 0.004567 -0.007654 0.000000 0.000000 0.000000
# 2 0.004567 0.020930 -0.007654 0.000000 0.000000 0.000000
# 3 -0.007654 -0.007654 0.016865 0.000000 0.000000 0.000000
# 4 0.000000 0.000000 0.000000 0.144838 0.000000 0.000000
# 5 0.000000 0.000000 0.000000 0.000000 0.144838 0.000000
# 6 0.000000 0.000000 0.000000 0.000000 0.000000 0.032726
#
#
# Mechanical properties :
#
#
# Convention : Reuss Voigt Hill
#
# Bulk Modulus (GPa) = 26.84890 31.90781 29.37836
# Shear Modulus (GPa) = 12.04750 18.95273 15.50012
#
# Velocity S-wave (km/s) = 2.56114 3.21233 2.90504
# Velocity P-wave (km/s) = 4.83365 5.57955 5.21994
#
# Compressibility (1/GPa) = 0.03724547
#
# Stress axis : x y z
#
# Youngs Moduli (GPa) = 47.77719 47.77719 59.29551
#
# Poissons Ratio (x) = -0.21822 0.45383
# Poissons Ratio (y) = -0.21822 0.45383
# Poissons Ratio (z) = 0.36568 0.36568
#
# Static dielectric constant tensor:
#      x y z
#    x 3.590100 0.000000 0.000000 
#    y 0.000000 3.590100 0.000000 
#    z 0.000000 0.000000 3.105800 
# 
# 
# High freq. dielectric constant tensor:
#      x y z
#    x 1.712730 0.000000 0.000000 
#    y 0.000000 1.712730 0.000000 
#    z 0.000000 0.000000 1.674320 
# 
# From -- ./inp_files/2430.got.cif
#   From: 2010.03.12/outbox.cif.g09.slc.cpg/sg175_2_cif.got.tgz:2430.got - 2010.04.02 06:55:29.
