data_PCOD8325863
_publ_section_title
;
Structure prediction by ZEFSAII (Michael W. Deem and Ramdas Pophale) SiO2 
 PCOD8325863
Probable space group: P 61 2 2
;
_chemical_formula_sum "Si O2"
_cell_formula_units_Z 54
_cell_length_a 14.604001
_cell_length_b 14.604001
_cell_length_c 13.330174
_cell_angle_alpha 90.000000
_cell_angle_beta 90.000000
_cell_angle_gamma 120.000000
_cell_volume 2462.125341
_symmetry_space_group_name_H-M "P 61 2 2"
_symmetry_group_IT_number 178
_symmetry_cell_setting 'hexagonal'
loop_
_space_group_symop_operation_xyz
x,y,z
x-y,x,1/6+z
-y,x-y,1/3+z
-x,-y,1/2+z
-x+y,-x,2/3+z
y,-x+y,5/6+z
x-y,-y,-z
-x,-x+y,2/3-z
y,x,1/3-z
-y,-x,5/6-z
-x+y,y,1/2-z
x,x-y,1/6-z
loop_
_atom_site_type_symbol
_atom_site_label
_atom_site_fract_x
_atom_site_fract_y
_atom_site_fract_z
Si Si1 0.753899 0.329636 0.814311
Si Si2 0.333118 0.438897 0.120584
Si Si3 0.350647 0.265677 0.753353
Si Si4 0.290056 0.250504 0.383496
Si Si5 0.858352 0.141649 0.416667
O O1 0.648155 0.296309 0.750000
O O2 0.797405 0.447578 0.855278
O O3 0.835256 0.312128 0.747704
O O4 0.735925 0.264076 0.916667
O O5 0.430921 0.430921 0.166667
O O6 0.222079 0.353874 0.165786
O O7 0.319775 0.404932 0.003810
O O8 0.319418 0.319418 0.666667
O O9 0.325645 0.294280 0.861394
O O10 0.283260 0.138605 0.739110
O O11 0.189781 0.217939 0.307366
#
# Coordination Sequence:
#
# PCOD8325863 Si02
#       5
#    12  12  12  12   6
#     4  12  26  43  69 104 146 189 244 294 358 442
#     4  10  21  40  69 102 132 176 232 296 356 417
#     4  12  26  46  70 101 145 196 235 291 370 442
#     4  11  23  44  75  94 137 186 234 301 366 420
#     4  10  20  42  70 102 126 168 236 294 356 404
#
# _framework density 21.932271
#
# number of rings (size 3 to 8) (size 9 to 14) (size 15 to 20)
#    0.000    0.889    3.333    4.000    0.000    0.000 
#    0.000   11.111    9.778    0.000    0.000    0.000 
#    0.000    0.000    0.000    0.000    0.000    0.000 
#
# Total GULP energy -669422.726508 kJ/mol
# GULP energy per Si atom -12396.717158 kJ/mol
# Density = 2.188235 g / cm^3
# Si number density = 21.932271 Si / 1000 Ang^3
#
#
#
# Elastic Constant Matrix: (Units=GPa)
#
#
# Indices 1 2 3 4 5 6 
#
# 1 107.1264 48.7769 44.8875 0.0000 0.0000 0.0000
# 2 48.7769 107.1264 44.8875 0.0000 0.0000 0.0000
# 3 44.8875 44.8875 129.3313 0.0000 0.0000 0.0000
# 4 0.0000 0.0000 0.0000 20.5851 0.0000 0.0000
# 5 0.0000 0.0000 0.0000 0.0000 20.5851 0.0000
# 6 0.0000 0.0000 0.0000 0.0000 0.0000 29.1747
#
#
#
# Elastic Compliance Matrix: (Units=1/GPa)
#
#
# Indices 1 2 3 4 5 6 
#
# 1 0.012577 -0.004561 -0.002782 0.000000 0.000000 0.000000
# 2 -0.004561 0.012577 -0.002782 0.000000 0.000000 0.000000
# 3 -0.002782 -0.002782 0.009663 0.000000 0.000000 0.000000
# 4 0.000000 0.000000 0.000000 0.048579 0.000000 0.000000
# 5 0.000000 0.000000 0.000000 0.000000 0.048579 0.000000
# 6 0.000000 0.000000 0.000000 0.000000 0.000000 0.034276
#
#
# Mechanical properties :
#
#
# Convention : Reuss Voigt Hill
#
# Bulk Modulus (GPa) = 68.64813 68.96532 68.80673
# Shear Modulus (GPa) = 26.12901 27.73779 26.93340
#
# Velocity S-wave (km/s) = 3.45534 3.56012 3.50812
# Velocity P-wave (km/s) = 6.87657 6.95789 6.91735
#
# Compressibility (1/GPa) = 0.01456704
#
# Stress axis : x y z
#
# Youngs Moduli (GPa) = 79.50863 79.50863 103.48333
#
# Poissons Ratio (x) = 0.36263 0.28792
# Poissons Ratio (y) = 0.36263 0.28792
# Poissons Ratio (z) = 0.22121 0.22121
#
# Static dielectric constant tensor:
#      x y z
#    x 4.255030 0.000000 0.000000 
#    y 0.000000 4.255030 0.000000 
#    z 0.000000 0.000000 4.280970 
# 
# 
# High freq. dielectric constant tensor:
#      x y z
#    x 1.856490 0.000000 0.000000 
#    y 0.000000 1.856490 0.000000 
#    z 0.000000 0.000000 1.878950 
# 
# From -- ./inp_files/5562.got.cif
#   From: 2010.03.12/outbox.cif.g09.slc.cpg/sg178_3_cif.got.tgz:5562.got - 2010.04.02 07:02:38.
