data_PCOD8325085
_publ_section_title
;
Structure prediction by ZEFSAII (Michael W. Deem and Ramdas Pophale) SiO2 
 PCOD8325085
Probable space group: P 6/M
;
_chemical_formula_sum "Si O2"
_cell_formula_units_Z 72
_cell_length_a 23.790959
_cell_length_b 23.790959
_cell_length_c 8.909902
_cell_angle_alpha 90.000000
_cell_angle_beta 90.000000
_cell_angle_gamma 120.000000
_cell_volume 4367.445116
_symmetry_space_group_name_H-M "P 6/M"
_symmetry_group_IT_number 175
_symmetry_cell_setting 'hexagonal'
loop_
_space_group_symop_operation_xyz
x,y,z
x-y,x,z
-y,x-y,z
-x,-y,z
-x+y,-x,z
y,-x+y,z
-x,-y,-z
-x+y,-x,-z
y,-x+y,-z
x,y,-z
x-y,x,-z
-y,x-y,-z
loop_
_atom_site_type_symbol
_atom_site_label
_atom_site_fract_x
_atom_site_fract_y
_atom_site_fract_z
Si Si1 0.142645 0.405940 0.823942
Si Si2 0.255569 0.071113 0.675649
Si Si3 0.932121 0.742553 0.178019
Si Si4 0.742079 0.594248 0.325181
Si Si5 0.399577 0.925268 0.322855
Si Si6 0.070954 0.597746 0.677265
O O1 0.092380 0.331934 0.775801
O O2 0.213839 0.427713 0.762818
O O3 0.122085 0.454985 0.757249
O O4 0.146894 0.413570 0.000000
O O5 0.239623 0.066735 0.500000
O O6 0.235510 0.119193 0.753888
O O7 0.330907 0.095403 0.704838
O O8 0.213661 0.001624 0.750672
O O9 0.935194 0.751436 0.000000
O O10 0.746014 0.581198 0.500000
O O11 0.669443 0.550903 0.259017
O O12 0.387752 0.921511 0.500000
O O13 0.451779 0.902901 0.279989
O O14 0.427168 0.998247 0.260844
O O15 0.066390 0.601289 0.500000
#
# Coordination Sequence:
#
# PCOD8325085 Si02
#       6
#    12  12  12  12  12  12
#     4  10  20  31  44  67  97 126 156 189 228 276
#     4  10  19  31  50  74  96 121 158 199 233 271
#     4  10  20  33  48  68  98 131 157 187 233 283
#     4   9  17  30  48  69  93 122 156 193 233 275
#     4   9  16  29  49  70  93 120 150 188 232 276
#     4   8  15  28  48  72  93 116 150 190 231 275
#
# _framework density 16.485610999999999
#
# number of rings (size 3 to 8) (size 9 to 14) (size 15 to 20)
#    0.000    2.667    0.000    3.500    0.000    4.000 
#    0.000    3.333    0.000    1.000    0.000    4.667 
#    0.000    0.000    0.000    0.000    0.000    0.000 
#
# Total GULP energy -892763.623668 kJ/mol
# GULP energy per Si atom -12399.494773 kJ/mol
# Density = 1.644809 g / cm^3
# Si number density = 16.485611 Si / 1000 Ang^3
#
#
#
# Elastic Constant Matrix: (Units=GPa)
#
#
# Indices 1 2 3 4 5 6 
#
# 1 133.1042 76.8777 48.4884 0.0000 0.0000 0.0000
# 2 76.8777 133.1042 48.4884 0.0000 0.0000 0.0000
# 3 48.4884 48.4884 62.5916 0.0000 0.0000 0.0000
# 4 0.0000 0.0000 0.0000 17.4588 0.0000 0.0000
# 5 0.0000 0.0000 0.0000 0.0000 17.4588 0.0000
# 6 0.0000 0.0000 0.0000 0.0000 0.0000 28.1132
#
#
#
# Elastic Compliance Matrix: (Units=1/GPa)
#
#
# Indices 1 2 3 4 5 6 
#
# 1 0.012600 -0.005185 -0.005744 0.000000 0.000000 0.000000
# 2 -0.005185 0.012600 -0.005744 0.000000 0.000000 0.000000
# 3 -0.005744 -0.005744 0.024877 0.000000 0.000000 0.000000
# 4 0.000000 0.000000 0.000000 0.057278 0.000000 0.000000
# 5 0.000000 0.000000 0.000000 0.000000 0.057278 0.000000
# 6 0.000000 0.000000 0.000000 0.000000 0.000000 0.035570
#
#
# Mechanical properties :
#
#
# Convention : Reuss Voigt Hill
#
# Bulk Modulus (GPa) = 59.77454 75.16768 67.47111
# Shear Modulus (GPa) = 20.90933 22.93585 21.92259
#
# Velocity S-wave (km/s) = 3.56524 3.73401 3.65060
# Velocity P-wave (km/s) = 7.29967 8.01782 7.66716
#
# Compressibility (1/GPa) = 0.01672953
#
# Stress axis : x y z
#
# Youngs Moduli (GPa) = 79.36338 79.36338 40.19798
#
# Poissons Ratio (x) = 0.41150 0.23092
# Poissons Ratio (y) = 0.41150 0.23092
# Poissons Ratio (z) = 0.45590 0.45590
#
# Static dielectric constant tensor:
#      x y z
#    x 3.156550 0.000000 0.000000 
#    y 0.000000 3.156550 0.000000 
#    z 0.000000 0.000000 2.984200 
# 
# 
# High freq. dielectric constant tensor:
#      x y z
#    x 1.627750 0.000000 0.000000 
#    y 0.000000 1.627750 0.000000 
#    z 0.000000 0.000000 1.626870 
# 
# From -- ./inp_files/1217.got.cif
#   From: 2010.03.12/outbox.cif.g09.slc.cpg/sg175_1_cif.got.tgz:1217.got - 2010.04.02 06:55:29.
