data_PCOD8325512
_publ_section_title
;
Structure prediction by ZEFSAII (Michael W. Deem and Ramdas Pophale) SiO2 
 PCOD8325512
Probable space group: P 63/M
;
_chemical_formula_sum "Si O2"
_cell_formula_units_Z 78
_cell_length_a 23.815044
_cell_length_b 23.815044
_cell_length_c 8.007856
_cell_angle_alpha 90.000000
_cell_angle_beta 90.000000
_cell_angle_gamma 120.000000
_cell_volume 3933.232899
_symmetry_space_group_name_H-M "P 63/M"
_symmetry_group_IT_number 176
_symmetry_cell_setting 'hexagonal'
loop_
_space_group_symop_operation_xyz
x,y,z
x-y,x,1/2+z
-y,x-y,z
-x,-y,1/2+z
-x+y,-x,z
y,-x+y,1/2+z
-x,-y,-z
-x+y,-x,1/2-z
y,-x+y,-z
x,y,1/2-z
x-y,x,-z
-y,x-y,1/2-z
loop_
_atom_site_type_symbol
_atom_site_label
_atom_site_fract_x
_atom_site_fract_y
_atom_site_fract_z
Si Si1 0.501804 0.757183 0.061334
Si Si2 0.079551 0.272683 0.443547
Si Si3 0.436519 0.435364 0.554449
Si Si4 0.699937 0.111025 0.552387
Si Si5 0.062819 0.802955 0.557213
Si Si6 0.722890 0.309528 0.250000
Si Si7 0.298068 0.406383 0.556884
O O1 0.471883 0.741138 0.250000
O O2 0.529185 0.710491 0.006917
O O3 0.451302 0.752341 0.922204
O O4 0.562255 0.829774 0.062538
O O5 0.068010 0.277887 0.250000
O O6 0.101299 0.343401 0.525079
O O7 0.133277 0.251496 0.466394
O O8 0.008968 0.217535 0.514197
O O9 0.500000 0.500000 0.500000
O O10 0.438833 0.428556 0.750000
O O11 0.430491 0.370096 0.474298
O O12 0.372749 0.437632 0.501669
O O13 0.700634 0.103022 0.750000
O O14 0.070408 0.822077 0.750000
O O15 0.069915 0.740114 0.525565
O O16 0.739017 0.384116 0.250000
O O17 0.292602 0.422365 0.750000
#
# Coordination Sequence:
#
# PCOD8325512 Si02
#       7
#    12  12  12  12  12   6  12
#     4  11  22  39  68  94 116 158 206 256 310 371
#     4  10  19  35  58  85 121 159 197 248 305 363
#     4  10  21  38  55  81 121 160 194 240 300 363
#     4   9  18  35  58  85 118 155 196 240 302 363
#     4  10  20  34  58  88 119 162 202 246 305 366
#     4  10  26  48  64  84 118 154 212 262 318 370
#     4  10  19  35  59  86 123 161 198 243 305 368
#
# _framework density 19.831015000000001
#
# number of rings (size 3 to 8) (size 9 to 14) (size 15 to 20)
#    0.154    1.846    3.846    0.000    0.000    3.077 
#    1.385    1.538    0.000    0.308    0.000    0.000 
#    0.000    0.000    0.000    0.000    0.000    0.000 
#
# Total GULP energy -966811.694008 kJ/mol
# GULP energy per Si atom -12395.021718 kJ/mol
# Density = 1.978588 g / cm^3
# Si number density = 19.831015 Si / 1000 Ang^3
#
#
#
# Elastic Constant Matrix: (Units=GPa)
#
#
# Indices 1 2 3 4 5 6 
#
# 1 105.8816 32.7773 13.4227 0.0000 0.0000 0.0000
# 2 32.7773 105.8816 13.4227 0.0000 0.0000 0.0000
# 3 13.4227 13.4227 42.2973 0.0000 0.0000 0.0000
# 4 0.0000 0.0000 0.0000 23.6364 0.0000 0.0000
# 5 0.0000 0.0000 0.0000 0.0000 23.6364 0.0000
# 6 0.0000 0.0000 0.0000 0.0000 0.0000 36.5522
#
#
#
# Elastic Compliance Matrix: (Units=1/GPa)
#
#
# Indices 1 2 3 4 5 6 
#
# 1 0.010682 -0.002998 -0.002438 0.000000 0.000000 0.000000
# 2 -0.002998 0.010682 -0.002438 0.000000 0.000000 0.000000
# 3 -0.002438 -0.002438 0.025190 0.000000 0.000000 0.000000
# 4 0.000000 0.000000 0.000000 0.042308 0.000000 0.000000
# 5 0.000000 0.000000 0.000000 0.000000 0.042308 0.000000
# 6 0.000000 0.000000 0.000000 0.000000 0.000000 0.027358
#
#
# Mechanical properties :
#
#
# Convention : Reuss Voigt Hill
#
# Bulk Modulus (GPa) = 32.46329 41.47845 36.97087
# Shear Modulus (GPa) = 27.09392 29.72752 28.41072
#
# Velocity S-wave (km/s) = 3.70028 3.87595 3.78913
# Velocity P-wave (km/s) = 5.88741 6.40250 6.15035
#
# Compressibility (1/GPa) = 0.03080403
#
# Stress axis : x y z
#
# Youngs Moduli (GPa) = 93.61928 93.61928 39.69860
#
# Poissons Ratio (x) = 0.28063 0.09680
# Poissons Ratio (y) = 0.28063 0.09680
# Poissons Ratio (z) = 0.22829 0.22829
#
# Static dielectric constant tensor:
#      x y z
#    x 3.466810 0.000000 0.000000 
#    y 0.000000 3.466810 0.000000 
#    z 0.000000 0.000000 3.330550 
# 
# 
# High freq. dielectric constant tensor:
#      x y z
#    x 1.769020 0.000000 0.000000 
#    y 0.000000 1.769020 0.000000 
#    z 0.000000 0.000000 1.751400 
# 
# From -- ./inp_files/1277.got.cif
#   From: 2010.06.25/outbox.cif.g09.slc.cpg/sg176_1_cif.got.tgz:1277.got - 2010.06.28 12:15:01.
