data_PCOD8325811
_publ_section_title
;
Structure prediction by ZEFSAII (Michael W. Deem and Ramdas Pophale) SiO2 
 PCOD8325811
Probable space group: P 61 2 2
;
_chemical_formula_sum "Si O2"
_cell_formula_units_Z 48
_cell_length_a 15.956698
_cell_length_b 15.956698
_cell_length_c 9.938530
_cell_angle_alpha 90.000000
_cell_angle_beta 90.000000
_cell_angle_gamma 120.000000
_cell_volume 2191.486683
_symmetry_space_group_name_H-M "P 61 2 2"
_symmetry_group_IT_number 178
_symmetry_cell_setting 'hexagonal'
loop_
_space_group_symop_operation_xyz
x,y,z
x-y,x,1/6+z
-y,x-y,1/3+z
-x,-y,1/2+z
-x+y,-x,2/3+z
y,-x+y,5/6+z
x-y,-y,-z
-x,-x+y,2/3-z
y,x,1/3-z
-y,-x,5/6-z
-x+y,y,1/2-z
x,x-y,1/6-z
loop_
_atom_site_type_symbol
_atom_site_label
_atom_site_fract_x
_atom_site_fract_y
_atom_site_fract_z
Si Si1 0.829572 0.357856 0.959316
Si Si2 0.470701 0.141519 0.040538
Si Si3 0.974796 0.143016 0.538975
Si Si4 0.329294 0.357187 0.959862
O O1 0.747647 0.252354 0.916667
O O2 0.856342 0.431006 0.835033
O O3 0.792549 0.396275 0.083334
O O4 0.924496 0.352295 0.999758
O O5 0.495520 0.247760 0.083334
O O6 0.427908 0.068703 0.166020
O O7 0.393244 0.103363 0.918102
O O8 0.896768 0.103233 0.416667
O O9 0.072512 0.143080 0.499075
O O10 0.999811 0.249559 0.581555
#
# Coordination Sequence:
#
# PCOD8325811 Si02
#       4
#    12  12  12  12
#     4  10  22  41  60  87 122 158 202 250 302 360
#     4  10  19  37  65  89 115 159 206 247 298 364
#     4  10  19  35  60  87 116 152 195 238 284 353
#     4  10  20  37  61  91 119 153 202 253 297 351
#
# _framework density 21.902940000000001
#
# number of rings (size 3 to 8) (size 9 to 14) (size 15 to 20)
#    0.000    2.000    0.000    6.000    0.000    0.000 
#    0.000   55.000    0.000    0.000    0.000    0.000 
#    0.000    0.000    0.000    0.000    0.000    0.000 
#
# Total GULP energy -595361.808996 kJ/mol
# GULP energy per Si atom -12403.371021 kJ/mol
# Density = 2.185309 g / cm^3
# Si number density = 21.902940 Si / 1000 Ang^3
#
#
#
# Elastic Constant Matrix: (Units=GPa)
#
#
# Indices 1 2 3 4 5 6 
#
# 1 174.2319 93.9520 65.9452 0.0000 0.0000 0.0000
# 2 93.9520 174.2319 65.9452 0.0000 0.0000 0.0000
# 3 65.9452 65.9452 57.4514 0.0000 0.0000 0.0000
# 4 0.0000 0.0000 0.0000 28.0927 0.0000 0.0000
# 5 0.0000 0.0000 0.0000 0.0000 28.0927 0.0000
# 6 0.0000 0.0000 0.0000 0.0000 0.0000 40.1399
#
#
#
# Elastic Compliance Matrix: (Units=1/GPa)
#
#
# Indices 1 2 3 4 5 6 
#
# 1 0.010509 -0.001947 -0.009828 0.000000 0.000000 0.000000
# 2 -0.001947 0.010509 -0.009828 0.000000 0.000000 0.000000
# 3 -0.009828 -0.009828 0.039968 0.000000 0.000000 0.000000
# 4 0.000000 0.000000 0.000000 0.035596 0.000000 0.000000
# 5 0.000000 0.000000 0.000000 0.000000 0.035596 0.000000
# 6 0.000000 0.000000 0.000000 0.000000 0.000000 0.024913
#
#
# Mechanical properties :
#
#
# Convention : Reuss Voigt Hill
#
# Bulk Modulus (GPa) = 56.24201 95.28890 75.76545
# Shear Modulus (GPa) = 24.24538 31.26989 27.75764
#
# Velocity S-wave (km/s) = 3.33069 3.78253 3.56378
# Velocity P-wave (km/s) = 6.36592 7.91683 7.18336
#
# Compressibility (1/GPa) = 0.01778030
#
# Stress axis : x y z
#
# Youngs Moduli (GPa) = 95.15432 95.15432 25.02014
#
# Poissons Ratio (x) = 0.18528 0.24590
# Poissons Ratio (y) = 0.18528 0.24590
# Poissons Ratio (z) = 0.93517 0.93517
#
# Static dielectric constant tensor:
#      x y z
#    x 3.975450 0.000000 0.000000 
#    y 0.000000 3.975450 0.000000 
#    z 0.000000 0.000000 3.678300 
# 
# 
# High freq. dielectric constant tensor:
#      x y z
#    x 1.866650 0.000000 0.000000 
#    y 0.000000 1.866650 0.000000 
#    z 0.000000 0.000000 1.825440 
# 
# From -- ./inp_files/4085.got.cif
#   From: 2010.03.12/outbox.cif.g09.slc.cpg/sg178_3_cif.got.tgz:4085.got - 2010.04.02 07:02:38.
