data_PCOD8325013
_publ_section_title
;
Structure prediction by ZEFSAII (Michael W. Deem and Ramdas Pophale) SiO2 
 PCOD8325013
Probable space group: P 6/M
;
_chemical_formula_sum "Si O2"
_cell_formula_units_Z 72
_cell_length_a 23.347037
_cell_length_b 23.347037
_cell_length_c 9.144334
_cell_angle_alpha 90.000000
_cell_angle_beta 90.000000
_cell_angle_gamma 120.000000
_cell_volume 4316.644219
_symmetry_space_group_name_H-M "P 6/M"
_symmetry_group_IT_number 175
_symmetry_cell_setting 'hexagonal'
loop_
_space_group_symop_operation_xyz
x,y,z
x-y,x,z
-y,x-y,z
-x,-y,z
-x+y,-x,z
y,-x+y,z
-x,-y,-z
-x+y,-x,-z
y,-x+y,-z
x,y,-z
x-y,x,-z
-y,x-y,-z
loop_
_atom_site_type_symbol
_atom_site_label
_atom_site_fract_x
_atom_site_fract_y
_atom_site_fract_z
Si Si1 0.525191 0.925368 0.326153
Si Si2 0.384050 0.256158 0.325691
Si Si3 0.743842 0.615950 0.325691
Si Si4 0.400177 0.925368 0.673847
Si Si5 0.132656 0.132656 0.168519
Si Si6 0.000000 0.251709 0.673573
O O1 0.527451 0.926793 0.500000
O O2 0.553696 0.878996 0.268432
O O3 0.449406 0.898812 0.272707
O O4 0.572001 0.000000 0.268176
O O5 0.383255 0.253731 0.500000
O O6 0.390711 0.195355 0.261047
O O7 0.446304 0.325301 0.268432
O O8 0.316681 0.251413 0.267991
O O9 0.746269 0.616745 0.500000
O O10 0.748587 0.683319 0.267991
O O11 0.399342 0.926792 0.500000
O O12 0.063300 0.126600 0.207546
O O13 0.187880 0.187879 0.268873
O O14 0.151750 0.151750 0.000000
O O15 0.000000 0.250126 0.500000
#
# Coordination Sequence:
#
# PCOD8325013 Si02
#       6
#    12  12  12  12  12  12
#     4   8  12  19  31  46  67  96 129 162 192 228
#     4   9  15  22  34  54  80 105 128 162 209 252
#     4   9  15  22  34  54  80 105 128 162 209 252
#     4   8  12  19  31  46  67  96 129 162 192 228
#     4  10  21  36  50  61  77 107 145 178 208 248
#     4  10  18  29  44  65  88 108 133 170 216 258
#
# _framework density 16.679624
#
# number of rings (size 3 to 8) (size 9 to 14) (size 15 to 20)
#    0.000    3.000    1.667    2.167    0.000    2.667 
#    0.000    0.000    0.000    1.667    0.000    4.667 
#    0.000    2.667    0.000    0.000    0.000    0.000 
#
# Total GULP energy -892192.228538 kJ/mol
# GULP energy per Si atom -12391.558730 kJ/mol
# Density = 1.664166 g / cm^3
# Si number density = 16.679624 Si / 1000 Ang^3
#
#
#
# Elastic Constant Matrix: (Units=GPa)
#
#
# Indices 1 2 3 4 5 6 
#
# 1 147.3152 94.4936 8.8575 0.0000 0.0000 0.0000
# 2 94.4936 147.3152 8.8575 0.0000 0.0000 0.0000
# 3 8.8575 8.8575 3.5854 0.0000 0.0000 0.0000
# 4 0.0000 0.0000 0.0000 5.6819 0.0000 0.0000
# 5 0.0000 0.0000 0.0000 0.0000 5.6819 0.0000
# 6 0.0000 0.0000 0.0000 0.0000 0.0000 26.4108
#
#
#
# Elastic Compliance Matrix: (Units=1/GPa)
#
#
# Indices 1 2 3 4 5 6 
#
# 1 0.011991 -0.006941 -0.012474 0.000000 0.000000 0.000000
# 2 -0.006941 0.011991 -0.012474 0.000000 0.000000 0.000000
# 3 -0.012474 -0.012474 0.340545 0.000000 0.000000 0.000000
# 4 0.000000 0.000000 0.000000 0.175997 0.000000 0.000000
# 5 0.000000 0.000000 0.000000 0.000000 0.175997 0.000000
# 6 0.000000 0.000000 0.000000 0.000000 0.000000 0.037863
#
#
# Mechanical properties :
#
#
# Convention : Reuss Voigt Hill
#
# Bulk Modulus (GPa) = 3.32506 58.07035 30.69770
# Shear Modulus (GPa) = 5.44419 19.95540 12.69979
#
# Velocity S-wave (km/s) = 1.80861 3.46264 2.76233
# Velocity P-wave (km/s) = 2.52175 7.13283 5.34960
#
# Compressibility (1/GPa) = 0.30074649
#
# Stress axis : x y z
#
# Youngs Moduli (GPa) = 83.39924 83.39924 2.93647
#
# Poissons Ratio (x) = 0.57889 0.03663
# Poissons Ratio (y) = 0.57889 0.03663
# Poissons Ratio (z) = 1.04034 1.04034
#
# Static dielectric constant tensor:
#      x y z
#    x 3.437280 0.000000 0.000000 
#    y 0.000000 3.437280 0.000000 
#    z 0.000000 0.000000 2.440820 
# 
# 
# High freq. dielectric constant tensor:
#      x y z
#    x 1.646260 0.000000 0.000000 
#    y 0.000000 1.646260 0.000000 
#    z 0.000000 0.000000 1.566290 
# 
# From -- ./inp_files/1206.got.cif
#   From: 2010.03.12/outbox.cif.g09.slc.cpg/sg175_1_cif.got.tgz:1206.got - 2010.04.02 06:55:29.
