data_PCOD8325456
_publ_section_title
;
Structure prediction by ZEFSAII (Michael W. Deem and Ramdas Pophale) SiO2 
 PCOD8325456
Probable space group: P 63/M
;
_chemical_formula_sum "Si O2"
_cell_formula_units_Z 60
_cell_length_a 22.400846
_cell_length_b 22.400846
_cell_length_c 7.814928
_cell_angle_alpha 90.000000
_cell_angle_beta 90.000000
_cell_angle_gamma 120.000000
_cell_volume 3396.131153
_symmetry_space_group_name_H-M "P 63/M"
_symmetry_group_IT_number 176
_symmetry_cell_setting 'hexagonal'
loop_
_space_group_symop_operation_xyz
x,y,z
x-y,x,1/2+z
-y,x-y,z
-x,-y,1/2+z
-x+y,-x,z
y,-x+y,1/2+z
-x,-y,-z
-x+y,-x,1/2-z
y,-x+y,-z
x,y,1/2-z
x-y,x,-z
-y,x-y,1/2-z
loop_
_atom_site_type_symbol
_atom_site_label
_atom_site_fract_x
_atom_site_fract_y
_atom_site_fract_z
Si Si1 0.566124 0.714790 0.061129
Si Si2 0.565375 0.855876 0.058328
Si Si3 0.077610 0.793093 0.445842
Si Si4 0.927071 0.722312 0.949447
Si Si5 0.527483 0.190827 0.250000
Si Si6 0.193069 0.525191 0.750000
O O1 0.547177 0.679497 0.250000
O O2 0.560060 0.782447 0.067742
O O3 0.644133 0.736030 0.010728
O O4 0.514446 0.663185 0.918210
O O5 0.551214 0.875444 0.250000
O O6 0.641952 0.910428 0.985241
O O7 0.510411 0.853042 0.920715
O O8 0.100781 0.801206 0.250000
O O9 0.131483 0.867706 0.528269
O O10 0.999446 0.775290 0.463930
O O11 0.937698 0.738366 0.750000
O O12 0.604961 0.206844 0.250000
O O13 0.528401 0.262557 0.250000
#
# Coordination Sequence:
#
# PCOD8325456 Si02
#       6
#    12  12  12  12   6   6
#     4   8  16  31  47  67  95 126 163 203 243 285
#     4   8  16  31  47  67  95 126 163 203 243 285
#     4   9  18  31  49  76 102 125 160 203 243 285
#     4   9  18  31  49  76 102 125 160 203 243 285
#     4  10  19  30  48  72  97 126 162 202 250 302
#     4  10  19  30  48  72  97 126 162 202 250 302
#
# _framework density 17.667161
#
# number of rings (size 3 to 8) (size 9 to 14) (size 15 to 20)
#    0.000    3.200    0.000    2.600    2.800    1.600 
#    0.000    0.000    0.000    4.000    0.000    0.000 
#    0.000    0.000    0.000    0.000    0.000    0.000 
#
# Total GULP energy -743440.631357 kJ/mol
# GULP energy per Si atom -12390.677189 kJ/mol
# Density = 1.762695 g / cm^3
# Si number density = 17.667161 Si / 1000 Ang^3
#
#
#
# Elastic Constant Matrix: (Units=GPa)
#
#
# Indices 1 2 3 4 5 6 
#
# 1 78.2451 32.0660 36.2293 0.0000 0.0000 0.0000
# 2 32.0660 78.2451 36.2293 0.0000 0.0000 0.0000
# 3 36.2293 36.2293 89.1127 0.0000 0.0000 0.0000
# 4 0.0000 0.0000 0.0000 20.8246 0.0000 0.0000
# 5 0.0000 0.0000 0.0000 0.0000 20.8246 0.0000
# 6 0.0000 0.0000 0.0000 0.0000 0.0000 23.0895
#
#
#
# Elastic Compliance Matrix: (Units=1/GPa)
#
#
# Indices 1 2 3 4 5 6 
#
# 1 0.017011 -0.004643 -0.005028 0.000000 0.000000 0.000000
# 2 -0.004643 0.017011 -0.005028 0.000000 0.000000 0.000000
# 3 -0.005028 -0.005028 0.015310 0.000000 0.000000 0.000000
# 4 0.000000 0.000000 0.000000 0.048020 0.000000 0.000000
# 5 0.000000 0.000000 0.000000 0.000000 0.048020 0.000000
# 6 0.000000 0.000000 0.000000 0.000000 0.000000 0.043310
#
#
# Mechanical properties :
#
#
# Convention : Reuss Voigt Hill
#
# Bulk Modulus (GPa) = 50.16730 50.51688 50.34209
# Shear Modulus (GPa) = 22.24913 22.35296 22.30104
#
# Velocity S-wave (km/s) = 3.55258 3.56086 3.55672
# Velocity P-wave (km/s) = 6.72943 6.74997 6.73971
#
# Compressibility (1/GPa) = 0.01993330
#
# Stress axis : x y z
#
# Youngs Moduli (GPa) = 58.78377 58.78377 65.31533
#
# Poissons Ratio (x) = 0.27295 0.32843
# Poissons Ratio (y) = 0.27295 0.32843
# Poissons Ratio (z) = 0.29559 0.29559
#
# Static dielectric constant tensor:
#      x y z
#    x 3.050230 0.000000 0.000000 
#    y 0.000000 3.050230 0.000000 
#    z 0.000000 0.000000 3.576340 
# 
# 
# High freq. dielectric constant tensor:
#      x y z
#    x 1.652780 0.000000 0.000000 
#    y 0.000000 1.652780 0.000000 
#    z 0.000000 0.000000 1.691190 
# 
# From -- ./inp_files/909.got.cif
#   From: 2010.06.25/outbox.cif.g09.slc.cpg/sg176_1_cif.got.tgz:909.got - 2010.06.28 12:15:01.
