data_PCOD8325827
_publ_section_title
;
Structure prediction by ZEFSAII (Michael W. Deem and Ramdas Pophale) SiO2 
 PCOD8325827
Probable space group: P 61 2 2
;
_chemical_formula_sum "Si O2"
_cell_formula_units_Z 42
_cell_length_a 23.664498
_cell_length_b 23.664498
_cell_length_c 5.037022
_cell_angle_alpha 90.000000
_cell_angle_beta 90.000000
_cell_angle_gamma 120.000000
_cell_volume 2442.862775
_symmetry_space_group_name_H-M "P 61 2 2"
_symmetry_group_IT_number 178
_symmetry_cell_setting 'hexagonal'
loop_
_space_group_symop_operation_xyz
x,y,z
x-y,x,1/6+z
-y,x-y,1/3+z
-x,-y,1/2+z
-x+y,-x,2/3+z
y,-x+y,5/6+z
x-y,-y,-z
-x,-x+y,2/3-z
y,x,1/3-z
-y,-x,5/6-z
-x+y,y,1/2-z
x,x-y,1/6-z
loop_
_atom_site_type_symbol
_atom_site_label
_atom_site_fract_x
_atom_site_fract_y
_atom_site_fract_z
Si Si1 0.042003 0.521002 0.083334
Si Si2 0.350808 0.576901 0.678674
Si Si3 0.723347 0.149679 0.930060
Si Si4 0.342900 0.416712 0.258317
O O1 0.084699 0.488881 0.176183
O O2 0.000000 0.522042 0.333334
O O3 0.388697 0.611304 0.416667
O O4 0.300743 0.601485 0.750000
O O5 0.311739 0.499948 0.631113
O O6 0.403145 0.596856 0.916667
O O7 0.801473 0.198528 0.916667
O O8 0.699608 0.121887 0.639561
O O9 0.703555 0.092012 0.147908
O O10 0.368274 0.368274 0.166667
#
# Coordination Sequence:
#
# PCOD8325827 Si02
#       4
#     6  12  12  12
#     4  10  20  34  52  80 104 124 162 210 258 306
#     4  11  22  35  50  66  87 121 160 200 244 302
#     4  11  24  38  53  75 103 127 160 200 260 311
#     4  11  22  38  57  76 100 127 164 206 256 305
#
# _framework density 17.192945000000002
#
# number of rings (size 3 to 8) (size 9 to 14) (size 15 to 20)
#    0.000    1.143    0.000    8.571    6.000    4.571 
#    0.000    0.000    0.000    0.000    0.000    0.000 
#    0.000    0.000    0.000    0.000    0.000    0.000 
#
# Total GULP energy -520793.852662 kJ/mol
# GULP energy per Si atom -12399.853635 kJ/mol
# Density = 1.715381 g / cm^3
# Si number density = 17.192945 Si / 1000 Ang^3
#
#
#
# Elastic Constant Matrix: (Units=GPa)
#
#
# Indices 1 2 3 4 5 6 
#
# 1 58.7756 28.6898 27.6112 0.0000 0.0000 0.0000
# 2 28.6898 58.7756 27.6112 0.0000 0.0000 0.0000
# 3 27.6112 27.6112 131.3751 0.0000 0.0000 0.0000
# 4 0.0000 0.0000 0.0000 37.9161 0.0000 0.0000
# 5 0.0000 0.0000 0.0000 0.0000 37.9161 0.0000
# 6 0.0000 0.0000 0.0000 0.0000 0.0000 15.0429
#
#
#
# Elastic Compliance Matrix: (Units=1/GPa)
#
#
# Indices 1 2 3 4 5 6 
#
# 1 0.023210 -0.010028 -0.002771 0.000000 0.000000 0.000000
# 2 -0.010028 0.023210 -0.002771 0.000000 0.000000 0.000000
# 3 -0.002771 -0.002771 0.008776 0.000000 0.000000 0.000000
# 4 0.000000 0.000000 0.000000 0.026374 0.000000 0.000000
# 5 0.000000 0.000000 0.000000 0.000000 0.026374 0.000000
# 6 0.000000 0.000000 0.000000 0.000000 0.000000 0.066477
#
#
# Mechanical properties :
#
#
# Convention : Reuss Voigt Hill
#
# Bulk Modulus (GPa) = 41.56475 46.30562 43.93519
# Shear Modulus (GPa) = 23.41051 29.17597 26.29324
#
# Velocity S-wave (km/s) = 3.69404 4.12390 3.91487
# Velocity P-wave (km/s) = 6.51326 7.04747 6.78562
#
# Compressibility (1/GPa) = 0.02405885
#
# Stress axis : x y z
#
# Youngs Moduli (GPa) = 43.08433 43.08433 113.94239
#
# Poissons Ratio (x) = 0.43205 0.31568
# Poissons Ratio (y) = 0.43205 0.31568
# Poissons Ratio (z) = 0.11937 0.11937
#
# Static dielectric constant tensor:
#      x y z
#    x 3.157630 0.000000 0.000000 
#    y 0.000000 3.157630 0.000000 
#    z 0.000000 0.000000 3.435970 
# 
# 
# High freq. dielectric constant tensor:
#      x y z
#    x 1.625160 0.000000 0.000000 
#    y 0.000000 1.625160 0.000000 
#    z 0.000000 0.000000 1.698520 
# 
# From -- ./inp_files/739.got.cif
#   From: 2010.03.12/outbox.cif.g09.slc.cpg/sg178_1_cif.got.tgz:739.got - 2010.04.02 07:02:38.
