data_PCOD8325017
_publ_section_title
;
Structure prediction by ZEFSAII (Michael W. Deem and Ramdas Pophale) SiO2 
 PCOD8325017
Probable space group: P 6/M
;
_chemical_formula_sum "Si O2"
_cell_formula_units_Z 90
_cell_length_a 25.786614
_cell_length_b 25.786614
_cell_length_c 9.413237
_cell_angle_alpha 90.000000
_cell_angle_beta 90.000000
_cell_angle_gamma 120.000000
_cell_volume 5420.736084
_symmetry_space_group_name_H-M "P 6/M"
_symmetry_group_IT_number 175
_symmetry_cell_setting 'hexagonal'
loop_
_space_group_symop_operation_xyz
x,y,z
x-y,x,z
-y,x-y,z
-x,-y,z
-x+y,-x,z
y,-x+y,z
-x,-y,-z
-x+y,-x,-z
y,-x+y,-z
x,y,-z
x-y,x,-z
-y,x-y,-z
loop_
_atom_site_type_symbol
_atom_site_label
_atom_site_fract_x
_atom_site_fract_y
_atom_site_fract_z
Si Si1 0.056210 0.630493 0.668582
Si Si2 0.648018 0.882056 0.336221
Si Si3 0.777683 0.937409 0.236837
Si Si4 0.905994 0.859833 0.500000
Si Si5 0.877954 0.637634 0.332956
Si Si6 0.573198 0.641244 0.168627
Si Si7 0.814573 0.064061 0.151142
Si Si8 0.528497 0.070740 0.156143
O O1 0.044379 0.619844 0.500000
O O2 0.101158 0.699353 0.708916
O O3 0.087674 0.593424 0.725495
O O4 0.994977 0.610770 0.751319
O O5 0.661802 0.893355 0.500000
O O6 0.711187 0.926037 0.265113
O O7 0.623180 0.812425 0.299930
O O8 0.815245 0.937106 0.370021
O O9 0.770739 0.884153 0.137912
O O10 0.812689 0.001294 0.163050
O O11 0.889834 0.912271 0.500000
O O12 0.889565 0.633476 0.500000
O O13 0.886077 0.590026 0.240883
O O14 0.924349 0.705306 0.281257
O O15 0.501723 0.598329 0.194852
O O16 0.587727 0.647315 0.000000
O O17 0.784892 0.065618 0.000000
O O18 0.500000 0.000000 0.149937
O O19 0.522144 0.093830 0.000000
#
# Coordination Sequence:
#
# PCOD8325017 Si02
#       8
#    12  12  12   6  12  12  12  12
#     4  10  18  29  47  73 100 130 165 204 238 287
#     4   9  19  32  47  71 100 125 159 199 247 296
#     4  11  21  34  56  71  94 126 161 202 258 314
#     4  12  23  38  58  82  94 120 167 227 275 329
#     4  10  21  34  51  71  96 130 166 206 248 296
#     4  10  19  32  48  69 100 132 166 204 244 288
#     4  11  23  37  51  71  97 124 161 202 255 317
#     4   8  16  30  46  66  97 134 163 192 235 279
#
# _framework density 16.602910999999999
#
# number of rings (size 3 to 8) (size 9 to 14) (size 15 to 20)
#    0.000    2.000    2.000    3.267    1.867    4.000 
#    0.000    7.333    0.000    0.000    0.000    1.867 
#    1.333    0.000    0.800    0.000    1.067    0.000 
#
# Total GULP energy -1115429.700487 kJ/mol
# GULP energy per Si atom -12393.663339 kJ/mol
# Density = 1.656512 g / cm^3
# Si number density = 16.602911 Si / 1000 Ang^3
#
#
#
# Elastic Constant Matrix: (Units=GPa)
#
#
# Indices 1 2 3 4 5 6 
#
# 1 87.4477 40.1878 38.9326 0.0000 0.0000 0.0000
# 2 40.1878 87.4477 38.9326 0.0000 0.0000 0.0000
# 3 38.9326 38.9326 98.4924 0.0000 0.0000 0.0000
# 4 0.0000 0.0000 0.0000 19.2593 0.0000 0.0000
# 5 0.0000 0.0000 0.0000 0.0000 19.2593 0.0000
# 6 0.0000 0.0000 0.0000 0.0000 0.0000 23.6300
#
#
#
# Elastic Compliance Matrix: (Units=1/GPa)
#
#
# Indices 1 2 3 4 5 6 
#
# 1 0.015742 -0.005418 -0.004081 0.000000 0.000000 0.000000
# 2 -0.005418 0.015742 -0.004081 0.000000 0.000000 0.000000
# 3 -0.004081 -0.004081 0.013380 0.000000 0.000000 0.000000
# 4 0.000000 0.000000 0.000000 0.051923 0.000000 0.000000
# 5 0.000000 0.000000 0.000000 0.000000 0.051923 0.000000
# 6 0.000000 0.000000 0.000000 0.000000 0.000000 0.042319
#
#
# Mechanical properties :
#
#
# Convention : Reuss Voigt Hill
#
# Bulk Modulus (GPa) = 56.48434 56.61043 56.54738
# Shear Modulus (GPa) = 22.31246 22.78534 22.54890
#
# Velocity S-wave (km/s) = 3.66989 3.70857 3.68928
# Velocity P-wave (km/s) = 7.21471 7.24629 7.23052
#
# Compressibility (1/GPa) = 0.01770402
#
# Stress axis : x y z
#
# Youngs Moduli (GPa) = 63.52403 63.52403 74.74115
#
# Poissons Ratio (x) = 0.34414 0.30503
# Poissons Ratio (y) = 0.34414 0.30503
# Poissons Ratio (z) = 0.25925 0.25925
#
# Static dielectric constant tensor:
#      x y z
#    x 3.258480 0.000000 0.000000 
#    y 0.000000 3.258480 0.000000 
#    z 0.000000 0.000000 3.213650 
# 
# 
# High freq. dielectric constant tensor:
#      x y z
#    x 1.623340 0.000000 0.000000 
#    y 0.000000 1.623340 0.000000 
#    z 0.000000 0.000000 1.650570 
# 
# From -- ./inp_files/1479.got.cif
#   From: 2010.03.12/outbox.cif.g09.slc.cpg/sg175_1_cif.got.tgz:1479.got - 2010.04.02 06:55:29.
