data_PCOD8325443
_publ_section_title
;
Structure prediction by ZEFSAII (Michael W. Deem and Ramdas Pophale) SiO2 
 PCOD8325443
Probable space group: P 63/M
;
_chemical_formula_sum "Si O2"
_cell_formula_units_Z 54
_cell_length_a 21.370587
_cell_length_b 21.370587
_cell_length_c 7.714184
_cell_angle_alpha 90.000000
_cell_angle_beta 90.000000
_cell_angle_gamma 120.000000
_cell_volume 3051.079528
_symmetry_space_group_name_H-M "P 63/M"
_symmetry_group_IT_number 176
_symmetry_cell_setting 'hexagonal'
loop_
_space_group_symop_operation_xyz
x,y,z
x-y,x,1/2+z
-y,x-y,z
-x,-y,1/2+z
-x+y,-x,z
y,-x+y,1/2+z
-x,-y,-z
-x+y,-x,1/2-z
y,-x+y,-z
x,y,1/2-z
x-y,x,-z
-y,x-y,1/2-z
loop_
_atom_site_type_symbol
_atom_site_label
_atom_site_fract_x
_atom_site_fract_y
_atom_site_fract_z
Si Si1 0.357556 0.471730 0.750000
Si Si2 0.619540 0.021535 0.938579
Si Si3 0.804353 0.578999 0.250000
Si Si4 0.216839 0.895994 0.453245
Si Si5 0.504177 0.607382 0.750000
Si Si6 0.888681 0.050676 0.550014
O O1 0.365823 0.431286 0.921048
O O2 0.281619 0.468424 0.750000
O O3 0.418258 0.555925 0.750000
O O4 0.620197 0.056851 0.750000
O O5 0.700903 0.040193 0.984019
O O6 0.588330 0.052209 0.082194
O O7 0.828718 0.626573 0.425425
O O8 0.832753 0.522235 0.250000
O O9 0.201985 0.872421 0.250000
O O10 0.165973 0.925682 0.530181
O O11 0.881190 0.056506 0.750000
O O12 0.969989 0.103258 0.495524
#
# Coordination Sequence:
#
# PCOD8325443 Si02
#       6
#     6  12   6  12   6  12
#     4  10  20  34  58  84 109 139 184 217 259 326
#     4   8  18  33  56  80 110 131 178 224 269 312
#     4  10  22  36  56  79 120 141 175 225 264 330
#     4   9  20  37  54  79 108 143 174 230 283 316
#     4  10  18  38  54  81 111 148 171 214 279 312
#     4  11  24  37  54  73 103 144 191 235 278 331
#
# _framework density 17.698654999999999
#
# number of rings (size 3 to 8) (size 9 to 14) (size 15 to 20)
#    0.667    1.778    0.000    1.556    6.222    0.000 
#    2.667    0.000    0.000    0.000    0.000    0.000 
#    0.000    0.000    0.000    0.000    0.000    0.000 
#
# Total GULP energy -669192.645864 kJ/mol
# GULP energy per Si atom -12392.456405 kJ/mol
# Density = 1.765837 g / cm^3
# Si number density = 17.698655 Si / 1000 Ang^3
#
#
#
# Elastic Constant Matrix: (Units=GPa)
#
#
# Indices 1 2 3 4 5 6 
#
# 1 125.3120 73.2548 36.7774 0.0000 0.0000 0.0000
# 2 73.2548 125.3120 36.7774 0.0000 0.0000 0.0000
# 3 36.7774 36.7774 76.3635 0.0000 0.0000 0.0000
# 4 0.0000 0.0000 0.0000 11.8648 0.0000 0.0000
# 5 0.0000 0.0000 0.0000 0.0000 11.8648 0.0000
# 6 0.0000 0.0000 0.0000 0.0000 0.0000 26.0286
#
#
#
# Elastic Compliance Matrix: (Units=1/GPa)
#
#
# Indices 1 2 3 4 5 6 
#
# 1 0.012670 -0.006540 -0.002952 0.000000 0.000000 0.000000
# 2 -0.006540 0.012670 -0.002952 0.000000 0.000000 0.000000
# 3 -0.002952 -0.002952 0.015939 0.000000 0.000000 0.000000
# 4 0.000000 0.000000 0.000000 0.084283 0.000000 0.000000
# 5 0.000000 0.000000 0.000000 0.000000 0.084283 0.000000
# 6 0.000000 0.000000 0.000000 0.000000 0.000000 0.038419
#
#
# Mechanical properties :
#
#
# Convention : Reuss Voigt Hill
#
# Bulk Modulus (GPa) = 61.01401 68.95627 64.98514
# Shear Modulus (GPa) = 17.94589 21.96349 19.95469
#
# Velocity S-wave (km/s) = 3.18774 3.52656 3.36142
# Velocity P-wave (km/s) = 6.93524 7.45842 7.20159
#
# Compressibility (1/GPa) = 0.01638968
#
# Stress axis : x y z
#
# Youngs Moduli (GPa) = 78.92890 78.92890 62.74013
#
# Poissons Ratio (x) = 0.51620 0.18521
# Poissons Ratio (y) = 0.51620 0.18521
# Poissons Ratio (z) = 0.23300 0.23300
#
# Static dielectric constant tensor:
#      x y z
#    x 3.112890 0.000000 0.000000 
#    y 0.000000 3.112890 0.000000 
#    z 0.000000 0.000000 3.425000 
# 
# 
# High freq. dielectric constant tensor:
#      x y z
#    x 1.672510 0.000000 0.000000 
#    y 0.000000 1.672510 0.000000 
#    z 0.000000 0.000000 1.688940 
# 
# From -- ./inp_files/884.got.cif
#   From: 2010.06.25/outbox.cif.g09.slc.cpg/sg176_1_cif.got.tgz:884.got - 2010.06.28 12:15:01.
