data_PCOD8325298
_publ_section_title
;
Structure prediction by ZEFSAII (Michael W. Deem and Ramdas Pophale) SiO2 
 PCOD8325298
Probable space group: P 6/M
;
_chemical_formula_sum "Si O2"
_cell_formula_units_Z 52
_cell_length_a 18.070443
_cell_length_b 18.070443
_cell_length_c 8.852582
_cell_angle_alpha 90.000000
_cell_angle_beta 90.000000
_cell_angle_gamma 120.000000
_cell_volume 2503.445775
_symmetry_space_group_name_H-M "P 6/M"
_symmetry_group_IT_number 175
_symmetry_cell_setting 'hexagonal'
loop_
_space_group_symop_operation_xyz
x,y,z
x-y,x,z
-y,x-y,z
-x,-y,z
-x+y,-x,z
y,-x+y,z
-x,-y,-z
-x+y,-x,-z
y,-x+y,-z
x,y,-z
x-y,x,-z
-y,x-y,-z
loop_
_atom_site_type_symbol
_atom_site_label
_atom_site_fract_x
_atom_site_fract_y
_atom_site_fract_z
Si Si1 0.302720 0.351207 0.177697
Si Si2 0.029398 0.844763 0.324714
Si Si3 0.666666 0.333334 0.177646
Si Si4 0.079013 0.486104 0.835522
Si Si5 0.819447 0.345268 0.323340
O O1 0.220865 0.263988 0.225418
O O2 0.388048 0.346208 0.219123
O O3 0.303610 0.429736 0.263427
O O4 0.300213 0.366343 0.000000
O O5 0.032875 0.824281 0.500000
O O6 0.939680 0.837101 0.282634
O O7 0.727929 0.298678 0.240482
O O8 0.666667 0.333334 0.000000
O O9 0.139381 0.553490 0.711197
O O10 0.000000 0.500000 0.860554
O O11 0.125920 0.502171 0.000000
O O12 0.806375 0.329629 0.500000
#
# Coordination Sequence:
#
# PCOD8325298 Si02
#       5
#    12  12   4  12  12
#     4  10  21  38  61  89 120 155 196 241 292 351
#     4  10  22  41  64  89 118 152 191 239 297 357
#     4  12  25  41  58  78 115 164 205 243 295 353
#     4   8  16  33  55  80 114 155 194 234 286 344
#     4  11  22  37  58  86 119 155 201 251 295 343
#
# _framework density 20.771370999999998
#
# number of rings (size 3 to 8) (size 9 to 14) (size 15 to 20)
#    0.000    2.077    0.000    5.077    0.000    8.769 
#    0.000    4.615    0.000    1.385    0.000    0.000 
#    0.000    0.000    0.000    0.000    0.000    0.000 
#
# Total GULP energy -644658.326884 kJ/mol
# GULP energy per Si atom -12397.275517 kJ/mol
# Density = 2.072409 g / cm^3
# Si number density = 20.771371 Si / 1000 Ang^3
#
#
#
# Elastic Constant Matrix: (Units=GPa)
#
#
# Indices 1 2 3 4 5 6 
#
# 1 108.0851 44.7380 47.7058 0.0000 0.0000 0.0002
# 2 44.7380 108.0862 47.7062 0.0000 0.0000 0.0002
# 3 47.7058 47.7062 130.8592 0.0000 0.0000 0.0002
# 4 0.0000 0.0000 0.0000 -56.9620 0.0042 0.0000
# 5 0.0000 0.0000 0.0000 0.0042 -56.9573 0.0000
# 6 0.0002 0.0002 0.0002 0.0000 0.0000 31.6744
#
#
#
# Elastic Compliance Matrix: (Units=1/GPa)
#
#
# Indices 1 2 3 4 5 6 
#
# 1 0.012129 -0.003657 -0.003088 0.000000 0.000000 0.000000
# 2 -0.003657 0.012129 -0.003088 0.000000 0.000000 0.000000
# 3 -0.003088 -0.003088 0.009894 0.000000 0.000000 0.000000
# 4 0.000000 0.000000 0.000000 -0.017556 -0.000001 0.000000
# 5 0.000000 0.000000 0.000000 -0.000001 -0.017557 0.000000
# 6 0.000000 0.000000 0.000000 0.000000 0.000000 0.031571
#
#
# Mechanical properties :
#
#
# Convention : Reuss Voigt Hill
#
# Bulk Modulus (GPa) = 69.04519 69.70339 69.37429
# Shear Modulus (GPa) = 90.73482 -2.65696 44.03893
#
# Velocity S-wave (km/s) = 6.61645 -1.13222 4.60953
# Velocity P-wave (km/s) = 9.57511 5.64987 7.86142
#
# Compressibility (1/GPa) = 0.01448327
#
# Stress axis : x y z
#
# Youngs Moduli (GPa) = 82.44803 82.44878 101.07497
#
# Poissons Ratio (x) = 0.30152 0.31216
# Poissons Ratio (y) = 0.30152 0.31216
# Poissons Ratio (z) = 0.25464 0.25464
#
# Static dielectric constant tensor:
#      x y z
#    x 3.915370 0.000000 0.000000 
#    y 0.000000 3.915350 0.000000 
#    z 0.000000 0.000000 3.628590 
# 
# 
# High freq. dielectric constant tensor:
#      x y z
#    x 1.811610 0.000000 0.000000 
#    y 0.000000 1.811610 0.000000 
#    z 0.000000 0.000000 1.809950 
# 
# From -- ./inp_files/646.got.cif
#   From: 2010.03.12/outbox.cif.g09.slc.cpg/sg175_1_cif.got.tgz:646.got - 2010.04.02 06:55:29.
