data_PCOD8325333
_publ_section_title
;
Structure prediction by ZEFSAII (Michael W. Deem and Ramdas Pophale) SiO2 
 PCOD8325333
Probable space group: P 6/M
;
_chemical_formula_sum "Si O2"
_cell_formula_units_Z 76
_cell_length_a 19.096105
_cell_length_b 19.096105
_cell_length_c 12.754322
_cell_angle_alpha 90.000000
_cell_angle_beta 90.000000
_cell_angle_gamma 120.000000
_cell_volume 4027.889955
_symmetry_space_group_name_H-M "P 6/M"
_symmetry_group_IT_number 175
_symmetry_cell_setting 'hexagonal'
loop_
_space_group_symop_operation_xyz
x,y,z
x-y,x,z
-y,x-y,z
-x,-y,z
-x+y,-x,z
y,-x+y,z
-x,-y,-z
-x+y,-x,-z
y,-x+y,-z
x,y,-z
x-y,x,-z
-y,x-y,-z
loop_
_atom_site_type_symbol
_atom_site_label
_atom_site_fract_x
_atom_site_fract_y
_atom_site_fract_z
Si Si1 0.823846 0.435813 0.616710
Si Si2 0.407745 0.958906 0.744279
Si Si3 0.210449 0.725475 0.690999
Si Si4 0.287742 0.343736 0.620528
Si Si5 0.698493 0.193126 0.122834
Si Si6 0.023942 0.855167 0.624227
Si Si7 0.333334 0.666668 0.878217
O O1 0.819378 0.403226 0.500000
O O2 0.909529 0.515304 0.637071
O O3 0.822824 0.370140 0.697192
O O4 0.756192 0.460371 0.633189
O O5 0.356681 0.899325 0.840216
O O6 0.500000 0.000000 0.782180
O O7 0.376912 0.019994 0.710383
O O8 0.152645 0.748008 0.624563
O O9 0.219639 0.764851 0.807181
O O10 0.315621 0.342305 0.500000
O O11 0.219695 0.255044 0.657497
O O12 0.657784 0.247618 0.156184
O O13 0.718629 0.196559 0.000000
O O14 0.025111 0.861696 0.500000
O O15 0.938962 0.841489 0.669889
O O16 0.333334 0.666668 0.000000
#
# Coordination Sequence:
#
# PCOD8325333 Si02
#       7
#    12  12  12  12  12  12   4
#     4  11  21  34  54  80 116 154 194 236 277 336
#     4  11  23  36  53  80 113 159 197 234 286 353
#     4  11  22  35  55  82 112 155 202 240 284 341
#     4  11  23  37  54  84 124 159 190 233 291 360
#     4  10  22  40  60  82 110 144 197 258 301 337
#     4   9  19  35  57  82 110 147 188 232 286 349
#     4   9  18  36  63  84 100 137 187 252 312 336
#
# _framework density 18.868441000000001
#
# number of rings (size 3 to 8) (size 9 to 14) (size 15 to 20)
#    0.000    1.579    1.579    4.263    4.421    1.579 
#    0.000    0.789    0.000    0.000    0.000    0.000 
#    0.000    0.000    0.000    1.421    0.000    0.158 
#
# Total GULP energy -941603.685546 kJ/mol
# GULP energy per Si atom -12389.522178 kJ/mol
# Density = 1.882550 g / cm^3
# Si number density = 18.868441 Si / 1000 Ang^3
#
#
#
# Elastic Constant Matrix: (Units=GPa)
#
#
# Indices 1 2 3 4 5 6 
#
# 1 101.0855 38.8635 21.7228 0.0000 0.0000 0.0001
# 2 38.8635 101.0843 21.7221 0.0000 0.0000 -0.0002
# 3 21.7228 21.7221 86.3431 0.0000 0.0000 0.0002
# 4 0.0000 0.0000 0.0000 21.2677 -0.0001 0.0000
# 5 0.0000 0.0000 0.0000 -0.0001 21.2677 0.0000
# 6 0.0001 -0.0002 0.0002 0.0000 0.0000 31.1103
#
#
#
# Elastic Compliance Matrix: (Units=1/GPa)
#
#
# Indices 1 2 3 4 5 6 
#
# 1 0.011911 -0.004160 -0.001950 0.000000 0.000000 0.000000
# 2 -0.004160 0.011911 -0.001950 0.000000 0.000000 0.000000
# 3 -0.001950 -0.001950 0.012563 0.000000 0.000000 0.000000
# 4 0.000000 0.000000 0.000000 0.047020 0.000000 0.000000
# 5 0.000000 0.000000 0.000000 0.000000 0.047020 0.000000
# 6 0.000000 0.000000 0.000000 0.000000 0.000000 0.032144
#
#
# Mechanical properties :
#
#
# Convention : Reuss Voigt Hill
#
# Bulk Modulus (GPa) = 49.34709 50.34774 49.84741
# Shear Modulus (GPa) = 26.96232 28.47611 27.71921
#
# Velocity S-wave (km/s) = 3.78427 3.88905 3.83701
# Velocity P-wave (km/s) = 6.73084 6.84892 6.79014
#
# Compressibility (1/GPa) = 0.02026462
#
# Stress axis : x y z
#
# Youngs Moduli (GPa) = 83.95471 83.95394 79.59968
#
# Poissons Ratio (x) = 0.34928 0.15522
# Poissons Ratio (y) = 0.34929 0.15521
# Poissons Ratio (z) = 0.16371 0.16370
#
# Static dielectric constant tensor:
#      x y z
#    x 3.407970 -0.000020 0.000000 
#    y -0.000020 3.407980 0.000000 
#    z 0.000000 0.000000 3.267980 
# 
# 
# High freq. dielectric constant tensor:
#      x y z
#    x 1.734000 0.000000 0.000000 
#    y 0.000000 1.734000 0.000000 
#    z 0.000000 0.000000 1.697520 
# 
# From -- ./inp_files/2567.got.cif
#   From: 2010.03.12/outbox.cif.g09.slc.cpg/sg175_2_cif.got.tgz:2567.got - 2010.04.02 06:55:29.
