data_PCOD8325987
_publ_section_title
;
Structure prediction by ZEFSAII (Michael W. Deem and Ramdas Pophale) SiO2 
 PCOD8325987
Probable space group: P 61 2 2
;
_chemical_formula_sum "Si O2"
_cell_formula_units_Z 48
_cell_length_a 11.520225
_cell_length_b 11.520225
_cell_length_c 18.732473
_cell_angle_alpha 90.000000
_cell_angle_beta 90.000000
_cell_angle_gamma 120.000000
_cell_volume 2153.018044
_symmetry_space_group_name_H-M "P 61 2 2"
_symmetry_group_IT_number 178
_symmetry_cell_setting 'hexagonal'
loop_
_space_group_symop_operation_xyz
x,y,z
x-y,x,1/6+z
-y,x-y,1/3+z
-x,-y,1/2+z
-x+y,-x,2/3+z
y,-x+y,5/6+z
x-y,-y,-z
-x,-x+y,2/3-z
y,x,1/3-z
-y,-x,5/6-z
-x+y,y,1/2-z
x,x-y,1/6-z
loop_
_atom_site_type_symbol
_atom_site_label
_atom_site_fract_x
_atom_site_fract_y
_atom_site_fract_z
Si Si1 0.762132 0.125625 0.727038
Si Si2 0.641015 0.697930 0.053291
Si Si3 0.658229 0.196592 0.597097
Si Si4 0.149513 0.297371 0.329753
O O1 0.688175 0.067202 0.801454
O O2 0.683350 0.181479 0.680457
O O3 0.909768 0.247608 0.743044
O O4 0.763611 0.006875 0.683007
O O5 0.690948 0.845474 0.083334
O O6 0.497702 0.592919 0.088248
O O7 0.697476 0.348738 0.583334
O O8 0.751666 0.164510 0.548661
O O9 0.179048 0.358095 0.250000
O O10 0.000000 0.171865 0.333334
#
# Coordination Sequence:
#
# PCOD8325987 Si02
#       4
#    12  12  12  12
#     4  12  24  47  73 100 149 188 245 304 368 442
#     4  11  26  45  70 106 142 193 239 304 366 436
#     4  11  27  44  71 105 142 195 243 296 371 432
#     4  12  25  46  74 109 143 191 252 309 368 440
#
# _framework density 22.294286
#
# number of rings (size 3 to 8) (size 9 to 14) (size 15 to 20)
#    0.000    0.500    5.000    1.500    3.500   11.000 
#    0.000    0.000    0.000    0.000    0.000    0.000 
#    0.000    0.000    0.000    0.000    0.000    0.000 
#
# Total GULP energy -595446.893789 kJ/mol
# GULP energy per Si atom -12405.143621 kJ/mol
# Density = 2.224354 g / cm^3
# Si number density = 22.294286 Si / 1000 Ang^3
#
#
#
# Elastic Constant Matrix: (Units=GPa)
#
#
# Indices 1 2 3 4 5 6 
#
# 1 99.8308 39.9733 -9.1593 0.0000 0.0000 0.0000
# 2 39.9733 99.8308 -9.1593 0.0000 0.0000 0.0000
# 3 -9.1593 -9.1593 83.1936 0.0000 0.0000 0.0000
# 4 0.0000 0.0000 0.0000 35.2188 0.0000 0.0000
# 5 0.0000 0.0000 0.0000 0.0000 35.2188 0.0000
# 6 0.0000 0.0000 0.0000 0.0000 0.0000 29.9288
#
#
#
# Elastic Compliance Matrix: (Units=1/GPa)
#
#
# Indices 1 2 3 4 5 6 
#
# 1 0.011982 -0.004724 0.000799 0.000000 0.000000 0.000000
# 2 -0.004724 0.011982 0.000799 0.000000 0.000000 0.000000
# 3 0.000799 0.000799 0.012196 0.000000 0.000000 0.000000
# 4 0.000000 0.000000 0.000000 0.028394 0.000000 0.000000
# 5 0.000000 0.000000 0.000000 0.000000 0.028394 0.000000
# 6 0.000000 0.000000 0.000000 0.000000 0.000000 0.033413
#
#
# Mechanical properties :
#
#
# Convention : Reuss Voigt Hill
#
# Bulk Modulus (GPa) = 33.43659 36.24049 34.83854
# Shear Modulus (GPa) = 35.06747 37.48664 36.27706
#
# Velocity S-wave (km/s) = 3.97033 4.10499 4.03822
# Velocity P-wave (km/s) = 6.00403 6.22565 6.11585
#
# Compressibility (1/GPa) = 0.02990736
#
# Stress axis : x y z
#
# Youngs Moduli (GPa) = 83.45890 83.45890 81.99348
#
# Poissons Ratio (x) = 0.39429 -0.06552
# Poissons Ratio (y) = 0.39429 -0.06552
# Poissons Ratio (z) = -0.06669 -0.06669
#
# Static dielectric constant tensor:
#      x y z
#    x 4.040480 0.000000 0.000000 
#    y 0.000000 4.040480 0.000000 
#    z 0.000000 0.000000 4.306770 
# 
# 
# High freq. dielectric constant tensor:
#      x y z
#    x 1.880710 0.000000 0.000000 
#    y 0.000000 1.880710 0.000000 
#    z 0.000000 0.000000 1.896720 
# 
# From -- ./inp_files/7269.got.cif
#   From: 2010.03.12/outbox.cif.g09.slc.cpg/sg178_4_cif.got.tgz:7269.got - 2010.04.02 07:02:38.
