data_PCOD8325965
_publ_section_title
;
Structure prediction by ZEFSAII (Michael W. Deem and Ramdas Pophale) SiO2 
 PCOD8325965
Probable space group: P 61 2 2
;
_chemical_formula_sum "Si O2"
_cell_formula_units_Z 84
_cell_length_a 21.618525
_cell_length_b 21.618525
_cell_length_c 11.341782
_cell_angle_alpha 90.000000
_cell_angle_beta 90.000000
_cell_angle_gamma 120.000000
_cell_volume 4590.542853
_symmetry_space_group_name_H-M "P 61 2 2"
_symmetry_group_IT_number 178
_symmetry_cell_setting 'hexagonal'
loop_
_space_group_symop_operation_xyz
x,y,z
x-y,x,1/6+z
-y,x-y,1/3+z
-x,-y,1/2+z
-x+y,-x,2/3+z
y,-x+y,5/6+z
x-y,-y,-z
-x,-x+y,2/3-z
y,x,1/3-z
-y,-x,5/6-z
-x+y,y,1/2-z
x,x-y,1/6-z
loop_
_atom_site_type_symbol
_atom_site_label
_atom_site_fract_x
_atom_site_fract_y
_atom_site_fract_z
Si Si1 0.968003 0.230142 0.207609
Si Si2 0.413841 0.114519 0.775733
Si Si3 0.555068 0.634017 0.140029
Si Si4 0.492948 0.410348 0.191329
Si Si5 0.831364 0.258724 0.661463
Si Si6 0.335936 0.550699 0.323488
Si Si7 0.171354 0.886945 0.791865
O O1 0.947686 0.283877 0.146672
O O2 0.900242 0.150514 0.213666
O O3 0.000000 0.264997 0.333334
O O4 0.029883 0.224871 0.136697
O O5 0.424793 0.105957 0.640921
O O6 0.418778 0.190295 0.772585
O O7 0.471380 0.112453 0.862579
O O8 0.618418 0.618418 0.166667
O O9 0.483153 0.562572 0.108400
O O10 0.546062 0.674780 0.250841
O O11 0.429621 0.429621 0.166667
O O12 0.517048 0.376342 0.085254
O O13 0.791058 0.276193 0.561769
O O14 0.885816 0.238117 0.600895
O O15 0.389135 0.610865 0.416667
O O16 0.289836 0.579671 0.250000
O O17 0.154475 0.845526 0.916667
#
# Coordination Sequence:
#
# PCOD8325965 Si02
#       7
#    12  12  12  12  12  12  12
#     4   9  18  31  52  84 115 152 188 242 289 361
#     4  11  22  38  58  82 117 153 200 240 307 366
#     4  11  24  40  57  84 117 155 194 251 305 360
#     4  11  25  39  63  90 115 153 197 257 308 369
#     4  11  22  38  60  82 117 155 195 252 299 365
#     4  12  25  47  66  92 120 159 211 256 309 366
#     4   9  18  31  53  84 117 148 191 236 300 352
#
# _framework density 18.298489
#
# number of rings (size 3 to 8) (size 9 to 14) (size 15 to 20)
#    0.000    1.429    2.857    2.571    8.000    0.000 
#    2.571    0.000    0.000    0.000    0.000    0.000 
#    0.000   98.286    0.000    0.000    0.000    0.000 
#
# Total GULP energy -1041044.141905 kJ/mol
# GULP energy per Si atom -12393.382642 kJ/mol
# Density = 1.825684 g / cm^3
# Si number density = 18.298489 Si / 1000 Ang^3
#
#
#
# Elastic Constant Matrix: (Units=GPa)
#
#
# Indices 1 2 3 4 5 6 
#
# 1 73.3089 47.7510 29.5950 0.0000 0.0000 0.0000
# 2 47.7510 73.3089 29.5950 0.0000 0.0000 0.0000
# 3 29.5950 29.5950 72.8642 0.0000 0.0000 0.0000
# 4 0.0000 0.0000 0.0000 26.2175 0.0000 0.0000
# 5 0.0000 0.0000 0.0000 0.0000 26.2175 0.0000
# 6 0.0000 0.0000 0.0000 0.0000 0.0000 12.7790
#
#
#
# Elastic Compliance Matrix: (Units=1/GPa)
#
#
# Indices 1 2 3 4 5 6 
#
# 1 0.024717 -0.014410 -0.004186 0.000000 0.000000 0.000000
# 2 -0.014410 0.024717 -0.004186 0.000000 0.000000 0.000000
# 3 -0.004186 -0.004186 0.017125 0.000000 0.000000 0.000000
# 4 0.000000 0.000000 0.000000 0.038142 0.000000 0.000000
# 5 0.000000 0.000000 0.000000 0.000000 0.038142 0.000000
# 6 0.000000 0.000000 0.000000 0.000000 0.000000 0.078254
#
#
# Mechanical properties :
#
#
# Convention : Reuss Voigt Hill
#
# Bulk Modulus (GPa) = 47.63348 48.15155 47.89251
# Shear Modulus (GPa) = 18.27080 20.54553 19.40816
#
# Velocity S-wave (km/s) = 3.16331 3.35445 3.26028
# Velocity P-wave (km/s) = 6.27933 6.43232 6.35628
#
# Compressibility (1/GPa) = 0.02099364
#
# Stress axis : x y z
#
# Youngs Moduli (GPa) = 40.45794 40.45794 58.39428
#
# Poissons Ratio (x) = 0.58299 0.24447
# Poissons Ratio (y) = 0.58299 0.24447
# Poissons Ratio (z) = 0.16938 0.16938
#
# Static dielectric constant tensor:
#      x y z
#    x 3.396730 0.000000 0.000000 
#    y 0.000000 3.396730 0.000000 
#    z 0.000000 0.000000 3.365550 
# 
# 
# High freq. dielectric constant tensor:
#      x y z
#    x 1.711220 0.000000 0.000000 
#    y 0.000000 1.711220 0.000000 
#    z 0.000000 0.000000 1.707300 
# 
# From -- ./inp_files/4765.got.cif
#   From: 2010.03.12/outbox.cif.g09.slc.cpg/sg178_3_cif.got.tgz:4765.got - 2010.04.02 07:02:38.
