data_PCOD8325641
_publ_section_title
;
Structure prediction by ZEFSAII (Michael W. Deem and Ramdas Pophale) SiO2 
 PCOD8325641
Probable space group: P 63/M
;
_chemical_formula_sum "Si O2"
_cell_formula_units_Z 66
_cell_length_a 20.771272
_cell_length_b 20.771272
_cell_length_c 8.517195
_cell_angle_alpha 90.000000
_cell_angle_beta 90.000000
_cell_angle_gamma 120.000000
_cell_volume 3182.390050
_symmetry_space_group_name_H-M "P 63/M"
_symmetry_group_IT_number 176
_symmetry_cell_setting 'hexagonal'
loop_
_space_group_symop_operation_xyz
x,y,z
x-y,x,1/2+z
-y,x-y,z
-x,-y,1/2+z
-x+y,-x,z
y,-x+y,1/2+z
-x,-y,-z
-x+y,-x,1/2-z
y,-x+y,-z
x,y,1/2-z
x-y,x,-z
-y,x-y,1/2-z
loop_
_atom_site_type_symbol
_atom_site_label
_atom_site_fract_x
_atom_site_fract_y
_atom_site_fract_z
Si Si1 0.284609 0.251232 0.577900
Si Si2 0.826511 0.512504 0.250000
Si Si3 0.911751 0.323285 0.501444
Si Si4 0.237534 0.810496 0.426996
Si Si5 0.012210 0.435368 0.750000
Si Si6 0.524836 0.121462 0.250000
Si Si7 0.860447 0.866020 0.928296
O O1 0.256309 0.215760 0.750000
O O2 0.301383 0.335408 0.586788
O O3 0.357203 0.247228 0.533672
O O4 0.221319 0.204167 0.452134
O O5 0.791663 0.520165 0.416920
O O6 0.914592 0.573635 0.250000
O O7 0.816943 0.429594 0.250000
O O8 0.849202 0.250821 0.590773
O O9 0.866960 0.350749 0.395247
O O10 0.962023 0.395240 0.602849
O O11 0.272559 0.812721 0.250000
O O12 0.038180 0.523171 0.750000
O O13 0.884343 0.865595 0.750000
O O14 0.918203 0.859743 0.041188
#
# Coordination Sequence:
#
# PCOD8325641 Si02
#       7
#    12   6  12  12   6   6  12
#     4  11  23  39  61  96 134 170 215 271 336 393
#     4  10  23  43  64  93 139 176 214 265 347 385
#     4  12  21  41  66  99 135 172 224 273 335 407
#     4  11  24  40  65  98 140 179 221 273 332 407
#     4  10  22  38  63  98 139 168 214 275 343 391
#     4  10  23  41  65 101 128 176 220 280 340 406
#     4  12  26  43  64  85 121 170 226 275 326 384
#
# _framework density 20.739128999999998
#
# number of rings (size 3 to 8) (size 9 to 14) (size 15 to 20)
#    0.545    0.364    3.636    4.000    2.545    1.455 
#    1.636    0.000    0.000    2.909    0.000    0.000 
#    0.000    0.000    0.000    0.000    0.000    0.000 
#
# Total GULP energy -817689.787504 kJ/mol
# GULP energy per Si atom -12389.239205 kJ/mol
# Density = 2.069193 g / cm^3
# Si number density = 20.739129 Si / 1000 Ang^3
#
#
#
# Elastic Constant Matrix: (Units=GPa)
#
#
# Indices 1 2 3 4 5 6 
#
# 1 72.7169 33.5817 23.1148 0.0000 0.0000 0.0000
# 2 33.5817 72.7169 23.1148 0.0000 0.0000 0.0000
# 3 23.1148 23.1148 127.1749 0.0000 0.0000 0.0000
# 4 0.0000 0.0000 0.0000 -154.0443 0.0000 0.0000
# 5 0.0000 0.0000 0.0000 0.0000 -154.0443 0.0000
# 6 0.0000 0.0000 0.0000 0.0000 0.0000 19.5676
#
#
#
# Elastic Compliance Matrix: (Units=1/GPa)
#
#
# Indices 1 2 3 4 5 6 
#
# 1 0.017884 -0.007669 -0.001857 0.000000 0.000000 0.000000
# 2 -0.007669 0.017884 -0.001857 0.000000 0.000000 0.000000
# 3 -0.001857 -0.001857 0.008538 0.000000 0.000000 0.000000
# 4 0.000000 0.000000 0.000000 -0.006492 0.000000 0.000000
# 5 0.000000 0.000000 0.000000 0.000000 -0.006492 0.000000
# 6 0.000000 0.000000 0.000000 0.000000 0.000000 0.051105
#
#
# Mechanical properties :
#
#
# Convention : Reuss Voigt Hill
#
# Bulk Modulus (GPa) = 46.42221 48.02574 47.22397
# Shear Modulus (GPa) = 44.49527 -44.85105 -0.17789
#
# Velocity S-wave (km/s) = 4.63695 -4.65545 -0.29320
# Velocity P-wave (km/s) = 7.14849 2.38544 4.76501
#
# Compressibility (1/GPa) = 0.02154141
#
# Stress axis : x y z
#
# Youngs Moduli (GPa) = 55.91694 55.91694 117.12217
#
# Poissons Ratio (x) = 0.42881 0.21745
# Poissons Ratio (y) = 0.42881 0.21745
# Poissons Ratio (z) = 0.10382 0.10382
#
# Static dielectric constant tensor:
#      x y z
#    x 3.557270 0.000000 0.000000 
#    y 0.000000 3.557270 0.000000 
#    z 0.000000 0.000000 3.846580 
# 
# 
# High freq. dielectric constant tensor:
#      x y z
#    x 1.798280 0.000000 0.000000 
#    y 0.000000 1.798280 0.000000 
#    z 0.000000 0.000000 1.825740 
# 
# From -- ./inp_files/1063.got.cif
#   From: 2010.06.25/outbox.cif.g09.slc.cpg/sg176_1_cif.got.tgz:1063.got - 2010.06.28 12:15:01.
