data_PCOD8325715
_publ_section_title
;
Structure prediction by ZEFSAII (Michael W. Deem and Ramdas Pophale) SiO2 
 PCOD8325715
Probable space group: P 63/M
;
_chemical_formula_sum "Si O2"
_cell_formula_units_Z 48
_cell_length_a 18.668192
_cell_length_b 18.668192
_cell_length_c 7.548953
_cell_angle_alpha 90.000000
_cell_angle_beta 90.000000
_cell_angle_gamma 120.000000
_cell_volume 2278.357501
_symmetry_space_group_name_H-M "P 63/M"
_symmetry_group_IT_number 176
_symmetry_cell_setting 'hexagonal'
loop_
_space_group_symop_operation_xyz
x,y,z
x-y,x,1/2+z
-y,x-y,z
-x,-y,1/2+z
-x+y,-x,z
y,-x+y,1/2+z
-x,-y,-z
-x+y,-x,1/2-z
y,-x+y,-z
x,y,1/2-z
x-y,x,-z
-y,x-y,1/2-z
loop_
_atom_site_type_symbol
_atom_site_label
_atom_site_fract_x
_atom_site_fract_y
_atom_site_fract_z
Si Si1 0.629881 0.162153 0.750000
Si Si2 0.595690 0.041060 0.455138
Si Si3 0.736680 0.640503 0.043533
Si Si4 0.195363 0.711345 0.250000
Si Si5 0.823875 0.958795 0.948124
O O1 0.642879 0.122532 0.573023
O O2 0.539106 0.151543 0.750000
O O3 0.706608 0.255231 0.750000
O O4 0.612150 0.065776 0.250000
O O5 0.500000 0.000000 0.500000
O O6 0.633542 0.984255 0.507979
O O7 0.746939 0.624686 0.250000
O O8 0.808530 0.730782 0.979063
O O9 0.742670 0.572258 0.925487
O O10 0.827056 0.990776 0.750000
O O11 0.850097 0.888746 0.942793
#
# Coordination Sequence:
#
# PCOD8325715 Si02
#       5
#     6  12  12   6  12
#     4  12  27  44  70 101 139 187 227 273 349 421
#     4  12  21  40  71 101 127 172 226 289 344 402
#     4  11  24  42  69 103 135 174 235 292 343 397
#     4  12  27  46  68  97 149 179 225 281 345 415
#     4  11  26  43  66  94 136 181 227 276 338 408
#
# _framework density 21.067807999999999
#
# number of rings (size 3 to 8) (size 9 to 14) (size 15 to 20)
#    0.000    0.500    6.250    1.250    7.000    1.000 
#    0.000    0.000    0.000    3.000    0.000    0.000 
#    0.000    0.000    0.000    0.000    0.000    0.000 
#
# Total GULP energy -595287.953454 kJ/mol
# GULP energy per Si atom -12401.832364 kJ/mol
# Density = 2.101986 g / cm^3
# Si number density = 21.067808 Si / 1000 Ang^3
#
#
#
# Elastic Constant Matrix: (Units=GPa)
#
#
# Indices 1 2 3 4 5 6 
#
# 1 121.8762 43.8931 36.4565 0.0000 0.0000 0.0000
# 2 43.8931 121.8762 36.4565 0.0000 0.0000 0.0000
# 3 36.4565 36.4565 138.7527 0.0000 0.0000 0.0000
# 4 0.0000 0.0000 0.0000 22.3338 0.0000 0.0000
# 5 0.0000 0.0000 0.0000 0.0000 22.3338 0.0000
# 6 0.0000 0.0000 0.0000 0.0000 0.0000 38.9915
#
#
#
# Elastic Compliance Matrix: (Units=1/GPa)
#
#
# Indices 1 2 3 4 5 6 
#
# 1 0.009822 -0.003001 -0.001792 0.000000 0.000000 0.000000
# 2 -0.003001 0.009822 -0.001792 0.000000 0.000000 0.000000
# 3 -0.001792 -0.001792 0.008149 0.000000 0.000000 0.000000
# 4 0.000000 0.000000 0.000000 0.044775 0.000000 0.000000
# 5 0.000000 0.000000 0.000000 0.000000 0.044775 0.000000
# 6 0.000000 0.000000 0.000000 0.000000 0.000000 0.025647
#
#
# Mechanical properties :
#
#
# Convention : Reuss Voigt Hill
#
# Bulk Modulus (GPa) = 68.39089 68.45746 68.42417
# Shear Modulus (GPa) = 31.04920 34.44509 32.74714
#
# Velocity S-wave (km/s) = 3.84314 4.04785 3.94683
# Velocity P-wave (km/s) = 7.22674 7.37640 7.30195
#
# Compressibility (1/GPa) = 0.01462183
#
# Stress axis : x y z
#
# Youngs Moduli (GPa) = 101.81211 101.81211 122.71747
#
# Poissons Ratio (x) = 0.30557 0.21992
# Poissons Ratio (y) = 0.30557 0.21992
# Poissons Ratio (z) = 0.18246 0.18246
#
# Static dielectric constant tensor:
#      x y z
#    x 3.727140 0.000000 0.000000 
#    y 0.000000 3.727140 0.000000 
#    z 0.000000 0.000000 4.163050 
# 
# 
# High freq. dielectric constant tensor:
#      x y z
#    x 1.825840 0.000000 0.000000 
#    y 0.000000 1.825840 0.000000 
#    z 0.000000 0.000000 1.839670 
# 
# From -- ./inp_files/644.got.cif
#   From: 2010.06.25/outbox.cif.g09.slc.cpg/sg176_1_cif.got.tgz:644.got - 2010.06.28 12:15:01.
