data_PCOD8325423
_publ_section_title
;
Structure prediction by ZEFSAII (Michael W. Deem and Ramdas Pophale) SiO2 
 PCOD8325423
Probable space group: P 63/M
;
_chemical_formula_sum "Si O2"
_cell_formula_units_Z 40
_cell_length_a 18.931179
_cell_length_b 18.931179
_cell_length_c 9.514822
_cell_angle_alpha 90.000000
_cell_angle_beta 90.000000
_cell_angle_gamma 120.000000
_cell_volume 2953.157594
_symmetry_space_group_name_H-M "P 63/M"
_symmetry_group_IT_number 176
_symmetry_cell_setting 'hexagonal'
loop_
_space_group_symop_operation_xyz
x,y,z
x-y,x,1/2+z
-y,x-y,z
-x,-y,1/2+z
-x+y,-x,z
y,-x+y,1/2+z
-x,-y,-z
-x+y,-x,1/2-z
y,-x+y,-z
x,y,1/2-z
x-y,x,-z
-y,x-y,1/2-z
loop_
_atom_site_type_symbol
_atom_site_label
_atom_site_fract_x
_atom_site_fract_y
_atom_site_fract_z
Si Si1 0.457223 0.381237 0.410558
Si Si2 0.746901 0.496040 0.411714
Si Si3 0.455624 0.073888 0.409984
Si Si4 0.333334 0.666668 0.081279
O O1 0.438415 0.389291 0.250000
O O2 0.450754 0.294352 0.440317
O O3 0.547961 0.452988 0.452582
O O4 0.388732 0.387927 0.499377
O O5 0.730872 0.462337 0.250000
O O6 0.706184 0.552305 0.435502
O O7 0.707898 0.424402 0.523805
O O8 0.437478 0.045121 0.250000
O O9 0.333334 0.666668 0.250000
#
# Coordination Sequence:
#
# PCOD8325423 Si02
#       4
#    12  12  12   4
#     4   9  17  28  43  58  77 103 133 166 199 235
#     4  10  18  32  46  55  75 112 141 161 199 252
#     4   9  17  28  43  58  77 103 133 166 199 235
#     4  12  22  26  37  63  82  98 133 183 211 224
#
# _framework density 13.544824
#
# number of rings (size 3 to 8) (size 9 to 14) (size 15 to 20)
#    0.000    2.400    3.000    0.900    0.000    2.400 
#    0.000    0.000    0.000    0.000    0.000    0.000 
#    0.000    0.000    0.000    0.900    0.000   10.800 
#
# Total GULP energy -495904.756055 kJ/mol
# GULP energy per Si atom -12397.618901 kJ/mol
# Density = 1.351400 g / cm^3
# Si number density = 13.544824 Si / 1000 Ang^3
#
#
#
# Elastic Constant Matrix: (Units=GPa)
#
#
# Indices 1 2 3 4 5 6 
#
# 1 73.7892 32.9826 30.9169 0.0000 0.0000 0.0022
# 2 32.9826 73.7936 30.9204 0.0000 0.0000 0.0021
# 3 30.9169 30.9204 57.3916 0.0000 0.0000 0.0030
# 4 0.0000 0.0000 0.0000 20.2407 0.0001 0.0000
# 5 0.0000 0.0000 0.0000 0.0001 20.2409 0.0000
# 6 0.0022 0.0021 0.0030 0.0000 0.0000 20.4045
#
#
#
# Elastic Compliance Matrix: (Units=1/GPa)
#
#
# Indices 1 2 3 4 5 6 
#
# 1 0.019059 -0.005446 -0.007333 0.000000 0.000000 0.000000
# 2 -0.005446 0.019059 -0.007334 0.000000 0.000000 0.000000
# 3 -0.007333 -0.007334 0.025326 0.000000 0.000000 -0.000002
# 4 0.000000 0.000000 0.000000 0.049405 0.000000 0.000000
# 5 0.000000 0.000000 0.000000 0.000000 0.049405 0.000000
# 6 0.000000 0.000000 -0.000002 0.000000 0.000000 0.049009
#
#
# Mechanical properties :
#
#
# Convention : Reuss Voigt Hill
#
# Bulk Modulus (GPa) = 43.07204 43.84601 43.45902
# Shear Modulus (GPa) = 19.28808 19.52086 19.40447
#
# Velocity S-wave (km/s) = 3.77771 3.80044 3.78909
# Velocity P-wave (km/s) = 7.13420 7.19021 7.16226
#
# Compressibility (1/GPa) = 0.02321692
#
# Stress axis : x y z
#
# Youngs Moduli (GPa) = 52.46930 52.46994 39.48535
#
# Poissons Ratio (x) = 0.28574 0.28954
# Poissons Ratio (y) = 0.28574 0.28960
# Poissons Ratio (z) = 0.38475 0.38483
#
# Static dielectric constant tensor:
#      x y z
#    x 2.566860 0.000000 0.000000 
#    y 0.000000 2.566870 0.000000 
#    z 0.000000 0.000000 2.728150 
# 
# 
# High freq. dielectric constant tensor:
#      x y z
#    x 1.487850 0.000000 0.000000 
#    y 0.000000 1.487850 0.000000 
#    z 0.000000 0.000000 1.520840 
# 
# From -- ./inp_files/477.got.cif
#   From: 2010.06.25/outbox.cif.g09.slc.cpg/sg176_1_cif.got.tgz:477.got - 2010.06.28 12:15:01.
