data_PCOD8325633
_publ_section_title
;
Structure prediction by ZEFSAII (Michael W. Deem and Ramdas Pophale) SiO2 
 PCOD8325633
Probable space group: P 63/M
;
_chemical_formula_sum "Si O2"
_cell_formula_units_Z 52
_cell_length_a 11.446898
_cell_length_b 11.446898
_cell_length_c 21.959244
_cell_angle_alpha 90.000000
_cell_angle_beta 90.000000
_cell_angle_gamma 120.000000
_cell_volume 2491.860019
_symmetry_space_group_name_H-M "P 63/M"
_symmetry_group_IT_number 176
_symmetry_cell_setting 'hexagonal'
loop_
_space_group_symop_operation_xyz
x,y,z
x-y,x,1/2+z
-y,x-y,z
-x,-y,1/2+z
-x+y,-x,z
y,-x+y,1/2+z
-x,-y,-z
-x+y,-x,1/2-z
y,-x+y,-z
x,y,1/2-z
x-y,x,-z
-y,x-y,1/2-z
loop_
_atom_site_type_symbol
_atom_site_label
_atom_site_fract_x
_atom_site_fract_y
_atom_site_fract_z
Si Si1 0.914338 0.330065 0.679538
Si Si2 0.587746 0.665394 0.128380
Si Si3 0.896612 0.695358 0.501992
Si Si4 0.614337 0.787637 0.628994
Si Si5 0.333335 0.666668 0.821066
O O1 0.932169 0.373545 0.750000
O O2 0.931144 0.453098 0.637089
O O3 0.769628 0.198740 0.670665
O O4 0.025536 0.289393 0.658128
O O5 0.602752 0.708071 0.057445
O O6 0.721560 0.661849 0.149499
O O7 0.810894 0.766641 0.518777
O O8 0.828797 0.601156 0.443748
O O9 0.470209 0.679907 0.655092
O O10 0.333334 0.666668 0.750000
#
# Coordination Sequence:
#
# PCOD8325633 Si02
#       5
#    12  12  12  12   4
#     4  12  25  43  66  96 137 179 222 276 335 401
#     4  11  25  44  69 100 132 178 228 274 340 402
#     4  10  21  41  68  99 138 174 221 279 340 402
#     4  11  24  42  69  99 129 177 223 280 337 402
#     4  12  24  42  66  93 135 177 223 284 337 399
#
# _framework density 20.867947000000001
#
# number of rings (size 3 to 8) (size 9 to 14) (size 15 to 20)
#    0.000    0.923    4.615    2.077    0.000    5.538 
#    1.385    0.000    0.000    0.000    0.000    0.000 
#    0.000    0.000    0.000    0.000    0.000    0.000 
#
# Total GULP energy -644917.908646 kJ/mol
# GULP energy per Si atom -12402.267474 kJ/mol
# Density = 2.082045 g / cm^3
# Si number density = 20.867947 Si / 1000 Ang^3
#
#
#
# Elastic Constant Matrix: (Units=GPa)
#
#
# Indices 1 2 3 4 5 6 
#
# 1 112.2397 42.2857 45.1140 0.0000 0.0000 -0.0003
# 2 42.2857 112.2395 45.1134 0.0000 0.0000 0.0000
# 3 45.1140 45.1134 124.4561 0.0000 0.0000 0.0000
# 4 0.0000 0.0000 0.0000 31.1396 -0.0001 0.0000
# 5 0.0000 0.0000 0.0000 -0.0001 31.1401 0.0000
# 6 -0.0003 0.0000 0.0000 0.0000 0.0000 34.9764
#
#
#
# Elastic Compliance Matrix: (Units=1/GPa)
#
#
# Indices 1 2 3 4 5 6 
#
# 1 0.011252 -0.003043 -0.002976 0.000000 0.000000 0.000000
# 2 -0.003043 0.011252 -0.002976 0.000000 0.000000 0.000000
# 3 -0.002976 -0.002976 0.010192 0.000000 0.000000 0.000000
# 4 0.000000 0.000000 0.000000 0.032113 0.000000 0.000000
# 5 0.000000 0.000000 0.000000 0.000000 0.032113 0.000000
# 6 0.000000 0.000000 0.000000 0.000000 0.000000 0.028591
#
#
# Mechanical properties :
#
#
# Convention : Reuss Voigt Hill
#
# Bulk Modulus (GPa) = 67.99239 68.21796 68.10518
# Shear Modulus (GPa) = 33.69170 33.87937 33.78554
#
# Velocity S-wave (km/s) = 4.02247 4.03365 4.02806
# Velocity P-wave (km/s) = 7.36387 7.37937 7.37162
#
# Compressibility (1/GPa) = 0.01470753
#
# Stress axis : x y z
#
# Youngs Moduli (GPa) = 88.87290 88.87305 98.11422
#
# Poissons Ratio (x) = 0.27045 0.29195
# Poissons Ratio (y) = 0.27045 0.29195
# Poissons Ratio (z) = 0.26446 0.26445
#
# Static dielectric constant tensor:
#      x y z
#    x 3.778680 0.000010 0.000000 
#    y 0.000010 3.778690 0.000000 
#    z 0.000000 0.000000 3.697090 
# 
# 
# High freq. dielectric constant tensor:
#      x y z
#    x 1.820960 0.000000 0.000000 
#    y 0.000000 1.820960 0.000000 
#    z 0.000000 0.000000 1.821860 
# 
# From -- ./inp_files/3693.got.cif
#   From: 2010.06.25/outbox.cif.g09.slc.cpg/sg176_2_cif.got.tgz:3693.got - 2010.06.28 12:15:01.
