data_PCOD8325481
_publ_section_title
;
Structure prediction by ZEFSAII (Michael W. Deem and Ramdas Pophale) SiO2 
 PCOD8325481
Probable space group: P 63/M
;
_chemical_formula_sum "Si O2"
_cell_formula_units_Z 66
_cell_length_a 17.949934
_cell_length_b 17.949934
_cell_length_c 13.137885
_cell_angle_alpha 90.000000
_cell_angle_beta 90.000000
_cell_angle_gamma 120.000000
_cell_volume 3665.910011
_symmetry_space_group_name_H-M "P 63/M"
_symmetry_group_IT_number 176
_symmetry_cell_setting 'hexagonal'
loop_
_space_group_symop_operation_xyz
x,y,z
x-y,x,1/2+z
-y,x-y,z
-x,-y,1/2+z
-x+y,-x,z
y,-x+y,1/2+z
-x,-y,-z
-x+y,-x,1/2-z
y,-x+y,-z
x,y,1/2-z
x-y,x,-z
-y,x-y,1/2-z
loop_
_atom_site_type_symbol
_atom_site_label
_atom_site_fract_x
_atom_site_fract_y
_atom_site_fract_z
Si Si1 0.436014 0.956481 0.134732
Si Si2 0.661773 0.786647 0.866537
Si Si3 0.279269 0.316467 0.866967
Si Si4 0.510728 0.614340 0.926612
Si Si5 0.409023 0.637307 0.750000
Si Si6 0.817170 0.841895 0.992059
O O1 0.415988 0.917649 0.250000
O O2 0.388589 0.011139 0.112118
O O3 0.537981 0.016217 0.121294
O O4 0.404735 0.884152 0.045479
O O5 0.640307 0.760069 0.750000
O O6 0.641733 0.862254 0.897098
O O7 0.601770 0.701654 0.930564
O O8 0.762328 0.819946 0.887880
O O9 0.264658 0.288622 0.750000
O O10 0.246922 0.227639 0.926726
O O11 0.443950 0.623096 0.855332
O O12 0.429284 0.735904 0.750000
O O13 0.904158 0.840605 0.969373
#
# Coordination Sequence:
#
# PCOD8325481 Si02
#       6
#    12  12  12  12   6  12
#     4  10  20  34  56  84 117 153 184 230 284 346
#     4  10  19  32  52  78 109 141 180 236 283 332
#     4   9  19  32  53  76 106 144 182 224 282 334
#     4  11  20  34  56  85 117 147 190 234 286 339
#     4  10  24  36  58  92 114 148 194 244 292 330
#     4  10  20  35  51  75 101 142 184 232 283 338
#
# _framework density 18.003716000000001
#
# number of rings (size 3 to 8) (size 9 to 14) (size 15 to 20)
#    0.182    1.818    3.636    0.182    2.545    0.727 
#    0.000    0.000    0.000    3.273    0.000    0.000 
#    0.000    0.000    0.000    0.000    0.000    0.000 
#
# Total GULP energy -817914.366819 kJ/mol
# GULP energy per Si atom -12392.641922 kJ/mol
# Density = 1.796274 g / cm^3
# Si number density = 18.003716 Si / 1000 Ang^3
#
#
#
# Elastic Constant Matrix: (Units=GPa)
#
#
# Indices 1 2 3 4 5 6 
#
# 1 66.3802 10.7281 45.3482 0.0000 0.0000 0.0000
# 2 10.7281 66.3802 45.3482 0.0000 0.0000 0.0000
# 3 45.3482 45.3482 118.2178 0.0000 0.0000 0.0000
# 4 0.0000 0.0000 0.0000 24.6698 0.0000 0.0000
# 5 0.0000 0.0000 0.0000 0.0000 24.6698 0.0000
# 6 0.0000 0.0000 0.0000 0.0000 0.0000 27.8260
#
#
#
# Elastic Compliance Matrix: (Units=1/GPa)
#
#
# Indices 1 2 3 4 5 6 
#
# 1 0.020800 0.002831 -0.009065 0.000000 0.000000 0.000000
# 2 0.002831 0.020800 -0.009065 0.000000 0.000000 0.000000
# 3 -0.009065 -0.009065 0.015413 0.000000 0.000000 0.000000
# 4 0.000000 0.000000 0.000000 0.040535 0.000000 0.000000
# 5 0.000000 0.000000 0.000000 0.000000 0.040535 0.000000
# 6 0.000000 0.000000 0.000000 0.000000 0.000000 0.035938
#
#
# Mechanical properties :
#
#
# Convention : Reuss Voigt Hill
#
# Bulk Modulus (GPa) = 37.85559 50.42526 44.14043
# Shear Modulus (GPa) = 23.42752 25.40336 24.41544
#
# Velocity S-wave (km/s) = 3.61121 3.76041 3.68657
# Velocity P-wave (km/s) = 6.20161 6.85006 6.53388
#
# Compressibility (1/GPa) = 0.02641618
#
# Stress axis : x y z
#
# Youngs Moduli (GPa) = 48.07715 48.07715 64.87822
#
# Poissons Ratio (x) = -0.13611 0.58811
# Poissons Ratio (y) = -0.13611 0.58811
# Poissons Ratio (z) = 0.43581 0.43581
#
# Static dielectric constant tensor:
#      x y z
#    x 3.324040 0.000000 0.000000 
#    y 0.000000 3.324040 0.000000 
#    z 0.000000 0.000000 3.435090 
# 
# 
# High freq. dielectric constant tensor:
#      x y z
#    x 1.689730 0.000000 0.000000 
#    y 0.000000 1.689730 0.000000 
#    z 0.000000 0.000000 1.699900 
# 
# From -- ./inp_files/2802.got.cif
#   From: 2010.06.25/outbox.cif.g09.slc.cpg/sg176_2_cif.got.tgz:2802.got - 2010.06.28 12:15:01.
