data_PCOD8325195
_publ_section_title
;
Structure prediction by ZEFSAII (Michael W. Deem and Ramdas Pophale) SiO2 
 PCOD8325195
Probable space group: P 6/M
;
_chemical_formula_sum "Si O2"
_cell_formula_units_Z 78
_cell_length_a 23.741889
_cell_length_b 23.741889
_cell_length_c 8.387132
_cell_angle_alpha 90.000000
_cell_angle_beta 90.000000
_cell_angle_gamma 120.000000
_cell_volume 4094.252758
_symmetry_space_group_name_H-M "P 6/M"
_symmetry_group_IT_number 175
_symmetry_cell_setting 'hexagonal'
loop_
_space_group_symop_operation_xyz
x,y,z
x-y,x,z
-y,x-y,z
-x,-y,z
-x+y,-x,z
y,-x+y,z
-x,-y,-z
-x+y,-x,-z
y,-x+y,-z
x,y,-z
x-y,x,-z
-y,x-y,-z
loop_
_atom_site_type_symbol
_atom_site_label
_atom_site_fract_x
_atom_site_fract_y
_atom_site_fract_z
Si Si1 0.634916 0.151746 0.321041
Si Si2 0.047414 0.676473 0.315513
Si Si3 0.377551 0.289745 0.819673
Si Si4 0.826078 0.204446 0.321838
Si Si5 0.497741 0.934324 0.815322
Si Si6 0.715397 0.467696 0.322992
Si Si7 0.737507 0.331969 0.000000
O O1 0.640650 0.130753 0.500000
O O2 0.663319 0.117507 0.207279
O O3 0.559769 0.126590 0.278882
O O4 0.675978 0.229991 0.306267
O O5 0.058355 0.667287 0.500000
O O6 0.099582 0.750522 0.262150
O O7 0.060396 0.626716 0.215951
O O8 0.975538 0.664610 0.288003
O O9 0.355670 0.214497 0.787183
O O10 0.361610 0.297200 0.000000
O O11 0.823841 0.178602 0.500000
O O12 0.794409 0.249876 0.317634
O O13 0.500000 0.000000 0.757074
O O14 0.480407 0.921445 0.000000
O O15 0.680642 0.443285 0.500000
O O16 0.668839 0.441627 0.165974
O O17 0.732082 0.397004 0.000000
#
# Coordination Sequence:
#
# PCOD8325195 Si02
#       7
#    12  12  12  12  12  12   6
#     4  10  20  34  54  74  95 132 171 211 273 331
#     4  11  22  37  57  80 109 141 181 226 267 328
#     4  11  21  34  55  81 110 140 171 214 271 327
#     4   9  21  39  58  81 103 139 182 216 271 327
#     4  11  22  33  48  77 109 134 168 219 274 323
#     4   9  20  39  58  74  97 129 172 223 273 335
#     4  10  24  38  52  76  91 125 175 214 280 338
#
# _framework density 19.051095
#
# number of rings (size 3 to 8) (size 9 to 14) (size 15 to 20)
#    0.154    1.692    1.538    3.692    5.385    3.692 
#    0.000    3.077    0.000    0.000    0.000    0.000 
#    0.000    0.000    0.000    0.462    0.000    8.923 
#
# Total GULP energy -966940.655323 kJ/mol
# GULP energy per Si atom -12396.675068 kJ/mol
# Density = 1.900773 g / cm^3
# Si number density = 19.051095 Si / 1000 Ang^3
#
#
#
# Elastic Constant Matrix: (Units=GPa)
#
#
# Indices 1 2 3 4 5 6 
#
# 1 57.6920 13.0970 16.4995 0.0000 0.0000 0.0000
# 2 13.0970 57.6920 16.4995 0.0000 0.0000 0.0000
# 3 16.4995 16.4995 94.9883 0.0000 0.0000 0.0000
# 4 0.0000 0.0000 0.0000 20.4357 0.0000 0.0000
# 5 0.0000 0.0000 0.0000 0.0000 20.4357 0.0000
# 6 0.0000 0.0000 0.0000 0.0000 0.0000 22.2975
#
#
#
# Elastic Compliance Matrix: (Units=1/GPa)
#
#
# Indices 1 2 3 4 5 6 
#
# 1 0.018898 -0.003526 -0.002670 0.000000 0.000000 0.000000
# 2 -0.003526 0.018898 -0.002670 0.000000 0.000000 0.000000
# 3 -0.002670 -0.002670 0.011455 0.000000 0.000000 0.000000
# 4 0.000000 0.000000 0.000000 0.048934 0.000000 0.000000
# 5 0.000000 0.000000 0.000000 0.000000 0.048934 0.000000
# 6 0.000000 0.000000 0.000000 0.000000 0.000000 0.044848
#
#
# Mechanical properties :
#
#
# Convention : Reuss Voigt Hill
#
# Bulk Modulus (GPa) = 31.72839 33.61828 32.67334
# Shear Modulus (GPa) = 22.70609 23.58551 23.14580
#
# Velocity S-wave (km/s) = 3.45607 3.52236 3.48937
# Velocity P-wave (km/s) = 5.71108 5.85042 5.78117
#
# Compressibility (1/GPa) = 0.03151751
#
# Stress axis : x y z
#
# Youngs Moduli (GPa) = 52.91678 52.91678 87.29690
#
# Poissons Ratio (x) = 0.18661 0.23308
# Poissons Ratio (y) = 0.18661 0.23308
# Poissons Ratio (z) = 0.14129 0.14129
#
# Static dielectric constant tensor:
#      x y z
#    x 3.434010 0.000000 0.000000 
#    y 0.000000 3.434010 0.000000 
#    z 0.000000 0.000000 3.612410 
# 
# 
# High freq. dielectric constant tensor:
#      x y z
#    x 1.707580 0.000000 0.000000 
#    y 0.000000 1.707580 0.000000 
#    z 0.000000 0.000000 1.758000 
# 
# From -- ./inp_files/1359.got.cif
#   From: 2010.03.12/outbox.cif.g09.slc.cpg/sg175_1_cif.got.tgz:1359.got - 2010.04.02 06:55:29.
