data_PCOD8325654
_publ_section_title
;
Structure prediction by ZEFSAII (Michael W. Deem and Ramdas Pophale) SiO2 
 PCOD8325654
Probable space group: P 63/M
;
_chemical_formula_sum "Si O2"
_cell_formula_units_Z 72
_cell_length_a 14.983867
_cell_length_b 14.983867
_cell_length_c 17.554475
_cell_angle_alpha 90.000000
_cell_angle_beta 90.000000
_cell_angle_gamma 120.000000
_cell_volume 3413.235833
_symmetry_space_group_name_H-M "P 63/M"
_symmetry_group_IT_number 176
_symmetry_cell_setting 'hexagonal'
loop_
_space_group_symop_operation_xyz
x,y,z
x-y,x,1/2+z
-y,x-y,z
-x,-y,1/2+z
-x+y,-x,z
y,-x+y,1/2+z
-x,-y,-z
-x+y,-x,1/2-z
y,-x+y,-z
x,y,1/2-z
x-y,x,-z
-y,x-y,1/2-z
loop_
_atom_site_type_symbol
_atom_site_label
_atom_site_fract_x
_atom_site_fract_y
_atom_site_fract_z
Si Si1 0.615633 0.412695 0.055900
Si Si2 0.530769 0.396258 0.897303
Si Si3 0.731057 0.548180 0.835940
Si Si4 0.158658 0.233653 0.589987
Si Si5 0.074646 0.841666 0.411349
Si Si6 0.585044 0.935218 0.659892
O O1 0.549956 0.288093 0.057803
O O2 0.601747 0.468015 0.129535
O O3 0.575884 0.443868 0.980617
O O4 0.606691 0.483577 0.837854
O O5 0.522911 0.285921 0.885254
O O6 0.414829 0.370108 0.881801
O O7 0.771560 0.558271 0.750000
O O8 0.771700 0.661151 0.868207
O O9 0.174428 0.256696 0.500627
O O10 0.184264 0.144804 0.612505
O O11 0.232164 0.339080 0.635364
O O12 0.041666 0.195043 0.614109
O O13 0.581872 0.943366 0.750000
#
# Coordination Sequence:
#
# PCOD8325654 Si02
#       6
#    12  12  12  12  12  12
#     4  10  23  45  70  94 123 175 230 276 329 402
#     4  12  23  44  65  97 134 172 227 278 339 403
#     4  12  23  39  64  95 133 173 217 277 347 406
#     4  10  22  42  67  96 135 175 229 284 344 393
#     4  10  22  41  68  97 129 177 232 284 334 409
#     4  12  26  41  65  99 140 179 217 279 348 410
#
# _framework density 21.094353000000002
#
# number of rings (size 3 to 8) (size 9 to 14) (size 15 to 20)
#    0.333    0.667    3.333    3.667    0.000    4.000 
#    0.000    0.000    0.000    2.000    0.000    0.000 
#    0.000    0.000    0.000    0.000    0.000    0.000 
#
# Total GULP energy -892747.773636 kJ/mol
# GULP energy per Si atom -12399.274634 kJ/mol
# Density = 2.104634 g / cm^3
# Si number density = 21.094353 Si / 1000 Ang^3
#
#
#
# Elastic Constant Matrix: (Units=GPa)
#
#
# Indices 1 2 3 4 5 6 
#
# 1 107.7939 34.2456 41.2213 0.0000 0.0000 0.0000
# 2 34.2456 107.7939 41.2213 0.0000 0.0000 0.0000
# 3 41.2213 41.2213 82.0350 0.0000 0.0000 0.0000
# 4 0.0000 0.0000 0.0000 20.9349 0.0000 0.0000
# 5 0.0000 0.0000 0.0000 0.0000 20.9349 0.0000
# 6 0.0000 0.0000 0.0000 0.0000 0.0000 36.7741
#
#
#
# Elastic Compliance Matrix: (Units=1/GPa)
#
#
# Indices 1 2 3 4 5 6 
#
# 1 0.011768 -0.001829 -0.004994 0.000000 0.000000 0.000000
# 2 -0.001829 0.011768 -0.004994 0.000000 0.000000 0.000000
# 3 -0.004994 -0.004994 0.017209 0.000000 0.000000 0.000000
# 4 0.000000 0.000000 0.000000 0.047767 0.000000 0.000000
# 5 0.000000 0.000000 0.000000 0.000000 0.047767 0.000000
# 6 0.000000 0.000000 0.000000 0.000000 0.000000 0.027193
#
#
# Mechanical properties :
#
#
# Convention : Reuss Voigt Hill
#
# Bulk Modulus (GPa) = 58.44476 58.99992 58.72234
# Shear Modulus (GPa) = 25.93232 27.79107 26.86170
#
# Velocity S-wave (km/s) = 3.51001 3.63363 3.57235
# Velocity P-wave (km/s) = 6.64781 6.75534 6.70179
#
# Compressibility (1/GPa) = 0.01711017
#
# Stress axis : x y z
#
# Youngs Moduli (GPa) = 84.97778 84.97778 58.10923
#
# Poissons Ratio (x) = 0.15540 0.29021
# Poissons Ratio (y) = 0.15540 0.29021
# Poissons Ratio (z) = 0.42440 0.42440
#
# Static dielectric constant tensor:
#      x y z
#    x 3.771840 0.000000 0.000000 
#    y 0.000000 3.771840 0.000000 
#    z 0.000000 0.000000 3.566410 
# 
# 
# High freq. dielectric constant tensor:
#      x y z
#    x 1.830480 0.000000 0.000000 
#    y 0.000000 1.830480 0.000000 
#    z 0.000000 0.000000 1.812750 
# 
# From -- ./inp_files/3375.got.cif
#   From: 2010.06.25/outbox.cif.g09.slc.cpg/sg176_2_cif.got.tgz:3375.got - 2010.06.28 12:15:01.
