data_PCOD8325699
_publ_section_title
;
Structure prediction by ZEFSAII (Michael W. Deem and Ramdas Pophale) SiO2 
 PCOD8325699
Probable space group: P 63/M
;
_chemical_formula_sum "Si O2"
_cell_formula_units_Z 60
_cell_length_a 17.117068
_cell_length_b 17.117068
_cell_length_c 13.667404
_cell_angle_alpha 90.000000
_cell_angle_beta 90.000000
_cell_angle_gamma 120.000000
_cell_volume 3467.970669
_symmetry_space_group_name_H-M "P 63/M"
_symmetry_group_IT_number 176
_symmetry_cell_setting 'hexagonal'
loop_
_space_group_symop_operation_xyz
x,y,z
x-y,x,1/2+z
-y,x-y,z
-x,-y,1/2+z
-x+y,-x,z
y,-x+y,1/2+z
-x,-y,-z
-x+y,-x,1/2-z
y,-x+y,-z
x,y,1/2-z
x-y,x,-z
-y,x-y,1/2-z
loop_
_atom_site_type_symbol
_atom_site_label
_atom_site_fract_x
_atom_site_fract_y
_atom_site_fract_z
Si Si1 0.245863 0.897608 0.364052
Si Si2 0.182164 0.169234 0.000949
Si Si3 0.060392 0.729940 0.362857
Si Si4 0.553137 0.604871 0.982318
Si Si5 0.422795 0.648937 0.861449
O O1 0.266638 0.921207 0.250000
O O2 0.210415 0.960263 0.410150
O O3 0.168735 0.792488 0.378970
O O4 0.338949 0.920469 0.416743
O O5 0.090819 0.163158 0.964776
O O6 0.218550 0.228721 0.098293
O O7 0.036634 0.708373 0.250000
O O8 0.020809 0.636764 0.419660
O O9 0.491974 0.637779 0.928354
O O10 0.500000 0.500000 0.000000
O O11 0.428688 0.746277 0.880325
O O12 0.449143 0.643468 0.750000
#
# Coordination Sequence:
#
# PCOD8325699 Si02
#       5
#    12  12  12  12  12
#     4   9  20  37  52  73 112 148 179 222 271 319
#     4   9  17  31  52  78 107 141 182 221 266 310
#     4   9  19  35  53  74 107 143 176 219 269 324
#     4  11  22  33  59  84 105 139 185 229 269 331
#     4   8  18  36  57  80 111 141 169 225 287 327
#
# _framework density 17.301185
#
# number of rings (size 3 to 8) (size 9 to 14) (size 15 to 20)
#    0.400    2.400    0.000    0.800    2.800    2.400 
#    0.000    0.000    0.000    2.400    0.000    0.000 
#    0.000    0.000    0.000    0.000    0.000    0.000 
#
# Total GULP energy -743569.539839 kJ/mol
# GULP energy per Si atom -12392.825664 kJ/mol
# Density = 1.726181 g / cm^3
# Si number density = 17.301185 Si / 1000 Ang^3
#
#
#
# Elastic Constant Matrix: (Units=GPa)
#
#
# Indices 1 2 3 4 5 6 
#
# 1 104.9195 55.2735 55.5698 0.0000 0.0000 0.0000
# 2 55.2735 104.9195 55.5698 0.0000 0.0000 0.0000
# 3 55.5698 55.5698 125.3683 0.0000 0.0000 0.0000
# 4 0.0000 0.0000 0.0000 21.3496 0.0000 0.0000
# 5 0.0000 0.0000 0.0000 0.0000 21.3496 0.0000
# 6 0.0000 0.0000 0.0000 0.0000 0.0000 24.8230
#
#
#
# Elastic Compliance Matrix: (Units=1/GPa)
#
#
# Indices 1 2 3 4 5 6 
#
# 1 0.014579 -0.005564 -0.003996 0.000000 0.000000 0.000000
# 2 -0.005564 0.014579 -0.003996 0.000000 0.000000 0.000000
# 3 -0.003996 -0.003996 0.011519 0.000000 0.000000 0.000000
# 4 0.000000 0.000000 0.000000 0.046839 0.000000 0.000000
# 5 0.000000 0.000000 0.000000 0.000000 0.046839 0.000000
# 6 0.000000 0.000000 0.000000 0.000000 0.000000 0.040285
#
#
# Mechanical properties :
#
#
# Convention : Reuss Voigt Hill
#
# Bulk Modulus (GPa) = 73.71902 74.22596 73.97249
# Shear Modulus (GPa) = 24.23977 24.75738 24.49857
#
# Velocity S-wave (km/s) = 3.74712 3.78691 3.76707
# Velocity P-wave (km/s) = 7.83728 7.88139 7.85936
#
# Compressibility (1/GPa) = 0.01356502
#
# Stress axis : x y z
#
# Youngs Moduli (GPa) = 68.59345 68.59345 86.81480
#
# Poissons Ratio (x) = 0.38165 0.34689
# Poissons Ratio (y) = 0.38165 0.34689
# Poissons Ratio (z) = 0.27408 0.27408
#
# Static dielectric constant tensor:
#      x y z
#    x 3.332310 0.000000 0.000000 
#    y 0.000000 3.332310 0.000000 
#    z 0.000000 0.000000 3.163560 
# 
# 
# High freq. dielectric constant tensor:
#      x y z
#    x 1.667700 0.000000 0.000000 
#    y 0.000000 1.667700 0.000000 
#    z 0.000000 0.000000 1.665980 
# 
# From -- ./inp_files/1866.got.cif
#   From: 2010.06.25/outbox.cif.g09.slc.cpg/sg176_1_cif.got.tgz:1866.got - 2010.06.28 12:15:01.
