data_PCOD8325176
_publ_section_title
;
Structure prediction by ZEFSAII (Michael W. Deem and Ramdas Pophale) SiO2 
 PCOD8325176
Probable space group: P 6/M
;
_chemical_formula_sum "Si O2"
_cell_formula_units_Z 60
_cell_length_a 23.015345
_cell_length_b 23.015345
_cell_length_c 7.947433
_cell_angle_alpha 90.000000
_cell_angle_beta 90.000000
_cell_angle_gamma 120.000000
_cell_volume 3645.797021
_symmetry_space_group_name_H-M "P 6/M"
_symmetry_group_IT_number 175
_symmetry_cell_setting 'hexagonal'
loop_
_space_group_symop_operation_xyz
x,y,z
x-y,x,z
-y,x-y,z
-x,-y,z
-x+y,-x,z
y,-x+y,z
-x,-y,-z
-x+y,-x,-z
y,-x+y,-z
x,y,-z
x-y,x,-z
-y,x-y,-z
loop_
_atom_site_type_symbol
_atom_site_label
_atom_site_fract_x
_atom_site_fract_y
_atom_site_fract_z
Si Si1 0.323344 0.401891 0.816325
Si Si2 0.077603 0.267935 0.806376
Si Si3 0.393579 0.473336 0.500000
Si Si4 0.919453 0.525348 0.500000
Si Si5 0.204090 0.272126 0.309329
Si Si6 0.401795 0.322477 0.186804
O O1 0.347413 0.456782 0.667120
O O2 0.247579 0.341945 0.788877
O O3 0.372628 0.372170 0.820787
O O4 0.326113 0.434702 0.000000
O O5 0.126141 0.250502 0.699969
O O6 0.093547 0.342670 0.760313
O O7 0.000806 0.213676 0.766735
O O8 0.091862 0.262776 0.000000
O O9 0.430138 0.429725 0.500000
O O10 0.446755 0.552121 0.500000
O O11 0.889874 0.541313 0.331571
O O12 0.229725 0.283862 0.500000
O O13 0.430832 0.321314 0.000000
#
# Coordination Sequence:
#
# PCOD8325176 Si02
#       6
#    12  12   6   6  12  12
#     4   9  16  28  42  59  87 118 149 186 226 272
#     4  10  20  33  48  68  93 123 159 202 254 305
#     4   9  16  26  37  62  81 116 148 177 204 250
#     4   9  16  24  41  56  87 112 146 179 208 240
#     4  11  20  31  49  71  92 120 161 205 252 303
#     4   8  16  27  41  60  84 116 150 183 223 273
#
# _framework density 16.457305999999999
#
# number of rings (size 3 to 8) (size 9 to 14) (size 15 to 20)
#    0.000    2.600    1.000    3.600    5.600    0.800 
#    0.000    4.000    0.000    0.400    0.000    2.800 
#    0.000    0.000    0.000    4.800    0.000   22.400 
#
# Total GULP energy -743738.713419 kJ/mol
# GULP energy per Si atom -12395.645224 kJ/mol
# Density = 1.641985 g / cm^3
# Si number density = 16.457306 Si / 1000 Ang^3
#
#
#
# Elastic Constant Matrix: (Units=GPa)
#
#
# Indices 1 2 3 4 5 6 
#
# 1 59.8096 34.1868 32.3308 0.0000 0.0000 0.0000
# 2 34.1868 59.8096 32.3308 0.0000 0.0000 0.0000
# 3 32.3308 32.3308 113.2994 0.0000 0.0000 0.0000
# 4 0.0000 0.0000 0.0000 18.5915 0.0000 0.0000
# 5 0.0000 0.0000 0.0000 0.0000 18.5915 0.0000
# 6 0.0000 0.0000 0.0000 0.0000 0.0000 12.8114
#
#
#
# Elastic Compliance Matrix: (Units=1/GPa)
#
#
# Indices 1 2 3 4 5 6 
#
# 1 0.026133 -0.012895 -0.003777 0.000000 0.000000 0.000000
# 2 -0.012895 0.026133 -0.003777 0.000000 0.000000 0.000000
# 3 -0.003777 -0.003777 0.010982 0.000000 0.000000 0.000000
# 4 0.000000 0.000000 0.000000 0.053788 0.000000 0.000000
# 5 0.000000 0.000000 0.000000 0.000000 0.053788 0.000000
# 6 0.000000 0.000000 0.000000 0.000000 0.000000 0.078056
#
#
# Mechanical properties :
#
#
# Convention : Reuss Voigt Hill
#
# Bulk Modulus (GPa) = 44.74869 47.84614 46.29741
# Shear Modulus (GPa) = 16.82214 18.93690 17.87952
#
# Velocity S-wave (km/s) = 3.20061 3.39583 3.29966
# Velocity P-wave (km/s) = 6.39596 6.67170 6.53528
#
# Compressibility (1/GPa) = 0.02234702
#
# Stress axis : x y z
#
# Youngs Moduli (GPa) = 38.26652 38.26652 91.05850
#
# Poissons Ratio (x) = 0.49346 0.34396
# Poissons Ratio (y) = 0.49346 0.34396
# Poissons Ratio (z) = 0.14455 0.14455
#
# Static dielectric constant tensor:
#      x y z
#    x 2.751530 0.000000 0.000000 
#    y 0.000000 2.751530 0.000000 
#    z 0.000000 0.000000 3.637780 
# 
# 
# High freq. dielectric constant tensor:
#      x y z
#    x 1.586120 0.000000 0.000000 
#    y 0.000000 1.586120 0.000000 
#    z 0.000000 0.000000 1.662280 
# 
# From -- ./inp_files/887.got.cif
#   From: 2010.03.12/outbox.cif.g09.slc.cpg/sg175_1_cif.got.tgz:887.got - 2010.04.02 06:55:29.
