data_PCOD8325897
_publ_section_title
;
Structure prediction by ZEFSAII (Michael W. Deem and Ramdas Pophale) SiO2 
 PCOD8325897
Probable space group: P 61 2 2
;
_chemical_formula_sum "Si O2"
_cell_formula_units_Z 42
_cell_length_a 18.474512
_cell_length_b 18.474512
_cell_length_c 7.446931
_cell_angle_alpha 90.000000
_cell_angle_beta 90.000000
_cell_angle_gamma 120.000000
_cell_volume 2201.171659
_symmetry_space_group_name_H-M "P 61 2 2"
_symmetry_group_IT_number 178
_symmetry_cell_setting 'hexagonal'
loop_
_space_group_symop_operation_xyz
x,y,z
x-y,x,1/6+z
-y,x-y,1/3+z
-x,-y,1/2+z
-x+y,-x,2/3+z
y,-x+y,5/6+z
x-y,-y,-z
-x,-x+y,2/3-z
y,x,1/3-z
-y,-x,5/6-z
-x+y,y,1/2-z
x,x-y,1/6-z
loop_
_atom_site_type_symbol
_atom_site_label
_atom_site_fract_x
_atom_site_fract_y
_atom_site_fract_z
Si Si1 0.307816 0.000000 0.000000
Si Si2 0.764976 0.244319 0.709696
Si Si3 0.171367 0.342733 0.250000
Si Si4 0.569887 0.139774 0.250000
Si Si5 0.393763 0.486280 0.051565
O O1 0.341183 0.955954 0.143042
O O2 0.288165 0.070777 0.071909
O O3 0.816835 0.213877 0.592414
O O4 0.800088 0.341595 0.675816
O O5 0.667794 0.191276 0.650547
O O6 0.773447 0.226554 0.916667
O O7 0.574843 0.081099 0.406934
O O8 0.471716 0.528284 0.916667
#
# Coordination Sequence:
#
# PCOD8325897 Si02
#       5
#     6  12   6   6  12
#     4  10  22  40  64  82 122 148 196 250 296 376
#     4  11  21  36  54  78 118 163 208 249 289 335
#     4  10  22  44  58  88 111 150 191 248 304 368
#     4  12  20  36  56  82 119 166 211 248 284 332
#     4  11  23  36  53  85 116 162 203 246 294 331
#
# _framework density 19.080746000000001
#
# number of rings (size 3 to 8) (size 9 to 14) (size 15 to 20)
#    0.000    1.143    8.571    0.000    2.000    2.286 
#    2.571    4.286    0.000    0.000    0.000    0.000 
#   17.143    0.000    0.000    0.000    0.000    0.000 
#
# Total GULP energy -520474.745654 kJ/mol
# GULP energy per Si atom -12392.255849 kJ/mol
# Density = 1.903732 g / cm^3
# Si number density = 19.080746 Si / 1000 Ang^3
#
#
#
# Elastic Constant Matrix: (Units=GPa)
#
#
# Indices 1 2 3 4 5 6 
#
# 1 111.3931 39.9155 35.0224 0.0000 0.0000 0.0000
# 2 39.9155 111.3931 35.0224 0.0000 0.0000 0.0000
# 3 35.0224 35.0224 136.3192 0.0000 0.0000 0.0000
# 4 0.0000 0.0000 0.0000 20.0949 0.0000 0.0000
# 5 0.0000 0.0000 0.0000 0.0000 20.0949 0.0000
# 6 0.0000 0.0000 0.0000 0.0000 0.0000 35.7388
#
#
#
# Elastic Compliance Matrix: (Units=1/GPa)
#
#
# Indices 1 2 3 4 5 6 
#
# 1 0.010746 -0.003245 -0.001927 0.000000 0.000000 0.000000
# 2 -0.003245 0.010746 -0.001927 0.000000 0.000000 0.000000
# 3 -0.001927 -0.001927 0.008326 0.000000 0.000000 0.000000
# 4 0.000000 0.000000 0.000000 0.049764 0.000000 0.000000
# 5 0.000000 0.000000 0.000000 0.000000 0.049764 0.000000
# 6 0.000000 0.000000 0.000000 0.000000 0.000000 0.027981
#
#
# Mechanical properties :
#
#
# Convention : Reuss Voigt Hill
#
# Bulk Modulus (GPa) = 64.02206 64.33624 64.17915
# Shear Modulus (GPa) = 28.29167 31.79540 30.04354
#
# Velocity S-wave (km/s) = 3.85481 4.08654 3.97236
# Velocity P-wave (km/s) = 7.31018 7.48715 7.39920
#
# Compressibility (1/GPa) = 0.01561962
#
# Stress axis : x y z
#
# Youngs Moduli (GPa) = 93.05995 93.05995 120.10638
#
# Poissons Ratio (x) = 0.30194 0.23146
# Poissons Ratio (y) = 0.30194 0.23146
# Poissons Ratio (z) = 0.17934 0.17934
#
# Static dielectric constant tensor:
#      x y z
#    x 3.590560 0.000000 0.000000 
#    y 0.000000 3.590560 0.000000 
#    z 0.000000 0.000000 3.538150 
# 
# 
# High freq. dielectric constant tensor:
#      x y z
#    x 1.729820 0.000000 0.000000 
#    y 0.000000 1.729820 0.000000 
#    z 0.000000 0.000000 1.738630 
# 
# From -- ./inp_files/2455.got.cif
#   From: 2010.03.12/outbox.cif.g09.slc.cpg/sg178_2_cif.got.tgz:2455.got - 2010.04.02 07:02:38.
