data_PCOD8325584
_publ_section_title
;
Structure prediction by ZEFSAII (Michael W. Deem and Ramdas Pophale) SiO2 
 PCOD8325584
Probable space group: P 63/M
;
_chemical_formula_sum "Si O2"
_cell_formula_units_Z 72
_cell_length_a 22.514496
_cell_length_b 22.514496
_cell_length_c 8.589009
_cell_angle_alpha 90.000000
_cell_angle_beta 90.000000
_cell_angle_gamma 120.000000
_cell_volume 3770.493083
_symmetry_space_group_name_H-M "P 63/M"
_symmetry_group_IT_number 176
_symmetry_cell_setting 'hexagonal'
loop_
_space_group_symop_operation_xyz
x,y,z
x-y,x,1/2+z
-y,x-y,z
-x,-y,1/2+z
-x+y,-x,z
y,-x+y,1/2+z
-x,-y,-z
-x+y,-x,1/2-z
y,-x+y,-z
x,y,1/2-z
x-y,x,-z
-y,x-y,1/2-z
loop_
_atom_site_type_symbol
_atom_site_label
_atom_site_fract_x
_atom_site_fract_y
_atom_site_fract_z
Si Si1 0.873691 0.383816 0.430499
Si Si2 0.006716 0.752603 0.434198
Si Si3 0.710599 0.853668 0.934045
Si Si4 0.220570 0.773886 0.567322
Si Si5 0.638898 0.135970 0.569878
Si Si6 0.384658 0.386255 0.431921
O O1 0.868656 0.397856 0.250000
O O2 0.827712 0.304890 0.475737
O O3 0.848151 0.426714 0.530612
O O4 0.951737 0.406760 0.471863
O O5 0.006402 0.752734 0.250000
O O6 0.070028 0.822994 0.496151
O O7 0.013014 0.688022 0.494219
O O8 0.935252 0.745260 0.494803
O O9 0.713806 0.860250 0.750000
O O10 0.631880 0.816123 0.990626
O O11 0.237291 0.785444 0.750000
O O12 0.289376 0.797037 0.470123
O O13 0.635509 0.116135 0.750000
O O14 0.633970 0.076189 0.460328
O O15 0.381254 0.399907 0.250000
#
# Coordination Sequence:
#
# PCOD8325584 Si02
#       6
#    12  12  12  12  12  12
#     4  11  23  40  61  84 114 152 196 241 296 355
#     4  10  21  36  59  90 123 156 189 236 291 343
#     4  10  20  38  61  89 123 154 192 239 288 348
#     4  10  21  40  62  84 113 152 195 245 300 353
#     4  12  25  39  58  84 116 154 197 242 293 348
#     4  11  21  37  60  87 120 152 190 240 294 348
#
# _framework density 19.095645999999999
#
# number of rings (size 3 to 8) (size 9 to 14) (size 15 to 20)
#    0.000    1.333    3.333    3.000    0.000    3.333 
#    1.000    0.000    0.000    0.333    0.000    0.000 
#    0.000    0.000    0.000    0.000    0.000    0.000 
#
# Total GULP energy -893209.812288 kJ/mol
# GULP energy per Si atom -12405.691837 kJ/mol
# Density = 1.905218 g / cm^3
# Si number density = 19.095646 Si / 1000 Ang^3
#
#
#
# Elastic Constant Matrix: (Units=GPa)
#
#
# Indices 1 2 3 4 5 6 
#
# 1 112.7131 45.1061 26.0668 0.0000 0.0000 0.0000
# 2 45.1061 112.7131 26.0668 0.0000 0.0000 0.0000
# 3 26.0668 26.0668 38.5711 0.0000 0.0000 0.0000
# 4 0.0000 0.0000 0.0000 31.0453 0.0000 0.0000
# 5 0.0000 0.0000 0.0000 0.0000 31.0453 0.0000
# 6 0.0000 0.0000 0.0000 0.0000 0.0000 33.8035
#
#
#
# Elastic Compliance Matrix: (Units=1/GPa)
#
#
# Indices 1 2 3 4 5 6 
#
# 1 0.011474 -0.003317 -0.005513 0.000000 0.000000 0.000000
# 2 -0.003317 0.011474 -0.005513 0.000000 0.000000 0.000000
# 3 -0.005513 -0.005513 0.033378 0.000000 0.000000 0.000000
# 4 0.000000 0.000000 0.000000 0.032211 0.000000 0.000000
# 5 0.000000 0.000000 0.000000 0.000000 0.032211 0.000000
# 6 0.000000 0.000000 0.000000 0.000000 0.000000 0.029583
#
#
# Mechanical properties :
#
#
# Convention : Reuss Voigt Hill
#
# Bulk Modulus (GPa) = 36.17839 50.94186 43.56012
# Shear Modulus (GPa) = 26.56320 30.29600 28.42960
#
# Velocity S-wave (km/s) = 3.73374 3.98746 3.86268
# Velocity P-wave (km/s) = 6.12982 6.92350 6.53872
#
# Compressibility (1/GPa) = 0.02764081
#
# Stress axis : x y z
#
# Youngs Moduli (GPa) = 87.15026 87.15026 29.96023
#
# Poissons Ratio (x) = 0.28907 0.16517
# Poissons Ratio (y) = 0.28907 0.16517
# Poissons Ratio (z) = 0.48045 0.48045
#
# Static dielectric constant tensor:
#      x y z
#    x 3.580860 0.000000 0.000000 
#    y 0.000000 3.580860 0.000000 
#    z 0.000000 0.000000 3.307360 
# 
# 
# High freq. dielectric constant tensor:
#      x y z
#    x 1.740010 0.000000 0.000000 
#    y 0.000000 1.740010 0.000000 
#    z 0.000000 0.000000 1.738000 
# 
# From -- ./inp_files/1187.got.cif
#   From: 2010.06.25/outbox.cif.g09.slc.cpg/sg176_1_cif.got.tgz:1187.got - 2010.06.28 12:15:01.
