data_PCOD8325650
_publ_section_title
;
Structure prediction by ZEFSAII (Michael W. Deem and Ramdas Pophale) SiO2 
 PCOD8325650
Probable space group: P 63/M
;
_chemical_formula_sum "Si O2"
_cell_formula_units_Z 72
_cell_length_a 14.985794
_cell_length_b 14.985794
_cell_length_c 18.507767
_cell_angle_alpha 90.000000
_cell_angle_beta 90.000000
_cell_angle_gamma 120.000000
_cell_volume 3599.516526
_symmetry_space_group_name_H-M "P 63/M"
_symmetry_group_IT_number 176
_symmetry_cell_setting 'hexagonal'
loop_
_space_group_symop_operation_xyz
x,y,z
x-y,x,1/2+z
-y,x-y,z
-x,-y,1/2+z
-x+y,-x,z
y,-x+y,1/2+z
-x,-y,-z
-x+y,-x,1/2-z
y,-x+y,-z
x,y,1/2-z
x-y,x,-z
-y,x-y,1/2-z
loop_
_atom_site_type_symbol
_atom_site_label
_atom_site_fract_x
_atom_site_fract_y
_atom_site_fract_z
Si Si1 0.132127 0.815803 0.170462
Si Si2 0.048680 0.404685 0.117340
Si Si3 0.852793 0.297056 0.454197
Si Si4 0.877241 0.511335 0.036992
Si Si5 0.772544 0.930380 0.473436
Si Si6 0.583588 0.553978 0.668530
O O1 0.097117 0.829569 0.250000
O O2 0.251645 0.897560 0.161066
O O3 0.063970 0.838147 0.113763
O O4 0.117771 0.702338 0.161134
O O5 0.923547 0.328009 0.118720
O O6 0.081595 0.513555 0.154521
O O7 0.077687 0.414140 0.032062
O O8 0.731086 0.231941 0.439750
O O9 0.872290 0.405365 0.487944
O O10 0.887932 0.234049 0.505743
O O11 0.943834 0.559973 0.108521
O O12 0.807782 0.850104 0.497109
O O13 0.562164 0.579914 0.750000
#
# Coordination Sequence:
#
# PCOD8325650 Si02
#       6
#    12  12  12  12  12  12
#     4  11  22  39  62  91 126 163 208 268 329 386
#     4  11  21  36  62  86 123 167 209 255 318 392
#     4  11  20  38  60  95 124 158 218 269 308 381
#     4  11  22  35  64  91 122 166 213 258 316 377
#     4  12  23  42  67  94 124 172 223 270 324 388
#     4  10  22  40  57  85 126 162 202 258 320 379
#
# _framework density 20.002687999999999
#
# number of rings (size 3 to 8) (size 9 to 14) (size 15 to 20)
#    0.000    1.000    3.333    6.000    0.000    0.000 
#    1.000    5.000    0.000    0.000    0.000    0.000 
#    0.000    0.000    0.000    0.000    0.000    0.000 
#
# Total GULP energy -892351.849408 kJ/mol
# GULP energy per Si atom -12393.775686 kJ/mol
# Density = 1.995716 g / cm^3
# Si number density = 20.002688 Si / 1000 Ang^3
#
#
#
# Elastic Constant Matrix: (Units=GPa)
#
#
# Indices 1 2 3 4 5 6 
#
# 1 102.6364 35.5729 36.0484 0.0000 0.0000 0.0000
# 2 35.5729 102.6364 36.0484 0.0000 0.0000 0.0000
# 3 36.0484 36.0484 131.4384 0.0000 0.0000 0.0000
# 4 0.0000 0.0000 0.0000 24.1444 0.0000 0.0000
# 5 0.0000 0.0000 0.0000 0.0000 24.1444 0.0000
# 6 0.0000 0.0000 0.0000 0.0000 0.0000 33.5317
#
#
#
# Elastic Compliance Matrix: (Units=1/GPa)
#
#
# Indices 1 2 3 4 5 6 
#
# 1 0.011677 -0.003234 -0.002316 0.000000 0.000000 0.000000
# 2 -0.003234 0.011677 -0.002316 0.000000 0.000000 0.000000
# 3 -0.002316 -0.002316 0.008878 0.000000 0.000000 0.000000
# 4 0.000000 0.000000 0.000000 0.041417 0.000000 0.000000
# 5 0.000000 0.000000 0.000000 0.000000 0.041417 0.000000
# 6 0.000000 0.000000 0.000000 0.000000 0.000000 0.029822
#
#
# Mechanical properties :
#
#
# Convention : Reuss Voigt Hill
#
# Bulk Modulus (GPa) = 60.59747 61.33896 60.96822
# Shear Modulus (GPa) = 30.09840 31.63353 30.86596
#
# Velocity S-wave (km/s) = 3.88328 3.98108 3.93248
# Velocity P-wave (km/s) = 7.10401 7.20166 7.15300
#
# Compressibility (1/GPa) = 0.01650234
#
# Stress axis : x y z
#
# Youngs Moduli (GPa) = 85.63610 85.63610 112.63373
#
# Poissons Ratio (x) = 0.27694 0.26083
# Poissons Ratio (y) = 0.27694 0.26083
# Poissons Ratio (z) = 0.19831 0.19831
#
# Static dielectric constant tensor:
#      x y z
#    x 3.809450 0.000000 0.000000 
#    y 0.000000 3.809450 0.000000 
#    z 0.000000 0.000000 3.691650 
# 
# 
# High freq. dielectric constant tensor:
#      x y z
#    x 1.781270 0.000000 0.000000 
#    y 0.000000 1.781270 0.000000 
#    z 0.000000 0.000000 1.770450 
# 
# From -- ./inp_files/3362.got.cif
#   From: 2010.06.25/outbox.cif.g09.slc.cpg/sg176_2_cif.got.tgz:3362.got - 2010.06.28 12:15:01.
