data_PCOD8325388
_publ_section_title
;
Structure prediction by ZEFSAII (Michael W. Deem and Ramdas Pophale) SiO2 
 PCOD8325388
Probable space group: P 6/M
;
_chemical_formula_sum "Si O2"
_cell_formula_units_Z 72
_cell_length_a 23.640764
_cell_length_b 23.640764
_cell_length_c 9.619278
_cell_angle_alpha 90.000000
_cell_angle_beta 90.000000
_cell_angle_gamma 120.000000
_cell_volume 4655.819372
_symmetry_space_group_name_H-M "P 6/M"
_symmetry_group_IT_number 175
_symmetry_cell_setting 'hexagonal'
loop_
_space_group_symop_operation_xyz
x,y,z
x-y,x,z
-y,x-y,z
-x,-y,z
-x+y,-x,z
y,-x+y,z
-x,-y,-z
-x+y,-x,-z
y,-x+y,-z
x,y,-z
x-y,x,-z
-y,x-y,-z
loop_
_atom_site_type_symbol
_atom_site_label
_atom_site_fract_x
_atom_site_fract_y
_atom_site_fract_z
Si Si1 0.528315 0.602701 0.660598
Si Si2 0.602701 0.528315 0.339402
Si Si3 0.072051 0.804271 0.165470
Si Si4 0.584113 0.856842 0.838835
Si Si5 0.856842 0.584113 0.161165
Si Si6 0.072051 0.267780 0.165470
O O1 0.538637 0.623357 0.500000
O O2 0.455226 0.544774 0.687090
O O3 0.579431 0.579431 0.705307
O O4 0.537710 0.663377 0.751242
O O5 0.623357 0.538637 0.500000
O O6 0.663377 0.537710 0.248758
O O7 0.097144 0.755468 0.213313
O O8 0.122382 0.877618 0.219925
O O9 1.000000 0.779870 0.227850
O O10 0.070582 0.804823 0.000000
O O11 0.562476 0.781238 0.814154
O O12 0.577512 0.869779 0.000000
O O13 0.902856 0.658324 0.213313
O O14 0.869779 0.577512 0.000000
O O15 0.070582 0.265759 0.000000
#
# Coordination Sequence:
#
# PCOD8325388 Si02
#       6
#    12  12  12  12  12  12
#     4   9  18  31  45  63  88 115 141 170 207 254
#     4   9  18  31  45  63  88 115 141 170 207 254
#     4   8  13  21  34  53  77 104 133 166 203 240
#     4   9  17  28  43  64  86 108 139 177 213 251
#     4   9  17  28  43  64  86 108 139 177 213 251
#     4   8  13  21  34  53  77 104 133 166 203 240
#
# _framework density 15.464518
#
# number of rings (size 3 to 8) (size 9 to 14) (size 15 to 20)
#    0.000    3.333    0.000    4.000    0.000    3.333 
#    0.000    1.667    0.000    1.000    0.000    2.333 
#    0.000    0.000    0.000    0.000    0.000    0.000 
#
# Total GULP energy -892428.573463 kJ/mol
# GULP energy per Si atom -12394.841298 kJ/mol
# Density = 1.542932 g / cm^3
# Si number density = 15.464518 Si / 1000 Ang^3
#
#
#
# Elastic Constant Matrix: (Units=GPa)
#
#
# Indices 1 2 3 4 5 6 
#
# 1 101.4182 52.8270 43.5794 0.0000 0.0000 0.0000
# 2 52.8270 101.4182 43.5794 0.0000 0.0000 0.0000
# 3 43.5794 43.5794 46.2667 0.0000 0.0000 0.0000
# 4 0.0000 0.0000 0.0000 20.2179 0.0000 0.0000
# 5 0.0000 0.0000 0.0000 0.0000 20.2179 0.0000
# 6 0.0000 0.0000 0.0000 0.0000 0.0000 24.2956
#
#
#
# Elastic Compliance Matrix: (Units=1/GPa)
#
#
# Indices 1 2 3 4 5 6 
#
# 1 0.017220 -0.003360 -0.013055 0.000000 0.000000 0.000000
# 2 -0.003360 0.017220 -0.013055 0.000000 0.000000 0.000000
# 3 -0.013055 -0.013055 0.046208 0.000000 0.000000 0.000000
# 4 0.000000 0.000000 0.000000 0.049461 0.000000 0.000000
# 5 0.000000 0.000000 0.000000 0.000000 0.049461 0.000000
# 6 0.000000 0.000000 0.000000 0.000000 0.000000 0.041160
#
#
# Mechanical properties :
#
#
# Convention : Reuss Voigt Hill
#
# Bulk Modulus (GPa) = 46.06736 58.78608 52.42672
# Shear Modulus (GPa) = 17.42729 20.22076 18.82402
#
# Velocity S-wave (km/s) = 3.36061 3.61994 3.49268
# Velocity P-wave (km/s) = 6.70164 7.45439 7.08802
#
# Compressibility (1/GPa) = 0.02170734
#
# Stress axis : x y z
#
# Youngs Moduli (GPa) = 58.07185 58.07185 21.64138
#
# Poissons Ratio (x) = 0.19511 0.28253
# Poissons Ratio (y) = 0.19511 0.28253
# Poissons Ratio (z) = 0.75814 0.75814
#
# Static dielectric constant tensor:
#      x y z
#    x 2.991930 0.000000 0.000000 
#    y 0.000000 2.991930 0.000000 
#    z 0.000000 0.000000 2.591440 
# 
# 
# High freq. dielectric constant tensor:
#      x y z
#    x 1.586470 0.000000 0.000000 
#    y 0.000000 1.586470 0.000000 
#    z 0.000000 0.000000 1.560130 
# 
# From -- ./inp_files/1230.got.cif
#   From: 2010.03.12/outbox.cif.g09.slc.cpg/sg175_1_cif.got.tgz:1230.got - 2010.04.02 06:55:29.
