data_PCOD8325027
_publ_section_title
;
Structure prediction by ZEFSAII (Michael W. Deem and Ramdas Pophale) SiO2 
 PCOD8325027
Probable space group: P 6/M
;
_chemical_formula_sum "Si O2"
_cell_formula_units_Z 78
_cell_length_a 17.690217
_cell_length_b 17.690217
_cell_length_c 17.628392
_cell_angle_alpha 90.000000
_cell_angle_beta 90.000000
_cell_angle_gamma 120.000000
_cell_volume 4777.598521
_symmetry_space_group_name_H-M "P 6/M"
_symmetry_group_IT_number 175
_symmetry_cell_setting 'hexagonal'
loop_
_space_group_symop_operation_xyz
x,y,z
x-y,x,z
-y,x-y,z
-x,-y,z
-x+y,-x,z
y,-x+y,z
-x,-y,-z
-x+y,-x,-z
y,-x+y,-z
x,y,-z
x-y,x,-z
-y,x-y,-z
loop_
_atom_site_type_symbol
_atom_site_label
_atom_site_fract_x
_atom_site_fract_y
_atom_site_fract_z
Si Si1 0.098627 0.466536 0.836088
Si Si2 0.159239 0.494316 0.000000
Si Si3 0.104113 0.208227 0.335007
Si Si4 0.796601 0.898300 0.088740
Si Si5 0.664923 0.505684 0.000000
Si Si6 0.466536 0.098627 0.163912
Si Si7 0.798411 0.899205 0.500000
Si Si8 0.353816 0.176908 0.791814
O O1 0.142890 0.571445 0.819798
O O2 0.140232 0.420250 0.787759
O O3 0.000000 0.421738 0.809898
O O4 0.101922 0.449664 0.925655
O O5 0.194905 0.597453 0.000000
O O6 0.238994 0.477989 0.000000
O O7 0.148503 0.148503 0.321330
O O8 0.126572 0.253145 0.419600
O O9 0.145065 0.290131 0.279478
O O10 0.852746 0.852746 0.111695
O O11 0.704753 0.852376 0.132286
O O12 0.774612 0.887306 0.000000
O O13 0.652259 0.550337 0.074345
O O14 0.420249 0.140231 0.212241
O O15 0.862021 0.862020 0.500000
#
# Coordination Sequence:
#
# PCOD8325027 Si02
#       8
#    12   6  12  12   6  12   6  12
#     4  10  21  35  48  64  89 121 157 202 256 306
#     4  10  18  31  47  66  83 113 154 205 252 299
#     4  10  19  32  52  80 114 146 174 201 233 280
#     4  10  21  34  48  66  96 136 174 207 239 284
#     4  10  18  31  47  66  83 113 154 205 252 299
#     4  10  21  35  48  64  89 121 157 202 256 306
#     4   8  15  28  48  76 110 146 174 198 232 276
#     4  12  22  34  49  74  94 126 167 213 252 295
#
# _framework density 16.326194000000001
#
# number of rings (size 3 to 8) (size 9 to 14) (size 15 to 20)
#    0.000    1.846    1.538    3.769    2.154    3.692 
#    0.923    1.538    0.000    0.000    0.000    1.077 
#    0.000    6.154    0.000    0.000    0.000    0.000 
#
# Total GULP energy -966501.961725 kJ/mol
# GULP energy per Si atom -12391.050791 kJ/mol
# Density = 1.628903 g / cm^3
# Si number density = 16.326194 Si / 1000 Ang^3
#
#
#
# Elastic Constant Matrix: (Units=GPa)
#
#
# Indices 1 2 3 4 5 6 
#
# 1 105.9550 48.4541 42.1104 0.0000 0.0000 0.0000
# 2 48.4541 105.9550 42.1104 0.0000 0.0000 0.0000
# 3 42.1104 42.1104 87.6411 0.0000 0.0000 0.0000
# 4 0.0000 0.0000 0.0000 13.7737 0.0000 0.0000
# 5 0.0000 0.0000 0.0000 0.0000 13.7737 0.0000
# 6 0.0000 0.0000 0.0000 0.0000 0.0000 28.7505
#
#
#
# Elastic Compliance Matrix: (Units=1/GPa)
#
#
# Indices 1 2 3 4 5 6 
#
# 1 0.013084 -0.004307 -0.004217 0.000000 0.000000 0.000000
# 2 -0.004307 0.013084 -0.004217 0.000000 0.000000 0.000000
# 3 -0.004217 -0.004217 0.015463 0.000000 0.000000 0.000000
# 4 0.000000 0.000000 0.000000 0.072602 0.000000 0.000000
# 5 0.000000 0.000000 0.000000 0.000000 0.072602 0.000000
# 6 0.000000 0.000000 0.000000 0.000000 0.000000 0.034782
#
#
# Mechanical properties :
#
#
# Convention : Reuss Voigt Hill
#
# Bulk Modulus (GPa) = 61.92887 62.76677 62.34782
# Shear Modulus (GPa) = 19.80344 22.38465 21.09405
#
# Velocity S-wave (km/s) = 3.48657 3.70684 3.59839
# Velocity P-wave (km/s) = 7.36361 7.53988 7.45227
#
# Compressibility (1/GPa) = 0.01614756
#
# Stress axis : x y z
#
# Youngs Moduli (GPa) = 76.43095 76.43095 64.67248
#
# Poissons Ratio (x) = 0.32921 0.27272
# Poissons Ratio (y) = 0.32921 0.27272
# Poissons Ratio (z) = 0.32230 0.32230
#
# Static dielectric constant tensor:
#      x y z
#    x 3.159420 0.000000 0.000000 
#    y 0.000000 3.159420 0.000000 
#    z 0.000000 0.000000 3.136650 
# 
# 
# High freq. dielectric constant tensor:
#      x y z
#    x 1.628980 0.000000 0.000000 
#    y 0.000000 1.628980 0.000000 
#    z 0.000000 0.000000 1.588690 
# 
# From -- ./inp_files/2971.got.cif
#   From: 2010.03.12/outbox.cif.g09.slc.cpg/sg175_2_cif.got.tgz:2971.got - 2010.04.02 06:55:29.
