data_PCOD8325367
_publ_section_title
;
Structure prediction by ZEFSAII (Michael W. Deem and Ramdas Pophale) SiO2 
 PCOD8325367
Probable space group: P 6/M
;
_chemical_formula_sum "Si O2"
_cell_formula_units_Z 78
_cell_length_a 23.158222
_cell_length_b 23.158222
_cell_length_c 9.869259
_cell_angle_alpha 90.000000
_cell_angle_beta 90.000000
_cell_angle_gamma 120.000000
_cell_volume 4583.799404
_symmetry_space_group_name_H-M "P 6/M"
_symmetry_group_IT_number 175
_symmetry_cell_setting 'hexagonal'
loop_
_space_group_symop_operation_xyz
x,y,z
x-y,x,z
-y,x-y,z
-x,-y,z
-x+y,-x,z
y,-x+y,z
-x,-y,-z
-x+y,-x,-z
y,-x+y,-z
x,y,-z
x-y,x,-z
-y,x-y,-z
loop_
_atom_site_type_symbol
_atom_site_label
_atom_site_fract_x
_atom_site_fract_y
_atom_site_fract_z
Si Si1 0.397102 0.479111 0.152336
Si Si2 0.923497 0.528722 0.151065
Si Si3 0.852047 0.878872 0.500000
Si Si4 0.918280 0.196179 0.149697
Si Si5 0.618349 0.915326 0.653215
Si Si6 0.816665 0.059420 0.751103
Si Si7 0.299638 0.926599 0.649681
O O1 0.430357 0.433254 0.152476
O O2 0.452268 0.554422 0.194309
O O3 0.337585 0.450840 0.262770
O O4 0.370103 0.478352 0.000000
O O5 0.894385 0.562205 0.253055
O O6 0.897930 0.530750 0.000000
O O7 0.917941 0.873559 0.500000
O O8 0.808398 0.840385 0.628186
O O9 0.895201 0.229070 0.266169
O O10 0.879859 0.116590 0.169807
O O11 0.997284 0.223970 0.151387
O O12 0.902054 0.213076 0.000000
O O13 0.604695 0.885374 0.500000
O O14 0.653883 0.994322 0.644732
O O15 0.773160 0.092210 0.701681
O O16 0.293703 0.896434 0.500000
#
# Coordination Sequence:
#
# PCOD8325367 Si02
#       7
#    12  12   6  12  12  12  12
#     4   8  13  24  39  58  87 123 156 187 215 247
#     4   8  14  23  38  59  88 124 157 184 213 250
#     4  12  23  40  62  80  92 117 155 213 277 351
#     4  11  23  37  52  71  93 121 157 203 259 324
#     4   9  18  28  44  66  89 118 156 193 235 280
#     4  11  22  35  56  71  94 121 156 200 259 328
#     4   9  17  27  42  65  89 117 151 186 231 280
#
# _framework density 17.016451
#
# number of rings (size 3 to 8) (size 9 to 14) (size 15 to 20)
#    0.000    2.462    2.308    1.923    2.154    4.923 
#    0.000    3.077    0.000    0.000    0.000    2.154 
#    0.000    0.000    0.000    0.923    0.000   12.000 
#
# Total GULP energy -966813.112025 kJ/mol
# GULP energy per Si atom -12395.039898 kJ/mol
# Density = 1.697772 g / cm^3
# Si number density = 17.016451 Si / 1000 Ang^3
#
#
#
# Elastic Constant Matrix: (Units=GPa)
#
#
# Indices 1 2 3 4 5 6 
#
# 1 57.0829 25.5252 33.0808 0.0000 0.0000 0.0000
# 2 25.5252 57.0829 33.0808 0.0000 0.0000 0.0000
# 3 33.0808 33.0808 122.4983 0.0000 0.0000 0.0000
# 4 0.0000 0.0000 0.0000 21.8789 0.0000 0.0000
# 5 0.0000 0.0000 0.0000 0.0000 21.8789 0.0000
# 6 0.0000 0.0000 0.0000 0.0000 0.0000 15.7789
#
#
#
# Elastic Compliance Matrix: (Units=1/GPa)
#
#
# Indices 1 2 3 4 5 6 
#
# 1 0.023567 -0.008121 -0.004171 0.000000 0.000000 0.000000
# 2 -0.008121 0.023567 -0.004171 0.000000 0.000000 0.000000
# 3 -0.004171 -0.004171 0.010416 0.000000 0.000000 0.000000
# 4 0.000000 0.000000 0.000000 0.045706 0.000000 0.000000
# 5 0.000000 0.000000 0.000000 0.000000 0.045706 0.000000
# 6 0.000000 0.000000 0.000000 0.000000 0.000000 0.063376
#
#
# Mechanical properties :
#
#
# Convention : Reuss Voigt Hill
#
# Bulk Modulus (GPa) = 40.61147 46.67084 43.64115
# Shear Modulus (GPa) = 19.72595 21.57249 20.64922
#
# Velocity S-wave (km/s) = 3.40844 3.56440 3.48729
# Velocity P-wave (km/s) = 6.27756 6.66531 6.47434
#
# Compressibility (1/GPa) = 0.02462358
#
# Stress axis : x y z
#
# Youngs Moduli (GPa) = 42.43213 42.43213 96.00366
#
# Poissons Ratio (x) = 0.34459 0.40045
# Poissons Ratio (y) = 0.34459 0.40045
# Poissons Ratio (z) = 0.17699 0.17699
#
# Static dielectric constant tensor:
#      x y z
#    x 2.965210 0.000000 0.000000 
#    y 0.000000 2.965210 0.000000 
#    z 0.000000 0.000000 4.019230 
# 
# 
# High freq. dielectric constant tensor:
#      x y z
#    x 1.620190 0.000000 0.000000 
#    y 0.000000 1.620190 0.000000 
#    z 0.000000 0.000000 1.670320 
# 
# From -- ./inp_files/1311.got.cif
#   From: 2010.03.12/outbox.cif.g09.slc.cpg/sg175_1_cif.got.tgz:1311.got - 2010.04.02 06:55:29.
