data_PCOD8325167
_publ_section_title
;
Structure prediction by ZEFSAII (Michael W. Deem and Ramdas Pophale) SiO2 
 PCOD8325167
Probable space group: P 6/M
;
_chemical_formula_sum "Si O2"
_cell_formula_units_Z 72
_cell_length_a 23.653184
_cell_length_b 23.653184
_cell_length_c 9.131237
_cell_angle_alpha 90.000000
_cell_angle_beta 90.000000
_cell_angle_gamma 120.000000
_cell_volume 4424.248039
_symmetry_space_group_name_H-M "P 6/M"
_symmetry_group_IT_number 175
_symmetry_cell_setting 'hexagonal'
loop_
_space_group_symop_operation_xyz
x,y,z
x-y,x,z
-y,x-y,z
-x,-y,z
-x+y,-x,z
y,-x+y,z
-x,-y,-z
-x+y,-x,-z
y,-x+y,-z
x,y,-z
x-y,x,-z
-y,x-y,-z
loop_
_atom_site_type_symbol
_atom_site_label
_atom_site_fract_x
_atom_site_fract_y
_atom_site_fract_z
Si Si1 0.626110 0.819859 0.331131
Si Si2 0.638133 0.932955 0.172221
Si Si3 0.249878 0.508447 0.168567
Si Si4 0.481100 0.628315 0.329819
Si Si5 0.633990 0.698675 0.665653
Si Si6 0.135241 0.622568 0.832933
O O1 0.608437 0.824204 0.500000
O O2 0.666313 0.892203 0.260321
O O3 0.562805 0.783489 0.233040
O O4 0.661809 0.776811 0.320751
O O5 0.562762 0.906221 0.216675
O O6 0.680737 0.007747 0.219067
O O7 0.645641 0.925958 0.000000
O O8 0.218391 0.545437 0.254816
O O9 0.328116 0.541604 0.185123
O O10 0.229422 0.503735 0.000000
O O11 0.467320 0.626845 0.500000
O O12 0.557271 0.657582 0.295382
O O13 0.440819 0.555104 0.266618
O O14 0.644768 0.681820 0.500000
O O15 0.118218 0.599315 0.000000
#
# Coordination Sequence:
#
# PCOD8325167 Si02
#       6
#    12  12  12  12  12  12
#     4   9  17  31  50  69  92 120 149 184 223 267
#     4  10  20  32  49  72  94 122 157 190 230 278
#     4   9  17  31  48  63  82 111 146 184 232 287
#     4  10  20  32  47  66  87 115 152 195 242 287
#     4   9  19  33  48  69  94 122 154 187 230 279
#     4   9  19  33  46  63  87 116 149 190 241 290
#
# _framework density 16.273952000000001
#
# number of rings (size 3 to 8) (size 9 to 14) (size 15 to 20)
#    0.000    2.667    0.000    4.000    0.000    8.667 
#    1.000    3.333    0.000    0.000    0.000    0.000 
#    0.000    0.000    0.000    0.500    0.000    9.667 
#
# Total GULP energy -892329.278294 kJ/mol
# GULP energy per Si atom -12393.462199 kJ/mol
# Density = 1.623691 g / cm^3
# Si number density = 16.273952 Si / 1000 Ang^3
#
#
#
# Elastic Constant Matrix: (Units=GPa)
#
#
# Indices 1 2 3 4 5 6 
#
# 1 60.9435 35.0947 36.0721 0.0000 0.0000 0.0000
# 2 35.0947 60.9435 36.0721 0.0000 0.0000 0.0000
# 3 36.0721 36.0721 75.4661 0.0000 0.0000 0.0000
# 4 0.0000 0.0000 0.0000 25.6861 0.0000 0.0000
# 5 0.0000 0.0000 0.0000 0.0000 25.6861 0.0000
# 6 0.0000 0.0000 0.0000 0.0000 0.0000 12.9244
#
#
#
# Elastic Compliance Matrix: (Units=1/GPa)
#
#
# Indices 1 2 3 4 5 6 
#
# 1 0.027466 -0.011220 -0.007765 0.000000 0.000000 0.000000
# 2 -0.011220 0.027466 -0.007765 0.000000 0.000000 0.000000
# 3 -0.007765 -0.007765 0.020675 0.000000 0.000000 0.000000
# 4 0.000000 0.000000 0.000000 0.038932 0.000000 0.000000
# 5 0.000000 0.000000 0.000000 0.000000 0.038932 0.000000
# 6 0.000000 0.000000 0.000000 0.000000 0.000000 0.077373
#
#
# Mechanical properties :
#
#
# Convention : Reuss Voigt Hill
#
# Bulk Modulus (GPa) = 45.23902 45.75896 45.49899
# Shear Modulus (GPa) = 17.14009 18.86694 18.00352
#
# Velocity S-wave (km/s) = 3.24886 3.40859 3.32968
# Velocity P-wave (km/s) = 6.47551 6.60835 6.54227
#
# Compressibility (1/GPa) = 0.02210481
#
# Stress axis : x y z
#
# Youngs Moduli (GPa) = 36.40832 36.40832 48.36867
#
# Poissons Ratio (x) = 0.40851 0.37560
# Poissons Ratio (y) = 0.40851 0.37560
# Poissons Ratio (z) = 0.28272 0.28272
#
# Static dielectric constant tensor:
#      x y z
#    x 3.107100 0.000000 0.000000 
#    y 0.000000 3.107100 0.000000 
#    z 0.000000 0.000000 3.204850 
# 
# 
# High freq. dielectric constant tensor:
#      x y z
#    x 1.596540 0.000000 0.000000 
#    y 0.000000 1.596540 0.000000 
#    z 0.000000 0.000000 1.643400 
# 
# From -- ./inp_files/1193.got.cif
#   From: 2010.03.12/outbox.cif.g09.slc.cpg/sg175_1_cif.got.tgz:1193.got - 2010.04.02 06:55:29.
