data_PCOD8325023
_publ_section_title
;
Structure prediction by ZEFSAII (Michael W. Deem and Ramdas Pophale) SiO2 
 PCOD8325023
Probable space group: P 6/M
;
_chemical_formula_sum "Si O2"
_cell_formula_units_Z 90
_cell_length_a 25.592792
_cell_length_b 25.592792
_cell_length_c 9.589639
_cell_angle_alpha 90.000000
_cell_angle_beta 90.000000
_cell_angle_gamma 120.000000
_cell_volume 5439.615772
_symmetry_space_group_name_H-M "P 6/M"
_symmetry_group_IT_number 175
_symmetry_cell_setting 'hexagonal'
loop_
_space_group_symop_operation_xyz
x,y,z
x-y,x,z
-y,x-y,z
-x,-y,z
-x+y,-x,z
y,-x+y,z
-x,-y,-z
-x+y,-x,-z
y,-x+y,-z
x,y,-z
x-y,x,-z
-y,x-y,-z
loop_
_atom_site_type_symbol
_atom_site_label
_atom_site_fract_x
_atom_site_fract_y
_atom_site_fract_z
Si Si1 0.055409 0.640685 0.834874
Si Si2 0.640806 0.881992 0.341195
Si Si3 0.776889 0.941377 0.256213
Si Si4 0.891135 0.867615 0.500000
Si Si5 0.874280 0.637958 0.341967
Si Si6 0.562242 0.627296 0.337219
Si Si7 0.815215 0.066261 0.152427
Si Si8 0.537019 0.071779 0.153117
O O1 0.096931 0.706524 0.772235
O O2 0.091634 0.604144 0.812625
O O3 0.993153 0.609161 0.749561
O O4 0.042851 0.644030 0.000000
O O5 0.623528 0.889420 0.500000
O O6 0.712593 0.919270 0.327289
O O7 0.617188 0.811933 0.304295
O O8 0.829140 0.972279 0.367412
O O9 0.779721 0.886038 0.186438
O O10 0.792347 0.995094 0.148040
O O11 0.887089 0.927040 0.500000
O O12 0.887631 0.661310 0.500000
O O13 0.884356 0.581427 0.319835
O O14 0.922198 0.695195 0.255238
O O15 0.561397 0.609855 0.500000
O O16 0.494961 0.588438 0.271731
O O17 0.805222 0.085202 0.000000
O O18 0.500000 0.000000 0.148781
O O19 0.566455 0.096315 0.000000
#
# Coordination Sequence:
#
# PCOD8325023 Si02
#       8
#    12  12  12   6  12  12  12  12
#     4  10  20  32  46  69 102 135 165 200 238 287
#     4  10  20  33  50  70  96 129 165 198 243 293
#     4  11  22  35  55  72  95 122 158 201 255 308
#     4  12  23  40  62  80  90 120 163 217 267 331
#     4   9  21  35  49  70  99 130 164 203 245 291
#     4  10  18  30  49  73  97 127 167 206 240 283
#     4  11  23  36  51  71  96 124 158 199 252 310
#     4   8  16  30  46  66  97 132 160 192 234 272
#
# _framework density 16.545285
#
# number of rings (size 3 to 8) (size 9 to 14) (size 15 to 20)
#    0.000    2.000    2.000    2.867    1.867    8.800 
#    0.000    0.000    0.000    0.000    0.000    1.867 
#    1.333    0.000    0.800    0.000    1.067    0.000 
#
# Total GULP energy -1115676.884843 kJ/mol
# GULP energy per Si atom -12396.409832 kJ/mol
# Density = 1.650763 g / cm^3
# Si number density = 16.545285 Si / 1000 Ang^3
#
#
#
# Elastic Constant Matrix: (Units=GPa)
#
#
# Indices 1 2 3 4 5 6 
#
# 1 72.0419 45.7066 41.8645 0.0000 0.0000 0.0000
# 2 45.7066 72.0419 41.8645 0.0000 0.0000 0.0000
# 3 41.8645 41.8645 109.4299 0.0000 0.0000 0.0000
# 4 0.0000 0.0000 0.0000 24.1093 0.0000 0.0000
# 5 0.0000 0.0000 0.0000 0.0000 24.1093 0.0000
# 6 0.0000 0.0000 0.0000 0.0000 0.0000 13.1676
#
#
#
# Elastic Compliance Matrix: (Units=1/GPa)
#
#
# Indices 1 2 3 4 5 6 
#
# 1 0.024819 -0.013153 -0.004463 0.000000 0.000000 0.000000
# 2 -0.013153 0.024819 -0.004463 0.000000 0.000000 0.000000
# 3 -0.004463 -0.004463 0.012553 0.000000 0.000000 0.000000
# 4 0.000000 0.000000 0.000000 0.041478 0.000000 0.000000
# 5 0.000000 0.000000 0.000000 0.000000 0.041478 0.000000
# 6 0.000000 0.000000 0.000000 0.000000 0.000000 0.075944
#
#
# Mechanical properties :
#
#
# Convention : Reuss Voigt Hill
#
# Bulk Modulus (GPa) = 55.45327 56.93167 56.19247
# Shear Modulus (GPa) = 18.43248 20.54911 19.49080
#
# Velocity S-wave (km/s) = 3.34138 3.52801 3.43596
# Velocity P-wave (km/s) = 6.96242 7.14704 7.05533
#
# Compressibility (1/GPa) = 0.01803320
#
# Stress axis : x y z
#
# Youngs Moduli (GPa) = 40.29149 40.29149 79.66075
#
# Poissons Ratio (x) = 0.52994 0.35554
# Poissons Ratio (y) = 0.52994 0.35554
# Poissons Ratio (z) = 0.17983 0.17983
#
# Static dielectric constant tensor:
#      x y z
#    x 3.154560 0.000000 0.000000 
#    y 0.000000 3.154560 0.000000 
#    z 0.000000 0.000000 3.217560 
# 
# 
# High freq. dielectric constant tensor:
#      x y z
#    x 1.619390 0.000000 0.000000 
#    y 0.000000 1.619390 0.000000 
#    z 0.000000 0.000000 1.651230 
# 
# From -- ./inp_files/1478.got.cif
#   From: 2010.03.12/outbox.cif.g09.slc.cpg/sg175_1_cif.got.tgz:1478.got - 2010.04.02 06:55:29.
