data_PCOD8325247
_publ_section_title
;
Structure prediction by ZEFSAII (Michael W. Deem and Ramdas Pophale) SiO2 
 PCOD8325247
Probable space group: P 6/M
;
_chemical_formula_sum "Si O2"
_cell_formula_units_Z 40
_cell_length_a 15.971610
_cell_length_b 15.971610
_cell_length_c 8.366779
_cell_angle_alpha 90.000000
_cell_angle_beta 90.000000
_cell_angle_gamma 120.000000
_cell_volume 1848.358986
_symmetry_space_group_name_H-M "P 6/M"
_symmetry_group_IT_number 175
_symmetry_cell_setting 'hexagonal'
loop_
_space_group_symop_operation_xyz
x,y,z
x-y,x,z
-y,x-y,z
-x,-y,z
-x+y,-x,z
y,-x+y,z
-x,-y,-z
-x+y,-x,-z
y,-x+y,-z
x,y,-z
x-y,x,-z
-y,x-y,-z
loop_
_atom_site_type_symbol
_atom_site_label
_atom_site_fract_x
_atom_site_fract_y
_atom_site_fract_z
Si Si1 0.871699 0.396985 0.686125
Si Si2 0.666668 0.333335 0.689797
Si Si3 0.394031 0.351286 0.184057
Si Si4 0.789654 0.832984 0.689332
O O1 0.883037 0.380298 0.500000
O O2 0.762415 0.334137 0.749722
O O3 0.902992 0.509190 0.710493
O O4 0.929272 0.357231 0.789312
O O5 0.666667 0.333334 0.500000
O O6 0.313070 0.245084 0.237933
O O7 0.419389 0.348905 0.000000
O O8 0.874992 0.813984 0.748849
O O9 0.781455 0.825847 0.500000
#
# Coordination Sequence:
#
# PCOD8325247 Si02
#       4
#    12   4  12  12
#     4  10  20  39  62  88 118 158 205 251 291 340
#     4   9  21  36  61  92 118 147 199 254 295 336
#     4  11  23  39  58  88 124 161 197 238 295 360
#     4  10  22  41  66  91 115 149 196 249 298 351
#
# _framework density 21.640819
#
# number of rings (size 3 to 8) (size 9 to 14) (size 15 to 20)
#    0.000    1.800    0.000    5.700    4.200    2.400 
#    0.000    4.500    0.000    1.800    0.000    0.000 
#    0.000    0.000    0.000    0.000    0.000    0.000 
#
# Total GULP energy -495938.165359 kJ/mol
# GULP energy per Si atom -12398.454134 kJ/mol
# Density = 2.159156 g / cm^3
# Si number density = 21.640819 Si / 1000 Ang^3
#
#
#
# Elastic Constant Matrix: (Units=GPa)
#
#
# Indices 1 2 3 4 5 6 
#
# 1 48.1980 -10.6874 1.8179 0.0000 0.0000 -0.0008
# 2 -10.6874 48.2008 1.8183 0.0000 0.0000 -0.0017
# 3 1.8179 1.8183 47.1915 0.0000 0.0000 -0.0002
# 4 0.0000 0.0000 0.0000 4.5498 0.0000 0.0000
# 5 0.0000 0.0000 0.0000 0.0000 4.5482 0.0000
# 6 -0.0008 -0.0017 -0.0002 0.0000 0.0000 29.4442
#
#
#
# Elastic Compliance Matrix: (Units=1/GPa)
#
#
# Indices 1 2 3 4 5 6 
#
# 1 0.021871 0.004888 -0.001031 0.000000 0.000000 0.000001
# 2 0.004888 0.021869 -0.001031 0.000000 0.000000 0.000001
# 3 -0.001031 -0.001031 0.021270 0.000000 0.000000 0.000000
# 4 0.000000 0.000000 0.000000 0.219792 0.000002 0.000000
# 5 0.000000 0.000000 0.000000 0.000002 0.219868 0.000000
# 6 0.000001 0.000001 0.000000 0.000000 0.000000 0.033963
#
#
# Mechanical properties :
#
#
# Convention : Reuss Voigt Hill
#
# Bulk Modulus (GPa) = 14.15179 14.38752 14.26966
# Shear Modulus (GPa) = 8.98420 17.75120 13.36770
#
# Velocity S-wave (km/s) = 2.03973 2.86713 2.48807
# Velocity P-wave (km/s) = 3.47864 4.19802 3.85515
#
# Compressibility (1/GPa) = 0.07066242
#
# Stress axis : x y z
#
# Youngs Moduli (GPa) = 45.72363 45.72620 47.01522
#
# Poissons Ratio (x) = -0.22352 0.04846
# Poissons Ratio (y) = -0.22351 0.04847
# Poissons Ratio (z) = 0.04713 0.04714
#
# Static dielectric constant tensor:
#      x y z
#    x 4.160900 0.000010 0.000000 
#    y 0.000010 4.160890 0.000000 
#    z 0.000000 0.000000 3.624280 
# 
# 
# High freq. dielectric constant tensor:
#      x y z
#    x 1.855260 0.000000 0.000000 
#    y 0.000000 1.855260 0.000000 
#    z 0.000000 0.000000 1.829490 
# 
# From -- ./inp_files/420.got.cif
#   From: 2010.03.12/outbox.cif.g09.slc.cpg/sg175_1_cif.got.tgz:420.got - 2010.04.02 06:55:29.
