data_PCOD8325259
_publ_section_title
;
Structure prediction by ZEFSAII (Michael W. Deem and Ramdas Pophale) SiO2 
 PCOD8325259
Probable space group: P 6/M
;
_chemical_formula_sum "Si O2"
_cell_formula_units_Z 78
_cell_length_a 23.776399
_cell_length_b 23.776399
_cell_length_c 8.054754
_cell_angle_alpha 90.000000
_cell_angle_beta 90.000000
_cell_angle_gamma 120.000000
_cell_volume 3943.438510
_symmetry_space_group_name_H-M "P 6/M"
_symmetry_group_IT_number 175
_symmetry_cell_setting 'hexagonal'
loop_
_space_group_symop_operation_xyz
x,y,z
x-y,x,z
-y,x-y,z
-x,-y,z
-x+y,-x,z
y,-x+y,z
-x,-y,-z
-x+y,-x,-z
y,-x+y,-z
x,y,-z
x-y,x,-z
-y,x-y,-z
loop_
_atom_site_type_symbol
_atom_site_label
_atom_site_fract_x
_atom_site_fract_y
_atom_site_fract_z
Si Si1 0.441260 0.512812 0.312568
Si Si2 0.822111 0.459995 0.812900
Si Si3 0.362091 0.747063 0.500000
Si Si4 0.957816 0.216182 0.807231
Si Si5 0.599398 0.902519 0.309199
Si Si6 0.826126 0.100720 0.197601
Si Si7 0.226799 0.808172 0.805877
O O1 0.500000 0.500000 0.317685
O O2 0.427571 0.529169 0.500000
O O3 0.466294 0.573877 0.189301
O O4 0.375347 0.451088 0.242636
O O5 0.783706 0.406460 0.674301
O O6 0.826370 0.527000 0.757992
O O7 0.792608 0.439722 0.000000
O O8 0.285752 0.692965 0.500000
O O9 0.941830 0.274113 0.786308
O O10 0.899556 0.148074 0.732465
O O11 0.027741 0.234656 0.726045
O O12 0.962914 0.206047 0.000000
O O13 0.614912 0.921434 0.500000
O O14 0.567373 0.825106 0.285067
O O15 0.782148 0.131831 0.252201
O O16 0.828253 0.097985 0.000000
O O17 0.213120 0.795437 0.000000
#
# Coordination Sequence:
#
# PCOD8325259 Si02
#       7
#    12  12   6  12  12  12  12
#     4  10  23  41  58  80 116 156 194 241 300 359
#     4  11  24  40  63  89 115 151 200 245 297 359
#     4  10  26  44  63  84 118 152 194 246 304 355
#     4   9  17  32  53  77 107 142 180 224 271 328
#     4  10  21  34  55  80 108 144 187 228 284 343
#     4   8  15  30  52  77 106 141 180 223 274 327
#     4   9  20  36  55  82 109 142 188 235 284 343
#
# _framework density 19.779693000000002
#
# number of rings (size 3 to 8) (size 9 to 14) (size 15 to 20)
#    0.154    2.308    0.769    1.385    5.385    2.154 
#    0.000    3.077    0.000    0.308    0.000    2.154 
#    0.000    0.000    0.000    5.538    0.000    6.154 
#
# Total GULP energy -966623.083675 kJ/mol
# GULP energy per Si atom -12392.603637 kJ/mol
# Density = 1.973467 g / cm^3
# Si number density = 19.779693 Si / 1000 Ang^3
#
#
#
# Elastic Constant Matrix: (Units=GPa)
#
#
# Indices 1 2 3 4 5 6 
#
# 1 115.4701 56.1058 7.9467 0.0000 0.0000 0.0000
# 2 56.1058 115.4701 7.9467 0.0000 0.0000 0.0000
# 3 7.9467 7.9467 46.5778 0.0000 0.0000 0.0000
# 4 0.0000 0.0000 0.0000 14.3426 0.0000 0.0000
# 5 0.0000 0.0000 0.0000 0.0000 14.3426 0.0000
# 6 0.0000 0.0000 0.0000 0.0000 0.0000 29.6822
#
#
#
# Elastic Compliance Matrix: (Units=1/GPa)
#
#
# Indices 1 2 3 4 5 6 
#
# 1 0.011384 -0.005462 -0.001010 0.000000 0.000000 0.000000
# 2 -0.005462 0.011384 -0.001010 0.000000 0.000000 0.000000
# 3 -0.001010 -0.001010 0.021814 0.000000 0.000000 0.000000
# 4 0.000000 0.000000 0.000000 0.069722 0.000000 0.000000
# 5 0.000000 0.000000 0.000000 0.000000 0.069722 0.000000
# 6 0.000000 0.000000 0.000000 0.000000 0.000000 0.033690
#
#
# Mechanical properties :
#
#
# Convention : Reuss Voigt Hill
#
# Bulk Modulus (GPa) = 33.76480 46.83517 40.29999
# Shear Modulus (GPa) = 20.61403 25.37472 22.99437
#
# Velocity S-wave (km/s) = 3.23179 3.58560 3.41328
# Velocity P-wave (km/s) = 5.57076 6.39311 5.99605
#
# Compressibility (1/GPa) = 0.02961665
#
# Stress axis : x y z
#
# Youngs Moduli (GPa) = 87.84628 87.84628 45.84165
#
# Poissons Ratio (x) = 0.47978 0.04632
# Poissons Ratio (y) = 0.47978 0.04632
# Poissons Ratio (z) = 0.08876 0.08876
#
# Static dielectric constant tensor:
#      x y z
#    x 3.764560 0.000000 0.000000 
#    y 0.000000 3.764560 0.000000 
#    z 0.000000 0.000000 3.468670 
# 
# 
# High freq. dielectric constant tensor:
#      x y z
#    x 1.765800 0.000000 0.000000 
#    y 0.000000 1.765800 0.000000 
#    z 0.000000 0.000000 1.752790 
# 
# From -- ./inp_files/1310.got.cif
#   From: 2010.03.12/outbox.cif.g09.slc.cpg/sg175_1_cif.got.tgz:1310.got - 2010.04.02 06:55:29.
