data_PCOD8325210
_publ_section_title
;
Structure prediction by ZEFSAII (Michael W. Deem and Ramdas Pophale) SiO2 
 PCOD8325210
Probable space group: P 6/M
;
_chemical_formula_sum "Si O2"
_cell_formula_units_Z 60
_cell_length_a 16.583522
_cell_length_b 16.583522
_cell_length_c 13.221782
_cell_angle_alpha 90.000000
_cell_angle_beta 90.000000
_cell_angle_gamma 120.000000
_cell_volume 3149.010919
_symmetry_space_group_name_H-M "P 6/M"
_symmetry_group_IT_number 175
_symmetry_cell_setting 'hexagonal'
loop_
_space_group_symop_operation_xyz
x,y,z
x-y,x,z
-y,x-y,z
-x,-y,z
-x+y,-x,z
y,-x+y,z
-x,-y,-z
-x+y,-x,-z
y,-x+y,-z
x,y,-z
x-y,x,-z
-y,x-y,-z
loop_
_atom_site_type_symbol
_atom_site_label
_atom_site_fract_x
_atom_site_fract_y
_atom_site_fract_z
Si Si1 0.634695 0.481283 0.708981
Si Si2 0.824797 0.522445 0.616852
Si Si3 0.413673 0.898093 0.889756
Si Si4 0.994143 0.185693 0.114130
Si Si5 0.024932 0.349727 0.748934
O O1 0.729761 0.486405 0.678627
O O2 0.551471 0.411619 0.634410
O O3 0.608147 0.442108 0.823851
O O4 0.642253 0.581425 0.705135
O O5 0.804953 0.529072 0.500000
O O6 0.903698 0.625481 0.654702
O O7 0.335166 0.910350 0.833213
O O8 0.500000 0.000000 0.902655
O O9 0.377985 0.851499 0.000000
O O10 0.084803 0.177913 0.130831
O O11 0.987724 0.249730 0.201015
O O12 0.992690 0.222216 0.000000
#
# Coordination Sequence:
#
# PCOD8325210 Si02
#       5
#    12  12  12  12  12
#     4  10  21  36  54  79 110 143 186 232 277 332
#     4  11  22  36  55  77 106 146 189 235 285 331
#     4   8  15  30  52  76 105 140 172 210 263 320
#     4  10  20  35  57  85 116 148 180 216 263 323
#     4  10  20  35  55  81 110 140 184 233 274 323
#
# _framework density 19.053602000000001
#
# number of rings (size 3 to 8) (size 9 to 14) (size 15 to 20)
#    0.000    2.200    0.000    4.800    0.000    4.000 
#    0.000    5.000    0.000    0.000    0.000    0.000 
#    0.000    3.200    0.000    0.000    0.000    0.000 
#
# Total GULP energy -743688.669533 kJ/mol
# GULP energy per Si atom -12394.811159 kJ/mol
# Density = 1.901024 g / cm^3
# Si number density = 19.053602 Si / 1000 Ang^3
#
#
#
# Elastic Constant Matrix: (Units=GPa)
#
#
# Indices 1 2 3 4 5 6 
#
# 1 85.0711 26.9096 43.1336 0.0000 0.0000 0.0000
# 2 26.9096 85.0711 43.1336 0.0000 0.0000 0.0000
# 3 43.1336 43.1336 119.0236 0.0000 0.0000 0.0000
# 4 0.0000 0.0000 0.0000 26.9243 0.0000 0.0000
# 5 0.0000 0.0000 0.0000 0.0000 26.9243 0.0000
# 6 0.0000 0.0000 0.0000 0.0000 0.0000 29.0807
#
#
#
# Elastic Compliance Matrix: (Units=1/GPa)
#
#
# Indices 1 2 3 4 5 6 
#
# 1 0.014791 -0.002402 -0.004490 0.000000 0.000000 0.000000
# 2 -0.002402 0.014791 -0.004490 0.000000 0.000000 0.000000
# 3 -0.004490 -0.004490 0.011656 0.000000 0.000000 0.000000
# 4 0.000000 0.000000 0.000000 0.037141 0.000000 0.000000
# 5 0.000000 0.000000 0.000000 0.000000 0.037141 0.000000
# 6 0.000000 0.000000 0.000000 0.000000 0.000000 0.034387
#
#
# Mechanical properties :
#
#
# Convention : Reuss Voigt Hill
#
# Bulk Modulus (GPa) = 54.12779 57.27992 55.70385
# Shear Modulus (GPa) = 27.95969 28.31849 28.13909
#
# Velocity S-wave (km/s) = 3.83485 3.85938 3.84713
# Velocity P-wave (km/s) = 6.93383 7.07018 7.00234
#
# Compressibility (1/GPa) = 0.01847480
#
# Stress axis : x y z
#
# Youngs Moduli (GPa) = 67.60793 67.60793 85.79461
#
# Poissons Ratio (x) = 0.16242 0.38519
# Poissons Ratio (y) = 0.16242 0.38519
# Poissons Ratio (z) = 0.30354 0.30354
#
# Static dielectric constant tensor:
#      x y z
#    x 3.404290 0.000000 0.000000 
#    y 0.000000 3.404290 0.000000 
#    z 0.000000 0.000000 3.714350 
# 
# 
# High freq. dielectric constant tensor:
#      x y z
#    x 1.731160 0.000000 0.000000 
#    y 0.000000 1.731160 0.000000 
#    z 0.000000 0.000000 1.736570 
# 
# From -- ./inp_files/2363.got.cif
#   From: 2010.03.12/outbox.cif.g09.slc.cpg/sg175_2_cif.got.tgz:2363.got - 2010.04.02 06:55:29.
