data_PCOD8325944
_publ_section_title
;
Structure prediction by ZEFSAII (Michael W. Deem and Ramdas Pophale) SiO2 
 PCOD8325944
Probable space group: P 61 2 2
;
_chemical_formula_sum "Si O2"
_cell_formula_units_Z 42
_cell_length_a 8.068858
_cell_length_b 8.068858
_cell_length_c 26.219650
_cell_angle_alpha 90.000000
_cell_angle_beta 90.000000
_cell_angle_gamma 120.000000
_cell_volume 1478.364982
_symmetry_space_group_name_H-M "P 61 2 2"
_symmetry_group_IT_number 178
_symmetry_cell_setting 'hexagonal'
loop_
_space_group_symop_operation_xyz
x,y,z
x-y,x,1/6+z
-y,x-y,1/3+z
-x,-y,1/2+z
-x+y,-x,2/3+z
y,-x+y,5/6+z
x-y,-y,-z
-x,-x+y,2/3-z
y,x,1/3-z
-y,-x,5/6-z
-x+y,y,1/2-z
x,x-y,1/6-z
loop_
_atom_site_type_symbol
_atom_site_label
_atom_site_fract_x
_atom_site_fract_y
_atom_site_fract_z
Si Si1 0.448150 0.724075 0.583334
Si Si2 0.719340 0.127189 0.310076
Si Si3 0.275993 0.724008 0.416667
Si Si4 0.872698 0.592031 0.143410
Si Si5 0.000054 0.000054 0.666667
O O1 0.576103 0.715490 0.538126
O O2 0.321912 0.517455 0.610917
O O3 0.804409 0.321783 0.277578
O O4 0.500007 0.999920 0.291808
O O5 0.858018 0.041518 0.298265
O O6 0.284545 0.860528 0.371459
O O7 0.958398 0.816388 0.131603
#
# Coordination Sequence:
#
# PCOD8325944 Si02
#       5
#     6  12   6  12   6
#     4  10  25  49  74 102 168 212 248 341 423 464
#     4  11  26  50  76 117 162 208 274 343 409 491
#     4  10  25  49  74 102 168 212 248 341 423 464
#     4  11  26  50  76 117 162 208 274 343 409 491
#     4  12  28  48  84 124 152 208 296 334 402 524
#
# _framework density 28.409763999999999
#
# number of rings (size 3 to 8) (size 9 to 14) (size 15 to 20)
#    0.000    1.143    0.000    4.286    8.000    3.429 
#    0.000    0.000    0.000    0.000    0.000    0.000 
#    0.000    0.000    0.000    0.000    0.000    0.000 
#
# Total GULP energy -520338.872793 kJ/mol
# GULP energy per Si atom -12389.020781 kJ/mol
# Density = 2.834510 g / cm^3
# Si number density = 28.409764 Si / 1000 Ang^3
#
#
#
# Elastic Constant Matrix: (Units=GPa)
#
#
# Indices 1 2 3 4 5 6 
#
# 1 160.0096 66.9927 19.5209 0.0000 0.0000 0.0000
# 2 66.9927 160.0096 19.5209 0.0000 0.0000 0.0000
# 3 19.5209 19.5209 222.1907 0.0000 0.0000 0.0000
# 4 0.0000 0.0000 0.0000 177.0868 0.0000 0.0000
# 5 0.0000 0.0000 0.0000 0.0000 177.0868 0.0000
# 6 0.0000 0.0000 0.0000 0.0000 0.0000 46.5085
#
#
#
# Elastic Compliance Matrix: (Units=1/GPa)
#
#
# Indices 1 2 3 4 5 6 
#
# 1 0.007612 -0.003139 -0.000393 0.000000 0.000000 0.000000
# 2 -0.003139 0.007612 -0.000393 0.000000 0.000000 0.000000
# 3 -0.000393 -0.000393 0.004570 0.000000 0.000000 0.000000
# 4 0.000000 0.000000 0.000000 0.005647 0.000000 0.000000
# 5 0.000000 0.000000 0.000000 0.000000 0.005647 0.000000
# 6 0.000000 0.000000 0.000000 0.000000 0.000000 0.021501
#
#
# Mechanical properties :
#
#
# Convention : Reuss Voigt Hill
#
# Bulk Modulus (GPa) = 83.72772 83.80876 83.76824
# Shear Modulus (GPa) = 77.61621 109.21479 93.41550
#
# Velocity S-wave (km/s) = 5.23255 6.20694 5.74046
# Velocity P-wave (km/s) = 8.12659 8.99623 8.57245
#
# Compressibility (1/GPa) = 0.01194348
#
# Stress axis : x y z
#
# Youngs Moduli (GPa) = 131.37532 131.37532 218.83328
#
# Poissons Ratio (x) = 0.41238 0.08599
# Poissons Ratio (y) = 0.41238 0.08599
# Poissons Ratio (z) = 0.05163 0.05163
#
# Static dielectric constant tensor:
#      x y z
#    x 5.034720 0.000000 0.000000 
#    y 0.000000 5.034720 0.000000 
#    z 0.000000 0.000000 5.099530 
# 
# 
# High freq. dielectric constant tensor:
#      x y z
#    x 2.143000 0.000000 0.000000 
#    y 0.000000 2.143000 0.000000 
#    z 0.000000 0.000000 2.174180 
# 
# From -- ./inp_files/9348.got.cif
#   From: 2010.03.12/outbox.cif.g09.slc.cpg/sg178_5_cif.got.tgz:9348.got - 2010.04.02 07:02:38.
