data_PCOD8325016
_publ_section_title
;
Structure prediction by ZEFSAII (Michael W. Deem and Ramdas Pophale) SiO2 
 PCOD8325016
Probable space group: P 6/M
;
_chemical_formula_sum "Si O2"
_cell_formula_units_Z 72
_cell_length_a 23.081927
_cell_length_b 23.081927
_cell_length_c 8.386232
_cell_angle_alpha 90.000000
_cell_angle_beta 90.000000
_cell_angle_gamma 120.000000
_cell_volume 3869.382211
_symmetry_space_group_name_H-M "P 6/M"
_symmetry_group_IT_number 175
_symmetry_cell_setting 'hexagonal'
loop_
_space_group_symop_operation_xyz
x,y,z
x-y,x,z
-y,x-y,z
-x,-y,z
-x+y,-x,z
y,-x+y,z
-x,-y,-z
-x+y,-x,-z
y,-x+y,-z
x,y,-z
x-y,x,-z
-y,x-y,-z
loop_
_atom_site_type_symbol
_atom_site_label
_atom_site_fract_x
_atom_site_fract_y
_atom_site_fract_z
Si Si1 0.609258 0.869481 0.310506
Si Si2 0.132347 0.132347 0.189072
Si Si3 0.260223 0.869481 0.310506
Si Si4 0.665749 0.462493 0.689776
Si Si5 0.796744 0.462493 0.689776
Si Si6 0.736930 0.000000 0.309995
O O1 0.612597 0.871934 0.500000
O O2 0.618783 0.809391 0.246147
O O3 0.536017 0.856067 0.254839
O O4 0.669985 0.937111 0.239467
O O5 0.065903 0.131805 0.252776
O O6 0.197424 0.197424 0.252351
O O7 0.133459 0.133459 0.000000
O O8 0.259338 0.871934 0.500000
O O9 0.320050 0.856067 0.254839
O O10 0.267126 0.937111 0.239467
O O11 0.663974 0.458974 0.500000
O O12 0.725335 0.450669 0.751615
O O13 0.595067 0.404933 0.761312
O O14 0.795000 0.458974 0.500000
O O15 0.737497 0.000000 0.500000
#
# Coordination Sequence:
#
# PCOD8325016 Si02
#       6
#    12  12  12  12  12  12
#     4   8  14  23  34  51  76 104 136 175 212 243
#     4  10  21  36  52  69  89 111 135 168 210 248
#     4   8  14  23  34  51  76 104 136 175 212 243
#     4   8  12  18  29  46  71 105 142 176 211 252
#     4   8  12  18  29  46  71 105 142 176 211 252
#     4  10  18  29  46  65  86 116 147 168 196 246
#
# _framework density 18.607620000000001
#
# number of rings (size 3 to 8) (size 9 to 14) (size 15 to 20)
#    0.000    3.333    0.000    3.500    0.000    4.000 
#    0.000    0.833    0.000    6.000    0.000    0.000 
#    0.000    2.667    0.000    1.000    0.000   10.667 
#
# Total GULP energy -892051.212581 kJ/mol
# GULP energy per Si atom -12389.600175 kJ/mol
# Density = 1.856527 g / cm^3
# Si number density = 18.607620 Si / 1000 Ang^3
#
#
#
# Elastic Constant Matrix: (Units=GPa)
#
#
# Indices 1 2 3 4 5 6 
#
# 1 188.7023 115.5408 6.4485 0.0000 0.0000 0.0000
# 2 115.5408 188.7023 6.4485 0.0000 0.0000 0.0000
# 3 6.4485 6.4485 4.4675 0.0000 0.0000 0.0000
# 4 0.0000 0.0000 0.0000 6.7987 0.0000 0.0000
# 5 0.0000 0.0000 0.0000 0.0000 6.7987 0.0000
# 6 0.0000 0.0000 0.0000 0.0000 0.0000 36.5808
#
#
#
# Elastic Compliance Matrix: (Units=1/GPa)
#
#
# Indices 1 2 3 4 5 6 
#
# 1 0.008585 -0.005084 -0.005054 0.000000 0.000000 0.000000
# 2 -0.005084 0.008585 -0.005054 0.000000 0.000000 0.000000
# 3 -0.005054 -0.005054 0.238429 0.000000 0.000000 0.000000
# 4 0.000000 0.000000 0.000000 0.147087 0.000000 0.000000
# 5 0.000000 0.000000 0.000000 0.000000 0.147087 0.000000
# 6 0.000000 0.000000 0.000000 0.000000 0.000000 0.027337
#
#
# Mechanical properties :
#
#
# Convention : Reuss Voigt Hill
#
# Bulk Modulus (GPa) = 4.44017 70.97198 37.70608
# Shear Modulus (GPa) = 7.32533 26.93126 17.12829
#
# Velocity S-wave (km/s) = 1.98627 3.80850 3.03726
# Velocity P-wave (km/s) = 2.76618 7.58707 5.71032
#
# Compressibility (1/GPa) = 0.22521658
#
# Stress axis : x y z
#
# Youngs Moduli (GPa) = 116.48598 116.48598 4.19413
#
# Poissons Ratio (x) = 0.59217 0.02120
# Poissons Ratio (y) = 0.59217 0.02120
# Poissons Ratio (z) = 0.58867 0.58867
#
# Static dielectric constant tensor:
#      x y z
#    x 3.834620 0.000000 0.000000 
#    y 0.000000 3.834620 0.000000 
#    z 0.000000 0.000000 2.682750 
# 
# 
# High freq. dielectric constant tensor:
#      x y z
#    x 1.728220 0.000000 0.000000 
#    y 0.000000 1.728220 0.000000 
#    z 0.000000 0.000000 1.649810 
# 
# From -- ./inp_files/1174.got.cif
#   From: 2010.03.12/outbox.cif.g09.slc.cpg/sg175_1_cif.got.tgz:1174.got - 2010.04.02 06:55:29.
