data_PCOD8325902
_publ_section_title
;
Structure prediction by ZEFSAII (Michael W. Deem and Ramdas Pophale) SiO2 
 PCOD8325902
Probable space group: P 61 2 2
;
_chemical_formula_sum "Si O2"
_cell_formula_units_Z 60
_cell_length_a 15.363877
_cell_length_b 15.363877
_cell_length_c 14.198191
_cell_angle_alpha 90.000000
_cell_angle_beta 90.000000
_cell_angle_gamma 120.000000
_cell_volume 2902.453624
_symmetry_space_group_name_H-M "P 61 2 2"
_symmetry_group_IT_number 178
_symmetry_cell_setting 'hexagonal'
loop_
_space_group_symop_operation_xyz
x,y,z
x-y,x,1/6+z
-y,x-y,1/3+z
-x,-y,1/2+z
-x+y,-x,2/3+z
y,-x+y,5/6+z
x-y,-y,-z
-x,-x+y,2/3-z
y,x,1/3-z
-y,-x,5/6-z
-x+y,y,1/2-z
x,x-y,1/6-z
loop_
_atom_site_type_symbol
_atom_site_label
_atom_site_fract_x
_atom_site_fract_y
_atom_site_fract_z
Si Si1 0.420902 0.728156 0.342796
Si Si2 0.077181 0.154361 0.250000
Si Si3 0.611838 0.611838 0.166667
Si Si4 0.506728 0.557623 0.811788
Si Si5 0.371399 0.140849 0.371905
Si Si6 0.001961 0.284187 0.140414
O O1 0.354244 0.645757 0.416667
O O2 0.358318 0.716635 0.250000
O O3 0.465986 0.836583 0.392140
O O4 0.511886 0.709804 0.320464
O O5 0.084582 0.084582 0.166667
O O6 0.188755 0.226112 0.289611
O O7 0.552631 0.544728 0.255483
O O8 0.722691 0.633563 0.139150
O O9 0.629255 0.616284 0.806179
O O10 0.472016 0.527985 0.916667
O O11 0.328464 0.215080 0.389510
O O12 0.309413 0.063820 0.289016
#
# Coordination Sequence:
#
# PCOD8325902 Si02
#       6
#    12   6   6  12  12  12
#     4  10  22  41  63  96 133 174 219 277 333 415
#     4  12  26  50  78 104 144 190 250 316 376 430
#     4  12  24  40  70 100 132 194 220 286 362 434
#     4  10  22  41  66  98 139 175 228 282 345 430
#     4  11  25  43  68  97 142 180 235 294 357 436
#     4  11  24  46  68 104 137 186 238 303 361 432
#
# _framework density 20.672165
#
# number of rings (size 3 to 8) (size 9 to 14) (size 15 to 20)
#    0.000    1.200    4.000    1.200    4.200    0.800 
#    3.600    0.000    0.000    0.000    0.000    0.000 
#    0.000    0.000    0.000    0.000    0.000    0.000 
#
# Total GULP energy -743760.511626 kJ/mol
# GULP energy per Si atom -12396.008527 kJ/mol
# Density = 2.062511 g / cm^3
# Si number density = 20.672165 Si / 1000 Ang^3
#
#
#
# Elastic Constant Matrix: (Units=GPa)
#
#
# Indices 1 2 3 4 5 6 
#
# 1 99.2634 29.8929 35.6977 0.0000 0.0000 0.0000
# 2 29.8929 99.2634 35.6977 0.0000 0.0000 0.0000
# 3 35.6977 35.6977 75.9362 0.0000 0.0000 0.0000
# 4 0.0000 0.0000 0.0000 34.0041 0.0000 0.0000
# 5 0.0000 0.0000 0.0000 0.0000 34.0041 0.0000
# 6 0.0000 0.0000 0.0000 0.0000 0.0000 34.6852
#
#
#
# Elastic Compliance Matrix: (Units=1/GPa)
#
#
# Indices 1 2 3 4 5 6 
#
# 1 0.012438 -0.001977 -0.004918 0.000000 0.000000 0.000000
# 2 -0.001977 0.012438 -0.004918 0.000000 0.000000 0.000000
# 3 -0.004918 -0.004918 0.017793 0.000000 0.000000 0.000000
# 4 0.000000 0.000000 0.000000 0.029408 0.000000 0.000000
# 5 0.000000 0.000000 0.000000 0.000000 0.029408 0.000000
# 6 0.000000 0.000000 0.000000 0.000000 0.000000 0.028831
#
#
# Mechanical properties :
#
#
# Convention : Reuss Voigt Hill
#
# Bulk Modulus (GPa) = 52.51084 53.00441 52.75762
# Shear Modulus (GPa) = 31.19359 32.08366 31.63862
#
# Velocity S-wave (km/s) = 3.88876 3.94385 3.91640
# Velocity P-wave (km/s) = 6.75426 6.81430 6.78435
#
# Compressibility (1/GPa) = 0.01904369
#
# Stress axis : x y z
#
# Youngs Moduli (GPa) = 80.39759 80.39759 56.20306
#
# Poissons Ratio (x) = 0.15896 0.27639
# Poissons Ratio (y) = 0.15896 0.27639
# Poissons Ratio (z) = 0.39537 0.39537
#
# Static dielectric constant tensor:
#      x y z
#    x 4.002170 0.000000 0.000000 
#    y 0.000000 4.002170 0.000000 
#    z 0.000000 0.000000 3.450860 
# 
# 
# High freq. dielectric constant tensor:
#      x y z
#    x 1.820500 0.000000 0.000000 
#    y 0.000000 1.820500 0.000000 
#    z 0.000000 0.000000 1.803070 
# 
# From -- ./inp_files/5718.got.cif
#   From: 2010.03.12/outbox.cif.g09.slc.cpg/sg178_3_cif.got.tgz:5718.got - 2010.04.02 07:02:38.
