data_PCOD8325197
_publ_section_title
;
Structure prediction by ZEFSAII (Michael W. Deem and Ramdas Pophale) SiO2 
 PCOD8325197
Probable space group: P 6/M
;
_chemical_formula_sum "Si O2"
_cell_formula_units_Z 40
_cell_length_a 16.294517
_cell_length_b 16.294517
_cell_length_c 8.226207
_cell_angle_alpha 90.000000
_cell_angle_beta 90.000000
_cell_angle_gamma 120.000000
_cell_volume 1891.530066
_symmetry_space_group_name_H-M "P 6/M"
_symmetry_group_IT_number 175
_symmetry_cell_setting 'hexagonal'
loop_
_space_group_symop_operation_xyz
x,y,z
x-y,x,z
-y,x-y,z
-x,-y,z
-x+y,-x,z
y,-x+y,z
-x,-y,-z
-x+y,-x,-z
y,-x+y,-z
x,y,-z
x-y,x,-z
-y,x-y,-z
loop_
_atom_site_type_symbol
_atom_site_label
_atom_site_fract_x
_atom_site_fract_y
_atom_site_fract_z
Si Si1 0.645548 0.035216 0.187275
Si Si2 0.666668 0.333334 0.693132
Si Si3 0.464725 0.870575 0.688588
Si Si4 0.800669 0.827996 0.806406
O O1 0.558203 0.928261 0.203401
O O2 0.741739 0.041808 0.256211
O O3 0.615812 0.099749 0.290647
O O4 0.658577 0.066255 0.000000
O O5 0.666667 0.333334 0.500000
O O6 0.656322 0.420720 0.755298
O O7 0.493547 0.882024 0.500000
O O8 0.814242 0.927454 0.740365
O O9 0.802479 0.826689 0.000000
#
# Coordination Sequence:
#
# PCOD8325197 Si02
#       4
#    12   4  12  12
#     4  10  20  34  54  82 111 138 175 220 266 316
#     4   9  21  36  55  80 106 141 187 224 256 315
#     4  10  20  37  56  76 106 144 183 219 259 313
#     4   9  18  32  52  77 107 140 174 213 261 317
#
# _framework density 21.146901
#
# number of rings (size 3 to 8) (size 9 to 14) (size 15 to 20)
#    0.000    2.400    0.000    3.900    4.200    1.200 
#    0.000    4.500    0.000    0.000    0.000    0.000 
#    0.000    9.600    0.000    0.000    0.000    0.000 
#
# Total GULP energy -495846.056644 kJ/mol
# GULP energy per Si atom -12396.151416 kJ/mol
# Density = 2.109877 g / cm^3
# Si number density = 21.146901 Si / 1000 Ang^3
#
#
#
# Elastic Constant Matrix: (Units=GPa)
#
#
# Indices 1 2 3 4 5 6 
#
# 1 63.0525 8.1889 -1.0476 0.0000 0.0000 -0.0011
# 2 8.1889 63.0535 -1.0476 0.0000 0.0000 -0.0020
# 3 -1.0476 -1.0476 28.5914 0.0000 0.0000 -0.0001
# 4 0.0000 0.0000 0.0000 19.9546 -0.0002 0.0000
# 5 0.0000 0.0000 0.0000 -0.0002 19.9547 0.0000
# 6 -0.0011 -0.0020 -0.0001 0.0000 0.0000 27.4328
#
#
#
# Elastic Compliance Matrix: (Units=1/GPa)
#
#
# Indices 1 2 3 4 5 6 
#
# 1 0.016139 -0.002088 0.000515 0.000000 0.000000 0.000000
# 2 -0.002088 0.016139 0.000515 0.000000 0.000000 0.000001
# 3 0.000515 0.000515 0.035013 0.000000 0.000000 0.000000
# 4 0.000000 0.000000 0.000000 0.050114 0.000001 0.000000
# 5 0.000000 0.000000 0.000000 0.000001 0.050113 0.000000
# 6 0.000000 0.000001 0.000000 0.000000 0.000000 0.036453
#
#
# Mechanical properties :
#
#
# Convention : Reuss Voigt Hill
#
# Bulk Modulus (GPa) = 15.34297 18.54275 16.94286
# Shear Modulus (GPa) = 21.94783 23.37534 22.66158
#
# Velocity S-wave (km/s) = 3.22510 3.32833 3.27712
# Velocity P-wave (km/s) = 4.59778 4.85365 4.72745
#
# Compressibility (1/GPa) = 0.06517643
#
# Stress axis : x y z
#
# Youngs Moduli (GPa) = 61.95991 61.96089 28.56058
#
# Poissons Ratio (x) = 0.12934 -0.01470
# Poissons Ratio (y) = 0.12934 -0.01471
# Poissons Ratio (z) = -0.03190 -0.03190
#
# Static dielectric constant tensor:
#      x y z
#    x 4.037120 0.000000 0.000000 
#    y 0.000000 4.037130 0.000000 
#    z 0.000000 0.000000 3.291250 
# 
# 
# High freq. dielectric constant tensor:
#      x y z
#    x 1.834230 0.000000 0.000000 
#    y 0.000000 1.834230 0.000000 
#    z 0.000000 0.000000 1.789260 
# 
# From -- ./inp_files/445.got.cif
#   From: 2010.03.12/outbox.cif.g09.slc.cpg/sg175_1_cif.got.tgz:445.got - 2010.04.02 06:55:29.
