data_PCOD8325033
_publ_section_title
;
Structure prediction by ZEFSAII (Michael W. Deem and Ramdas Pophale) SiO2 
 PCOD8325033
Probable space group: P 6/M
;
_chemical_formula_sum "Si O2"
_cell_formula_units_Z 84
_cell_length_a 19.681606
_cell_length_b 19.681606
_cell_length_c 14.070882
_cell_angle_alpha 90.000000
_cell_angle_beta 90.000000
_cell_angle_gamma 120.000000
_cell_volume 4720.337156
_symmetry_space_group_name_H-M "P 6/M"
_symmetry_group_IT_number 175
_symmetry_cell_setting 'hexagonal'
loop_
_space_group_symop_operation_xyz
x,y,z
x-y,x,z
-y,x-y,z
-x,-y,z
-x+y,-x,z
y,-x+y,z
-x,-y,-z
-x+y,-x,-z
y,-x+y,-z
x,y,-z
x-y,x,-z
-y,x-y,-z
loop_
_atom_site_type_symbol
_atom_site_label
_atom_site_fract_x
_atom_site_fract_y
_atom_site_fract_z
Si Si1 0.772296 0.111053 0.606121
Si Si2 0.447162 0.149548 0.107289
Si Si3 0.911665 0.472731 0.110042
Si Si4 0.183301 0.230136 0.606207
Si Si5 0.283156 0.285755 0.109139
Si Si6 0.163976 0.030467 0.201219
Si Si7 0.143526 0.419876 0.204024
O O1 0.748961 0.123462 0.500000
O O2 0.865634 0.168254 0.621508
O O3 0.726900 0.134783 0.682145
O O4 0.745008 0.019192 0.620780
O O5 0.526140 0.146218 0.124299
O O6 0.378242 0.059841 0.122955
O O7 0.443965 0.211889 0.176975
O O8 0.443680 0.176440 0.000000
O O9 0.874866 0.512521 0.175344
O O10 0.000000 0.500000 0.143170
O O11 0.912959 0.497673 0.000000
O O12 0.155898 0.194898 0.500000
O O13 0.132498 0.164085 0.683761
O O14 0.200358 0.247023 0.162743
O O15 0.338667 0.256101 0.153650
O O16 0.270357 0.260238 0.000000
O O17 0.148468 0.096900 0.160465
#
# Coordination Sequence:
#
# PCOD8325033 Si02
#       7
#    12  12  12  12  12  12  12
#     4  10  21  34  55  84 114 145 188 244 292 337
#     4  10  21  35  55  86 117 144 184 230 277 335
#     4  10  20  37  57  84 120 152 183 225 278 337
#     4  10  18  32  51  74 106 140 180 238 293 324
#     4  11  21  35  56  80 105 139 189 237 278 334
#     4  12  23  35  47  70 106 149 191 235 282 335
#     4  12  21  35  62  84 112 150 189 226 286 343
#
# _framework density 17.795338000000001
#
# number of rings (size 3 to 8) (size 9 to 14) (size 15 to 20)
#    0.000    1.286    4.286    3.143    0.000    1.714 
#    0.857    0.000    0.000    3.000    0.000    0.000 
#    0.000    0.000    0.000    0.000    0.000    0.000 
#
# Total GULP energy -1041603.680556 kJ/mol
# GULP energy per Si atom -12400.043816 kJ/mol
# Density = 1.775484 g / cm^3
# Si number density = 17.795338 Si / 1000 Ang^3
#
#
#
# Elastic Constant Matrix: (Units=GPa)
#
#
# Indices 1 2 3 4 5 6 
#
# 1 82.9326 27.9623 43.6744 0.0000 0.0000 0.0000
# 2 27.9623 82.9326 43.6744 0.0000 0.0000 0.0000
# 3 43.6744 43.6744 102.1948 0.0000 0.0000 0.0000
# 4 0.0000 0.0000 0.0000 24.2430 0.0000 0.0000
# 5 0.0000 0.0000 0.0000 0.0000 24.2430 0.0000
# 6 0.0000 0.0000 0.0000 0.0000 0.0000 27.4851
#
#
#
# Elastic Compliance Matrix: (Units=1/GPa)
#
#
# Indices 1 2 3 4 5 6 
#
# 1 0.015893 -0.002299 -0.005809 0.000000 0.000000 0.000000
# 2 -0.002299 0.015893 -0.005809 0.000000 0.000000 0.000000
# 3 -0.005809 -0.005809 0.014751 0.000000 0.000000 0.000000
# 4 0.000000 0.000000 0.000000 0.041249 0.000000 0.000000
# 5 0.000000 0.000000 0.000000 0.000000 0.041249 0.000000
# 6 0.000000 0.000000 0.000000 0.000000 0.000000 0.036383
#
#
# Mechanical properties :
#
#
# Convention : Reuss Voigt Hill
#
# Bulk Modulus (GPa) = 53.47565 55.40913 54.44239
# Shear Modulus (GPa) = 25.06441 25.37748 25.22095
#
# Velocity S-wave (km/s) = 3.75705 3.78044 3.76876
# Velocity P-wave (km/s) = 6.99544 7.08943 7.04259
#
# Compressibility (1/GPa) = 0.01870010
#
# Stress axis : x y z
#
# Youngs Moduli (GPa) = 62.92265 62.92265 67.79370
#
# Poissons Ratio (x) = 0.14467 0.39384
# Poissons Ratio (y) = 0.14467 0.39384
# Poissons Ratio (z) = 0.36554 0.36554
#
# Static dielectric constant tensor:
#      x y z
#    x 3.163770 0.000000 0.000000 
#    y 0.000000 3.163770 0.000000 
#    z 0.000000 0.000000 3.353770 
# 
# 
# High freq. dielectric constant tensor:
#      x y z
#    x 1.674070 0.000000 0.000000 
#    y 0.000000 1.674070 0.000000 
#    z 0.000000 0.000000 1.683570 
# 
# From -- ./inp_files/2598.got.cif
#   From: 2010.03.12/outbox.cif.g09.slc.cpg/sg175_2_cif.got.tgz:2598.got - 2010.04.02 06:55:29.
