data_PCOD8325402
_publ_section_title
;
Structure prediction by ZEFSAII (Michael W. Deem and Ramdas Pophale) SiO2 
 PCOD8325402
Probable space group: P 63/M
;
_chemical_formula_sum "Si O2"
_cell_formula_units_Z 84
_cell_length_a 24.942769
_cell_length_b 24.942769
_cell_length_c 9.572718
_cell_angle_alpha 90.000000
_cell_angle_beta 90.000000
_cell_angle_gamma 120.000000
_cell_volume 5157.689890
_symmetry_space_group_name_H-M "P 63/M"
_symmetry_group_IT_number 176
_symmetry_cell_setting 'hexagonal'
loop_
_space_group_symop_operation_xyz
x,y,z
x-y,x,1/2+z
-y,x-y,z
-x,-y,1/2+z
-x+y,-x,z
y,-x+y,1/2+z
-x,-y,-z
-x+y,-x,1/2-z
y,-x+y,-z
x,y,1/2-z
x-y,x,-z
-y,x-y,1/2-z
loop_
_atom_site_type_symbol
_atom_site_label
_atom_site_fract_x
_atom_site_fract_y
_atom_site_fract_z
Si Si1 0.399172 0.206029 0.087450
Si Si2 0.999030 0.787978 0.093262
Si Si3 0.063765 0.537411 0.915830
Si Si4 0.120316 0.861090 0.914875
Si Si5 0.891694 0.551601 0.085412
Si Si6 0.338783 0.010232 0.593923
Si Si7 0.434646 0.109863 0.089679
O O1 0.388762 0.212373 0.250000
O O2 0.329753 0.162145 0.025354
O O3 0.435674 0.274975 0.017906
O O4 0.445569 0.178687 0.064492
O O5 0.018779 0.815265 0.250000
O O6 0.983415 0.717373 0.090693
O O7 0.934079 0.782620 0.050165
O O8 0.053634 0.830019 0.988073
O O9 0.048963 0.528783 0.750000
O O10 0.110563 0.512191 0.958193
O O11 0.100850 0.609580 0.961181
O O12 0.000000 0.500000 0.000000
O O13 0.109652 0.848555 0.750000
O O14 0.885580 0.553821 0.250000
O O15 0.958358 0.605573 0.035406
O O16 0.365594 0.030628 0.750000
O O17 0.372080 0.068120 0.493318
O O18 0.420488 0.090491 0.250000
#
# Coordination Sequence:
#
# PCOD8325402 Si02
#       7
#    12  12  12  12  12  12  12
#     4   9  16  28  46  66  91 125 157 187 229 282
#     4  10  20  32  48  73  99 123 161 195 225 285
#     4  10  19  29  45  69  93 121 157 194 234 278
#     4  10  19  32  50  70  94 127 159 188 237 286
#     4   9  16  28  45  64  91 128 159 182 225 285
#     4  10  17  27  46  69  93 124 157 186 223 280
#     4  10  19  29  44  69  96 121 156 195 232 275
#
# _framework density 16.286360999999999
#
# number of rings (size 3 to 8) (size 9 to 14) (size 15 to 20)
#    0.000    2.286    4.286    0.000    0.000    0.571 
#    0.000    0.000    0.000    3.429    0.000    4.000 
#    0.000    0.000    0.000    0.000    0.000    0.000 
#
# Total GULP energy -1040837.910374 kJ/mol
# GULP energy per Si atom -12390.927504 kJ/mol
# Density = 1.624929 g / cm^3
# Si number density = 16.286361 Si / 1000 Ang^3
#
#
#
# Elastic Constant Matrix: (Units=GPa)
#
#
# Indices 1 2 3 4 5 6 
#
# 1 100.3277 54.1580 29.2775 0.0000 0.0000 0.0000
# 2 54.1580 100.3277 29.2775 0.0000 0.0000 0.0000
# 3 29.2775 29.2775 31.0445 0.0000 0.0000 0.0000
# 4 0.0000 0.0000 0.0000 18.5616 0.0000 0.0000
# 5 0.0000 0.0000 0.0000 0.0000 18.5616 0.0000
# 6 0.0000 0.0000 0.0000 0.0000 0.0000 23.0849
#
#
#
# Elastic Compliance Matrix: (Units=1/GPa)
#
#
# Indices 1 2 3 4 5 6 
#
# 1 0.015867 -0.005793 -0.009501 0.000000 0.000000 0.000000
# 2 -0.005793 0.015867 -0.009501 0.000000 0.000000 0.000000
# 3 -0.009501 -0.009501 0.050132 0.000000 0.000000 0.000000
# 4 0.000000 0.000000 0.000000 0.053875 0.000000 0.000000
# 5 0.000000 0.000000 0.000000 0.000000 0.053875 0.000000
# 6 0.000000 0.000000 0.000000 0.000000 0.000000 0.043318
#
#
# Mechanical properties :
#
#
# Convention : Reuss Voigt Hill
#
# Bulk Modulus (GPa) = 30.98172 50.79176 40.88674
# Shear Modulus (GPa) = 17.04855 19.97407 18.51131
#
# Velocity S-wave (km/s) = 3.23894 3.50584 3.37503
# Velocity P-wave (km/s) = 5.74909 6.90234 6.35194
#
# Compressibility (1/GPa) = 0.03227710
#
# Stress axis : x y z
#
# Youngs Moduli (GPa) = 63.02513 63.02513 19.94744
#
# Poissons Ratio (x) = 0.36507 0.18952
# Poissons Ratio (y) = 0.36507 0.18952
# Poissons Ratio (z) = 0.59879 0.59879
#
# Static dielectric constant tensor:
#      x y z
#    x 3.176140 0.000000 0.000000 
#    y 0.000000 3.176140 0.000000 
#    z 0.000000 0.000000 2.829910 
# 
# 
# High freq. dielectric constant tensor:
#      x y z
#    x 1.619880 0.000000 0.000000 
#    y 0.000000 1.619880 0.000000 
#    z 0.000000 0.000000 1.596380 
# 
# From -- ./inp_files/2149.got.cif
#   From: 2010.06.25/outbox.cif.g09.slc.cpg/sg176_2_cif.got.tgz:2149.got - 2010.06.28 12:15:01.
