data_PCOD8325868
_publ_section_title
;
Structure prediction by ZEFSAII (Michael W. Deem and Ramdas Pophale) SiO2 
 PCOD8325868
Probable space group: P 61 2 2
;
_chemical_formula_sum "Si O2"
_cell_formula_units_Z 54
_cell_length_a 14.069811
_cell_length_b 14.069811
_cell_length_c 14.380553
_cell_angle_alpha 90.000000
_cell_angle_beta 90.000000
_cell_angle_gamma 120.000000
_cell_volume 2465.373627
_symmetry_space_group_name_H-M "P 61 2 2"
_symmetry_group_IT_number 178
_symmetry_cell_setting 'hexagonal'
loop_
_space_group_symop_operation_xyz
x,y,z
x-y,x,1/6+z
-y,x-y,1/3+z
-x,-y,1/2+z
-x+y,-x,2/3+z
y,-x+y,5/6+z
x-y,-y,-z
-x,-x+y,2/3-z
y,x,1/3-z
-y,-x,5/6-z
-x+y,y,1/2-z
x,x-y,1/6-z
loop_
_atom_site_type_symbol
_atom_site_label
_atom_site_fract_x
_atom_site_fract_y
_atom_site_fract_z
Si Si1 0.639221 0.000000 0.500000
Si Si2 0.850106 0.939041 0.318457
Si Si3 0.655059 0.914374 0.927523
Si Si4 0.720365 0.860183 0.583334
Si Si5 0.759626 0.519252 0.250000
Si Si6 0.507094 0.455262 0.525079
O O1 0.757193 0.109740 0.483816
O O2 0.583769 0.014499 0.591764
O O3 0.925690 0.911873 0.386289
O O4 0.729207 0.831920 0.313678
O O5 0.827740 0.031827 0.358054
O O6 0.584776 0.964703 0.881832
O O7 0.584676 0.803425 0.986126
O O8 0.741224 0.000000 0.000000
O O9 0.825260 0.454307 0.231450
O O10 0.527110 0.472891 0.416667
#
# Coordination Sequence:
#
# PCOD8325868 Si02
#       6
#     6  12  12   6   6  12
#     4  12  26  54  70 110 160 198 268 310 396 468
#     4  12  25  43  67 110 158 197 251 297 380 467
#     4  10  22  42  72 108 144 197 246 309 384 449
#     4  12  28  42  75 104 158 213 234 320 380 476
#     4  10  20  46  69 114 144 185 258 324 374 452
#     4  11  25  47  79 105 152 204 254 325 385 457
#
# _framework density 21.903375
#
# number of rings (size 3 to 8) (size 9 to 14) (size 15 to 20)
#    0.000    0.889    5.556    2.667    6.222    3.556 
#    2.000    0.000    0.000    0.000    0.000    0.000 
#    0.000    0.000    0.000    0.000    0.000    0.000 
#
# Total GULP energy -669209.123674 kJ/mol
# GULP energy per Si atom -12392.761550 kJ/mol
# Density = 2.185352 g / cm^3
# Si number density = 21.903375 Si / 1000 Ang^3
#
#
#
# Elastic Constant Matrix: (Units=GPa)
#
#
# Indices 1 2 3 4 5 6 
#
# 1 119.7306 60.4864 50.4913 0.0000 0.0000 0.0000
# 2 60.4864 119.7306 50.4913 0.0000 0.0000 0.0000
# 3 50.4913 50.4913 141.3904 0.0000 0.0000 0.0000
# 4 0.0000 0.0000 0.0000 37.5955 0.0000 0.0000
# 5 0.0000 0.0000 0.0000 0.0000 37.5955 0.0000
# 6 0.0000 0.0000 0.0000 0.0000 0.0000 29.6221
#
#
#
# Elastic Compliance Matrix: (Units=1/GPa)
#
#
# Indices 1 2 3 4 5 6 
#
# 1 0.011908 -0.004971 -0.002477 0.000000 0.000000 0.000000
# 2 -0.004971 0.011908 -0.002477 0.000000 0.000000 0.000000
# 3 -0.002477 -0.002477 0.008842 0.000000 0.000000 0.000000
# 4 0.000000 0.000000 0.000000 0.026599 0.000000 0.000000
# 5 0.000000 0.000000 0.000000 0.000000 0.026599 0.000000
# 6 0.000000 0.000000 0.000000 0.000000 0.000000 0.033759
#
#
# Mechanical properties :
#
#
# Convention : Reuss Voigt Hill
#
# Bulk Modulus (GPa) = 78.08302 78.19886 78.14094
# Shear Modulus (GPa) = 34.78628 35.58811 35.18719
#
# Velocity S-wave (km/s) = 3.98951 4.03523 4.01243
# Velocity P-wave (km/s) = 7.54638 7.58221 7.56432
#
# Compressibility (1/GPa) = 0.01280688
#
# Stress axis : x y z
#
# Youngs Moduli (GPa) = 83.97623 83.97623 113.09807
#
# Poissons Ratio (x) = 0.41746 0.28017
# Poissons Ratio (y) = 0.41746 0.28017
# Poissons Ratio (z) = 0.20803 0.20803
#
# Static dielectric constant tensor:
#      x y z
#    x 3.982700 0.000000 0.000000 
#    y 0.000000 3.982700 0.000000 
#    z 0.000000 0.000000 4.235160 
# 
# 
# High freq. dielectric constant tensor:
#      x y z
#    x 1.853740 0.000000 0.000000 
#    y 0.000000 1.853740 0.000000 
#    z 0.000000 0.000000 1.878190 
# 
# From -- ./inp_files/5633.got.cif
#   From: 2010.03.12/outbox.cif.g09.slc.cpg/sg178_3_cif.got.tgz:5633.got - 2010.04.02 07:02:38.
