data_PCOD8325517
_publ_section_title
;
Structure prediction by ZEFSAII (Michael W. Deem and Ramdas Pophale) SiO2 
 PCOD8325517
Probable space group: P 63/M
;
_chemical_formula_sum "Si O2"
_cell_formula_units_Z 84
_cell_length_a 15.833925
_cell_length_b 15.833925
_cell_length_c 22.816778
_cell_angle_alpha 90.000000
_cell_angle_beta 90.000000
_cell_angle_gamma 120.000000
_cell_volume 4954.069735
_symmetry_space_group_name_H-M "P 63/M"
_symmetry_group_IT_number 176
_symmetry_cell_setting 'hexagonal'
loop_
_space_group_symop_operation_xyz
x,y,z
x-y,x,1/2+z
-y,x-y,z
-x,-y,1/2+z
-x+y,-x,z
y,-x+y,1/2+z
-x,-y,-z
-x+y,-x,1/2-z
y,-x+y,-z
x,y,1/2-z
x-y,x,-z
-y,x-y,1/2-z
loop_
_atom_site_type_symbol
_atom_site_label
_atom_site_fract_x
_atom_site_fract_y
_atom_site_fract_z
Si Si1 0.188305 0.987423 0.497228
Si Si2 0.859100 0.334376 0.183138
Si Si3 0.675201 0.842527 0.318547
Si Si4 0.858283 0.525440 0.183358
Si Si5 0.962712 0.237647 0.372731
Si Si6 0.722236 0.768531 0.621127
Si Si7 0.544449 0.270850 0.681081
O O1 0.180156 0.080461 0.515768
O O2 0.253899 0.004625 0.440170
O O3 0.236830 0.960983 0.550786
O O4 0.894181 0.336373 0.250000
O O5 0.874440 0.437872 0.163909
O O6 0.745389 0.255447 0.177249
O O7 0.922017 0.310636 0.138460
O O8 0.671751 0.860993 0.250000
O O9 0.730822 0.782930 0.328892
O O10 0.564491 0.785076 0.346510
O O11 0.740962 0.944339 0.350258
O O12 0.893566 0.558230 0.250000
O O13 0.923798 0.614123 0.140739
O O14 0.878248 0.126606 0.358539
O O15 0.612521 0.222721 0.663876
O O16 0.528276 0.264344 0.750000
#
# Coordination Sequence:
#
# PCOD8325517 Si02
#       7
#    12  12  12  12  12  12  12
#     4  10  19  36  57  72  94 134 190 230 257 305
#     4   9  17  31  52  78 107 137 172 213 262 320
#     4  11  20  32  52  77 109 141 167 212 279 329
#     4   9  17  31  52  78 107 137 172 213 262 320
#     4  10  21  35  51  76 104 137 177 225 266 314
#     4  10  21  35  51  76 104 137 177 225 266 314
#     4   7  14  30  50  76 105 134 172 213 249 310
#
# _framework density 16.955756999999998
#
# number of rings (size 3 to 8) (size 9 to 14) (size 15 to 20)
#    0.286    2.286    1.429    1.286    0.000    4.000 
#    0.857    3.571    0.000    0.000    0.000    0.000 
#    0.000    0.000    0.000    0.000    0.000    0.000 
#
# Total GULP energy -1041091.282872 kJ/mol
# GULP energy per Si atom -12393.943844 kJ/mol
# Density = 1.691717 g / cm^3
# Si number density = 16.955757 Si / 1000 Ang^3
#
#
#
# Elastic Constant Matrix: (Units=GPa)
#
#
# Indices 1 2 3 4 5 6 
#
# 1 96.0608 47.8105 31.6123 0.0000 0.0000 0.0000
# 2 47.8105 96.0608 31.6123 0.0000 0.0000 0.0000
# 3 31.6123 31.6123 56.8069 0.0000 0.0000 0.0000
# 4 0.0000 0.0000 0.0000 19.7924 0.0000 0.0000
# 5 0.0000 0.0000 0.0000 0.0000 19.7924 0.0000
# 6 0.0000 0.0000 0.0000 0.0000 0.0000 24.1251
#
#
#
# Elastic Compliance Matrix: (Units=1/GPa)
#
#
# Indices 1 2 3 4 5 6 
#
# 1 0.014963 -0.005762 -0.005120 0.000000 0.000000 0.000000
# 2 -0.005762 0.014963 -0.005120 0.000000 0.000000 0.000000
# 3 -0.005120 -0.005120 0.023302 0.000000 0.000000 0.000000
# 4 0.000000 0.000000 0.000000 0.050524 0.000000 0.000000
# 5 0.000000 0.000000 0.000000 0.000000 0.050524 0.000000
# 6 0.000000 0.000000 0.000000 0.000000 0.000000 0.041451
#
#
# Mechanical properties :
#
#
# Convention : Reuss Voigt Hill
#
# Bulk Modulus (GPa) = 47.11846 52.33320 49.72583
# Shear Modulus (GPa) = 21.29413 21.93489 21.61451
#
# Velocity S-wave (km/s) = 3.54766 3.60064 3.57425
# Velocity P-wave (km/s) = 6.68061 6.94390 6.81353
#
# Compressibility (1/GPa) = 0.02122310
#
# Stress axis : x y z
#
# Youngs Moduli (GPa) = 66.83161 66.83161 42.91477
#
# Poissons Ratio (x) = 0.38510 0.21973
# Poissons Ratio (y) = 0.38510 0.21973
# Poissons Ratio (z) = 0.34218 0.34218
#
# Static dielectric constant tensor:
#      x y z
#    x 3.277110 0.000000 0.000000 
#    y 0.000000 3.277110 0.000000 
#    z 0.000000 0.000000 2.985590 
# 
# 
# High freq. dielectric constant tensor:
#      x y z
#    x 1.656110 0.000000 0.000000 
#    y 0.000000 1.656110 0.000000 
#    z 0.000000 0.000000 1.627690 
# 
# From -- ./inp_files/4084.got.cif
#   From: 2010.06.25/outbox.cif.g09.slc.cpg/sg176_3_cif.got.tgz:4084.got - 2010.06.28 12:15:01.
