data_PCOD8325179
_publ_section_title
;
Structure prediction by ZEFSAII (Michael W. Deem and Ramdas Pophale) SiO2 
 PCOD8325179
Probable space group: P 6/M
;
_chemical_formula_sum "Si O2"
_cell_formula_units_Z 48
_cell_length_a 18.532758
_cell_length_b 18.532758
_cell_length_c 8.674584
_cell_angle_alpha 90.000000
_cell_angle_beta 90.000000
_cell_angle_gamma 120.000000
_cell_volume 2580.235809
_symmetry_space_group_name_H-M "P 6/M"
_symmetry_group_IT_number 175
_symmetry_cell_setting 'hexagonal'
loop_
_space_group_symop_operation_xyz
x,y,z
x-y,x,z
-y,x-y,z
-x,-y,z
-x+y,-x,z
y,-x+y,z
-x,-y,-z
-x+y,-x,-z
y,-x+y,-z
x,y,-z
x-y,x,-z
-y,x-y,-z
loop_
_atom_site_type_symbol
_atom_site_label
_atom_site_fract_x
_atom_site_fract_y
_atom_site_fract_z
Si Si1 0.092705 0.763766 0.820411
Si Si2 0.483495 0.669735 0.679010
Si Si3 0.180007 0.661508 0.820720
Si Si4 0.757674 0.083646 0.321173
O O1 0.117013 0.694132 0.775084
O O2 0.148902 0.847266 0.723820
O O3 0.997393 0.730192 0.779625
O O4 0.108861 0.785756 0.000000
O O5 0.474123 0.683970 0.500000
O O6 0.423359 0.574072 0.726354
O O7 0.456577 0.726246 0.775827
O O8 0.577625 0.693954 0.718741
O O9 0.176377 0.641348 0.000000
O O10 0.754416 0.061265 0.500000
#
# Coordination Sequence:
#
# PCOD8325179 Si02
#       4
#    12  12  12  12
#     4  10  21  37  57  80 106 137 173 214 261 313
#     4  10  20  33  50  73 104 142 182 222 262 305
#     4  10  20  33  50  73 104 142 182 222 262 305
#     4  10  21  37  57  80 106 137 173 214 261 313
#
# _framework density 18.602951000000001
#
# number of rings (size 3 to 8) (size 9 to 14) (size 15 to 20)
#    0.000    2.000    0.000    3.500    0.000    7.000 
#    0.000    5.000    0.000    0.500    0.000    3.500 
#    0.000    0.000    0.000    0.000    0.000    0.000 
#
# Total GULP energy -595482.793576 kJ/mol
# GULP energy per Si atom -12405.891533 kJ/mol
# Density = 1.856061 g / cm^3
# Si number density = 18.602951 Si / 1000 Ang^3
#
#
#
# Elastic Constant Matrix: (Units=GPa)
#
#
# Indices 1 2 3 4 5 6 
#
# 1 82.3052 47.5309 19.4825 0.0000 0.0000 0.0000
# 2 47.5309 82.3052 19.4825 0.0000 0.0000 0.0000
# 3 19.4825 19.4825 46.3883 0.0000 0.0000 0.0000
# 4 0.0000 0.0000 0.0000 30.2091 0.0000 0.0000
# 5 0.0000 0.0000 0.0000 0.0000 30.2091 0.0000
# 6 0.0000 0.0000 0.0000 0.0000 0.0000 17.3872
#
#
#
# Elastic Compliance Matrix: (Units=1/GPa)
#
#
# Indices 1 2 3 4 5 6 
#
# 1 0.018785 -0.009972 -0.003701 0.000000 0.000000 0.000000
# 2 -0.009972 0.018785 -0.003701 0.000000 0.000000 0.000000
# 3 -0.003701 -0.003701 0.024666 0.000000 0.000000 0.000000
# 4 0.000000 0.000000 0.000000 0.033103 0.000000 0.000000
# 5 0.000000 0.000000 0.000000 0.000000 0.033103 0.000000
# 6 0.000000 0.000000 0.000000 0.000000 0.000000 0.057514
#
#
# Mechanical properties :
#
#
# Convention : Reuss Voigt Hill
#
# Bulk Modulus (GPa) = 36.38126 42.66558 39.52342
# Shear Modulus (GPa) = 21.75181 23.86126 22.80653
#
# Velocity S-wave (km/s) = 3.42316 3.58531 3.50517
# Velocity P-wave (km/s) = 5.93492 6.33434 6.13788
#
# Compressibility (1/GPa) = 0.02748668
#
# Stress axis : x y z
#
# Youngs Moduli (GPa) = 53.23446 53.23446 40.54148
#
# Poissons Ratio (x) = 0.53086 0.15005
# Poissons Ratio (y) = 0.53086 0.15005
# Poissons Ratio (z) = 0.19703 0.19703
#
# Static dielectric constant tensor:
#      x y z
#    x 3.258380 0.000000 0.000000 
#    y 0.000000 3.258380 0.000000 
#    z 0.000000 0.000000 3.448050 
# 
# 
# High freq. dielectric constant tensor:
#      x y z
#    x 1.708540 0.000000 0.000000 
#    y 0.000000 1.708540 0.000000 
#    z 0.000000 0.000000 1.736570 
# 
# From -- ./inp_files/504.got.cif
#   From: 2010.03.12/outbox.cif.g09.slc.cpg/sg175_1_cif.got.tgz:504.got - 2010.04.02 06:55:29.
