data_PCOD8325920
_publ_section_title
;
Structure prediction by ZEFSAII (Michael W. Deem and Ramdas Pophale) SiO2 
 PCOD8325920
Probable space group: P 61 2 2
;
_chemical_formula_sum "Si O2"
_cell_formula_units_Z 78
_cell_length_a 22.591059
_cell_length_b 22.591059
_cell_length_c 8.758509
_cell_angle_alpha 90.000000
_cell_angle_beta 90.000000
_cell_angle_gamma 120.000000
_cell_volume 3871.096448
_symmetry_space_group_name_H-M "P 61 2 2"
_symmetry_group_IT_number 178
_symmetry_cell_setting 'hexagonal'
loop_
_space_group_symop_operation_xyz
x,y,z
x-y,x,1/6+z
-y,x-y,1/3+z
-x,-y,1/2+z
-x+y,-x,2/3+z
y,-x+y,5/6+z
x-y,-y,-z
-x,-x+y,2/3-z
y,x,1/3-z
-y,-x,5/6-z
-x+y,y,1/2-z
x,x-y,1/6-z
loop_
_atom_site_type_symbol
_atom_site_label
_atom_site_fract_x
_atom_site_fract_y
_atom_site_fract_z
Si Si1 0.849277 0.150723 0.916667
Si Si2 0.873313 0.619120 0.717727
Si Si3 0.913032 0.513980 0.671061
Si Si4 0.274458 0.919879 0.224158
Si Si5 0.783683 0.046233 0.178060
Si Si6 0.122789 0.101908 0.937054
Si Si7 0.075029 0.595474 0.657322
O O1 0.795005 0.143031 0.789254
O O2 0.923611 0.183817 0.826005
O O3 0.792210 0.584419 0.750000
O O4 0.886608 0.565770 0.617478
O O5 0.890804 0.685117 0.614849
O O6 0.920209 0.645966 0.871896
O O7 0.881405 0.440703 0.583334
O O8 0.993851 0.550596 0.663318
O O9 0.889046 0.501722 0.845608
O O10 0.336574 0.907435 0.272086
O O11 0.287029 0.990236 0.303458
O O12 0.823363 0.010012 0.246294
O O13 0.110180 0.053557 0.791494
O O14 0.136932 0.068466 0.083334
O O15 0.107289 0.553645 0.583334
#
# Coordination Sequence:
#
# PCOD8325920 Si02
#       7
#     6  12  12  12  12  12  12
#     4  12  26  38  52  88 130 168 204 254 328 384
#     4  11  21  37  63  91 123 162 208 256 300 373
#     4   9  18  34  56  90 119 155 200 234 291 355
#     4  11  23  39  59  87 127 160 207 253 310 380
#     4  12  23  40  62  87 117 161 202 259 330 391
#     4  10  23  40  66  83 103 140 207 266 324 391
#     4   9  18  35  56  85 122 160 192 234 294 363
#
# _framework density 20.149329999999999
#
# number of rings (size 3 to 8) (size 9 to 14) (size 15 to 20)
#    0.000    1.538    3.077    2.308    4.308    1.231 
#    5.538    0.000   40.615    0.000    0.000    4.308 
#    0.000    0.000    0.000    0.000    0.000    0.000 
#
# Total GULP energy -966308.915274 kJ/mol
# GULP energy per Si atom -12388.575837 kJ/mol
# Density = 2.010347 g / cm^3
# Si number density = 20.149330 Si / 1000 Ang^3
#
#
#
# Elastic Constant Matrix: (Units=GPa)
#
#
# Indices 1 2 3 4 5 6 
#
# 1 91.4104 46.7140 31.4691 0.0000 0.0000 0.0000
# 2 46.7140 91.4104 31.4691 0.0000 0.0000 0.0000
# 3 31.4691 31.4691 60.4734 0.0000 0.0000 0.0000
# 4 0.0000 0.0000 0.0000 29.9096 0.0000 0.0000
# 5 0.0000 0.0000 0.0000 0.0000 29.9096 0.0000
# 6 0.0000 0.0000 0.0000 0.0000 0.0000 22.3482
#
#
#
# Elastic Compliance Matrix: (Units=1/GPa)
#
#
# Indices 1 2 3 4 5 6 
#
# 1 0.015932 -0.006442 -0.004938 0.000000 0.000000 0.000000
# 2 -0.006442 0.015932 -0.004938 0.000000 0.000000 0.000000
# 3 -0.004938 -0.004938 0.021676 0.000000 0.000000 0.000000
# 4 0.000000 0.000000 0.000000 0.033434 0.000000 0.000000
# 5 0.000000 0.000000 0.000000 0.000000 0.033434 0.000000
# 6 0.000000 0.000000 0.000000 0.000000 0.000000 0.044746
#
#
# Mechanical properties :
#
#
# Convention : Reuss Voigt Hill
#
# Bulk Modulus (GPa) = 47.84154 51.39983 49.62069
# Shear Modulus (GPa) = 24.41905 25.34293 24.88099
#
# Velocity S-wave (km/s) = 3.48502 3.55033 3.51783
# Velocity P-wave (km/s) = 6.32367 6.50932 6.41717
#
# Compressibility (1/GPa) = 0.02090234
#
# Stress axis : x y z
#
# Youngs Moduli (GPa) = 62.76812 62.76812 46.13411
#
# Poissons Ratio (x) = 0.40432 0.22783
# Poissons Ratio (y) = 0.40432 0.22783
# Poissons Ratio (z) = 0.30998 0.30998
#
# Static dielectric constant tensor:
#      x y z
#    x 3.684160 0.000000 0.000000 
#    y 0.000000 3.684160 0.000000 
#    z 0.000000 0.000000 3.863080 
# 
# 
# High freq. dielectric constant tensor:
#      x y z
#    x 1.768070 0.000000 0.000000 
#    y 0.000000 1.768070 0.000000 
#    z 0.000000 0.000000 1.784990 
# 
# From -- ./inp_files/3532.got.cif
#   From: 2010.03.12/outbox.cif.g09.slc.cpg/sg178_2_cif.got.tgz:3532.got - 2010.04.02 07:02:38.
