data_PCOD8325263
_publ_section_title
;
Structure prediction by ZEFSAII (Michael W. Deem and Ramdas Pophale) SiO2 
 PCOD8325263
Probable space group: P 6/M
;
_chemical_formula_sum "Si O2"
_cell_formula_units_Z 78
_cell_length_a 21.844721
_cell_length_b 21.844721
_cell_length_c 12.503160
_cell_angle_alpha 90.000000
_cell_angle_beta 90.000000
_cell_angle_gamma 120.000000
_cell_volume 5167.059053
_symmetry_space_group_name_H-M "P 6/M"
_symmetry_group_IT_number 175
_symmetry_cell_setting 'hexagonal'
loop_
_space_group_symop_operation_xyz
x,y,z
x-y,x,z
-y,x-y,z
-x,-y,z
-x+y,-x,z
y,-x+y,z
-x,-y,-z
-x+y,-x,-z
y,-x+y,-z
x,y,-z
x-y,x,-z
-y,x-y,-z
loop_
_atom_site_type_symbol
_atom_site_label
_atom_site_fract_x
_atom_site_fract_y
_atom_site_fract_z
Si Si1 0.675746 0.201435 0.127559
Si Si2 0.849945 0.992446 0.000000
Si Si3 0.995062 0.138981 0.375758
Si Si4 0.371712 0.242669 0.118470
Si Si5 0.618276 0.896385 0.118512
Si Si6 0.656849 0.464996 0.872323
Si Si7 0.238721 0.235873 0.198223
O O1 0.693824 0.140515 0.163317
O O2 0.734498 0.278330 0.171740
O O3 0.599058 0.182488 0.173147
O O4 0.676365 0.204132 0.000000
O O5 0.861652 0.925420 0.000000
O O6 0.805024 0.988039 0.103956
O O7 0.994282 0.155858 0.500000
O O8 0.064189 0.135443 0.343823
O O9 0.992675 0.200888 0.311267
O O10 0.379892 0.175005 0.109730
O O11 0.306104 0.224815 0.194846
O O12 0.355437 0.261544 0.000000
O O13 0.540401 0.875168 0.164303
O O14 0.679953 0.950569 0.195485
O O15 0.629757 0.930474 0.000000
O O16 0.657939 0.463794 0.000000
#
# Coordination Sequence:
#
# PCOD8325263 Si02
#       7
#    12   6  12  12  12  12  12
#     4   8  13  21  35  54  79 111 147 181 209 239
#     4  12  23  32  44  62  83 106 136 170 200 230
#     4  10  21  36  52  67  82 102 131 172 219 258
#     4   9  16  26  38  56  82 112 144 174 205 245
#     4   9  16  26  38  56  82 112 144 174 205 245
#     4   8  13  21  35  54  79 111 147 181 209 239
#     4  12  20  30  46  61  84 114 141 164 200 250
#
# _framework density 15.095627
#
# number of rings (size 3 to 8) (size 9 to 14) (size 15 to 20)
#    0.000    2.462    1.538    5.154    0.000    1.846 
#    0.000    2.308    0.000    3.692    0.000    0.000 
#    0.000    2.462    0.000    0.923    0.000    9.846 
#
# Total GULP energy -966698.908954 kJ/mol
# GULP energy per Si atom -12393.575756 kJ/mol
# Density = 1.506127 g / cm^3
# Si number density = 15.095627 Si / 1000 Ang^3
#
#
#
# Elastic Constant Matrix: (Units=GPa)
#
#
# Indices 1 2 3 4 5 6 
#
# 1 53.1439 5.3062 15.6225 0.0000 0.0000 0.0000
# 2 5.3062 53.1439 15.6225 0.0000 0.0000 0.0000
# 3 15.6225 15.6225 30.8894 0.0000 0.0000 0.0000
# 4 0.0000 0.0000 0.0000 10.5317 0.0000 0.0000
# 5 0.0000 0.0000 0.0000 0.0000 10.5317 0.0000
# 6 0.0000 0.0000 0.0000 0.0000 0.0000 23.9188
#
#
#
# Elastic Compliance Matrix: (Units=1/GPa)
#
#
# Indices 1 2 3 4 5 6 
#
# 1 0.022176 0.001272 -0.011859 0.000000 0.000000 0.000000
# 2 0.001272 0.022176 -0.011859 0.000000 0.000000 0.000000
# 3 -0.011859 -0.011859 0.044369 0.000000 0.000000 0.000000
# 4 0.000000 0.000000 0.000000 0.094952 0.000000 0.000000
# 5 0.000000 0.000000 0.000000 0.000000 0.094952 0.000000
# 6 0.000000 0.000000 0.000000 0.000000 0.000000 0.041808
#
#
# Mechanical properties :
#
#
# Convention : Reuss Voigt Hill
#
# Bulk Modulus (GPa) = 22.81588 23.36440 23.09014
# Shear Modulus (GPa) = 13.16020 15.70484 14.43252
#
# Velocity S-wave (km/s) = 2.95581 3.22896 3.09540
# Velocity P-wave (km/s) = 5.17650 5.42335 5.30136
#
# Compressibility (1/GPa) = 0.04382912
#
# Stress axis : x y z
#
# Youngs Moduli (GPa) = 45.09386 45.09386 22.53829
#
# Poissons Ratio (x) = -0.05736 0.26728
# Poissons Ratio (y) = -0.05736 0.26728
# Poissons Ratio (z) = 0.53476 0.53476
#
# Static dielectric constant tensor:
#      x y z
#    x 3.173690 0.000000 0.000000 
#    y 0.000000 3.173690 0.000000 
#    z 0.000000 0.000000 2.388560 
# 
# 
# High freq. dielectric constant tensor:
#      x y z
#    x 1.585380 0.000000 0.000000 
#    y 0.000000 1.585380 0.000000 
#    z 0.000000 0.000000 1.502040 
# 
# From -- ./inp_files/2667.got.cif
#   From: 2010.03.12/outbox.cif.g09.slc.cpg/sg175_2_cif.got.tgz:2667.got - 2010.04.02 06:55:29.
