data_PCOD8325648
_publ_section_title
;
Structure prediction by ZEFSAII (Michael W. Deem and Ramdas Pophale) SiO2 
 PCOD8325648
Probable space group: P 63/M
;
_chemical_formula_sum "Si O2"
_cell_formula_units_Z 66
_cell_length_a 20.664593
_cell_length_b 20.664593
_cell_length_c 8.035674
_cell_angle_alpha 90.000000
_cell_angle_beta 90.000000
_cell_angle_gamma 120.000000
_cell_volume 2971.711557
_symmetry_space_group_name_H-M "P 63/M"
_symmetry_group_IT_number 176
_symmetry_cell_setting 'hexagonal'
loop_
_space_group_symop_operation_xyz
x,y,z
x-y,x,1/2+z
-y,x-y,z
-x,-y,1/2+z
-x+y,-x,z
y,-x+y,1/2+z
-x,-y,-z
-x+y,-x,1/2-z
y,-x+y,-z
x,y,1/2-z
x-y,x,-z
-y,x-y,1/2-z
loop_
_atom_site_type_symbol
_atom_site_label
_atom_site_fract_x
_atom_site_fract_y
_atom_site_fract_z
Si Si1 0.247562 0.589822 0.250000
Si Si2 0.180627 0.847154 0.947348
Si Si3 0.956172 0.607572 0.438131
Si Si4 0.593547 0.153243 0.058243
Si Si5 0.084581 0.164492 0.438180
Si Si6 0.432758 0.115838 0.061661
O O1 0.324620 0.588498 0.250000
O O2 0.206936 0.551901 0.423922
O O3 0.171399 0.841952 0.750000
O O4 0.266039 0.897891 0.002922
O O5 0.154149 0.764731 0.024647
O O6 0.131356 0.880512 0.017382
O O7 0.981007 0.636182 0.250000
O O8 0.923064 0.518880 0.446577
O O9 0.027099 0.646960 0.556038
O O10 0.611337 0.185133 0.250000
O O11 0.514013 0.138822 0.987492
O O12 0.121190 0.126185 0.547065
O O13 0.105672 0.158492 0.250000
O O14 0.447864 0.142907 0.250000
#
# Coordination Sequence:
#
# PCOD8325648 Si02
#       6
#     6  12  12  12  12  12
#     4  10  26  42  62 102 128 160 218 264 314 388
#     4  10  22  40  62  93 129 163 213 260 315 381
#     4  10  22  39  63  92 125 169 212 262 320 375
#     4  10  23  43  66  93 131 172 211 267 326 379
#     4  12  25  43  65  93 125 166 206 257 313 376
#     4  10  22  39  63  92 125 169 212 262 320 375
#
# _framework density 22.209423999999999
#
# number of rings (size 3 to 8) (size 9 to 14) (size 15 to 20)
#    0.182    1.455    0.000    3.455    5.091    5.091 
#    0.000    0.000    0.000    0.000    0.000    0.000 
#    0.000    0.000    0.000    0.000    0.000    0.000 
#
# Total GULP energy -818162.424308 kJ/mol
# GULP energy per Si atom -12396.400368 kJ/mol
# Density = 2.215887 g / cm^3
# Si number density = 22.209424 Si / 1000 Ang^3
#
#
#
# Elastic Constant Matrix: (Units=GPa)
#
#
# Indices 1 2 3 4 5 6 
#
# 1 81.2191 -2.0615 4.9258 0.0000 0.0000 0.0000
# 2 -2.0615 81.2191 4.9258 0.0000 0.0000 0.0000
# 3 4.9258 4.9258 67.3623 0.0000 0.0000 0.0000
# 4 0.0000 0.0000 0.0000 16.1069 0.0000 0.0000
# 5 0.0000 0.0000 0.0000 0.0000 16.1069 0.0000
# 6 0.0000 0.0000 0.0000 0.0000 0.0000 41.6403
#
#
#
# Elastic Compliance Matrix: (Units=1/GPa)
#
#
# Indices 1 2 3 4 5 6 
#
# 1 0.012378 0.000371 -0.000932 0.000000 0.000000 0.000000
# 2 0.000371 0.012378 -0.000932 0.000000 0.000000 0.000000
# 3 -0.000932 -0.000932 0.014981 0.000000 0.000000 0.000000
# 4 0.000000 0.000000 0.000000 0.062085 0.000000 0.000000
# 5 0.000000 0.000000 0.000000 0.000000 0.062085 0.000000
# 6 0.000000 0.000000 0.000000 0.000000 0.000000 0.024015
#
#
# Mechanical properties :
#
#
# Convention : Reuss Voigt Hill
#
# Bulk Modulus (GPa) = 27.21053 27.26454 27.23753
# Shear Modulus (GPa) = 24.61101 29.57154 27.09128
#
# Velocity S-wave (km/s) = 3.33248 3.65291 3.49637
# Velocity P-wave (km/s) = 5.20438 5.48584 5.34696
#
# Compressibility (1/GPa) = 0.03675048
#
# Stress axis : x y z
#
# Youngs Moduli (GPa) = 80.78641 80.78641 66.74926
#
# Poissons Ratio (x) = -0.02995 0.06223
# Poissons Ratio (y) = -0.02995 0.06223
# Poissons Ratio (z) = 0.07531 0.07531
#
# Static dielectric constant tensor:
#      x y z
#    x 4.013930 0.000000 0.000000 
#    y 0.000000 4.013930 0.000000 
#    z 0.000000 0.000000 3.810180 
# 
# 
# High freq. dielectric constant tensor:
#      x y z
#    x 1.879260 0.000000 0.000000 
#    y 0.000000 1.879260 0.000000 
#    z 0.000000 0.000000 1.863550 
# 
# From -- ./inp_files/1028.got.cif
#   From: 2010.06.25/outbox.cif.g09.slc.cpg/sg176_1_cif.got.tgz:1028.got - 2010.06.28 12:15:01.
