data_PCOD8325684
_publ_section_title
;
Structure prediction by ZEFSAII (Michael W. Deem and Ramdas Pophale) SiO2 
 PCOD8325684
Probable space group: P 63/M
;
_chemical_formula_sum "Si O2"
_cell_formula_units_Z 60
_cell_length_a 11.275957
_cell_length_b 11.275957
_cell_length_c 24.982567
_cell_angle_alpha 90.000000
_cell_angle_beta 90.000000
_cell_angle_gamma 120.000000
_cell_volume 2750.898171
_symmetry_space_group_name_H-M "P 63/M"
_symmetry_group_IT_number 176
_symmetry_cell_setting 'hexagonal'
loop_
_space_group_symop_operation_xyz
x,y,z
x-y,x,1/2+z
-y,x-y,z
-x,-y,1/2+z
-x+y,-x,z
y,-x+y,1/2+z
-x,-y,-z
-x+y,-x,1/2-z
y,-x+y,-z
x,y,1/2-z
x-y,x,-z
-y,x-y,1/2-z
loop_
_atom_site_type_symbol
_atom_site_label
_atom_site_fract_x
_atom_site_fract_y
_atom_site_fract_z
Si Si1 0.693097 0.083157 0.308764
Si Si2 0.046006 0.283332 0.581529
Si Si3 0.356898 0.400996 0.690356
Si Si4 0.052066 0.301309 0.417194
Si Si5 0.821495 0.484442 0.496303
O O1 0.708817 0.031646 0.250000
O O2 0.739648 0.017369 0.354873
O O3 0.536916 0.037665 0.319537
O O4 0.794731 0.246256 0.313590
O O5 0.168878 0.257353 0.565995
O O6 0.090515 0.431375 0.555536
O O7 0.901297 0.163168 0.562087
O O8 0.352490 0.340148 0.750000
O O9 0.334594 0.287302 0.645818
O O10 0.090351 0.437697 0.451081
O O11 0.669033 0.469353 0.495629
#
# Coordination Sequence:
#
# PCOD8325684 Si02
#       5
#    12  12  12  12  12
#     4   9  19  34  59  92 124 162 203 256 312 365
#     4  11  24  40  66  91 131 171 212 257 313 391
#     4   9  19  36  61  94 130 165 209 260 315 373
#     4  11  24  41  64  92 132 170 212 258 314 389
#     4  10  26  43  64  93 123 160 213 274 332 375
#
# _framework density 21.811059
#
# number of rings (size 3 to 8) (size 9 to 14) (size 15 to 20)
#    0.400    1.600    0.000    2.000    8.400    4.000 
#    0.000    2.000    0.000    2.400    0.000    0.000 
#    0.000    0.000    0.000    0.000    0.000    0.000 
#
# Total GULP energy -743297.987827 kJ/mol
# GULP energy per Si atom -12388.299797 kJ/mol
# Density = 2.176142 g / cm^3
# Si number density = 21.811059 Si / 1000 Ang^3
#
#
#
# Elastic Constant Matrix: (Units=GPa)
#
#
# Indices 1 2 3 4 5 6 
#
# 1 83.3490 16.9670 33.3403 0.0000 0.0000 0.0000
# 2 16.9670 83.3490 33.3403 0.0000 0.0000 0.0000
# 3 33.3403 33.3403 139.4527 0.0000 0.0000 0.0000
# 4 0.0000 0.0000 0.0000 28.7321 0.0000 0.0000
# 5 0.0000 0.0000 0.0000 0.0000 28.7321 0.0000
# 6 0.0000 0.0000 0.0000 0.0000 0.0000 33.1910
#
#
#
# Elastic Compliance Matrix: (Units=1/GPa)
#
#
# Indices 1 2 3 4 5 6 
#
# 1 0.013458 -0.001606 -0.002834 0.000000 0.000000 0.000000
# 2 -0.001606 0.013458 -0.002834 0.000000 0.000000 0.000000
# 3 -0.002834 -0.002834 0.008526 0.000000 0.000000 0.000000
# 4 0.000000 0.000000 0.000000 0.034804 0.000000 0.000000
# 5 0.000000 0.000000 0.000000 0.000000 0.034804 0.000000
# 6 0.000000 0.000000 0.000000 0.000000 0.000000 0.030129
#
#
# Mechanical properties :
#
#
# Convention : Reuss Voigt Hill
#
# Bulk Modulus (GPa) = 47.85722 52.60512 50.23117
# Shear Modulus (GPa) = 31.90991 32.96457 32.43724
#
# Velocity S-wave (km/s) = 3.82909 3.89185 3.86060
# Velocity P-wave (km/s) = 6.44504 6.66080 6.55381
#
# Compressibility (1/GPa) = 0.02089549
#
# Stress axis : x y z
#
# Youngs Moduli (GPa) = 74.30436 74.30436 117.29119
#
# Poissons Ratio (x) = 0.11934 0.33235
# Poissons Ratio (y) = 0.11934 0.33235
# Poissons Ratio (z) = 0.21055 0.21055
#
# Static dielectric constant tensor:
#      x y z
#    x 3.686740 0.000000 0.000000 
#    y 0.000000 3.686740 0.000000 
#    z 0.000000 0.000000 4.137250 
# 
# 
# High freq. dielectric constant tensor:
#      x y z
#    x 1.842700 0.000000 0.000000 
#    y 0.000000 1.842700 0.000000 
#    z 0.000000 0.000000 1.872560 
# 
# From -- ./inp_files/4241.got.cif
#   From: 2010.06.25/outbox.cif.g09.slc.cpg/sg176_3_cif.got.tgz:4241.got - 2010.06.28 12:15:01.
