data_PCOD8325271
_publ_section_title
;
Structure prediction by ZEFSAII (Michael W. Deem and Ramdas Pophale) SiO2 
 PCOD8325271
Probable space group: P 6/M
;
_chemical_formula_sum "Si O2"
_cell_formula_units_Z 48
_cell_length_a 15.041665
_cell_length_b 15.041665
_cell_length_c 13.985178
_cell_angle_alpha 90.000000
_cell_angle_beta 90.000000
_cell_angle_gamma 120.000000
_cell_volume 2740.251689
_symmetry_space_group_name_H-M "P 6/M"
_symmetry_group_IT_number 175
_symmetry_cell_setting 'hexagonal'
loop_
_space_group_symop_operation_xyz
x,y,z
x-y,x,z
-y,x-y,z
-x,-y,z
-x+y,-x,z
y,-x+y,z
-x,-y,-z
-x+y,-x,-z
y,-x+y,-z
x,y,-z
x-y,x,-z
-y,x-y,-z
loop_
_atom_site_type_symbol
_atom_site_label
_atom_site_fract_x
_atom_site_fract_y
_atom_site_fract_z
Si Si1 0.233369 0.083188 0.388237
Si Si2 0.447460 0.210382 0.302819
Si Si3 0.270067 0.535023 0.895098
Si Si4 0.544497 0.427053 0.387467
O O1 0.185021 0.152801 0.358780
O O2 0.259325 0.092284 0.500000
O O3 0.337299 0.116399 0.330784
O O4 0.450150 0.221826 0.187869
O O5 0.462883 0.312693 0.354107
O O6 0.537361 0.189467 0.335896
O O7 0.393733 0.610857 0.885940
O O8 0.244206 0.481016 0.000000
O O9 0.500000 0.500000 0.357632
O O10 0.562091 0.429184 0.500000
#
# Coordination Sequence:
#
# PCOD8325271 Si02
#       4
#    12  12  12  12
#     4  10  21  37  56  76 100 135 181 228 266 302
#     4  12  19  33  52  76 105 142 172 205 259 308
#     4   8  15  31  52  74 102 139 179 211 243 292
#     4  11  22  32  46  74 109 140 170 202 245 310
#
# _framework density 17.516638
#
# number of rings (size 3 to 8) (size 9 to 14) (size 15 to 20)
#    0.500    1.250    2.500    4.500    0.000    5.000 
#    0.000    0.000    0.000    7.500    0.000    0.000 
#    0.000    2.000    0.000    0.000    0.000    0.000 
#
# Total GULP energy -595194.323690 kJ/mol
# GULP energy per Si atom -12399.881744 kJ/mol
# Density = 1.747677 g / cm^3
# Si number density = 17.516638 Si / 1000 Ang^3
#
#
#
# Elastic Constant Matrix: (Units=GPa)
#
#
# Indices 1 2 3 4 5 6 
#
# 1 56.2790 -0.2793 23.4427 0.0000 0.0000 0.0000
# 2 -0.2793 56.2790 23.4427 0.0000 0.0000 0.0000
# 3 23.4427 23.4427 88.4796 0.0000 0.0000 0.0000
# 4 0.0000 0.0000 0.0000 10.0128 0.0000 0.0000
# 5 0.0000 0.0000 0.0000 0.0000 10.0128 0.0000
# 6 0.0000 0.0000 0.0000 0.0000 0.0000 28.2791
#
#
#
# Elastic Compliance Matrix: (Units=1/GPa)
#
#
# Indices 1 2 3 4 5 6 
#
# 1 0.020314 0.002633 -0.006080 0.000000 0.000000 0.000000
# 2 0.002633 0.020314 -0.006080 0.000000 0.000000 0.000000
# 3 -0.006080 -0.006080 0.014524 0.000000 0.000000 0.000000
# 4 0.000000 0.000000 0.000000 0.099872 0.000000 0.000000
# 5 0.000000 0.000000 0.000000 0.000000 0.099872 0.000000
# 6 0.000000 0.000000 0.000000 0.000000 0.000000 0.035362
#
#
# Mechanical properties :
#
#
# Convention : Reuss Voigt Hill
#
# Bulk Modulus (GPa) = 27.70144 32.69444 30.19794
# Shear Modulus (GPa) = 15.55966 19.95639 17.75803
#
# Velocity S-wave (km/s) = 2.98363 3.37899 3.18745
# Velocity P-wave (km/s) = 5.26480 5.82484 5.55188
#
# Compressibility (1/GPa) = 0.03609920
#
# Stress axis : x y z
#
# Youngs Moduli (GPa) = 49.22644 49.22644 68.85231
#
# Poissons Ratio (x) = -0.12963 0.41862
# Poissons Ratio (y) = -0.12963 0.41862
# Poissons Ratio (z) = 0.29930 0.29930
#
# Static dielectric constant tensor:
#      x y z
#    x 3.119750 0.000000 0.000000 
#    y 0.000000 3.119750 0.000000 
#    z 0.000000 0.000000 3.151230 
# 
# 
# High freq. dielectric constant tensor:
#      x y z
#    x 1.663540 0.000000 0.000000 
#    y 0.000000 1.663540 0.000000 
#    z 0.000000 0.000000 1.666470 
# 
# From -- ./inp_files/2266.got.cif
#   From: 2010.03.12/outbox.cif.g09.slc.cpg/sg175_2_cif.got.tgz:2266.got - 2010.04.02 06:55:29.
