data_PCOD8325441
_publ_section_title
;
Structure prediction by ZEFSAII (Michael W. Deem and Ramdas Pophale) SiO2 
 PCOD8325441
Probable space group: P 63/M
;
_chemical_formula_sum "Si O2"
_cell_formula_units_Z 46
_cell_length_a 13.889053
_cell_length_b 13.889053
_cell_length_c 12.283084
_cell_angle_alpha 90.000000
_cell_angle_beta 90.000000
_cell_angle_gamma 120.000000
_cell_volume 2052.028196
_symmetry_space_group_name_H-M "P 63/M"
_symmetry_group_IT_number 176
_symmetry_cell_setting 'hexagonal'
loop_
_space_group_symop_operation_xyz
x,y,z
x-y,x,1/2+z
-y,x-y,z
-x,-y,1/2+z
-x+y,-x,z
y,-x+y,1/2+z
-x,-y,-z
-x+y,-x,1/2-z
y,-x+y,-z
x,y,1/2-z
x-y,x,-z
-y,x-y,1/2-z
loop_
_atom_site_type_symbol
_atom_site_label
_atom_site_fract_x
_atom_site_fract_y
_atom_site_fract_z
Si Si1 0.333334 0.666667 0.619270
Si Si2 0.477240 0.910263 0.874476
Si Si3 0.670139 0.684167 0.874264
Si Si4 0.778365 0.691239 0.418559
Si Si5 0.121416 0.125329 0.750000
O O1 0.333334 0.666668 0.750000
O O2 0.375988 0.586934 0.569844
O O3 0.437719 0.895273 0.750000
O O4 0.429738 0.989777 0.918878
O O5 0.608755 0.957323 0.880982
O O6 0.701063 0.673353 0.750000
O O7 0.643241 0.784729 0.886118
O O8 0.774377 0.707800 0.951105
O O9 0.817943 0.808093 0.358760
O O10 0.112668 0.004792 0.750000
#
# Coordination Sequence:
#
# PCOD8325441 Si02
#       5
#     4  12  12  12   6
#     4   9  15  27  60  96 130 161 199 267 324 391
#     4  10  18  37  65 101 131 164 216 276 338 406
#     4  11  25  40  64  98 134 169 227 286 339 408
#     4  12  23  42  69  93 131 178 223 279 341 397
#     4  10  26  46  68  92 132 176 238 280 326 394
#
# _framework density 22.416844999999999
#
# number of rings (size 3 to 8) (size 9 to 14) (size 15 to 20)
#    0.261    1.043    5.217    0.783    3.652    0.000 
#    0.000    1.304    0.000    0.000    0.000    0.000 
#    0.000    0.000    0.000    0.000    0.000    0.000 
#
# Total GULP energy -570139.637749 kJ/mol
# GULP energy per Si atom -12394.339951 kJ/mol
# Density = 2.236582 g / cm^3
# Si number density = 22.416845 Si / 1000 Ang^3
#
#
#
# Elastic Constant Matrix: (Units=GPa)
#
#
# Indices 1 2 3 4 5 6 
#
# 1 87.9479 21.4446 35.9774 0.0000 0.0000 -0.0002
# 2 21.4446 87.9486 35.9775 0.0000 0.0000 -0.0001
# 3 35.9774 35.9775 104.1043 0.0000 0.0000 0.0000
# 4 0.0000 0.0000 0.0000 28.6005 0.0001 0.0000
# 5 0.0000 0.0000 0.0000 0.0001 28.6003 0.0000
# 6 -0.0002 -0.0001 0.0000 0.0000 0.0000 33.2518
#
#
#
# Elastic Compliance Matrix: (Units=1/GPa)
#
#
# Indices 1 2 3 4 5 6 
#
# 1 0.013434 -0.001603 -0.004089 0.000000 0.000000 0.000000
# 2 -0.001603 0.013434 -0.004089 0.000000 0.000000 0.000000
# 3 -0.004089 -0.004089 0.012432 0.000000 0.000000 0.000000
# 4 0.000000 0.000000 0.000000 0.034964 0.000000 0.000000
# 5 0.000000 0.000000 0.000000 0.000000 0.034965 0.000000
# 6 0.000000 0.000000 0.000000 0.000000 0.000000 0.030074
#
#
# Mechanical properties :
#
#
# Convention : Reuss Voigt Hill
#
# Bulk Modulus (GPa) = 50.66168 51.86664 51.26416
# Shear Modulus (GPa) = 30.22213 30.53063 30.37638
#
# Velocity S-wave (km/s) = 3.67575 3.69446 3.68512
# Velocity P-wave (km/s) = 6.37681 6.43322 6.40508
#
# Compressibility (1/GPa) = 0.01973879
#
# Stress axis : x y z
#
# Youngs Moduli (GPa) = 74.43919 74.43987 80.43958
#
# Poissons Ratio (x) = 0.11933 0.32888
# Poissons Ratio (y) = 0.11933 0.32888
# Poissons Ratio (z) = 0.30435 0.30435
#
# Static dielectric constant tensor:
#      x y z
#    x 3.892390 0.000000 0.000000 
#    y 0.000000 3.892380 0.000000 
#    z 0.000000 0.000000 3.904030 
# 
# 
# High freq. dielectric constant tensor:
#      x y z
#    x 1.877400 0.000000 0.000000 
#    y 0.000000 1.877400 0.000000 
#    z 0.000000 0.000000 1.871420 
# 
# From -- ./inp_files/1686.got.cif
#   From: 2010.06.25/outbox.cif.g09.slc.cpg/sg176_1_cif.got.tgz:1686.got - 2010.06.28 12:15:01.
