data_PCOD8325746
_publ_section_title
;
Structure prediction by ZEFSAII (Michael W. Deem and Ramdas Pophale) SiO2 
 PCOD8325746
Probable space group: P 6 2 2
;
_chemical_formula_sum "Si O2"
_cell_formula_units_Z 31
_cell_length_a 14.485294
_cell_length_b 14.485294
_cell_length_c 9.125665
_cell_angle_alpha 90.000000
_cell_angle_beta 90.000000
_cell_angle_gamma 120.000000
_cell_volume 1658.249145
_symmetry_space_group_name_H-M "P 6 2 2"
_symmetry_group_IT_number 177
_symmetry_cell_setting 'hexagonal'
loop_
_space_group_symop_operation_xyz
x,y,z
x-y,x,z
-y,x-y,z
-x,-y,z
-x+y,-x,z
y,-x+y,z
x-y,-y,-z
-x,-x+y,-z
y,x,-z
-y,-x,-z
-x+y,y,-z
x,x-y,-z
loop_
_atom_site_type_symbol
_atom_site_label
_atom_site_fract_x
_atom_site_fract_y
_atom_site_fract_z
Si Si1 0.000000 0.500000 0.000000
Si Si2 0.820692 0.526422 0.856814
Si Si3 0.892454 0.762933 0.827539
Si Si4 0.333334 0.666668 0.327262
O O1 0.068756 0.467409 0.897214
O O2 0.840043 0.638138 0.792869
O O3 0.766329 0.442330 0.728144
O O4 0.745151 0.490301 0.000000
O O5 0.823907 0.812516 0.758762
O O6 0.889411 0.778822 0.000000
O O7 0.333334 0.666667 0.500000
#
# Coordination Sequence:
#
# PCOD8325746 Si02
#       4
#     3  12  12   4
#     4  12  20  32  66  88 114 148 210 252 306 340
#     4  11  20  37  60  89 115 154 198 247 294 357
#     4   9  17  29  51  83 117 146 181 231 293 351
#     4  12  25  41  58  84 124 161 193 240 304 368
#
# _framework density 18.694414999999999
#
# number of rings (size 3 to 8) (size 9 to 14) (size 15 to 20)
#    0.000    1.548    3.871    5.032    0.000    1.548 
#    0.000    0.968    0.000    0.000    0.000    0.000 
#    0.000    3.097    0.000    0.000    0.000    0.000 
#
# Total GULP energy -384425.508868 kJ/mol
# GULP energy per Si atom -12400.822867 kJ/mol
# Density = 1.865187 g / cm^3
# Si number density = 18.694415 Si / 1000 Ang^3
#
#
#
# Elastic Constant Matrix: (Units=GPa)
#
#
# Indices 1 2 3 4 5 6 
#
# 1 143.0744 60.2553 44.7570 -0.0001 -0.0001 0.0000
# 2 60.2553 143.0757 44.7573 -0.0001 -0.0001 0.0002
# 3 44.7570 44.7573 75.6409 -0.0003 0.0001 0.0001
# 4 -0.0001 -0.0001 -0.0003 7.2716 0.0001 0.0000
# 5 -0.0001 -0.0001 0.0001 0.0001 7.2712 0.0000
# 6 0.0000 0.0002 0.0001 0.0000 0.0000 41.4101
#
#
#
# Elastic Compliance Matrix: (Units=1/GPa)
#
#
# Indices 1 2 3 4 5 6 
#
# 1 0.009363 -0.002712 -0.003935 0.000000 0.000000 0.000000
# 2 -0.002712 0.009362 -0.003935 0.000000 0.000000 0.000000
# 3 -0.003935 -0.003935 0.017877 0.000001 0.000000 0.000000
# 4 0.000000 0.000000 0.000001 0.137522 -0.000003 0.000000
# 5 0.000000 0.000000 0.000000 -0.000003 0.137529 0.000000
# 6 0.000000 0.000000 0.000000 0.000000 0.000000 0.024149
#
#
# Mechanical properties :
#
#
# Convention : Reuss Voigt Hill
#
# Bulk Modulus (GPa) = 64.77650 73.48114 69.12882
# Shear Modulus (GPa) = 13.80786 25.32533 19.56659
#
# Velocity S-wave (km/s) = 2.72068 3.68462 3.23871
# Velocity P-wave (km/s) = 6.67794 7.58246 7.14453
#
# Compressibility (1/GPa) = 0.01543770
#
# Stress axis : x y z
#
# Youngs Moduli (GPa) = 106.80902 106.80994 55.93697
#
# Poissons Ratio (x) = 0.28966 0.22012
# Poissons Ratio (y) = 0.28966 0.22012
# Poissons Ratio (z) = 0.42031 0.42031
#
# Static dielectric constant tensor:
#      x y z
#    x 3.735190 0.000000 -0.000010 
#    y 0.000000 3.735180 0.000010 
#    z -0.000010 0.000010 2.767630 
# 
# 
# High freq. dielectric constant tensor:
#      x y z
#    x 1.749840 0.000000 0.000000 
#    y 0.000000 1.749840 0.000000 
#    z 0.000000 0.000000 1.640160 
# 
# From -- ./inp_files/936.got.cif
#   From: 2010.03.12/outbox.cif.g09.slc.cpg/sg177_1_cif.got.tgz:936.got - 2010.04.02 07:00:27.
