data_PCOD8325194
_publ_section_title
;
Structure prediction by ZEFSAII (Michael W. Deem and Ramdas Pophale) SiO2 
 PCOD8325194
Probable space group: P 6/M
;
_chemical_formula_sum "Si O2"
_cell_formula_units_Z 60
_cell_length_a 22.373083
_cell_length_b 22.373083
_cell_length_c 7.460395
_cell_angle_alpha 90.000000
_cell_angle_beta 90.000000
_cell_angle_gamma 120.000000
_cell_volume 3234.030576
_symmetry_space_group_name_H-M "P 6/M"
_symmetry_group_IT_number 175
_symmetry_cell_setting 'hexagonal'
loop_
_space_group_symop_operation_xyz
x,y,z
x-y,x,z
-y,x-y,z
-x,-y,z
-x+y,-x,z
y,-x+y,z
-x,-y,-z
-x+y,-x,-z
y,-x+y,-z
x,y,-z
x-y,x,-z
-y,x-y,-z
loop_
_atom_site_type_symbol
_atom_site_label
_atom_site_fract_x
_atom_site_fract_y
_atom_site_fract_z
Si Si1 0.666297 0.199019 0.287486
Si Si2 0.386691 0.308474 0.293739
Si Si3 0.199019 0.666297 0.712514
Si Si4 0.788719 0.077634 0.000000
Si Si5 0.211281 0.288916 0.000000
Si Si6 0.386691 0.078217 0.293739
O O1 0.665361 0.203389 0.500000
O O2 0.664991 0.129320 0.227242
O O3 0.734744 0.265256 0.210382
O O4 0.598986 0.197972 0.206333
O O5 0.376780 0.283873 0.500000
O O6 0.371064 0.371064 0.267153
O O7 0.334673 0.243229 0.177093
O O8 0.203389 0.665361 0.500000
O O9 0.129320 0.664991 0.772758
O O10 0.870584 0.129416 0.000000
O O11 0.775533 1.000000 0.000000
O O12 0.243229 0.334673 0.177093
O O13 0.376780 0.092908 0.500000
#
# Coordination Sequence:
#
# PCOD8325194 Si02
#       6
#    12  12  12   6   6  12
#     4   9  16  26  42  64  91 124 161 200 241 286
#     4   9  18  32  50  72  96 123 157 198 242 283
#     4   9  16  26  42  64  91 124 161 200 241 286
#     4  10  20  34  53  76 101 127 155 189 230 276
#     4  10  20  34  53  76 101 127 155 189 230 276
#     4   9  18  32  50  72  96 123 157 198 242 283
#
# _framework density 18.552700000000002
#
# number of rings (size 3 to 8) (size 9 to 14) (size 15 to 20)
#    0.000    2.800    0.000    1.600    0.000    4.800 
#    0.000    5.000    0.000    3.800    0.000    2.800 
#    0.000    0.000    0.000   10.000    0.000    0.000 
#
# Total GULP energy -743907.157064 kJ/mol
# GULP energy per Si atom -12398.452618 kJ/mol
# Density = 1.851047 g / cm^3
# Si number density = 18.552700 Si / 1000 Ang^3
#
#
#
# Elastic Constant Matrix: (Units=GPa)
#
#
# Indices 1 2 3 4 5 6 
#
# 1 151.8259 96.5760 28.3727 0.0000 0.0000 0.0000
# 2 96.5760 151.8259 28.3727 0.0000 0.0000 0.0000
# 3 28.3727 28.3727 59.0338 0.0000 0.0000 0.0000
# 4 0.0000 0.0000 0.0000 7.7816 0.0000 0.0000
# 5 0.0000 0.0000 0.0000 0.0000 7.7816 0.0000
# 6 0.0000 0.0000 0.0000 0.0000 0.0000 27.6250
#
#
#
# Elastic Compliance Matrix: (Units=1/GPa)
#
#
# Indices 1 2 3 4 5 6 
#
# 1 0.011311 -0.006789 -0.002173 0.000000 0.000000 0.000000
# 2 -0.006789 0.011311 -0.002173 0.000000 0.000000 0.000000
# 3 -0.002173 -0.002173 0.019029 0.000000 0.000000 0.000000
# 4 0.000000 0.000000 0.000000 0.128508 0.000000 0.000000
# 5 0.000000 0.000000 0.000000 0.000000 0.128508 0.000000
# 6 0.000000 0.000000 0.000000 0.000000 0.000000 0.036199
#
#
# Mechanical properties :
#
#
# Convention : Reuss Voigt Hill
#
# Bulk Modulus (GPa) = 51.60151 74.36983 62.98567
# Shear Modulus (GPa) = 13.75151 22.59526 18.17339
#
# Velocity S-wave (km/s) = 2.72548 3.49362 3.13318
# Velocity P-wave (km/s) = 6.14639 7.51310 6.86385
#
# Compressibility (1/GPa) = 0.01937928
#
# Stress axis : x y z
#
# Youngs Moduli (GPa) = 88.41022 88.41022 52.55226
#
# Poissons Ratio (x) = 0.60019 0.11422
# Poissons Ratio (y) = 0.60019 0.11422
# Poissons Ratio (z) = 0.19216 0.19216
#
# Static dielectric constant tensor:
#      x y z
#    x 3.429130 0.000000 0.000000 
#    y 0.000000 3.429130 0.000000 
#    z 0.000000 0.000000 3.283250 
# 
# 
# High freq. dielectric constant tensor:
#      x y z
#    x 1.708270 0.000000 0.000000 
#    y 0.000000 1.708270 0.000000 
#    z 0.000000 0.000000 1.716140 
# 
# From -- ./inp_files/919.got.cif
#   From: 2010.03.12/outbox.cif.g09.slc.cpg/sg175_1_cif.got.tgz:919.got - 2010.04.02 06:55:29.
