data_PCOD8325038
_publ_section_title
;
Structure prediction by ZEFSAII (Michael W. Deem and Ramdas Pophale) SiO2 
 PCOD8325038
Probable space group: P 6/M
;
_chemical_formula_sum "Si O2"
_cell_formula_units_Z 72
_cell_length_a 22.631047
_cell_length_b 22.631047
_cell_length_c 9.118226
_cell_angle_alpha 90.000000
_cell_angle_beta 90.000000
_cell_angle_gamma 120.000000
_cell_volume 4044.364383
_symmetry_space_group_name_H-M "P 6/M"
_symmetry_group_IT_number 175
_symmetry_cell_setting 'hexagonal'
loop_
_space_group_symop_operation_xyz
x,y,z
x-y,x,z
-y,x-y,z
-x,-y,z
-x+y,-x,z
y,-x+y,z
-x,-y,-z
-x+y,-x,-z
y,-x+y,-z
x,y,-z
x-y,x,-z
-y,x-y,-z
loop_
_atom_site_type_symbol
_atom_site_label
_atom_site_fract_x
_atom_site_fract_y
_atom_site_fract_z
Si Si1 0.743031 0.749653 0.174145
Si Si2 0.144904 0.640743 0.327732
Si Si3 0.634552 0.135930 0.333261
Si Si4 0.778245 0.551460 0.173546
Si Si5 0.293479 0.141212 0.173970
Si Si6 0.377173 0.004261 0.666545
O O1 0.746160 0.819549 0.228673
O O2 0.809115 0.746169 0.232189
O O3 0.673856 0.686679 0.232135
O O4 0.739389 0.745079 0.000000
O O5 0.155115 0.654655 0.500000
O O6 0.151477 0.575739 0.283979
O O7 0.203156 0.704850 0.242187
O O8 0.072040 0.629123 0.276037
O O9 0.658682 0.161102 0.500000
O O10 0.696235 0.172795 0.221533
O O11 0.604222 0.055128 0.322210
O O12 0.808346 0.628825 0.233380
O O13 0.772237 0.549101 0.000000
O O14 0.295544 0.141898 0.000000
O O15 0.358816 0.012886 0.500000
#
# Coordination Sequence:
#
# PCOD8325038 Si02
#       6
#    12  12  12  12  12  12
#     4  10  18  33  53  78 108 142 175 212 266 321
#     4  10  21  37  55  76 105 140 175 215 266 321
#     4  10  21  37  55  76 105 140 175 215 266 321
#     4  11  21  35  55  79 104 137 179 225 269 314
#     4   9  18  31  53  78 107 140 173 213 262 318
#     4  10  19  32  54  82 105 133 170 216 264 314
#
# _framework density 17.802551000000001
#
# number of rings (size 3 to 8) (size 9 to 14) (size 15 to 20)
#    0.000    2.000    3.333    1.000    0.000    2.667 
#    1.000    0.833    0.000    3.333    0.000    2.333 
#    0.000    0.000    0.000    1.500    0.000    1.667 
#
# Total GULP energy -892804.287545 kJ/mol
# GULP energy per Si atom -12400.059549 kJ/mol
# Density = 1.776203 g / cm^3
# Si number density = 17.802551 Si / 1000 Ang^3
#
#
#
# Elastic Constant Matrix: (Units=GPa)
#
#
# Indices 1 2 3 4 5 6 
#
# 1 107.1007 42.7650 19.3139 0.0000 0.0000 0.0000
# 2 42.7650 107.1007 19.3139 0.0000 0.0000 0.0000
# 3 19.3139 19.3139 26.5706 0.0000 0.0000 0.0000
# 4 0.0000 0.0000 0.0000 22.1150 0.0000 0.0000
# 5 0.0000 0.0000 0.0000 0.0000 22.1150 0.0000
# 6 0.0000 0.0000 0.0000 0.0000 0.0000 32.1679
#
#
#
# Elastic Compliance Matrix: (Units=1/GPa)
#
#
# Indices 1 2 3 4 5 6 
#
# 1 0.011877 -0.003666 -0.005969 0.000000 0.000000 0.000000
# 2 -0.003666 0.011877 -0.005969 0.000000 0.000000 0.000000
# 3 -0.005969 -0.005969 0.046312 0.000000 0.000000 0.000000
# 4 0.000000 0.000000 0.000000 0.045218 0.000000 0.000000
# 5 0.000000 0.000000 0.000000 0.000000 0.045218 0.000000
# 6 0.000000 0.000000 0.000000 0.000000 0.000000 0.031087
#
#
# Mechanical properties :
#
#
# Convention : Reuss Voigt Hill
#
# Bulk Modulus (GPa) = 25.73309 44.83974 35.28642
# Shear Modulus (GPa) = 21.20889 25.90486 23.55688
#
# Velocity S-wave (km/s) = 3.45532 3.81874 3.64157
# Velocity P-wave (km/s) = 5.51408 6.68473 6.12743
#
# Compressibility (1/GPa) = 0.03886047
#
# Stress axis : x y z
#
# Youngs Moduli (GPa) = 84.19462 84.19462 21.59246
#
# Poissons Ratio (x) = 0.30868 0.12887
# Poissons Ratio (y) = 0.30868 0.12887
# Poissons Ratio (z) = 0.50252 0.50252
#
# Static dielectric constant tensor:
#      x y z
#    x 3.441210 0.000000 0.000000 
#    y 0.000000 3.441210 0.000000 
#    z 0.000000 0.000000 3.089870 
# 
# 
# High freq. dielectric constant tensor:
#      x y z
#    x 1.688270 0.000000 0.000000 
#    y 0.000000 1.688270 0.000000 
#    z 0.000000 0.000000 1.668570 
# 
# From -- ./inp_files/1144.got.cif
#   From: 2010.03.12/outbox.cif.g09.slc.cpg/sg175_1_cif.got.tgz:1144.got - 2010.04.02 06:55:29.
