data_PCOD8325714
_publ_section_title
;
Structure prediction by ZEFSAII (Michael W. Deem and Ramdas Pophale) SiO2 
 PCOD8325714
Probable space group: P 63/M
;
_chemical_formula_sum "Si O2"
_cell_formula_units_Z 44
_cell_length_a 12.781193
_cell_length_b 12.781193
_cell_length_c 15.009845
_cell_angle_alpha 90.000000
_cell_angle_beta 90.000000
_cell_angle_gamma 120.000000
_cell_volume 2123.487090
_symmetry_space_group_name_H-M "P 63/M"
_symmetry_group_IT_number 176
_symmetry_cell_setting 'hexagonal'
loop_
_space_group_symop_operation_xyz
x,y,z
x-y,x,1/2+z
-y,x-y,z
-x,-y,1/2+z
-x+y,-x,z
y,-x+y,1/2+z
-x,-y,-z
-x+y,-x,1/2-z
y,-x+y,-z
x,y,1/2-z
x-y,x,-z
-y,x-y,1/2-z
loop_
_atom_site_type_symbol
_atom_site_label
_atom_site_fract_x
_atom_site_fract_y
_atom_site_fract_z
Si Si1 0.333335 0.666668 0.400252
Si Si2 0.548944 0.910906 0.148053
Si Si3 0.333335 0.666668 0.888850
Si Si4 0.952574 0.217270 0.500852
Si Si5 0.446190 0.079345 0.350214
O O1 0.304116 0.536563 0.364208
O O2 0.333334 0.666667 0.505512
O O3 0.592225 0.942253 0.250000
O O4 0.473439 0.974900 0.117935
O O5 0.667668 0.960083 0.088445
O O6 0.366545 0.570634 0.851674
O O7 0.916788 0.266340 0.414771
O O8 0.079413 0.226009 0.483557
O O9 0.393393 0.053523 0.250000
#
# Coordination Sequence:
#
# PCOD8325714 Si02
#       5
#     4  12   4  12  12
#     4  12  22  38  67  97 131 163 208 263 325 385
#     4  11  24  42  66  97 132 169 209 259 319 384
#     4  12  22  38  67  97 131 163 208 263 325 385
#     4  12  26  44  66  92 127 170 220 268 316 372
#     4  11  24  42  66  97 132 169 209 259 319 384
#
# _framework density 20.720635999999999
#
# number of rings (size 3 to 8) (size 9 to 14) (size 15 to 20)
#    0.000    0.545    2.727    6.000    0.000    6.545 
#    0.000    0.000    0.000    3.273    0.000    0.000 
#    0.000    0.000    0.000    0.000    0.000    0.000 
#
# Total GULP energy -545981.372968 kJ/mol
# GULP energy per Si atom -12408.667567 kJ/mol
# Density = 2.067347 g / cm^3
# Si number density = 20.720636 Si / 1000 Ang^3
#
#
#
# Elastic Constant Matrix: (Units=GPa)
#
#
# Indices 1 2 3 4 5 6 
#
# 1 67.9105 25.4728 26.6449 0.0000 0.0000 -0.0002
# 2 25.4728 67.9075 26.6454 0.0000 0.0000 0.0033
# 3 26.6449 26.6454 107.0666 0.0000 0.0000 0.0008
# 4 0.0000 0.0000 0.0000 -9.8891 -0.0110 0.0000
# 5 0.0000 0.0000 0.0000 -0.0110 -9.8930 0.0000
# 6 -0.0002 0.0033 0.0008 0.0000 0.0000 21.2028
#
#
#
# Elastic Compliance Matrix: (Units=1/GPa)
#
#
# Indices 1 2 3 4 5 6 
#
# 1 0.018023 -0.005542 -0.003106 0.000000 0.000000 0.000001
# 2 -0.005542 0.018024 -0.003106 0.000000 0.000000 -0.000003
# 3 -0.003106 -0.003106 0.010886 0.000000 0.000000 0.000000
# 4 0.000000 0.000000 0.000000 -0.101121 0.000113 0.000000
# 5 0.000000 0.000000 0.000000 0.000113 -0.101082 0.000000
# 6 0.000001 -0.000003 0.000000 0.000000 0.000000 0.047164
#
#
# Mechanical properties :
#
#
# Convention : Reuss Voigt Hill
#
# Bulk Modulus (GPa) = 42.69127 44.49008 43.59068
# Shear Modulus (GPa) = -65.11131 11.22558 -26.94287
#
# Velocity S-wave (km/s) = -5.61174 2.33010 -3.60987
# Velocity P-wave (km/s) = 4.61962 5.36257 1.92565
#
# Compressibility (1/GPa) = 0.02342399
#
# Stress axis : x y z
#
# Youngs Moduli (GPa) = 55.48599 55.48307 91.86099
#
# Poissons Ratio (x) = 0.30747 0.28532
# Poissons Ratio (y) = 0.30749 0.28535
# Poissons Ratio (z) = 0.17234 0.17235
#
# Static dielectric constant tensor:
#      x y z
#    x 3.777660 -0.000010 0.000000 
#    y -0.000010 3.777640 0.000000 
#    z 0.000000 0.000000 3.904570 
# 
# 
# High freq. dielectric constant tensor:
#      x y z
#    x 1.812450 0.000000 0.000000 
#    y 0.000000 1.812450 0.000000 
#    z 0.000000 0.000000 1.827430 
# 
# From -- ./inp_files/3190.got.cif
#   From: 2010.06.25/outbox.cif.g09.slc.cpg/sg176_2_cif.got.tgz:3190.got - 2010.06.28 12:15:01.
