data_PCOD8325198
_publ_section_title
;
Structure prediction by ZEFSAII (Michael W. Deem and Ramdas Pophale) SiO2 
 PCOD8325198
Probable space group: P 6/M
;
_chemical_formula_sum "Si O2"
_cell_formula_units_Z 72
_cell_length_a 22.389659
_cell_length_b 22.389659
_cell_length_c 8.926931
_cell_angle_alpha 90.000000
_cell_angle_beta 90.000000
_cell_angle_gamma 120.000000
_cell_volume 3875.500240
_symmetry_space_group_name_H-M "P 6/M"
_symmetry_group_IT_number 175
_symmetry_cell_setting 'hexagonal'
loop_
_space_group_symop_operation_xyz
x,y,z
x-y,x,z
-y,x-y,z
-x,-y,z
-x+y,-x,z
y,-x+y,z
-x,-y,-z
-x+y,-x,-z
y,-x+y,-z
x,y,-z
x-y,x,-z
-y,x-y,-z
loop_
_atom_site_type_symbol
_atom_site_label
_atom_site_fract_x
_atom_site_fract_y
_atom_site_fract_z
Si Si1 0.141479 0.299646 0.672659
Si Si2 0.387912 0.375544 0.828582
Si Si3 0.735853 0.990301 0.673152
Si Si4 0.445471 0.222275 0.176405
Si Si5 0.871668 0.379010 0.829348
Si Si6 0.144344 0.506063 0.323980
O O1 0.152868 0.322592 0.500000
O O2 0.180151 0.256659 0.710946
O O3 0.170802 0.368653 0.768838
O O4 0.059937 0.251789 0.708802
O O5 0.310214 0.325076 0.775722
O O6 0.407148 0.454464 0.815380
O O7 0.440158 0.366905 0.723818
O O8 0.395745 0.357686 0.000000
O O9 0.715224 0.989347 0.500000
O O10 0.468126 0.167753 0.225957
O O11 0.500947 0.294434 0.248892
O O12 0.446514 0.230920 0.000000
O O13 0.850621 0.422961 0.724675
O O14 0.852108 0.385354 0.000000
O O15 0.151656 0.505659 0.500000
#
# Coordination Sequence:
#
# PCOD8325198 Si02
#       6
#    12  12  12  12  12  12
#     4  10  20  35  57  86 120 155 193 238 290 344
#     4  11  21  36  59  86 115 147 187 235 287 342
#     4  10  20  34  56  86 120 156 192 237 290 345
#     4  11  22  39  61  83 111 149 193 241 291 341
#     4  10  23  41  59  82 111 149 192 236 288 339
#     4  12  25  39  57  84 115 150 190 233 289 344
#
# _framework density 18.578247999999999
#
# number of rings (size 3 to 8) (size 9 to 14) (size 15 to 20)
#    0.000    1.333    3.333    3.000    0.000    4.667 
#    1.000    0.000    0.000    0.333    0.000    2.333 
#    0.000    0.000    0.000    3.000    0.000    3.333 
#
# Total GULP energy -893035.776339 kJ/mol
# GULP energy per Si atom -12403.274671 kJ/mol
# Density = 1.853596 g / cm^3
# Si number density = 18.578248 Si / 1000 Ang^3
#
#
#
# Elastic Constant Matrix: (Units=GPa)
#
#
# Indices 1 2 3 4 5 6 
#
# 1 95.5318 34.6920 39.2885 0.0000 0.0000 0.0000
# 2 34.6920 95.5318 39.2885 0.0000 0.0000 0.0000
# 3 39.2885 39.2885 80.7146 0.0000 0.0000 0.0000
# 4 0.0000 0.0000 0.0000 26.5031 0.0000 0.0000
# 5 0.0000 0.0000 0.0000 0.0000 26.5031 0.0000
# 6 0.0000 0.0000 0.0000 0.0000 0.0000 30.4199
#
#
#
# Elastic Compliance Matrix: (Units=1/GPa)
#
#
# Indices 1 2 3 4 5 6 
#
# 1 0.013655 -0.002782 -0.005292 0.000000 0.000000 0.000000
# 2 -0.002782 0.013655 -0.005292 0.000000 0.000000 0.000000
# 3 -0.005292 -0.005292 0.017541 0.000000 0.000000 0.000000
# 4 0.000000 0.000000 0.000000 0.037731 0.000000 0.000000
# 5 0.000000 0.000000 0.000000 0.000000 0.037731 0.000000
# 6 0.000000 0.000000 0.000000 0.000000 0.000000 0.032873
#
#
# Mechanical properties :
#
#
# Convention : Reuss Voigt Hill
#
# Bulk Modulus (GPa) = 55.19586 55.36846 55.28216
# Shear Modulus (GPa) = 26.88767 27.25250 27.07009
#
# Velocity S-wave (km/s) = 3.80842 3.83417 3.82132
# Velocity P-wave (km/s) = 7.00808 7.03340 7.02075
#
# Compressibility (1/GPa) = 0.01811730
#
# Stress axis : x y z
#
# Youngs Moduli (GPa) = 73.23589 73.23589 57.00794
#
# Poissons Ratio (x) = 0.20375 0.30170
# Poissons Ratio (y) = 0.20375 0.30170
# Poissons Ratio (z) = 0.38758 0.38758
#
# Static dielectric constant tensor:
#      x y z
#    x 3.542290 0.000000 0.000000 
#    y 0.000000 3.542290 0.000000 
#    z 0.000000 0.000000 3.432650 
# 
# 
# High freq. dielectric constant tensor:
#      x y z
#    x 1.717810 0.000000 0.000000 
#    y 0.000000 1.717810 0.000000 
#    z 0.000000 0.000000 1.725310 
# 
# From -- ./inp_files/1209.got.cif
#   From: 2010.03.12/outbox.cif.g09.slc.cpg/sg175_1_cif.got.tgz:1209.got - 2010.04.02 06:55:29.
