data_PCOD8325478
_publ_section_title
;
Structure prediction by ZEFSAII (Michael W. Deem and Ramdas Pophale) SiO2 
 PCOD8325478
Probable space group: P 63/M
;
_chemical_formula_sum "Si O2"
_cell_formula_units_Z 72
_cell_length_a 23.112798
_cell_length_b 23.112798
_cell_length_c 8.449687
_cell_angle_alpha 90.000000
_cell_angle_beta 90.000000
_cell_angle_gamma 120.000000
_cell_volume 3909.095683
_symmetry_space_group_name_H-M "P 63/M"
_symmetry_group_IT_number 176
_symmetry_cell_setting 'hexagonal'
loop_
_space_group_symop_operation_xyz
x,y,z
x-y,x,1/2+z
-y,x-y,z
-x,-y,1/2+z
-x+y,-x,z
y,-x+y,1/2+z
-x,-y,-z
-x+y,-x,1/2-z
y,-x+y,-z
x,y,1/2-z
x-y,x,-z
-y,x-y,1/2-z
loop_
_atom_site_type_symbol
_atom_site_label
_atom_site_fract_x
_atom_site_fract_y
_atom_site_fract_z
Si Si1 0.122696 0.997560 0.931093
Si Si2 0.925052 0.397201 0.435077
Si Si3 0.068726 0.473361 0.566110
Si Si4 0.249424 0.247774 0.934759
Si Si5 0.381242 0.128281 0.061794
Si Si6 0.877785 0.620055 0.065447
O O1 0.126308 0.019740 0.750000
O O2 0.183335 0.985119 0.967589
O O3 0.054404 0.928765 0.956568
O O4 0.914690 0.388861 0.250000
O O5 0.903001 0.450275 0.496191
O O6 0.880978 0.322760 0.509101
O O7 0.002190 0.423755 0.472372
O O8 0.049231 0.469232 0.750000
O O9 0.122870 0.449798 0.538725
O O10 0.232770 0.234828 0.750000
O O11 0.243376 0.310589 0.996173
O O12 0.323162 0.260959 0.965961
O O13 0.383269 0.128151 0.250000
O O14 0.389955 0.197929 0.999171
O O15 0.887698 0.640366 0.250000
#
# Coordination Sequence:
#
# PCOD8325478 Si02
#       6
#    12  12  12  12  12  12
#     4  12  25  42  60  79 102 134 175 224 270 321
#     4   9  16  30  49  70  96 129 163 202 249 306
#     4   9  17  28  48  74  98 124 162 208 253 298
#     4  11  21  35  53  76 102 138 177 215 265 320
#     4   9  18  31  49  70 100 136 168 203 255 311
#     4  10  19  32  49  73 103 136 170 214 262 313
#
# _framework density 18.418582000000001
#
# number of rings (size 3 to 8) (size 9 to 14) (size 15 to 20)
#    0.000    2.000    1.667    3.167    0.000    1.333 
#    0.000    1.667    0.000    0.667    0.000    4.667 
#    0.000    0.000    0.000    3.833    0.000    4.667 
#
# Total GULP energy -892618.941781 kJ/mol
# GULP energy per Si atom -12397.485303 kJ/mol
# Density = 1.837666 g / cm^3
# Si number density = 18.418582 Si / 1000 Ang^3
#
#
#
# Elastic Constant Matrix: (Units=GPa)
#
#
# Indices 1 2 3 4 5 6 
#
# 1 122.8582 60.7292 10.7345 0.0000 0.0000 0.0000
# 2 60.7292 122.8582 10.7345 0.0000 0.0000 0.0000
# 3 10.7345 10.7345 30.3210 0.0000 0.0000 0.0000
# 4 0.0000 0.0000 0.0000 16.4255 0.0000 0.0000
# 5 0.0000 0.0000 0.0000 0.0000 16.4255 0.0000
# 6 0.0000 0.0000 0.0000 0.0000 0.0000 31.0645
#
#
#
# Elastic Compliance Matrix: (Units=1/GPa)
#
#
# Indices 1 2 3 4 5 6 
#
# 1 0.010889 -0.005207 -0.002012 0.000000 0.000000 0.000000
# 2 -0.005207 0.010889 -0.002012 0.000000 0.000000 0.000000
# 3 -0.002012 -0.002012 0.034405 0.000000 0.000000 0.000000
# 4 0.000000 0.000000 0.000000 0.060881 0.000000 0.000000
# 5 0.000000 0.000000 0.000000 0.000000 0.060881 0.000000
# 6 0.000000 0.000000 0.000000 0.000000 0.000000 0.032191
#
#
# Mechanical properties :
#
#
# Convention : Reuss Voigt Hill
#
# Bulk Modulus (GPa) = 26.50932 48.93708 37.72320
# Shear Modulus (GPa) = 20.73228 25.70571 23.21900
#
# Velocity S-wave (km/s) = 3.35866 3.73988 3.55439
# Velocity P-wave (km/s) = 5.42815 6.72875 6.11313
#
# Compressibility (1/GPa) = 0.03772258
#
# Stress axis : x y z
#
# Youngs Moduli (GPa) = 91.83667 91.83667 29.06570
#
# Poissons Ratio (x) = 0.47816 0.05847
# Poissons Ratio (y) = 0.47816 0.05847
# Poissons Ratio (z) = 0.18475 0.18475
#
# Static dielectric constant tensor:
#      x y z
#    x 3.664540 0.000000 0.000000 
#    y 0.000000 3.664540 0.000000 
#    z 0.000000 0.000000 3.176230 
# 
# 
# High freq. dielectric constant tensor:
#      x y z
#    x 1.710080 0.000000 0.000000 
#    y 0.000000 1.710080 0.000000 
#    z 0.000000 0.000000 1.696030 
# 
# From -- ./inp_files/1227.got.cif
#   From: 2010.06.25/outbox.cif.g09.slc.cpg/sg176_1_cif.got.tgz:1227.got - 2010.06.28 12:15:01.
