data_PCOD8325047
_publ_section_title
;
Structure prediction by ZEFSAII (Michael W. Deem and Ramdas Pophale) SiO2 
 PCOD8325047
Probable space group: P 6/M
;
_chemical_formula_sum "Si O2"
_cell_formula_units_Z 84
_cell_length_a 19.196057
_cell_length_b 19.196057
_cell_length_c 14.628760
_cell_angle_alpha 90.000000
_cell_angle_beta 90.000000
_cell_angle_gamma 120.000000
_cell_volume 4668.337094
_symmetry_space_group_name_H-M "P 6/M"
_symmetry_group_IT_number 175
_symmetry_cell_setting 'hexagonal'
loop_
_space_group_symop_operation_xyz
x,y,z
x-y,x,z
-y,x-y,z
-x,-y,z
-x+y,-x,z
y,-x+y,z
-x,-y,-z
-x+y,-x,-z
y,-x+y,-z
x,y,-z
x-y,x,-z
-y,x-y,-z
loop_
_atom_site_type_symbol
_atom_site_label
_atom_site_fract_x
_atom_site_fract_y
_atom_site_fract_z
Si Si1 0.233931 0.302375 0.341109
Si Si2 0.301440 0.430022 0.809926
Si Si3 0.004791 0.290534 0.901934
Si Si4 0.904980 0.458836 0.893804
Si Si5 0.106867 0.351026 0.399939
Si Si6 0.578798 0.716692 0.791660
Si Si7 0.970475 0.144624 0.812425
O O1 0.294309 0.386246 0.287647
O O2 0.164898 0.311834 0.393386
O O3 0.286056 0.275179 0.402200
O O4 0.187853 0.229525 0.272985
O O5 0.306772 0.375438 0.889489
O O6 0.380714 0.515777 0.827666
O O7 0.226421 0.443645 0.822038
O O8 0.074048 0.331158 0.825135
O O9 0.968452 0.194308 0.900503
O O10 0.043682 0.326587 0.000000
O O11 0.881590 0.517436 0.842035
O O12 0.000000 0.500000 0.892819
O O13 0.873897 0.441884 0.000000
O O14 0.124847 0.393419 0.500000
O O15 0.128758 0.417065 0.319142
O O16 0.053599 0.147578 0.812673
#
# Coordination Sequence:
#
# PCOD8325047 Si02
#       7
#    12  12  12  12  12  12  12
#     4  10  18  34  54  80 109 146 185 238 290 332
#     4  10  21  36  57  82 114 146 184 227 279 340
#     4  11  20  34  56  80 106 142 192 237 277 335
#     4  11  21  36  58  85 116 151 186 224 277 341
#     4  11  20  34  57  84 113 145 192 243 289 335
#     4  11  22  38  58  83 116 150 185 230 290 338
#     4  11  20  33  49  69 108 149 191 230 282 337
#
# _framework density 17.993559000000001
#
# number of rings (size 3 to 8) (size 9 to 14) (size 15 to 20)
#    0.000    1.286    5.714    3.143    0.000    4.000 
#    0.857    0.000    0.000    8.143    0.000    2.000 
#    0.000    0.000    0.000    0.000    0.000    0.000 
#
# Total GULP energy -1040653.151035 kJ/mol
# GULP energy per Si atom -12388.727989 kJ/mol
# Density = 1.795261 g / cm^3
# Si number density = 17.993559 Si / 1000 Ang^3
#
#
#
# Elastic Constant Matrix: (Units=GPa)
#
#
# Indices 1 2 3 4 5 6 
#
# 1 101.9066 14.1415 36.2997 0.0000 0.0000 0.0000
# 2 14.1415 101.9066 36.2997 0.0000 0.0000 0.0000
# 3 36.2997 36.2997 118.5926 0.0000 0.0000 0.0000
# 4 0.0000 0.0000 0.0000 26.6471 0.0000 0.0000
# 5 0.0000 0.0000 0.0000 0.0000 26.6471 0.0000
# 6 0.0000 0.0000 0.0000 0.0000 0.0000 43.8826
#
#
#
# Elastic Compliance Matrix: (Units=1/GPa)
#
#
# Indices 1 2 3 4 5 6 
#
# 1 0.011026 -0.000368 -0.003262 0.000000 0.000000 0.000000
# 2 -0.000368 0.011026 -0.003262 0.000000 0.000000 0.000000
# 3 -0.003262 -0.003262 0.010429 0.000000 0.000000 0.000000
# 4 0.000000 0.000000 0.000000 0.037528 0.000000 0.000000
# 5 0.000000 0.000000 0.000000 0.000000 0.037528 0.000000
# 6 0.000000 0.000000 0.000000 0.000000 0.000000 0.022788
#
#
# Mechanical properties :
#
#
# Convention : Reuss Voigt Hill
#
# Bulk Modulus (GPa) = 53.48682 55.09860 54.29271
# Shear Modulus (GPa) = 33.25754 35.14633 34.20193
#
# Velocity S-wave (km/s) = 4.30385 4.42438 4.36453
# Velocity P-wave (km/s) = 7.38157 7.53578 7.45907
#
# Compressibility (1/GPa) = 0.01869619
#
# Stress axis : x y z
#
# Youngs Moduli (GPa) = 90.69456 90.69456 95.88357
#
# Poissons Ratio (x) = 0.03338 0.31280
# Poissons Ratio (y) = 0.03338 0.31280
# Poissons Ratio (z) = 0.29587 0.29587
#
# Static dielectric constant tensor:
#      x y z
#    x 3.439540 0.000000 0.000000 
#    y 0.000000 3.439540 0.000000 
#    z 0.000000 0.000000 3.267560 
# 
# 
# High freq. dielectric constant tensor:
#      x y z
#    x 1.689640 0.000000 0.000000 
#    y 0.000000 1.689640 0.000000 
#    z 0.000000 0.000000 1.687330 
# 
# From -- ./inp_files/2604.got.cif
#   From: 2010.03.12/outbox.cif.g09.slc.cpg/sg175_2_cif.got.tgz:2604.got - 2010.04.02 06:55:29.
