data_PCOD8325870
_publ_section_title
;
Structure prediction by ZEFSAII (Michael W. Deem and Ramdas Pophale) SiO2 
 PCOD8325870
Probable space group: P 61 2 2
;
_chemical_formula_sum "Si O2"
_cell_formula_units_Z 84
_cell_length_a 14.753797
_cell_length_b 14.753797
_cell_length_c 22.502441
_cell_angle_alpha 90.000000
_cell_angle_beta 90.000000
_cell_angle_gamma 120.000000
_cell_volume 4241.972714
_symmetry_space_group_name_H-M "P 61 2 2"
_symmetry_group_IT_number 178
_symmetry_cell_setting 'hexagonal'
loop_
_space_group_symop_operation_xyz
x,y,z
x-y,x,1/6+z
-y,x-y,1/3+z
-x,-y,1/2+z
-x+y,-x,2/3+z
y,-x+y,5/6+z
x-y,-y,-z
-x,-x+y,2/3-z
y,x,1/3-z
-y,-x,5/6-z
-x+y,y,1/2-z
x,x-y,1/6-z
loop_
_atom_site_type_symbol
_atom_site_label
_atom_site_fract_x
_atom_site_fract_y
_atom_site_fract_z
Si Si1 0.219351 0.762286 0.679749
Si Si2 0.008286 0.414718 0.202531
Si Si3 0.328820 0.000000 0.500000
Si Si4 0.779943 0.186933 0.848249
Si Si5 0.307621 0.636302 0.820315
Si Si6 0.000000 0.642766 0.833334
Si Si7 0.787615 0.225015 0.516756
Si Si8 0.601707 0.627890 0.295242
O O1 0.095111 0.682632 0.673512
O O2 0.278930 0.703882 0.655375
O O3 0.250449 0.803910 0.746893
O O4 0.262799 0.866403 0.639281
O O5 0.996322 0.415706 0.273711
O O6 0.105489 0.401482 0.184403
O O7 0.028565 0.526761 0.179190
O O8 0.318966 0.104088 0.493486
O O9 0.387987 0.995043 0.440952
O O10 0.786574 0.213427 0.916667
O O11 0.745524 0.265412 0.817489
O O12 0.699237 0.065717 0.835019
O O13 0.314672 0.629344 0.750000
O O14 0.242741 0.693053 0.839637
O O15 0.105520 0.756298 0.831983
#
# Coordination Sequence:
#
# PCOD8325870 Si02
#       8
#    12  12   6  12  12   6  12  12
#     4  10  21  36  54  80 113 152 186 229 282 339
#     4  11  21  36  57  83 114 149 187 232 282 340
#     4  10  23  36  54  83 112 152 192 235 278 343
#     4   9  19  34  55  75 110 150 186 228 280 327
#     4   9  16  30  50  78 109 149 181 219 273 330
#     4  10  23  36  54  85 114 150 188 233 280 335
#     4  10  21  35  58  77 114 151 191 227 277 335
#     4  11  21  36  56  82 114 150 189 233 287 338
#
# _framework density 19.802106999999999
#
# number of rings (size 3 to 8) (size 9 to 14) (size 15 to 20)
#    0.000    2.000    2.857    0.857    8.000    1.143 
#    0.000    0.714    0.000    0.857    0.000    4.000 
#    0.000    0.000    0.000    0.000    0.000    0.000 
#
# Total GULP energy -1041030.957424 kJ/mol
# GULP energy per Si atom -12393.225684 kJ/mol
# Density = 1.975704 g / cm^3
# Si number density = 19.802107 Si / 1000 Ang^3
#
#
#
# Elastic Constant Matrix: (Units=GPa)
#
#
# Indices 1 2 3 4 5 6 
#
# 1 141.2124 82.2952 22.1841 0.0000 0.0000 0.0000
# 2 82.2952 141.2124 22.1841 0.0000 0.0000 0.0000
# 3 22.1841 22.1841 38.3340 0.0000 0.0000 0.0000
# 4 0.0000 0.0000 0.0000 21.6692 0.0000 0.0000
# 5 0.0000 0.0000 0.0000 0.0000 21.6692 0.0000
# 6 0.0000 0.0000 0.0000 0.0000 0.0000 29.4586
#
#
#
# Elastic Compliance Matrix: (Units=1/GPa)
#
#
# Indices 1 2 3 4 5 6 
#
# 1 0.011014 -0.005959 -0.002925 0.000000 0.000000 0.000000
# 2 -0.005959 0.011014 -0.002925 0.000000 0.000000 0.000000
# 3 -0.002925 -0.002925 0.029472 0.000000 0.000000 0.000000
# 4 0.000000 0.000000 0.000000 0.046148 0.000000 0.000000
# 5 0.000000 0.000000 0.000000 0.000000 0.046148 0.000000
# 6 0.000000 0.000000 0.000000 0.000000 0.000000 0.033946
#
#
# Mechanical properties :
#
#
# Convention : Reuss Voigt Hill
#
# Bulk Modulus (GPa) = 35.86690 63.78727 49.82708
# Shear Modulus (GPa) = 23.73541 27.49908 25.61725
#
# Velocity S-wave (km/s) = 3.46588 3.73056 3.60065
# Velocity P-wave (km/s) = 5.84538 7.13011 6.51947
#
# Compressibility (1/GPa) = 0.02788086
#
# Stress axis : x y z
#
# Youngs Moduli (GPa) = 90.79443 90.79443 33.93024
#
# Poissons Ratio (x) = 0.54105 0.09925
# Poissons Ratio (y) = 0.54105 0.09925
# Poissons Ratio (z) = 0.26560 0.26560
#
# Static dielectric constant tensor:
#      x y z
#    x 3.652150 0.000000 0.000000 
#    y 0.000000 3.652150 0.000000 
#    z 0.000000 0.000000 3.435040 
# 
# 
# High freq. dielectric constant tensor:
#      x y z
#    x 1.757170 0.000000 0.000000 
#    y 0.000000 1.757170 0.000000 
#    z 0.000000 0.000000 1.760930 
# 
# From -- ./inp_files/8367.got.cif
#   From: 2010.03.12/outbox.cif.g09.slc.cpg/sg178_5_cif.got.tgz:8367.got - 2010.04.02 07:02:38.
