data_PCOD8325860
_publ_section_title
;
Structure prediction by ZEFSAII (Michael W. Deem and Ramdas Pophale) SiO2 
 PCOD8325860
Probable space group: P 61 2 2
;
_chemical_formula_sum "Si O2"
_cell_formula_units_Z 66
_cell_length_a 14.893682
_cell_length_b 14.893682
_cell_length_c 16.642904
_cell_angle_alpha 90.000000
_cell_angle_beta 90.000000
_cell_angle_gamma 120.000000
_cell_volume 3197.156486
_symmetry_space_group_name_H-M "P 61 2 2"
_symmetry_group_IT_number 178
_symmetry_cell_setting 'hexagonal'
loop_
_space_group_symop_operation_xyz
x,y,z
x-y,x,1/6+z
-y,x-y,1/3+z
-x,-y,1/2+z
-x+y,-x,2/3+z
y,-x+y,5/6+z
x-y,-y,-z
-x,-x+y,2/3-z
y,x,1/3-z
-y,-x,5/6-z
-x+y,y,1/2-z
x,x-y,1/6-z
loop_
_atom_site_type_symbol
_atom_site_label
_atom_site_fract_x
_atom_site_fract_y
_atom_site_fract_z
Si Si1 0.942992 0.681969 0.022055
Si Si2 0.446712 0.860980 0.941150
Si Si3 0.227580 0.455160 0.250000
Si Si4 0.722783 0.884023 0.469547
Si Si5 0.923650 0.477313 0.947920
Si Si6 0.255919 0.443027 0.839045
O O1 0.893824 0.659752 0.111278
O O2 0.045430 0.793386 0.013794
O O3 0.871321 0.696332 0.957883
O O4 0.954697 0.584620 0.992714
O O5 0.344382 0.811898 0.884669
O O6 0.502367 0.793162 0.941396
O O7 0.527382 0.972485 0.905149
O O8 0.403840 0.864685 0.030177
O O9 0.237200 0.382608 0.182988
O O10 0.811706 0.000000 0.500000
O O11 0.853738 0.378336 0.003446
O O12 0.205157 0.410313 0.750000
#
# Coordination Sequence:
#
# PCOD8325860 Si02
#       6
#    12  12   6  12  12  12
#     4  12  24  41  67 101 129 177 226 281 342 412
#     4  10  21  38  64  95 136 180 216 273 340 398
#     4  12  20  38  64  98 138 176 216 270 342 408
#     4  12  23  42  69 100 135 165 221 289 349 403
#     4  10  20  40  63  94 137 175 220 272 330 410
#     4  10  25  44  63  93 141 189 224 276 334 413
#
# _framework density 20.643343999999999
#
# number of rings (size 3 to 8) (size 9 to 14) (size 15 to 20)
#    0.000    1.091    5.455    0.545    5.091    0.000 
#    0.000    0.909    0.000    4.364    0.000    0.000 
#    0.000    0.000    0.000    0.000    0.000    0.000 
#
# Total GULP energy -817651.214380 kJ/mol
# GULP energy per Si atom -12388.654763 kJ/mol
# Density = 2.059636 g / cm^3
# Si number density = 20.643344 Si / 1000 Ang^3
#
#
#
# Elastic Constant Matrix: (Units=GPa)
#
#
# Indices 1 2 3 4 5 6 
#
# 1 110.1701 54.7502 30.4577 0.0000 0.0000 0.0000
# 2 54.7502 110.1701 30.4577 0.0000 0.0000 0.0000
# 3 30.4577 30.4577 90.4868 0.0000 0.0000 0.0000
# 4 0.0000 0.0000 0.0000 29.4282 0.0000 0.0000
# 5 0.0000 0.0000 0.0000 0.0000 29.4282 0.0000
# 6 0.0000 0.0000 0.0000 0.0000 0.0000 27.7099
#
#
#
# Elastic Compliance Matrix: (Units=1/GPa)
#
#
# Indices 1 2 3 4 5 6 
#
# 1 0.012484 -0.005560 -0.002331 0.000000 0.000000 0.000000
# 2 -0.005560 0.012484 -0.002331 0.000000 0.000000 0.000000
# 3 -0.002331 -0.002331 0.012620 0.000000 0.000000 0.000000
# 4 0.000000 0.000000 0.000000 0.033981 0.000000 0.000000
# 5 0.000000 0.000000 0.000000 0.000000 0.033981 0.000000
# 6 0.000000 0.000000 0.000000 0.000000 0.000000 0.036088
#
#
# Mechanical properties :
#
#
# Convention : Reuss Voigt Hill
#
# Bulk Modulus (GPa) = 58.32180 60.23978 59.28079
# Shear Modulus (GPa) = 29.79791 30.32404 30.06098
#
# Velocity S-wave (km/s) = 3.80342 3.83685 3.82017
# Velocity P-wave (km/s) = 6.89938 6.99093 6.94530
#
# Compressibility (1/GPa) = 0.01714625
#
# Stress axis : x y z
#
# Youngs Moduli (GPa) = 80.10096 80.10096 79.23685
#
# Poissons Ratio (x) = 0.44535 0.18468
# Poissons Ratio (y) = 0.44535 0.18468
# Poissons Ratio (z) = 0.18670 0.18670
#
# Static dielectric constant tensor:
#      x y z
#    x 3.634960 0.000000 0.000000 
#    y 0.000000 3.634960 0.000000 
#    z 0.000000 0.000000 3.930590 
# 
# 
# High freq. dielectric constant tensor:
#      x y z
#    x 1.799620 0.000000 0.000000 
#    y 0.000000 1.799620 0.000000 
#    z 0.000000 0.000000 1.803690 
# 
# From -- ./inp_files/6718.got.cif
#   From: 2010.03.12/outbox.cif.g09.slc.cpg/sg178_4_cif.got.tgz:6718.got - 2010.04.02 07:02:38.
