data_PCOD8325265
_publ_section_title
;
Structure prediction by ZEFSAII (Michael W. Deem and Ramdas Pophale) SiO2 
 PCOD8325265
Probable space group: P 6/M
;
_chemical_formula_sum "Si O2"
_cell_formula_units_Z 84
_cell_length_a 18.849271
_cell_length_b 18.849271
_cell_length_c 14.219722
_cell_angle_alpha 90.000000
_cell_angle_beta 90.000000
_cell_angle_gamma 120.000000
_cell_volume 4375.330404
_symmetry_space_group_name_H-M "P 6/M"
_symmetry_group_IT_number 175
_symmetry_cell_setting 'hexagonal'
loop_
_space_group_symop_operation_xyz
x,y,z
x-y,x,z
-y,x-y,z
-x,-y,z
-x+y,-x,z
y,-x+y,z
-x,-y,-z
-x+y,-x,-z
y,-x+y,-z
x,y,-z
x-y,x,-z
-y,x-y,-z
loop_
_atom_site_type_symbol
_atom_site_label
_atom_site_fract_x
_atom_site_fract_y
_atom_site_fract_z
Si Si1 1.000000 0.282170 0.750000
Si Si2 0.541152 0.444423 0.390993
Si Si3 0.854916 0.312592 0.742086
Si Si4 0.172786 0.151162 0.390507
Si Si5 0.457676 0.312592 0.757914
Si Si6 0.444423 0.541152 0.109007
Si Si7 0.151162 0.172786 0.890507
O O1 0.076499 0.366250 0.785143
O O2 0.923501 0.289751 0.714857
O O3 0.031896 0.251548 0.663146
O O4 0.968104 0.219652 0.836854
O O5 0.500000 0.500000 0.375625
O O6 0.551875 0.430634 0.500000
O O7 0.629331 0.484458 0.340997
O O8 0.481426 0.357400 0.343057
O O9 0.766354 0.233646 0.750000
O O10 0.875974 0.357400 0.843057
O O11 0.156370 0.062582 0.360272
O O12 0.191647 0.166966 0.500000
O O13 0.515542 0.370669 0.840997
O O14 0.500000 0.500000 0.124375
O O15 0.430634 0.551875 0.000000
O O16 0.156370 0.093787 0.860272
O O17 0.166966 0.191647 0.000000
#
# Coordination Sequence:
#
# PCOD8325265 Si02
#       7
#    12  12  12  12  12  12  12
#     4  12  22  37  57  88 120 154 194 238 296 354
#     4  10  21  43  68  89 119 162 207 245 298 369
#     4  11  22  39  64  92 123 156 194 246 301 355
#     4  10  21  36  53  76 111 156 202 246 292 343
#     4  11  22  39  64  92 123 156 194 246 301 355
#     4  10  21  43  68  89 119 162 207 245 298 369
#     4  10  21  36  53  76 111 156 202 246 292 343
#
# _framework density 19.198550000000001
#
# number of rings (size 3 to 8) (size 9 to 14) (size 15 to 20)
#    0.000    1.429    2.857    3.714    0.000    4.571 
#    6.857    1.429    0.000    0.000    0.000    0.000 
#    0.000    0.000    0.000    0.000    0.000    0.000 
#
# Total GULP energy -1042020.890290 kJ/mol
# GULP energy per Si atom -12405.010599 kJ/mol
# Density = 1.915485 g / cm^3
# Si number density = 19.198550 Si / 1000 Ang^3
#
#
#
# Elastic Constant Matrix: (Units=GPa)
#
#
# Indices 1 2 3 4 5 6 
#
# 1 95.0899 23.3564 25.1108 0.0000 0.0000 0.0000
# 2 23.3564 95.0899 25.1108 0.0000 0.0000 0.0000
# 3 25.1108 25.1108 102.8321 0.0000 0.0000 0.0000
# 4 0.0000 0.0000 0.0000 23.8350 0.0000 0.0000
# 5 0.0000 0.0000 0.0000 0.0000 23.8350 0.0000
# 6 0.0000 0.0000 0.0000 0.0000 0.0000 35.8668
#
#
#
# Elastic Compliance Matrix: (Units=1/GPa)
#
#
# Indices 1 2 3 4 5 6 
#
# 1 0.011679 -0.002261 -0.002300 0.000000 0.000000 0.000000
# 2 -0.002261 0.011679 -0.002300 0.000000 0.000000 0.000000
# 3 -0.002300 -0.002300 0.010848 0.000000 0.000000 0.000000
# 4 0.000000 0.000000 0.000000 0.041955 0.000000 0.000000
# 5 0.000000 0.000000 0.000000 0.000000 0.041955 0.000000
# 6 0.000000 0.000000 0.000000 0.000000 0.000000 0.027881
#
#
# Mechanical properties :
#
#
# Convention : Reuss Voigt Hill
#
# Bulk Modulus (GPa) = 48.81792 48.90752 48.86272
# Shear Modulus (GPa) = 30.02154 31.33627 30.67891
#
# Velocity S-wave (km/s) = 3.95871 4.04446 4.00181
# Velocity P-wave (km/s) = 6.81016 6.88041 6.84538
#
# Compressibility (1/GPa) = 0.02048428
#
# Stress axis : x y z
#
# Youngs Moduli (GPa) = 85.62296 85.62296 92.18507
#
# Poissons Ratio (x) = 0.19363 0.21200
# Poissons Ratio (y) = 0.19363 0.21200
# Poissons Ratio (z) = 0.19691 0.19691
#
# Static dielectric constant tensor:
#      x y z
#    x 3.541160 0.000000 0.000000 
#    y 0.000000 3.541160 0.000000 
#    z 0.000000 0.000000 3.536440 
# 
# 
# High freq. dielectric constant tensor:
#      x y z
#    x 1.749900 0.000000 0.000000 
#    y 0.000000 1.749900 0.000000 
#    z 0.000000 0.000000 1.752660 
# 
# From -- ./inp_files/2605.got.cif
#   From: 2010.03.12/outbox.cif.g09.slc.cpg/sg175_2_cif.got.tgz:2605.got - 2010.04.02 06:55:29.
