data_PCOD8325760
_publ_section_title
;
Structure prediction by ZEFSAII (Michael W. Deem and Ramdas Pophale) SiO2 
 PCOD8325760
Probable space group: P 61 2 2
;
_chemical_formula_sum "Si O2"
_cell_formula_units_Z 60
_cell_length_a 30.765810
_cell_length_b 30.765810
_cell_length_c 5.152951
_cell_angle_alpha 90.000000
_cell_angle_beta 90.000000
_cell_angle_gamma 120.000000
_cell_volume 4223.994575
_symmetry_space_group_name_H-M "P 61 2 2"
_symmetry_group_IT_number 178
_symmetry_cell_setting 'hexagonal'
loop_
_space_group_symop_operation_xyz
x,y,z
x-y,x,1/6+z
-y,x-y,1/3+z
-x,-y,1/2+z
-x+y,-x,2/3+z
y,-x+y,5/6+z
x-y,-y,-z
-x,-x+y,2/3-z
y,x,1/3-z
-y,-x,5/6-z
-x+y,y,1/2-z
x,x-y,1/6-z
loop_
_atom_site_type_symbol
_atom_site_label
_atom_site_fract_x
_atom_site_fract_y
_atom_site_fract_z
Si Si1 0.495459 0.555335 0.665974
Si Si2 0.704672 0.645085 0.166623
Si Si3 0.153830 0.207243 0.248097
Si Si4 0.915098 0.185337 0.916167
Si Si5 0.652910 0.059600 0.501487
O O1 0.526457 0.526457 0.666667
O O2 0.459775 0.540226 0.416667
O O3 0.533552 0.615090 0.659061
O O4 0.459857 0.540144 0.916667
O O5 0.680855 0.680855 0.166667
O O6 0.764017 0.679174 0.188463
O O7 0.685146 0.606448 0.404485
O O8 0.690578 0.611608 0.908197
O O9 0.159260 0.159260 0.166667
O O10 0.095014 0.190028 0.250000
O O11 0.176343 0.228684 0.531412
O O12 0.186439 0.249709 0.035002
O O13 0.857658 0.142343 0.916667
O O14 0.620777 0.000000 0.500000
#
# Coordination Sequence:
#
# PCOD8325760 Si02
#       5
#    12  12  12  12  12
#     4   9  15  23  34  47  67  93 120 152 185 215
#     4  10  17  26  39  53  73  96 120 155 192 228
#     4  10  19  31  46  64  82 100 123 151 186 236
#     4  10  20  31  44  61  80 102 128 156 193 236
#     4   9  17  25  35  53  71  93 124 152 187 225
#
# _framework density 14.204565000000001
#
# number of rings (size 3 to 8) (size 9 to 14) (size 15 to 20)
#    0.000    2.400    0.000    4.200    0.000    6.400 
#    0.000    0.000    0.000    0.000    0.000    4.200 
#    0.000    0.000    0.000    0.000    0.000    0.000 
#
# Total GULP energy -743915.323593 kJ/mol
# GULP energy per Si atom -12398.588727 kJ/mol
# Density = 1.417223 g / cm^3
# Si number density = 14.204565 Si / 1000 Ang^3
#
#
#
# Elastic Constant Matrix: (Units=GPa)
#
#
# Indices 1 2 3 4 5 6 
#
# 1 69.6019 33.6990 33.2780 0.0000 0.0000 0.0000
# 2 33.6990 69.6019 33.2780 0.0000 0.0000 0.0000
# 3 33.2780 33.2780 116.4030 0.0000 0.0000 0.0000
# 4 0.0000 0.0000 0.0000 17.4133 0.0000 0.0000
# 5 0.0000 0.0000 0.0000 0.0000 17.4133 0.0000
# 6 0.0000 0.0000 0.0000 0.0000 0.0000 17.9515
#
#
#
# Elastic Compliance Matrix: (Units=1/GPa)
#
#
# Indices 1 2 3 4 5 6 
#
# 1 0.019859 -0.007993 -0.003392 0.000000 0.000000 0.000000
# 2 -0.007993 0.019859 -0.003392 0.000000 0.000000 0.000000
# 3 -0.003392 -0.003392 0.010531 0.000000 0.000000 0.000000
# 4 0.000000 0.000000 0.000000 0.057427 0.000000 0.000000
# 5 0.000000 0.000000 0.000000 0.000000 0.057427 0.000000
# 6 0.000000 0.000000 0.000000 0.000000 0.000000 0.055706
#
#
# Mechanical properties :
#
#
# Convention : Reuss Voigt Hill
#
# Bulk Modulus (GPa) = 48.32480 50.67966 49.50223
# Shear Modulus (GPa) = 19.43529 20.91240 20.17384
#
# Velocity S-wave (km/s) = 3.70299 3.84113 3.77269
# Velocity P-wave (km/s) = 7.23722 7.44501 7.34185
#
# Compressibility (1/GPa) = 0.02069331
#
# Stress axis : x y z
#
# Youngs Moduli (GPa) = 50.35377 50.35377 94.96215
#
# Poissons Ratio (x) = 0.40250 0.32215
# Poissons Ratio (y) = 0.40250 0.32215
# Poissons Ratio (z) = 0.17082 0.17082
#
# Static dielectric constant tensor:
#      x y z
#    x 2.580370 0.000000 0.000000 
#    y 0.000000 2.580370 0.000000 
#    z 0.000000 0.000000 3.140070 
# 
# 
# High freq. dielectric constant tensor:
#      x y z
#    x 1.505420 0.000000 0.000000 
#    y 0.000000 1.505420 0.000000 
#    z 0.000000 0.000000 1.570560 
# 
# From -- ./inp_files/1474.got.cif
#   From: 2010.03.12/outbox.cif.g09.slc.cpg/sg178_1_cif.got.tgz:1474.got - 2010.04.02 07:02:38.
