data_PCOD8325089
_publ_section_title
;
Structure prediction by ZEFSAII (Michael W. Deem and Ramdas Pophale) SiO2 
 PCOD8325089
Probable space group: P 6/M
;
_chemical_formula_sum "Si O2"
_cell_formula_units_Z 72
_cell_length_a 23.836327
_cell_length_b 23.836327
_cell_length_c 8.687794
_cell_angle_alpha 90.000000
_cell_angle_beta 90.000000
_cell_angle_gamma 120.000000
_cell_volume 4274.829677
_symmetry_space_group_name_H-M "P 6/M"
_symmetry_group_IT_number 175
_symmetry_cell_setting 'hexagonal'
loop_
_space_group_symop_operation_xyz
x,y,z
x-y,x,z
-y,x-y,z
-x,-y,z
-x+y,-x,z
y,-x+y,z
-x,-y,-z
-x+y,-x,-z
y,-x+y,-z
x,y,-z
x-y,x,-z
-y,x-y,-z
loop_
_atom_site_type_symbol
_atom_site_label
_atom_site_fract_x
_atom_site_fract_y
_atom_site_fract_z
Si Si1 0.592615 0.861596 0.180717
Si Si2 0.071604 0.265922 0.319066
Si Si3 0.731048 0.928398 0.316971
Si Si4 0.595216 0.527173 0.318811
Si Si5 0.139544 0.401849 0.178679
Si Si6 0.930287 0.521641 0.819302
O O1 0.664711 0.912525 0.235079
O O2 0.542227 0.876083 0.268820
O O3 0.574986 0.788557 0.225612
O O4 0.586594 0.869305 0.000000
O O5 0.072072 0.266620 0.500000
O O6 0.124448 0.247013 0.259874
O O7 0.089432 0.337031 0.265952
O O8 0.999690 0.213544 0.261465
O O9 0.719953 0.924787 0.500000
O O10 0.592026 0.535348 0.500000
O O11 0.577497 0.576429 0.234338
O O12 0.544714 0.453567 0.270970
O O13 0.122813 0.457520 0.220705
O O14 0.128981 0.384459 0.000000
O O15 0.932701 0.509920 0.000000
#
# Coordination Sequence:
#
# PCOD8325089 Si02
#       6
#    12  12  12  12  12  12
#     4  10  19  32  48  68  93 121 151 188 228 271
#     4   9  17  28  44  64  90 120 152 187 228 273
#     4   9  17  29  44  65  90 120 153 189 230 274
#     4  11  21  32  47  71  98 125 154 186 225 274
#     4   9  19  32  48  69  92 117 150 187 227 270
#     4  10  19  33  51  71  94 123 155 191 231 272
#
# _framework density 16.842775
#
# number of rings (size 3 to 8) (size 9 to 14) (size 15 to 20)
#    0.000    2.333    0.000    4.500    0.000    5.333 
#    0.000    0.000    0.000    1.000    0.000    4.667 
#    0.000    0.000    0.000    8.333    0.000    8.667 
#
# Total GULP energy -892717.541696 kJ/mol
# GULP energy per Si atom -12398.854746 kJ/mol
# Density = 1.680444 g / cm^3
# Si number density = 16.842775 Si / 1000 Ang^3
#
#
#
# Elastic Constant Matrix: (Units=GPa)
#
#
# Indices 1 2 3 4 5 6 
#
# 1 110.6555 63.4870 18.7235 0.0000 0.0000 0.0000
# 2 63.4870 110.6555 18.7235 0.0000 0.0000 0.0000
# 3 18.7235 18.7235 32.0251 0.0000 0.0000 0.0000
# 4 0.0000 0.0000 0.0000 22.1553 0.0000 0.0000
# 5 0.0000 0.0000 0.0000 0.0000 22.1553 0.0000
# 6 0.0000 0.0000 0.0000 0.0000 0.0000 23.5843
#
#
#
# Elastic Compliance Matrix: (Units=1/GPa)
#
#
# Indices 1 2 3 4 5 6 
#
# 1 0.013884 -0.007316 -0.003840 0.000000 0.000000 0.000000
# 2 -0.007316 0.013884 -0.003840 0.000000 0.000000 0.000000
# 3 -0.003840 -0.003840 0.035716 0.000000 0.000000 0.000000
# 4 0.000000 0.000000 0.000000 0.045136 0.000000 0.000000
# 5 0.000000 0.000000 0.000000 0.000000 0.045136 0.000000
# 6 0.000000 0.000000 0.000000 0.000000 0.000000 0.042401
#
#
# Mechanical properties :
#
#
# Convention : Reuss Voigt Hill
#
# Bulk Modulus (GPa) = 29.85815 50.57823 40.21819
# Shear Modulus (GPa) = 21.06912 23.73911 22.40411
#
# Velocity S-wave (km/s) = 3.54068 3.75834 3.65114
# Velocity P-wave (km/s) = 5.87208 6.99488 6.45793
#
# Compressibility (1/GPa) = 0.03349170
#
# Stress axis : x y z
#
# Youngs Moduli (GPa) = 72.02337 72.02337 27.99890
#
# Poissons Ratio (x) = 0.52694 0.10752
# Poissons Ratio (y) = 0.52694 0.10752
# Poissons Ratio (z) = 0.27658 0.27658
#
# Static dielectric constant tensor:
#      x y z
#    x 3.326430 0.000000 0.000000 
#    y 0.000000 3.326430 0.000000 
#    z 0.000000 0.000000 3.182160 
# 
# 
# High freq. dielectric constant tensor:
#      x y z
#    x 1.639730 0.000000 0.000000 
#    y 0.000000 1.639730 0.000000 
#    z 0.000000 0.000000 1.655090 
# 
# From -- ./inp_files/1160.got.cif
#   From: 2010.03.12/outbox.cif.g09.slc.cpg/sg175_1_cif.got.tgz:1160.got - 2010.04.02 06:55:29.
