data_PCOD8325159
_publ_section_title
;
Structure prediction by ZEFSAII (Michael W. Deem and Ramdas Pophale) SiO2 
 PCOD8325159
Probable space group: P 6/M
;
_chemical_formula_sum "Si O2"
_cell_formula_units_Z 66
_cell_length_a 21.552159
_cell_length_b 21.552159
_cell_length_c 7.844663
_cell_angle_alpha 90.000000
_cell_angle_beta 90.000000
_cell_angle_gamma 120.000000
_cell_volume 3155.632991
_symmetry_space_group_name_H-M "P 6/M"
_symmetry_group_IT_number 175
_symmetry_cell_setting 'hexagonal'
loop_
_space_group_symop_operation_xyz
x,y,z
x-y,x,z
-y,x-y,z
-x,-y,z
-x+y,-x,z
y,-x+y,z
-x,-y,-z
-x+y,-x,-z
y,-x+y,-z
x,y,-z
x-y,x,-z
-y,x-y,-z
loop_
_atom_site_type_symbol
_atom_site_label
_atom_site_fract_x
_atom_site_fract_y
_atom_site_fract_z
Si Si1 0.811658 0.343487 0.702374
Si Si2 0.903498 0.831686 0.500000
Si Si3 0.690804 0.620382 0.194624
Si Si4 0.800922 0.477240 0.702818
Si Si5 0.715263 0.083707 0.693315
Si Si6 0.722413 0.868946 0.193550
O O1 0.811690 0.342775 0.500000
O O2 0.882983 0.346423 0.769002
O O3 0.810749 0.412849 0.775512
O O4 0.741709 0.273148 0.773179
O O5 0.875258 0.886877 0.500000
O O6 0.875689 0.785819 0.327416
O O7 0.651059 0.652706 0.304531
O O8 0.774444 0.658857 0.243179
O O9 0.680314 0.633947 0.000000
O O10 0.800152 0.474201 0.500000
O O11 0.866241 0.552301 0.770097
O O12 0.741071 0.106962 0.500000
O O13 0.783602 0.093222 0.797821
O O14 0.750723 0.894279 0.000000
#
# Coordination Sequence:
#
# PCOD8325159 Si02
#       6
#    12   6  12  12  12  12
#     4  10  19  37  61  87 121 162 211 264 318 384
#     4  12  27  46  72 102 136 176 220 268 328 398
#     4  11  24  39  59  90 125 164 208 263 325 380
#     4   9  19  34  59  90 119 158 209 262 318 379
#     4  11  21  37  63  94 124 161 211 265 321 380
#     4  11  24  43  67  98 133 170 218 270 324 389
#
# _framework density 20.914978999999999
#
# number of rings (size 3 to 8) (size 9 to 14) (size 15 to 20)
#    0.000    1.455    2.727    2.636    2.545    4.364 
#    0.000    6.364    0.000    1.091    0.000    0.000 
#    0.000    0.000    0.000    0.000    0.000    0.000 
#
# Total GULP energy -818665.501050 kJ/mol
# GULP energy per Si atom -12404.022743 kJ/mol
# Density = 2.086738 g / cm^3
# Si number density = 20.914979 Si / 1000 Ang^3
#
#
#
# Elastic Constant Matrix: (Units=GPa)
#
#
# Indices 1 2 3 4 5 6 
#
# 1 108.4329 28.2385 31.2561 0.0000 0.0000 0.0000
# 2 28.2385 108.4329 31.2561 0.0000 0.0000 0.0000
# 3 31.2561 31.2561 74.5273 0.0000 0.0000 0.0000
# 4 0.0000 0.0000 0.0000 16.7217 0.0000 0.0000
# 5 0.0000 0.0000 0.0000 0.0000 16.7217 0.0000
# 6 0.0000 0.0000 0.0000 0.0000 0.0000 40.0972
#
#
#
# Elastic Compliance Matrix: (Units=1/GPa)
#
#
# Indices 1 2 3 4 5 6 
#
# 1 0.010762 -0.001708 -0.003797 0.000000 0.000000 0.000000
# 2 -0.001708 0.010762 -0.003797 0.000000 0.000000 0.000000
# 3 -0.003797 -0.003797 0.016603 0.000000 0.000000 0.000000
# 4 0.000000 0.000000 0.000000 0.059803 0.000000 0.000000
# 5 0.000000 0.000000 0.000000 0.000000 0.059803 0.000000
# 6 0.000000 0.000000 0.000000 0.000000 0.000000 0.024939
#
#
# Mechanical properties :
#
#
# Convention : Reuss Voigt Hill
#
# Bulk Modulus (GPa) = 51.22452 52.54384 51.88418
# Shear Modulus (GPa) = 24.06368 28.08426 26.07397
#
# Velocity S-wave (km/s) = 3.39565 3.66837 3.53464
# Velocity P-wave (km/s) = 6.31814 6.56656 6.44355
#
# Compressibility (1/GPa) = 0.01952190
#
# Stress axis : x y z
#
# Youngs Moduli (GPa) = 92.92291 92.92291 60.23104
#
# Poissons Ratio (x) = 0.15872 0.22870
# Poissons Ratio (y) = 0.15872 0.22870
# Poissons Ratio (z) = 0.35283 0.35283
#
# Static dielectric constant tensor:
#      x y z
#    x 3.835080 0.000000 0.000000 
#    y 0.000000 3.835080 0.000000 
#    z 0.000000 0.000000 3.566260 
# 
# 
# High freq. dielectric constant tensor:
#      x y z
#    x 1.822640 0.000000 0.000000 
#    y 0.000000 1.822640 0.000000 
#    z 0.000000 0.000000 1.807540 
# 
# From -- ./inp_files/1034.got.cif
#   From: 2010.03.12/outbox.cif.g09.slc.cpg/sg175_1_cif.got.tgz:1034.got - 2010.04.02 06:55:29.
