data_PCOD8325937
_publ_section_title
;
Structure prediction by ZEFSAII (Michael W. Deem and Ramdas Pophale) SiO2 
 PCOD8325937
Probable space group: P 61 2 2
;
_chemical_formula_sum "Si O2"
_cell_formula_units_Z 60
_cell_length_a 14.513319
_cell_length_b 14.513319
_cell_length_c 14.067771
_cell_angle_alpha 90.000000
_cell_angle_beta 90.000000
_cell_angle_gamma 120.000000
_cell_volume 2566.193520
_symmetry_space_group_name_H-M "P 61 2 2"
_symmetry_group_IT_number 178
_symmetry_cell_setting 'hexagonal'
loop_
_space_group_symop_operation_xyz
x,y,z
x-y,x,1/6+z
-y,x-y,1/3+z
-x,-y,1/2+z
-x+y,-x,2/3+z
y,-x+y,5/6+z
x-y,-y,-z
-x,-x+y,2/3-z
y,x,1/3-z
-y,-x,5/6-z
-x+y,y,1/2-z
x,x-y,1/6-z
loop_
_atom_site_type_symbol
_atom_site_label
_atom_site_fract_x
_atom_site_fract_y
_atom_site_fract_z
Si Si1 0.887739 0.884031 0.862362
Si Si2 0.714636 0.066472 0.908876
Si Si3 0.716524 0.250713 0.306942
Si Si4 0.069455 0.570214 0.743801
Si Si5 0.297563 0.330327 0.379811
O O1 0.887515 0.986794 0.812644
O O2 0.785374 0.776056 0.823570
O O3 0.000000 0.890223 0.833334
O O4 0.812134 0.187866 0.916667
O O5 0.600769 0.057496 0.895191
O O6 0.718798 0.003760 0.817847
O O7 0.714815 0.000000 0.000000
O O8 0.716350 0.283651 0.416667
O O9 0.607698 0.215396 0.250000
O O10 0.806265 0.353296 0.255486
O O11 0.743667 0.157322 0.295490
O O12 0.000000 0.569720 0.833334
O O13 0.031912 0.612605 0.655028
#
# Coordination Sequence:
#
# PCOD8325937 Si02
#       5
#    12  12  12  12  12
#     4  10  24  45  71 106 147 195 251 312 374 444
#     4  11  28  50  73 108 152 198 258 317 396 475
#     4  12  27  44  75 112 152 189 250 314 388 462
#     4  11  24  46  77 107 145 192 249 312 378 463
#     4  12  26  48  75 108 147 202 252 315 384 466
#
# _framework density 23.380934
#
# number of rings (size 3 to 8) (size 9 to 14) (size 15 to 20)
#    0.000    0.800    2.000    3.600   11.200    4.800 
#    7.200    0.000    0.000    0.000    0.000    0.000 
#    0.000    0.000    0.000    0.000    0.000    0.000 
#
# Total GULP energy -743369.488385 kJ/mol
# GULP energy per Si atom -12389.491473 kJ/mol
# Density = 2.332772 g / cm^3
# Si number density = 23.380934 Si / 1000 Ang^3
#
#
#
# Elastic Constant Matrix: (Units=GPa)
#
#
# Indices 1 2 3 4 5 6 
#
# 1 107.5994 16.6301 29.6508 0.0000 0.0000 0.0000
# 2 16.6301 107.5994 29.6508 0.0000 0.0000 0.0000
# 3 29.6508 29.6508 125.9647 0.0000 0.0000 0.0000
# 4 0.0000 0.0000 0.0000 30.7865 0.0000 0.0000
# 5 0.0000 0.0000 0.0000 0.0000 30.7865 0.0000
# 6 0.0000 0.0000 0.0000 0.0000 0.0000 45.4846
#
#
#
# Elastic Compliance Matrix: (Units=1/GPa)
#
#
# Indices 1 2 3 4 5 6 
#
# 1 0.010031 -0.000962 -0.002135 0.000000 0.000000 0.000000
# 2 -0.000962 0.010031 -0.002135 0.000000 0.000000 0.000000
# 3 -0.002135 -0.002135 0.008944 0.000000 0.000000 0.000000
# 4 0.000000 0.000000 0.000000 0.032482 0.000000 0.000000
# 5 0.000000 0.000000 0.000000 0.000000 0.032482 0.000000
# 6 0.000000 0.000000 0.000000 0.000000 0.000000 0.021985
#
#
# Mechanical properties :
#
#
# Convention : Reuss Voigt Hill
#
# Bulk Modulus (GPa) = 53.93083 54.78076 54.35580
# Shear Modulus (GPa) = 37.70813 39.09366 38.40090
#
# Velocity S-wave (km/s) = 4.02029 4.09348 4.05705
# Velocity P-wave (km/s) = 6.68330 6.76925 6.72641
#
# Compressibility (1/GPa) = 0.01854227
#
# Stress axis : x y z
#
# Youngs Moduli (GPa) = 99.69430 99.69430 111.81073
#
# Poissons Ratio (x) = 0.09591 0.23868
# Poissons Ratio (y) = 0.09591 0.23868
# Poissons Ratio (z) = 0.21281 0.21281
#
# Static dielectric constant tensor:
#      x y z
#    x 4.538930 0.000000 0.000000 
#    y 0.000000 4.538930 0.000000 
#    z 0.000000 0.000000 4.660760 
# 
# 
# High freq. dielectric constant tensor:
#      x y z
#    x 1.930840 0.000000 0.000000 
#    y 0.000000 1.930840 0.000000 
#    z 0.000000 0.000000 1.933900 
# 
# From -- ./inp_files/5701.got.cif
#   From: 2010.03.12/outbox.cif.g09.slc.cpg/sg178_3_cif.got.tgz:5701.got - 2010.04.02 07:02:38.
