data_PCOD8325111
_publ_section_title
;
Structure prediction by ZEFSAII (Michael W. Deem and Ramdas Pophale) SiO2 
 PCOD8325111
Probable space group: P 6/M
;
_chemical_formula_sum "Si O2"
_cell_formula_units_Z 84
_cell_length_a 23.715173
_cell_length_b 23.715173
_cell_length_c 9.461649
_cell_angle_alpha 90.000000
_cell_angle_beta 90.000000
_cell_angle_gamma 120.000000
_cell_volume 4608.398843
_symmetry_space_group_name_H-M "P 6/M"
_symmetry_group_IT_number 175
_symmetry_cell_setting 'hexagonal'
loop_
_space_group_symop_operation_xyz
x,y,z
x-y,x,z
-y,x-y,z
-x,-y,z
-x+y,-x,z
y,-x+y,z
-x,-y,-z
-x+y,-x,-z
y,-x+y,-z
x,y,-z
x-y,x,-z
-y,x-y,-z
loop_
_atom_site_type_symbol
_atom_site_label
_atom_site_fract_x
_atom_site_fract_y
_atom_site_fract_z
Si Si1 0.568631 0.506918 0.834746
Si Si2 0.271083 0.754424 0.336519
Si Si3 0.050261 0.276504 0.168018
Si Si4 0.420500 0.814796 0.336849
Si Si5 0.800530 0.190513 0.167537
Si Si6 0.114549 0.976760 0.831458
Si Si7 0.940185 0.304728 0.167580
O O1 0.500000 0.500000 0.798703
O O2 0.569007 0.448043 0.755795
O O3 0.626428 0.576392 0.778600
O O4 0.577296 0.499471 0.000000
O O5 0.260178 0.764497 0.500000
O O6 0.344232 0.771485 0.307424
O O7 0.225694 0.680289 0.288459
O O8 0.255053 0.800602 0.242061
O O9 0.121870 0.330347 0.217670
O O10 0.034610 0.206480 0.227522
O O11 0.997628 0.294360 0.230445
O O12 0.046386 0.273666 0.000000
O O13 0.434860 0.834927 0.500000
O O14 0.871032 0.246559 0.220513
O O15 0.792477 0.192910 0.000000
O O16 0.045595 0.919521 0.773947
O O17 0.114519 0.976285 0.000000
O O18 0.943249 0.303970 0.000000
#
# Coordination Sequence:
#
# PCOD8325111 Si02
#       7
#    12  12  12  12  12  12  12
#     4  10  21  35  53  77 107 140 174 217 263 307
#     4  10  21  37  56  77 101 131 167 211 261 311
#     4   9  17  27  44  69  98 132 170 210 254 305
#     4  10  21  38  58  78 103 136 173 214 263 320
#     4  10  19  32  53  77 101 134 174 214 254 304
#     4   9  15  23  36  59  93 133 173 211 250 294
#     4   9  17  31  47  70 102 132 167 211 256 302
#
# _framework density 18.227588000000001
#
# number of rings (size 3 to 8) (size 9 to 14) (size 15 to 20)
#    0.000    2.429    1.429    1.286    2.000    6.000 
#    0.000    0.000    0.000    2.571    0.000    0.000 
#    0.000    0.000    0.000    0.286    0.000    5.286 
#
# Total GULP energy -1041728.601272 kJ/mol
# GULP energy per Si atom -12401.530968 kJ/mol
# Density = 1.818610 g / cm^3
# Si number density = 18.227588 Si / 1000 Ang^3
#
#
#
# Elastic Constant Matrix: (Units=GPa)
#
#
# Indices 1 2 3 4 5 6 
#
# 1 119.4915 45.8472 28.4163 0.0000 0.0000 0.0000
# 2 45.8472 119.4915 28.4163 0.0000 0.0000 0.0000
# 3 28.4163 28.4163 23.8369 0.0000 0.0000 0.0000
# 4 0.0000 0.0000 0.0000 16.8430 0.0000 0.0000
# 5 0.0000 0.0000 0.0000 0.0000 16.8430 0.0000
# 6 0.0000 0.0000 0.0000 0.0000 0.0000 36.8222
#
#
#
# Elastic Compliance Matrix: (Units=1/GPa)
#
#
# Indices 1 2 3 4 5 6 
#
# 1 0.011913 -0.001666 -0.012216 0.000000 0.000000 0.000000
# 2 -0.001666 0.011913 -0.012216 0.000000 0.000000 0.000000
# 3 -0.012216 -0.012216 0.071077 0.000000 0.000000 0.000000
# 4 0.000000 0.000000 0.000000 0.059372 0.000000 0.000000
# 5 0.000000 0.000000 0.000000 0.000000 0.059372 0.000000
# 6 0.000000 0.000000 0.000000 0.000000 0.000000 0.027158
#
#
# Mechanical properties :
#
#
# Convention : Reuss Voigt Hill
#
# Bulk Modulus (GPa) = 23.41470 52.01995 37.71733
# Shear Modulus (GPa) = 16.27419 24.77766 20.52592
#
# Velocity S-wave (km/s) = 2.99127 3.69094 3.35937
# Velocity P-wave (km/s) = 4.98035 6.83850 5.98202
#
# Compressibility (1/GPa) = 0.04270821
#
# Stress axis : x y z
#
# Youngs Moduli (GPa) = 83.94203 83.94203 14.06922
#
# Poissons Ratio (x) = 0.13983 0.17187
# Poissons Ratio (y) = 0.13983 0.17187
# Poissons Ratio (z) = 1.02542 1.02542
#
# Static dielectric constant tensor:
#      x y z
#    x 3.537540 0.000000 0.000000 
#    y 0.000000 3.537540 0.000000 
#    z 0.000000 0.000000 2.821830 
# 
# 
# High freq. dielectric constant tensor:
#      x y z
#    x 1.721900 0.000000 0.000000 
#    y 0.000000 1.721900 0.000000 
#    z 0.000000 0.000000 1.646410 
# 
# From -- ./inp_files/1976.got.cif
#   From: 2010.03.12/outbox.cif.g09.slc.cpg/sg175_1_cif.got.tgz:1976.got - 2010.04.02 06:55:29.
