data_PCOD8325335
_publ_section_title
;
Structure prediction by ZEFSAII (Michael W. Deem and Ramdas Pophale) SiO2 
 PCOD8325335
Probable space group: P 6/M
;
_chemical_formula_sum "Si O2"
_cell_formula_units_Z 60
_cell_length_a 15.663877
_cell_length_b 15.663877
_cell_length_c 13.797078
_cell_angle_alpha 90.000000
_cell_angle_beta 90.000000
_cell_angle_gamma 120.000000
_cell_volume 2931.678078
_symmetry_space_group_name_H-M "P 6/M"
_symmetry_group_IT_number 175
_symmetry_cell_setting 'hexagonal'
loop_
_space_group_symop_operation_xyz
x,y,z
x-y,x,z
-y,x-y,z
-x,-y,z
-x+y,-x,z
y,-x+y,z
-x,-y,-z
-x+y,-x,-z
y,-x+y,-z
x,y,-z
x-y,x,-z
-y,x-y,-z
loop_
_atom_site_type_symbol
_atom_site_label
_atom_site_fract_x
_atom_site_fract_y
_atom_site_fract_z
Si Si1 0.039025 0.217003 0.500000
Si Si2 0.261280 0.351910 0.812109
Si Si3 0.663101 0.439666 0.218612
Si Si4 0.428108 0.884827 0.389005
Si Si5 0.061098 0.836704 0.000000
Si Si6 0.256102 0.904586 0.315901
O O1 0.119745 0.184790 0.500000
O O2 0.045533 0.276970 0.404131
O O3 0.325387 0.468270 0.844267
O O4 0.332771 0.317772 0.766094
O O5 0.181083 0.338879 0.732466
O O6 0.210102 0.289621 0.906060
O O7 0.568440 0.330343 0.198447
O O8 0.644525 0.462501 0.329427
O O9 0.431509 0.858349 0.500000
O O10 0.318471 0.857139 0.357598
O O11 0.500000 0.000000 0.368017
O O12 0.952307 0.819080 0.000000
#
# Coordination Sequence:
#
# PCOD8325335 Si02
#       6
#     6  12  12  12   6  12
#     4  12  25  38  57  90 126 176 218 258 323 418
#     4  12  24  43  69  95 131 172 220 284 346 406
#     4  10  22  40  63  93 133 180 217 275 335 389
#     4  11  22  35  60  98 135 179 232 277 321 395
#     4  12  27  48  76 108 130 168 231 294 360 418
#     4  12  22  39  65  91 131 173 216 269 336 399
#
# _framework density 20.466094999999999
#
# number of rings (size 3 to 8) (size 9 to 14) (size 15 to 20)
#    0.400    0.200    9.000    0.200    0.000    0.800 
#    1.800    1.000    0.000    2.400    0.000    0.000 
#    0.000    0.000    0.000    0.000    0.000    0.000 
#
# Total GULP energy -743543.518186 kJ/mol
# GULP energy per Si atom -12392.391970 kJ/mol
# Density = 2.041951 g / cm^3
# Si number density = 20.466095 Si / 1000 Ang^3
#
#
#
# Elastic Constant Matrix: (Units=GPa)
#
#
# Indices 1 2 3 4 5 6 
#
# 1 91.4965 33.2118 27.6540 0.0000 0.0000 0.0000
# 2 33.2118 91.4965 27.6540 0.0000 0.0000 0.0000
# 3 27.6540 27.6540 78.5732 0.0000 0.0000 0.0000
# 4 0.0000 0.0000 0.0000 105.0240 0.0000 0.0000
# 5 0.0000 0.0000 0.0000 0.0000 105.0240 0.0000
# 6 0.0000 0.0000 0.0000 0.0000 0.0000 29.1423
#
#
#
# Elastic Compliance Matrix: (Units=1/GPa)
#
#
# Indices 1 2 3 4 5 6 
#
# 1 0.013330 -0.003828 -0.003344 0.000000 0.000000 0.000000
# 2 -0.003828 0.013330 -0.003344 0.000000 0.000000 0.000000
# 3 -0.003344 -0.003344 0.015081 0.000000 0.000000 0.000000
# 4 0.000000 0.000000 0.000000 0.009522 0.000000 0.000000
# 5 0.000000 0.000000 0.000000 0.000000 0.009522 0.000000
# 6 0.000000 0.000000 0.000000 0.000000 0.000000 0.034314
#
#
# Mechanical properties :
#
#
# Convention : Reuss Voigt Hill
#
# Bulk Modulus (GPa) = 48.29072 48.73396 48.51234
# Shear Modulus (GPa) = 40.63973 59.37449 50.00711
#
# Velocity S-wave (km/s) = 4.46096 5.39204 4.94845
# Velocity P-wave (km/s) = 7.08381 7.91386 7.51031
#
# Compressibility (1/GPa) = 0.02070791
#
# Stress axis : x y z
#
# Youngs Moduli (GPa) = 75.02149 75.02149 66.30877
#
# Poissons Ratio (x) = 0.28716 0.22175
# Poissons Ratio (y) = 0.28716 0.22175
# Poissons Ratio (z) = 0.25089 0.25089
#
# Static dielectric constant tensor:
#      x y z
#    x 3.861040 0.000000 0.000000 
#    y 0.000000 3.861040 0.000000 
#    z 0.000000 0.000000 3.501920 
# 
# 
# High freq. dielectric constant tensor:
#      x y z
#    x 1.813000 0.000000 0.000000 
#    y 0.000000 1.813000 0.000000 
#    z 0.000000 0.000000 1.773950 
# 
# From -- ./inp_files/1850.got.cif
#   From: 2010.03.12/outbox.cif.g09.slc.cpg/sg175_1_cif.got.tgz:1850.got - 2010.04.02 06:55:29.
