data_PCOD8325104
_publ_section_title
;
Structure prediction by ZEFSAII (Michael W. Deem and Ramdas Pophale) SiO2 
 PCOD8325104
Probable space group: P 6/M
;
_chemical_formula_sum "Si O2"
_cell_formula_units_Z 74
_cell_length_a 12.706570
_cell_length_b 12.706570
_cell_length_c 28.368513
_cell_angle_alpha 90.000000
_cell_angle_beta 90.000000
_cell_angle_gamma 120.000000
_cell_volume 3966.649893
_symmetry_space_group_name_H-M "P 6/M"
_symmetry_group_IT_number 175
_symmetry_cell_setting 'hexagonal'
loop_
_space_group_symop_operation_xyz
x,y,z
x-y,x,z
-y,x-y,z
-x,-y,z
-x+y,-x,z
y,-x+y,z
-x,-y,-z
-x+y,-x,-z
y,-x+y,-z
x,y,-z
x-y,x,-z
-y,x-y,-z
loop_
_atom_site_type_symbol
_atom_site_label
_atom_site_fract_x
_atom_site_fract_y
_atom_site_fract_z
Si Si1 0.265977 0.232539 0.332559
Si Si2 0.249447 0.004144 0.129013
Si Si3 0.555296 0.915187 0.051766
Si Si4 0.666668 0.333334 0.556869
Si Si5 0.642182 0.083047 0.416294
Si Si6 0.666667 0.333334 0.943863
Si Si7 0.737403 0.774004 0.500000
Si Si8 0.013765 0.250481 0.230118
O O1 0.142198 0.236613 0.341196
O O2 0.377576 0.320760 0.365567
O O3 0.317987 0.290299 0.280124
O O4 0.232828 0.119502 0.123383
O O5 0.335450 0.010053 0.087359
O O6 0.304848 0.993334 0.180438
O O7 0.455723 0.785479 0.074248
O O8 0.500000 0.000000 0.043059
O O9 0.599478 0.895354 0.000000
O O10 0.666667 0.333334 0.500000
O O11 0.541348 0.317427 0.576900
O O12 0.500000 0.000000 0.423886
O O13 0.707296 0.043397 0.454002
O O14 0.666667 0.333334 0.000000
O O15 0.771789 0.911503 0.500000
O O16 0.120880 0.222842 0.229735
#
# Coordination Sequence:
#
# PCOD8325104 Si02
#       8
#    12  12  12   4  12   4   6  12
#     4  10  19  35  58  86 114 142 180 227 278 328
#     4  10  19  32  51  78 109 141 176 217 271 332
#     4  10  20  34  52  73 100 137 183 233 281 333
#     4  12  24  42  63  84 115 158 196 231 268 326
#     4  12  25  40  60  84 112 150 192 230 270 320
#     4   9  18  33  51  72 100 140 187 234 282 337
#     4  12  24  40  60  86 115 142 174 218 272 324
#     4   8  15  28  50  77 107 140 176 218 266 321
#
# _framework density 18.655540999999999
#
# number of rings (size 3 to 8) (size 9 to 14) (size 15 to 20)
#    0.000    1.784    0.811    4.703    0.000    4.541 
#    0.000    2.432    0.000    0.973    0.000    4.541 
#    0.000    0.000    0.000    0.000    0.000    0.000 
#
# Total GULP energy -916728.966951 kJ/mol
# GULP energy per Si atom -12388.229283 kJ/mol
# Density = 1.861308 g / cm^3
# Si number density = 18.655541 Si / 1000 Ang^3
#
#
#
# Elastic Constant Matrix: (Units=GPa)
#
#
# Indices 1 2 3 4 5 6 
#
# 1 90.5579 34.9684 57.0190 0.0000 0.0000 -0.0002
# 2 34.9684 90.5586 57.0190 0.0000 0.0000 -0.0001
# 3 57.0190 57.0190 155.9693 0.0000 0.0000 0.0000
# 4 0.0000 0.0000 0.0000 27.9568 0.0002 0.0000
# 5 0.0000 0.0000 0.0000 0.0002 27.9567 0.0000
# 6 -0.0002 -0.0001 0.0000 0.0000 0.0000 27.7953
#
#
#
# Elastic Compliance Matrix: (Units=1/GPa)
#
#
# Indices 1 2 3 4 5 6 
#
# 1 0.014958 -0.003030 -0.004361 0.000000 0.000000 0.000000
# 2 -0.003030 0.014958 -0.004361 0.000000 0.000000 0.000000
# 3 -0.004361 -0.004361 0.009600 0.000000 0.000000 0.000000
# 4 0.000000 0.000000 0.000000 0.035769 0.000000 0.000000
# 5 0.000000 0.000000 0.000000 0.000000 0.035770 0.000000
# 6 0.000000 0.000000 0.000000 0.000000 0.000000 0.035977
#
#
# Mechanical properties :
#
#
# Convention : Reuss Voigt Hill
#
# Bulk Modulus (GPa) = 62.44817 70.56653 66.50735
# Shear Modulus (GPa) = 28.42943 29.28039 28.85491
#
# Velocity S-wave (km/s) = 3.90797 3.96602 3.93710
# Velocity P-wave (km/s) = 7.34234 7.67337 7.50968
#
# Compressibility (1/GPa) = 0.01601328
#
# Stress axis : x y z
#
# Youngs Moduli (GPa) = 66.85168 66.85234 104.16891
#
# Poissons Ratio (x) = 0.20260 0.45424
# Poissons Ratio (y) = 0.20259 0.45424
# Poissons Ratio (z) = 0.29151 0.29151
#
# Static dielectric constant tensor:
#      x y z
#    x 3.396640 0.000000 0.000000 
#    y 0.000000 3.396630 0.000000 
#    z 0.000000 0.000000 4.187660 
# 
# 
# High freq. dielectric constant tensor:
#      x y z
#    x 1.715820 0.000000 0.000000 
#    y 0.000000 1.715820 0.000000 
#    z 0.000000 0.000000 1.739100 
# 
# From -- ./inp_files/3396.got.cif
#   From: 2010.03.12/outbox.cif.g09.slc.cpg/sg175_2_cif.got.tgz:3396.got - 2010.04.02 06:55:29.
