data_PCOD8325520
_publ_section_title
;
Structure prediction by ZEFSAII (Michael W. Deem and Ramdas Pophale) SiO2 
 PCOD8325520
Probable space group: P 63/M
;
_chemical_formula_sum "Si O2"
_cell_formula_units_Z 48
_cell_length_a 17.721714
_cell_length_b 17.721714
_cell_length_c 8.551923
_cell_angle_alpha 90.000000
_cell_angle_beta 90.000000
_cell_angle_gamma 120.000000
_cell_volume 2325.979381
_symmetry_space_group_name_H-M "P 63/M"
_symmetry_group_IT_number 176
_symmetry_cell_setting 'hexagonal'
loop_
_space_group_symop_operation_xyz
x,y,z
x-y,x,1/2+z
-y,x-y,z
-x,-y,1/2+z
-x+y,-x,z
y,-x+y,1/2+z
-x,-y,-z
-x+y,-x,1/2-z
y,-x+y,-z
x,y,1/2-z
x-y,x,-z
-y,x-y,1/2-z
loop_
_atom_site_type_symbol
_atom_site_label
_atom_site_fract_x
_atom_site_fract_y
_atom_site_fract_z
Si Si1 0.019123 0.843733 0.066669
Si Si2 0.510170 0.683549 0.434829
Si Si3 0.670557 0.996608 0.565898
Si Si4 0.152353 0.649266 0.063358
O O1 0.020476 0.854951 0.250000
O O2 0.032011 0.763010 0.024550
O O3 0.929591 0.830246 0.001457
O O4 0.504116 0.680302 0.250000
O O5 0.601886 0.694857 0.490395
O O6 0.502820 0.764780 0.497575
O O7 0.429912 0.594014 0.498602
O O8 0.684911 0.993977 0.750000
O O9 0.571115 0.932864 0.520557
O O10 0.141649 0.648825 0.250000
#
# Coordination Sequence:
#
# PCOD8325520 Si02
#       4
#    12  12  12  12
#     4  12  25  43  65  91 121 157 197 242 292 349
#     4   9  19  34  57  84 112 146 195 249 301 357
#     4  11  22  37  56  86 122 157 196 243 294 354
#     4  10  19  36  59  83 111 152 199 250 306 362
#
# _framework density 20.636468000000001
#
# number of rings (size 3 to 8) (size 9 to 14) (size 15 to 20)
#    0.000    1.500    0.000    6.000    0.000    4.000 
#    0.000    3.750    0.000    0.000    0.000    0.000 
#    0.000    0.000    0.000    0.000    0.000    0.000 
#
# Total GULP energy -595446.634945 kJ/mol
# GULP energy per Si atom -12405.138228 kJ/mol
# Density = 2.058950 g / cm^3
# Si number density = 20.636468 Si / 1000 Ang^3
#
#
#
# Elastic Constant Matrix: (Units=GPa)
#
#
# Indices 1 2 3 4 5 6 
#
# 1 90.8638 0.6272 22.2696 0.0000 0.0000 0.0000
# 2 0.6272 90.8638 22.2696 0.0000 0.0000 0.0000
# 3 22.2696 22.2696 85.4580 0.0000 0.0000 0.0000
# 4 0.0000 0.0000 0.0000 -86.1978 0.0000 0.0000
# 5 0.0000 0.0000 0.0000 0.0000 -86.1978 0.0000
# 6 0.0000 0.0000 0.0000 0.0000 0.0000 45.1183
#
#
#
# Elastic Compliance Matrix: (Units=1/GPa)
#
#
# Indices 1 2 3 4 5 6 
#
# 1 0.011800 0.000718 -0.003262 0.000000 0.000000 0.000000
# 2 0.000718 0.011800 -0.003262 0.000000 0.000000 0.000000
# 3 -0.003262 -0.003262 0.013402 0.000000 0.000000 0.000000
# 4 0.000000 0.000000 0.000000 -0.011601 0.000000 0.000000
# 5 0.000000 0.000000 0.000000 0.000000 -0.011601 0.000000
# 6 0.000000 0.000000 0.000000 0.000000 0.000000 0.022164
#
#
# Mechanical properties :
#
#
# Convention : Reuss Voigt Hill
#
# Bulk Modulus (GPa) = 39.38628 39.72427 39.55527
# Shear Modulus (GPa) = 89.22386 -10.65415 39.28485
#
# Velocity S-wave (km/s) = 6.58254 -2.27464 4.36783
# Velocity P-wave (km/s) = 8.76929 3.52033 6.68181
#
# Compressibility (1/GPa) = 0.02538955
#
# Stress axis : x y z
#
# Youngs Moduli (GPa) = 84.74558 84.74558 74.61683
#
# Poissons Ratio (x) = -0.06085 0.24341
# Poissons Ratio (y) = -0.06085 0.24341
# Poissons Ratio (z) = 0.27645 0.27645
#
# Static dielectric constant tensor:
#      x y z
#    x 3.967870 0.000000 0.000000 
#    y 0.000000 3.967870 0.000000 
#    z 0.000000 0.000000 3.521040 
# 
# 
# High freq. dielectric constant tensor:
#      x y z
#    x 1.826370 0.000000 0.000000 
#    y 0.000000 1.826370 0.000000 
#    z 0.000000 0.000000 1.784220 
# 
# From -- ./inp_files/568.got.cif
#   From: 2010.06.25/outbox.cif.g09.slc.cpg/sg176_1_cif.got.tgz:568.got - 2010.06.28 12:15:01.
