data_PCOD8325639
_publ_section_title
;
Structure prediction by ZEFSAII (Michael W. Deem and Ramdas Pophale) SiO2 
 PCOD8325639
Probable space group: P 63/M
;
_chemical_formula_sum "Si O2"
_cell_formula_units_Z 54
_cell_length_a 11.565322
_cell_length_b 11.565322
_cell_length_c 22.435442
_cell_angle_alpha 90.000000
_cell_angle_beta 90.000000
_cell_angle_gamma 120.000000
_cell_volume 2598.847042
_symmetry_space_group_name_H-M "P 63/M"
_symmetry_group_IT_number 176
_symmetry_cell_setting 'hexagonal'
loop_
_space_group_symop_operation_xyz
x,y,z
x-y,x,1/2+z
-y,x-y,z
-x,-y,1/2+z
-x+y,-x,z
y,-x+y,1/2+z
-x,-y,-z
-x+y,-x,1/2-z
y,-x+y,-z
x,y,1/2-z
x-y,x,-z
-y,x-y,1/2-z
loop_
_atom_site_type_symbol
_atom_site_label
_atom_site_fract_x
_atom_site_fract_y
_atom_site_fract_z
Si Si1 0.598629 0.911263 0.184287
Si Si2 0.579118 0.642085 0.162002
Si Si3 0.521844 0.175216 0.250000
Si Si4 0.076110 0.406897 0.570210
Si Si5 0.079703 0.660173 0.547959
O O1 0.635868 0.978730 0.250000
O O2 0.627087 0.788507 0.187103
O O3 0.443545 0.862639 0.170414
O O4 0.683272 0.018195 0.133435
O O5 0.645278 0.561041 0.193170
O O6 0.619486 0.664443 0.092296
O O7 0.678985 0.209492 0.250000
O O8 0.141084 0.567752 0.570040
O O9 0.185033 0.368090 0.553838
O O10 0.960402 0.356591 0.520878
#
# Coordination Sequence:
#
# PCOD8325639 Si02
#       5
#    12  12   6  12  12
#     4  11  21  37  59  93 124 166 208 254 323 370
#     4  11  22  38  63  92 129 168 211 267 307 382
#     4  10  24  36  60 100 128 166 210 256 326 378
#     4  10  22  39  61  90 125 159 212 264 321 388
#     4  10  22  38  60  90 119 164 203 267 321 372
#
# _framework density 20.778445999999999
#
# number of rings (size 3 to 8) (size 9 to 14) (size 15 to 20)
#    0.222    1.333    2.222    2.222    6.222    0.000 
#    0.000    4.444    0.000    8.000    0.000    0.000 
#    0.000    0.000    0.000    0.000    0.000    0.000 
#
# Total GULP energy -669007.038575 kJ/mol
# GULP energy per Si atom -12389.019233 kJ/mol
# Density = 2.073115 g / cm^3
# Si number density = 20.778446 Si / 1000 Ang^3
#
#
#
# Elastic Constant Matrix: (Units=GPa)
#
#
# Indices 1 2 3 4 5 6 
#
# 1 85.4694 37.2915 34.0970 0.0000 0.0000 0.0000
# 2 37.2915 85.4694 34.0970 0.0000 0.0000 0.0000
# 3 34.0970 34.0970 149.4237 0.0000 0.0000 0.0000
# 4 0.0000 0.0000 0.0000 21.4340 0.0000 0.0000
# 5 0.0000 0.0000 0.0000 0.0000 21.4340 0.0000
# 6 0.0000 0.0000 0.0000 0.0000 0.0000 24.0890
#
#
#
# Elastic Compliance Matrix: (Units=1/GPa)
#
#
# Indices 1 2 3 4 5 6 
#
# 1 0.015042 -0.005714 -0.002129 0.000000 0.000000 0.000000
# 2 -0.005714 0.015042 -0.002129 0.000000 0.000000 0.000000
# 3 -0.002129 -0.002129 0.007664 0.000000 0.000000 0.000000
# 4 0.000000 0.000000 0.000000 0.046655 0.000000 0.000000
# 5 0.000000 0.000000 0.000000 0.000000 0.046655 0.000000
# 6 0.000000 0.000000 0.000000 0.000000 0.000000 0.041513
#
#
# Mechanical properties :
#
#
# Convention : Reuss Voigt Hill
#
# Bulk Modulus (GPa) = 56.16071 59.03704 57.59888
# Shear Modulus (GPa) = 25.19538 27.71653 26.45596
#
# Velocity S-wave (km/s) = 3.48598 3.65623 3.57212
# Velocity P-wave (km/s) = 6.57950 6.80429 6.69284
#
# Compressibility (1/GPa) = 0.01780604
#
# Stress axis : x y z
#
# Youngs Moduli (GPa) = 66.47888 66.47888 130.48280
#
# Poissons Ratio (x) = 0.37986 0.27775
# Poissons Ratio (y) = 0.37986 0.27775
# Poissons Ratio (z) = 0.14151 0.14151
#
# Static dielectric constant tensor:
#      x y z
#    x 3.459530 0.000000 0.000000 
#    y 0.000000 3.459530 0.000000 
#    z 0.000000 0.000000 4.030590 
# 
# 
# High freq. dielectric constant tensor:
#      x y z
#    x 1.788640 0.000000 0.000000 
#    y 0.000000 1.788640 0.000000 
#    z 0.000000 0.000000 1.841260 
# 
# From -- ./inp_files/4002.got.cif
#   From: 2010.06.25/outbox.cif.g09.slc.cpg/sg176_3_cif.got.tgz:4002.got - 2010.06.28 12:15:01.
