data_PCOD8325788
_publ_section_title
;
Structure prediction by ZEFSAII (Michael W. Deem and Ramdas Pophale) SiO2 
 PCOD8325788
Probable space group: P 61 2 2
;
_chemical_formula_sum "Si O2"
_cell_formula_units_Z 84
_cell_length_a 20.939578
_cell_length_b 20.939578
_cell_length_c 11.255208
_cell_angle_alpha 90.000000
_cell_angle_beta 90.000000
_cell_angle_gamma 120.000000
_cell_volume 4273.857198
_symmetry_space_group_name_H-M "P 61 2 2"
_symmetry_group_IT_number 178
_symmetry_cell_setting 'hexagonal'
loop_
_space_group_symop_operation_xyz
x,y,z
x-y,x,1/6+z
-y,x-y,1/3+z
-x,-y,1/2+z
-x+y,-x,2/3+z
y,-x+y,5/6+z
x-y,-y,-z
-x,-x+y,2/3-z
y,x,1/3-z
-y,-x,5/6-z
-x+y,y,1/2-z
x,x-y,1/6-z
loop_
_atom_site_type_symbol
_atom_site_label
_atom_site_fract_x
_atom_site_fract_y
_atom_site_fract_z
Si Si1 0.758123 0.000000 0.000000
Si Si2 0.090274 0.909727 0.416667
Si Si3 0.435028 0.920879 0.625388
Si Si4 0.149357 0.303636 0.113795
Si Si5 0.087718 0.129570 0.404616
Si Si6 0.639196 0.691465 0.351425
Si Si7 0.312322 0.366161 0.059549
Si Si8 0.521097 0.087635 0.878842
O O1 0.839535 0.072867 0.997637
O O2 0.712544 0.999489 0.888076
O O3 0.019222 0.890306 0.494615
O O4 0.441464 0.882927 0.750000
O O5 0.358767 0.921790 0.617400
O O6 0.431157 0.878501 0.500951
O O7 0.507231 0.001139 0.622476
O O8 0.163658 0.327316 0.250000
O O9 0.089746 0.217225 0.106264
O O10 0.123002 0.356874 0.059238
O O11 0.224216 0.324176 0.043728
O O12 0.096184 0.094183 0.279327
O O13 0.642797 0.641958 0.453305
O O14 0.326080 0.326080 0.166667
O O15 0.349936 0.454365 0.067875
O O16 0.561017 0.122034 0.750000
#
# Coordination Sequence:
#
# PCOD8325788 Si02
#       8
#     6   6  12  12  12  12  12  12
#     4  12  26  38  60  82 110 160 204 274 340 380
#     4  12  22  44  60  74 104 154 226 280 336 396
#     4  10  18  34  59  92 117 154 188 233 293 360
#     4  12  27  41  58  87 123 162 206 261 341 392
#     4  12  25  47  59  77 103 153 225 292 343 395
#     4  12  23  39  60  87 128 155 201 255 309 392
#     4  12  22  39  61  85 125 162 197 254 304 370
#     4  10  18  34  61  95 120 150 193 233 292 358
#
# _framework density 19.654377
#
# number of rings (size 3 to 8) (size 9 to 14) (size 15 to 20)
#    0.000    0.571    8.571    1.714    2.000    0.000 
#    6.429    0.000    0.000    0.000    0.000    0.000 
#    4.286    0.000    0.000    0.000    0.000    0.000 
#
# Total GULP energy -1040875.252025 kJ/mol
# GULP energy per Si atom -12391.372048 kJ/mol
# Density = 1.960964 g / cm^3
# Si number density = 19.654377 Si / 1000 Ang^3
#
#
#
# Elastic Constant Matrix: (Units=GPa)
#
#
# Indices 1 2 3 4 5 6 
#
# 1 98.6181 44.2825 29.5331 0.0000 0.0000 0.0000
# 2 44.2825 98.6181 29.5331 0.0000 0.0000 0.0000
# 3 29.5331 29.5331 121.1671 0.0000 0.0000 0.0000
# 4 0.0000 0.0000 0.0000 18.6697 0.0000 0.0000
# 5 0.0000 0.0000 0.0000 0.0000 18.6697 0.0000
# 6 0.0000 0.0000 0.0000 0.0000 0.0000 27.1678
#
#
#
# Elastic Compliance Matrix: (Units=1/GPa)
#
#
# Indices 1 2 3 4 5 6 
#
# 1 0.013093 -0.005311 -0.001897 0.000000 0.000000 0.000000
# 2 -0.005311 0.013093 -0.001897 0.000000 0.000000 0.000000
# 3 -0.001897 -0.001897 0.009178 0.000000 0.000000 0.000000
# 4 0.000000 0.000000 0.000000 0.053563 0.000000 0.000000
# 5 0.000000 0.000000 0.000000 0.000000 0.053563 0.000000
# 6 0.000000 0.000000 0.000000 0.000000 0.000000 0.036808
#
#
# Mechanical properties :
#
#
# Convention : Reuss Voigt Hill
#
# Bulk Modulus (GPa) = 58.29394 58.34455 58.31925
# Shear Modulus (GPa) = 24.60327 27.23839 25.92083
#
# Velocity S-wave (km/s) = 3.54191 3.72676 3.63551
# Velocity P-wave (km/s) = 6.81548 6.94752 6.88182
#
# Compressibility (1/GPa) = 0.01715444
#
# Stress axis : x y z
#
# Youngs Moduli (GPa) = 76.37663 76.37663 108.95996
#
# Poissons Ratio (x) = 0.40565 0.20667
# Poissons Ratio (y) = 0.40565 0.20667
# Poissons Ratio (z) = 0.14487 0.14487
#
# Static dielectric constant tensor:
#      x y z
#    x 3.456790 0.000000 0.000000 
#    y 0.000000 3.456790 0.000000 
#    z 0.000000 0.000000 12.791150 
# 
# 
# High freq. dielectric constant tensor:
#      x y z
#    x 1.735450 0.000000 0.000000 
#    y 0.000000 1.735450 0.000000 
#    z 0.000000 0.000000 1.800100 
# 
# From -- ./inp_files/4829.got.cif
#   From: 2010.03.12/outbox.cif.g09.slc.cpg/sg178_3_cif.got.tgz:4829.got - 2010.04.02 07:02:38.
