data_PCOD8325202
_publ_section_title
;
Structure prediction by ZEFSAII (Michael W. Deem and Ramdas Pophale) SiO2 
 PCOD8325202
Probable space group: P 6/M
;
_chemical_formula_sum "Si O2"
_cell_formula_units_Z 66
_cell_length_a 17.899410
_cell_length_b 17.899410
_cell_length_c 13.164039
_cell_angle_alpha 90.000000
_cell_angle_beta 90.000000
_cell_angle_gamma 120.000000
_cell_volume 3652.558867
_symmetry_space_group_name_H-M "P 6/M"
_symmetry_group_IT_number 175
_symmetry_cell_setting 'hexagonal'
loop_
_space_group_symop_operation_xyz
x,y,z
x-y,x,z
-y,x-y,z
-x,-y,z
-x+y,-x,z
y,-x+y,z
-x,-y,-z
-x+y,-x,-z
y,-x+y,-z
x,y,-z
x-y,x,-z
-y,x-y,-z
loop_
_atom_site_type_symbol
_atom_site_label
_atom_site_fract_x
_atom_site_fract_y
_atom_site_fract_z
Si Si1 0.496391 0.828976 0.120991
Si Si2 0.831407 0.000371 0.878653
Si Si3 0.667721 0.160209 0.811983
Si Si4 0.667418 0.663692 0.884722
Si Si5 0.226684 0.638672 0.500000
Si Si6 0.088881 0.508627 0.386720
O O1 0.408459 0.823275 0.155002
O O2 0.507551 0.756241 0.177822
O O3 0.574262 0.920362 0.161170
O O4 0.495323 0.816056 0.000000
O O5 0.831537 0.916089 0.837142
O O6 0.747491 0.000563 0.832613
O O7 0.832048 0.003108 0.000000
O O8 0.655610 0.123308 0.696754
O O9 0.668501 0.087969 0.882619
O O10 0.694591 0.664495 0.000000
O O11 0.265001 0.570618 0.500000
O O12 0.164347 0.610559 0.400356
O O13 0.074842 0.464763 0.500000
O O14 0.000000 0.500000 0.347119
#
# Coordination Sequence:
#
# PCOD8325202 Si02
#       6
#    12  12  12  12   6  12
#     4  11  23  35  51  74 102 136 177 224 259 305
#     4   9  16  27  46  70  96 126 163 207 252 300
#     4  12  23  35  55  75 101 138 181 219 268 318
#     4  10  20  35  50  69 101 139 173 208 260 320
#     4   8  17  30  56  80 106 132 168 226 275 323
#     4   9  20  36  53  76 107 137 171 218 274 329
#
# _framework density 18.069524000000001
#
# number of rings (size 3 to 8) (size 9 to 14) (size 15 to 20)
#    0.727    1.273    0.000    4.909    2.545    5.091 
#    0.000    0.000    0.000    0.000    0.000    0.000 
#    0.000    0.000    0.000    0.000    0.000    6.545 
#
# Total GULP energy -817701.834850 kJ/mol
# GULP energy per Si atom -12389.421740 kJ/mol
# Density = 1.802840 g / cm^3
# Si number density = 18.069524 Si / 1000 Ang^3
#
#
#
# Elastic Constant Matrix: (Units=GPa)
#
#
# Indices 1 2 3 4 5 6 
#
# 1 122.0159 56.4121 10.2639 0.0000 0.0000 0.0000
# 2 56.4121 122.0159 10.2639 0.0000 0.0000 0.0000
# 3 10.2639 10.2639 51.8963 0.0000 0.0000 0.0000
# 4 0.0000 0.0000 0.0000 15.7527 0.0000 0.0000
# 5 0.0000 0.0000 0.0000 0.0000 15.7527 0.0000
# 6 0.0000 0.0000 0.0000 0.0000 0.0000 32.8019
#
#
#
# Elastic Compliance Matrix: (Units=1/GPa)
#
#
# Indices 1 2 3 4 5 6 
#
# 1 0.010489 -0.004754 -0.001134 0.000000 0.000000 0.000000
# 2 -0.004754 0.010489 -0.001134 0.000000 0.000000 0.000000
# 3 -0.001134 -0.001134 0.019718 0.000000 0.000000 0.000000
# 4 0.000000 0.000000 0.000000 0.063481 0.000000 0.000000
# 5 0.000000 0.000000 0.000000 0.000000 0.063481 0.000000
# 6 0.000000 0.000000 0.000000 0.000000 0.000000 0.030486
#
#
# Mechanical properties :
#
#
# Convention : Reuss Voigt Hill
#
# Bulk Modulus (GPa) = 37.52230 49.97867 43.75048
# Shear Modulus (GPa) = 22.61701 27.46069 25.03885
#
# Velocity S-wave (km/s) = 3.54173 3.90259 3.72653
# Velocity P-wave (km/s) = 6.12664 6.93009 6.54071
#
# Compressibility (1/GPa) = 0.02665082
#
# Stress axis : x y z
#
# Youngs Moduli (GPa) = 95.33794 95.33794 50.71549
#
# Poissons Ratio (x) = 0.45324 0.05752
# Poissons Ratio (y) = 0.45324 0.05752
# Poissons Ratio (z) = 0.10814 0.10814
#
# Static dielectric constant tensor:
#      x y z
#    x 3.423190 0.000000 0.000000 
#    y 0.000000 3.423190 0.000000 
#    z 0.000000 0.000000 3.067650 
# 
# 
# High freq. dielectric constant tensor:
#      x y z
#    x 1.703160 0.000000 0.000000 
#    y 0.000000 1.703160 0.000000 
#    z 0.000000 0.000000 1.657760 
# 
# From -- ./inp_files/2492.got.cif
#   From: 2010.03.12/outbox.cif.g09.slc.cpg/sg175_2_cif.got.tgz:2492.got - 2010.04.02 06:55:29.
