data_PCOD8325051
_publ_section_title
;
Structure prediction by ZEFSAII (Michael W. Deem and Ramdas Pophale) SiO2 
 PCOD8325051
Probable space group: P 6/M
;
_chemical_formula_sum "Si O2"
_cell_formula_units_Z 60
_cell_length_a 15.017050
_cell_length_b 15.017050
_cell_length_c 13.592393
_cell_angle_alpha 90.000000
_cell_angle_beta 90.000000
_cell_angle_gamma 120.000000
_cell_volume 2654.579940
_symmetry_space_group_name_H-M "P 6/M"
_symmetry_group_IT_number 175
_symmetry_cell_setting 'hexagonal'
loop_
_space_group_symop_operation_xyz
x,y,z
x-y,x,z
-y,x-y,z
-x,-y,z
-x+y,-x,z
y,-x+y,z
-x,-y,-z
-x+y,-x,-z
y,-x+y,-z
x,y,-z
x-y,x,-z
-y,x-y,-z
loop_
_atom_site_type_symbol
_atom_site_label
_atom_site_fract_x
_atom_site_fract_y
_atom_site_fract_z
Si Si1 0.332425 0.901379 0.890422
Si Si2 0.148472 0.227038 0.311758
Si Si3 0.548833 0.795928 0.385384
Si Si4 0.096279 0.785653 0.889525
Si Si5 0.420938 0.885512 0.303220
O O1 0.213792 0.811755 0.876691
O O2 0.402820 0.883237 0.814151
O O3 0.348983 0.015059 0.870622
O O4 0.370415 0.896007 0.000000
O O5 0.187138 0.152321 0.352800
O O6 0.225314 0.339818 0.352424
O O7 0.148518 0.225665 0.192378
O O8 0.532741 0.804547 0.500000
O O9 0.463468 0.809178 0.326615
O O10 0.535571 0.685682 0.359703
O O11 0.080657 0.817357 0.000000
O O12 0.500000 0.000000 0.340811
#
# Coordination Sequence:
#
# PCOD8325051 Si02
#       5
#    12  12  12  12  12
#     4  10  21  39  68 104 146 190 231 279 341 417
#     4  12  24  42  67 102 141 185 229 283 346 416
#     4  12  27  48  72 100 135 178 235 300 360 419
#     4  10  18  34  64 100 140 187 230 273 334 404
#     4  12  26  46  74 105 138 181 231 289 353 421
#
# _framework density 22.602443999999998
#
# number of rings (size 3 to 8) (size 9 to 14) (size 15 to 20)
#    0.000    0.800    4.000    3.600    0.000    4.400 
#    0.000    2.000    0.000    2.400    0.000    0.000 
#    0.000    0.000    0.000    0.000    0.000    0.000 
#
# Total GULP energy -744176.238492 kJ/mol
# GULP energy per Si atom -12402.937308 kJ/mol
# Density = 2.255100 g / cm^3
# Si number density = 22.602444 Si / 1000 Ang^3
#
#
#
# Elastic Constant Matrix: (Units=GPa)
#
#
# Indices 1 2 3 4 5 6 
#
# 1 106.2966 30.0778 61.1427 0.0000 0.0000 0.0000
# 2 30.0778 106.2966 61.1427 0.0000 0.0000 0.0000
# 3 61.1427 61.1427 124.7893 0.0000 0.0000 0.0000
# 4 0.0000 0.0000 0.0000 17.2507 0.0000 0.0000
# 5 0.0000 0.0000 0.0000 0.0000 17.2507 0.0000
# 6 0.0000 0.0000 0.0000 0.0000 0.0000 38.1094
#
#
#
# Elastic Compliance Matrix: (Units=1/GPa)
#
#
# Indices 1 2 3 4 5 6 
#
# 1 0.013100 -0.000021 -0.006408 0.000000 0.000000 0.000000
# 2 -0.000021 0.013100 -0.006408 0.000000 0.000000 0.000000
# 3 -0.006408 -0.006408 0.014293 0.000000 0.000000 0.000000
# 4 0.000000 0.000000 0.000000 0.057969 0.000000 0.000000
# 5 0.000000 0.000000 0.000000 0.000000 0.057969 0.000000
# 6 0.000000 0.000000 0.000000 0.000000 0.000000 0.026240
#
#
# Mechanical properties :
#
#
# Convention : Reuss Voigt Hill
#
# Bulk Modulus (GPa) = 67.48522 71.34545 69.41533
# Shear Modulus (GPa) = 23.44297 26.85678 25.14987
#
# Velocity S-wave (km/s) = 3.22403 3.45080 3.33934
# Velocity P-wave (km/s) = 6.61676 6.89284 6.75621
#
# Compressibility (1/GPa) = 0.01481806
#
# Stress axis : x y z
#
# Youngs Moduli (GPa) = 76.33849 76.33849 69.96324
#
# Poissons Ratio (x) = 0.00157 0.44834
# Poissons Ratio (y) = 0.00157 0.44834
# Poissons Ratio (z) = 0.48920 0.48920
#
# Static dielectric constant tensor:
#      x y z
#    x 4.011360 0.000000 0.000000 
#    y 0.000000 4.011360 0.000000 
#    z 0.000000 0.000000 4.181240 
# 
# 
# High freq. dielectric constant tensor:
#      x y z
#    x 1.885830 0.000000 0.000000 
#    y 0.000000 1.885830 0.000000 
#    z 0.000000 0.000000 1.895140 
# 
# From -- ./inp_files/2376.got.cif
#   From: 2010.03.12/outbox.cif.g09.slc.cpg/sg175_2_cif.got.tgz:2376.got - 2010.04.02 06:55:29.
