data_PCOD8325005
_publ_section_title
;
Structure prediction by ZEFSAII (Michael W. Deem and Ramdas Pophale) SiO2 
 PCOD8325005
Probable space group: P 6/M
;
_chemical_formula_sum "Si O2"
_cell_formula_units_Z 84
_cell_length_a 22.582235
_cell_length_b 22.582235
_cell_length_c 12.903577
_cell_angle_alpha 90.000000
_cell_angle_beta 90.000000
_cell_angle_gamma 120.000000
_cell_volume 5698.684251
_symmetry_space_group_name_H-M "P 6/M"
_symmetry_group_IT_number 175
_symmetry_cell_setting 'hexagonal'
loop_
_space_group_symop_operation_xyz
x,y,z
x-y,x,z
-y,x-y,z
-x,-y,z
-x+y,-x,z
y,-x+y,z
-x,-y,-z
-x+y,-x,-z
y,-x+y,-z
x,y,-z
x-y,x,-z
-y,x-y,-z
loop_
_atom_site_type_symbol
_atom_site_label
_atom_site_fract_x
_atom_site_fract_y
_atom_site_fract_z
Si Si1 0.795604 0.470708 0.622915
Si Si2 0.342787 0.537816 0.623806
Si Si3 0.895945 0.053420 0.880007
Si Si4 0.386502 0.308147 0.621439
Si Si5 0.674198 0.600577 0.380338
Si Si6 0.732599 0.929713 0.382377
Si Si7 0.186192 0.931229 0.292783
O O1 0.793757 0.467210 0.500000
O O2 0.800262 0.406824 0.669026
O O3 0.727166 0.467684 0.665139
O O4 0.861887 0.540435 0.659404
O O5 0.345244 0.540473 0.500000
O O6 0.347477 0.473124 0.669576
O O7 0.849678 0.079314 0.819442
O O8 0.975648 0.101212 0.851494
O O9 0.882799 0.060119 0.000000
O O10 0.371979 0.284315 0.500000
O O11 0.384051 0.378347 0.634949
O O12 0.330653 0.252217 0.699822
O O13 0.686706 0.592759 0.500000
O O14 0.746432 0.659656 0.332815
O O15 0.732959 0.951840 0.500000
O O16 0.744725 0.866633 0.374758
O O17 0.794742 0.993143 0.325784
#
# Coordination Sequence:
#
# PCOD8325005 Si02
#       7
#    12  12  12  12  12  12  12
#     4   9  16  24  35  51  74 106 145 182 212 238
#     4   9  15  23  34  48  68 100 142 181 209 237
#     4  10  20  35  51  65  80 102 135 175 215 257
#     4   9  17  27  38  56  81 109 139 171 206 248
#     4   8  15  25  36  50  71 102 139 173 204 238
#     4  10  18  27  39  57  81 108 137 168 203 244
#     4  11  18  28  43  59  79 105 136 169 206 246
#
# _framework density 14.740245
#
# number of rings (size 3 to 8) (size 9 to 14) (size 15 to 20)
#    0.000    2.571    1.429    3.429    0.000    4.571 
#    0.000    2.857    0.000    0.000    0.000    2.000 
#    0.000    0.000    0.000   15.429    0.000    2.000 
#
# Total GULP energy -1040898.863770 kJ/mol
# GULP energy per Si atom -12391.653140 kJ/mol
# Density = 1.470670 g / cm^3
# Si number density = 14.740245 Si / 1000 Ang^3
#
#
#
# Elastic Constant Matrix: (Units=GPa)
#
#
# Indices 1 2 3 4 5 6 
#
# 1 114.8350 60.2798 17.9853 0.0000 0.0000 0.0000
# 2 60.2798 114.8350 17.9853 0.0000 0.0000 0.0000
# 3 17.9853 17.9853 28.5519 0.0000 0.0000 0.0000
# 4 0.0000 0.0000 0.0000 9.4168 0.0000 0.0000
# 5 0.0000 0.0000 0.0000 0.0000 9.4168 0.0000
# 6 0.0000 0.0000 0.0000 0.0000 0.0000 27.2776
#
#
#
# Elastic Compliance Matrix: (Units=1/GPa)
#
#
# Indices 1 2 3 4 5 6 
#
# 1 0.012445 -0.005885 -0.004132 0.000000 0.000000 0.000000
# 2 -0.005885 0.012445 -0.004132 0.000000 0.000000 0.000000
# 3 -0.004132 -0.004132 0.040229 0.000000 0.000000 0.000000
# 4 0.000000 0.000000 0.000000 0.106193 0.000000 0.000000
# 5 0.000000 0.000000 0.000000 0.000000 0.106193 0.000000
# 6 0.000000 0.000000 0.000000 0.000000 0.000000 0.036660
#
#
# Mechanical properties :
#
#
# Convention : Reuss Voigt Hill
#
# Bulk Modulus (GPa) = 27.15867 50.08030 38.61948
# Shear Modulus (GPa) = 14.09500 20.02035 17.05768
#
# Velocity S-wave (km/s) = 3.09565 3.68939 3.40548
# Velocity P-wave (km/s) = 5.58947 7.22480 6.45910
#
# Compressibility (1/GPa) = 0.03682066
#
# Stress axis : x y z
#
# Youngs Moduli (GPa) = 80.35573 80.35573 24.85753
#
# Poissons Ratio (x) = 0.47293 0.10271
# Poissons Ratio (y) = 0.47293 0.10271
# Poissons Ratio (z) = 0.33201 0.33201
#
# Static dielectric constant tensor:
#      x y z
#    x 3.028740 0.000000 0.000000 
#    y 0.000000 3.028740 0.000000 
#    z 0.000000 0.000000 2.284640 
# 
# 
# High freq. dielectric constant tensor:
#      x y z
#    x 1.575730 0.000000 0.000000 
#    y 0.000000 1.575730 0.000000 
#    z 0.000000 0.000000 1.479970 
# 
# From -- ./inp_files/2104.got.cif
#   From: 2010.03.12/outbox.cif.g09.slc.cpg/sg175_2_cif.got.tgz:2104.got - 2010.04.02 06:55:29.
