data_PCOD8325774
_publ_section_title
;
Structure prediction by ZEFSAII (Michael W. Deem and Ramdas Pophale) SiO2 
 PCOD8325774
Probable space group: P 61 2 2
;
_chemical_formula_sum "Si O2"
_cell_formula_units_Z 60
_cell_length_a 30.338108
_cell_length_b 30.338108
_cell_length_c 5.118757
_cell_angle_alpha 90.000000
_cell_angle_beta 90.000000
_cell_angle_gamma 120.000000
_cell_volume 4080.112433
_symmetry_space_group_name_H-M "P 61 2 2"
_symmetry_group_IT_number 178
_symmetry_cell_setting 'hexagonal'
loop_
_space_group_symop_operation_xyz
x,y,z
x-y,x,1/6+z
-y,x-y,1/3+z
-x,-y,1/2+z
-x+y,-x,2/3+z
y,-x+y,5/6+z
x-y,-y,-z
-x,-x+y,2/3-z
y,x,1/3-z
-y,-x,5/6-z
-x+y,y,1/2-z
x,x-y,1/6-z
loop_
_atom_site_type_symbol
_atom_site_label
_atom_site_fract_x
_atom_site_fract_y
_atom_site_fract_z
Si Si1 0.264900 0.941667 0.421698
Si Si2 0.113291 0.323298 0.269686
Si Si3 0.323362 0.882927 0.417285
Si Si4 0.442041 0.940762 0.498878
Si Si5 0.828244 0.268421 0.399976
O O1 0.227825 0.910222 0.653954
O O2 0.308365 0.926581 0.375069
O O3 0.291743 0.000000 0.500000
O O4 0.229939 0.930216 0.161570
O O5 0.148495 0.296990 0.250000
O O6 0.149078 0.381795 0.352428
O O7 0.381794 0.909533 0.492709
O O8 0.292315 0.846143 0.651612
O O9 0.311770 0.847915 0.158138
O O10 0.462866 0.925731 0.250000
O O11 0.459210 0.000000 0.500000
O O12 0.462680 0.925360 0.750000
O O13 0.766760 0.233241 0.416667
#
# Coordination Sequence:
#
# PCOD8325774 Si02
#       5
#    12  12  12  12  12
#     4  10  18  27  41  60  79 101 137 178 207 233
#     4   9  17  28  40  55  78 106 132 161 206 251
#     4  10  18  29  44  60  82 110 135 166 206 242
#     4  10  20  32  44  59  82 114 149 175 197 234
#     4   9  17  28  43  62  81 103 130 160 200 250
#
# _framework density 14.705476000000001
#
# number of rings (size 3 to 8) (size 9 to 14) (size 15 to 20)
#    0.000    2.400    0.000    3.600    0.000    4.800 
#    0.000    6.000    0.000    0.000    0.000    0.000 
#    0.000    0.000    0.000   75.600    0.000    0.000 
#
# Total GULP energy -743822.355374 kJ/mol
# GULP energy per Si atom -12397.039256 kJ/mol
# Density = 1.467201 g / cm^3
# Si number density = 14.705476 Si / 1000 Ang^3
#
#
#
# Elastic Constant Matrix: (Units=GPa)
#
#
# Indices 1 2 3 4 5 6 
#
# 1 57.5757 30.7359 11.7797 0.0000 0.0000 0.0000
# 2 30.7359 57.5757 11.7797 0.0000 0.0000 0.0000
# 3 11.7797 11.7797 79.2062 0.0000 0.0000 0.0000
# 4 0.0000 0.0000 0.0000 4.1006 0.0000 0.0000
# 5 0.0000 0.0000 0.0000 0.0000 4.1006 0.0000
# 6 0.0000 0.0000 0.0000 0.0000 0.0000 13.4199
#
#
#
# Elastic Compliance Matrix: (Units=1/GPa)
#
#
# Indices 1 2 3 4 5 6 
#
# 1 0.024525 -0.012733 -0.001754 0.000000 0.000000 0.000000
# 2 -0.012733 0.024525 -0.001754 0.000000 0.000000 0.000000
# 3 -0.001754 -0.001754 0.013147 0.000000 0.000000 0.000000
# 4 0.000000 0.000000 0.000000 0.243865 0.000000 0.000000
# 5 0.000000 0.000000 0.000000 0.000000 0.243865 0.000000
# 6 0.000000 0.000000 0.000000 0.000000 0.000000 0.074516
#
#
# Mechanical properties :
#
#
# Convention : Reuss Voigt Hill
#
# Bulk Modulus (GPa) = 33.65295 33.66091 33.65693
# Shear Modulus (GPa) = 7.49817 13.66171 10.57994
#
# Velocity S-wave (km/s) = 2.26052 3.05129 2.68518
# Velocity P-wave (km/s) = 5.45414 5.94589 5.70531
#
# Compressibility (1/GPa) = 0.02971508
#
# Stress axis : x y z
#
# Youngs Moduli (GPa) = 40.77514 40.77514 76.06365
#
# Poissons Ratio (x) = 0.51921 0.13339
# Poissons Ratio (y) = 0.51921 0.13339
# Poissons Ratio (z) = 0.07150 0.07150
#
# Static dielectric constant tensor:
#      x y z
#    x 2.687970 0.000000 0.000000 
#    y 0.000000 2.687970 0.000000 
#    z 0.000000 0.000000 3.076900 
# 
# 
# High freq. dielectric constant tensor:
#      x y z
#    x 1.531690 0.000000 0.000000 
#    y 0.000000 1.531690 0.000000 
#    z 0.000000 0.000000 1.589610 
# 
# From -- ./inp_files/1486.got.cif
#   From: 2010.03.12/outbox.cif.g09.slc.cpg/sg178_1_cif.got.tgz:1486.got - 2010.04.02 07:02:38.
