data_PCOD8325001
_publ_section_title
;
Structure prediction by ZEFSAII (Michael W. Deem and Ramdas Pophale) SiO2 
 PCOD8325001
Probable space group: P 6/M
;
_chemical_formula_sum "Si O2"
_cell_formula_units_Z 72
_cell_length_a 23.007736
_cell_length_b 23.007736
_cell_length_c 8.760850
_cell_angle_alpha 90.000000
_cell_angle_beta 90.000000
_cell_angle_gamma 120.000000
_cell_volume 4016.286146
_symmetry_space_group_name_H-M "P 6/M"
_symmetry_group_IT_number 175
_symmetry_cell_setting 'hexagonal'
loop_
_space_group_symop_operation_xyz
x,y,z
x-y,x,z
-y,x-y,z
-x,-y,z
-x+y,-x,z
y,-x+y,z
-x,-y,-z
-x+y,-x,-z
y,-x+y,-z
x,y,-z
x-y,x,-z
-y,x-y,-z
loop_
_atom_site_type_symbol
_atom_site_label
_atom_site_fract_x
_atom_site_fract_y
_atom_site_fract_z
Si Si1 0.408312 0.939737 0.177351
Si Si2 0.102387 0.717401 0.822484
Si Si3 0.910379 0.846389 0.820176
Si Si4 0.284787 0.947338 0.826394
Si Si5 0.492333 0.084062 0.679289
Si Si6 0.145128 0.295030 0.322015
O O1 0.328380 0.909855 0.198158
O O2 0.434477 0.890254 0.240000
O O3 0.445489 0.006667 0.277572
O O4 0.427520 0.957792 0.000000
O O5 0.124047 0.667917 0.741279
O O6 0.148357 0.791640 0.758385
O O7 0.025386 0.694424 0.788027
O O8 0.116175 0.716540 0.000000
O O9 0.881576 0.894037 0.768292
O O10 0.866441 0.775512 0.738859
O O11 0.903228 0.834033 0.000000
O O12 0.222193 0.918778 0.713249
O O13 0.258030 0.937623 0.000000
O O14 0.502933 0.094557 0.500000
O O15 0.158330 0.298331 0.500000
#
# Coordination Sequence:
#
# PCOD8325001 Si02
#       6
#    12  12  12  12  12  12
#     4   9  16  28  46  68  95 128 162 188 220 272
#     4  10  20  35  52  68  93 130 169 204 241 295
#     4  10  21  38  58  75  92 121 167 220 272 329
#     4   9  19  34  51  69  92 128 168 203 240 290
#     4  10  17  26  44  71 100 125 152 189 233 274
#     4  12  24  34  48  72 101 130 162 206 263 320
#
# _framework density 17.927009999999999
#
# number of rings (size 3 to 8) (size 9 to 14) (size 15 to 20)
#    0.000    2.000    0.000    7.167    0.000    9.333 
#    0.000    0.000    0.000    1.000    0.000    0.000 
#    1.667    0.000    3.000    0.000    3.000    0.000 
#
# Total GULP energy -892624.721861 kJ/mol
# GULP energy per Si atom -12397.565581 kJ/mol
# Density = 1.788621 g / cm^3
# Si number density = 17.927010 Si / 1000 Ang^3
#
#
#
# Elastic Constant Matrix: (Units=GPa)
#
#
# Indices 1 2 3 4 5 6 
#
# 1 49.4309 -0.9820 15.5694 0.0000 0.0000 0.0000
# 2 -0.9820 49.4309 15.5694 0.0000 0.0000 0.0000
# 3 15.5694 15.5694 74.0550 0.0000 0.0000 0.0000
# 4 0.0000 0.0000 0.0000 12.3319 0.0000 0.0000
# 5 0.0000 0.0000 0.0000 0.0000 12.3319 0.0000
# 6 0.0000 0.0000 0.0000 0.0000 0.0000 25.2064
#
#
#
# Elastic Compliance Matrix: (Units=1/GPa)
#
#
# Indices 1 2 3 4 5 6 
#
# 1 0.021851 0.002014 -0.005017 0.000000 0.000000 0.000000
# 2 0.002014 0.021851 -0.005017 0.000000 0.000000 0.000000
# 3 -0.005017 -0.005017 0.015613 0.000000 0.000000 0.000000
# 4 0.000000 0.000000 0.000000 0.081091 0.000000 0.000000
# 5 0.000000 0.000000 0.000000 0.000000 0.081091 0.000000
# 6 0.000000 0.000000 0.000000 0.000000 0.000000 0.039672
#
#
# Mechanical properties :
#
#
# Convention : Reuss Voigt Hill
#
# Bulk Modulus (GPa) = 23.10876 25.91451 24.51163
# Shear Modulus (GPa) = 17.14478 19.49136 18.31807
#
# Velocity S-wave (km/s) = 3.09587 3.30094 3.20005
# Velocity P-wave (km/s) = 5.06929 5.38658 5.23034
#
# Compressibility (1/GPa) = 0.04327364
#
# Stress axis : x y z
#
# Youngs Moduli (GPa) = 45.76527 45.76527 64.04825
#
# Poissons Ratio (x) = -0.09219 0.32136
# Poissons Ratio (y) = -0.09219 0.32136
# Poissons Ratio (z) = 0.22962 0.22962
#
# Static dielectric constant tensor:
#      x y z
#    x 3.461170 0.000000 0.000000 
#    y 0.000000 3.461170 0.000000 
#    z 0.000000 0.000000 3.258210 
# 
# 
# High freq. dielectric constant tensor:
#      x y z
#    x 1.673400 0.000000 0.000000 
#    y 0.000000 1.673400 0.000000 
#    z 0.000000 0.000000 1.698890 
# 
# From -- ./inp_files/1227.got.cif
#   From: 2010.03.12/outbox.cif.g09.slc.cpg/sg175_1_cif.got.tgz:1227.got - 2010.04.02 06:55:29.
