data_PCOD8325988
_publ_section_title
;
Structure prediction by ZEFSAII (Michael W. Deem and Ramdas Pophale) SiO2 
 PCOD8325988
Probable space group: P 61 2 2
;
_chemical_formula_sum "Si O2"
_cell_formula_units_Z 42
_cell_length_a 13.784356
_cell_length_b 13.784356
_cell_length_c 10.247715
_cell_angle_alpha 90.000000
_cell_angle_beta 90.000000
_cell_angle_gamma 120.000000
_cell_volume 1686.283661
_symmetry_space_group_name_H-M "P 61 2 2"
_symmetry_group_IT_number 178
_symmetry_cell_setting 'hexagonal'
loop_
_space_group_symop_operation_xyz
x,y,z
x-y,x,1/6+z
-y,x-y,1/3+z
-x,-y,1/2+z
-x+y,-x,2/3+z
y,-x+y,5/6+z
x-y,-y,-z
-x,-x+y,2/3-z
y,x,1/3-z
-y,-x,5/6-z
-x+y,y,1/2-z
x,x-y,1/6-z
loop_
_atom_site_type_symbol
_atom_site_label
_atom_site_fract_x
_atom_site_fract_y
_atom_site_fract_z
Si Si1 0.453416 0.453416 0.166667
Si Si2 0.633588 0.747856 0.847329
Si Si3 0.000000 0.170164 0.333334
Si Si4 0.227741 0.671777 0.283097
Si Si5 0.112595 0.225190 0.750000
O O1 0.407775 0.379092 0.299119
O O2 0.570947 0.468182 0.123277
O O3 0.720976 0.821270 0.735841
O O4 0.526643 0.766457 0.841376
O O5 0.695836 0.782330 0.987899
O O6 0.061870 0.123740 0.250000
O O7 0.260289 0.739712 0.416667
O O8 0.314570 0.629140 0.250000
O O9 0.149628 0.149628 0.666667
#
# Coordination Sequence:
#
# PCOD8325988 Si02
#       5
#     6  12   6  12   6
#     4  11  28  52  85 120 174 214 273 366 422 515
#     4  11  26  51  80 116 159 217 272 344 419 507
#     4  11  26  52  75 114 156 210 275 332 416 487
#     4  12  26  53  80 125 165 217 277 341 430 516
#     4  12  28  52  80 114 164 220 284 350 424 514
#
# _framework density 24.906839999999999
#
# number of rings (size 3 to 8) (size 9 to 14) (size 15 to 20)
#    0.000    0.571    4.286    1.714    2.000    9.143 
#   23.143    0.000    0.000    0.000    0.000    0.000 
#    0.000    0.000    0.000    0.000    0.000    0.000 
#
# Total GULP energy -520482.897435 kJ/mol
# GULP energy per Si atom -12392.449939 kJ/mol
# Density = 2.485015 g / cm^3
# Si number density = 24.906840 Si / 1000 Ang^3
#
#
#
# Elastic Constant Matrix: (Units=GPa)
#
#
# Indices 1 2 3 4 5 6 
#
# 1 212.2399 94.3214 76.0374 0.0000 0.0000 0.0000
# 2 94.3214 212.2399 76.0374 0.0000 0.0000 0.0000
# 3 76.0374 76.0374 135.7406 0.0000 0.0000 0.0000
# 4 0.0000 0.0000 0.0000 60.6516 0.0000 0.0000
# 5 0.0000 0.0000 0.0000 0.0000 60.6516 0.0000
# 6 0.0000 0.0000 0.0000 0.0000 0.0000 58.9593
#
#
#
# Elastic Compliance Matrix: (Units=1/GPa)
#
#
# Indices 1 2 3 4 5 6 
#
# 1 0.006499 -0.001982 -0.002530 0.000000 0.000000 0.000000
# 2 -0.001982 0.006499 -0.002530 0.000000 0.000000 0.000000
# 3 -0.002530 -0.002530 0.010202 0.000000 0.000000 0.000000
# 4 0.000000 0.000000 0.000000 0.016488 0.000000 0.000000
# 5 0.000000 0.000000 0.000000 0.000000 0.016488 0.000000
# 6 0.000000 0.000000 0.000000 0.000000 0.000000 0.016961
#
#
# Mechanical properties :
#
#
# Convention : Reuss Voigt Hill
#
# Bulk Modulus (GPa) = 109.71237 117.00142 113.35689
# Shear Modulus (GPa) = 55.39630 56.97410 56.18520
#
# Velocity S-wave (km/s) = 4.72120 4.78796 4.75469
# Velocity P-wave (km/s) = 8.59443 8.81156 8.70368
#
# Compressibility (1/GPa) = 0.00911474
#
# Stress axis : x y z
#
# Youngs Moduli (GPa) = 153.87372 153.87372 98.02101
#
# Poissons Ratio (x) = 0.30492 0.24803
# Poissons Ratio (y) = 0.30492 0.24803
# Poissons Ratio (z) = 0.38936 0.38936
#
# Static dielectric constant tensor:
#      x y z
#    x 4.528450 0.000000 0.000000 
#    y 0.000000 4.528450 0.000000 
#    z 0.000000 0.000000 4.928960 
# 
# 
# High freq. dielectric constant tensor:
#      x y z
#    x 2.002310 0.000000 0.000000 
#    y 0.000000 2.002310 0.000000 
#    z 0.000000 0.000000 1.997260 
# 
# From -- ./inp_files/3902.got.cif
#   From: 2010.03.12/outbox.cif.g09.slc.cpg/sg178_2_cif.got.tgz:3902.got - 2010.04.02 07:02:38.
