data_PCOD8325724
_publ_section_title
;
Structure prediction by ZEFSAII (Michael W. Deem and Ramdas Pophale) SiO2 
 PCOD8325724
Probable space group: P 63/M
;
_chemical_formula_sum "Si O2"
_cell_formula_units_Z 72
_cell_length_a 17.102936
_cell_length_b 17.102936
_cell_length_c 17.505595
_cell_angle_alpha 90.000000
_cell_angle_beta 90.000000
_cell_angle_gamma 120.000000
_cell_volume 4434.542786
_symmetry_space_group_name_H-M "P 63/M"
_symmetry_group_IT_number 176
_symmetry_cell_setting 'hexagonal'
loop_
_space_group_symop_operation_xyz
x,y,z
x-y,x,1/2+z
-y,x-y,z
-x,-y,1/2+z
-x+y,-x,z
y,-x+y,1/2+z
-x,-y,-z
-x+y,-x,1/2-z
y,-x+y,-z
x,y,1/2-z
x-y,x,-z
-y,x-y,1/2-z
loop_
_atom_site_type_symbol
_atom_site_label
_atom_site_fract_x
_atom_site_fract_y
_atom_site_fract_z
Si Si1 0.684406 0.895647 0.068109
Si Si2 0.627009 0.732733 0.336426
Si Si3 0.684406 0.788759 0.931891
Si Si4 0.895316 0.530022 0.977445
Si Si5 0.634706 0.530022 0.477445
Si Si6 0.627009 0.894276 0.663574
O O1 0.676074 0.839447 0.144581
O O2 0.752468 0.000000 0.085663
O O3 0.724616 0.862308 0.000000
O O4 0.585664 0.877596 0.042570
O O5 0.590319 0.715552 0.250000
O O6 0.542795 0.682425 0.394847
O O7 0.698804 0.698804 0.349108
O O8 0.676074 0.836627 0.855419
O O9 0.585664 0.708067 0.957430
O O10 1.000000 0.566008 0.967573
O O11 0.847221 0.423611 0.000000
O O12 0.682425 0.542795 0.394847
O O13 0.590319 0.874766 0.750000
#
# Coordination Sequence:
#
# PCOD8325724 Si02
#       6
#    12  12  12  12  12  12
#     4   9  16  27  45  67  89 116 153 192 226 264
#     4   9  17  29  45  65  90 120 152 187 227 267
#     4   9  16  27  45  67  89 116 153 192 226 264
#     4   8  14  26  44  64  83 105 137 176 218 264
#     4   8  14  26  44  64  83 105 137 176 218 264
#     4   9  17  29  45  65  90 120 152 187 227 267
#
# _framework density 16.236170999999999
#
# number of rings (size 3 to 8) (size 9 to 14) (size 15 to 20)
#    0.000    3.333    0.000    3.000    0.000    0.667 
#    0.000    1.667    0.000   30.000    0.000    0.000 
#    0.000    0.000    0.000    0.000    0.000    0.000 
#
# Total GULP energy -892089.954698 kJ/mol
# GULP energy per Si atom -12390.138260 kJ/mol
# Density = 1.619922 g / cm^3
# Si number density = 16.236171 Si / 1000 Ang^3
#
#
#
# Elastic Constant Matrix: (Units=GPa)
#
#
# Indices 1 2 3 4 5 6 
#
# 1 79.7573 38.7542 41.2042 0.0000 0.0000 0.0000
# 2 38.7542 79.7573 41.2042 0.0000 0.0000 0.0000
# 3 41.2042 41.2042 94.1123 0.0000 0.0000 0.0000
# 4 0.0000 0.0000 0.0000 17.8321 0.0000 0.0000
# 5 0.0000 0.0000 0.0000 0.0000 17.8321 0.0000
# 6 0.0000 0.0000 0.0000 0.0000 0.0000 20.5016
#
#
#
# Elastic Compliance Matrix: (Units=1/GPa)
#
#
# Indices 1 2 3 4 5 6 
#
# 1 0.018260 -0.006129 -0.005311 0.000000 0.000000 0.000000
# 2 -0.006129 0.018260 -0.005311 0.000000 0.000000 0.000000
# 3 -0.005311 -0.005311 0.015276 0.000000 0.000000 0.000000
# 4 0.000000 0.000000 0.000000 0.056079 0.000000 0.000000
# 5 0.000000 0.000000 0.000000 0.000000 0.056079 0.000000
# 6 0.000000 0.000000 0.000000 0.000000 0.000000 0.048777
#
#
# Mechanical properties :
#
#
# Convention : Reuss Voigt Hill
#
# Bulk Modulus (GPa) = 54.66357 55.10578 54.88467
# Shear Modulus (GPa) = 19.81532 20.06413 19.93972
#
# Velocity S-wave (km/s) = 3.49727 3.51916 3.50823
# Velocity P-wave (km/s) = 7.07451 7.10820 7.09138
#
# Compressibility (1/GPa) = 0.01829372
#
# Stress axis : x y z
#
# Youngs Moduli (GPa) = 54.76502 54.76502 65.46053
#
# Poissons Ratio (x) = 0.33563 0.34768
# Poissons Ratio (y) = 0.33563 0.34768
# Poissons Ratio (z) = 0.29087 0.29087
#
# Static dielectric constant tensor:
#      x y z
#    x 3.143320 0.000000 0.000000 
#    y 0.000000 3.143320 0.000000 
#    z 0.000000 0.000000 3.059530 
# 
# 
# High freq. dielectric constant tensor:
#      x y z
#    x 1.607670 0.000000 0.000000 
#    y 0.000000 1.607670 0.000000 
#    z 0.000000 0.000000 1.613220 
# 
# From -- ./inp_files/3469.got.cif
#   From: 2010.06.25/outbox.cif.g09.slc.cpg/sg176_2_cif.got.tgz:3469.got - 2010.06.28 12:15:01.
