data_PCOD8325409
_publ_section_title
;
Structure prediction by ZEFSAII (Michael W. Deem and Ramdas Pophale) SiO2 
 PCOD8325409
Probable space group: P 63/M
;
_chemical_formula_sum "Si O2"
_cell_formula_units_Z 72
_cell_length_a 17.565324
_cell_length_b 17.565324
_cell_length_c 16.447598
_cell_angle_alpha 90.000000
_cell_angle_beta 90.000000
_cell_angle_gamma 120.000000
_cell_volume 4394.864041
_symmetry_space_group_name_H-M "P 63/M"
_symmetry_group_IT_number 176
_symmetry_cell_setting 'hexagonal'
loop_
_space_group_symop_operation_xyz
x,y,z
x-y,x,1/2+z
-y,x-y,z
-x,-y,1/2+z
-x+y,-x,z
y,-x+y,1/2+z
-x,-y,-z
-x+y,-x,1/2-z
y,-x+y,-z
x,y,1/2-z
x-y,x,-z
-y,x-y,1/2-z
loop_
_atom_site_type_symbol
_atom_site_label
_atom_site_fract_x
_atom_site_fract_y
_atom_site_fract_z
Si Si1 0.543465 0.187716 0.423333
Si Si2 0.174313 0.681829 0.343802
Si Si3 0.681829 0.174313 0.156198
Si Si4 0.367202 0.268141 0.483753
Si Si5 0.367202 0.099062 0.983753
Si Si6 0.812284 0.456535 0.576667
O O1 0.540317 0.267370 0.379470
O O2 0.578491 0.142389 0.358516
O O3 0.445979 0.118082 0.454184
O O4 0.610482 0.220963 0.500000
O O5 0.171218 0.702914 0.250000
O O6 0.111646 0.709089 0.391347
O O7 0.142389 0.578491 0.358516
O O8 0.272947 0.732630 0.379470
O O9 0.702914 0.171218 0.250000
O O10 0.709089 0.111646 0.108653
O O11 0.288490 0.288490 0.496233
O O12 0.329712 0.164856 0.500000
O O13 0.445979 0.327897 0.545816
#
# Coordination Sequence:
#
# PCOD8325409 Si02
#       6
#    12  12  12  12  12  12
#     4   9  17  28  43  63  93 131 165 186 209 250
#     4  10  18  27  43  68  97 127 159 194 223 247
#     4  10  18  27  43  68  97 127 159 194 223 247
#     4   9  19  34  50  65  85 116 151 186 231 285
#     4   9  19  34  50  65  85 116 151 186 231 285
#     4   9  17  28  43  63  93 131 165 186 209 250
#
# _framework density 16.382760000000001
#
# number of rings (size 3 to 8) (size 9 to 14) (size 15 to 20)
#    0.000    2.667    0.000    4.667    0.000   10.667 
#    0.000    0.000    0.000   24.333    0.000    0.000 
#    0.000    0.000    0.000    1.000    0.000    0.000 
#
# Total GULP energy -892172.676503 kJ/mol
# GULP energy per Si atom -12391.287174 kJ/mol
# Density = 1.634547 g / cm^3
# Si number density = 16.382760 Si / 1000 Ang^3
#
#
#
# Elastic Constant Matrix: (Units=GPa)
#
#
# Indices 1 2 3 4 5 6 
#
# 1 86.5940 58.1587 34.5444 0.0000 0.0000 0.0000
# 2 58.1587 86.5940 34.5444 0.0000 0.0000 0.0000
# 3 34.5444 34.5444 93.5234 0.0000 0.0000 0.0000
# 4 0.0000 0.0000 0.0000 7.5047 0.0000 0.0000
# 5 0.0000 0.0000 0.0000 0.0000 7.5047 0.0000
# 6 0.0000 0.0000 0.0000 0.0000 0.0000 14.2176
#
#
#
# Elastic Compliance Matrix: (Units=1/GPa)
#
#
# Indices 1 2 3 4 5 6 
#
# 1 0.021777 -0.013390 -0.003098 0.000000 0.000000 0.000000
# 2 -0.013390 0.021777 -0.003098 0.000000 0.000000 0.000000
# 3 -0.003098 -0.003098 0.012981 0.000000 0.000000 0.000000
# 4 0.000000 0.000000 0.000000 0.133249 0.000000 0.000000
# 5 0.000000 0.000000 0.000000 0.000000 0.133249 0.000000
# 6 0.000000 0.000000 0.000000 0.000000 0.000000 0.070335
#
#
# Mechanical properties :
#
#
# Convention : Reuss Voigt Hill
#
# Bulk Modulus (GPa) = 57.59230 57.91180 57.75205
# Shear Modulus (GPa) = 11.40696 15.14302 13.27499
#
# Velocity S-wave (km/s) = 2.64157 3.04357 2.84967
# Velocity P-wave (km/s) = 6.67341 6.91210 6.79380
#
# Compressibility (1/GPa) = 0.01736343
#
# Stress axis : x y z
#
# Youngs Moduli (GPa) = 45.91949 45.91949 77.03581
#
# Poissons Ratio (x) = 0.61488 0.23864
# Poissons Ratio (y) = 0.61488 0.23864
# Poissons Ratio (z) = 0.14225 0.14225
#
# Static dielectric constant tensor:
#      x y z
#    x 2.811450 0.000000 0.000000 
#    y 0.000000 2.811450 0.000000 
#    z 0.000000 0.000000 3.177570 
# 
# 
# High freq. dielectric constant tensor:
#      x y z
#    x 1.596360 0.000000 0.000000 
#    y 0.000000 1.596360 0.000000 
#    z 0.000000 0.000000 1.628460 
# 
# From -- ./inp_files/3468.got.cif
#   From: 2010.06.25/outbox.cif.g09.slc.cpg/sg176_2_cif.got.tgz:3468.got - 2010.06.28 12:15:01.
