data_PCOD8325173
_publ_section_title
;
Structure prediction by ZEFSAII (Michael W. Deem and Ramdas Pophale) SiO2 
 PCOD8325173
Probable space group: P 6/M
;
_chemical_formula_sum "Si O2"
_cell_formula_units_Z 66
_cell_length_a 21.569996
_cell_length_b 21.569996
_cell_length_c 7.717199
_cell_angle_alpha 90.000000
_cell_angle_beta 90.000000
_cell_angle_gamma 120.000000
_cell_volume 3109.499277
_symmetry_space_group_name_H-M "P 6/M"
_symmetry_group_IT_number 175
_symmetry_cell_setting 'hexagonal'
loop_
_space_group_symop_operation_xyz
x,y,z
x-y,x,z
-y,x-y,z
-x,-y,z
-x+y,-x,z
y,-x+y,z
-x,-y,-z
-x+y,-x,-z
y,-x+y,-z
x,y,-z
x-y,x,-z
-y,x-y,-z
loop_
_atom_site_type_symbol
_atom_site_label
_atom_site_fract_x
_atom_site_fract_y
_atom_site_fract_z
Si Si1 0.375583 0.505367 0.802699
Si Si2 0.650958 0.994828 0.197074
Si Si3 0.096659 0.811047 0.698903
Si Si4 0.363101 0.879310 0.805621
Si Si5 0.440743 0.218557 0.306553
Si Si6 0.828412 0.936316 0.000000
O O1 0.379698 0.434029 0.794266
O O2 0.446595 0.571474 0.715524
O O3 0.307276 0.490678 0.692087
O O4 0.366604 0.524542 0.000000
O O5 0.698456 0.969158 0.302094
O O6 0.660301 0.067288 0.283334
O O7 0.679290 0.004847 0.000000
O O8 0.105576 0.839596 0.500000
O O9 0.165368 0.805372 0.765330
O O10 0.083022 0.862010 0.827461
O O11 0.289706 0.804092 0.807053
O O12 0.389268 0.907379 0.000000
O O13 0.434021 0.240601 0.500000
O O14 0.867536 0.888505 0.000000
#
# Coordination Sequence:
#
# PCOD8325173 Si02
#       6
#    12  12  12  12  12   6
#     4   9  18  35  54  80 115 159 201 252 311 370
#     4   9  17  33  60  91 127 159 200 256 319 376
#     4  10  23  42  68 102 134 168 210 264 324 381
#     4  10  20  32  57  88 117 157 209 260 311 376
#     4  10  22  37  55  83 122 164 212 265 316 375
#     4  12  29  50  76 102 133 173 211 257 313 393
#
# _framework density 21.225283999999998
#
# number of rings (size 3 to 8) (size 9 to 14) (size 15 to 20)
#    0.000    2.182    0.909    1.182    5.091    4.364 
#    1.091    0.000    0.000    6.545    0.000    0.000 
#    0.000    0.000    0.000    0.000    0.000    0.000 
#
# Total GULP energy -817752.173258 kJ/mol
# GULP energy per Si atom -12390.184443 kJ/mol
# Density = 2.117697 g / cm^3
# Si number density = 21.225284 Si / 1000 Ang^3
#
#
#
# Elastic Constant Matrix: (Units=GPa)
#
#
# Indices 1 2 3 4 5 6 
#
# 1 95.6078 44.0090 28.8878 0.0000 0.0000 0.0000
# 2 44.0090 95.6078 28.8878 0.0000 0.0000 0.0000
# 3 28.8878 28.8878 70.4955 0.0000 0.0000 0.0000
# 4 0.0000 0.0000 0.0000 15.3297 0.0000 0.0000
# 5 0.0000 0.0000 0.0000 0.0000 15.3297 0.0000
# 6 0.0000 0.0000 0.0000 0.0000 0.0000 25.7994
#
#
#
# Elastic Compliance Matrix: (Units=1/GPa)
#
#
# Indices 1 2 3 4 5 6 
#
# 1 0.014003 -0.005378 -0.003534 0.000000 0.000000 0.000000
# 2 -0.005378 0.014003 -0.003534 0.000000 0.000000 0.000000
# 3 -0.003534 -0.003534 0.017082 0.000000 0.000000 0.000000
# 4 0.000000 0.000000 0.000000 0.065233 0.000000 0.000000
# 5 0.000000 0.000000 0.000000 0.000000 0.065233 0.000000
# 6 0.000000 0.000000 0.000000 0.000000 0.000000 0.038761
#
#
# Mechanical properties :
#
#
# Convention : Reuss Voigt Hill
#
# Bulk Modulus (GPa) = 49.51845 51.69781 50.60813
# Shear Modulus (GPa) = 20.33030 21.95351 21.14190
#
# Velocity S-wave (km/s) = 3.09825 3.21956 3.15948
# Velocity P-wave (km/s) = 6.01493 6.18307 6.09958
#
# Compressibility (1/GPa) = 0.02019449
#
# Stress axis : x y z
#
# Youngs Moduli (GPa) = 71.41495 71.41495 58.54121
#
# Poissons Ratio (x) = 0.38404 0.20691
# Poissons Ratio (y) = 0.38404 0.20691
# Poissons Ratio (z) = 0.25241 0.25241
#
# Static dielectric constant tensor:
#      x y z
#    x 3.843320 0.000000 0.000000 
#    y 0.000000 3.843320 0.000000 
#    z 0.000000 0.000000 3.591330 
# 
# 
# High freq. dielectric constant tensor:
#      x y z
#    x 1.826960 0.000000 0.000000 
#    y 0.000000 1.826960 0.000000 
#    z 0.000000 0.000000 1.815350 
# 
# From -- ./inp_files/1006.got.cif
#   From: 2010.03.12/outbox.cif.g09.slc.cpg/sg175_1_cif.got.tgz:1006.got - 2010.04.02 06:55:29.
