data_PCOD8325581
_publ_section_title
;
Structure prediction by ZEFSAII (Michael W. Deem and Ramdas Pophale) SiO2 
 PCOD8325581
Probable space group: P 63/M
;
_chemical_formula_sum "Si O2"
_cell_formula_units_Z 72
_cell_length_a 22.360788
_cell_length_b 22.360788
_cell_length_c 8.918124
_cell_angle_alpha 90.000000
_cell_angle_beta 90.000000
_cell_angle_gamma 120.000000
_cell_volume 3861.698350
_symmetry_space_group_name_H-M "P 63/M"
_symmetry_group_IT_number 176
_symmetry_cell_setting 'hexagonal'
loop_
_space_group_symop_operation_xyz
x,y,z
x-y,x,1/2+z
-y,x-y,z
-x,-y,1/2+z
-x+y,-x,z
y,-x+y,1/2+z
-x,-y,-z
-x+y,-x,1/2-z
y,-x+y,-z
x,y,1/2-z
x-y,x,-z
-y,x-y,1/2-z
loop_
_atom_site_type_symbol
_atom_site_label
_atom_site_fract_x
_atom_site_fract_y
_atom_site_fract_z
Si Si1 0.841610 0.709047 0.427507
Si Si2 0.218407 0.782844 0.421848
Si Si3 0.993487 0.746344 0.072118
Si Si4 0.006182 0.618338 0.422839
Si Si5 0.141648 0.625412 0.077636
Si Si6 0.859814 0.496346 0.422561
O O1 0.834224 0.706244 0.250000
O O2 0.795256 0.631658 0.488721
O O3 0.813657 0.757291 0.495553
O O4 0.921434 0.740937 0.475844
O O5 0.216027 0.802520 0.250000
O O6 0.200987 0.704298 0.437444
O O7 0.293964 0.828153 0.485220
O O8 0.002761 0.753156 0.250000
O O9 0.992599 0.677575 0.009481
O O10 0.024370 0.638043 0.250000
O O11 0.071898 0.618170 0.495700
O O12 0.941811 0.542315 0.444766
O O13 0.130209 0.600151 0.250000
O O14 0.165652 0.579876 0.984181
O O15 0.837920 0.492013 0.250000
#
# Coordination Sequence:
#
# PCOD8325581 Si02
#       6
#    12  12  12  12  12  12
#     4  11  22  37  61  92 123 154 195 242 286 344
#     4  11  22  38  60  82 112 155 196 240 293 350
#     4  10  20  38  60  86 124 158 187 236 294 347
#     4   9  17  34  57  82 114 148 178 225 289 340
#     4  10  21  38  57  78 108 149 192 230 283 349
#     4  11  22  37  57  82 114 146 186 242 291 337
#
# _framework density 18.644646000000002
#
# number of rings (size 3 to 8) (size 9 to 14) (size 15 to 20)
#    0.000    1.667    3.333    2.000    0.000    2.667 
#    1.000    0.833    0.000    0.333    0.000    0.000 
#    0.000    0.000    0.000    0.000    0.000    0.000 
#
# Total GULP energy -892928.193421 kJ/mol
# GULP energy per Si atom -12401.780464 kJ/mol
# Density = 1.860221 g / cm^3
# Si number density = 18.644646 Si / 1000 Ang^3
#
#
#
# Elastic Constant Matrix: (Units=GPa)
#
#
# Indices 1 2 3 4 5 6 
#
# 1 69.8404 11.9941 28.6619 0.0000 0.0000 0.0000
# 2 11.9941 69.8404 28.6619 0.0000 0.0000 0.0000
# 3 28.6619 28.6619 41.6984 0.0000 0.0000 0.0000
# 4 0.0000 0.0000 0.0000 30.1643 0.0000 0.0000
# 5 0.0000 0.0000 0.0000 0.0000 30.1643 0.0000
# 6 0.0000 0.0000 0.0000 0.0000 0.0000 28.9232
#
#
#
# Elastic Compliance Matrix: (Units=1/GPa)
#
#
# Indices 1 2 3 4 5 6 
#
# 1 0.020427 0.003140 -0.016199 0.000000 0.000000 0.000000
# 2 0.003140 0.020427 -0.016199 0.000000 0.000000 0.000000
# 3 -0.016199 -0.016199 0.046251 0.000000 0.000000 0.000000
# 4 0.000000 0.000000 0.000000 0.033152 0.000000 0.000000
# 5 0.000000 0.000000 0.000000 0.000000 0.033152 0.000000
# 6 0.000000 0.000000 0.000000 0.000000 0.000000 0.034574
#
#
# Mechanical properties :
#
#
# Convention : Reuss Voigt Hill
#
# Bulk Modulus (GPa) = 34.97881 35.55721 35.26801
# Shear Modulus (GPa) = 19.52905 25.32112 22.42508
#
# Velocity S-wave (km/s) = 3.23992 3.68923 3.47185
# Velocity P-wave (km/s) = 5.72692 6.10406 5.91850
#
# Compressibility (1/GPa) = 0.02858874
#
# Stress axis : x y z
#
# Youngs Moduli (GPa) = 48.95467 48.95467 21.62118
#
# Poissons Ratio (x) = -0.15371 0.35024
# Poissons Ratio (y) = -0.15371 0.35024
# Poissons Ratio (z) = 0.79302 0.79302
#
# Static dielectric constant tensor:
#      x y z
#    x 3.470620 0.000000 0.000000 
#    y 0.000000 3.470620 0.000000 
#    z 0.000000 0.000000 3.324130 
# 
# 
# High freq. dielectric constant tensor:
#      x y z
#    x 1.721050 0.000000 0.000000 
#    y 0.000000 1.721050 0.000000 
#    z 0.000000 0.000000 1.713000 
# 
# From -- ./inp_files/1220.got.cif
#   From: 2010.06.25/outbox.cif.g09.slc.cpg/sg176_1_cif.got.tgz:1220.got - 2010.06.28 12:15:01.
