data_PCOD8325223
_publ_section_title
;
Structure prediction by ZEFSAII (Michael W. Deem and Ramdas Pophale) SiO2 
 PCOD8325223
Probable space group: P 6/M
;
_chemical_formula_sum "Si O2"
_cell_formula_units_Z 84
_cell_length_a 19.022739
_cell_length_b 19.022739
_cell_length_c 15.401566
_cell_angle_alpha 90.000000
_cell_angle_beta 90.000000
_cell_angle_gamma 120.000000
_cell_volume 4826.603366
_symmetry_space_group_name_H-M "P 6/M"
_symmetry_group_IT_number 175
_symmetry_cell_setting 'hexagonal'
loop_
_space_group_symop_operation_xyz
x,y,z
x-y,x,z
-y,x-y,z
-x,-y,z
-x+y,-x,z
y,-x+y,z
-x,-y,-z
-x+y,-x,-z
y,-x+y,-z
x,y,-z
x-y,x,-z
-y,x-y,-z
loop_
_atom_site_type_symbol
_atom_site_label
_atom_site_fract_x
_atom_site_fract_y
_atom_site_fract_z
Si Si1 0.494008 0.309691 0.763265
Si Si2 0.092144 0.358478 0.901636
Si Si3 0.521288 0.170455 0.233634
Si Si4 0.533501 0.910630 0.594964
Si Si5 0.907635 0.542871 0.595088
Si Si6 0.549690 0.957173 0.902934
Si Si7 0.821770 0.867240 0.896946
O O1 0.425760 0.269574 0.836897
O O2 0.559067 0.403273 0.776601
O O3 0.545370 0.263782 0.771222
O O4 0.452733 0.302617 0.669050
O O5 0.014239 0.368856 0.901976
O O6 0.068691 0.268989 0.867404
O O7 0.128175 0.372483 0.000000
O O8 0.471172 0.143952 0.324137
O O9 0.463344 0.117863 0.155654
O O10 0.542420 0.877786 0.500000
O O11 0.448996 0.909016 0.596243
O O12 0.611417 0.999317 0.610805
O O13 0.877444 0.554189 0.500000
O O14 0.500000 0.000000 0.866112
O O15 0.517656 0.925632 0.000000
O O16 0.843552 0.956033 0.860785
O O17 0.826081 0.868766 0.000000
#
# Coordination Sequence:
#
# PCOD8325223 Si02
#       7
#    12  12  12  12  12  12  12
#     4  11  22  34  47  71 103 139 176 216 263 304
#     4  10  21  35  52  75 101 130 174 220 257 300
#     4  11  22  33  50  70 102 138 175 217 262 311
#     4   8  15  29  51  74  91 119 166 213 258 309
#     4   8  15  30  51  71  92 120 162 214 262 308
#     4  10  20  36  55  70  88 128 181 228 265 298
#     4   9  18  33  54  79 106 132 157 194 254 326
#
# _framework density 17.403542999999999
#
# number of rings (size 3 to 8) (size 9 to 14) (size 15 to 20)
#    0.000    2.429    1.429    2.143    4.000    1.714 
#    0.000    0.000    0.000    3.429    0.000    0.000 
#    0.000    0.000    0.000    0.286    0.000    1.857 
#
# Total GULP energy -1040742.449555 kJ/mol
# GULP energy per Si atom -12389.791066 kJ/mol
# Density = 1.736393 g / cm^3
# Si number density = 17.403543 Si / 1000 Ang^3
#
#
#
# Elastic Constant Matrix: (Units=GPa)
#
#
# Indices 1 2 3 4 5 6 
#
# 1 82.1491 30.1644 37.7965 0.0000 0.0000 0.0000
# 2 30.1644 82.1491 37.7965 0.0000 0.0000 0.0000
# 3 37.7965 37.7965 96.5503 0.0000 0.0000 0.0000
# 4 0.0000 0.0000 0.0000 8.0045 0.0000 0.0000
# 5 0.0000 0.0000 0.0000 0.0000 8.0045 0.0000
# 6 0.0000 0.0000 0.0000 0.0000 0.0000 25.9923
#
#
#
# Elastic Compliance Matrix: (Units=1/GPa)
#
#
# Indices 1 2 3 4 5 6 
#
# 1 0.015663 -0.003574 -0.004732 0.000000 0.000000 0.000000
# 2 -0.003574 0.015663 -0.004732 0.000000 0.000000 0.000000
# 3 -0.004732 -0.004732 0.014062 0.000000 0.000000 0.000000
# 4 0.000000 0.000000 0.000000 0.124930 0.000000 0.000000
# 5 0.000000 0.000000 0.000000 0.000000 0.124930 0.000000
# 6 0.000000 0.000000 0.000000 0.000000 0.000000 0.038473
#
#
# Mechanical properties :
#
#
# Convention : Reuss Voigt Hill
#
# Bulk Modulus (GPa) = 51.78531 52.48481 52.13506
# Shear Modulus (GPa) = 13.65242 18.73965 16.19603
#
# Velocity S-wave (km/s) = 2.80386 3.28498 3.05391
# Velocity P-wave (km/s) = 6.34842 6.67916 6.51589
#
# Compressibility (1/GPa) = 0.01931050
#
# Stress axis : x y z
#
# Youngs Moduli (GPa) = 63.84624 63.84624 71.11121
#
# Poissons Ratio (x) = 0.22817 0.33653
# Poissons Ratio (y) = 0.22817 0.33653
# Poissons Ratio (z) = 0.30215 0.30215
#
# Static dielectric constant tensor:
#      x y z
#    x 3.083050 0.000000 0.000000 
#    y 0.000000 3.083050 0.000000 
#    z 0.000000 0.000000 3.567500 
# 
# 
# High freq. dielectric constant tensor:
#      x y z
#    x 1.652300 0.000000 0.000000 
#    y 0.000000 1.652300 0.000000 
#    z 0.000000 0.000000 1.666170 
# 
# From -- ./inp_files/2640.got.cif
#   From: 2010.03.12/outbox.cif.g09.slc.cpg/sg175_2_cif.got.tgz:2640.got - 2010.04.02 06:55:29.
