data_PCOD8325530
_publ_section_title
;
Structure prediction by ZEFSAII (Michael W. Deem and Ramdas Pophale) SiO2 
 PCOD8325530
Probable space group: P 63/M
;
_chemical_formula_sum "Si O2"
_cell_formula_units_Z 72
_cell_length_a 23.931934
_cell_length_b 23.931934
_cell_length_c 9.207176
_cell_angle_alpha 90.000000
_cell_angle_beta 90.000000
_cell_angle_gamma 120.000000
_cell_volume 4566.807121
_symmetry_space_group_name_H-M "P 63/M"
_symmetry_group_IT_number 176
_symmetry_cell_setting 'hexagonal'
loop_
_space_group_symop_operation_xyz
x,y,z
x-y,x,1/2+z
-y,x-y,z
-x,-y,1/2+z
-x+y,-x,z
y,-x+y,1/2+z
-x,-y,-z
-x+y,-x,1/2-z
y,-x+y,-z
x,y,1/2-z
x-y,x,-z
-y,x-y,1/2-z
loop_
_atom_site_type_symbol
_atom_site_label
_atom_site_fract_x
_atom_site_fract_y
_atom_site_fract_z
Si Si1 0.072484 0.706190 0.079349
Si Si2 0.817798 0.736306 0.079596
Si Si3 0.068337 0.250746 0.414201
Si Si4 0.628764 0.689750 0.083188
Si Si5 0.594256 0.076280 0.413857
Si Si6 0.077674 0.587238 0.088112
O O1 0.064399 0.714103 0.250000
O O2 0.107956 0.663864 0.054033
O O3 0.108841 0.776102 0.002821
O O4 0.003813 0.668216 0.005181
O O5 0.814368 0.722870 0.250000
O O6 0.791096 0.784371 0.041056
O O7 0.891022 0.767996 0.022709
O O8 0.077121 0.233174 0.250000
O O9 0.095364 0.328041 0.424894
O O10 0.619702 0.665958 0.250000
O O11 0.558343 0.660218 0.007687
O O12 0.613234 0.101302 0.250000
O O13 0.550664 0.104840 0.478288
O O14 0.553607 0.999315 0.423340
O O15 0.096773 0.577774 0.250000
#
# Coordination Sequence:
#
# PCOD8325530 Si02
#       6
#    12  12  12  12  12  12
#     4   9  16  26  40  57  79 107 137 169 204 244
#     4  10  20  32  48  68  86 108 138 174 220 272
#     4   9  19  33  47  65  86 108 137 174 219 271
#     4   9  16  26  39  56  80 107 137 171 204 244
#     4   9  15  21  32  51  75 106 140 169 196 224
#     4   8  14  22  32  49  74 106 139 166 193 223
#
# _framework density 15.765938999999999
#
# number of rings (size 3 to 8) (size 9 to 14) (size 15 to 20)
#    0.000    3.000    0.000    4.000    0.000    8.667 
#    0.000    0.000    0.000    0.333    0.000    0.000 
#    0.000    0.000    0.000    1.000    0.000   20.000 
#
# Total GULP energy -892029.367241 kJ/mol
# GULP energy per Si atom -12389.296767 kJ/mol
# Density = 1.573006 g / cm^3
# Si number density = 15.765939 Si / 1000 Ang^3
#
#
#
# Elastic Constant Matrix: (Units=GPa)
#
#
# Indices 1 2 3 4 5 6 
#
# 1 58.5379 33.1138 45.9973 0.0000 0.0000 0.0000
# 2 33.1138 58.5379 45.9973 0.0000 0.0000 0.0000
# 3 45.9973 45.9973 114.9905 0.0000 0.0000 0.0000
# 4 0.0000 0.0000 0.0000 23.7039 0.0000 0.0000
# 5 0.0000 0.0000 0.0000 0.0000 23.7039 0.0000
# 6 0.0000 0.0000 0.0000 0.0000 0.0000 12.7120
#
#
#
# Elastic Compliance Matrix: (Units=1/GPa)
#
#
# Indices 1 2 3 4 5 6 
#
# 1 0.028782 -0.010551 -0.007292 0.000000 0.000000 0.000000
# 2 -0.010551 0.028782 -0.007292 0.000000 0.000000 0.000000
# 3 -0.007292 -0.007292 0.014530 0.000000 0.000000 0.000000
# 4 0.000000 0.000000 0.000000 0.042187 0.000000 0.000000
# 5 0.000000 0.000000 0.000000 0.000000 0.042187 0.000000
# 6 0.000000 0.000000 0.000000 0.000000 0.000000 0.078666
#
#
# Mechanical properties :
#
#
# Convention : Reuss Voigt Hill
#
# Bulk Modulus (GPa) = 45.82544 53.58699 49.70622
# Shear Modulus (GPa) = 17.08353 19.15449 18.11901
#
# Velocity S-wave (km/s) = 3.29534 3.48936 3.39374
# Velocity P-wave (km/s) = 6.60365 7.09204 6.85220
#
# Compressibility (1/GPa) = 0.02182194
#
# Stress axis : x y z
#
# Youngs Moduli (GPa) = 34.74434 34.74434 68.82118
#
# Poissons Ratio (x) = 0.36659 0.50187
# Poissons Ratio (y) = 0.36659 0.50187
# Poissons Ratio (z) = 0.25337 0.25337
#
# Static dielectric constant tensor:
#      x y z
#    x 2.977320 0.000000 0.000000 
#    y 0.000000 2.977320 0.000000 
#    z 0.000000 0.000000 3.183870 
# 
# 
# High freq. dielectric constant tensor:
#      x y z
#    x 1.565080 0.000000 0.000000 
#    y 0.000000 1.565080 0.000000 
#    z 0.000000 0.000000 1.623860 
# 
# From -- ./inp_files/1218.got.cif
#   From: 2010.06.25/outbox.cif.g09.slc.cpg/sg176_1_cif.got.tgz:1218.got - 2010.06.28 12:15:01.
