data_PCOD8325061
_publ_section_title
;
Structure prediction by ZEFSAII (Michael W. Deem and Ramdas Pophale) SiO2 
 PCOD8325061
Probable space group: P 6/M
;
_chemical_formula_sum "Si O2"
_cell_formula_units_Z 58
_cell_length_a 18.653704
_cell_length_b 18.653704
_cell_length_c 12.249296
_cell_angle_alpha 90.000000
_cell_angle_beta 90.000000
_cell_angle_gamma 120.000000
_cell_volume 3691.236937
_symmetry_space_group_name_H-M "P 6/M"
_symmetry_group_IT_number 175
_symmetry_cell_setting 'hexagonal'
loop_
_space_group_symop_operation_xyz
x,y,z
x-y,x,z
-y,x-y,z
-x,-y,z
-x+y,-x,z
y,-x+y,z
-x,-y,-z
-x+y,-x,-z
y,-x+y,-z
x,y,-z
x-y,x,-z
-y,x-y,-z
loop_
_atom_site_type_symbol
_atom_site_label
_atom_site_fract_x
_atom_site_fract_y
_atom_site_fract_z
Si Si1 0.096843 0.349223 0.370227
Si Si2 0.950105 0.814729 0.000000
Si Si3 0.590915 0.563394 0.369984
Si Si4 0.207541 0.722997 0.370010
Si Si5 0.333334 0.666668 0.630237
Si Si6 0.051051 0.189782 0.763245
O O1 0.095149 0.343180 0.500000
O O2 0.035043 0.379744 0.327383
O O3 0.187880 0.414902 0.326640
O O4 0.069255 0.259004 0.325616
O O5 0.892398 0.853285 0.000000
O O6 0.937294 0.767125 0.884303
O O7 0.500000 0.500000 0.323375
O O8 0.589074 0.561391 0.500000
O O9 0.654306 0.535795 0.324572
O O10 0.208022 0.722345 0.500000
O O11 0.276417 0.702593 0.324815
O O12 0.333334 0.666668 0.500000
O O13 0.114076 0.155606 0.746130
#
# Coordination Sequence:
#
# PCOD8325061 Si02
#       6
#    12   6  12  12   4  12
#     4  10  19  29  41  60  88 118 142 167 206 257
#     4   8  15  28  46  64  79 100 136 182 222 246
#     4   9  16  26  39  55  78 110 144 173 203 243
#     4   9  16  25  37  54  77 106 139 172 205 243
#     4   9  15  24  39  57  78 106 140 178 213 243
#     4  10  19  31  46  63  84 111 144 179 211 244
#
# _framework density 15.71289
#
# number of rings (size 3 to 8) (size 9 to 14) (size 15 to 20)
#    0.000    2.690    0.000    2.793    0.000    9.103 
#    0.000    0.000    0.000    1.241    0.000    0.724 
#    0.000    4.966    0.000    0.103    0.000    0.000 
#
# Total GULP energy -718792.783780 kJ/mol
# GULP energy per Si atom -12392.979031 kJ/mol
# Density = 1.567713 g / cm^3
# Si number density = 15.712890 Si / 1000 Ang^3
#
#
#
# Elastic Constant Matrix: (Units=GPa)
#
#
# Indices 1 2 3 4 5 6 
#
# 1 133.9536 63.3064 22.5599 0.0000 0.0000 -0.0001
# 2 63.3064 133.9511 22.5600 0.0000 0.0000 0.0000
# 3 22.5599 22.5600 23.0451 0.0000 0.0000 0.0000
# 4 0.0000 0.0000 0.0000 7.0720 -0.0001 0.0000
# 5 0.0000 0.0000 0.0000 -0.0001 7.0718 0.0000
# 6 -0.0001 0.0000 0.0000 0.0000 0.0000 35.3235
#
#
#
# Elastic Compliance Matrix: (Units=1/GPa)
#
#
# Indices 1 2 3 4 5 6 
#
# 1 0.010344 -0.003811 -0.006394 0.000000 0.000000 0.000000
# 2 -0.003811 0.010344 -0.006395 0.000000 0.000000 0.000000
# 3 -0.006394 -0.006395 0.055913 0.000000 0.000000 0.000000
# 4 0.000000 0.000000 0.000000 0.141403 0.000003 0.000000
# 5 0.000000 0.000000 0.000000 0.000003 0.141407 0.000000
# 6 0.000000 0.000000 0.000000 0.000000 0.000000 0.028310
#
#
# Mechanical properties :
#
#
# Convention : Reuss Voigt Hill
#
# Bulk Modulus (GPa) = 23.04201 56.42249 39.73225
# Shear Modulus (GPa) = 11.48403 22.06169 16.77286
#
# Velocity S-wave (km/s) = 2.70639 3.75113 3.27074
# Velocity P-wave (km/s) = 4.94594 7.39917 6.29325
#
# Compressibility (1/GPa) = 0.04339899
#
# Stress axis : x y z
#
# Youngs Moduli (GPa) = 96.67905 96.67673 17.88485
#
# Poissons Ratio (x) = 0.36848 0.11436
# Poissons Ratio (y) = 0.36849 0.11437
# Poissons Ratio (z) = 0.61821 0.61823
#
# Static dielectric constant tensor:
#      x y z
#    x 3.130630 0.000000 0.000000 
#    y 0.000000 3.130640 0.000000 
#    z 0.000000 0.000000 2.714480 
# 
# 
# High freq. dielectric constant tensor:
#      x y z
#    x 1.614080 0.000000 0.000000 
#    y 0.000000 1.614080 0.000000 
#    z 0.000000 0.000000 1.534470 
# 
# From -- ./inp_files/2458.got.cif
#   From: 2010.03.12/outbox.cif.g09.slc.cpg/sg175_2_cif.got.tgz:2458.got - 2010.04.02 06:55:29.
