data_PCOD8325537
_publ_section_title
;
Structure prediction by ZEFSAII (Michael W. Deem and Ramdas Pophale) SiO2 
 PCOD8325537
Probable space group: P 63/M
;
_chemical_formula_sum "Si O2"
_cell_formula_units_Z 72
_cell_length_a 22.877373
_cell_length_b 22.877373
_cell_length_c 8.340986
_cell_angle_alpha 90.000000
_cell_angle_beta 90.000000
_cell_angle_gamma 120.000000
_cell_volume 3780.596519
_symmetry_space_group_name_H-M "P 63/M"
_symmetry_group_IT_number 176
_symmetry_cell_setting 'hexagonal'
loop_
_space_group_symop_operation_xyz
x,y,z
x-y,x,1/2+z
-y,x-y,z
-x,-y,1/2+z
-x+y,-x,z
y,-x+y,1/2+z
-x,-y,-z
-x+y,-x,1/2-z
y,-x+y,-z
x,y,1/2-z
x-y,x,-z
-y,x-y,1/2-z
loop_
_atom_site_type_symbol
_atom_site_label
_atom_site_fract_x
_atom_site_fract_y
_atom_site_fract_z
Si Si1 0.876407 0.865603 0.437864
Si Si2 0.611435 0.738835 0.434783
Si Si3 0.736411 0.612533 0.565948
Si Si4 0.462888 0.797215 0.059381
Si Si5 0.797380 0.464162 0.941929
Si Si6 0.260388 0.000056 0.064386
O O1 0.871107 0.931990 0.465162
O O2 0.886719 0.858248 0.250000
O O3 0.809261 0.800059 0.508016
O O4 0.610241 0.720226 0.250000
O O5 0.622844 0.812841 0.456598
O O6 0.538087 0.684047 0.507722
O O7 0.674111 0.736997 0.519379
O O8 0.723673 0.623880 0.750000
O O9 0.681043 0.537282 0.506140
O O10 0.732055 0.666859 0.456134
O O11 0.460539 0.794585 0.250000
O O12 0.448507 0.724529 0.995843
O O13 0.405694 0.812402 0.990843
O O14 0.797404 0.465057 0.750000
O O15 0.243326 0.983743 0.250000
#
# Coordination Sequence:
#
# PCOD8325537 Si02
#       6
#    12  12  12  12  12  12
#     4  11  23  38  56  77 101 126 155 192 234 280
#     4   8  15  28  44  62  88 121 151 182 225 274
#     4   9  17  30  47  67  92 119 150 192 236 274
#     4   8  13  21  38  66  94 119 149 189 236 278
#     4   8  12  20  37  62  92 120 147 185 231 275
#     4  10  20  33  49  68  90 123 162 190 220 269
#
# _framework density 19.044612999999998
#
# number of rings (size 3 to 8) (size 9 to 14) (size 15 to 20)
#    0.000    3.000    0.000    4.000    0.000    4.000 
#    0.000    1.667    0.000    0.000    0.000    4.667 
#    0.000    0.000    0.000    0.000    0.000    0.000 
#
# Total GULP energy -892277.039361 kJ/mol
# GULP energy per Si atom -12392.736658 kJ/mol
# Density = 1.900127 g / cm^3
# Si number density = 19.044613 Si / 1000 Ang^3
#
#
#
# Elastic Constant Matrix: (Units=GPa)
#
#
# Indices 1 2 3 4 5 6 
#
# 1 124.0113 76.7443 3.1803 0.0000 0.0000 0.0000
# 2 76.7443 124.0113 3.1803 0.0000 0.0000 0.0000
# 3 3.1803 3.1803 12.0658 0.0000 0.0000 0.0000
# 4 0.0000 0.0000 0.0000 15.8702 0.0000 0.0000
# 5 0.0000 0.0000 0.0000 0.0000 15.8702 0.0000
# 6 0.0000 0.0000 0.0000 0.0000 0.0000 23.6335
#
#
#
# Elastic Compliance Matrix: (Units=1/GPa)
#
#
# Indices 1 2 3 4 5 6 
#
# 1 0.013090 -0.008067 -0.001324 0.000000 0.000000 0.000000
# 2 -0.008067 0.013090 -0.001324 0.000000 0.000000 0.000000
# 3 -0.001324 -0.001324 0.083577 0.000000 0.000000 0.000000
# 4 0.000000 0.000000 0.000000 0.063011 0.000000 0.000000
# 5 0.000000 0.000000 0.000000 0.000000 0.063011 0.000000
# 6 0.000000 0.000000 0.000000 0.000000 0.000000 0.042313
#
#
# Mechanical properties :
#
#
# Convention : Reuss Voigt Hill
#
# Bulk Modulus (GPa) = 11.32155 47.36647 29.34401
# Shear Modulus (GPa) = 15.19929 22.87370 19.03649
#
# Velocity S-wave (km/s) = 2.82811 3.46939 3.16503
# Velocity P-wave (km/s) = 4.07700 6.40111 5.36638
#
# Compressibility (1/GPa) = 0.08832709
#
# Stress axis : x y z
#
# Youngs Moduli (GPa) = 76.39556 76.39556 11.96505
#
# Poissons Ratio (x) = 0.61626 0.01584
# Poissons Ratio (y) = 0.61626 0.01584
# Poissons Ratio (z) = 0.10115 0.10115
#
# Static dielectric constant tensor:
#      x y z
#    x 3.759220 0.000000 0.000000 
#    y 0.000000 3.759220 0.000000 
#    z 0.000000 0.000000 2.880540 
# 
# 
# High freq. dielectric constant tensor:
#      x y z
#    x 1.744600 0.000000 0.000000 
#    y 0.000000 1.744600 0.000000 
#    z 0.000000 0.000000 1.682760 
# 
# From -- ./inp_files/1176.got.cif
#   From: 2010.06.25/outbox.cif.g09.slc.cpg/sg176_1_cif.got.tgz:1176.got - 2010.06.28 12:15:01.
