data_PCOD8325926
_publ_section_title
;
Structure prediction by ZEFSAII (Michael W. Deem and Ramdas Pophale) SiO2 
 PCOD8325926
Probable space group: P 61 2 2
;
_chemical_formula_sum "Si O2"
_cell_formula_units_Z 42
_cell_length_a 11.350362
_cell_length_b 11.350362
_cell_length_c 16.801299
_cell_angle_alpha 90.000000
_cell_angle_beta 90.000000
_cell_angle_gamma 120.000000
_cell_volume 1874.532256
_symmetry_space_group_name_H-M "P 61 2 2"
_symmetry_group_IT_number 178
_symmetry_cell_setting 'hexagonal'
loop_
_space_group_symop_operation_xyz
x,y,z
x-y,x,1/6+z
-y,x-y,1/3+z
-x,-y,1/2+z
-x+y,-x,2/3+z
y,-x+y,5/6+z
x-y,-y,-z
-x,-x+y,2/3-z
y,x,1/3-z
-y,-x,5/6-z
-x+y,y,1/2-z
x,x-y,1/6-z
loop_
_atom_site_type_symbol
_atom_site_label
_atom_site_fract_x
_atom_site_fract_y
_atom_site_fract_z
Si Si1 0.944723 0.626416 0.247377
Si Si2 0.607171 0.067192 0.675379
Si Si3 0.798064 0.111795 0.225919
Si Si4 0.024687 0.049373 0.250000
O O1 0.782334 0.564667 0.250000
O O2 0.982883 0.511437 0.223572
O O3 0.000000 0.684038 0.333334
O O4 0.011735 0.749524 0.183755
O O5 0.564208 0.128416 0.750000
O O6 0.744974 0.183506 0.636026
O O7 0.629162 0.943740 0.704474
O O8 0.941002 0.130835 0.259825
O O9 0.966191 0.966191 0.166667
#
# Coordination Sequence:
#
# PCOD8325926 Si02
#       4
#    12  12  12   6
#     4  11  25  44  70  99 136 190 245 293 365 451
#     4  10  23  44  67  97 143 186 237 301 363 449
#     4  11  23  44  69 106 144 176 246 307 375 453
#     4  12  26  40  72 116 148 188 226 318 402 430
#
# _framework density 22.405588999999999
#
# number of rings (size 3 to 8) (size 9 to 14) (size 15 to 20)
#    0.000    1.143    2.857    3.429    2.000    4.571 
#    0.000    2.857    3.143    0.000    0.000    0.000 
#    0.000    0.000    0.000    0.000    0.000    0.000 
#
# Total GULP energy -520423.662507 kJ/mol
# GULP energy per Si atom -12391.039584 kJ/mol
# Density = 2.235459 g / cm^3
# Si number density = 22.405589 Si / 1000 Ang^3
#
#
#
# Elastic Constant Matrix: (Units=GPa)
#
#
# Indices 1 2 3 4 5 6 
#
# 1 120.3217 70.8920 44.1580 0.0000 0.0000 0.0000
# 2 70.8920 120.3217 44.1580 0.0000 0.0000 0.0000
# 3 44.1580 44.1580 124.7529 0.0000 0.0000 0.0000
# 4 0.0000 0.0000 0.0000 21.7851 0.0000 0.0000
# 5 0.0000 0.0000 0.0000 0.0000 21.7851 0.0000
# 6 0.0000 0.0000 0.0000 0.0000 0.0000 24.7148
#
#
#
# Elastic Compliance Matrix: (Units=1/GPa)
#
#
# Indices 1 2 3 4 5 6 
#
# 1 0.013241 -0.006989 -0.002213 0.000000 0.000000 0.000000
# 2 -0.006989 0.013241 -0.002213 0.000000 0.000000 0.000000
# 3 -0.002213 -0.002213 0.009582 0.000000 0.000000 0.000000
# 4 0.000000 0.000000 0.000000 0.045903 0.000000 0.000000
# 5 0.000000 0.000000 0.000000 0.000000 0.045903 0.000000
# 6 0.000000 0.000000 0.000000 0.000000 0.000000 0.040462
#
#
# Mechanical properties :
#
#
# Convention : Reuss Voigt Hill
#
# Bulk Modulus (GPa) = 75.56057 75.97914 75.76986
# Shear Modulus (GPa) = 25.56570 27.40289 26.48429
#
# Velocity S-wave (km/s) = 3.38159 3.50099 3.44181
# Velocity P-wave (km/s) = 7.00315 7.09415 7.04880
#
# Compressibility (1/GPa) = 0.01323442
#
# Stress axis : x y z
#
# Youngs Moduli (GPa) = 75.52125 75.52125 104.35762
#
# Poissons Ratio (x) = 0.52785 0.23094
# Poissons Ratio (y) = 0.52785 0.23094
# Poissons Ratio (z) = 0.16712 0.16712
#
# Static dielectric constant tensor:
#      x y z
#    x 3.968910 0.000000 0.000000 
#    y 0.000000 3.968910 0.000000 
#    z 0.000000 0.000000 4.457280 
# 
# 
# High freq. dielectric constant tensor:
#      x y z
#    x 1.867710 0.000000 0.000000 
#    y 0.000000 1.867710 0.000000 
#    z 0.000000 0.000000 1.900680 
# 
# From -- ./inp_files/6457.got.cif
#   From: 2010.03.12/outbox.cif.g09.slc.cpg/sg178_4_cif.got.tgz:6457.got - 2010.04.02 07:02:38.
