data_PCOD8325206
_publ_section_title
;
Structure prediction by ZEFSAII (Michael W. Deem and Ramdas Pophale) SiO2 
 PCOD8325206
Probable space group: P 6/M
;
_chemical_formula_sum "Si O2"
_cell_formula_units_Z 60
_cell_length_a 19.230439
_cell_length_b 19.230439
_cell_length_c 9.987719
_cell_angle_alpha 90.000000
_cell_angle_beta 90.000000
_cell_angle_gamma 120.000000
_cell_volume 3198.713506
_symmetry_space_group_name_H-M "P 6/M"
_symmetry_group_IT_number 175
_symmetry_cell_setting 'hexagonal'
loop_
_space_group_symop_operation_xyz
x,y,z
x-y,x,z
-y,x-y,z
-x,-y,z
-x+y,-x,z
y,-x+y,z
-x,-y,-z
-x+y,-x,-z
y,-x+y,-z
x,y,-z
x-y,x,-z
-y,x-y,-z
loop_
_atom_site_type_symbol
_atom_site_label
_atom_site_fract_x
_atom_site_fract_y
_atom_site_fract_z
Si Si1 0.955900 0.824841 0.658893
Si Si2 0.800224 0.509657 0.151933
Si Si3 0.162370 0.625582 0.849323
Si Si4 0.034265 0.592839 0.650914
Si Si5 0.644932 0.742085 0.654642
O O1 0.889471 0.845614 0.715737
O O2 0.958229 0.829879 0.500000
O O3 0.933994 0.735641 0.703812
O O4 0.833224 0.451705 0.200624
O O5 0.704322 0.455033 0.156845
O O6 0.829571 0.585170 0.251030
O O7 0.828695 0.540460 0.000000
O O8 0.105949 0.642451 0.753176
O O9 0.127806 0.610924 0.000000
O O10 0.067691 0.611730 0.500000
O O11 0.000000 0.500000 0.684409
O O12 0.971682 0.622707 0.674317
O O13 0.633482 0.759551 0.500000
#
# Coordination Sequence:
#
# PCOD8325206 Si02
#       5
#    12  12  12  12  12
#     4   9  18  33  55  82 110 141 178 222 273 330
#     4  10  21  37  55  78 109 146 189 233 272 319
#     4  10  21  36  56  78 105 145 189 229 272 320
#     4  10  20  35  53  77 109 144 180 222 273 329
#     4  10  21  35  54  82 113 144 180 225 279 333
#
# _framework density 18.757541
#
# number of rings (size 3 to 8) (size 9 to 14) (size 15 to 20)
#    0.000    2.200    2.000    0.600    2.800    4.400 
#    0.000    0.000    0.000    2.400    0.000    0.000 
#    0.000    1.600    0.000    0.000    0.000    0.000 
#
# Total GULP energy -743917.051638 kJ/mol
# GULP energy per Si atom -12398.617527 kJ/mol
# Density = 1.871485 g / cm^3
# Si number density = 18.757541 Si / 1000 Ang^3
#
#
#
# Elastic Constant Matrix: (Units=GPa)
#
#
# Indices 1 2 3 4 5 6 
#
# 1 117.1086 52.2813 40.4189 0.0000 0.0000 0.0000
# 2 52.2813 117.1086 40.4189 0.0000 0.0000 0.0000
# 3 40.4189 40.4189 63.4683 0.0000 0.0000 0.0000
# 4 0.0000 0.0000 0.0000 23.9709 0.0000 0.0000
# 5 0.0000 0.0000 0.0000 0.0000 23.9709 0.0000
# 6 0.0000 0.0000 0.0000 0.0000 0.0000 32.4137
#
#
#
# Elastic Compliance Matrix: (Units=1/GPa)
#
#
# Indices 1 2 3 4 5 6 
#
# 1 0.011953 -0.003472 -0.005401 0.000000 0.000000 0.000000
# 2 -0.003472 0.011953 -0.005401 0.000000 0.000000 0.000000
# 3 -0.005401 -0.005401 0.022635 0.000000 0.000000 0.000000
# 4 0.000000 0.000000 0.000000 0.041717 0.000000 0.000000
# 5 0.000000 0.000000 0.000000 0.000000 0.041717 0.000000
# 6 0.000000 0.000000 0.000000 0.000000 0.000000 0.030851
#
#
# Mechanical properties :
#
#
# Convention : Reuss Voigt Hill
#
# Bulk Modulus (GPa) = 55.57716 62.65820 59.11768
# Shear Modulus (GPa) = 25.59193 27.04217 26.31705
#
# Velocity S-wave (km/s) = 3.69772 3.80105 3.74974
# Velocity P-wave (km/s) = 6.92275 7.26228 7.09455
#
# Compressibility (1/GPa) = 0.01799300
#
# Stress axis : x y z
#
# Youngs Moduli (GPa) = 83.65863 83.65863 44.17918
#
# Poissons Ratio (x) = 0.29048 0.23861
# Poissons Ratio (y) = 0.29048 0.23861
# Poissons Ratio (z) = 0.45185 0.45185
#
# Static dielectric constant tensor:
#      x y z
#    x 3.447000 0.000000 0.000000 
#    y 0.000000 3.447000 0.000000 
#    z 0.000000 0.000000 3.280240 
# 
# 
# High freq. dielectric constant tensor:
#      x y z
#    x 1.730070 0.000000 0.000000 
#    y 0.000000 1.730070 0.000000 
#    z 0.000000 0.000000 1.703430 
# 
# From -- ./inp_files/1812.got.cif
#   From: 2010.03.12/outbox.cif.g09.slc.cpg/sg175_1_cif.got.tgz:1812.got - 2010.04.02 06:55:29.
