data_PCOD8325465
_publ_section_title
;
Structure prediction by ZEFSAII (Michael W. Deem and Ramdas Pophale) SiO2 
 PCOD8325465
Probable space group: P 63/M
;
_chemical_formula_sum "Si O2"
_cell_formula_units_Z 72
_cell_length_a 22.665431
_cell_length_b 22.665431
_cell_length_c 9.028829
_cell_angle_alpha 90.000000
_cell_angle_beta 90.000000
_cell_angle_gamma 120.000000
_cell_volume 4016.890780
_symmetry_space_group_name_H-M "P 63/M"
_symmetry_group_IT_number 176
_symmetry_cell_setting 'hexagonal'
loop_
_space_group_symop_operation_xyz
x,y,z
x-y,x,1/2+z
-y,x-y,z
-x,-y,1/2+z
-x+y,-x,z
y,-x+y,1/2+z
-x,-y,-z
-x+y,-x,1/2-z
y,-x+y,-z
x,y,1/2-z
x-y,x,-z
-y,x-y,1/2-z
loop_
_atom_site_type_symbol
_atom_site_label
_atom_site_fract_x
_atom_site_fract_y
_atom_site_fract_z
Si Si1 0.600850 0.932315 0.076973
Si Si2 0.267230 0.076084 0.581735
Si Si3 0.922032 0.724556 0.078974
Si Si4 0.676579 0.071573 0.925482
Si Si5 0.201114 0.533367 0.074016
Si Si6 0.665654 0.466040 0.926569
O O1 0.598031 0.946504 0.250000
O O2 0.658590 0.912815 0.045050
O O3 0.530153 0.870577 0.016609
O O4 0.617103 0.000755 0.990957
O O5 0.264846 0.098101 0.750000
O O6 0.250657 0.120958 0.471416
O O7 0.210513 0.997853 0.554022
O O8 0.910763 0.702518 0.250000
O O9 0.909260 0.659985 0.983306
O O10 0.676245 0.065782 0.750000
O O11 0.662509 0.131079 0.978890
O O12 0.205007 0.536129 0.250000
O O13 0.265506 0.529222 0.010318
O O14 0.203920 0.601311 0.012004
O O15 0.667429 0.466827 0.750000
#
# Coordination Sequence:
#
# PCOD8325465 Si02
#       6
#    12  12  12  12  12  12
#     4   9  18  32  49  71  99 129 160 199 248 294
#     4   9  18  32  49  72 101 128 158 198 240 284
#     4  10  20  33  51  75 100 129 164 198 239 289
#     4  10  19  31  48  72 100 127 159 201 246 291
#     4   9  17  28  45  69  94 124 162 202 244 290
#     4   9  16  28  46  67  94 126 161 202 245 291
#
# _framework density 17.924310999999999
#
# number of rings (size 3 to 8) (size 9 to 14) (size 15 to 20)
#    0.000    2.667    0.000    3.333    0.000    8.000 
#    0.000    0.000    0.000    1.333    0.000    0.000 
#    0.000    5.333    0.000    0.000    0.000    0.000 
#
# Total GULP energy -892852.241235 kJ/mol
# GULP energy per Si atom -12400.725573 kJ/mol
# Density = 1.788351 g / cm^3
# Si number density = 17.924311 Si / 1000 Ang^3
#
#
#
# Elastic Constant Matrix: (Units=GPa)
#
#
# Indices 1 2 3 4 5 6 
#
# 1 140.7981 87.3973 41.1363 0.0000 0.0000 0.0000
# 2 87.3973 140.7981 41.1363 0.0000 0.0000 0.0000
# 3 41.1363 41.1363 46.9156 0.0000 0.0000 0.0000
# 4 0.0000 0.0000 0.0000 21.4846 0.0000 0.0000
# 5 0.0000 0.0000 0.0000 0.0000 21.4846 0.0000
# 6 0.0000 0.0000 0.0000 0.0000 0.0000 26.7004
#
#
#
# Elastic Compliance Matrix: (Units=1/GPa)
#
#
# Indices 1 2 3 4 5 6 
#
# 1 0.012567 -0.006159 -0.005619 0.000000 0.000000 0.000000
# 2 -0.006159 0.012567 -0.005619 0.000000 0.000000 0.000000
# 3 -0.005619 -0.005619 0.031168 0.000000 0.000000 0.000000
# 4 0.000000 0.000000 0.000000 0.046545 0.000000 0.000000
# 5 0.000000 0.000000 0.000000 0.000000 0.046545 0.000000
# 6 0.000000 0.000000 0.000000 0.000000 0.000000 0.037453
#
#
# Mechanical properties :
#
#
# Convention : Reuss Voigt Hill
#
# Bulk Modulus (GPa) = 46.49143 74.20575 60.34859
# Shear Modulus (GPa) = 21.85250 24.52338 23.18794
#
# Velocity S-wave (km/s) = 3.49543 3.70288 3.60065
# Velocity P-wave (km/s) = 6.50266 7.73118 7.14338
#
# Compressibility (1/GPa) = 0.02150934
#
# Stress axis : x y z
#
# Youngs Moduli (GPa) = 79.57282 79.57282 32.08448
#
# Poissons Ratio (x) = 0.49011 0.18027
# Poissons Ratio (y) = 0.49011 0.18027
# Poissons Ratio (z) = 0.44708 0.44708
#
# Static dielectric constant tensor:
#      x y z
#    x 3.382580 0.000000 0.000000 
#    y 0.000000 3.382580 0.000000 
#    z 0.000000 0.000000 2.994780 
# 
# 
# High freq. dielectric constant tensor:
#      x y z
#    x 1.695990 0.000000 0.000000 
#    y 0.000000 1.695990 0.000000 
#    z 0.000000 0.000000 1.661420 
# 
# From -- ./inp_files/1202.got.cif
#   From: 2010.06.25/outbox.cif.g09.slc.cpg/sg176_1_cif.got.tgz:1202.got - 2010.06.28 12:15:01.
