data_PCOD8325479
_publ_section_title
;
Structure prediction by ZEFSAII (Michael W. Deem and Ramdas Pophale) SiO2 
 PCOD8325479
Probable space group: P 63/M
;
_chemical_formula_sum "Si O2"
_cell_formula_units_Z 72
_cell_length_a 23.682822
_cell_length_b 23.682822
_cell_length_c 8.624658
_cell_angle_alpha 90.000000
_cell_angle_beta 90.000000
_cell_angle_gamma 120.000000
_cell_volume 4189.280267
_symmetry_space_group_name_H-M "P 63/M"
_symmetry_group_IT_number 176
_symmetry_cell_setting 'hexagonal'
loop_
_space_group_symop_operation_xyz
x,y,z
x-y,x,1/2+z
-y,x-y,z
-x,-y,1/2+z
-x+y,-x,z
y,-x+y,1/2+z
-x,-y,-z
-x+y,-x,1/2-z
y,-x+y,-z
x,y,1/2-z
x-y,x,-z
-y,x-y,1/2-z
loop_
_atom_site_type_symbol
_atom_site_label
_atom_site_fract_x
_atom_site_fract_y
_atom_site_fract_z
Si Si1 0.074252 0.811399 0.931201
Si Si2 0.737340 0.598084 0.930095
Si Si3 0.267801 0.194056 0.568666
Si Si4 0.530174 0.594853 0.570146
Si Si5 0.927458 0.398422 0.070977
Si Si6 0.406531 0.258120 0.430429
O O1 0.086318 0.826071 0.750000
O O2 0.999569 0.785799 0.977139
O O3 0.093127 0.756928 0.975275
O O4 0.118698 0.878448 0.023652
O O5 0.743823 0.615015 0.750000
O O6 0.664110 0.543316 0.970515
O O7 0.785454 0.570753 0.973887
O O8 0.284111 0.204353 0.750000
O O9 0.333580 0.240136 0.475132
O O10 0.544925 0.589128 0.750000
O O11 0.455071 0.544113 0.529771
O O12 0.577826 0.580115 0.468526
O O13 0.543854 0.666663 0.528922
O O14 0.915335 0.378935 0.250000
O O15 0.408259 0.243872 0.250000
#
# Coordination Sequence:
#
# PCOD8325479 Si02
#       6
#    12  12  12  12  12  12
#     4  10  20  33  50  72  97 127 160 195 238 283
#     4  11  21  32  48  71  98 128 161 196 237 282
#     4  10  20  32  48  72  98 125 158 194 235 282
#     4   9  19  33  50  73  98 126 159 195 237 284
#     4  10  19  32  50  72  99 128 159 195 236 283
#     4  10  19  32  50  71  96 126 159 195 237 282
#
# _framework density 17.186724000000002
#
# number of rings (size 3 to 8) (size 9 to 14) (size 15 to 20)
#    0.000    2.000    0.000    6.500    0.000    7.333 
#    0.000    0.000    0.000    1.000    0.000    2.333 
#    0.000    0.000    0.000    0.000    0.000    0.000 
#
# Total GULP energy -893005.043251 kJ/mol
# GULP energy per Si atom -12402.847823 kJ/mol
# Density = 1.714761 g / cm^3
# Si number density = 17.186724 Si / 1000 Ang^3
#
#
#
# Elastic Constant Matrix: (Units=GPa)
#
#
# Indices 1 2 3 4 5 6 
#
# 1 106.6865 55.1080 21.5567 0.0000 0.0000 0.0000
# 2 55.1080 106.6865 21.5567 0.0000 0.0000 0.0000
# 3 21.5567 21.5567 41.2013 0.0000 0.0000 0.0000
# 4 0.0000 0.0000 0.0000 26.7385 0.0000 0.0000
# 5 0.0000 0.0000 0.0000 0.0000 26.7385 0.0000
# 6 0.0000 0.0000 0.0000 0.0000 0.0000 25.7892
#
#
#
# Elastic Compliance Matrix: (Units=1/GPa)
#
#
# Indices 1 2 3 4 5 6 
#
# 1 0.013285 -0.006103 -0.003758 0.000000 0.000000 0.000000
# 2 -0.006103 0.013285 -0.003758 0.000000 0.000000 0.000000
# 3 -0.003758 -0.003758 0.028203 0.000000 0.000000 0.000000
# 4 0.000000 0.000000 0.000000 0.037399 0.000000 0.000000
# 5 0.000000 0.000000 0.000000 0.000000 0.037399 0.000000
# 6 0.000000 0.000000 0.000000 0.000000 0.000000 0.038776
#
#
# Mechanical properties :
#
#
# Convention : Reuss Voigt Hill
#
# Bulk Modulus (GPa) = 36.31544 50.11302 43.21423
# Shear Modulus (GPa) = 24.41850 26.27677 25.34763
#
# Velocity S-wave (km/s) = 3.77341 3.91436 3.84453
# Velocity P-wave (km/s) = 6.33724 7.04634 6.70117
#
# Compressibility (1/GPa) = 0.02753650
#
# Stress axis : x y z
#
# Youngs Moduli (GPa) = 75.27312 75.27312 35.45705
#
# Poissons Ratio (x) = 0.45939 0.13324
# Poissons Ratio (y) = 0.45939 0.13324
# Poissons Ratio (z) = 0.28285 0.28285
#
# Static dielectric constant tensor:
#      x y z
#    x 3.180720 0.000000 0.000000 
#    y 0.000000 3.180720 0.000000 
#    z 0.000000 0.000000 3.295290 
# 
# 
# High freq. dielectric constant tensor:
#      x y z
#    x 1.651520 0.000000 0.000000 
#    y 0.000000 1.651520 0.000000 
#    z 0.000000 0.000000 1.678390 
# 
# From -- ./inp_files/1180.got.cif
#   From: 2010.06.25/outbox.cif.g09.slc.cpg/sg176_1_cif.got.tgz:1180.got - 2010.06.28 12:15:01.
