data_PCOD8325589
_publ_section_title
;
Structure prediction by ZEFSAII (Michael W. Deem and Ramdas Pophale) SiO2 
 PCOD8325589
Probable space group: P 63/M
;
_chemical_formula_sum "Si O2"
_cell_formula_units_Z 48
_cell_length_a 10.889864
_cell_length_b 10.889864
_cell_length_c 19.353460
_cell_angle_alpha 90.000000
_cell_angle_beta 90.000000
_cell_angle_gamma 120.000000
_cell_volume 1987.623684
_symmetry_space_group_name_H-M "P 63/M"
_symmetry_group_IT_number 176
_symmetry_cell_setting 'hexagonal'
loop_
_space_group_symop_operation_xyz
x,y,z
x-y,x,1/2+z
-y,x-y,z
-x,-y,1/2+z
-x+y,-x,z
y,-x+y,1/2+z
-x,-y,-z
-x+y,-x,1/2-z
y,-x+y,-z
x,y,1/2-z
x-y,x,-z
-y,x-y,1/2-z
loop_
_atom_site_type_symbol
_atom_site_label
_atom_site_fract_x
_atom_site_fract_y
_atom_site_fract_z
Si Si1 0.351533 0.108914 0.673482
Si Si2 0.625012 0.467662 0.039115
Si Si3 0.441170 0.426345 0.672817
Si Si4 0.264683 0.261571 0.033346
O O1 0.282571 0.062370 0.750000
O O2 0.382455 0.263870 0.653562
O O3 0.498588 0.109300 0.670005
O O4 0.243728 0.002021 0.615998
O O5 0.512862 0.298425 0.028279
O O6 0.621176 0.508032 0.118620
O O7 0.606462 0.575421 0.985137
O O8 0.392049 0.441490 0.750000
O O9 0.269697 0.128266 0.006997
#
# Coordination Sequence:
#
# PCOD8325589 Si02
#       4
#    12  12  12  12
#     4  10  22  39  64  95 132 173 216 265 325 389
#     4  10  24  40  61  99 132 168 215 274 339 391
#     4  10  20  39  64  96 134 174 219 268 326 394
#     4  12  25  44  69  95 130 173 226 274 328 395
#
# _framework density 24.149439999999998
#
# number of rings (size 3 to 8) (size 9 to 14) (size 15 to 20)
#    0.500    1.000    2.500    2.250    3.500    5.000 
#    0.000    2.500    0.000    0.000    0.000    0.000 
#    0.000    0.000    0.000    0.000    0.000    0.000 
#
# Total GULP energy -595109.108156 kJ/mol
# GULP energy per Si atom -12398.106420 kJ/mol
# Density = 2.409447 g / cm^3
# Si number density = 24.149440 Si / 1000 Ang^3
#
#
#
# Elastic Constant Matrix: (Units=GPa)
#
#
# Indices 1 2 3 4 5 6 
#
# 1 32.4030 12.5173 -3.2876 0.0000 0.0000 0.0000
# 2 12.5173 32.4030 -3.2876 0.0000 0.0000 0.0000
# 3 -3.2876 -3.2876 130.1888 0.0000 0.0000 0.0000
# 4 0.0000 0.0000 0.0000 36.8707 0.0000 0.0000
# 5 0.0000 0.0000 0.0000 0.0000 36.8707 0.0000
# 6 0.0000 0.0000 0.0000 0.0000 0.0000 9.9429
#
#
#
# Elastic Compliance Matrix: (Units=1/GPa)
#
#
# Indices 1 2 3 4 5 6 
#
# 1 0.036316 -0.013972 0.000564 0.000000 0.000000 0.000000
# 2 -0.013972 0.036316 0.000564 0.000000 0.000000 0.000000
# 3 0.000564 0.000564 0.007710 0.000000 0.000000 0.000000
# 4 0.000000 0.000000 0.000000 0.027122 0.000000 0.000000
# 5 0.000000 0.000000 0.000000 0.000000 0.027122 0.000000
# 6 0.000000 0.000000 0.000000 0.000000 0.000000 0.100575
#
#
# Mechanical properties :
#
#
# Convention : Reuss Voigt Hill
#
# Bulk Modulus (GPa) = 18.29656 22.98658 20.64157
# Shear Modulus (GPa) = 17.91704 29.34036 23.62870
#
# Velocity S-wave (km/s) = 2.72678 3.48939 3.13139
# Velocity P-wave (km/s) = 4.18409 5.07677 4.65190
#
# Compressibility (1/GPa) = 0.05465509
#
# Stress axis : x y z
#
# Youngs Moduli (GPa) = 27.53624 27.53624 129.70759
#
# Poissons Ratio (x) = 0.38472 -0.07319
# Poissons Ratio (y) = 0.38472 -0.07319
# Poissons Ratio (z) = -0.01554 -0.01554
#
# Static dielectric constant tensor:
#      x y z
#    x 4.550920 0.000000 0.000000 
#    y 0.000000 4.550920 0.000000 
#    z 0.000000 0.000000 4.747090 
# 
# 
# High freq. dielectric constant tensor:
#      x y z
#    x 1.970730 0.000000 0.000000 
#    y 0.000000 1.970730 0.000000 
#    z 0.000000 0.000000 1.968730 
# 
# From -- ./inp_files/3641.got.cif
#   From: 2010.06.25/outbox.cif.g09.slc.cpg/sg176_2_cif.got.tgz:3641.got - 2010.06.28 12:15:01.
