data_PCOD8325219
_publ_section_title
;
Structure prediction by ZEFSAII (Michael W. Deem and Ramdas Pophale) SiO2 
 PCOD8325219
Probable space group: P 6/M
;
_chemical_formula_sum "Si O2"
_cell_formula_units_Z 66
_cell_length_a 20.015577
_cell_length_b 20.015577
_cell_length_c 9.852750
_cell_angle_alpha 90.000000
_cell_angle_beta 90.000000
_cell_angle_gamma 120.000000
_cell_volume 3418.411364
_symmetry_space_group_name_H-M "P 6/M"
_symmetry_group_IT_number 175
_symmetry_cell_setting 'hexagonal'
loop_
_space_group_symop_operation_xyz
x,y,z
x-y,x,z
-y,x-y,z
-x,-y,z
-x+y,-x,z
y,-x+y,z
-x,-y,-z
-x+y,-x,-z
y,-x+y,-z
x,y,-z
x-y,x,-z
-y,x-y,-z
loop_
_atom_site_type_symbol
_atom_site_label
_atom_site_fract_x
_atom_site_fract_y
_atom_site_fract_z
Si Si1 0.228117 0.299079 0.651969
Si Si2 0.800232 0.082472 0.224460
Si Si3 0.523367 0.435785 0.655895
Si Si4 0.167011 0.457229 0.157055
Si Si5 0.164810 0.145410 0.000000
Si Si6 0.825100 0.297174 0.656789
O O1 0.201978 0.296979 0.500000
O O2 0.276606 0.254505 0.661272
O O3 0.146524 0.261118 0.729715
O O4 0.283307 0.387789 0.696160
O O5 0.759825 0.124929 0.154271
O O6 0.807820 0.023517 0.126636
O O7 0.500000 0.500000 0.686315
O O8 0.500629 0.406138 0.500000
O O9 0.479740 0.368996 0.765469
O O10 0.613637 0.468080 0.679469
O O11 0.247031 0.493360 0.241870
O O12 0.182312 0.486613 0.000000
O O13 0.086329 0.144957 0.000000
O O14 0.798469 0.273142 0.500000
#
# Coordination Sequence:
#
# PCOD8325219 Si02
#       6
#    12  12  12  12   6  12
#     4  10  20  35  58  84 111 144 193 249 298 348
#     4  11  21  36  56  82 115 152 192 237 297 357
#     4  10  21  40  64  90 121 159 204 252 305 365
#     4  11  23  37  59  90 122 157 198 246 302 359
#     4  12  23  40  60  80 113 163 207 237 283 359
#     4   9  20  39  61  86 115 155 200 245 299 360
#
# _framework density 19.307213000000001
#
# number of rings (size 3 to 8) (size 9 to 14) (size 15 to 20)
#    0.000    1.636    2.727    2.273    0.000    4.727 
#    1.091    0.000    0.000    0.000    0.000    2.545 
#    0.000    0.000    0.000    0.000    0.000    0.000 
#
# Total GULP energy -818078.501424 kJ/mol
# GULP energy per Si atom -12395.128809 kJ/mol
# Density = 1.926327 g / cm^3
# Si number density = 19.307213 Si / 1000 Ang^3
#
#
#
# Elastic Constant Matrix: (Units=GPa)
#
#
# Indices 1 2 3 4 5 6 
#
# 1 78.0263 25.7611 39.6241 0.0000 0.0000 0.0000
# 2 25.7611 78.0263 39.6241 0.0000 0.0000 0.0000
# 3 39.6241 39.6241 101.8784 0.0000 0.0000 0.0000
# 4 0.0000 0.0000 0.0000 25.9036 0.0000 0.0000
# 5 0.0000 0.0000 0.0000 0.0000 25.9036 0.0000
# 6 0.0000 0.0000 0.0000 0.0000 0.0000 26.1326
#
#
#
# Elastic Compliance Matrix: (Units=1/GPa)
#
#
# Indices 1 2 3 4 5 6 
#
# 1 0.016419 -0.002714 -0.005330 0.000000 0.000000 0.000000
# 2 -0.002714 0.016419 -0.005330 0.000000 0.000000 0.000000
# 3 -0.005330 -0.005330 0.013962 0.000000 0.000000 0.000000
# 4 0.000000 0.000000 0.000000 0.038605 0.000000 0.000000
# 5 0.000000 0.000000 0.000000 0.000000 0.038605 0.000000
# 6 0.000000 0.000000 0.000000 0.000000 0.000000 0.038266
#
#
# Mechanical properties :
#
#
# Convention : Reuss Voigt Hill
#
# Bulk Modulus (GPa) = 49.87363 51.99440 50.93402
# Shear Modulus (GPa) = 25.54808 25.78274 25.66541
#
# Velocity S-wave (km/s) = 3.64158 3.65827 3.64994
# Velocity P-wave (km/s) = 6.60070 6.69570 6.64837
#
# Compressibility (1/GPa) = 0.02005068
#
# Stress axis : x y z
#
# Youngs Moduli (GPa) = 60.90433 60.90433 71.62290
#
# Poissons Ratio (x) = 0.16529 0.38178
# Poissons Ratio (y) = 0.16529 0.38178
# Poissons Ratio (z) = 0.32465 0.32465
#
# Static dielectric constant tensor:
#      x y z
#    x 3.430720 0.000000 0.000000 
#    y 0.000000 3.430720 0.000000 
#    z 0.000000 0.000000 3.522290 
# 
# 
# High freq. dielectric constant tensor:
#      x y z
#    x 1.751380 0.000000 0.000000 
#    y 0.000000 1.751380 0.000000 
#    z 0.000000 0.000000 1.749010 
# 
# From -- ./inp_files/991.got.cif
#   From: 2010.03.12/outbox.cif.g09.slc.cpg/sg175_1_cif.got.tgz:991.got - 2010.04.02 06:55:29.
