data_PCOD8325817
_publ_section_title
;
Structure prediction by ZEFSAII (Michael W. Deem and Ramdas Pophale) SiO2 
 PCOD8325817
Probable space group: P 61 2 2
;
_chemical_formula_sum "Si O2"
_cell_formula_units_Z 84
_cell_length_a 14.357399
_cell_length_b 14.357399
_cell_length_c 24.241667
_cell_angle_alpha 90.000000
_cell_angle_beta 90.000000
_cell_angle_gamma 120.000000
_cell_volume 4327.575491
_symmetry_space_group_name_H-M "P 61 2 2"
_symmetry_group_IT_number 178
_symmetry_cell_setting 'hexagonal'
loop_
_space_group_symop_operation_xyz
x,y,z
x-y,x,1/6+z
-y,x-y,1/3+z
-x,-y,1/2+z
-x+y,-x,2/3+z
y,-x+y,5/6+z
x-y,-y,-z
-x,-x+y,2/3-z
y,x,1/3-z
-y,-x,5/6-z
-x+y,y,1/2-z
x,x-y,1/6-z
loop_
_atom_site_type_symbol
_atom_site_label
_atom_site_fract_x
_atom_site_fract_y
_atom_site_fract_z
Si Si1 0.176347 0.491950 0.606821
Si Si2 0.535976 0.670103 0.067226
Si Si3 0.357056 0.461037 0.562403
Si Si4 0.347076 0.202300 0.867412
Si Si5 0.163307 0.699456 0.963048
Si Si6 0.548099 0.296898 0.231914
Si Si7 0.713781 0.699881 0.461094
O O1 0.225089 0.612545 0.583334
O O2 0.137319 0.484772 0.668813
O O3 0.267922 0.459087 0.603148
O O4 0.076739 0.416421 0.567436
O O5 0.593176 0.796588 0.083334
O O6 0.607513 0.620062 0.088165
O O7 0.424434 0.608455 0.099542
O O8 0.308986 0.413176 0.502331
O O9 0.457911 0.580247 0.559164
O O10 0.438147 0.189678 0.899854
O O11 0.276368 0.098605 0.827645
O O12 0.268318 0.215206 0.911630
O O13 0.208215 0.791785 0.916667
O O14 0.266192 0.739745 0.001784
O O15 0.065601 0.699399 0.993754
O O16 0.625488 0.250976 0.250000
#
# Coordination Sequence:
#
# PCOD8325817 Si02
#       7
#    12  12  12  12  12  12  12
#     4  11  22  37  63  85 117 167 214 250 302 379
#     4  11  24  38  54  89 127 162 207 258 307 362
#     4  11  21  36  57  85 121 168 210 248 304 376
#     4  10  19  37  60  90 115 161 210 252 299 373
#     4  11  23  37  58  91 124 164 204 256 315 379
#     4  10  20  35  54  82 124 165 205 247 294 364
#     4  10  22  37  63  88 122 160 207 254 310 376
#
# _framework density 19.410408
#
# number of rings (size 3 to 8) (size 9 to 14) (size 15 to 20)
#    0.000    1.429    2.857    3.857    6.000    0.571 
#    0.000    5.714    0.000    0.000    0.000   12.000 
#    0.000    0.000    0.000    0.000    0.000    0.000 
#
# Total GULP energy -1041361.043335 kJ/mol
# GULP energy per Si atom -12397.155278 kJ/mol
# Density = 1.936623 g / cm^3
# Si number density = 19.410408 Si / 1000 Ang^3
#
#
#
# Elastic Constant Matrix: (Units=GPa)
#
#
# Indices 1 2 3 4 5 6 
#
# 1 92.4406 56.2866 30.0378 0.0000 0.0000 0.0000
# 2 56.2866 92.4406 30.0378 0.0000 0.0000 0.0000
# 3 30.0378 30.0378 55.2092 0.0000 0.0000 0.0000
# 4 0.0000 0.0000 0.0000 30.1142 0.0000 0.0000
# 5 0.0000 0.0000 0.0000 0.0000 30.1142 0.0000
# 6 0.0000 0.0000 0.0000 0.0000 0.0000 18.0770
#
#
#
# Elastic Compliance Matrix: (Units=1/GPa)
#
#
# Indices 1 2 3 4 5 6 
#
# 1 0.018138 -0.009521 -0.004689 0.000000 0.000000 0.000000
# 2 -0.009521 0.018138 -0.004689 0.000000 0.000000 0.000000
# 3 -0.004689 -0.004689 0.023215 0.000000 0.000000 0.000000
# 4 0.000000 0.000000 0.000000 0.033207 0.000000 0.000000
# 5 0.000000 0.000000 0.000000 0.000000 0.033207 0.000000
# 6 0.000000 0.000000 0.000000 0.000000 0.000000 0.055319
#
#
# Mechanical properties :
#
#
# Convention : Reuss Voigt Hill
#
# Bulk Modulus (GPa) = 46.09231 52.53498 49.31364
# Shear Modulus (GPa) = 22.09921 23.90965 23.00443
#
# Velocity S-wave (km/s) = 3.37786 3.51350 3.44635
# Velocity P-wave (km/s) = 6.24588 6.60180 6.42630
#
# Compressibility (1/GPa) = 0.02169559
#
# Stress axis : x y z
#
# Youngs Moduli (GPa) = 55.13136 55.13136 43.07604
#
# Poissons Ratio (x) = 0.52490 0.20197
# Poissons Ratio (y) = 0.52490 0.20197
# Poissons Ratio (z) = 0.25849 0.25849
#
# Static dielectric constant tensor:
#      x y z
#    x 3.500610 0.000000 0.000000 
#    y 0.000000 3.500610 0.000000 
#    z 0.000000 0.000000 3.647780 
# 
# 
# High freq. dielectric constant tensor:
#      x y z
#    x 1.736390 0.000000 0.000000 
#    y 0.000000 1.736390 0.000000 
#    z 0.000000 0.000000 1.766520 
# 
# From -- ./inp_files/8316.got.cif
#   From: 2010.03.12/outbox.cif.g09.slc.cpg/sg178_5_cif.got.tgz:8316.got - 2010.04.02 07:02:38.
