data_PCOD8325998
_publ_section_title
;
Structure prediction by ZEFSAII (Michael W. Deem and Ramdas Pophale) SiO2 
 PCOD8325998
Probable space group: P 61 2 2
;
_chemical_formula_sum "Si O2"
_cell_formula_units_Z 30
_cell_length_a 10.946300
_cell_length_b 10.946300
_cell_length_c 11.517557
_cell_angle_alpha 90.000000
_cell_angle_beta 90.000000
_cell_angle_gamma 120.000000
_cell_volume 1195.159024
_symmetry_space_group_name_H-M "P 61 2 2"
_symmetry_group_IT_number 178
_symmetry_cell_setting 'hexagonal'
loop_
_space_group_symop_operation_xyz
x,y,z
x-y,x,1/6+z
-y,x-y,1/3+z
-x,-y,1/2+z
-x+y,-x,2/3+z
y,-x+y,5/6+z
x-y,-y,-z
-x,-x+y,2/3-z
y,x,1/3-z
-y,-x,5/6-z
-x+y,y,1/2-z
x,x-y,1/6-z
loop_
_atom_site_type_symbol
_atom_site_label
_atom_site_fract_x
_atom_site_fract_y
_atom_site_fract_z
Si Si1 0.555834 0.194348 0.380469
Si Si2 0.125545 0.876120 0.639156
Si Si3 0.643809 0.000000 0.500000
O O1 0.639327 0.360674 0.416667
O O2 0.581116 0.162231 0.250000
O O3 0.390651 0.127514 0.405022
O O4 0.624033 0.131090 0.468867
O O5 0.026431 0.856378 0.529917
O O6 0.037254 0.747455 0.725683
#
# Coordination Sequence:
#
# PCOD8325998 Si02
#       3
#    12  12   6
#     4  12  25  46  79 115 156 207 278 345 411 489
#     4  12  27  49  81 115 161 215 269 336 417 496
#     4  12  24  50  76 112 154 214 270 340 414 486
#
# _framework density 25.101261999999998
#
# number of rings (size 3 to 8) (size 9 to 14) (size 15 to 20)
#    0.000    0.000    8.000    1.200    5.600    0.000 
#    0.000   10.000    0.000    0.000    0.000    0.000 
#    0.000    0.000    0.000    0.000    0.000    0.000 
#
# Total GULP energy -372222.434685 kJ/mol
# GULP energy per Si atom -12407.414490 kJ/mol
# Density = 2.504413 g / cm^3
# Si number density = 25.101262 Si / 1000 Ang^3
#
#
#
# Elastic Constant Matrix: (Units=GPa)
#
#
# Indices 1 2 3 4 5 6 
#
# 1 134.5807 62.5965 47.6201 0.0000 0.0000 0.0000
# 2 62.5965 134.5807 47.6201 0.0000 0.0000 0.0000
# 3 47.6201 47.6201 81.0657 0.0000 0.0000 0.0000
# 4 0.0000 0.0000 0.0000 43.1142 0.0000 0.0000
# 5 0.0000 0.0000 0.0000 0.0000 43.1142 0.0000
# 6 0.0000 0.0000 0.0000 0.0000 0.0000 35.9921
#
#
#
# Elastic Compliance Matrix: (Units=1/GPa)
#
#
# Indices 1 2 3 4 5 6 
#
# 1 0.010486 -0.003406 -0.004159 0.000000 0.000000 0.000000
# 2 -0.003406 0.010486 -0.004159 0.000000 0.000000 0.000000
# 3 -0.004159 -0.004159 0.017222 0.000000 0.000000 0.000000
# 4 0.000000 0.000000 0.000000 0.023194 0.000000 0.000000
# 5 0.000000 0.000000 0.000000 0.000000 0.023194 0.000000
# 6 0.000000 0.000000 0.000000 0.000000 0.000000 0.027784
#
#
# Mechanical properties :
#
#
# Convention : Reuss Voigt Hill
#
# Bulk Modulus (GPa) = 67.81426 73.98893 70.90160
# Shear Modulus (GPa) = 35.52873 37.27013 36.39943
#
# Velocity S-wave (km/s) = 3.76628 3.85748 3.81215
# Velocity P-wave (km/s) = 6.78145 7.02712 6.90538
#
# Compressibility (1/GPa) = 0.01474616
#
# Stress axis : x y z
#
# Youngs Moduli (GPa) = 95.36273 95.36273 58.06437
#
# Poissons Ratio (x) = 0.32477 0.24151
# Poissons Ratio (y) = 0.32477 0.24151
# Poissons Ratio (z) = 0.39665 0.39665
#
# Static dielectric constant tensor:
#      x y z
#    x 4.681340 0.000000 0.000000 
#    y 0.000000 4.681340 0.000000 
#    z 0.000000 0.000000 4.471900 
# 
# 
# High freq. dielectric constant tensor:
#      x y z
#    x 2.011530 0.000000 0.000000 
#    y 0.000000 2.011530 0.000000 
#    z 0.000000 0.000000 2.003490 
# 
# From -- ./inp_files/4995.got.cif
#   From: 2010.03.12/outbox.cif.g09.slc.cpg/sg178_3_cif.got.tgz:4995.got - 2010.04.02 07:02:38.
