data_PCOD8325274
_publ_section_title
;
Structure prediction by ZEFSAII (Michael W. Deem and Ramdas Pophale) SiO2 
 PCOD8325274
Probable space group: P 6/M
;
_chemical_formula_sum "Si O2"
_cell_formula_units_Z 72
_cell_length_a 15.110633
_cell_length_b 15.110633
_cell_length_c 15.772034
_cell_angle_alpha 90.000000
_cell_angle_beta 90.000000
_cell_angle_gamma 120.000000
_cell_volume 3118.772182
_symmetry_space_group_name_H-M "P 6/M"
_symmetry_group_IT_number 175
_symmetry_cell_setting 'hexagonal'
loop_
_space_group_symop_operation_xyz
x,y,z
x-y,x,z
-y,x-y,z
-x,-y,z
-x+y,-x,z
y,-x+y,z
-x,-y,-z
-x+y,-x,-z
y,-x+y,-z
x,y,-z
x-y,x,-z
-y,x-y,-z
loop_
_atom_site_type_symbol
_atom_site_label
_atom_site_fract_x
_atom_site_fract_y
_atom_site_fract_z
Si Si1 0.847569 0.315718 0.091853
Si Si2 0.846330 0.076149 0.269345
Si Si3 0.748054 0.203844 0.328752
Si Si4 0.719372 0.736974 0.098555
Si Si5 0.112809 0.577604 0.597485
Si Si6 0.498696 0.652619 0.150178
O O1 0.875076 0.410275 0.153790
O O2 0.725381 0.242909 0.084864
O O3 0.896424 0.242776 0.116417
O O4 0.891030 0.363634 0.000000
O O5 0.783011 0.118653 0.321105
O O6 0.829928 0.065605 0.165892
O O7 0.962145 0.149702 0.298091
O O8 0.840741 0.316802 0.350053
O O9 0.658571 0.176029 0.397029
O O10 0.702271 0.205609 0.238841
O O11 0.602167 0.657399 0.121759
O O12 0.738952 0.777416 0.000000
O O13 0.107541 0.604730 0.500000
O O14 0.000000 0.500000 0.634240
#
# Coordination Sequence:
#
# PCOD8325274 Si02
#       6
#    12  12  12  12  12  12
#     4  11  21  34  52  77 114 160 214 271 325 386
#     4  11  24  42  65  92 126 173 229 288 341 389
#     4  11  23  41  65  96 135 170 210 262 323 396
#     4  10  21  37  56  80 115 162 218 280 342 395
#     4  11  24  43  69 100 133 169 207 252 318 403
#     4  11  22  34  52  79 113 158 205 256 318 389
#
# _framework density 23.086008
#
# number of rings (size 3 to 8) (size 9 to 14) (size 15 to 20)
#    0.000    1.167    0.000    7.333    0.000    7.333 
#    0.000    0.000    0.000    1.000    0.000    0.000 
#    0.000    8.667    0.000    0.000    0.000    0.000 
#
# Total GULP energy -891985.333852 kJ/mol
# GULP energy per Si atom -12388.685192 kJ/mol
# Density = 2.303346 g / cm^3
# Si number density = 23.086008 Si / 1000 Ang^3
#
#
#
# Elastic Constant Matrix: (Units=GPa)
#
#
# Indices 1 2 3 4 5 6 
#
# 1 113.1598 37.4160 23.9224 0.0000 0.0000 0.0000
# 2 37.4160 113.1598 23.9224 0.0000 0.0000 0.0000
# 3 23.9224 23.9224 68.7799 0.0000 0.0000 0.0000
# 4 0.0000 0.0000 0.0000 26.9061 0.0000 0.0000
# 5 0.0000 0.0000 0.0000 0.0000 26.9061 0.0000
# 6 0.0000 0.0000 0.0000 0.0000 0.0000 37.8719
#
#
#
# Elastic Compliance Matrix: (Units=1/GPa)
#
#
# Indices 1 2 3 4 5 6 
#
# 1 0.010334 -0.002868 -0.002597 0.000000 0.000000 0.000000
# 2 -0.002868 0.010334 -0.002597 0.000000 0.000000 0.000000
# 3 -0.002597 -0.002597 0.016346 0.000000 0.000000 0.000000
# 4 0.000000 0.000000 0.000000 0.037166 0.000000 0.000000
# 5 0.000000 0.000000 0.000000 0.000000 0.037166 0.000000
# 6 0.000000 0.000000 0.000000 0.000000 0.000000 0.026405
#
#
# Mechanical properties :
#
#
# Convention : Reuss Voigt Hill
#
# Bulk Modulus (GPa) = 47.86812 51.73568 49.80190
# Shear Modulus (GPa) = 31.08701 32.32605 31.70653
#
# Velocity S-wave (km/s) = 3.67355 3.74604 3.70997
# Velocity P-wave (km/s) = 6.22680 6.41631 6.32227
#
# Compressibility (1/GPa) = 0.02089073
#
# Stress axis : x y z
#
# Youngs Moduli (GPa) = 96.76456 96.76456 61.17863
#
# Poissons Ratio (x) = 0.27752 0.15887
# Poissons Ratio (y) = 0.27752 0.15887
# Poissons Ratio (z) = 0.25129 0.25129
#
# Static dielectric constant tensor:
#      x y z
#    x 4.337450 0.000000 0.000000 
#    y 0.000000 4.337450 0.000000 
#    z 0.000000 0.000000 3.914270 
# 
# 
# High freq. dielectric constant tensor:
#      x y z
#    x 1.920380 0.000000 0.000000 
#    y 0.000000 1.920380 0.000000 
#    z 0.000000 0.000000 1.884410 
# 
# From -- ./inp_files/2889.got.cif
#   From: 2010.03.12/outbox.cif.g09.slc.cpg/sg175_2_cif.got.tgz:2889.got - 2010.04.02 06:55:29.
