data_PCOD8325050
_publ_section_title
;
Structure prediction by ZEFSAII (Michael W. Deem and Ramdas Pophale) SiO2 
 PCOD8325050
Probable space group: P 6/M
;
_chemical_formula_sum "Si O2"
_cell_formula_units_Z 72
_cell_length_a 22.429369
_cell_length_b 22.429369
_cell_length_c 8.918815
_cell_angle_alpha 90.000000
_cell_angle_beta 90.000000
_cell_angle_gamma 120.000000
_cell_volume 3885.723546
_symmetry_space_group_name_H-M "P 6/M"
_symmetry_group_IT_number 175
_symmetry_cell_setting 'hexagonal'
loop_
_space_group_symop_operation_xyz
x,y,z
x-y,x,z
-y,x-y,z
-x,-y,z
-x+y,-x,z
y,-x+y,z
-x,-y,-z
-x+y,-x,-z
y,-x+y,-z
x,y,-z
x-y,x,-z
-y,x-y,-z
loop_
_atom_site_type_symbol
_atom_site_label
_atom_site_fract_x
_atom_site_fract_y
_atom_site_fract_z
Si Si1 0.504590 0.381735 0.673998
Si Si2 0.996833 0.388240 0.825309
Si Si3 0.639851 0.485172 0.174530
Si Si4 0.993912 0.741944 0.177696
Si Si5 0.153619 0.295964 0.178213
Si Si6 0.442903 0.222697 0.325524
O O1 0.519458 0.399612 0.500000
O O2 0.457466 0.411518 0.735607
O O3 0.576488 0.415975 0.760977
O O4 0.464921 0.300944 0.706065
O O5 0.005814 0.325637 0.762152
O O6 0.919958 0.370304 0.793485
O O7 0.015951 0.401926 0.000000
O O8 0.708159 0.497785 0.258952
O O9 0.647542 0.475079 0.000000
O O10 0.925464 0.741658 0.236817
O O11 0.062666 0.811180 0.232083
O O12 0.993795 0.739597 0.000000
O O13 0.197537 0.371779 0.242944
O O14 0.156565 0.303625 0.000000
O O15 0.433451 0.204672 0.500000
#
# Coordination Sequence:
#
# PCOD8325050 Si02
#       6
#    12  12  12  12  12  12
#     4  11  24  39  55  80 113 147 181 222 282 336
#     4  10  19  34  57  85 109 140 181 226 274 328
#     4  11  23  39  59  81 107 142 188 230 273 327
#     4   9  17  30  55  84 113 145 184 230 276 326
#     4  10  18  34  57  83 112 148 189 230 275 330
#     4  11  23  38  56  80 110 145 182 230 284 332
#
# _framework density 18.529367000000001
#
# number of rings (size 3 to 8) (size 9 to 14) (size 15 to 20)
#    0.000    1.667    3.333    2.000    0.000    5.333 
#    1.000    0.833    0.000    0.333    0.000    2.333 
#    0.000    0.000    0.000    1.500    0.000    1.667 
#
# Total GULP energy -892975.410754 kJ/mol
# GULP energy per Si atom -12402.436260 kJ/mol
# Density = 1.848719 g / cm^3
# Si number density = 18.529367 Si / 1000 Ang^3
#
#
#
# Elastic Constant Matrix: (Units=GPa)
#
#
# Indices 1 2 3 4 5 6 
#
# 1 77.8629 17.0985 27.1072 0.0000 0.0000 0.0000
# 2 17.0985 77.8629 27.1072 0.0000 0.0000 0.0000
# 3 27.1072 27.1072 46.4654 0.0000 0.0000 0.0000
# 4 0.0000 0.0000 0.0000 21.3025 0.0000 0.0000
# 5 0.0000 0.0000 0.0000 0.0000 21.3025 0.0000
# 6 0.0000 0.0000 0.0000 0.0000 0.0000 30.3822
#
#
#
# Elastic Compliance Matrix: (Units=1/GPa)
#
#
# Indices 1 2 3 4 5 6 
#
# 1 0.016123 -0.000334 -0.009211 0.000000 0.000000 0.000000
# 2 -0.000334 0.016123 -0.009211 0.000000 0.000000 0.000000
# 3 -0.009211 -0.009211 0.032269 0.000000 0.000000 0.000000
# 4 0.000000 0.000000 0.000000 0.046943 0.000000 0.000000
# 5 0.000000 0.000000 0.000000 0.000000 0.046943 0.000000
# 6 0.000000 0.000000 0.000000 0.000000 0.000000 0.032914
#
#
# Mechanical properties :
#
#
# Convention : Reuss Voigt Hill
#
# Bulk Modulus (GPa) = 37.03363 38.31299 37.67331
# Shear Modulus (GPa) = 21.02356 23.32268 22.17312
#
# Velocity S-wave (km/s) = 3.37205 3.55165 3.46301
# Velocity P-wave (km/s) = 5.93218 6.12705 6.03040
#
# Compressibility (1/GPa) = 0.02700248
#
# Stress axis : x y z
#
# Youngs Moduli (GPa) = 62.02246 62.02246 30.98968
#
# Poissons Ratio (x) = 0.02070 0.28545
# Poissons Ratio (y) = 0.02070 0.28545
# Poissons Ratio (z) = 0.57131 0.57131
#
# Static dielectric constant tensor:
#      x y z
#    x 3.574570 0.000000 0.000000 
#    y 0.000000 3.574570 0.000000 
#    z 0.000000 0.000000 3.265430 
# 
# 
# High freq. dielectric constant tensor:
#      x y z
#    x 1.718000 0.000000 0.000000 
#    y 0.000000 1.718000 0.000000 
#    z 0.000000 0.000000 1.705030 
# 
# From -- ./inp_files/1236.got.cif
#   From: 2010.03.12/outbox.cif.g09.slc.cpg/sg175_1_cif.got.tgz:1236.got - 2010.04.02 06:55:29.
