data_PCOD8325343
_publ_section_title
;
Structure prediction by ZEFSAII (Michael W. Deem and Ramdas Pophale) SiO2 
 PCOD8325343
Probable space group: P 6/M
;
_chemical_formula_sum "Si O2"
_cell_formula_units_Z 78
_cell_length_a 25.159648
_cell_length_b 25.159648
_cell_length_c 7.785120
_cell_angle_alpha 90.000000
_cell_angle_beta 90.000000
_cell_angle_gamma 120.000000
_cell_volume 4267.809879
_symmetry_space_group_name_H-M "P 6/M"
_symmetry_group_IT_number 175
_symmetry_cell_setting 'hexagonal'
loop_
_space_group_symop_operation_xyz
x,y,z
x-y,x,z
-y,x-y,z
-x,-y,z
-x+y,-x,z
y,-x+y,z
-x,-y,-z
-x+y,-x,-z
y,-x+y,-z
x,y,-z
x-y,x,-z
-y,x-y,-z
loop_
_atom_site_type_symbol
_atom_site_label
_atom_site_fract_x
_atom_site_fract_y
_atom_site_fract_z
Si Si1 0.671632 0.403301 0.000000
Si Si2 0.377786 0.302185 0.198729
Si Si3 0.154008 0.260016 0.794789
Si Si4 0.239432 0.211173 0.203347
Si Si5 0.679347 0.484319 0.683286
Si Si6 0.042728 0.440054 0.500000
Si Si7 0.189790 0.793317 0.197509
Si Si8 0.512070 0.091153 0.500000
O O1 0.608314 0.337894 0.000000
O O2 0.675069 0.440151 0.832522
O O3 0.306330 0.266604 0.253949
O O4 0.413720 0.358890 0.325809
O O5 0.405294 0.257156 0.221492
O O6 0.385424 0.324777 0.000000
O O7 0.186588 0.223340 0.720021
O O8 0.191690 0.330253 0.730814
O O9 0.083711 0.229791 0.726454
O O10 0.153599 0.259869 0.000000
O O11 0.234517 0.207627 0.000000
O O12 0.688158 0.458356 0.500000
O O13 0.736162 0.552463 0.700121
O O14 0.616639 0.487807 0.670759
O O15 0.086538 0.513222 0.500000
O O16 0.973182 0.423832 0.500000
O O17 0.177132 0.774012 0.000000
#
# Coordination Sequence:
#
# PCOD8325343 Si02
#       8
#     6  12  12  12  12   6  12   6
#     4  10  24  44  64  89 112 144 190 244 284 349
#     4   9  20  35  57  87 107 147 190 232 292 337
#     4   8  14  24  45  73 107 143 184 233 278 332
#     4   8  14  26  44  74 106 139 185 229 281 331
#     4  10  22  41  60  88 114 152 185 235 290 348
#     4  11  22  45  56  80 120 152 187 240 262 348
#     4   9  17  33  55  85 113 141 189 236 285 349
#     4   9  26  43  56  84 118 150 197 221 281 347
#
# _framework density 18.276353
#
# number of rings (size 3 to 8) (size 9 to 14) (size 15 to 20)
#    0.615    2.308    0.769    1.846    3.231    1.846 
#    2.769    0.769    0.000    0.308    0.000    2.154 
#    0.000    0.000    0.000    0.000    0.000    5.231 
#
# Total GULP energy -966479.662890 kJ/mol
# GULP energy per Si atom -12390.764909 kJ/mol
# Density = 1.823476 g / cm^3
# Si number density = 18.276353 Si / 1000 Ang^3
#
#
#
# Elastic Constant Matrix: (Units=GPa)
#
#
# Indices 1 2 3 4 5 6 
#
# 1 136.8937 82.8203 50.4277 0.0000 0.0000 0.0000
# 2 82.8203 136.8937 50.4277 0.0000 0.0000 0.0000
# 3 50.4277 50.4277 85.4186 0.0000 0.0000 0.0000
# 4 0.0000 0.0000 0.0000 -17.9389 0.0000 0.0000
# 5 0.0000 0.0000 0.0000 0.0000 -17.9389 0.0000
# 6 0.0000 0.0000 0.0000 0.0000 0.0000 27.0367
#
#
#
# Elastic Compliance Matrix: (Units=1/GPa)
#
#
# Indices 1 2 3 4 5 6 
#
# 1 0.012368 -0.006125 -0.003686 0.000000 0.000000 0.000000
# 2 -0.006125 0.012368 -0.003686 0.000000 0.000000 0.000000
# 3 -0.003686 -0.003686 0.016059 0.000000 0.000000 0.000000
# 4 0.000000 0.000000 0.000000 -0.055745 0.000000 0.000000
# 5 0.000000 0.000000 0.000000 0.000000 -0.055745 0.000000
# 6 0.000000 0.000000 0.000000 0.000000 0.000000 0.036987
#
#
# Mechanical properties :
#
#
# Convention : Reuss Voigt Hill
#
# Bulk Modulus (GPa) = 72.45144 80.72860 76.59002
# Shear Modulus (GPa) = -2365.83890 9.93380 -1177.95255
#
# Velocity S-wave (km/s) = -36.01793 2.33391 -25.41499
# Velocity P-wave (km/s) = 41.10953 7.17843 28.62222
#
# Compressibility (1/GPa) = 0.01380235
#
# Stress axis : x y z
#
# Youngs Moduli (GPa) = 80.85173 80.85173 62.27073
#
# Poissons Ratio (x) = 0.49522 0.22952
# Poissons Ratio (y) = 0.49522 0.22952
# Poissons Ratio (z) = 0.29800 0.29800
#
# Static dielectric constant tensor:
#      x y z
#    x 3.497100 0.000000 0.000000 
#    y 0.000000 3.497100 0.000000 
#    z 0.000000 0.000000 3.133930 
# 
# 
# High freq. dielectric constant tensor:
#      x y z
#    x 1.702650 0.000000 0.000000 
#    y 0.000000 1.702650 0.000000 
#    z 0.000000 0.000000 1.693060 
# 
# From -- ./inp_files/1393.got.cif
#   From: 2010.03.12/outbox.cif.g09.slc.cpg/sg175_1_cif.got.tgz:1393.got - 2010.04.02 06:55:29.
