data_PCOD8325384
_publ_section_title
;
Structure prediction by ZEFSAII (Michael W. Deem and Ramdas Pophale) SiO2 
 PCOD8325384
Probable space group: P 6/M
;
_chemical_formula_sum "Si O2"
_cell_formula_units_Z 48
_cell_length_a 16.772660
_cell_length_b 16.772660
_cell_length_c 10.206081
_cell_angle_alpha 90.000000
_cell_angle_beta 90.000000
_cell_angle_gamma 120.000000
_cell_volume 2486.529004
_symmetry_space_group_name_H-M "P 6/M"
_symmetry_group_IT_number 175
_symmetry_cell_setting 'hexagonal'
loop_
_space_group_symop_operation_xyz
x,y,z
x-y,x,z
-y,x-y,z
-x,-y,z
-x+y,-x,z
y,-x+y,z
-x,-y,-z
-x+y,-x,-z
y,-x+y,-z
x,y,-z
x-y,x,-z
-y,x-y,-z
loop_
_atom_site_type_symbol
_atom_site_label
_atom_site_fract_x
_atom_site_fract_y
_atom_site_fract_z
Si Si1 0.879793 0.514262 0.353509
Si Si2 0.875177 0.094024 0.000000
Si Si3 0.645261 0.550877 0.646237
Si Si4 0.344371 0.181230 0.747733
Si Si5 0.131046 0.914075 0.500000
O O1 0.839430 0.507761 0.500000
O O2 0.854933 0.411428 0.306284
O O3 0.841904 0.561642 0.253623
O O4 0.988035 0.575779 0.358767
O O5 0.835262 0.120348 0.123776
O O6 0.985507 0.146668 0.000000
O O7 0.685687 0.555948 0.500000
O O8 0.727828 0.618070 0.742053
O O9 0.280034 0.172932 0.626761
O O10 0.021285 0.857768 0.500000
#
# Coordination Sequence:
#
# PCOD8325384 Si02
#       5
#    12   6  12  12   6
#     4   9  17  32  56  86 117 147 186 245 310 370
#     4  12  27  44  62  86 126 174 222 270 319 374
#     4   9  17  32  56  86 117 147 186 245 310 370
#     4  12  22  38  61  88 118 164 211 254 313 388
#     4  12  23  36  58  86 118 154 210 278 327 372
#
# _framework density 19.304017000000002
#
# number of rings (size 3 to 8) (size 9 to 14) (size 15 to 20)
#    0.000    1.500    2.500    6.250    0.000    0.000 
#    1.500    3.750    0.000    4.500    0.000    0.000 
#    0.000    0.000    0.000    0.000    0.000    0.000 
#
# Total GULP energy -594875.720532 kJ/mol
# GULP energy per Si atom -12393.244178 kJ/mol
# Density = 1.926008 g / cm^3
# Si number density = 19.304017 Si / 1000 Ang^3
#
#
#
# Elastic Constant Matrix: (Units=GPa)
#
#
# Indices 1 2 3 4 5 6 
#
# 1 77.9416 -3.5449 28.7696 0.0000 0.0000 0.0000
# 2 -3.5449 77.9416 28.7696 0.0000 0.0000 0.0000
# 3 28.7696 28.7696 103.7148 0.0000 0.0000 0.0000
# 4 0.0000 0.0000 0.0000 18.4367 0.0000 0.0000
# 5 0.0000 0.0000 0.0000 0.0000 18.4367 0.0000
# 6 0.0000 0.0000 0.0000 0.0000 0.0000 40.7432
#
#
#
# Elastic Compliance Matrix: (Units=1/GPa)
#
#
# Indices 1 2 3 4 5 6 
#
# 1 0.014692 0.002420 -0.004747 0.000000 0.000000 0.000000
# 2 0.002420 0.014692 -0.004747 0.000000 0.000000 0.000000
# 3 -0.004747 -0.004747 0.012275 0.000000 0.000000 0.000000
# 4 0.000000 0.000000 0.000000 0.054240 0.000000 0.000000
# 5 0.000000 0.000000 0.000000 0.000000 0.054240 0.000000
# 6 0.000000 0.000000 0.000000 0.000000 0.000000 0.024544
#
#
# Mechanical properties :
#
#
# Convention : Reuss Voigt Hill
#
# Bulk Modulus (GPa) = 36.34622 40.84296 38.59459
# Shear Modulus (GPa) = 25.25238 29.23025 27.24131
#
# Velocity S-wave (km/s) = 3.62075 3.89550 3.76063
# Velocity P-wave (km/s) = 6.02901 6.43715 6.23642
#
# Compressibility (1/GPa) = 0.02751318
#
# Stress axis : x y z
#
# Youngs Moduli (GPa) = 68.06240 68.06240 81.46402
#
# Poissons Ratio (x) = -0.16474 0.38671
# Poissons Ratio (y) = -0.16474 0.38671
# Poissons Ratio (z) = 0.32309 0.32309
#
# Static dielectric constant tensor:
#      x y z
#    x 3.955340 0.000000 0.000000 
#    y 0.000000 3.955340 0.000000 
#    z 0.000000 0.000000 2.907620 
# 
# 
# High freq. dielectric constant tensor:
#      x y z
#    x 1.763280 0.000000 0.000000 
#    y 0.000000 1.763280 0.000000 
#    z 0.000000 0.000000 1.703000 
# 
# From -- ./inp_files/633.got.cif
#   From: 2010.03.12/outbox.cif.g09.slc.cpg/sg175_1_cif.got.tgz:633.got - 2010.04.02 06:55:29.
