data_PCOD8325580
_publ_section_title
;
Structure prediction by ZEFSAII (Michael W. Deem and Ramdas Pophale) SiO2 
 PCOD8325580
Probable space group: P 63/M
;
_chemical_formula_sum "Si O2"
_cell_formula_units_Z 66
_cell_length_a 11.900466
_cell_length_b 11.900466
_cell_length_c 26.167297
_cell_angle_alpha 90.000000
_cell_angle_beta 90.000000
_cell_angle_gamma 120.000000
_cell_volume 3209.352578
_symmetry_space_group_name_H-M "P 63/M"
_symmetry_group_IT_number 176
_symmetry_cell_setting 'hexagonal'
loop_
_space_group_symop_operation_xyz
x,y,z
x-y,x,1/2+z
-y,x-y,z
-x,-y,1/2+z
-x+y,-x,z
y,-x+y,1/2+z
-x,-y,-z
-x+y,-x,1/2-z
y,-x+y,-z
x,y,1/2-z
x-y,x,-z
-y,x-y,1/2-z
loop_
_atom_site_type_symbol
_atom_site_label
_atom_site_fract_x
_atom_site_fract_y
_atom_site_fract_z
Si Si1 0.161170 0.128122 0.750000
Si Si2 0.551025 0.929521 0.192603
Si Si3 0.351287 0.422895 0.921312
Si Si4 0.615481 0.720755 0.331318
Si Si5 0.099209 0.412769 0.896180
Si Si6 0.255435 0.024640 0.986268
O O1 0.249989 0.199924 0.799652
O O2 0.028704 0.138810 0.750000
O O3 0.601885 0.936187 0.250000
O O4 0.541239 0.803073 0.165247
O O5 0.415738 0.928813 0.194474
O O6 0.660348 0.054240 0.162522
O O7 0.353917 0.309384 0.888096
O O8 0.250270 0.459031 0.895632
O O9 0.487703 0.552636 0.923021
O O10 0.316777 0.384297 0.980334
O O11 0.021393 0.281630 0.929120
O O12 0.141671 0.913228 0.019740
#
# Coordination Sequence:
#
# PCOD8325580 Si02
#       6
#     6  12  12  12  12  12
#     4  10  24  38  58  88 126 164 198 246 300 366
#     4  11  21  37  60  85 118 157 206 250 297 354
#     4  10  22  38  60  85 118 151 202 248 303 368
#     4  11  22  39  60  90 119 164 207 253 307 354
#     4  10  22  37  59  82 114 155 192 246 301 363
#     4  10  20  38  59  85 115 149 190 243 303 364
#
# _framework density 20.564896999999998
#
# number of rings (size 3 to 8) (size 9 to 14) (size 15 to 20)
#    0.182    1.455    1.818    2.545    2.545    0.000 
#    0.000    0.000    0.000   11.636    0.000    0.000 
#    0.000    0.000    0.000    0.000    0.000    0.000 
#
# Total GULP energy -818239.050050 kJ/mol
# GULP energy per Si atom -12397.561364 kJ/mol
# Density = 2.051809 g / cm^3
# Si number density = 20.564897 Si / 1000 Ang^3
#
#
#
# Elastic Constant Matrix: (Units=GPa)
#
#
# Indices 1 2 3 4 5 6 
#
# 1 70.8504 39.4690 15.3579 0.0000 0.0000 0.0000
# 2 39.4690 70.8504 15.3579 0.0000 0.0000 0.0000
# 3 15.3579 15.3579 52.1849 0.0000 0.0000 0.0000
# 4 0.0000 0.0000 0.0000 6.0984 0.0000 0.0000
# 5 0.0000 0.0000 0.0000 0.0000 6.0984 0.0000
# 6 0.0000 0.0000 0.0000 0.0000 0.0000 15.6907
#
#
#
# Elastic Compliance Matrix: (Units=1/GPa)
#
#
# Indices 1 2 3 4 5 6 
#
# 1 0.020870 -0.010996 -0.002906 0.000000 0.000000 0.000000
# 2 -0.010996 0.020870 -0.002906 0.000000 0.000000 0.000000
# 3 -0.002906 -0.002906 0.020873 0.000000 0.000000 0.000000
# 4 0.000000 0.000000 0.000000 0.163978 0.000000 0.000000
# 5 0.000000 0.000000 0.000000 0.000000 0.163978 0.000000
# 6 0.000000 0.000000 0.000000 0.000000 0.000000 0.063732
#
#
# Mechanical properties :
#
#
# Convention : Reuss Voigt Hill
#
# Bulk Modulus (GPa) = 34.48623 37.13948 35.81286
# Shear Modulus (GPa) = 10.04861 13.82423 11.93642
#
# Velocity S-wave (km/s) = 2.21289 2.59554 2.41182
# Velocity P-wave (km/s) = 4.83064 5.20397 5.02078
#
# Compressibility (1/GPa) = 0.02899708
#
# Stress axis : x y z
#
# Youngs Moduli (GPa) = 47.91614 47.91614 47.90887
#
# Poissons Ratio (x) = 0.52689 0.13921
# Poissons Ratio (y) = 0.52689 0.13921
# Poissons Ratio (z) = 0.13923 0.13923
#
# Static dielectric constant tensor:
#      x y z
#    x 3.718360 0.000000 0.000000 
#    y 0.000000 3.718360 0.000000 
#    z 0.000000 0.000000 3.651530 
# 
# 
# High freq. dielectric constant tensor:
#      x y z
#    x 1.806210 0.000000 0.000000 
#    y 0.000000 1.806210 0.000000 
#    z 0.000000 0.000000 1.798870 
# 
# From -- ./inp_files/4477.got.cif
#   From: 2010.06.25/outbox.cif.g09.slc.cpg/sg176_3_cif.got.tgz:4477.got - 2010.06.28 12:15:01.
