data_PCOD8325828
_publ_section_title
;
Structure prediction by ZEFSAII (Michael W. Deem and Ramdas Pophale) SiO2 
 PCOD8325828
Probable space group: P 61 2 2
;
_chemical_formula_sum "Si O2"
_cell_formula_units_Z 72
_cell_length_a 14.180429
_cell_length_b 14.180429
_cell_length_c 22.403530
_cell_angle_alpha 90.000000
_cell_angle_beta 90.000000
_cell_angle_gamma 120.000000
_cell_volume 3901.448013
_symmetry_space_group_name_H-M "P 61 2 2"
_symmetry_group_IT_number 178
_symmetry_cell_setting 'hexagonal'
loop_
_space_group_symop_operation_xyz
x,y,z
x-y,x,1/6+z
-y,x-y,1/3+z
-x,-y,1/2+z
-x+y,-x,2/3+z
y,-x+y,5/6+z
x-y,-y,-z
-x,-x+y,2/3-z
y,x,1/3-z
-y,-x,5/6-z
-x+y,y,1/2-z
x,x-y,1/6-z
loop_
_atom_site_type_symbol
_atom_site_label
_atom_site_fract_x
_atom_site_fract_y
_atom_site_fract_z
Si Si1 0.562208 0.105796 0.336136
Si Si2 0.737618 0.861439 0.953038
Si Si3 0.185915 0.092958 0.583334
Si Si4 0.688452 0.345796 0.318943
Si Si5 0.996833 0.367162 0.585874
Si Si6 0.358364 0.459429 0.623331
Si Si7 0.818368 0.409184 0.083334
O O1 0.668850 0.225139 0.329730
O O2 0.464263 0.097379 0.293651
O O3 0.607967 0.025912 0.315177
O O4 0.512000 0.071172 0.401544
O O5 0.734054 0.752279 0.926380
O O6 0.632451 0.870917 0.934449
O O7 0.849237 0.962408 0.926861
O O8 0.738715 0.855778 0.025123
O O9 0.685579 0.371158 0.250000
O O10 0.801428 0.440143 0.343516
O O11 0.591829 0.341430 0.359239
O O12 0.111130 0.468458 0.607321
O O13 0.402258 0.402258 0.666667
#
# Coordination Sequence:
#
# PCOD8325828 Si02
#       7
#    12  12   6  12  12  12   6
#     4  10  21  40  53  86 125 158 206 245 295 373
#     4  11  21  38  59  92 121 164 189 269 308 382
#     4  10  22  36  58  89 127 140 204 248 336 352
#     4  12  22  36  57  85 123 163 195 250 310 359
#     4  10  21  36  59  82 119 160 211 238 299 373
#     4  12  24  35  58  89 125 156 197 251 319 361
#     4  10  20  34  52  81 115 158 188 248 288 368
#
# _framework density 18.454685999999999
#
# number of rings (size 3 to 8) (size 9 to 14) (size 15 to 20)
#    0.000    1.333    6.667    1.000    5.833    0.000 
#    0.000    0.000    0.000    0.000   21.667    0.000 
#    0.000    0.000    0.000    0.000    0.000    0.000 
#
# Total GULP energy -892073.747013 kJ/mol
# GULP energy per Si atom -12389.913153 kJ/mol
# Density = 1.841268 g / cm^3
# Si number density = 18.454686 Si / 1000 Ang^3
#
#
#
# Elastic Constant Matrix: (Units=GPa)
#
#
# Indices 1 2 3 4 5 6 
#
# 1 93.6700 40.8601 21.0990 0.0000 0.0000 0.0000
# 2 40.8601 93.6700 21.0990 0.0000 0.0000 0.0000
# 3 21.0990 21.0990 104.5095 0.0000 0.0000 0.0000
# 4 0.0000 0.0000 0.0000 25.7184 0.0000 0.0000
# 5 0.0000 0.0000 0.0000 0.0000 25.7184 0.0000
# 6 0.0000 0.0000 0.0000 0.0000 0.0000 26.4049
#
#
#
# Elastic Compliance Matrix: (Units=1/GPa)
#
#
# Indices 1 2 3 4 5 6 
#
# 1 0.013436 -0.005500 -0.001602 0.000000 0.000000 0.000000
# 2 -0.005500 0.013436 -0.001602 0.000000 0.000000 0.000000
# 3 -0.001602 -0.001602 0.010215 0.000000 0.000000 0.000000
# 4 0.000000 0.000000 0.000000 0.038883 0.000000 0.000000
# 5 0.000000 0.000000 0.000000 0.000000 0.038883 0.000000
# 6 0.000000 0.000000 0.000000 0.000000 0.000000 0.037872
#
#
# Mechanical properties :
#
#
# Convention : Reuss Voigt Hill
#
# Bulk Modulus (GPa) = 50.81682 50.88508 50.85095
# Shear Modulus (GPa) = 28.29781 29.48778 28.89280
#
# Velocity S-wave (km/s) = 3.92007 4.00165 3.96107
# Velocity P-wave (km/s) = 6.93434 6.99884 6.96666
#
# Compressibility (1/GPa) = 0.01967852
#
# Stress axis : x y z
#
# Youngs Moduli (GPa) = 74.42784 74.42784 97.89146
#
# Poissons Ratio (x) = 0.40935 0.15683
# Poissons Ratio (y) = 0.40935 0.15683
# Poissons Ratio (z) = 0.11924 0.11924
#
# Static dielectric constant tensor:
#      x y z
#    x 3.494390 0.000000 0.000000 
#    y 0.000000 3.494390 0.000000 
#    z 0.000000 0.000000 4.131890 
# 
# 
# High freq. dielectric constant tensor:
#      x y z
#    x 1.701990 0.000000 0.000000 
#    y 0.000000 1.701990 0.000000 
#    z 0.000000 0.000000 1.719200 
# 
# From -- ./inp_files/8282.got.cif
#   From: 2010.03.12/outbox.cif.g09.slc.cpg/sg178_5_cif.got.tgz:8282.got - 2010.04.02 07:02:38.
