data_PCOD8325248
_publ_section_title
;
Structure prediction by ZEFSAII (Michael W. Deem and Ramdas Pophale) SiO2 
 PCOD8325248
Probable space group: P 6/M
;
_chemical_formula_sum "Si O2"
_cell_formula_units_Z 54
_cell_length_a 13.343665
_cell_length_b 13.343665
_cell_length_c 15.920522
_cell_angle_alpha 90.000000
_cell_angle_beta 90.000000
_cell_angle_gamma 120.000000
_cell_volume 2454.924812
_symmetry_space_group_name_H-M "P 6/M"
_symmetry_group_IT_number 175
_symmetry_cell_setting 'hexagonal'
loop_
_space_group_symop_operation_xyz
x,y,z
x-y,x,z
-y,x-y,z
-x,-y,z
-x+y,-x,z
y,-x+y,z
-x,-y,-z
-x+y,-x,-z
y,-x+y,-z
x,y,-z
x-y,x,-z
-y,x-y,-z
loop_
_atom_site_type_symbol
_atom_site_label
_atom_site_fract_x
_atom_site_fract_y
_atom_site_fract_z
Si Si1 0.273143 0.148794 0.500000
Si Si2 0.380498 0.883120 0.090703
Si Si3 0.067058 0.262174 0.828651
Si Si4 0.451291 0.868871 0.257616
Si Si5 0.228255 0.825217 0.327680
O O1 0.186197 0.197617 0.500000
O O2 0.357219 0.193213 0.420830
O O3 0.275562 0.906729 0.111596
O O4 0.393968 0.807908 0.167366
O O5 0.500000 0.000000 0.078477
O O6 0.350467 0.817228 0.000000
O O7 0.157224 0.218017 0.846265
O O8 0.078184 0.303329 0.731070
O O9 0.352800 0.830987 0.329090
O O10 0.559005 0.858873 0.288863
O O11 0.500000 0.000000 0.234511
#
# Coordination Sequence:
#
# PCOD8325248 Si02
#       5
#     6  12  12  12  12
#     4  12  25  42  64  94 132 178 231 282 340 416
#     4   9  19  37  61  86 116 160 213 270 330 392
#     4  11  22  38  61  92 133 180 227 276 335 407
#     4  10  20  39  62  88 123 159 206 267 328 395
#     4  11  23  40  64  93 127 173 223 279 344 405
#
# _framework density 21.996600999999998
#
# number of rings (size 3 to 8) (size 9 to 14) (size 15 to 20)
#    0.000    1.556    0.000    7.444    0.000    1.778 
#    0.000   11.111    0.000    2.222    0.000    0.000 
#    0.000    0.000    0.000    0.000    0.000    0.000 
#
# Total GULP energy -669098.991915 kJ/mol
# GULP energy per Si atom -12390.722072 kJ/mol
# Density = 2.194654 g / cm^3
# Si number density = 21.996601 Si / 1000 Ang^3
#
#
#
# Elastic Constant Matrix: (Units=GPa)
#
#
# Indices 1 2 3 4 5 6 
#
# 1 113.3806 33.3248 64.0591 0.0000 0.0000 0.0000
# 2 33.3248 113.3806 64.0591 0.0000 0.0000 0.0000
# 3 64.0591 64.0591 196.6091 0.0000 0.0000 0.0000
# 4 0.0000 0.0000 0.0000 14.5364 0.0000 0.0000
# 5 0.0000 0.0000 0.0000 0.0000 14.5364 0.0000
# 6 0.0000 0.0000 0.0000 0.0000 0.0000 40.0279
#
#
#
# Elastic Compliance Matrix: (Units=1/GPa)
#
#
# Indices 1 2 3 4 5 6 
#
# 1 0.011009 -0.001482 -0.003104 0.000000 0.000000 0.000000
# 2 -0.001482 0.011009 -0.003104 0.000000 0.000000 0.000000
# 3 -0.003104 -0.003104 0.007109 0.000000 0.000000 0.000000
# 4 0.000000 0.000000 0.000000 0.068793 0.000000 0.000000
# 5 0.000000 0.000000 0.000000 0.000000 0.068793 0.000000
# 6 0.000000 0.000000 0.000000 0.000000 0.000000 0.024983
#
#
# Mechanical properties :
#
#
# Convention : Reuss Voigt Hill
#
# Bulk Modulus (GPa) = 72.74378 82.91737 77.83057
# Shear Modulus (GPa) = 23.62289 31.28194 27.45242
#
# Velocity S-wave (km/s) = 3.28065 3.77520 3.53658
# Velocity P-wave (km/s) = 6.89148 7.53526 7.22055
#
# Compressibility (1/GPa) = 0.01374688
#
# Stress axis : x y z
#
# Youngs Moduli (GPa) = 90.83248 90.83248 140.66610
#
# Poissons Ratio (x) = 0.13462 0.43665
# Poissons Ratio (y) = 0.13462 0.43665
# Poissons Ratio (z) = 0.28196 0.28196
#
# Static dielectric constant tensor:
#      x y z
#    x 4.271720 0.000000 0.000000 
#    y 0.000000 4.271720 0.000000 
#    z 0.000000 0.000000 4.082250 
# 
# 
# High freq. dielectric constant tensor:
#      x y z
#    x 1.869690 0.000000 0.000000 
#    y 0.000000 1.869690 0.000000 
#    z 0.000000 0.000000 1.858290 
# 
# From -- ./inp_files/2313.got.cif
#   From: 2010.03.12/outbox.cif.g09.slc.cpg/sg175_2_cif.got.tgz:2313.got - 2010.04.02 06:55:29.
