data_PCOD8325046
_publ_section_title
;
Structure prediction by ZEFSAII (Michael W. Deem and Ramdas Pophale) SiO2 
 PCOD8325046
Probable space group: P 6/M
;
_chemical_formula_sum "Si O2"
_cell_formula_units_Z 72
_cell_length_a 22.681691
_cell_length_b 22.681691
_cell_length_c 9.155111
_cell_angle_alpha 90.000000
_cell_angle_beta 90.000000
_cell_angle_gamma 120.000000
_cell_volume 4078.919226
_symmetry_space_group_name_H-M "P 6/M"
_symmetry_group_IT_number 175
_symmetry_cell_setting 'hexagonal'
loop_
_space_group_symop_operation_xyz
x,y,z
x-y,x,z
-y,x-y,z
-x,-y,z
-x+y,-x,z
y,-x+y,z
-x,-y,-z
-x+y,-x,-z
y,-x+y,-z
x,y,-z
x-y,x,-z
-y,x-y,-z
loop_
_atom_site_type_symbol
_atom_site_label
_atom_site_fract_x
_atom_site_fract_y
_atom_site_fract_z
Si Si1 0.436144 0.212680 0.332487
Si Si2 0.623725 0.502902 0.669113
Si Si3 0.384763 0.996941 0.827371
Si Si4 0.994824 0.250266 0.173003
Si Si5 0.496542 0.365248 0.665538
Si Si6 0.142700 0.294304 0.826289
O O1 0.412446 0.194370 0.500000
O O2 0.475567 0.174680 0.276294
O O3 0.490460 0.292233 0.313899
O O4 0.369962 0.191305 0.236190
O O5 0.624048 0.520803 0.500000
O O6 0.595742 0.543938 0.759366
O O7 0.574133 0.422808 0.698973
O O8 0.324155 0.008724 0.768014
O O9 0.369908 0.923484 0.780024
O O10 0.390315 0.002683 0.000000
O O11 0.064059 0.252905 0.229071
O O12 0.927308 0.181656 0.227571
O O13 0.996391 0.252497 0.000000
O O14 0.476263 0.373635 0.500000
O O15 0.146137 0.301517 0.000000
#
# Coordination Sequence:
#
# PCOD8325046 Si02
#       6
#    12  12  12  12  12  12
#     4  10  20  34  52  74  97 131 173 213 253 298
#     4  10  21  36  51  71 102 136 168 209 260 305
#     4  11  20  32  53  80 101 130 169 207 254 307
#     4   9  18  30  52  78 104 133 163 202 251 301
#     4  10  21  36  51  71 102 136 168 209 260 305
#     4  10  18  34  54  77 104 134 168 206 253 303
#
# _framework density 17.651734999999999
#
# number of rings (size 3 to 8) (size 9 to 14) (size 15 to 20)
#    0.000    2.000    3.333    1.000    0.000    2.667 
#    1.000    0.833    0.000    0.333    0.000    2.333 
#    0.000    0.000    0.000    1.500    0.000    1.667 
#
# Total GULP energy -892726.976104 kJ/mol
# GULP energy per Si atom -12398.985779 kJ/mol
# Density = 1.761156 g / cm^3
# Si number density = 17.651735 Si / 1000 Ang^3
#
#
#
# Elastic Constant Matrix: (Units=GPa)
#
#
# Indices 1 2 3 4 5 6 
#
# 1 108.7630 42.1302 18.5501 0.0000 0.0000 0.0000
# 2 42.1302 108.7630 18.5501 0.0000 0.0000 0.0000
# 3 18.5501 18.5501 32.4494 0.0000 0.0000 0.0000
# 4 0.0000 0.0000 0.0000 19.1041 0.0000 0.0000
# 5 0.0000 0.0000 0.0000 0.0000 19.1041 0.0000
# 6 0.0000 0.0000 0.0000 0.0000 0.0000 33.3164
#
#
#
# Elastic Compliance Matrix: (Units=1/GPa)
#
#
# Indices 1 2 3 4 5 6 
#
# 1 0.011359 -0.003648 -0.004408 0.000000 0.000000 0.000000
# 2 -0.003648 0.011359 -0.004408 0.000000 0.000000 0.000000
# 3 -0.004408 -0.004408 0.035857 0.000000 0.000000 0.000000
# 4 0.000000 0.000000 0.000000 0.052345 0.000000 0.000000
# 5 0.000000 0.000000 0.000000 0.000000 0.052345 0.000000
# 6 0.000000 0.000000 0.000000 0.000000 0.000000 0.030015
#
#
# Mechanical properties :
#
#
# Convention : Reuss Voigt Hill
#
# Bulk Modulus (GPa) = 29.72054 45.38179 37.55117
# Shear Modulus (GPa) = 21.79362 25.68795 23.74079
#
# Velocity S-wave (km/s) = 3.51756 3.81893 3.67134
# Velocity P-wave (km/s) = 5.77680 6.72391 6.26827
#
# Compressibility (1/GPa) = 0.03364676
#
# Stress axis : x y z
#
# Youngs Moduli (GPa) = 88.03345 88.03345 27.88845
#
# Poissons Ratio (x) = 0.32117 0.12294
# Poissons Ratio (y) = 0.32117 0.12294
# Poissons Ratio (z) = 0.38806 0.38806
#
# Static dielectric constant tensor:
#      x y z
#    x 3.480580 0.000000 0.000000 
#    y 0.000000 3.480580 0.000000 
#    z 0.000000 0.000000 3.117340 
# 
# 
# High freq. dielectric constant tensor:
#      x y z
#    x 1.680630 0.000000 0.000000 
#    y 0.000000 1.680630 0.000000 
#    z 0.000000 0.000000 1.664620 
# 
# From -- ./inp_files/1145.got.cif
#   From: 2010.03.12/outbox.cif.g09.slc.cpg/sg175_1_cif.got.tgz:1145.got - 2010.04.02 06:55:29.
