data_PCOD8325325
_publ_section_title
;
Structure prediction by ZEFSAII (Michael W. Deem and Ramdas Pophale) SiO2 
 PCOD8325325
Probable space group: P 6/M
;
_chemical_formula_sum "Si O2"
_cell_formula_units_Z 58
_cell_length_a 13.845977
_cell_length_b 13.845977
_cell_length_c 16.273632
_cell_angle_alpha 90.000000
_cell_angle_beta 90.000000
_cell_angle_gamma 120.000000
_cell_volume 2701.856843
_symmetry_space_group_name_H-M "P 6/M"
_symmetry_group_IT_number 175
_symmetry_cell_setting 'hexagonal'
loop_
_space_group_symop_operation_xyz
x,y,z
x-y,x,z
-y,x-y,z
-x,-y,z
-x+y,-x,z
y,-x+y,z
-x,-y,-z
-x+y,-x,-z
y,-x+y,-z
x,y,-z
x-y,x,-z
-y,x-y,-z
loop_
_atom_site_type_symbol
_atom_site_label
_atom_site_fract_x
_atom_site_fract_y
_atom_site_fract_z
Si Si1 0.048695 0.805188 0.403088
Si Si2 0.212177 0.985465 0.903476
Si Si3 0.221200 0.685955 0.000000
Si Si4 0.375280 0.442186 0.146341
Si Si5 0.378316 0.478293 0.667156
Si Si6 0.333334 0.666667 0.402896
O O1 0.928662 0.785983 0.375406
O O2 0.052572 0.790617 0.500000
O O3 0.070661 0.714516 0.360188
O O4 0.211818 0.095953 0.875938
O O5 0.309546 0.981748 0.851897
O O6 0.233292 0.982810 0.000000
O O7 0.215397 0.565542 0.000000
O O8 0.164709 0.700150 0.081917
O O9 0.500000 0.500000 0.112284
O O10 0.371155 0.489602 0.235051
O O11 0.500000 0.500000 0.641002
O O12 0.357925 0.571289 0.626925
O O13 0.333334 0.666668 0.500000
#
# Coordination Sequence:
#
# PCOD8325325 Si02
#       6
#    12  12   6  12  12   4
#     4  10  21  41  69 100 132 168 213 265 322 386
#     4  10  22  38  62  88 124 166 216 266 318 376
#     4  10  25  38  66  90 119 167 222 267 322 371
#     4  11  25  41  64  92 129 167 215 267 327 375
#     4  11  26  43  64  97 135 172 215 266 320 383
#     4  12  27  45  72  97 128 175 213 258 324 390
#
# _framework density 21.466716999999999
#
# number of rings (size 3 to 8) (size 9 to 14) (size 15 to 20)
#    0.207    1.241    1.034    2.586    5.793    8.276 
#    0.000    0.000    0.000    2.483    0.000    0.000 
#    0.000    0.000    0.000    0.000    0.000    0.000 
#
# Total GULP energy -719386.555646 kJ/mol
# GULP energy per Si atom -12403.216477 kJ/mol
# Density = 2.141786 g / cm^3
# Si number density = 21.466717 Si / 1000 Ang^3
#
#
#
# Elastic Constant Matrix: (Units=GPa)
#
#
# Indices 1 2 3 4 5 6 
#
# 1 147.9886 66.9703 38.2284 0.0000 0.0000 0.0002
# 2 66.9703 147.9899 38.2284 0.0000 0.0000 0.0002
# 3 38.2284 38.2284 80.5945 0.0000 0.0000 0.0005
# 4 0.0000 0.0000 0.0000 17.2115 0.0004 0.0000
# 5 0.0000 0.0000 0.0000 0.0004 17.2130 0.0000
# 6 0.0002 0.0002 0.0005 0.0000 0.0000 40.5094
#
#
#
# Elastic Compliance Matrix: (Units=1/GPa)
#
#
# Indices 1 2 3 4 5 6 
#
# 1 0.008970 -0.003373 -0.002654 0.000000 0.000000 0.000000
# 2 -0.003373 0.008969 -0.002654 0.000000 0.000000 0.000000
# 3 -0.002654 -0.002654 0.014926 0.000000 0.000000 0.000000
# 4 0.000000 0.000000 0.000000 0.058101 -0.000001 0.000000
# 5 0.000000 0.000000 0.000000 -0.000001 0.058096 0.000000
# 6 0.000000 0.000000 0.000000 0.000000 0.000000 0.024686
#
#
# Mechanical properties :
#
#
# Convention : Reuss Voigt Hill
#
# Bulk Modulus (GPa) = 64.51381 73.71415 69.11398
# Shear Modulus (GPa) = 25.47408 30.52984 28.00196
#
# Velocity S-wave (km/s) = 3.44856 3.77529 3.61562
# Velocity P-wave (km/s) = 6.78048 7.30870 7.04954
#
# Compressibility (1/GPa) = 0.01550056
#
# Stress axis : x y z
#
# Youngs Moduli (GPa) = 111.48864 111.48977 66.99740
#
# Poissons Ratio (x) = 0.37609 0.17784
# Poissons Ratio (y) = 0.37609 0.17784
# Poissons Ratio (z) = 0.29594 0.29594
#
# Static dielectric constant tensor:
#      x y z
#    x 4.072190 0.000010 0.000000 
#    y 0.000010 4.072170 0.000000 
#    z 0.000000 0.000000 3.730890 
# 
# 
# High freq. dielectric constant tensor:
#      x y z
#    x 1.856430 0.000000 0.000000 
#    y 0.000000 1.856430 0.000000 
#    z 0.000000 0.000000 1.832740 
# 
# From -- ./inp_files/2409.got.cif
#   From: 2010.03.12/outbox.cif.g09.slc.cpg/sg175_2_cif.got.tgz:2409.got - 2010.04.02 06:55:29.
