data_PCOD8325178
_publ_section_title
;
Structure prediction by ZEFSAII (Michael W. Deem and Ramdas Pophale) SiO2 
 PCOD8325178
Probable space group: P 6/M
;
_chemical_formula_sum "Si O2"
_cell_formula_units_Z 60
_cell_length_a 22.573814
_cell_length_b 22.573814
_cell_length_c 7.711317
_cell_angle_alpha 90.000000
_cell_angle_beta 90.000000
_cell_angle_gamma 120.000000
_cell_volume 3403.055821
_symmetry_space_group_name_H-M "P 6/M"
_symmetry_group_IT_number 175
_symmetry_cell_setting 'hexagonal'
loop_
_space_group_symop_operation_xyz
x,y,z
x-y,x,z
-y,x-y,z
-x,-y,z
-x+y,-x,z
y,-x+y,z
-x,-y,-z
-x+y,-x,-z
y,-x+y,-z
x,y,-z
x-y,x,-z
-y,x-y,-z
loop_
_atom_site_type_symbol
_atom_site_label
_atom_site_fract_x
_atom_site_fract_y
_atom_site_fract_z
Si Si1 0.914046 0.606088 0.197855
Si Si2 0.394476 0.916465 0.500000
Si Si3 0.071292 0.150796 0.698967
Si Si4 0.847525 0.695282 0.202257
Si Si5 0.383959 0.074849 0.197697
Si Si6 0.392455 0.471126 0.500000
O O1 0.890449 0.541665 0.325704
O O2 0.875255 0.645373 0.260302
O O3 0.994127 0.658829 0.215185
O O4 0.894872 0.578927 0.000000
O O5 0.446648 0.887082 0.500000
O O6 0.436662 0.997708 0.500000
O O7 0.116310 0.120616 0.787191
O O8 0.061357 0.130224 0.500000
O O9 0.109141 0.232256 0.707712
O O10 0.768887 0.660734 0.258442
O O11 0.856964 0.709191 0.000000
O O12 0.448837 0.102263 0.325786
O O13 0.410903 0.095700 0.000000
#
# Coordination Sequence:
#
# PCOD8325178 Si02
#       6
#    12   6  12  12  12   6
#     4   9  18  31  47  70 101 132 163 203 247 293
#     4   9  18  31  48  70  95 124 155 184 226 290
#     4  10  21  34  48  66  92 132 184 240 290 329
#     4  10  20  33  49  71  98 130 170 215 265 316
#     4   9  18  31  47  70 101 132 163 203 247 293
#     4   9  18  31  48  70  95 124 155 184 226 290
#
# _framework density 17.631212000000001
#
# number of rings (size 3 to 8) (size 9 to 14) (size 15 to 20)
#    0.000    2.600    0.000    1.400    2.800    4.000 
#    0.000    4.000    0.000    1.200    0.000    0.000 
#    8.000    0.000    2.400    0.000    0.000    0.000 
#
# Total GULP energy -743851.012749 kJ/mol
# GULP energy per Si atom -12397.516879 kJ/mol
# Density = 1.759108 g / cm^3
# Si number density = 17.631212 Si / 1000 Ang^3
#
#
#
# Elastic Constant Matrix: (Units=GPa)
#
#
# Indices 1 2 3 4 5 6 
#
# 1 61.3164 7.7126 28.0762 0.0000 0.0000 0.0000
# 2 7.7126 61.3164 28.0762 0.0000 0.0000 0.0000
# 3 28.0762 28.0762 76.3035 0.0000 0.0000 0.0000
# 4 0.0000 0.0000 0.0000 13.9054 0.0000 0.0000
# 5 0.0000 0.0000 0.0000 0.0000 13.9054 0.0000
# 6 0.0000 0.0000 0.0000 0.0000 0.0000 26.8019
#
#
#
# Elastic Compliance Matrix: (Units=1/GPa)
#
#
# Indices 1 2 3 4 5 6 
#
# 1 0.019665 0.001010 -0.007608 0.000000 0.000000 0.000000
# 2 0.001010 0.019665 -0.007608 0.000000 0.000000 0.000000
# 3 -0.007608 -0.007608 0.018704 0.000000 0.000000 0.000000
# 4 0.000000 0.000000 0.000000 0.071914 0.000000 0.000000
# 5 0.000000 0.000000 0.000000 0.000000 0.071914 0.000000
# 6 0.000000 0.000000 0.000000 0.000000 0.000000 0.037311
#
#
# Mechanical properties :
#
#
# Convention : Reuss Voigt Hill
#
# Bulk Modulus (GPa) = 33.75622 36.29626 35.02624
# Shear Modulus (GPa) = 18.02069 19.92731 18.97400
#
# Velocity S-wave (km/s) = 3.20048 3.36554 3.28405
# Velocity P-wave (km/s) = 5.73103 5.97775 5.85569
#
# Compressibility (1/GPa) = 0.02962417
#
# Stress axis : x y z
#
# Youngs Moduli (GPa) = 50.85116 50.85116 53.46448
#
# Poissons Ratio (x) = -0.05135 0.40673
# Poissons Ratio (y) = -0.05135 0.40673
# Poissons Ratio (z) = 0.38685 0.38685
#
# Static dielectric constant tensor:
#      x y z
#    x 3.256780 0.000000 0.000000 
#    y 0.000000 3.256780 0.000000 
#    z 0.000000 0.000000 3.375390 
# 
# 
# High freq. dielectric constant tensor:
#      x y z
#    x 1.660100 0.000000 0.000000 
#    y 0.000000 1.660100 0.000000 
#    z 0.000000 0.000000 1.688000 
# 
# From -- ./inp_files/916.got.cif
#   From: 2010.03.12/outbox.cif.g09.slc.cpg/sg175_1_cif.got.tgz:916.got - 2010.04.02 06:55:29.
