data_PCOD8325535
_publ_section_title
;
Structure prediction by ZEFSAII (Michael W. Deem and Ramdas Pophale) SiO2 
 PCOD8325535
Probable space group: P 63/M
;
_chemical_formula_sum "Si O2"
_cell_formula_units_Z 72
_cell_length_a 12.588905
_cell_length_b 12.588905
_cell_length_c 31.337189
_cell_angle_alpha 90.000000
_cell_angle_beta 90.000000
_cell_angle_gamma 120.000000
_cell_volume 4300.971662
_symmetry_space_group_name_H-M "P 63/M"
_symmetry_group_IT_number 176
_symmetry_cell_setting 'hexagonal'
loop_
_space_group_symop_operation_xyz
x,y,z
x-y,x,1/2+z
-y,x-y,z
-x,-y,1/2+z
-x+y,-x,z
y,-x+y,1/2+z
-x,-y,-z
-x+y,-x,1/2-z
y,-x+y,-z
x,y,1/2-z
x-y,x,-z
-y,x-y,1/2-z
loop_
_atom_site_type_symbol
_atom_site_label
_atom_site_fract_x
_atom_site_fract_y
_atom_site_fract_z
Si Si1 0.091191 0.664379 0.250000
Si Si2 0.417114 0.084810 0.080068
Si Si3 0.084810 0.417114 0.580068
Si Si4 0.249218 0.249218 0.500000
Si Si5 0.426812 0.335621 0.750000
Si Si6 0.082965 0.418878 0.342500
Si Si7 0.581122 0.917035 0.157500
O O1 0.145231 0.572615 0.250000
O O2 0.199911 0.800089 0.250000
O O3 0.020155 0.646946 0.204948
O O4 0.543077 0.086153 0.073757
O O5 0.446820 0.223410 0.082262
O O6 0.347778 0.016910 0.123403
O O7 0.329590 0.011753 0.041013
O O8 0.011753 0.329590 0.541013
O O9 0.016910 0.347778 0.623403
O O10 0.233218 0.116609 0.506427
O O11 0.373209 0.353053 0.795052
O O12 0.205206 0.410411 0.347242
O O13 0.118704 0.559352 0.350621
#
# Coordination Sequence:
#
# PCOD8325535 Si02
#       7
#     6  12  12  12   6  12  12
#     4   8  13  22  39  64  92 118 144 178 222 268
#     4  10  20  33  48  66  91 123 156 187 220 263
#     4  10  20  33  48  66  91 123 156 187 220 263
#     4  10  20  34  52  72  92 114 144 186 234 280
#     4   8  13  22  39  64  92 118 144 178 222 268
#     4   9  16  27  45  69  94 118 146 183 227 270
#     4   9  16  27  45  69  94 118 146 183 227 270
#
# _framework density 16.740404000000002
#
# number of rings (size 3 to 8) (size 9 to 14) (size 15 to 20)
#    0.000    2.667    0.000    2.500    0.000    2.667 
#    0.000    0.833    0.000   11.333    0.000    2.333 
#    0.000    0.000    0.000    0.000    0.000    0.000 
#
# Total GULP energy -892149.524780 kJ/mol
# GULP energy per Si atom -12390.965622 kJ/mol
# Density = 1.670230 g / cm^3
# Si number density = 16.740404 Si / 1000 Ang^3
#
#
#
# Elastic Constant Matrix: (Units=GPa)
#
#
# Indices 1 2 3 4 5 6 
#
# 1 69.3646 38.7463 64.5849 0.0000 0.0000 0.0000
# 2 38.7463 69.3646 64.5849 0.0000 0.0000 0.0000
# 3 64.5849 64.5849 173.9729 0.0000 0.0000 0.0000
# 4 0.0000 0.0000 0.0000 25.8024 0.0000 0.0000
# 5 0.0000 0.0000 0.0000 0.0000 25.8024 0.0000
# 6 0.0000 0.0000 0.0000 0.0000 0.0000 15.3092
#
#
#
# Elastic Compliance Matrix: (Units=1/GPa)
#
#
# Indices 1 2 3 4 5 6 
#
# 1 0.024641 -0.008019 -0.006171 0.000000 0.000000 0.000000
# 2 -0.008019 0.024641 -0.006171 0.000000 0.000000 0.000000
# 3 -0.006171 -0.006171 0.010330 0.000000 0.000000 0.000000
# 4 0.000000 0.000000 0.000000 0.038756 0.000000 0.000000
# 5 0.000000 0.000000 0.000000 0.000000 0.038756 0.000000
# 6 0.000000 0.000000 0.000000 0.000000 0.000000 0.065320
#
#
# Mechanical properties :
#
#
# Convention : Reuss Voigt Hill
#
# Bulk Modulus (GPa) = 52.93392 72.05934 62.49663
# Shear Modulus (GPa) = 20.04300 23.03519 21.53909
#
# Velocity S-wave (km/s) = 3.46393 3.71350 3.59089
# Velocity P-wave (km/s) = 6.90562 7.84381 7.38962
#
# Compressibility (1/GPa) = 0.01889148
#
# Stress axis : x y z
#
# Youngs Moduli (GPa) = 40.58199 40.58199 96.80754
#
# Poissons Ratio (x) = 0.32542 0.59740
# Poissons Ratio (y) = 0.32542 0.59740
# Poissons Ratio (z) = 0.25043 0.25043
#
# Static dielectric constant tensor:
#      x y z
#    x 2.955880 0.000000 0.000000 
#    y 0.000000 2.955880 0.000000 
#    z 0.000000 0.000000 3.712800 
# 
# 
# High freq. dielectric constant tensor:
#      x y z
#    x 1.626870 0.000000 0.000000 
#    y 0.000000 1.626870 0.000000 
#    z 0.000000 0.000000 1.672260 
# 
# From -- ./inp_files/4517.got.cif
#   From: 2010.06.25/outbox.cif.g09.slc.cpg/sg176_3_cif.got.tgz:4517.got - 2010.06.28 12:15:01.
