data_PCOD8325150
_publ_section_title
;
Structure prediction by ZEFSAII (Michael W. Deem and Ramdas Pophale) SiO2 
 PCOD8325150
Probable space group: P 6/M
;
_chemical_formula_sum "Si O2"
_cell_formula_units_Z 72
_cell_length_a 22.830564
_cell_length_b 22.830564
_cell_length_c 8.571609
_cell_angle_alpha 90.000000
_cell_angle_beta 90.000000
_cell_angle_gamma 120.000000
_cell_volume 3869.245307
_symmetry_space_group_name_H-M "P 6/M"
_symmetry_group_IT_number 175
_symmetry_cell_setting 'hexagonal'
loop_
_space_group_symop_operation_xyz
x,y,z
x-y,x,z
-y,x-y,z
-x,-y,z
-x+y,-x,z
y,-x+y,z
-x,-y,-z
-x+y,-x,-z
y,-x+y,-z
x,y,-z
x-y,x,-z
-y,x-y,-z
loop_
_atom_site_type_symbol
_atom_site_label
_atom_site_fract_x
_atom_site_fract_y
_atom_site_fract_z
Si Si1 0.534115 0.936908 0.680067
Si Si2 0.398342 0.266965 0.317701
Si Si3 0.749577 0.626818 0.318313
Si Si4 0.404825 0.918737 0.818258
Si Si5 0.015460 0.137746 0.814678
Si Si6 0.010228 0.267680 0.182544
O O1 0.541942 0.958515 0.500000
O O2 0.561504 0.885388 0.711542
O O3 0.455653 0.900190 0.729325
O O4 0.577558 0.005008 0.779284
O O5 0.412778 0.275096 0.500000
O O6 0.389893 0.196286 0.256921
O O7 0.462550 0.328336 0.232526
O O8 0.332882 0.273272 0.281869
O O9 0.760670 0.647023 0.500000
O O10 0.756918 0.689444 0.219213
O O11 0.413467 0.912343 0.000000
O O12 0.077359 0.131492 0.744822
O O13 0.024985 0.209173 0.762809
O O14 0.012552 0.131957 0.000000
O O15 0.024441 0.284319 0.000000
#
# Coordination Sequence:
#
# PCOD8325150 Si02
#       6
#    12  12  12  12  12  12
#     4  10  19  35  58  82 110 145 180 224 273 326
#     4  11  22  37  55  79 112 150 189 227 272 329
#     4  10  22  37  56  80 110 148 188 227 271 327
#     4  11  21  34  55  85 113 142 178 224 276 326
#     4   9  17  29  45  66  94 131 175 222 273 329
#     4  11  21  33  51  77 109 141 178 231 288 337
#
# _framework density 18.608280000000001
#
# number of rings (size 3 to 8) (size 9 to 14) (size 15 to 20)
#    0.000    1.667    1.667    5.167    0.000    4.000 
#    0.000    0.000    0.000    0.667    0.000    2.333 
#    0.000    8.000    0.000    0.000    0.000    0.000 
#
# Total GULP energy -893030.262477 kJ/mol
# GULP energy per Si atom -12403.198090 kJ/mol
# Density = 1.856593 g / cm^3
# Si number density = 18.608280 Si / 1000 Ang^3
#
#
#
# Elastic Constant Matrix: (Units=GPa)
#
#
# Indices 1 2 3 4 5 6 
#
# 1 79.0640 17.9982 8.5571 0.0000 0.0000 0.0000
# 2 17.9982 79.0640 8.5571 0.0000 0.0000 0.0000
# 3 8.5571 8.5571 44.1524 0.0000 0.0000 0.0000
# 4 0.0000 0.0000 0.0000 20.2061 0.0000 0.0000
# 5 0.0000 0.0000 0.0000 0.0000 20.2061 0.0000
# 6 0.0000 0.0000 0.0000 0.0000 0.0000 30.5329
#
#
#
# Elastic Compliance Matrix: (Units=1/GPa)
#
#
# Indices 1 2 3 4 5 6 
#
# 1 0.013521 -0.002854 -0.002067 0.000000 0.000000 0.000000
# 2 -0.002854 0.013521 -0.002067 0.000000 0.000000 0.000000
# 3 -0.002067 -0.002067 0.023450 0.000000 0.000000 0.000000
# 4 0.000000 0.000000 0.000000 0.049490 0.000000 0.000000
# 5 0.000000 0.000000 0.000000 0.000000 0.049490 0.000000
# 6 0.000000 0.000000 0.000000 0.000000 0.000000 0.032752
#
#
# Mechanical properties :
#
#
# Convention : Reuss Voigt Hill
#
# Bulk Modulus (GPa) = 27.38600 30.27835 28.83218
# Shear Modulus (GPa) = 23.99525 25.33355 24.66440
#
# Velocity S-wave (km/s) = 3.59485 3.69374 3.64463
# Velocity P-wave (km/s) = 5.65505 5.87353 5.76533
#
# Compressibility (1/GPa) = 0.03651500
#
# Stress axis : x y z
#
# Youngs Moduli (GPa) = 73.95632 73.95632 42.64360
#
# Poissons Ratio (x) = 0.21109 0.08816
# Poissons Ratio (y) = 0.21109 0.08816
# Poissons Ratio (z) = 0.15290 0.15290
#
# Static dielectric constant tensor:
#      x y z
#    x 3.521220 0.000000 0.000000 
#    y 0.000000 3.521220 0.000000 
#    z 0.000000 0.000000 3.278090 
# 
# 
# High freq. dielectric constant tensor:
#      x y z
#    x 1.716930 0.000000 0.000000 
#    y 0.000000 1.716930 0.000000 
#    z 0.000000 0.000000 1.714550 
# 
# From -- ./inp_files/1203.got.cif
#   From: 2010.03.12/outbox.cif.g09.slc.cpg/sg175_1_cif.got.tgz:1203.got - 2010.04.02 06:55:29.
