data_PCOD8325203
_publ_section_title
;
Structure prediction by ZEFSAII (Michael W. Deem and Ramdas Pophale) SiO2 
 PCOD8325203
Probable space group: P 6/M
;
_chemical_formula_sum "Si O2"
_cell_formula_units_Z 72
_cell_length_a 23.895471
_cell_length_b 23.895471
_cell_length_c 8.733106
_cell_angle_alpha 90.000000
_cell_angle_beta 90.000000
_cell_angle_gamma 120.000000
_cell_volume 4318.476432
_symmetry_space_group_name_H-M "P 6/M"
_symmetry_group_IT_number 175
_symmetry_cell_setting 'hexagonal'
loop_
_space_group_symop_operation_xyz
x,y,z
x-y,x,z
-y,x-y,z
-x,-y,z
-x+y,-x,z
y,-x+y,z
-x,-y,-z
-x+y,-x,-z
y,-x+y,-z
x,y,-z
x-y,x,-z
-y,x-y,-z
loop_
_atom_site_type_symbol
_atom_site_label
_atom_site_fract_x
_atom_site_fract_y
_atom_site_fract_z
Si Si1 0.516672 0.253119 0.668054
Si Si2 0.822215 0.635967 0.331760
Si Si3 0.510899 0.137902 0.821284
Si Si4 0.932392 0.303561 0.319258
Si Si5 0.627743 0.138088 0.680563
Si Si6 0.068819 0.370440 0.821232
O O1 0.545301 0.252142 0.500000
O O2 0.440452 0.220446 0.654415
O O3 0.535115 0.213260 0.785403
O O4 0.541145 0.326588 0.722649
O O5 0.850741 0.664845 0.500000
O O6 0.772467 0.659193 0.274897
O O7 0.880737 0.654584 0.214466
O O8 0.438302 0.090537 0.767430
O O9 0.555669 0.115755 0.734042
O O10 0.516576 0.129839 0.000000
O O11 0.928413 0.313239 0.500000
O O12 0.003778 0.323175 0.268464
O O13 0.629986 0.126877 0.500000
O O14 0.651476 0.094860 0.767659
O O15 0.054750 0.365173 0.000000
#
# Coordination Sequence:
#
# PCOD8325203 Si02
#       6
#    12  12  12  12  12  12
#     4   8  16  32  50  64  81 114 154 187 229 291
#     4   8  16  32  52  70  91 123 157 187 221 272
#     4  11  21  32  48  70  94 116 149 202 256 295
#     4  10  20  35  53  71  95 129 165 192 226 286
#     4  10  20  35  51  65  88 123 160 195 239 298
#     4  11  21  32  50  76 101 123 154 197 243 284
#
# _framework density 16.672546000000001
#
# number of rings (size 3 to 8) (size 9 to 14) (size 15 to 20)
#    0.000    2.333    0.000    6.000    0.000    8.000 
#    1.000    3.333    0.000    0.000    0.000    0.000 
#    0.000    0.000    0.000    0.500    0.000    9.667 
#
# Total GULP energy -892494.324953 kJ/mol
# GULP energy per Si atom -12395.754513 kJ/mol
# Density = 1.663460 g / cm^3
# Si number density = 16.672546 Si / 1000 Ang^3
#
#
#
# Elastic Constant Matrix: (Units=GPa)
#
#
# Indices 1 2 3 4 5 6 
#
# 1 63.5547 34.1650 15.4571 0.0000 0.0000 0.0000
# 2 34.1650 63.5547 15.4571 0.0000 0.0000 0.0000
# 3 15.4571 15.4571 55.5461 0.0000 0.0000 0.0000
# 4 0.0000 0.0000 0.0000 19.5771 0.0000 0.0000
# 5 0.0000 0.0000 0.0000 0.0000 19.5771 0.0000
# 6 0.0000 0.0000 0.0000 0.0000 0.0000 14.6949
#
#
#
# Elastic Compliance Matrix: (Units=1/GPa)
#
#
# Indices 1 2 3 4 5 6 
#
# 1 0.022623 -0.011402 -0.003123 0.000000 0.000000 0.000000
# 2 -0.011402 0.022623 -0.003123 0.000000 0.000000 0.000000
# 3 -0.003123 -0.003123 0.019741 0.000000 0.000000 0.000000
# 4 0.000000 0.000000 0.000000 0.051080 0.000000 0.000000
# 5 0.000000 0.000000 0.000000 0.000000 0.051080 0.000000
# 6 0.000000 0.000000 0.000000 0.000000 0.000000 0.068051
#
#
# Mechanical properties :
#
#
# Convention : Reuss Voigt Hill
#
# Bulk Modulus (GPa) = 33.67795 34.75710 34.21752
# Shear Modulus (GPa) = 17.83225 18.60825 18.22025
#
# Velocity S-wave (km/s) = 3.27396 3.34443 3.30938
# Velocity P-wave (km/s) = 5.87667 5.98380 5.93047
#
# Compressibility (1/GPa) = 0.02969302
#
# Stress axis : x y z
#
# Youngs Moduli (GPa) = 44.20212 44.20212 50.65613
#
# Poissons Ratio (x) = 0.50400 0.15818
# Poissons Ratio (y) = 0.50400 0.15818
# Poissons Ratio (z) = 0.13802 0.13802
#
# Static dielectric constant tensor:
#      x y z
#    x 3.176460 0.000000 0.000000 
#    y 0.000000 3.176460 0.000000 
#    z 0.000000 0.000000 3.129180 
# 
# 
# High freq. dielectric constant tensor:
#      x y z
#    x 1.616640 0.000000 0.000000 
#    y 0.000000 1.616640 0.000000 
#    z 0.000000 0.000000 1.649270 
# 
# From -- ./inp_files/1188.got.cif
#   From: 2010.03.12/outbox.cif.g09.slc.cpg/sg175_1_cif.got.tgz:1188.got - 2010.04.02 06:55:29.
