data_PCOD8325448
_publ_section_title
;
Structure prediction by ZEFSAII (Michael W. Deem and Ramdas Pophale) SiO2 
 PCOD8325448
Probable space group: P 63/M
;
_chemical_formula_sum "Si O2"
_cell_formula_units_Z 72
_cell_length_a 23.494067
_cell_length_b 23.494067
_cell_length_c 9.284408
_cell_angle_alpha 90.000000
_cell_angle_beta 90.000000
_cell_angle_gamma 120.000000
_cell_volume 4438.142625
_symmetry_space_group_name_H-M "P 63/M"
_symmetry_group_IT_number 176
_symmetry_cell_setting 'hexagonal'
loop_
_space_group_symop_operation_xyz
x,y,z
x-y,x,1/2+z
-y,x-y,z
-x,-y,1/2+z
-x+y,-x,z
y,-x+y,1/2+z
-x,-y,-z
-x+y,-x,1/2-z
y,-x+y,-z
x,y,1/2-z
x-y,x,-z
-y,x-y,1/2-z
loop_
_atom_site_type_symbol
_atom_site_label
_atom_site_fract_x
_atom_site_fract_y
_atom_site_fract_z
Si Si1 0.407625 0.135428 0.414316
Si Si2 0.403734 0.480378 0.418153
Si Si3 0.397620 0.259656 0.084300
Si Si4 0.929406 0.187389 0.084074
Si Si5 0.925303 0.516979 0.083160
Si Si6 0.919781 0.734315 0.918125
O O1 0.421005 0.123571 0.250000
O O2 0.452450 0.120948 0.518683
O O3 0.426296 0.210825 0.438987
O O4 0.331539 0.087319 0.455251
O O5 0.400939 0.491552 0.250000
O O6 0.451859 0.550623 0.489394
O O7 0.429208 0.429698 0.452974
O O8 0.376314 0.257957 0.250000
O O9 0.453219 0.332504 0.039707
O O10 0.334094 0.238667 0.987590
O O11 0.910639 0.167000 0.250000
O O12 0.004899 0.212209 0.051942
O O13 0.886316 0.123495 0.987205
O O14 0.917833 0.496807 0.250000
O O15 0.904322 0.722401 0.750000
#
# Coordination Sequence:
#
# PCOD8325448 Si02
#       6
#    12  12  12  12  12  12
#     4   9  17  30  47  66  92 123 151 184 226 272
#     4  10  19  29  45  70  95 119 150 189 229 268
#     4   9  18  32  49  69  94 124 155 189 229 274
#     4   9  19  33  47  68  97 125 155 191 230 274
#     4   9  18  32  48  66  91 123 155 185 223 272
#     4  10  19  30  48  72  95 123 156 190 231 275
#
# _framework density 16.223002999999999
#
# number of rings (size 3 to 8) (size 9 to 14) (size 15 to 20)
#    0.000    2.667    0.000    3.000    0.000    5.333 
#    0.000    0.000    0.000    1.000    0.000    2.333 
#    0.000    0.000    0.000    0.000    0.000    0.000 
#
# Total GULP energy -892956.138142 kJ/mol
# GULP energy per Si atom -12402.168585 kJ/mol
# Density = 1.618608 g / cm^3
# Si number density = 16.223003 Si / 1000 Ang^3
#
#
#
# Elastic Constant Matrix: (Units=GPa)
#
#
# Indices 1 2 3 4 5 6 
#
# 1 106.2748 61.0365 63.3097 0.0000 0.0000 0.0000
# 2 61.0365 106.2748 63.3097 0.0000 0.0000 0.0000
# 3 63.3097 63.3097 92.6831 0.0000 0.0000 0.0000
# 4 0.0000 0.0000 0.0000 28.2757 0.0000 0.0000
# 5 0.0000 0.0000 0.0000 0.0000 28.2757 0.0000
# 6 0.0000 0.0000 0.0000 0.0000 0.0000 22.6192
#
#
#
# Elastic Compliance Matrix: (Units=1/GPa)
#
#
# Indices 1 2 3 4 5 6 
#
# 1 0.017239 -0.004866 -0.008452 0.000000 0.000000 0.000000
# 2 -0.004866 0.017239 -0.008452 0.000000 0.000000 0.000000
# 3 -0.008452 -0.008452 0.022336 0.000000 0.000000 0.000000
# 4 0.000000 0.000000 0.000000 0.035366 0.000000 0.000000
# 5 0.000000 0.000000 0.000000 0.000000 0.035366 0.000000
# 6 0.000000 0.000000 0.000000 0.000000 0.000000 0.044210
#
#
# Mechanical properties :
#
#
# Convention : Reuss Voigt Hill
#
# Bulk Modulus (GPa) = 75.32976 75.61605 75.47290
# Shear Modulus (GPa) = 22.75616 23.67257 23.21436
#
# Velocity S-wave (km/s) = 3.74934 3.82409 3.78690
# Velocity P-wave (km/s) = 8.07949 8.13694 8.10826
#
# Compressibility (1/GPa) = 0.01327497
#
# Stress axis : x y z
#
# Youngs Moduli (GPa) = 58.00759 58.00759 44.77097
#
# Poissons Ratio (x) = 0.28227 0.37839
# Poissons Ratio (y) = 0.28227 0.37839
# Poissons Ratio (z) = 0.49027 0.49027
#
# Static dielectric constant tensor:
#      x y z
#    x 2.997680 0.000000 0.000000 
#    y 0.000000 2.997680 0.000000 
#    z 0.000000 0.000000 3.106330 
# 
# 
# High freq. dielectric constant tensor:
#      x y z
#    x 1.612740 0.000000 0.000000 
#    y 0.000000 1.612740 0.000000 
#    z 0.000000 0.000000 1.631390 
# 
# From -- ./inp_files/1179.got.cif
#   From: 2010.06.25/outbox.cif.g09.slc.cpg/sg176_1_cif.got.tgz:1179.got - 2010.06.28 12:15:01.
