data_PCOD8325416
_publ_section_title
;
Structure prediction by ZEFSAII (Michael W. Deem and Ramdas Pophale) SiO2 
 PCOD8325416
Probable space group: P 63/M
;
_chemical_formula_sum "Si O2"
_cell_formula_units_Z 96
_cell_length_a 26.153116
_cell_length_b 26.153116
_cell_length_c 9.407089
_cell_angle_alpha 90.000000
_cell_angle_beta 90.000000
_cell_angle_gamma 120.000000
_cell_volume 5572.277866
_symmetry_space_group_name_H-M "P 63/M"
_symmetry_group_IT_number 176
_symmetry_cell_setting 'hexagonal'
loop_
_space_group_symop_operation_xyz
x,y,z
x-y,x,1/2+z
-y,x-y,z
-x,-y,1/2+z
-x+y,-x,z
y,-x+y,1/2+z
-x,-y,-z
-x+y,-x,1/2-z
y,-x+y,-z
x,y,1/2-z
x-y,x,-z
-y,x-y,1/2-z
loop_
_atom_site_type_symbol
_atom_site_label
_atom_site_fract_x
_atom_site_fract_y
_atom_site_fract_z
Si Si1 0.432390 0.319820 0.090959
Si Si2 0.104993 0.236231 0.916222
Si Si3 0.788348 0.785544 0.083918
Si Si4 0.783738 0.447580 0.419455
Si Si5 0.880197 0.307534 0.081356
Si Si6 0.820356 0.636551 0.408543
Si Si7 0.328771 0.994382 0.417459
Si Si8 0.550499 0.219311 0.080514
O O1 0.430666 0.342943 0.250000
O O2 0.499243 0.347619 0.031504
O O3 0.411608 0.251369 0.096949
O O4 0.390861 0.331299 0.988848
O O5 0.088834 0.229305 0.750000
O O6 0.153445 0.217814 0.951894
O O7 0.130515 0.302682 0.978493
O O8 0.044512 0.199713 0.002923
O O9 0.783176 0.794067 0.250000
O O10 0.728590 0.726205 0.031153
O O11 0.781912 0.447754 0.250000
O O12 0.729254 0.454351 0.478640
O O13 0.777003 0.386856 0.479635
O O14 0.872574 0.301014 0.250000
O O15 0.850779 0.242220 0.011946
O O16 0.843044 0.337956 0.026369
O O17 0.948927 0.340714 0.038833
O O18 0.811925 0.655556 0.250000
O O19 0.324451 0.984005 0.250000
O O20 0.552806 0.221567 0.250000
#
# Coordination Sequence:
#
# PCOD8325416 Si02
#       8
#    12  12  12  12  12  12  12  12
#     4  10  18  29  46  69  97 127 156 189 237 289
#     4  10  19  32  50  71  97 127 157 193 237 284
#     4  10  20  32  48  72  99 123 156 200 235 273
#     4   9  16  25  41  68  97 122 153 200 248 283
#     4   9  15  26  43  63  90 127 162 187 224 286
#     4   9  14  24  44  67  90 122 157 183 223 285
#     4  10  19  30  46  69  95 125 161 195 226 273
#     4   9  15  24  40  65  95 123 154 197 245 283
#
# _framework density 17.228141999999998
#
# number of rings (size 3 to 8) (size 9 to 14) (size 15 to 20)
#    0.000    2.500    3.750    0.250    0.000    1.500 
#    0.000    0.625    0.000    1.000    0.000    0.875 
#    0.000    0.000    0.000    0.000    0.000    0.000 
#
# Total GULP energy -1189485.445747 kJ/mol
# GULP energy per Si atom -12390.473393 kJ/mol
# Density = 1.718893 g / cm^3
# Si number density = 17.228142 Si / 1000 Ang^3
#
#
#
# Elastic Constant Matrix: (Units=GPa)
#
#
# Indices 1 2 3 4 5 6 
#
# 1 119.6670 56.8856 28.2962 0.0000 0.0000 0.0000
# 2 56.8856 119.6670 28.2962 0.0000 0.0000 0.0000
# 3 28.2962 28.2962 21.6357 0.0000 0.0000 0.0000
# 4 0.0000 0.0000 0.0000 14.3355 0.0000 0.0000
# 5 0.0000 0.0000 0.0000 0.0000 14.3355 0.0000
# 6 0.0000 0.0000 0.0000 0.0000 0.0000 31.3907
#
#
#
# Elastic Compliance Matrix: (Units=1/GPa)
#
#
# Indices 1 2 3 4 5 6 
#
# 1 0.012840 -0.003088 -0.012755 0.000000 0.000000 0.000000
# 2 -0.003088 0.012840 -0.012755 0.000000 0.000000 0.000000
# 3 -0.012755 -0.012755 0.079582 0.000000 0.000000 0.000000
# 4 0.000000 0.000000 0.000000 0.069757 0.000000 0.000000
# 5 0.000000 0.000000 0.000000 0.000000 0.069757 0.000000
# 6 0.000000 0.000000 0.000000 0.000000 0.000000 0.031857
#
#
# Mechanical properties :
#
#
# Convention : Reuss Voigt Hill
#
# Bulk Modulus (GPa) = 20.80368 54.21396 37.50882
# Shear Modulus (GPa) = 14.29181 21.84513 18.06847
#
# Velocity S-wave (km/s) = 2.88334 3.56475 3.24200
# Velocity P-wave (km/s) = 4.81523 6.96275 5.98608
#
# Compressibility (1/GPa) = 0.04806842
#
# Stress axis : x y z
#
# Youngs Moduli (GPa) = 77.87945 77.87945 12.56561
#
# Poissons Ratio (x) = 0.24049 0.16027
# Poissons Ratio (y) = 0.24049 0.16027
# Poissons Ratio (z) = 0.99333 0.99333
#
# Static dielectric constant tensor:
#      x y z
#    x 3.294280 0.000000 0.000000 
#    y 0.000000 3.294280 0.000000 
#    z 0.000000 0.000000 2.669450 
# 
# 
# High freq. dielectric constant tensor:
#      x y z
#    x 1.667000 0.000000 0.000000 
#    y 0.000000 1.667000 0.000000 
#    z 0.000000 0.000000 1.600740 
# 
# From -- ./inp_files/2186.got.cif
#   From: 2010.06.25/outbox.cif.g09.slc.cpg/sg176_2_cif.got.tgz:2186.got - 2010.06.28 12:15:01.
