data_PCOD8325295
_publ_section_title
;
Structure prediction by ZEFSAII (Michael W. Deem and Ramdas Pophale) SiO2 
 PCOD8325295
Probable space group: P 6/M
;
_chemical_formula_sum "Si O2"
_cell_formula_units_Z 82
_cell_length_a 22.052626
_cell_length_b 22.052626
_cell_length_c 10.221713
_cell_angle_alpha 90.000000
_cell_angle_beta 90.000000
_cell_angle_gamma 120.000000
_cell_volume 4305.017675
_symmetry_space_group_name_H-M "P 6/M"
_symmetry_group_IT_number 175
_symmetry_cell_setting 'hexagonal'
loop_
_space_group_symop_operation_xyz
x,y,z
x-y,x,z
-y,x-y,z
-x,-y,z
-x+y,-x,z
y,-x+y,z
-x,-y,-z
-x+y,-x,-z
y,-x+y,-z
x,y,-z
x-y,x,-z
-y,x-y,-z
loop_
_atom_site_type_symbol
_atom_site_label
_atom_site_fract_x
_atom_site_fract_y
_atom_site_fract_z
Si Si1 0.557923 0.577990 0.648891
Si Si2 0.720138 0.909333 0.646458
Si Si3 0.587746 0.694745 0.149555
Si Si4 0.125805 0.694995 0.648714
Si Si5 0.254743 0.197763 0.228718
Si Si6 0.489999 0.760755 0.151168
Si Si7 0.108433 0.946270 0.000000
Si Si8 0.333334 0.666668 0.153496
O O1 0.500000 0.500000 0.687133
O O2 0.545978 0.595870 0.500000
O O3 0.552485 0.630044 0.750727
O O4 0.633417 0.586330 0.662260
O O5 0.730830 0.938210 0.500000
O O6 0.639366 0.873717 0.687672
O O7 0.739585 0.848043 0.654159
O O8 0.767347 0.975992 0.735596
O O9 0.669335 0.743858 0.179673
O O10 0.545917 0.735748 0.169547
O O11 0.579400 0.667464 0.000000
O O12 0.153416 0.698210 0.500000
O O13 0.173588 0.684057 0.753690
O O14 0.213362 0.139688 0.121373
O O15 0.413580 0.701209 0.200733
O O16 0.488436 0.782454 0.000000
O O17 0.025608 0.899098 0.000000
O O18 0.333334 0.666668 0.000000
#
# Coordination Sequence:
#
# PCOD8325295 Si02
#       8
#    12  12  12  12  12  12   6   4
#     4  10  23  41  60  85 123 166 201 241 302 372
#     4  11  23  39  61  88 121 158 203 251 305 367
#     4  11  23  37  60  95 123 151 200 253 305 362
#     4  10  21  38  60  89 119 153 197 248 303 362
#     4  12  22  39  62  89 121 158 200 254 308 361
#     4  10  22  40  61  86 119 157 201 249 298 356
#     4  12  25  42  64  86 123 166 206 246 302 374
#     4   9  21  42  64  83 115 165 208 245 295 357
#
# _framework density 19.047540999999999
#
# number of rings (size 3 to 8) (size 9 to 14) (size 15 to 20)
#    0.000    1.317    5.122    0.512    2.049    2.049 
#    1.317    0.732    0.000    0.000    0.000    2.049 
#    0.000    0.000    0.000    0.000    0.000    0.000 
#
# Total GULP energy -1016771.109912 kJ/mol
# GULP energy per Si atom -12399.647682 kJ/mol
# Density = 1.900419 g / cm^3
# Si number density = 19.047541 Si / 1000 Ang^3
#
#
#
# Elastic Constant Matrix: (Units=GPa)
#
#
# Indices 1 2 3 4 5 6 
#
# 1 56.5142 3.2477 28.6534 0.0000 0.0000 0.0009
# 2 3.2477 56.5147 28.6538 0.0000 0.0000 0.0006
# 3 28.6534 28.6538 72.5039 0.0000 0.0000 0.0003
# 4 0.0000 0.0000 0.0000 24.4034 0.0002 0.0000
# 5 0.0000 0.0000 0.0000 0.0002 24.4030 0.0000
# 6 0.0009 0.0006 0.0003 0.0000 0.0000 26.6338
#
#
#
# Elastic Compliance Matrix: (Units=1/GPa)
#
#
# Indices 1 2 3 4 5 6 
#
# 1 0.022859 0.004085 -0.010648 0.000000 0.000000 -0.000001
# 2 0.004085 0.022859 -0.010648 0.000000 0.000000 0.000000
# 3 -0.010648 -0.010648 0.022209 0.000000 0.000000 0.000000
# 4 0.000000 0.000000 0.000000 0.040978 0.000000 0.000000
# 5 0.000000 0.000000 0.000000 0.000000 0.040978 0.000000
# 6 -0.000001 0.000000 0.000000 0.000000 0.000000 0.037546
#
#
# Mechanical properties :
#
#
# Convention : Reuss Voigt Hill
#
# Bulk Modulus (GPa) = 29.84767 34.07142 31.95954
# Shear Modulus (GPa) = 21.45748 23.41990 22.43869
#
# Velocity S-wave (km/s) = 3.36001 3.51030 3.43598
# Velocity P-wave (km/s) = 5.54590 5.86140 5.70583
#
# Compressibility (1/GPa) = 0.03350346
#
# Stress axis : x y z
#
# Youngs Moduli (GPa) = 43.74704 43.74730 45.02737
#
# Poissons Ratio (x) = -0.17871 0.47946
# Poissons Ratio (y) = -0.17871 0.47946
# Poissons Ratio (z) = 0.46583 0.46583
#
# Static dielectric constant tensor:
#      x y z
#    x 3.567990 0.000000 0.000000 
#    y 0.000000 3.567990 0.000000 
#    z 0.000000 0.000000 3.519580 
# 
# 
# High freq. dielectric constant tensor:
#      x y z
#    x 1.744050 0.000000 0.000000 
#    y 0.000000 1.744050 0.000000 
#    z 0.000000 0.000000 1.741270 
# 
# From -- ./inp_files/2045.got.cif
#   From: 2010.03.12/outbox.cif.g09.slc.cpg/sg175_2_cif.got.tgz:2045.got - 2010.04.02 06:55:29.
