data_PCOD8325790
_publ_section_title
;
Structure prediction by ZEFSAII (Michael W. Deem and Ramdas Pophale) SiO2 
 PCOD8325790
Probable space group: P 61 2 2
;
_chemical_formula_sum "Si O2"
_cell_formula_units_Z 72
_cell_length_a 14.501244
_cell_length_b 14.501244
_cell_length_c 20.161235
_cell_angle_alpha 90.000000
_cell_angle_beta 90.000000
_cell_angle_gamma 120.000000
_cell_volume 3671.624708
_symmetry_space_group_name_H-M "P 61 2 2"
_symmetry_group_IT_number 178
_symmetry_cell_setting 'hexagonal'
loop_
_space_group_symop_operation_xyz
x,y,z
x-y,x,1/6+z
-y,x-y,1/3+z
-x,-y,1/2+z
-x+y,-x,2/3+z
y,-x+y,5/6+z
x-y,-y,-z
-x,-x+y,2/3-z
y,x,1/3-z
-y,-x,5/6-z
-x+y,y,1/2-z
x,x-y,1/6-z
loop_
_atom_site_type_symbol
_atom_site_label
_atom_site_fract_x
_atom_site_fract_y
_atom_site_fract_z
Si Si1 0.876358 0.726145 0.894641
Si Si2 0.492942 0.813423 0.142918
Si Si3 0.328256 0.671745 0.916667
Si Si4 0.006345 0.653027 0.561040
Si Si5 0.104761 0.895240 0.916667
Si Si6 0.670455 0.549018 0.527279
Si Si7 0.547658 0.186238 0.316278
O O1 0.774853 0.714614 0.934870
O O2 0.855432 0.717020 0.815734
O O3 0.903750 0.633699 0.913627
O O4 0.976333 0.841098 0.914203
O O5 0.523201 0.761601 0.083334
O O6 0.414328 0.726839 0.194849
O O7 0.604501 0.891753 0.180017
O O8 0.435558 0.877810 0.114716
O O9 0.369759 0.785367 0.878369
O O10 0.036398 0.638086 0.635158
O O11 0.937092 0.535568 0.528635
O O12 0.753975 0.516891 0.498600
O O13 0.617990 0.235980 0.250000
#
# Coordination Sequence:
#
# PCOD8325790 Si02
#       7
#    12  12   6  12   6  12  12
#     4  10  21  36  69  93 127 163 210 264 325 383
#     4  11  21  37  64  86 121 169 212 256 310 386
#     4  10  18  36  57  84 118 156 196 263 312 362
#     4  11  20  38  64  88 119 174 212 250 317 397
#     4  10  20  40  63 100 126 158 210 273 332 366
#     4  10  18  36  60  89 117 161 206 252 311 384
#     4  10  20  33  59  88 115 160 212 245 309 386
#
# _framework density 19.609846000000001
#
# number of rings (size 3 to 8) (size 9 to 14) (size 15 to 20)
#    0.000    1.667    5.000    3.000    0.000    0.000 
#    0.000    8.333   18.333    0.000    0.000    0.000 
#    0.000    0.000    0.000    0.000    0.000    0.000 
#
# Total GULP energy -892044.472190 kJ/mol
# GULP energy per Si atom -12389.506558 kJ/mol
# Density = 1.956521 g / cm^3
# Si number density = 19.609846 Si / 1000 Ang^3
#
#
#
# Elastic Constant Matrix: (Units=GPa)
#
#
# Indices 1 2 3 4 5 6 
#
# 1 86.5163 41.2304 54.1367 0.0000 0.0000 0.0000
# 2 41.2304 86.5163 54.1367 0.0000 0.0000 0.0000
# 3 54.1367 54.1367 148.0996 0.0000 0.0000 0.0000
# 4 0.0000 0.0000 0.0000 36.6934 0.0000 0.0000
# 5 0.0000 0.0000 0.0000 0.0000 36.6934 0.0000
# 6 0.0000 0.0000 0.0000 0.0000 0.0000 22.6429
#
#
#
# Elastic Compliance Matrix: (Units=1/GPa)
#
#
# Indices 1 2 3 4 5 6 
#
# 1 0.016712 -0.005370 -0.004146 0.000000 0.000000 0.000000
# 2 -0.005370 0.016712 -0.004146 0.000000 0.000000 0.000000
# 3 -0.004146 -0.004146 0.009783 0.000000 0.000000 0.000000
# 4 0.000000 0.000000 0.000000 0.027253 0.000000 0.000000
# 5 0.000000 0.000000 0.000000 0.000000 0.027253 0.000000
# 6 0.000000 0.000000 0.000000 0.000000 0.000000 0.044164
#
#
# Mechanical properties :
#
#
# Convention : Reuss Voigt Hill
#
# Bulk Modulus (GPa) = 62.95914 68.90443 65.93178
# Shear Modulus (GPa) = 28.65410 30.64784 29.65097
#
# Velocity S-wave (km/s) = 3.82672 3.95762 3.89272
# Velocity P-wave (km/s) = 7.19032 7.48983 7.34160
#
# Compressibility (1/GPa) = 0.01588332
#
# Stress axis : x y z
#
# Youngs Moduli (GPa) = 59.83739 59.83739 102.21528
#
# Poissons Ratio (x) = 0.32133 0.42378
# Poissons Ratio (y) = 0.32133 0.42378
# Poissons Ratio (z) = 0.24808 0.24808
#
# Static dielectric constant tensor:
#      x y z
#    x 3.632230 0.000000 0.000000 
#    y 0.000000 3.632230 0.000000 
#    z 0.000000 0.000000 3.809170 
# 
# 
# High freq. dielectric constant tensor:
#      x y z
#    x 1.751320 0.000000 0.000000 
#    y 0.000000 1.751320 0.000000 
#    z 0.000000 0.000000 1.759360 
# 
# From -- ./inp_files/6822.got.cif
#   From: 2010.03.12/outbox.cif.g09.slc.cpg/sg178_4_cif.got.tgz:6822.got - 2010.04.02 07:02:38.
