data_PCOD8325252
_publ_section_title
;
Structure prediction by ZEFSAII (Michael W. Deem and Ramdas Pophale) SiO2 
 PCOD8325252
Probable space group: P 6/M
;
_chemical_formula_sum "Si O2"
_cell_formula_units_Z 48
_cell_length_a 18.763116
_cell_length_b 18.763116
_cell_length_c 7.604583
_cell_angle_alpha 90.000000
_cell_angle_beta 90.000000
_cell_angle_gamma 120.000000
_cell_volume 2318.547315
_symmetry_space_group_name_H-M "P 6/M"
_symmetry_group_IT_number 175
_symmetry_cell_setting 'hexagonal'
loop_
_space_group_symop_operation_xyz
x,y,z
x-y,x,z
-y,x-y,z
-x,-y,z
-x+y,-x,z
y,-x+y,z
-x,-y,-z
-x+y,-x,-z
y,-x+y,-z
x,y,-z
x-y,x,-z
-y,x-y,-z
loop_
_atom_site_type_symbol
_atom_site_label
_atom_site_fract_x
_atom_site_fract_y
_atom_site_fract_z
Si Si1 0.632931 0.471319 0.500000
Si Si2 0.180358 0.129737 0.208748
Si Si3 0.551094 0.956028 0.198269
Si Si4 0.292818 0.807114 0.500000
Si Si5 0.902906 0.638072 0.201997
O O1 0.644684 0.524865 0.326911
O O2 0.544660 0.390085 0.500000
O O3 0.708888 0.454865 0.500000
O O4 0.116265 0.156172 0.283945
O O5 0.272406 0.195464 0.269315
O O6 0.175690 0.128149 0.000000
O O7 0.500000 0.000000 0.253583
O O8 0.647884 0.014990 0.219637
O O9 0.528418 0.922167 0.000000
O O10 0.263591 0.833400 0.325299
O O11 0.871022 0.621969 0.000000
#
# Coordination Sequence:
#
# PCOD8325252 Si02
#       5
#     6  12  12   6  12
#     4  12  25  41  62  89 125 165 206 252 312 383
#     4   9  18  34  58  89 126 165 203 245 300 367
#     4  10  20  39  67  91 116 155 204 262 319 365
#     4  12  26  42  61  88 127 167 205 253 313 378
#     4  10  22  40  63  93 124 158 208 263 312 365
#
# _framework density 20.702618000000001
#
# number of rings (size 3 to 8) (size 9 to 14) (size 15 to 20)
#    0.000    1.750    2.500    1.625    3.500    2.000 
#    0.000    0.000    0.000    3.000    0.000    1.750 
#    0.000    0.000    0.000    0.000    0.000    0.000 
#
# Total GULP energy -595265.637940 kJ/mol
# GULP energy per Si atom -12401.367457 kJ/mol
# Density = 2.065550 g / cm^3
# Si number density = 20.702618 Si / 1000 Ang^3
#
#
#
# Elastic Constant Matrix: (Units=GPa)
#
#
# Indices 1 2 3 4 5 6 
#
# 1 125.5105 49.4434 39.4258 0.0000 0.0000 0.0000
# 2 49.4434 125.5105 39.4258 0.0000 0.0000 0.0000
# 3 39.4258 39.4258 94.8997 0.0000 0.0000 0.0000
# 4 0.0000 0.0000 0.0000 -12.7421 0.0000 0.0000
# 5 0.0000 0.0000 0.0000 0.0000 -12.7421 0.0000
# 6 0.0000 0.0000 0.0000 0.0000 0.0000 38.0335
#
#
#
# Elastic Compliance Matrix: (Units=1/GPa)
#
#
# Indices 1 2 3 4 5 6 
#
# 1 0.010089 -0.003057 -0.002922 0.000000 0.000000 0.000000
# 2 -0.003057 0.010089 -0.002922 0.000000 0.000000 0.000000
# 3 -0.002922 -0.002922 0.012965 0.000000 0.000000 0.000000
# 4 0.000000 0.000000 0.000000 -0.078480 0.000000 0.000000
# 5 0.000000 0.000000 0.000000 0.000000 -0.078480 0.000000
# 6 0.000000 0.000000 0.000000 0.000000 0.000000 0.026293
#
#
# Mechanical properties :
#
#
# Convention : Reuss Voigt Hill
#
# Bulk Modulus (GPa) = 65.17400 66.94563 66.05981
# Shear Modulus (GPa) = -67.01635 17.01825 -24.99905
#
# Velocity S-wave (km/s) = -5.69572 2.87022 -3.47872
# Velocity P-wave (km/s) = 3.42134 6.58720 3.98030
#
# Compressibility (1/GPa) = 0.01534354
#
# Stress axis : x y z
#
# Youngs Moduli (GPa) = 99.11355 99.11355 77.13057
#
# Poissons Ratio (x) = 0.30298 0.22535
# Poissons Ratio (y) = 0.30298 0.22535
# Poissons Ratio (z) = 0.28958 0.28958
#
# Static dielectric constant tensor:
#      x y z
#    x 3.703900 0.000000 0.000000 
#    y 0.000000 3.703900 0.000000 
#    z 0.000000 0.000000 3.725640 
# 
# 
# High freq. dielectric constant tensor:
#      x y z
#    x 1.809150 0.000000 0.000000 
#    y 0.000000 1.809150 0.000000 
#    z 0.000000 0.000000 1.806620 
# 
# From -- ./inp_files/627.got.cif
#   From: 2010.03.12/outbox.cif.g09.slc.cpg/sg175_1_cif.got.tgz:627.got - 2010.04.02 06:55:29.
