data_PCOD8325986
_publ_section_title
;
Structure prediction by ZEFSAII (Michael W. Deem and Ramdas Pophale) SiO2 
 PCOD8325986
Probable space group: P 61 2 2
;
_chemical_formula_sum "Si O2"
_cell_formula_units_Z 72
_cell_length_a 14.745387
_cell_length_b 14.745387
_cell_length_c 16.061898
_cell_angle_alpha 90.000000
_cell_angle_beta 90.000000
_cell_angle_gamma 120.000000
_cell_volume 3024.404294
_symmetry_space_group_name_H-M "P 61 2 2"
_symmetry_group_IT_number 178
_symmetry_cell_setting 'hexagonal'
loop_
_space_group_symop_operation_xyz
x,y,z
x-y,x,1/6+z
-y,x-y,1/3+z
-x,-y,1/2+z
-x+y,-x,2/3+z
y,-x+y,5/6+z
x-y,-y,-z
-x,-x+y,2/3-z
y,x,1/3-z
-y,-x,5/6-z
-x+y,y,1/2-z
x,x-y,1/6-z
loop_
_atom_site_type_symbol
_atom_site_label
_atom_site_fract_x
_atom_site_fract_y
_atom_site_fract_z
Si Si1 0.023303 0.754481 0.742548
Si Si2 0.864881 0.541086 0.482039
Si Si3 0.220450 0.959136 0.739294
Si Si4 0.479991 0.018127 0.907580
Si Si5 0.393145 0.756561 0.347555
Si Si6 0.876027 0.690783 0.340266
O O1 0.121425 0.856623 0.701591
O O2 0.036125 0.653829 0.745023
O O3 0.000000 0.783151 0.833334
O O4 0.936844 0.731175 0.672377
O O5 0.953306 0.633113 0.539067
O O6 0.755969 0.483139 0.531785
O O7 0.846678 0.589064 0.396435
O O8 0.912872 0.463741 0.470898
O O9 0.233557 0.068979 0.710605
O O10 0.570399 0.121875 0.862862
O O11 0.509950 0.000000 0.000000
O O12 0.303985 0.696016 0.416667
O O13 0.362432 0.724863 0.250000
O O14 0.824334 0.648667 0.250000
O O15 0.000000 0.763290 0.333334
#
# Coordination Sequence:
#
# PCOD8325986 Si02
#       6
#    12  12  12  12  12  12
#     4  11  25  46  71 103 142 198 252 312 379 467
#     4  12  27  45  76 108 153 203 251 320 398 467
#     4  12  23  46  71 105 149 192 251 310 388 474
#     4  11  26  46  74 110 146 205 263 320 402 476
#     4  12  29  51  74 115 161 206 272 340 400 492
#     4  12  24  44  73 112 154 196 248 321 396 486
#
# _framework density 23.806342000000001
#
# number of rings (size 3 to 8) (size 9 to 14) (size 15 to 20)
#    0.000    0.333    5.000    2.000    7.000    0.667 
#    0.000    5.000    0.000    0.000    0.000    0.000 
#    0.000    0.000    0.000    0.000    0.000    0.000 
#
# Total GULP energy -892079.761544 kJ/mol
# GULP energy per Si atom -12389.996688 kJ/mol
# Density = 2.375216 g / cm^3
# Si number density = 23.806342 Si / 1000 Ang^3
#
#
#
# Elastic Constant Matrix: (Units=GPa)
#
#
# Indices 1 2 3 4 5 6 
#
# 1 93.4179 23.1650 12.3337 0.0000 0.0000 0.0000
# 2 23.1650 93.4179 12.3337 0.0000 0.0000 0.0000
# 3 12.3337 12.3337 146.9573 0.0000 0.0000 0.0000
# 4 0.0000 0.0000 0.0000 30.5469 0.0000 0.0000
# 5 0.0000 0.0000 0.0000 0.0000 30.5469 0.0000
# 6 0.0000 0.0000 0.0000 0.0000 0.0000 35.1265
#
#
#
# Elastic Compliance Matrix: (Units=1/GPa)
#
#
# Indices 1 2 3 4 5 6 
#
# 1 0.011483 -0.002751 -0.000733 0.000000 0.000000 0.000000
# 2 -0.002751 0.011483 -0.000733 0.000000 0.000000 0.000000
# 3 -0.000733 -0.000733 0.006928 0.000000 0.000000 0.000000
# 4 0.000000 0.000000 0.000000 0.032737 0.000000 0.000000
# 5 0.000000 0.000000 0.000000 0.000000 0.032737 0.000000
# 6 0.000000 0.000000 0.000000 0.000000 0.000000 0.028469
#
#
# Mechanical properties :
#
#
# Convention : Reuss Voigt Hill
#
# Bulk Modulus (GPa) = 46.59526 47.71755 47.15641
# Shear Modulus (GPa) = 35.86199 38.30810 37.08504
#
# Velocity S-wave (km/s) = 3.88545 4.01578 3.95115
# Velocity P-wave (km/s) = 6.30429 6.44900 6.37706
#
# Compressibility (1/GPa) = 0.02146141
#
# Stress axis : x y z
#
# Youngs Moduli (GPa) = 87.08168 87.08168 144.34766
#
# Poissons Ratio (x) = 0.23954 0.10579
# Poissons Ratio (y) = 0.23954 0.10579
# Poissons Ratio (z) = 0.06382 0.06382
#
# Static dielectric constant tensor:
#      x y z
#    x 4.148640 0.000000 0.000000 
#    y 0.000000 4.148640 0.000000 
#    z 0.000000 0.000000 4.704910 
# 
# 
# High freq. dielectric constant tensor:
#      x y z
#    x 1.938070 0.000000 0.000000 
#    y 0.000000 1.938070 0.000000 
#    z 0.000000 0.000000 1.966660 
# 
# From -- ./inp_files/6809.got.cif
#   From: 2010.03.12/outbox.cif.g09.slc.cpg/sg178_4_cif.got.tgz:6809.got - 2010.04.02 07:02:38.
