data_PCOD8325119
_publ_section_title
;
Structure prediction by ZEFSAII (Michael W. Deem and Ramdas Pophale) SiO2 
 PCOD8325119
Probable space group: P 6/M
;
_chemical_formula_sum "Si O2"
_cell_formula_units_Z 48
_cell_length_a 18.917464
_cell_length_b 18.917464
_cell_length_c 8.447981
_cell_angle_alpha 90.000000
_cell_angle_beta 90.000000
_cell_angle_gamma 120.000000
_cell_volume 2618.239632
_symmetry_space_group_name_H-M "P 6/M"
_symmetry_group_IT_number 175
_symmetry_cell_setting 'hexagonal'
loop_
_space_group_symop_operation_xyz
x,y,z
x-y,x,z
-y,x-y,z
-x,-y,z
-x+y,-x,z
y,-x+y,z
-x,-y,-z
-x+y,-x,-z
y,-x+y,-z
x,y,-z
x-y,x,-z
-y,x-y,-z
loop_
_atom_site_type_symbol
_atom_site_label
_atom_site_fract_x
_atom_site_fract_y
_atom_site_fract_z
Si Si1 0.245304 0.336002 0.687314
Si Si2 0.514057 0.328062 0.816217
Si Si3 0.661069 0.751312 0.688617
Si Si4 0.519754 0.180194 0.684836
O O1 0.244953 0.334965 0.500000
O O2 0.273025 0.273114 0.751397
O O3 0.153937 0.310239 0.746579
O O4 0.308678 0.427634 0.744685
O O5 0.425920 0.311939 0.762570
O O6 0.541028 0.272469 0.718490
O O7 0.579037 0.422031 0.781594
O O8 0.513217 0.308421 0.000000
O O9 0.651919 0.744284 0.500000
O O10 0.530215 0.170100 0.500000
#
# Coordination Sequence:
#
# PCOD8325119 Si02
#       4
#    12  12  12  12
#     4   8  16  30  52  73  92 120 161 201 236 282
#     4  11  21  32  46  70 100 131 163 204 244 279
#     4   9  17  33  52  72  94 125 162 197 237 289
#     4  10  19  33  50  69  94 132 171 204 236 280
#
# _framework density 18.332929
#
# number of rings (size 3 to 8) (size 9 to 14) (size 15 to 20)
#    0.000    2.500    0.000    5.000    0.000    1.000 
#    0.000   11.250    0.000    0.500    0.000    3.500 
#    0.000    0.000    0.000    9.000    0.000   10.000 
#
# Total GULP energy -595095.254591 kJ/mol
# GULP energy per Si atom -12397.817804 kJ/mol
# Density = 1.829120 g / cm^3
# Si number density = 18.332929 Si / 1000 Ang^3
#
#
#
# Elastic Constant Matrix: (Units=GPa)
#
#
# Indices 1 2 3 4 5 6 
#
# 1 130.9373 91.8345 11.6938 0.0000 0.0000 0.0000
# 2 91.8345 130.9373 11.6938 0.0000 0.0000 0.0000
# 3 11.6938 11.6938 39.3189 0.0000 0.0000 0.0000
# 4 0.0000 0.0000 0.0000 6.7193 0.0000 0.0000
# 5 0.0000 0.0000 0.0000 0.0000 6.7193 0.0000
# 6 0.0000 0.0000 0.0000 0.0000 0.0000 19.5514
#
#
#
# Elastic Compliance Matrix: (Units=1/GPa)
#
#
# Indices 1 2 3 4 5 6 
#
# 1 0.015104 -0.010470 -0.001378 0.000000 0.000000 0.000000
# 2 -0.010470 0.015104 -0.001378 0.000000 0.000000 0.000000
# 3 -0.001378 -0.001378 0.026253 0.000000 0.000000 0.000000
# 4 0.000000 0.000000 0.000000 0.148824 0.000000 0.000000
# 5 0.000000 0.000000 0.000000 0.000000 0.148824 0.000000
# 6 0.000000 0.000000 0.000000 0.000000 0.000000 0.051147
#
#
# Mechanical properties :
#
#
# Convention : Reuss Voigt Hill
#
# Bulk Modulus (GPa) = 33.32484 59.07086 46.19785
# Shear Modulus (GPa) = 11.31961 18.99609 15.15785
#
# Velocity S-wave (km/s) = 2.48754 3.22246 2.87855
# Velocity P-wave (km/s) = 5.14466 6.79240 6.02513
#
# Compressibility (1/GPa) = 0.03000764
#
# Stress axis : x y z
#
# Youngs Moduli (GPa) = 66.20929 66.20929 38.09123
#
# Poissons Ratio (x) = 0.69321 0.05249
# Poissons Ratio (y) = 0.69321 0.05249
# Poissons Ratio (z) = 0.09124 0.09124
#
# Static dielectric constant tensor:
#      x y z
#    x 3.557180 0.000000 0.000000 
#    y 0.000000 3.557180 0.000000 
#    z 0.000000 0.000000 3.106120 
# 
# 
# High freq. dielectric constant tensor:
#      x y z
#    x 1.700010 0.000000 0.000000 
#    y 0.000000 1.700010 0.000000 
#    z 0.000000 0.000000 1.690590 
# 
# From -- ./inp_files/507.got.cif
#   From: 2010.03.12/outbox.cif.g09.slc.cpg/sg175_1_cif.got.tgz:507.got - 2010.04.02 06:55:29.
