data_PCOD8325381
_publ_section_title
;
Structure prediction by ZEFSAII (Michael W. Deem and Ramdas Pophale) SiO2 
 PCOD8325381
Probable space group: P 6/M
;
_chemical_formula_sum "Si O2"
_cell_formula_units_Z 48
_cell_length_a 17.202971
_cell_length_b 17.202971
_cell_length_c 8.476534
_cell_angle_alpha 90.000000
_cell_angle_beta 90.000000
_cell_angle_gamma 120.000000
_cell_volume 2172.480338
_symmetry_space_group_name_H-M "P 6/M"
_symmetry_group_IT_number 175
_symmetry_cell_setting 'hexagonal'
loop_
_space_group_symop_operation_xyz
x,y,z
x-y,x,z
-y,x-y,z
-x,-y,z
-x+y,-x,z
y,-x+y,z
-x,-y,-z
-x+y,-x,-z
y,-x+y,-z
x,y,-z
x-y,x,-z
-y,x-y,-z
loop_
_atom_site_type_symbol
_atom_site_label
_atom_site_fract_x
_atom_site_fract_y
_atom_site_fract_z
Si Si1 0.051282 0.445717 0.171800
Si Si2 0.182712 0.998293 0.500000
Si Si3 0.854316 0.484761 0.500000
Si Si4 0.092262 0.878378 0.000000
Si Si5 0.710445 0.530654 0.500000
Si Si6 0.072127 0.749248 0.250996
O O1 0.104997 0.461285 0.336096
O O2 0.000000 0.500000 0.190847
O O3 0.980982 0.340707 0.150500
O O4 0.104654 0.473672 0.000000
O O5 0.172404 0.085612 0.500000
O O6 0.239726 0.997993 0.351917
O O7 0.752740 0.465729 0.500000
O O8 0.863315 0.396470 0.500000
O O9 0.121058 0.839513 0.852833
O O10 0.985363 0.841464 0.000000
O O11 0.743683 0.594921 0.349003
#
# Coordination Sequence:
#
# PCOD8325381 Si02
#       6
#    12   6   6   6   6  12
#     4  11  23  43  72 104 133 177 229 294 358 406
#     4  11  24  41  62  89 128 177 230 285 344 410
#     4  12  24  45  70  98 148 187 231 290 361 426
#     4  12  27  46  69 100 144 188 234 294 363 431
#     4  11  26  43  68 100 140 190 232 292 365 428
#     4  11  24  41  65 101 130 173 237 292 349 418
#
# _framework density 22.094560999999999
#
# number of rings (size 3 to 8) (size 9 to 14) (size 15 to 20)
#    0.000    0.750    3.750    3.875   10.500    0.000 
#    0.000    2.500    0.000    0.000    0.000    0.000 
#    0.000    0.000    0.000    0.000    0.000    0.000 
#
# Total GULP energy -594646.600611 kJ/mol
# GULP energy per Si atom -12388.470846 kJ/mol
# Density = 2.204427 g / cm^3
# Si number density = 22.094561 Si / 1000 Ang^3
#
#
#
# Elastic Constant Matrix: (Units=GPa)
#
#
# Indices 1 2 3 4 5 6 
#
# 1 106.1455 37.5191 30.7620 0.0000 0.0000 0.0000
# 2 37.5191 106.1455 30.7620 0.0000 0.0000 0.0000
# 3 30.7620 30.7620 168.5510 0.0000 0.0000 0.0000
# 4 0.0000 0.0000 0.0000 23.4477 0.0000 0.0000
# 5 0.0000 0.0000 0.0000 0.0000 23.4477 0.0000
# 6 0.0000 0.0000 0.0000 0.0000 0.0000 34.3132
#
#
#
# Elastic Compliance Matrix: (Units=1/GPa)
#
#
# Indices 1 2 3 4 5 6 
#
# 1 0.011061 -0.003510 -0.001378 0.000000 0.000000 0.000000
# 2 -0.003510 0.011061 -0.001378 0.000000 0.000000 0.000000
# 3 -0.001378 -0.001378 0.006436 0.000000 0.000000 0.000000
# 4 0.000000 0.000000 0.000000 0.042648 0.000000 0.000000
# 5 0.000000 0.000000 0.000000 0.000000 0.042648 0.000000
# 6 0.000000 0.000000 0.000000 0.000000 0.000000 0.029143
#
#
# Mechanical properties :
#
#
# Convention : Reuss Voigt Hill
#
# Bulk Modulus (GPa) = 62.40158 64.32535 63.36346
# Shear Modulus (GPa) = 31.08046 35.02832 33.05439
#
# Velocity S-wave (km/s) = 3.75467 3.98601 3.87207
# Velocity P-wave (km/s) = 6.86302 7.09656 6.98077
#
# Compressibility (1/GPa) = 0.01602524
#
# Stress axis : x y z
#
# Youngs Moduli (GPa) = 90.40579 90.40579 155.37727
#
# Poissons Ratio (x) = 0.31736 0.21412
# Poissons Ratio (y) = 0.31736 0.21412
# Poissons Ratio (z) = 0.12459 0.12459
#
# Static dielectric constant tensor:
#      x y z
#    x 3.847040 0.000000 0.000000 
#    y 0.000000 3.847040 0.000000 
#    z 0.000000 0.000000 4.375830 
# 
# 
# High freq. dielectric constant tensor:
#      x y z
#    x 1.863100 0.000000 0.000000 
#    y 0.000000 1.863100 0.000000 
#    z 0.000000 0.000000 1.893970 
# 
# From -- ./inp_files/667.got.cif
#   From: 2010.03.12/outbox.cif.g09.slc.cpg/sg175_1_cif.got.tgz:667.got - 2010.04.02 06:55:29.
