data_PCOD8325887
_publ_section_title
;
Structure prediction by ZEFSAII (Michael W. Deem and Ramdas Pophale) SiO2 
 PCOD8325887
Probable space group: P 61 2 2
;
_chemical_formula_sum "Si O2"
_cell_formula_units_Z 42
_cell_length_a 12.127852
_cell_length_b 12.127852
_cell_length_c 15.569449
_cell_angle_alpha 90.000000
_cell_angle_beta 90.000000
_cell_angle_gamma 120.000000
_cell_volume 1983.223463
_symmetry_space_group_name_H-M "P 61 2 2"
_symmetry_group_IT_number 178
_symmetry_cell_setting 'hexagonal'
loop_
_space_group_symop_operation_xyz
x,y,z
x-y,x,1/6+z
-y,x-y,1/3+z
-x,-y,1/2+z
-x+y,-x,2/3+z
y,-x+y,5/6+z
x-y,-y,-z
-x,-x+y,2/3-z
y,x,1/3-z
-y,-x,5/6-z
-x+y,y,1/2-z
x,x-y,1/6-z
loop_
_atom_site_type_symbol
_atom_site_label
_atom_site_fract_x
_atom_site_fract_y
_atom_site_fract_z
Si Si1 0.155730 0.077865 0.583334
Si Si2 0.706487 0.477783 0.567469
Si Si3 0.000000 0.507060 0.833334
Si Si4 0.360998 0.317659 0.818645
Si Si5 0.896521 0.448261 0.083334
O O1 0.071263 0.071263 0.666667
O O2 0.245750 0.221340 0.553446
O O3 0.756293 0.378147 0.583334
O O4 0.645479 0.520974 0.644506
O O5 0.816481 0.601475 0.518767
O O6 0.592775 0.403139 0.500809
O O7 0.953035 0.410337 0.753781
O O8 0.377122 0.398793 0.905155
#
# Coordination Sequence:
#
# PCOD8325887 Si02
#       5
#     6  12   6  12   6
#     4  12  26  46  77  97 140 200 256 308 364 456
#     4  11  22  40  63  99 138 175 222 287 358 420
#     4  10  24  38  70 102 134 184 218 292 362 444
#     4  11  22  44  66  99 132 182 238 286 361 447
#     4  10  22  34  63  97 132 176 222 284 352 426
#
# _framework density 21.177643
#
# number of rings (size 3 to 8) (size 9 to 14) (size 15 to 20)
#    0.000    1.143    2.857    3.429    8.000    0.000 
#    2.571    0.000    0.000    0.000    0.000    0.000 
#    0.000    0.000    0.000    0.000    0.000    0.000 
#
# Total GULP energy -520331.542353 kJ/mol
# GULP energy per Si atom -12388.846246 kJ/mol
# Density = 2.112944 g / cm^3
# Si number density = 21.177643 Si / 1000 Ang^3
#
#
#
# Elastic Constant Matrix: (Units=GPa)
#
#
# Indices 1 2 3 4 5 6 
#
# 1 108.5167 51.8657 44.9868 0.0000 0.0000 0.0000
# 2 51.8657 108.5167 44.9868 0.0000 0.0000 0.0000
# 3 44.9868 44.9868 108.5618 0.0000 0.0000 0.0000
# 4 0.0000 0.0000 0.0000 41.2318 0.0000 0.0000
# 5 0.0000 0.0000 0.0000 0.0000 41.2318 0.0000
# 6 0.0000 0.0000 0.0000 0.0000 0.0000 28.3255
#
#
#
# Elastic Compliance Matrix: (Units=1/GPa)
#
#
# Indices 1 2 3 4 5 6 
#
# 1 0.012888 -0.004764 -0.003366 0.000000 0.000000 0.000000
# 2 -0.004764 0.012888 -0.003366 0.000000 0.000000 0.000000
# 3 -0.003366 -0.003366 0.012001 0.000000 0.000000 0.000000
# 4 0.000000 0.000000 0.000000 0.024253 0.000000 0.000000
# 5 0.000000 0.000000 0.000000 0.000000 0.024253 0.000000
# 6 0.000000 0.000000 0.000000 0.000000 0.000000 0.035304
#
#
# Mechanical properties :
#
#
# Convention : Reuss Voigt Hill
#
# Bulk Modulus (GPa) = 67.64458 67.69711 67.67084
# Shear Modulus (GPa) = 33.44298 34.40823 33.92560
#
# Velocity S-wave (km/s) = 3.97818 4.03518 4.00678
# Velocity P-wave (km/s) = 7.28780 7.33116 7.30952
#
# Compressibility (1/GPa) = 0.01478315
#
# Stress axis : x y z
#
# Youngs Moduli (GPa) = 77.59307 77.59307 83.32448
#
# Poissons Ratio (x) = 0.36967 0.28050
# Poissons Ratio (y) = 0.36967 0.28050
# Poissons Ratio (z) = 0.26120 0.26120
#
# Static dielectric constant tensor:
#      x y z
#    x 3.858540 0.000000 0.000000 
#    y 0.000000 3.858540 0.000000 
#    z 0.000000 0.000000 4.098870 
# 
# 
# High freq. dielectric constant tensor:
#      x y z
#    x 1.820760 0.000000 0.000000 
#    y 0.000000 1.820760 0.000000 
#    z 0.000000 0.000000 1.840850 
# 
# From -- ./inp_files/6417.got.cif
#   From: 2010.03.12/outbox.cif.g09.slc.cpg/sg178_4_cif.got.tgz:6417.got - 2010.04.02 07:02:38.
