data_PCOD8325976
_publ_section_title
;
Structure prediction by ZEFSAII (Michael W. Deem and Ramdas Pophale) SiO2 
 PCOD8325976
Probable space group: P 61 2 2
;
_chemical_formula_sum "Si O2"
_cell_formula_units_Z 54
_cell_length_a 11.266042
_cell_length_b 11.266042
_cell_length_c 23.631944
_cell_angle_alpha 90.000000
_cell_angle_beta 90.000000
_cell_angle_gamma 120.000000
_cell_volume 2597.603211
_symmetry_space_group_name_H-M "P 61 2 2"
_symmetry_group_IT_number 178
_symmetry_cell_setting 'hexagonal'
loop_
_space_group_symop_operation_xyz
x,y,z
x-y,x,1/6+z
-y,x-y,1/3+z
-x,-y,1/2+z
-x+y,-x,2/3+z
y,-x+y,5/6+z
x-y,-y,-z
-x,-x+y,2/3-z
y,x,1/3-z
-y,-x,5/6-z
-x+y,y,1/2-z
x,x-y,1/6-z
loop_
_atom_site_type_symbol
_atom_site_label
_atom_site_fract_x
_atom_site_fract_y
_atom_site_fract_z
Si Si1 0.669535 0.339070 0.250000
Si Si2 0.203518 0.804926 0.140180
Si Si3 0.854441 0.505978 0.343707
Si Si4 0.596824 0.677598 0.926241
Si Si5 0.686629 0.630302 0.727213
O O1 0.556985 0.246792 0.297046
O O2 0.811051 0.427647 0.283706
O O3 0.223391 0.854208 0.205189
O O4 0.046491 0.736069 0.118057
O O5 0.306353 0.936402 0.105342
O O6 0.737005 0.538244 0.360322
O O7 0.877777 0.412063 0.389151
O O8 0.000000 0.644432 0.333334
O O9 0.480846 0.519155 0.916667
O O10 0.701899 0.701899 0.666667
O O11 0.833291 0.666582 0.750000
#
# Coordination Sequence:
#
# PCOD8325976 Si02
#       5
#     6  12  12  12  12
#     4  12  22  42  70 100 134 178 228 280 344 402
#     4  12  26  43  68 106 139 178 233 293 344 415
#     4  11  25  43  68  98 134 185 224 281 341 416
#     4  12  27  42  69 103 144 182 229 295 354 417
#     4  11  23  43  70  95 132 180 228 274 335 415
#
# _framework density 20.788395000000001
#
# number of rings (size 3 to 8) (size 9 to 14) (size 15 to 20)
#    0.000    0.444    7.778    2.000    6.222    0.000 
#    0.000    3.333    0.000    0.000    0.000    0.000 
#    0.000    0.000    0.000    0.000    0.000    0.000 
#
# Total GULP energy -669490.908184 kJ/mol
# GULP energy per Si atom -12397.979781 kJ/mol
# Density = 2.074108 g / cm^3
# Si number density = 20.788395 Si / 1000 Ang^3
#
#
#
# Elastic Constant Matrix: (Units=GPa)
#
#
# Indices 1 2 3 4 5 6 
#
# 1 87.6078 51.1863 28.6982 0.0000 0.0000 0.0000
# 2 51.1863 87.6078 28.6982 0.0000 0.0000 0.0000
# 3 28.6982 28.6982 83.0504 0.0000 0.0000 0.0000
# 4 0.0000 0.0000 0.0000 -76.5303 0.0000 0.0000
# 5 0.0000 0.0000 0.0000 0.0000 -76.5303 0.0000
# 6 0.0000 0.0000 0.0000 0.0000 0.0000 18.2108
#
#
#
# Elastic Compliance Matrix: (Units=1/GPa)
#
#
# Indices 1 2 3 4 5 6 
#
# 1 0.017931 -0.009525 -0.002905 0.000000 0.000000 0.000000
# 2 -0.009525 0.017931 -0.002905 0.000000 0.000000 0.000000
# 3 -0.002905 -0.002905 0.014048 0.000000 0.000000 0.000000
# 4 0.000000 0.000000 0.000000 -0.013067 0.000000 0.000000
# 5 0.000000 0.000000 0.000000 0.000000 -0.013067 0.000000
# 6 0.000000 0.000000 0.000000 0.000000 0.000000 0.054913
#
#
# Mechanical properties :
#
#
# Convention : Reuss Voigt Hill
#
# Bulk Modulus (GPa) = 51.97063 52.82568 52.39816
# Shear Modulus (GPa) = 43.18797 -16.99107 13.09845
#
# Velocity S-wave (km/s) = 4.56291 -2.86201 2.51287
# Velocity P-wave (km/s) = 7.26734 3.81377 5.80341
#
# Compressibility (1/GPa) = 0.01924164
#
# Stress axis : x y z
#
# Youngs Moduli (GPa) = 55.76866 55.76866 71.18270
#
# Poissons Ratio (x) = 0.53120 0.20677
# Poissons Ratio (y) = 0.53120 0.20677
# Poissons Ratio (z) = 0.16199 0.16199
#
# Static dielectric constant tensor:
#      x y z
#    x 9.560220 0.000000 0.000000 
#    y 0.000000 9.560220 0.000000 
#    z 0.000000 0.000000 3.637010 
# 
# 
# High freq. dielectric constant tensor:
#      x y z
#    x 1.809700 0.000000 0.000000 
#    y 0.000000 1.809700 0.000000 
#    z 0.000000 0.000000 1.820430 
# 
# From -- ./inp_files/7388.got.cif
#   From: 2010.03.12/outbox.cif.g09.slc.cpg/sg178_4_cif.got.tgz:7388.got - 2010.04.02 07:02:38.
