data_PCOD8325070
_publ_section_title
;
Structure prediction by ZEFSAII (Michael W. Deem and Ramdas Pophale) SiO2 
 PCOD8325070
Probable space group: P 6/M
;
_chemical_formula_sum "Si O2"
_cell_formula_units_Z 76
_cell_length_a 19.403480
_cell_length_b 19.403480
_cell_length_c 12.975472
_cell_angle_alpha 90.000000
_cell_angle_beta 90.000000
_cell_angle_gamma 120.000000
_cell_volume 4230.707995
_symmetry_space_group_name_H-M "P 6/M"
_symmetry_group_IT_number 175
_symmetry_cell_setting 'hexagonal'
loop_
_space_group_symop_operation_xyz
x,y,z
x-y,x,z
-y,x-y,z
-x,-y,z
-x+y,-x,z
y,-x+y,z
-x,-y,-z
-x+y,-x,-z
y,-x+y,-z
x,y,-z
x-y,x,-z
-y,x-y,-z
loop_
_atom_site_type_symbol
_atom_site_label
_atom_site_fract_x
_atom_site_fract_y
_atom_site_fract_z
Si Si1 0.599095 0.916585 0.260859
Si Si2 0.895250 0.568435 0.742386
Si Si3 0.515245 0.767312 0.121927
Si Si4 0.333334 0.666668 0.877911
Si Si5 0.885023 0.054192 0.621007
Si Si6 0.555140 0.462712 0.613283
Si Si7 0.824260 0.165633 0.381447
O O1 0.561972 0.858805 0.161749
O O2 0.529267 0.889511 0.344439
O O3 0.660592 0.895522 0.315383
O O4 0.641037 0.010898 0.232200
O O5 0.840530 0.555915 0.842165
O O6 0.880160 0.484006 0.701694
O O7 0.857658 0.593532 0.649435
O O8 0.423752 0.723029 0.161667
O O9 0.520552 0.771688 0.000000
O O10 0.333334 0.666668 0.000000
O O11 0.896717 0.049556 0.500000
O O12 0.823664 0.084247 0.642603
O O13 0.969032 0.115852 0.673113
O O14 0.500000 0.500000 0.595678
O O15 0.566386 0.432521 0.500000
O O16 0.840882 0.191228 0.500000
#
# Coordination Sequence:
#
# PCOD8325070 Si02
#       7
#    12  12  12   4  12  12  12
#     4  10  20  33  50  74 102 133 173 213 252 306
#     4  10  20  33  50  74 102 133 173 213 252 306
#     4  10  21  36  55  76  99 133 172 217 272 313
#     4   9  18  36  57  75  97 122 154 198 255 324
#     4   9  16  25  38  57  83 117 155 193 233 278
#     4   9  17  30  49  72 100 131 159 195 243 295
#     4  10  19  30  46  69  99 134 167 203 248 297
#
# _framework density 17.963896999999999
#
# number of rings (size 3 to 8) (size 9 to 14) (size 15 to 20)
#    0.000    2.368    0.000    3.000    0.000    4.421 
#    0.000    0.000    0.000    5.684    0.000    2.211 
#    0.000    0.000    0.000    0.000    0.000   47.053 
#
# Total GULP energy -941671.656607 kJ/mol
# GULP energy per Si atom -12390.416534 kJ/mol
# Density = 1.792301 g / cm^3
# Si number density = 17.963897 Si / 1000 Ang^3
#
#
#
# Elastic Constant Matrix: (Units=GPa)
#
#
# Indices 1 2 3 4 5 6 
#
# 1 75.0861 17.7370 26.2605 0.0000 0.0000 0.0004
# 2 17.7370 75.0866 26.2606 0.0000 0.0000 0.0003
# 3 26.2605 26.2606 79.0856 0.0000 0.0000 0.0001
# 4 0.0000 0.0000 0.0000 20.9355 0.0000 0.0000
# 5 0.0000 0.0000 0.0000 0.0000 20.9357 0.0000
# 6 0.0004 0.0003 0.0001 0.0000 0.0000 28.6749
#
#
#
# Elastic Compliance Matrix: (Units=1/GPa)
#
#
# Indices 1 2 3 4 5 6 
#
# 1 0.015351 -0.002086 -0.004405 0.000000 0.000000 0.000000
# 2 -0.002086 0.015351 -0.004405 0.000000 0.000000 0.000000
# 3 -0.004405 -0.004405 0.015570 0.000000 0.000000 0.000000
# 4 0.000000 0.000000 0.000000 0.047766 0.000000 0.000000
# 5 0.000000 0.000000 0.000000 0.000000 0.047765 0.000000
# 6 0.000000 0.000000 0.000000 0.000000 0.000000 0.034874
#
#
# Mechanical properties :
#
#
# Convention : Reuss Voigt Hill
#
# Bulk Modulus (GPa) = 40.84727 41.08604 40.96666
# Shear Modulus (GPa) = 24.19805 24.70924 24.45365
#
# Velocity S-wave (km/s) = 3.67418 3.71279 3.69354
# Velocity P-wave (km/s) = 6.38650 6.42657 6.40657
#
# Compressibility (1/GPa) = 0.02448144
#
# Stress axis : x y z
#
# Youngs Moduli (GPa) = 65.14114 65.14153 64.22691
#
# Poissons Ratio (x) = 0.13587 0.28291
# Poissons Ratio (y) = 0.13587 0.28291
# Poissons Ratio (z) = 0.28694 0.28694
#
# Static dielectric constant tensor:
#      x y z
#    x 3.471500 0.000000 0.000000 
#    y 0.000000 3.471510 0.000000 
#    z 0.000000 0.000000 2.997810 
# 
# 
# High freq. dielectric constant tensor:
#      x y z
#    x 1.702980 0.000000 0.000000 
#    y 0.000000 1.702980 0.000000 
#    z 0.000000 0.000000 1.656760 
# 
# From -- ./inp_files/2557.got.cif
#   From: 2010.03.12/outbox.cif.g09.slc.cpg/sg175_2_cif.got.tgz:2557.got - 2010.04.02 06:55:29.
