data_PCOD8325088
_publ_section_title
;
Structure prediction by ZEFSAII (Michael W. Deem and Ramdas Pophale) SiO2 
 PCOD8325088
Probable space group: P 6/M
;
_chemical_formula_sum "Si O2"
_cell_formula_units_Z 46
_cell_length_a 17.647770
_cell_length_b 17.647770
_cell_length_c 10.066448
_cell_angle_alpha 90.000000
_cell_angle_beta 90.000000
_cell_angle_gamma 120.000000
_cell_volume 2715.104542
_symmetry_space_group_name_H-M "P 6/M"
_symmetry_group_IT_number 175
_symmetry_cell_setting 'hexagonal'
loop_
_space_group_symop_operation_xyz
x,y,z
x-y,x,z
-y,x-y,z
-x,-y,z
-x+y,-x,z
y,-x+y,z
-x,-y,-z
-x+y,-x,-z
y,-x+y,-z
x,y,-z
x-y,x,-z
-y,x-y,-z
loop_
_atom_site_type_symbol
_atom_site_label
_atom_site_fract_x
_atom_site_fract_y
_atom_site_fract_z
Si Si1 0.151065 0.956286 0.000000
Si Si2 0.726466 0.651251 0.649426
Si Si3 0.318937 0.215295 0.756902
Si Si4 0.472234 0.202307 0.845221
Si Si5 0.333334 0.666667 0.157167
O O1 0.050434 0.887937 0.000000
O O2 0.197512 0.947819 0.870629
O O3 0.707780 0.613655 0.500000
O O4 0.682495 0.711655 0.663938
O O5 0.684224 0.570769 0.755802
O O6 0.832335 0.705571 0.673773
O O7 0.415257 0.250595 0.822338
O O8 0.569651 0.265980 0.791506
O O9 0.470102 0.177238 0.000000
O O10 0.333334 0.666668 0.000000
#
# Coordination Sequence:
#
# PCOD8325088 Si02
#       5
#     6  12  12  12   4
#     4  12  19  32  48  76 104 146 182 232 265 314
#     4  10  20  34  53  77 106 141 180 216 261 315
#     4  10  19  31  55  74 108 137 179 217 266 308
#     4   9  19  34  58  81 106 138 176 220 268 322
#     4   9  18  39  61  83 106 135 172 221 277 324
#
# _framework density 16.942257999999999
#
# number of rings (size 3 to 8) (size 9 to 14) (size 15 to 20)
#    1.565    0.522    3.913    0.913    1.826    0.000 
#    0.000    2.609    0.000    6.261    0.000    3.652 
#    0.000    0.000    0.000    0.000    0.000    0.000 
#
# Total GULP energy -569928.496574 kJ/mol
# GULP energy per Si atom -12389.749926 kJ/mol
# Density = 1.690370 g / cm^3
# Si number density = 16.942258 Si / 1000 Ang^3
#
#
#
# Elastic Constant Matrix: (Units=GPa)
#
#
# Indices 1 2 3 4 5 6 
#
# 1 90.7342 -37.2259 12.2656 0.0000 0.0000 0.0031
# 2 -37.2259 90.7494 12.2684 0.0000 0.0000 0.0021
# 3 12.2656 12.2684 97.6676 0.0000 0.0000 0.0010
# 4 0.0000 0.0000 0.0000 66.1236 0.0015 0.0000
# 5 0.0000 0.0000 0.0000 0.0015 66.1223 0.0000
# 6 0.0031 0.0021 0.0010 0.0000 0.0000 63.9845
#
#
#
# Elastic Compliance Matrix: (Units=1/GPa)
#
#
# Indices 1 2 3 4 5 6 
#
# 1 0.013822 0.006007 -0.002490 0.000000 0.000000 -0.000001
# 2 0.006007 0.013820 -0.002490 0.000000 0.000000 -0.000001
# 3 -0.002490 -0.002490 0.010864 0.000000 0.000000 0.000000
# 4 0.000000 0.000000 0.000000 0.015123 0.000000 0.000000
# 5 0.000000 0.000000 0.000000 0.000000 0.015123 0.000000
# 6 -0.000001 -0.000001 0.000000 0.000000 0.000000 0.015629
#
#
# Mechanical properties :
#
#
# Convention : Reuss Voigt Hill
#
# Bulk Modulus (GPa) = 24.65582 28.19640 26.42611
# Shear Modulus (GPa) = 52.16504 58.70230 55.43367
#
# Velocity S-wave (km/s) = 5.55488 5.89268 5.72627
# Velocity P-wave (km/s) = 7.46504 7.93581 7.70402
#
# Compressibility (1/GPa) = 0.04055837
#
# Stress axis : x y z
#
# Youngs Moduli (GPa) = 72.34734 72.35910 92.04387
#
# Poissons Ratio (x) = -0.43463 0.22922
# Poissons Ratio (y) = -0.43456 0.22922
# Poissons Ratio (z) = 0.18017 0.18020
#
# Static dielectric constant tensor:
#      x y z
#    x 3.010070 -0.000010 0.000000 
#    y -0.000010 3.010070 0.000000 
#    z 0.000000 0.000000 3.036240 
# 
# 
# High freq. dielectric constant tensor:
#      x y z
#    x 1.635510 0.000000 0.000000 
#    y 0.000000 1.635510 0.000000 
#    z 0.000000 0.000000 1.652250 
# 
# From -- ./inp_files/587.got.cif
#   From: 2010.03.12/outbox.cif.g09.slc.cpg/sg175_1_cif.got.tgz:587.got - 2010.04.02 06:55:29.
