data_PCOD8325775
_publ_section_title
;
Structure prediction by ZEFSAII (Michael W. Deem and Ramdas Pophale) SiO2 
 PCOD8325775
Probable space group: P 61 2 2
;
_chemical_formula_sum "Si O2"
_cell_formula_units_Z 42
_cell_length_a 21.713234
_cell_length_b 21.713234
_cell_length_c 5.071714
_cell_angle_alpha 90.000000
_cell_angle_beta 90.000000
_cell_angle_gamma 120.000000
_cell_volume 2070.782148
_symmetry_space_group_name_H-M "P 61 2 2"
_symmetry_group_IT_number 178
_symmetry_cell_setting 'hexagonal'
loop_
_space_group_symop_operation_xyz
x,y,z
x-y,x,1/6+z
-y,x-y,1/3+z
-x,-y,1/2+z
-x+y,-x,2/3+z
y,-x+y,5/6+z
x-y,-y,-z
-x,-x+y,2/3-z
y,x,1/3-z
-y,-x,5/6-z
-x+y,y,1/2-z
x,x-y,1/6-z
loop_
_atom_site_type_symbol
_atom_site_label
_atom_site_fract_x
_atom_site_fract_y
_atom_site_fract_z
Si Si1 0.120953 0.383844 0.744420
Si Si2 0.469994 0.857663 0.991150
Si Si3 0.294549 0.589097 0.750000
Si Si4 0.215901 0.292071 0.254114
O O1 0.205618 0.411236 0.750000
O O2 0.100872 0.445225 0.799574
O O3 0.095899 0.356074 0.449614
O O4 0.076691 0.321167 0.953703
O O5 0.432082 0.864163 0.250000
O O6 0.455628 0.777905 0.918159
O O7 0.443675 0.887350 0.750000
O O8 0.273006 0.636503 0.583334
O O9 0.226700 0.226700 0.166667
O O10 0.131778 0.263555 0.250000
#
# Coordination Sequence:
#
# PCOD8325775 Si02
#       4
#    12  12   6  12
#     4  10  20  36  55  82 114 150 193 239 281 333
#     4  11  21  31  49  71 109 145 194 243 299 341
#     4  10  18  28  40  66 100 138 180 232 300 338
#     4  10  21  38  64  90 115 143 180 224 275 330
#
# _framework density 20.282191000000001
#
# number of rings (size 3 to 8) (size 9 to 14) (size 15 to 20)
#    0.000    1.714    2.857    2.571    0.000    0.000 
#    0.000    0.000    0.000   17.143    0.000    6.000 
#    0.000    0.000    0.000    0.000    0.000    0.000 
#
# Total GULP energy -520404.332421 kJ/mol
# GULP energy per Si atom -12390.579343 kJ/mol
# Density = 2.023603 g / cm^3
# Si number density = 20.282191 Si / 1000 Ang^3
#
#
#
# Elastic Constant Matrix: (Units=GPa)
#
#
# Indices 1 2 3 4 5 6 
#
# 1 81.3428 49.9198 21.2990 0.0000 0.0000 0.0000
# 2 49.9198 81.3428 21.2990 0.0000 0.0000 0.0000
# 3 21.2990 21.2990 103.7655 0.0000 0.0000 0.0000
# 4 0.0000 0.0000 0.0000 24.1288 0.0000 0.0000
# 5 0.0000 0.0000 0.0000 0.0000 24.1288 0.0000
# 6 0.0000 0.0000 0.0000 0.0000 0.0000 15.7115
#
#
#
# Elastic Compliance Matrix: (Units=1/GPa)
#
#
# Indices 1 2 3 4 5 6 
#
# 1 0.019993 -0.011831 -0.001675 0.000000 0.000000 0.000000
# 2 -0.011831 0.019993 -0.001675 0.000000 0.000000 0.000000
# 3 -0.001675 -0.001675 0.010325 0.000000 0.000000 0.000000
# 4 0.000000 0.000000 0.000000 0.041444 0.000000 0.000000
# 5 0.000000 0.000000 0.000000 0.000000 0.041444 0.000000
# 6 0.000000 0.000000 0.000000 0.000000 0.000000 0.063647
#
#
# Mechanical properties :
#
#
# Convention : Reuss Voigt Hill
#
# Bulk Modulus (GPa) = 50.13151 50.16518 50.14835
# Shear Modulus (GPa) = 21.38041 24.38938 22.88490
#
# Velocity S-wave (km/s) = 3.25029 3.47147 3.36270
# Velocity P-wave (km/s) = 6.23350 6.39183 6.31316
#
# Compressibility (1/GPa) = 0.01994753
#
# Stress axis : x y z
#
# Youngs Moduli (GPa) = 50.01782 50.01782 96.85347
#
# Poissons Ratio (x) = 0.59175 0.16226
# Poissons Ratio (y) = 0.59175 0.16226
# Poissons Ratio (z) = 0.08380 0.08380
#
# Static dielectric constant tensor:
#      x y z
#    x 3.541300 0.000000 0.000000 
#    y 0.000000 3.541300 0.000000 
#    z 0.000000 0.000000 3.674870 
# 
# 
# High freq. dielectric constant tensor:
#      x y z
#    x 1.767610 0.000000 0.000000 
#    y 0.000000 1.767610 0.000000 
#    z 0.000000 0.000000 1.799150 
# 
# From -- ./inp_files/710.got.cif
#   From: 2010.03.12/outbox.cif.g09.slc.cpg/sg178_1_cif.got.tgz:710.got - 2010.04.02 07:02:38.
