data_PCOD8325949
_publ_section_title
;
Structure prediction by ZEFSAII (Michael W. Deem and Ramdas Pophale) SiO2 
 PCOD8325949
Probable space group: P 61 2 2
;
_chemical_formula_sum "Si O2"
_cell_formula_units_Z 66
_cell_length_a 15.230631
_cell_length_b 15.230631
_cell_length_c 20.533158
_cell_angle_alpha 90.000000
_cell_angle_beta 90.000000
_cell_angle_gamma 120.000000
_cell_volume 4124.983099
_symmetry_space_group_name_H-M "P 61 2 2"
_symmetry_group_IT_number 178
_symmetry_cell_setting 'hexagonal'
loop_
_space_group_symop_operation_xyz
x,y,z
x-y,x,1/6+z
-y,x-y,1/3+z
-x,-y,1/2+z
-x+y,-x,2/3+z
y,-x+y,5/6+z
x-y,-y,-z
-x,-x+y,2/3-z
y,x,1/3-z
-y,-x,5/6-z
-x+y,y,1/2-z
x,x-y,1/6-z
loop_
_atom_site_type_symbol
_atom_site_label
_atom_site_fract_x
_atom_site_fract_y
_atom_site_fract_z
Si Si1 0.520206 0.210356 0.645670
Si Si2 0.426247 0.370392 0.423609
Si Si3 0.502410 0.337410 0.869124
Si Si4 0.120954 0.664757 0.713812
Si Si5 0.794469 0.401912 0.768445
Si Si6 0.000000 0.569463 0.833334
O O1 0.474339 0.237170 0.583334
O O2 0.426777 0.138808 0.693514
O O3 0.575989 0.149311 0.622528
O O4 0.596575 0.313173 0.683505
O O5 0.542400 0.457601 0.416667
O O6 0.357967 0.410412 0.455100
O O7 0.391566 0.326902 0.350942
O O8 0.594680 0.405321 0.916667
O O9 0.453533 0.222601 0.891628
O O10 0.538111 0.355111 0.794932
O O11 0.044775 0.647868 0.773434
O O12 0.729115 0.458229 0.750000
O O13 0.902984 0.468490 0.803813
#
# Coordination Sequence:
#
# PCOD8325949 Si02
#       6
#    12  12  12  12  12   6
#     4  11  18  33  50  69 101 134 174 213 254 305
#     4   9  19  33  47  67  97 130 174 212 252 306
#     4  11  20  33  52  68  94 137 176 211 259 303
#     4  11  20  35  45  69  97 135 173 219 254 306
#     4  12  21  34  51  73 100 141 176 216 257 310
#     4  12  24  30  50  76 102 130 192 226 254 314
#
# _framework density 16.000066
#
# number of rings (size 3 to 8) (size 9 to 14) (size 15 to 20)
#    0.000    1.091    5.455    5.455    0.000    0.000 
#    0.000    0.000    0.000    0.000    0.000    0.000 
#    0.000    0.000    0.000   26.182    0.000    0.182 
#
# Total GULP energy -817780.022055 kJ/mol
# GULP energy per Si atom -12390.606395 kJ/mol
# Density = 1.596365 g / cm^3
# Si number density = 16.000066 Si / 1000 Ang^3
#
#
#
# Elastic Constant Matrix: (Units=GPa)
#
#
# Indices 1 2 3 4 5 6 
#
# 1 62.8607 36.3716 39.0154 0.0000 0.0000 0.0000
# 2 36.3716 62.8607 39.0154 0.0000 0.0000 0.0000
# 3 39.0154 39.0154 126.2323 0.0000 0.0000 0.0000
# 4 0.0000 0.0000 0.0000 27.1684 0.0000 0.0000
# 5 0.0000 0.0000 0.0000 0.0000 27.1684 0.0000
# 6 0.0000 0.0000 0.0000 0.0000 0.0000 13.2446
#
#
#
# Elastic Compliance Matrix: (Units=1/GPa)
#
#
# Indices 1 2 3 4 5 6 
#
# 1 0.025532 -0.012219 -0.004115 0.000000 0.000000 0.000000
# 2 -0.012219 0.025532 -0.004115 0.000000 0.000000 0.000000
# 3 -0.004115 -0.004115 0.010465 0.000000 0.000000 0.000000
# 4 0.000000 0.000000 0.000000 0.036808 0.000000 0.000000
# 5 0.000000 0.000000 0.000000 0.000000 0.036808 0.000000
# 6 0.000000 0.000000 0.000000 0.000000 0.000000 0.075503
#
#
# Mechanical properties :
#
#
# Convention : Reuss Voigt Hill
#
# Bulk Modulus (GPa) = 48.46734 53.41763 50.94249
# Shear Modulus (GPa) = 19.34820 22.68635 21.01727
#
# Velocity S-wave (km/s) = 3.48121 3.76957 3.62826
# Velocity P-wave (km/s) = 6.82028 7.23910 7.03281
#
# Compressibility (1/GPa) = 0.02063245
#
# Stress axis : x y z
#
# Youngs Moduli (GPa) = 39.16634 39.16634 95.55272
#
# Poissons Ratio (x) = 0.47858 0.39317
# Poissons Ratio (y) = 0.47858 0.39317
# Poissons Ratio (z) = 0.16116 0.16116
#
# Static dielectric constant tensor:
#      x y z
#    x 2.866360 0.000000 0.000000 
#    y 0.000000 2.866360 0.000000 
#    z 0.000000 0.000000 3.601550 
# 
# 
# High freq. dielectric constant tensor:
#      x y z
#    x 1.575170 0.000000 0.000000 
#    y 0.000000 1.575170 0.000000 
#    z 0.000000 0.000000 1.652740 
# 
# From -- ./inp_files/7633.got.cif
#   From: 2010.03.12/outbox.cif.g09.slc.cpg/sg178_4_cif.got.tgz:7633.got - 2010.04.02 07:02:38.
