data_PCOD8325342
_publ_section_title
;
Structure prediction by ZEFSAII (Michael W. Deem and Ramdas Pophale) SiO2 
 PCOD8325342
Probable space group: P 6/M
;
_chemical_formula_sum "Si O2"
_cell_formula_units_Z 70
_cell_length_a 14.469168
_cell_length_b 14.469168
_cell_length_c 18.576153
_cell_angle_alpha 90.000000
_cell_angle_beta 90.000000
_cell_angle_gamma 120.000000
_cell_volume 3368.011220
_symmetry_space_group_name_H-M "P 6/M"
_symmetry_group_IT_number 175
_symmetry_cell_setting 'hexagonal'
loop_
_space_group_symop_operation_xyz
x,y,z
x-y,x,z
-y,x-y,z
-x,-y,z
-x+y,-x,z
y,-x+y,z
-x,-y,-z
-x+y,-x,-z
y,-x+y,-z
x,y,-z
x-y,x,-z
-y,x-y,-z
loop_
_atom_site_type_symbol
_atom_site_label
_atom_site_fract_x
_atom_site_fract_y
_atom_site_fract_z
Si Si1 0.333333 0.666666 0.082031
Si Si2 0.587217 0.793611 0.630239
Si Si3 0.437869 0.562137 0.579662
Si Si4 0.874695 0.749398 0.500000
Si Si5 0.792904 0.585820 0.787311
Si Si6 0.749917 0.874971 0.081581
Si Si7 0.561893 0.123779 0.167775
O O1 0.395572 0.604423 0.103131
O O2 0.333334 0.666668 0.000000
O O3 0.511633 0.667685 0.624077
O O4 0.511622 0.843939 0.624074
O O5 0.678141 0.839075 0.570854
O O6 0.644193 0.822102 0.709372
O O7 0.500000 0.500000 0.568850
O O8 0.410791 0.589223 0.500000
O O9 0.823301 0.823305 0.500000
O O10 0.829749 0.659534 0.857804
O O11 0.664762 0.516373 0.785642
O O12 0.851615 0.516389 0.785650
O O13 0.823122 0.823133 0.093188
O O14 0.700744 0.850386 0.000000
O O15 0.500000 0.000000 0.140980
#
# Coordination Sequence:
#
# PCOD8325342 Si02
#       7
#     4  12  12   6  12  12  12
#     4   9  21  39  60  93 123 154 209 253 291 372
#     4  12  24  41  66  95 129 164 204 261 320 371
#     4  11  22  39  63  92 123 162 209 254 306 370
#     4  12  27  46  64  86 122 168 211 254 308 372
#     4  11  24  40  63  95 127 166 212 255 309 384
#     4  10  22  42  67  94 124 161 213 277 336 383
#     4  10  22  41  60  84 125 167 200 247 307 360
#
# _framework density 20.78378
#
# number of rings (size 3 to 8) (size 9 to 14) (size 15 to 20)
#    0.000    1.200    1.714    4.029    0.000   10.629 
#    0.000    0.000    0.000    2.057    0.000    0.000 
#    0.000    0.000    0.000    0.000    0.000    0.000 
#
# Total GULP energy -867646.194718 kJ/mol
# GULP energy per Si atom -12394.945639 kJ/mol
# Density = 2.073647 g / cm^3
# Si number density = 20.783780 Si / 1000 Ang^3
#
#
#
# Elastic Constant Matrix: (Units=GPa)
#
#
# Indices 1 2 3 4 5 6 
#
# 1 150.8451 50.5843 65.9949 0.0000 0.0000 0.0001
# 2 50.5843 150.8448 65.9939 0.0000 0.0000 0.0000
# 3 65.9949 65.9939 201.0360 0.0000 0.0000 -0.0001
# 4 0.0000 0.0000 0.0000 8.7661 0.0000 0.0000
# 5 0.0000 0.0000 0.0000 0.0000 8.7661 0.0000
# 6 0.0001 0.0000 -0.0001 0.0000 0.0000 50.1306
#
#
#
# Elastic Compliance Matrix: (Units=1/GPa)
#
#
# Indices 1 2 3 4 5 6 
#
# 1 0.008150 -0.001824 -0.002076 0.000000 0.000000 0.000000
# 2 -0.001824 0.008150 -0.002076 0.000000 0.000000 0.000000
# 3 -0.002076 -0.002076 0.006337 0.000000 0.000000 0.000000
# 4 0.000000 0.000000 0.000000 0.114076 0.000000 0.000000
# 5 0.000000 0.000000 0.000000 0.000000 0.114076 0.000000
# 6 0.000000 0.000000 0.000000 0.000000 0.000000 0.019948
#
#
# Mechanical properties :
#
#
# Convention : Reuss Voigt Hill
#
# Bulk Modulus (GPa) = 93.61354 96.43024 95.02189
# Shear Modulus (GPa) = 17.46714 34.87606 26.17160
#
# Velocity S-wave (km/s) = 2.90215 4.10084 3.55242
# Velocity P-wave (km/s) = 7.50795 8.30181 7.91484
#
# Compressibility (1/GPa) = 0.01068221
#
# Stress axis : x y z
#
# Youngs Moduli (GPa) = 122.70623 122.70649 157.79246
#
# Poissons Ratio (x) = 0.22387 0.32763
# Poissons Ratio (y) = 0.22387 0.32763
# Poissons Ratio (z) = 0.25478 0.25478
#
# Static dielectric constant tensor:
#      x y z
#    x 3.812830 0.000000 0.000000 
#    y 0.000000 3.812830 0.000000 
#    z 0.000000 0.000000 3.822000 
# 
# 
# High freq. dielectric constant tensor:
#      x y z
#    x 1.817340 0.000000 0.000000 
#    y 0.000000 1.817340 0.000000 
#    z 0.000000 0.000000 1.820340 
# 
# From -- ./inp_files/2910.got.cif
#   From: 2010.03.12/outbox.cif.g09.slc.cpg/sg175_2_cif.got.tgz:2910.got - 2010.04.02 06:55:29.
