data_PCOD8325269
_publ_section_title
;
Structure prediction by ZEFSAII (Michael W. Deem and Ramdas Pophale) SiO2 
 PCOD8325269
Probable space group: P 6/M
;
_chemical_formula_sum "Si O2"
_cell_formula_units_Z 66
_cell_length_a 21.366167
_cell_length_b 21.366167
_cell_length_c 7.803940
_cell_angle_alpha 90.000000
_cell_angle_beta 90.000000
_cell_angle_gamma 120.000000
_cell_volume 3085.302780
_symmetry_space_group_name_H-M "P 6/M"
_symmetry_group_IT_number 175
_symmetry_cell_setting 'hexagonal'
loop_
_space_group_symop_operation_xyz
x,y,z
x-y,x,z
-y,x-y,z
-x,-y,z
-x+y,-x,z
y,-x+y,z
-x,-y,-z
-x+y,-x,-z
y,-x+y,-z
x,y,-z
x-y,x,-z
-y,x-y,-z
loop_
_atom_site_type_symbol
_atom_site_label
_atom_site_fract_x
_atom_site_fract_y
_atom_site_fract_z
Si Si1 0.502717 0.895539 0.807106
Si Si2 0.890908 0.827873 0.000000
Si Si3 0.347809 0.989582 0.690754
Si Si4 0.194081 0.284393 0.701936
Si Si5 0.800548 0.244155 0.691281
Si Si6 0.858783 0.509959 0.808891
O O1 0.567095 0.953147 0.690823
O O2 0.511284 0.824774 0.811851
O O3 0.426128 0.879025 0.726902
O O4 0.508845 0.925358 0.000000
O O5 0.866941 0.888746 0.000000
O O6 0.861484 0.779045 0.827311
O O7 0.326179 0.957280 0.500000
O O8 0.299343 0.024727 0.744456
O O9 0.334941 0.926225 0.819000
O O10 0.174049 0.262804 0.500000
O O11 0.194425 0.358995 0.746170
O O12 0.828291 0.272098 0.500000
O O13 0.714275 0.201471 0.694442
O O14 0.828818 0.484958 0.000000
#
# Coordination Sequence:
#
# PCOD8325269 Si02
#       6
#    12   6  12  12  12  12
#     4  10  21  38  55  82 120 164 204 252 313 376
#     4  12  29  48  74 102 133 177 211 257 313 399
#     4  10  21  36  59  91 126 158 202 259 313 375
#     4   9  23  43  67 102 133 166 212 269 328 382
#     4  10  22  39  60  87 122 162 215 271 317 378
#     4  11  23  35  58  89 121 162 210 260 312 378
#
# _framework density 21.391741
#
# number of rings (size 3 to 8) (size 9 to 14) (size 15 to 20)
#    0.000    1.818    0.000    3.909   10.182    5.818 
#    1.091    0.000    0.000    1.091    0.000    0.000 
#    0.000    0.000    0.000    0.000    0.000    0.000 
#
# Total GULP energy -818019.195565 kJ/mol
# GULP energy per Si atom -12394.230236 kJ/mol
# Density = 2.134305 g / cm^3
# Si number density = 21.391741 Si / 1000 Ang^3
#
#
#
# Elastic Constant Matrix: (Units=GPa)
#
#
# Indices 1 2 3 4 5 6 
#
# 1 76.5909 28.9734 26.2085 0.0000 0.0000 0.0000
# 2 28.9734 76.5909 26.2085 0.0000 0.0000 0.0000
# 3 26.2085 26.2085 78.7660 0.0000 0.0000 0.0000
# 4 0.0000 0.0000 0.0000 24.5570 0.0000 0.0000
# 5 0.0000 0.0000 0.0000 0.0000 24.5570 0.0000
# 6 0.0000 0.0000 0.0000 0.0000 0.0000 23.8088
#
#
#
# Elastic Compliance Matrix: (Units=1/GPa)
#
#
# Indices 1 2 3 4 5 6 
#
# 1 0.016174 -0.004826 -0.003776 0.000000 0.000000 0.000000
# 2 -0.004826 0.016174 -0.003776 0.000000 0.000000 0.000000
# 3 -0.003776 -0.003776 0.015209 0.000000 0.000000 0.000000
# 4 0.000000 0.000000 0.000000 0.040722 0.000000 0.000000
# 5 0.000000 0.000000 0.000000 0.000000 0.040722 0.000000
# 6 0.000000 0.000000 0.000000 0.000000 0.000000 0.042001
#
#
# Mechanical properties :
#
#
# Convention : Reuss Voigt Hill
#
# Bulk Modulus (GPa) = 43.85826 43.85875 43.85851
# Shear Modulus (GPa) = 24.58720 24.62173 24.60447
#
# Velocity S-wave (km/s) = 3.39393 3.39631 3.39512
# Velocity P-wave (km/s) = 5.99210 5.99392 5.99301
#
# Compressibility (1/GPa) = 0.02280072
#
# Stress axis : x y z
#
# Youngs Moduli (GPa) = 61.82684 61.82684 65.75238
#
# Poissons Ratio (x) = 0.29840 0.24827
# Poissons Ratio (y) = 0.29840 0.24827
# Poissons Ratio (z) = 0.23345 0.23345
#
# Static dielectric constant tensor:
#      x y z
#    x 3.872810 0.000000 0.000000 
#    y 0.000000 3.872810 0.000000 
#    z 0.000000 0.000000 3.724170 
# 
# 
# High freq. dielectric constant tensor:
#      x y z
#    x 1.829920 0.000000 0.000000 
#    y 0.000000 1.829920 0.000000 
#    z 0.000000 0.000000 1.838390 
# 
# From -- ./inp_files/974.got.cif
#   From: 2010.03.12/outbox.cif.g09.slc.cpg/sg175_1_cif.got.tgz:974.got - 2010.04.02 06:55:29.
