data_PCOD8325243
_publ_section_title
;
Structure prediction by ZEFSAII (Michael W. Deem and Ramdas Pophale) SiO2 
 PCOD8325243
Probable space group: P 6/M
;
_chemical_formula_sum "Si O2"
_cell_formula_units_Z 84
_cell_length_a 19.095677
_cell_length_b 19.095677
_cell_length_c 14.015611
_cell_angle_alpha 90.000000
_cell_angle_beta 90.000000
_cell_angle_gamma 120.000000
_cell_volume 4426.014038
_symmetry_space_group_name_H-M "P 6/M"
_symmetry_group_IT_number 175
_symmetry_cell_setting 'hexagonal'
loop_
_space_group_symop_operation_xyz
x,y,z
x-y,x,z
-y,x-y,z
-x,-y,z
-x+y,-x,z
y,-x+y,z
-x,-y,-z
-x+y,-x,-z
y,-x+y,-z
x,y,-z
x-y,x,-z
-y,x-y,-z
loop_
_atom_site_type_symbol
_atom_site_label
_atom_site_fract_x
_atom_site_fract_y
_atom_site_fract_z
Si Si1 0.713690 0.695898 0.246411
Si Si2 0.302900 0.854243 0.285454
Si Si3 0.551681 0.462673 0.389778
Si Si4 0.627815 0.562564 0.105536
Si Si5 0.165259 0.164143 0.891020
Si Si6 0.386729 0.879224 0.104799
Si Si7 0.859790 0.263858 0.611199
O O1 0.635293 0.697198 0.283657
O O2 0.696167 0.619427 0.179917
O O3 0.771916 0.776390 0.187611
O O4 0.753429 0.680709 0.340798
O O5 0.377425 0.856072 0.340218
O O6 0.312125 0.829461 0.177111
O O7 0.224410 0.788673 0.337275
O O8 0.500000 0.500000 0.344009
O O9 0.530496 0.443812 0.500000
O O10 0.644862 0.525532 0.372752
O O11 0.588050 0.468909 0.138061
O O12 0.562938 0.591750 0.101717
O O13 0.665899 0.572554 0.000000
O O14 0.078870 0.156073 0.873764
O O15 0.195593 0.193981 0.000000
O O16 0.359256 0.839634 0.000000
O O17 0.854178 0.241059 0.500000
#
# Coordination Sequence:
#
# PCOD8325243 Si02
#       7
#    12  12  12  12  12  12  12
#     4  11  20  34  56  85 115 146 184 236 293 344
#     4  11  21  35  59  82 115 152 191 239 294 351
#     4  10  20  38  61  83 110 150 197 245 299 359
#     4   8  14  26  48  79 111 141 179 223 273 332
#     4  10  21  38  59  84 117 155 191 226 272 335
#     4   8  15  27  47  77 111 147 183 221 268 334
#     4  11  24  38  55  84 115 147 195 246 299 352
#
# _framework density 18.978701000000001
#
# number of rings (size 3 to 8) (size 9 to 14) (size 15 to 20)
#    0.000    2.143    1.429    3.571    2.000    1.714 
#    0.857    1.429    0.000    0.857    0.000    0.000 
#    0.000    2.286    0.000    0.000    0.000    0.000 
#
# Total GULP energy -1041087.709638 kJ/mol
# GULP energy per Si atom -12393.901305 kJ/mol
# Density = 1.893550 g / cm^3
# Si number density = 18.978701 Si / 1000 Ang^3
#
#
#
# Elastic Constant Matrix: (Units=GPa)
#
#
# Indices 1 2 3 4 5 6 
#
# 1 65.1753 20.7674 46.8385 0.0000 0.0000 0.0000
# 2 20.7674 65.1753 46.8385 0.0000 0.0000 0.0000
# 3 46.8385 46.8385 110.0155 0.0000 0.0000 0.0000
# 4 0.0000 0.0000 0.0000 30.7747 0.0000 0.0000
# 5 0.0000 0.0000 0.0000 0.0000 30.7747 0.0000
# 6 0.0000 0.0000 0.0000 0.0000 0.0000 22.2039
#
#
#
# Elastic Compliance Matrix: (Units=1/GPa)
#
#
# Indices 1 2 3 4 5 6 
#
# 1 0.022115 -0.000404 -0.009243 0.000000 0.000000 0.000000
# 2 -0.000404 0.022115 -0.009243 0.000000 0.000000 0.000000
# 3 -0.009243 -0.009243 0.016960 0.000000 0.000000 0.000000
# 4 0.000000 0.000000 0.000000 0.032494 0.000000 0.000000
# 5 0.000000 0.000000 0.000000 0.000000 0.032494 0.000000
# 6 0.000000 0.000000 0.000000 0.000000 0.000000 0.045037
#
#
# Mechanical properties :
#
#
# Convention : Reuss Voigt Hill
#
# Bulk Modulus (GPa) = 42.71922 52.13942 47.42932
# Shear Modulus (GPa) = 23.06290 25.14545 24.10418
#
# Velocity S-wave (km/s) = 3.48975 3.64391 3.56766
# Velocity P-wave (km/s) = 6.22862 6.72580 6.48198
#
# Compressibility (1/GPa) = 0.02340867
#
# Stress axis : x y z
#
# Youngs Moduli (GPa) = 45.21899 45.21899 58.96186
#
# Poissons Ratio (x) = 0.01827 0.54500
# Poissons Ratio (y) = 0.01827 0.54500
# Poissons Ratio (z) = 0.41797 0.41797
#
# Static dielectric constant tensor:
#      x y z
#    x 3.314760 0.000000 0.000000 
#    y 0.000000 3.314760 0.000000 
#    z 0.000000 0.000000 4.020190 
# 
# 
# High freq. dielectric constant tensor:
#      x y z
#    x 1.716030 0.000000 0.000000 
#    y 0.000000 1.716030 0.000000 
#    z 0.000000 0.000000 1.756020 
# 
# From -- ./inp_files/2600.got.cif
#   From: 2010.03.12/outbox.cif.g09.slc.cpg/sg175_2_cif.got.tgz:2600.got - 2010.04.02 06:55:29.
