data_PCOD8325515
_publ_section_title
;
Structure prediction by ZEFSAII (Michael W. Deem and Ramdas Pophale) SiO2 
 PCOD8325515
Probable space group: P 63/M
;
_chemical_formula_sum "Si O2"
_cell_formula_units_Z 64
_cell_length_a 14.407692
_cell_length_b 14.407692
_cell_length_c 17.644598
_cell_angle_alpha 90.000000
_cell_angle_beta 90.000000
_cell_angle_gamma 120.000000
_cell_volume 3171.985778
_symmetry_space_group_name_H-M "P 63/M"
_symmetry_group_IT_number 176
_symmetry_cell_setting 'hexagonal'
loop_
_space_group_symop_operation_xyz
x,y,z
x-y,x,1/2+z
-y,x-y,z
-x,-y,1/2+z
-x+y,-x,z
y,-x+y,1/2+z
-x,-y,-z
-x+y,-x,1/2-z
y,-x+y,-z
x,y,1/2-z
x-y,x,-z
-y,x-y,1/2-z
loop_
_atom_site_type_symbol
_atom_site_label
_atom_site_fract_x
_atom_site_fract_y
_atom_site_fract_z
Si Si1 0.333335 0.666667 0.159789
Si Si2 0.740249 0.037888 0.664943
Si Si3 0.594590 0.106507 0.072132
Si Si4 0.234762 0.113609 0.524525
Si Si5 0.479779 0.589033 0.398608
Si Si6 0.417033 0.171432 0.088035
O O1 0.333334 0.666668 0.250000
O O2 0.215854 0.627434 0.125946
O O3 0.784756 0.054692 0.750000
O O4 0.842239 0.088696 0.609650
O O5 0.670480 0.096074 0.655935
O O6 0.662556 0.910972 0.650403
O O7 0.520823 0.160163 0.075086
O O8 0.706624 0.170905 0.116890
O O9 0.532850 0.988548 0.109304
O O10 0.625773 0.105865 0.984390
O O11 0.177302 0.162384 0.471998
O O12 0.351321 0.147384 0.490488
#
# Coordination Sequence:
#
# PCOD8325515 Si02
#       6
#     4  12  12  12  12  12
#     4  12  24  36  51  81 123 165 190 227 301 366
#     4  10  21  39  58  86 123 157 195 253 312 361
#     4  10  19  35  60  90 114 153 199 255 284 349
#     4  10  21  38  62  88 116 156 205 257 301 362
#     4  10  21  34  56  83 120 153 199 238 291 348
#     4  10  20  36  61  91 120 154 205 247 296 359
#
# _framework density 20.176636999999999
#
# number of rings (size 3 to 8) (size 9 to 14) (size 15 to 20)
#    0.000    1.875    1.875    2.250    2.625    0.000 
#    0.000    8.438    0.000    0.000    0.000    0.000 
#    0.000    0.000    0.000    0.000    0.000    0.000 
#
# Total GULP energy -793600.836353 kJ/mol
# GULP energy per Si atom -12400.013068 kJ/mol
# Density = 2.013071 g / cm^3
# Si number density = 20.176637 Si / 1000 Ang^3
#
#
#
# Elastic Constant Matrix: (Units=GPa)
#
#
# Indices 1 2 3 4 5 6 
#
# 1 99.5625 45.5836 27.9489 0.0000 0.0000 -0.0001
# 2 45.5836 99.5639 27.9491 0.0000 0.0000 0.0005
# 3 27.9489 27.9491 109.9229 0.0000 0.0000 0.0000
# 4 0.0000 0.0000 0.0000 18.2670 0.0000 0.0000
# 5 0.0000 0.0000 0.0000 0.0000 18.2670 0.0000
# 6 -0.0001 0.0005 0.0000 0.0000 0.0000 26.9894
#
#
#
# Elastic Compliance Matrix: (Units=1/GPa)
#
#
# Indices 1 2 3 4 5 6 
#
# 1 0.013082 -0.005444 -0.001942 0.000000 0.000000 0.000000
# 2 -0.005444 0.013081 -0.001942 0.000000 0.000000 0.000000
# 3 -0.001942 -0.001942 0.010085 0.000000 0.000000 0.000000
# 4 0.000000 0.000000 0.000000 0.054744 0.000000 0.000000
# 5 0.000000 0.000000 0.000000 0.000000 0.054744 0.000000
# 6 0.000000 0.000000 0.000000 0.000000 0.000000 0.037052
#
#
# Mechanical properties :
#
#
# Convention : Reuss Voigt Hill
#
# Bulk Modulus (GPa) = 56.84382 56.89027 56.86705
# Shear Modulus (GPa) = 24.11891 26.54251 25.33071
#
# Velocity S-wave (km/s) = 3.46119 3.63093 3.54707
# Velocity P-wave (km/s) = 6.64886 6.77019 6.70980
#
# Compressibility (1/GPa) = 0.01759206
#
# Stress axis : x y z
#
# Youngs Moduli (GPa) = 76.44350 76.44456 99.15932
#
# Poissons Ratio (x) = 0.41617 0.19256
# Poissons Ratio (y) = 0.41616 0.19256
# Poissons Ratio (z) = 0.14845 0.14845
#
# Static dielectric constant tensor:
#      x y z
#    x 3.774660 0.000010 0.000000 
#    y 0.000010 3.774660 0.000000 
#    z 0.000000 0.000000 3.232370 
# 
# 
# High freq. dielectric constant tensor:
#      x y z
#    x 1.796030 0.000000 0.000000 
#    y 0.000000 1.796030 0.000000 
#    z 0.000000 0.000000 1.746170 
# 
# From -- ./inp_files/3322.got.cif
#   From: 2010.06.25/outbox.cif.g09.slc.cpg/sg176_2_cif.got.tgz:3322.got - 2010.06.28 12:15:01.
