data_PCOD8325183
_publ_section_title
;
Structure prediction by ZEFSAII (Michael W. Deem and Ramdas Pophale) SiO2 
 PCOD8325183
Probable space group: P 6/M
;
_chemical_formula_sum "Si O2"
_cell_formula_units_Z 76
_cell_length_a 19.207119
_cell_length_b 19.207119
_cell_length_c 12.805865
_cell_angle_alpha 90.000000
_cell_angle_beta 90.000000
_cell_angle_gamma 120.000000
_cell_volume 4091.325240
_symmetry_space_group_name_H-M "P 6/M"
_symmetry_group_IT_number 175
_symmetry_cell_setting 'hexagonal'
loop_
_space_group_symop_operation_xyz
x,y,z
x-y,x,z
-y,x-y,z
-x,-y,z
-x+y,-x,z
y,-x+y,z
-x,-y,-z
-x+y,-x,-z
y,-x+y,-z
x,y,-z
x-y,x,-z
-y,x-y,-z
loop_
_atom_site_type_symbol
_atom_site_label
_atom_site_fract_x
_atom_site_fract_y
_atom_site_fract_z
Si Si1 0.059757 0.879880 0.876216
Si Si2 0.367931 0.450320 0.299237
Si Si3 0.484491 0.386087 0.297686
Si Si4 0.828558 0.325268 0.500000
Si Si5 0.481894 0.663268 0.500000
Si Si6 0.333335 0.666667 0.123612
Si Si7 0.248777 0.359966 0.882710
Si Si8 0.197925 0.492535 0.883967
O O1 0.090783 0.818846 0.842031
O O2 0.969574 0.848678 0.832075
O O3 0.059450 0.884630 0.000000
O O4 0.427872 0.419919 0.332770
O O5 0.422996 0.545107 0.275632
O O6 0.310029 0.441287 0.397030
O O7 0.321471 0.398395 0.198641
O O8 0.471240 0.324713 0.391740
O O9 0.458750 0.338574 0.188998
O O10 0.844839 0.414937 0.500000
O O11 0.732228 0.273506 0.500000
O O12 0.302588 0.727261 0.163150
O O13 0.333334 0.666668 0.000000
O O14 0.215509 0.420489 0.888524
O O15 0.278263 0.352896 0.000000
O O16 0.176691 0.509644 0.000000
#
# Coordination Sequence:
#
# PCOD8325183 Si02
#       8
#    12  12  12   6   6   4  12  12
#     4   9  18  33  54  79 107 141 180 226 278 330
#     4  10  21  36  53  75 106 143 178 219 269 325
#     4  10  21  35  53  75 104 143 181 219 270 322
#     4  10  20  37  57  79 102 131 176 229 278 318
#     4  10  20  35  55  77  98 127 173 224 269 313
#     4   9  18  33  51  70 101 148 195 237 268 299
#     4  10  21  34  52  80 113 144 180 220 266 324
#     4  10  20  33  51  75 106 143 184 225 266 313
#
# _framework density 18.575889
#
# number of rings (size 3 to 8) (size 9 to 14) (size 15 to 20)
#    0.000    2.211    0.000    2.684    2.211    6.316 
#    0.000    1.579    0.000    0.000    0.000    0.000 
#    0.000    0.000    0.000    1.421    0.000    0.632 
#
# Total GULP energy -941778.693153 kJ/mol
# GULP energy per Si atom -12391.824910 kJ/mol
# Density = 1.853361 g / cm^3
# Si number density = 18.575889 Si / 1000 Ang^3
#
#
#
# Elastic Constant Matrix: (Units=GPa)
#
#
# Indices 1 2 3 4 5 6 
#
# 1 81.3754 35.1491 36.0809 0.0000 0.0000 0.0000
# 2 35.1491 81.3746 36.0809 0.0000 0.0000 -0.0001
# 3 36.0809 36.0809 93.7517 0.0000 0.0000 0.0001
# 4 0.0000 0.0000 0.0000 21.2528 0.0000 0.0000
# 5 0.0000 0.0000 0.0000 0.0000 21.2530 0.0000
# 6 0.0000 -0.0001 0.0001 0.0000 0.0000 23.1129
#
#
#
# Elastic Compliance Matrix: (Units=1/GPa)
#
#
# Indices 1 2 3 4 5 6 
#
# 1 0.016450 -0.005183 -0.004336 0.000000 0.000000 0.000000
# 2 -0.005183 0.016450 -0.004336 0.000000 0.000000 0.000000
# 3 -0.004336 -0.004336 0.014004 0.000000 0.000000 0.000000
# 4 0.000000 0.000000 0.000000 0.047053 0.000000 0.000000
# 5 0.000000 0.000000 0.000000 0.000000 0.047052 0.000000
# 6 0.000000 0.000000 0.000000 0.000000 0.000000 0.043266
#
#
# Mechanical properties :
#
#
# Convention : Reuss Voigt Hill
#
# Bulk Modulus (GPa) = 52.10064 52.34709 52.22387
# Shear Modulus (GPa) = 22.89548 23.06980 22.98264
#
# Velocity S-wave (km/s) = 3.51456 3.52791 3.52124
# Velocity P-wave (km/s) = 6.67666 6.69598 6.68633
#
# Compressibility (1/GPa) = 0.01919362
#
# Stress axis : x y z
#
# Youngs Moduli (GPa) = 60.79023 60.78951 71.40726
#
# Poissons Ratio (x) = 0.31506 0.30964
# Poissons Ratio (y) = 0.31506 0.30965
# Poissons Ratio (z) = 0.26360 0.26360
#
# Static dielectric constant tensor:
#      x y z
#    x 3.387240 0.000000 0.000000 
#    y 0.000000 3.387250 0.000000 
#    z 0.000000 0.000000 3.496860 
# 
# 
# High freq. dielectric constant tensor:
#      x y z
#    x 1.713130 0.000000 0.000000 
#    y 0.000000 1.713130 0.000000 
#    z 0.000000 0.000000 1.704920 
# 
# From -- ./inp_files/2584.got.cif
#   From: 2010.03.12/outbox.cif.g09.slc.cpg/sg175_2_cif.got.tgz:2584.got - 2010.04.02 06:55:29.
