data_PCOD8325971
_publ_section_title
;
Structure prediction by ZEFSAII (Michael W. Deem and Ramdas Pophale) SiO2 
 PCOD8325971
Probable space group: P 61 2 2
;
_chemical_formula_sum "Si O2"
_cell_formula_units_Z 66
_cell_length_a 14.359954
_cell_length_b 14.359954
_cell_length_c 18.554771
_cell_angle_alpha 90.000000
_cell_angle_beta 90.000000
_cell_angle_gamma 120.000000
_cell_volume 3313.540841
_symmetry_space_group_name_H-M "P 61 2 2"
_symmetry_group_IT_number 178
_symmetry_cell_setting 'hexagonal'
loop_
_space_group_symop_operation_xyz
x,y,z
x-y,x,1/6+z
-y,x-y,1/3+z
-x,-y,1/2+z
-x+y,-x,2/3+z
y,-x+y,5/6+z
x-y,-y,-z
-x,-x+y,2/3-z
y,x,1/3-z
-y,-x,5/6-z
-x+y,y,1/2-z
x,x-y,1/6-z
loop_
_atom_site_type_symbol
_atom_site_label
_atom_site_fract_x
_atom_site_fract_y
_atom_site_fract_z
Si Si1 0.764829 0.529658 0.250000
Si Si2 0.362445 0.076861 0.062020
Si Si3 0.166996 0.495314 0.030404
Si Si4 0.793358 0.389659 0.784303
Si Si5 0.549398 0.897112 0.341208
Si Si6 0.354382 0.420921 0.852277
O O1 0.677761 0.453966 0.190326
O O2 0.733472 0.611154 0.289077
O O3 0.328987 0.164494 0.083334
O O4 0.483945 0.135181 0.030467
O O5 0.346996 0.002529 0.130863
O O6 0.283168 0.000000 0.000000
O O7 0.177487 0.588744 0.083334
O O8 0.150948 0.512622 0.946644
O O9 0.265665 0.476867 0.051267
O O10 0.053830 0.386182 0.042209
O O11 0.679113 0.358226 0.750000
O O12 0.561222 0.867176 0.259043
O O13 0.453940 0.923365 0.344746
#
# Coordination Sequence:
#
# PCOD8325971 Si02
#       6
#     6  12  12  12  12  12
#     4  12  24  40  60  90 134 174 226 264 318 390
#     4  11  25  41  63  95 128 165 219 273 330 391
#     4  12  24  40  67  93 131 176 218 267 330 394
#     4  11  24  38  58  90 126 175 213 261 320 388
#     4  11  23  42  60  92 129 174 216 267 330 392
#     4  11  23  41  61  91 130 170 220 265 323 400
#
# _framework density 19.91827
#
# number of rings (size 3 to 8) (size 9 to 14) (size 15 to 20)
#    0.000    0.727    5.455    2.182   12.727    0.000 
#    0.000    0.000    0.000    0.000    2.364    0.000 
#    0.000    0.000    0.000    0.000    0.000    0.000 
#
# Total GULP energy -817991.897407 kJ/mol
# GULP energy per Si atom -12393.816627 kJ/mol
# Density = 1.987293 g / cm^3
# Si number density = 19.918270 Si / 1000 Ang^3
#
#
#
# Elastic Constant Matrix: (Units=GPa)
#
#
# Indices 1 2 3 4 5 6 
#
# 1 88.8286 43.2405 34.7782 0.0000 0.0000 0.0000
# 2 43.2405 88.8286 34.7782 0.0000 0.0000 0.0000
# 3 34.7782 34.7782 112.1734 0.0000 0.0000 0.0000
# 4 0.0000 0.0000 0.0000 26.9251 0.0000 0.0000
# 5 0.0000 0.0000 0.0000 0.0000 26.9251 0.0000
# 6 0.0000 0.0000 0.0000 0.0000 0.0000 22.7940
#
#
#
# Elastic Compliance Matrix: (Units=1/GPa)
#
#
# Indices 1 2 3 4 5 6 
#
# 1 0.015493 -0.006443 -0.002806 0.000000 0.000000 0.000000
# 2 -0.006443 0.015493 -0.002806 0.000000 0.000000 0.000000
# 3 -0.002806 -0.002806 0.010655 0.000000 0.000000 0.000000
# 4 0.000000 0.000000 0.000000 0.037140 0.000000 0.000000
# 5 0.000000 0.000000 0.000000 0.000000 0.037140 0.000000
# 6 0.000000 0.000000 0.000000 0.000000 0.000000 0.043871
#
#
# Mechanical properties :
#
#
# Convention : Reuss Voigt Hill
#
# Bulk Modulus (GPa) = 57.04290 57.26940 57.15615
# Shear Modulus (GPa) = 26.35140 27.13109 26.74124
#
# Velocity S-wave (km/s) = 3.64122 3.69470 3.66806
# Velocity P-wave (km/s) = 6.81019 6.85680 6.83353
#
# Compressibility (1/GPa) = 0.01753067
#
# Stress axis : x y z
#
# Youngs Moduli (GPa) = 64.54725 64.54725 93.85689
#
# Poissons Ratio (x) = 0.41588 0.26333
# Poissons Ratio (y) = 0.41588 0.26333
# Poissons Ratio (z) = 0.18110 0.18110
#
# Static dielectric constant tensor:
#      x y z
#    x 3.604060 0.000000 0.000000 
#    y 0.000000 3.604060 0.000000 
#    z 0.000000 0.000000 4.160230 
# 
# 
# High freq. dielectric constant tensor:
#      x y z
#    x 1.748050 0.000000 0.000000 
#    y 0.000000 1.748050 0.000000 
#    z 0.000000 0.000000 1.807010 
# 
# From -- ./inp_files/6673.got.cif
#   From: 2010.03.12/outbox.cif.g09.slc.cpg/sg178_4_cif.got.tgz:6673.got - 2010.04.02 07:02:38.
