data_PCOD8325656
_publ_section_title
;
Structure prediction by ZEFSAII (Michael W. Deem and Ramdas Pophale) SiO2 
 PCOD8325656
Probable space group: P 63/M
;
_chemical_formula_sum "Si O2"
_cell_formula_units_Z 90
_cell_length_a 16.610029
_cell_length_b 16.610029
_cell_length_c 18.207397
_cell_angle_alpha 90.000000
_cell_angle_beta 90.000000
_cell_angle_gamma 120.000000
_cell_volume 4350.300678
_symmetry_space_group_name_H-M "P 63/M"
_symmetry_group_IT_number 176
_symmetry_cell_setting 'hexagonal'
loop_
_space_group_symop_operation_xyz
x,y,z
x-y,x,1/2+z
-y,x-y,z
-x,-y,1/2+z
-x+y,-x,z
y,-x+y,1/2+z
-x,-y,-z
-x+y,-x,1/2-z
y,-x+y,-z
x,y,1/2-z
x-y,x,-z
-y,x-y,1/2-z
loop_
_atom_site_type_symbol
_atom_site_label
_atom_site_fract_x
_atom_site_fract_y
_atom_site_fract_z
Si Si1 0.654998 0.223162 0.250000
Si Si2 0.066934 0.273121 0.169053
Si Si3 0.266814 0.337477 0.392892
Si Si4 0.401608 0.942935 0.646476
Si Si5 0.993300 0.178815 0.484258
Si Si6 0.683715 0.523580 0.012808
Si Si7 0.600713 0.010264 0.622844
Si Si8 0.352202 0.851498 0.502964
O O1 0.752239 0.322751 0.250000
O O2 0.649416 0.161082 0.180148
O O3 0.045707 0.223444 0.250000
O O4 0.175936 0.313520 0.153540
O O5 0.009124 0.208471 0.101074
O O6 0.034820 0.349573 0.177673
O O7 0.347746 0.347254 0.335752
O O8 0.247599 0.267441 0.461350
O O9 0.309365 0.437373 0.430995
O O10 0.399992 0.938409 0.558456
O O11 0.510635 0.995505 0.669386
O O12 0.078305 0.173340 0.517726
O O13 0.656437 0.574182 0.075333
O O14 0.612168 0.413680 0.006222
O O15 0.784094 0.536209 0.030992
O O16 0.642678 0.103981 0.575188
#
# Coordination Sequence:
#
# PCOD8325656 Si02
#       8
#     6  12  12  12  12  12  12  12
#     4  10  28  48  58  86 126 178 222 268 322 406
#     4  11  24  40  63  95 135 163 218 270 332 394
#     4  11  21  39  66  96 128 166 209 274 325 398
#     4  11  23  40  62  85 127 171 223 261 331 388
#     4  10  22  43  69  94 123 165 211 260 323 399
#     4  11  20  35  59  94 125 164 215 271 331 373
#     4  11  21  38  59  90 124 172 212 268 321 392
#     4  11  21  35  61  91 124 163 217 277 315 387
#
# _framework density 20.688224000000002
#
# number of rings (size 3 to 8) (size 9 to 14) (size 15 to 20)
#    0.133    1.067    5.333    1.200    7.467    0.000 
#    0.000    2.667    0.000    0.000    0.000    0.000 
#    0.000    0.000    0.000    0.000    0.000    0.000 
#
# Total GULP energy -1115045.853572 kJ/mol
# GULP energy per Si atom -12389.398373 kJ/mol
# Density = 2.064114 g / cm^3
# Si number density = 20.688224 Si / 1000 Ang^3
#
#
#
# Elastic Constant Matrix: (Units=GPa)
#
#
# Indices 1 2 3 4 5 6 
#
# 1 110.1470 53.0662 33.5014 0.0000 0.0000 0.0000
# 2 53.0662 110.1470 33.5014 0.0000 0.0000 0.0000
# 3 33.5014 33.5014 104.5492 0.0000 0.0000 0.0000
# 4 0.0000 0.0000 0.0000 20.1869 0.0000 0.0000
# 5 0.0000 0.0000 0.0000 0.0000 20.1869 0.0000
# 6 0.0000 0.0000 0.0000 0.0000 0.0000 28.5404
#
#
#
# Elastic Compliance Matrix: (Units=1/GPa)
#
#
# Indices 1 2 3 4 5 6 
#
# 1 0.012287 -0.005232 -0.002261 0.000000 0.000000 0.000000
# 2 -0.005232 0.012287 -0.002261 0.000000 0.000000 0.000000
# 3 -0.002261 -0.002261 0.011014 0.000000 0.000000 0.000000
# 4 0.000000 0.000000 0.000000 0.049537 0.000000 0.000000
# 5 0.000000 0.000000 0.000000 0.000000 0.049537 0.000000
# 6 0.000000 0.000000 0.000000 0.000000 0.000000 0.035038
#
#
# Mechanical properties :
#
#
# Convention : Reuss Voigt Hill
#
# Bulk Modulus (GPa) = 62.18527 62.77569 62.48048
# Shear Modulus (GPa) = 25.69809 27.43446 26.56628
#
# Velocity S-wave (km/s) = 3.52825 3.64550 3.58736
# Velocity P-wave (km/s) = 6.83532 6.93752 6.88661
#
# Compressibility (1/GPa) = 0.01608098
#
# Stress axis : x y z
#
# Youngs Moduli (GPa) = 81.38674 81.38674 90.79611
#
# Poissons Ratio (x) = 0.42582 0.20526
# Poissons Ratio (y) = 0.42582 0.20526
# Poissons Ratio (z) = 0.18399 0.18399
#
# Static dielectric constant tensor:
#      x y z
#    x 3.829660 0.000000 0.000000 
#    y 0.000000 3.829660 0.000000 
#    z 0.000000 0.000000 3.490960 
# 
# 
# High freq. dielectric constant tensor:
#      x y z
#    x 1.811880 0.000000 0.000000 
#    y 0.000000 1.811880 0.000000 
#    z 0.000000 0.000000 1.790780 
# 
# From -- ./inp_files/3532.got.cif
#   From: 2010.06.25/outbox.cif.g09.slc.cpg/sg176_2_cif.got.tgz:3532.got - 2010.06.28 12:15:01.
