data_PCOD8325669
_publ_section_title
;
Structure prediction by ZEFSAII (Michael W. Deem and Ramdas Pophale) SiO2 
 PCOD8325669
Probable space group: P 63/M
;
_chemical_formula_sum "Si O2"
_cell_formula_units_Z 36
_cell_length_a 16.476042
_cell_length_b 16.476042
_cell_length_c 7.725551
_cell_angle_alpha 90.000000
_cell_angle_beta 90.000000
_cell_angle_gamma 120.000000
_cell_volume 1816.209221
_symmetry_space_group_name_H-M "P 63/M"
_symmetry_group_IT_number 176
_symmetry_cell_setting 'hexagonal'
loop_
_space_group_symop_operation_xyz
x,y,z
x-y,x,1/2+z
-y,x-y,z
-x,-y,1/2+z
-x+y,-x,z
y,-x+y,1/2+z
-x,-y,-z
-x+y,-x,1/2-z
y,-x+y,-z
x,y,1/2-z
x-y,x,-z
-y,x-y,1/2-z
loop_
_atom_site_type_symbol
_atom_site_label
_atom_site_fract_x
_atom_site_fract_y
_atom_site_fract_z
Si Si1 0.966421 0.809838 0.443766
Si Si2 0.349677 0.861218 0.250000
Si Si3 0.022497 0.367522 0.557900
Si Si4 0.151678 0.677558 0.250000
O O1 0.899199 0.828918 0.563549
O O2 0.926127 0.791595 0.250000
O O3 0.970025 0.720089 0.514274
O O4 0.376555 0.926188 0.420371
O O5 0.242126 0.780129 0.250000
O O6 0.416245 0.815918 0.250000
O O7 0.069727 0.399827 0.750000
O O8 0.911838 0.335126 0.578966
#
# Coordination Sequence:
#
# PCOD8325669 Si02
#       4
#    12   6  12   6
#     4  11  22  36  54  82 121 157 206 253 305 366
#     4  12  21  44  69  86 140 154 198 282 295 362
#     4   9  23  40  62  91 118 163 217 235 310 383
#     4  10  23  42  63 104 114 168 214 240 331 370
#
# _framework density 19.821505999999999
#
# number of rings (size 3 to 8) (size 9 to 14) (size 15 to 20)
#    1.000    0.667    0.000    4.667    4.667    0.000 
#    3.000    0.000    0.000    0.000    0.000    0.000 
#    0.000    0.000    0.000    0.000    0.000    0.000 
#
# Total GULP energy -446255.773794 kJ/mol
# GULP energy per Si atom -12395.993716 kJ/mol
# Density = 1.977639 g / cm^3
# Si number density = 19.821506 Si / 1000 Ang^3
#
#
#
# Elastic Constant Matrix: (Units=GPa)
#
#
# Indices 1 2 3 4 5 6 
#
# 1 85.5014 7.9051 25.0005 0.0000 0.0000 0.0000
# 2 7.9051 85.5014 25.0005 0.0000 0.0000 0.0000
# 3 25.0005 25.0005 80.3379 0.0000 0.0000 0.0000
# 4 0.0000 0.0000 0.0000 12.5257 0.0000 0.0000
# 5 0.0000 0.0000 0.0000 0.0000 12.5257 0.0000
# 6 0.0000 0.0000 0.0000 0.0000 0.0000 38.7982
#
#
#
# Elastic Compliance Matrix: (Units=1/GPa)
#
#
# Indices 1 2 3 4 5 6 
#
# 1 0.012866 -0.000021 -0.003998 0.000000 0.000000 0.000000
# 2 -0.000021 0.012866 -0.003998 0.000000 0.000000 0.000000
# 3 -0.003998 -0.003998 0.014935 0.000000 0.000000 0.000000
# 4 0.000000 0.000000 0.000000 0.079836 0.000000 0.000000
# 5 0.000000 0.000000 0.000000 0.000000 0.079836 0.000000
# 6 0.000000 0.000000 0.000000 0.000000 0.000000 0.025774
#
#
# Mechanical properties :
#
#
# Convention : Reuss Voigt Hill
#
# Bulk Modulus (GPa) = 40.58943 40.79477 40.69210
# Shear Modulus (GPa) = 19.97133 25.66553 22.81843
#
# Velocity S-wave (km/s) = 3.17765 3.60228 3.39661
# Velocity P-wave (km/s) = 5.82968 6.15854 5.99637
#
# Compressibility (1/GPa) = 0.02463695
#
# Stress axis : x y z
#
# Youngs Moduli (GPa) = 77.72122 77.72122 66.95494
#
# Poissons Ratio (x) = 0.00161 0.26765
# Poissons Ratio (y) = 0.00161 0.26765
# Poissons Ratio (z) = 0.31069 0.31069
#
# Static dielectric constant tensor:
#      x y z
#    x 3.438230 0.000000 0.000000 
#    y 0.000000 3.438230 0.000000 
#    z 0.000000 0.000000 3.318380 
# 
# 
# High freq. dielectric constant tensor:
#      x y z
#    x 1.768080 0.000000 0.000000 
#    y 0.000000 1.768080 0.000000 
#    z 0.000000 0.000000 1.760480 
# 
# From -- ./inp_files/427.got.cif
#   From: 2010.06.25/outbox.cif.g09.slc.cpg/sg176_1_cif.got.tgz:427.got - 2010.06.28 12:15:01.
