data_PCOD8325319
_publ_section_title
;
Structure prediction by ZEFSAII (Michael W. Deem and Ramdas Pophale) SiO2 
 PCOD8325319
Probable space group: P 6/M
;
_chemical_formula_sum "Si O2"
_cell_formula_units_Z 40
_cell_length_a 13.990758
_cell_length_b 13.990758
_cell_length_c 12.674621
_cell_angle_alpha 90.000000
_cell_angle_beta 90.000000
_cell_angle_gamma 120.000000
_cell_volume 2148.563050
_symmetry_space_group_name_H-M "P 6/M"
_symmetry_group_IT_number 175
_symmetry_cell_setting 'hexagonal'
loop_
_space_group_symop_operation_xyz
x,y,z
x-y,x,z
-y,x-y,z
-x,-y,z
-x+y,-x,z
y,-x+y,z
-x,-y,-z
-x+y,-x,-z
y,-x+y,-z
x,y,-z
x-y,x,-z
-y,x-y,-z
loop_
_atom_site_type_symbol
_atom_site_label
_atom_site_fract_x
_atom_site_fract_y
_atom_site_fract_z
Si Si1 0.666668 0.333334 0.631153
Si Si2 0.020927 0.615376 0.617976
Si Si3 0.425399 0.235427 0.701744
Si Si4 0.743778 0.841621 0.122407
O O1 0.666667 0.333334 0.500000
O O2 0.555286 0.316979 0.683606
O O3 0.064575 0.621046 0.500000
O O4 0.111794 0.719185 0.679524
O O5 0.000000 0.500000 0.669794
O O6 0.912663 0.627679 0.620784
O O7 0.373423 0.231895 0.816901
O O8 0.829864 0.800834 0.152201
O O9 0.712852 0.822232 0.000000
#
# Coordination Sequence:
#
# PCOD8325319 Si02
#       4
#     4  12  12  12
#     4  12  24  39  61  86 121 165 204 234 280 362
#     4  11  22  36  57  84 119 160 199 242 295 354
#     4  12  22  37  59  87 119 152 202 247 291 351
#     4  10  21  40  64  88 114 152 199 248 302 360
#
# _framework density 18.617094000000002
#
# number of rings (size 3 to 8) (size 9 to 14) (size 15 to 20)
#    0.000    0.900    6.000    3.000    0.000    1.200 
#    0.000    1.500    0.000    5.400    0.000    4.200 
#    0.000    0.000    0.000    0.000    0.000    0.000 
#
# Total GULP energy -495543.837313 kJ/mol
# GULP energy per Si atom -12388.595933 kJ/mol
# Density = 1.857472 g / cm^3
# Si number density = 18.617094 Si / 1000 Ang^3
#
#
#
# Elastic Constant Matrix: (Units=GPa)
#
#
# Indices 1 2 3 4 5 6 
#
# 1 88.4431 14.9476 32.3531 0.0000 0.0000 0.0009
# 2 14.9476 88.4433 32.3530 0.0000 0.0000 0.0013
# 3 32.3531 32.3530 80.9187 0.0000 0.0000 0.0004
# 4 0.0000 0.0000 0.0000 30.6626 0.0001 0.0000
# 5 0.0000 0.0000 0.0000 0.0001 30.6626 0.0000
# 6 0.0009 0.0013 0.0004 0.0000 0.0000 36.7474
#
#
#
# Elastic Compliance Matrix: (Units=1/GPa)
#
#
# Indices 1 2 3 4 5 6 
#
# 1 0.013253 -0.000353 -0.005158 0.000000 0.000000 0.000000
# 2 -0.000353 0.013253 -0.005158 0.000000 0.000000 0.000000
# 3 -0.005158 -0.005158 0.016482 0.000000 0.000000 0.000000
# 4 0.000000 0.000000 0.000000 0.032613 0.000000 0.000000
# 5 0.000000 0.000000 0.000000 0.000000 0.032613 0.000000
# 6 0.000000 0.000000 0.000000 0.000000 0.000000 0.027213
#
#
# Mechanical properties :
#
#
# Convention : Reuss Voigt Hill
#
# Bulk Modulus (GPa) = 46.18607 46.34582 46.26595
# Shear Modulus (GPa) = 30.49123 31.49128 30.99125
#
# Velocity S-wave (km/s) = 4.05137 4.11728 4.08446
# Velocity P-wave (km/s) = 6.83719 6.89572 6.86651
#
# Compressibility (1/GPa) = 0.02165155
#
# Stress axis : x y z
#
# Youngs Moduli (GPa) = 75.45398 75.45429 60.67089
#
# Poissons Ratio (x) = 0.02665 0.31292
# Poissons Ratio (y) = 0.02665 0.31292
# Poissons Ratio (z) = 0.38917 0.38917
#
# Static dielectric constant tensor:
#      x y z
#    x 3.615840 0.000000 0.000000 
#    y 0.000000 3.615820 0.000000 
#    z 0.000000 0.000000 3.265600 
# 
# 
# High freq. dielectric constant tensor:
#      x y z
#    x 1.736350 0.000000 0.000000 
#    y 0.000000 1.736350 0.000000 
#    z 0.000000 0.000000 1.695740 
# 
# From -- ./inp_files/1532.got.cif
#   From: 2010.03.12/outbox.cif.g09.slc.cpg/sg175_1_cif.got.tgz:1532.got - 2010.04.02 06:55:29.
