data_PCOD8325681
_publ_section_title
;
Structure prediction by ZEFSAII (Michael W. Deem and Ramdas Pophale) SiO2 
 PCOD8325681
Probable space group: P 63/M
;
_chemical_formula_sum "Si O2"
_cell_formula_units_Z 40
_cell_length_a 7.877455
_cell_length_b 7.877455
_cell_length_c 34.300641
_cell_angle_alpha 90.000000
_cell_angle_beta 90.000000
_cell_angle_gamma 120.000000
_cell_volume 1843.336954
_symmetry_space_group_name_H-M "P 63/M"
_symmetry_group_IT_number 176
_symmetry_cell_setting 'hexagonal'
loop_
_space_group_symop_operation_xyz
x,y,z
x-y,x,1/2+z
-y,x-y,z
-x,-y,1/2+z
-x+y,-x,z
y,-x+y,1/2+z
-x,-y,-z
-x+y,-x,1/2-z
y,-x+y,-z
x,y,1/2-z
x-y,x,-z
-y,x-y,1/2-z
loop_
_atom_site_type_symbol
_atom_site_label
_atom_site_fract_x
_atom_site_fract_y
_atom_site_fract_z
Si Si1 0.333334 0.666667 0.972476
Si Si2 0.691422 0.038533 0.420437
Si Si3 0.000000 0.000000 0.954763
Si Si4 0.333334 0.666667 0.795921
Si Si5 0.666667 0.333334 0.934173
Si Si6 0.141475 0.886578 0.838105
O O1 0.547705 0.743018 0.954829
O O2 0.333334 0.666667 0.018812
O O3 0.460959 0.885411 0.416793
O O4 0.783541 0.909063 0.436449
O O5 0.788326 0.148084 0.380078
O O6 0.000000 0.000000 0.000000
O O7 0.333334 0.666668 0.750000
O O8 0.233802 0.796382 0.808405
O O9 0.902006 0.778699 0.833383
#
# Coordination Sequence:
#
# PCOD8325681 Si02
#       6
#     4  12   4   4   4  12
#     4  12  25  40  57  93 139 188 244 324 369 412
#     4  12  22  41  63  90 134 184 241 292 364 427
#     4  12  21  36  60  90 130 176 232 291 342 396
#     4  12  28  50  82 117 150 189 228 294 385 458
#     4  12  27  37  61  96 136 188 250 309 370 421
#     4  10  24  48  76 110 149 191 243 304 359 446
#
# _framework density 21.699778999999999
#
# number of rings (size 3 to 8) (size 9 to 14) (size 15 to 20)
#    0.600    0.000    3.000    6.300    4.200    1.200 
#    1.800    0.000    0.000    0.000    0.000    0.000 
#    0.000    0.000    0.000    0.000    0.000    0.000 
#
# Total GULP energy -495536.274142 kJ/mol
# GULP energy per Si atom -12388.406854 kJ/mol
# Density = 2.165039 g / cm^3
# Si number density = 21.699779 Si / 1000 Ang^3
#
#
#
# Elastic Constant Matrix: (Units=GPa)
#
#
# Indices 1 2 3 4 5 6 
#
# 1 101.0218 45.1342 46.7875 0.0000 0.0000 0.0005
# 2 45.1342 101.0203 46.7877 0.0000 0.0000 0.0000
# 3 46.7875 46.7877 139.9630 0.0000 0.0000 -0.0002
# 4 0.0000 0.0000 0.0000 29.4558 0.0001 0.0000
# 5 0.0000 0.0000 0.0000 0.0001 29.4561 0.0000
# 6 0.0005 0.0000 -0.0002 0.0000 0.0000 27.9433
#
#
#
# Elastic Compliance Matrix: (Units=1/GPa)
#
#
# Indices 1 2 3 4 5 6 
#
# 1 0.013299 -0.004594 -0.002910 0.000000 0.000000 0.000000
# 2 -0.004594 0.013299 -0.002910 0.000000 0.000000 0.000000
# 3 -0.002910 -0.002910 0.009090 0.000000 0.000000 0.000000
# 4 0.000000 0.000000 0.000000 0.033949 0.000000 0.000000
# 5 0.000000 0.000000 0.000000 0.000000 0.033949 0.000000
# 6 0.000000 0.000000 0.000000 0.000000 0.000000 0.035787
#
#
# Mechanical properties :
#
#
# Convention : Reuss Voigt Hill
#
# Bulk Modulus (GPa) = 67.29215 68.82489 68.05852
# Shear Modulus (GPa) = 30.27455 30.92408 30.59932
#
# Velocity S-wave (km/s) = 3.73923 3.77913 3.75923
# Velocity P-wave (km/s) = 7.05126 7.12939 7.09043
#
# Compressibility (1/GPa) = 0.01486057
#
# Stress axis : x y z
#
# Youngs Moduli (GPa) = 75.19309 75.19156 110.00745
#
# Poissons Ratio (x) = 0.34544 0.32012
# Poissons Ratio (y) = 0.34544 0.32013
# Poissons Ratio (z) = 0.21881 0.21881
#
# Static dielectric constant tensor:
#      x y z
#    x 2.915120 0.000040 0.000000 
#    y 0.000040 2.915290 0.000000 
#    z 0.000000 0.000000 3.568610 
# 
# 
# High freq. dielectric constant tensor:
#      x y z
#    x 1.861860 0.000000 0.000000 
#    y 0.000000 1.861860 0.000000 
#    z 0.000000 0.000000 1.822390 
# 
# From -- ./inp_files/4399.got.cif
#   From: 2010.06.25/outbox.cif.g09.slc.cpg/sg176_3_cif.got.tgz:4399.got - 2010.06.28 12:15:01.
