data_PCOD8325006
_publ_section_title
;
Structure prediction by ZEFSAII (Michael W. Deem and Ramdas Pophale) SiO2 
 PCOD8325006
Probable space group: P 6/M
;
_chemical_formula_sum "Si O2"
_cell_formula_units_Z 52
_cell_length_a 23.628946
_cell_length_b 23.628946
_cell_length_c 9.065416
_cell_angle_alpha 90.000000
_cell_angle_beta 90.000000
_cell_angle_gamma 120.000000
_cell_volume 4383.359285
_symmetry_space_group_name_H-M "P 6/M"
_symmetry_group_IT_number 175
_symmetry_cell_setting 'hexagonal'
loop_
_space_group_symop_operation_xyz
x,y,z
x-y,x,z
-y,x-y,z
-x,-y,z
-x+y,-x,z
y,-x+y,z
-x,-y,-z
-x+y,-x,-z
y,-x+y,-z
x,y,-z
x-y,x,-z
-y,x-y,-z
loop_
_atom_site_type_symbol
_atom_site_label
_atom_site_fract_x
_atom_site_fract_y
_atom_site_fract_z
Si Si1 0.333334 0.666668 0.825138
Si Si2 0.005904 0.569898 0.662240
Si Si3 0.495289 0.632710 0.674672
Si Si4 0.744084 0.480109 0.827938
Si Si5 0.621878 0.490080 0.827933
O O1 0.300068 0.706634 0.766229
O O2 0.333334 0.666668 0.000000
O O3 0.023227 0.602944 0.500000
O O4 0.934665 0.555977 0.715402
O O5 0.000000 0.500000 0.652489
O O6 0.063484 0.615357 0.774739
O O7 0.484652 0.629265 0.500000
O O8 0.516351 0.704702 0.736855
O O9 0.427712 0.577137 0.746491
O O10 0.697036 0.510051 0.796847
O O11 0.761201 0.483672 0.000000
O O12 0.605392 0.477541 0.000000
#
# Coordination Sequence:
#
# PCOD8325006 Si02
#       5
#     4  12  12  12  12
#     4   9  15  27  37  44  67  90 103 131 169 201
#     4   8  16  29  39  49  67  86 107 136 163 193
#     4  10  19  28  38  52  68  87 110 135 165 201
#     4  10  18  28  39  51  68  88 108 135 169 204
#     4  10  18  27  40  54  67  86 110 135 166 202
#
# _framework density 11.863047
#
# number of rings (size 3 to 8) (size 9 to 14) (size 15 to 20)
#    0.000    2.538    2.308    2.769    0.000    6.923 
#    0.000    0.000    0.000    0.000    0.000    0.000 
#    0.000    0.000    0.000    0.000    0.000    0.000 
#
# Total GULP energy -644440.339015 kJ/mol
# GULP energy per Si atom -12393.083443 kJ/mol
# Density = 1.183605 g / cm^3
# Si number density = 11.863047 Si / 1000 Ang^3
#
#
#
# Elastic Constant Matrix: (Units=GPa)
#
#
# Indices 1 2 3 4 5 6 
#
# 1 64.0412 36.8225 36.5072 0.0000 0.0000 0.0000
# 2 36.8225 64.0406 36.5072 0.0000 0.0000 0.0000
# 3 36.5072 36.5072 64.7852 0.0000 0.0000 0.0000
# 4 0.0000 0.0000 0.0000 16.2539 0.0000 0.0000
# 5 0.0000 0.0000 0.0000 0.0000 16.2540 0.0000
# 6 0.0000 0.0000 0.0000 0.0000 0.0000 13.6093
#
#
#
# Elastic Compliance Matrix: (Units=1/GPa)
#
#
# Indices 1 2 3 4 5 6 
#
# 1 0.026742 -0.009997 -0.009436 0.000000 0.000000 0.000000
# 2 -0.009997 0.026743 -0.009436 0.000000 0.000000 0.000000
# 3 -0.009436 -0.009436 0.026070 0.000000 0.000000 0.000000
# 4 0.000000 0.000000 0.000000 0.061524 0.000000 0.000000
# 5 0.000000 0.000000 0.000000 0.000000 0.061523 0.000000
# 6 0.000000 0.000000 0.000000 0.000000 0.000000 0.073479
#
#
# Mechanical properties :
#
#
# Convention : Reuss Voigt Hill
#
# Bulk Modulus (GPa) = 45.83738 45.83786 45.83762
# Shear Modulus (GPa) = 14.65877 14.75877 14.70877
#
# Velocity S-wave (km/s) = 3.51902 3.53100 3.52501
# Velocity P-wave (km/s) = 7.43196 7.43956 7.43576
#
# Compressibility (1/GPa) = 0.02181626
#
# Stress axis : x y z
#
# Youngs Moduli (GPa) = 37.39394 37.39338 38.35783
#
# Poissons Ratio (x) = 0.37384 0.36194
# Poissons Ratio (y) = 0.37384 0.36195
# Poissons Ratio (z) = 0.35285 0.35285
#
# Static dielectric constant tensor:
#      x y z
#    x 2.486230 0.000000 0.000000 
#    y 0.000000 2.486240 0.000000 
#    z 0.000000 0.000000 2.501830 
# 
# 
# High freq. dielectric constant tensor:
#      x y z
#    x 1.417890 0.000000 0.000000 
#    y 0.000000 1.417890 0.000000 
#    z 0.000000 0.000000 1.457510 
# 
# From -- ./inp_files/1097.got.cif
#   From: 2010.03.12/outbox.cif.g09.slc.cpg/sg175_1_cif.got.tgz:1097.got - 2010.04.02 06:55:29.
