data_PCOD8325264
_publ_section_title
;
Structure prediction by ZEFSAII (Michael W. Deem and Ramdas Pophale) SiO2 
 PCOD8325264
Probable space group: P 6/M
;
_chemical_formula_sum "Si O2"
_cell_formula_units_Z 84
_cell_length_a 19.042427
_cell_length_b 19.042427
_cell_length_c 14.483497
_cell_angle_alpha 90.000000
_cell_angle_beta 90.000000
_cell_angle_gamma 120.000000
_cell_volume 4548.295410
_symmetry_space_group_name_H-M "P 6/M"
_symmetry_group_IT_number 175
_symmetry_cell_setting 'hexagonal'
loop_
_space_group_symop_operation_xyz
x,y,z
x-y,x,z
-y,x-y,z
-x,-y,z
-x+y,-x,z
y,-x+y,z
-x,-y,-z
-x+y,-x,-z
y,-x+y,-z
x,y,-z
x-y,x,-z
-y,x-y,-z
loop_
_atom_site_type_symbol
_atom_site_label
_atom_site_fract_x
_atom_site_fract_y
_atom_site_fract_z
Si Si1 0.923409 0.109854 0.892480
Si Si2 0.441050 0.904413 0.603217
Si Si3 0.457361 0.112178 0.250000
Si Si4 0.813556 0.923409 0.392480
Si Si5 0.323048 0.156205 0.750000
Si Si6 0.536637 0.441050 0.896783
Si Si7 0.582071 0.659869 0.250000
O O1 0.889106 0.160544 0.840348
O O2 0.016000 0.142822 0.863565
O O3 0.915541 0.122194 0.000000
O O4 0.418042 0.867213 0.500000
O O5 0.486353 0.864614 0.658605
O O6 0.359823 0.886146 0.658451
O O7 0.500000 0.000000 0.598379
O O8 0.409319 0.160726 0.250000
O O9 0.513647 0.135386 0.158605
O O10 0.393925 0.017915 0.250000
O O11 0.857178 0.873177 0.363565
O O12 0.793347 0.915541 0.500000
O O13 0.728562 0.889106 0.340348
O O14 0.344510 0.248845 0.750000
O O15 0.500000 0.500000 0.901621
O O16 0.473677 0.359823 0.841549
O O17 0.550829 0.418042 0.000000
#
# Coordination Sequence:
#
# PCOD8325264 Si02
#       7
#    12  12  12  12  12  12  12
#     4  10  21  36  52  70  98 144 197 238 272 315
#     4   8  15  31  54  72  88 117 155 194 235 285
#     4   9  18  31  48  74 102 128 162 197 238 301
#     4  10  21  36  52  70  98 144 197 238 272 315
#     4  12  22  32  49  78 112 136 162 216 279 316
#     4   8  15  31  54  72  88 117 155 194 235 285
#     4   9  18  31  48  74 102 128 162 197 238 301
#
# _framework density 18.468457999999998
#
# number of rings (size 3 to 8) (size 9 to 14) (size 15 to 20)
#    0.000    2.571    0.000    4.571    0.000    3.429 
#    0.000    7.143    0.000    4.571    0.000    0.000 
#    0.000    0.000    0.000    0.000    0.000    0.000 
#
# Total GULP energy -1041415.940426 kJ/mol
# GULP energy per Si atom -12397.808815 kJ/mol
# Density = 1.842642 g / cm^3
# Si number density = 18.468458 Si / 1000 Ang^3
#
#
#
# Elastic Constant Matrix: (Units=GPa)
#
#
# Indices 1 2 3 4 5 6 
#
# 1 56.7325 1.4495 24.2557 0.0000 0.0000 0.0000
# 2 1.4495 56.7325 24.2557 0.0000 0.0000 0.0000
# 3 24.2557 24.2557 131.9028 0.0000 0.0000 0.0000
# 4 0.0000 0.0000 0.0000 15.9090 0.0000 0.0000
# 5 0.0000 0.0000 0.0000 0.0000 15.9090 0.0000
# 6 0.0000 0.0000 0.0000 0.0000 0.0000 27.6415
#
#
#
# Elastic Compliance Matrix: (Units=1/GPa)
#
#
# Indices 1 2 3 4 5 6 
#
# 1 0.019194 0.001106 -0.003733 0.000000 0.000000 0.000000
# 2 0.001106 0.019194 -0.003733 0.000000 0.000000 0.000000
# 3 -0.003733 -0.003733 0.008954 0.000000 0.000000 0.000000
# 4 0.000000 0.000000 0.000000 0.062858 0.000000 0.000000
# 5 0.000000 0.000000 0.000000 0.000000 0.062858 0.000000
# 6 0.000000 0.000000 0.000000 0.000000 0.000000 0.036177
#
#
# Mechanical properties :
#
#
# Convention : Reuss Voigt Hill
#
# Bulk Modulus (GPa) = 28.88315 38.36553 33.62434
# Shear Modulus (GPa) = 21.41354 24.91901 23.16628
#
# Velocity S-wave (km/s) = 3.40879 3.67723 3.54555
# Velocity P-wave (km/s) = 5.58267 6.23282 5.91668
#
# Compressibility (1/GPa) = 0.03462227
#
# Stress axis : x y z
#
# Youngs Moduli (GPa) = 52.09867 52.09867 111.67858
#
# Poissons Ratio (x) = -0.05760 0.41689
# Poissons Ratio (y) = -0.05760 0.41689
# Poissons Ratio (z) = 0.19448 0.19448
#
# Static dielectric constant tensor:
#      x y z
#    x 3.295970 0.000000 0.000000 
#    y 0.000000 3.295970 0.000000 
#    z 0.000000 0.000000 3.733420 
# 
# 
# High freq. dielectric constant tensor:
#      x y z
#    x 1.694830 0.000000 0.000000 
#    y 0.000000 1.694830 0.000000 
#    z 0.000000 0.000000 1.727980 
# 
# From -- ./inp_files/2630.got.cif
#   From: 2010.03.12/outbox.cif.g09.slc.cpg/sg175_2_cif.got.tgz:2630.got - 2010.04.02 06:55:29.
