data_PCOD8325028
_publ_section_title
;
Structure prediction by ZEFSAII (Michael W. Deem and Ramdas Pophale) SiO2 
 PCOD8325028
Probable space group: P 6/M
;
_chemical_formula_sum "Si O2"
_cell_formula_units_Z 78
_cell_length_a 25.009282
_cell_length_b 25.009282
_cell_length_c 8.049956
_cell_angle_alpha 90.000000
_cell_angle_beta 90.000000
_cell_angle_gamma 120.000000
_cell_volume 4360.402555
_symmetry_space_group_name_H-M "P 6/M"
_symmetry_group_IT_number 175
_symmetry_cell_setting 'hexagonal'
loop_
_space_group_symop_operation_xyz
x,y,z
x-y,x,z
-y,x-y,z
-x,-y,z
-x+y,-x,z
y,-x+y,z
-x,-y,-z
-x+y,-x,-z
y,-x+y,-z
x,y,-z
x-y,x,-z
-y,x-y,-z
loop_
_atom_site_type_symbol
_atom_site_label
_atom_site_fract_x
_atom_site_fract_y
_atom_site_fract_z
Si Si1 0.351005 0.923360 0.690656
Si Si2 0.534104 0.464040 0.192071
Si Si3 0.990367 0.868303 0.500000
Si Si4 0.898490 0.224829 0.688989
Si Si5 0.209818 0.204190 0.190949
Si Si6 0.778287 0.119571 0.812672
Si Si7 0.063265 0.641595 0.304318
O O1 0.333450 0.921336 0.500000
O O2 0.396922 0.895472 0.717944
O O3 0.287410 0.884541 0.789100
O O4 0.384858 0.993059 0.761724
O O5 0.500000 0.500000 0.260543
O O6 0.606926 0.508153 0.231775
O O7 0.523017 0.449672 0.000000
O O8 0.933145 0.879946 0.500000
O O9 0.986665 0.832343 0.329311
O O10 0.922915 0.234764 0.500000
O O11 0.938358 0.203065 0.796027
O O12 0.827466 0.172315 0.693538
O O13 0.903781 0.287919 0.758894
O O14 0.280684 0.225718 0.231203
O O15 0.191476 0.178437 0.000000
O O16 0.800654 0.139420 0.000000
O O17 0.065565 0.637716 0.500000
#
# Coordination Sequence:
#
# PCOD8325028 Si02
#       7
#    12  12   6  12  12  12  12
#     4  10  18  31  50  72 102 139 178 215 256 307
#     4   9  17  28  45  69 101 138 172 206 249 300
#     4  12  27  46  68  86 108 137 182 238 292 352
#     4  11  21  35  56  80 109 144 183 227 277 334
#     4  11  24  41  61  85 112 145 182 226 285 356
#     4  11  23  35  52  79 111 143 181 227 278 335
#     4   9  18  31  48  72 101 136 176 213 253 307
#
# _framework density 17.888255999999998
#
# number of rings (size 3 to 8) (size 9 to 14) (size 15 to 20)
#    0.000    1.692    2.308    2.846    2.154    5.538 
#    0.000    0.000    0.000    0.923    0.000    0.000 
#    1.538    0.000    2.769    0.000    2.769    0.000 
#
# Total GULP energy -967030.222642 kJ/mol
# GULP energy per Si atom -12397.823367 kJ/mol
# Density = 1.784754 g / cm^3
# Si number density = 17.888256 Si / 1000 Ang^3
#
#
#
# Elastic Constant Matrix: (Units=GPa)
#
#
# Indices 1 2 3 4 5 6 
#
# 1 77.7834 32.7872 26.8418 0.0000 0.0000 0.0000
# 2 32.7872 77.7834 26.8418 0.0000 0.0000 0.0000
# 3 26.8418 26.8418 74.6485 0.0000 0.0000 0.0000
# 4 0.0000 0.0000 0.0000 22.8289 0.0000 0.0000
# 5 0.0000 0.0000 0.0000 0.0000 22.8289 0.0000
# 6 0.0000 0.0000 0.0000 0.0000 0.0000 22.4981
#
#
#
# Elastic Compliance Matrix: (Units=1/GPa)
#
#
# Indices 1 2 3 4 5 6 
#
# 1 0.016590 -0.005634 -0.003940 0.000000 0.000000 0.000000
# 2 -0.005634 0.016590 -0.003940 0.000000 0.000000 0.000000
# 3 -0.003940 -0.003940 0.016229 0.000000 0.000000 0.000000
# 4 0.000000 0.000000 0.000000 0.043804 0.000000 0.000000
# 5 0.000000 0.000000 0.000000 0.000000 0.043804 0.000000
# 6 0.000000 0.000000 0.000000 0.000000 0.000000 0.044448
#
#
# Mechanical properties :
#
#
# Convention : Reuss Voigt Hill
#
# Bulk Modulus (GPa) = 44.67508 44.79523 44.73515
# Shear Modulus (GPa) = 23.15301 23.21415 23.18358
#
# Velocity S-wave (km/s) = 3.60156 3.60631 3.60394
# Velocity P-wave (km/s) = 6.50567 6.51435 6.51001
#
# Compressibility (1/GPa) = 0.02238385
#
# Stress axis : x y z
#
# Youngs Moduli (GPa) = 60.27559 60.27559 61.61647
#
# Poissons Ratio (x) = 0.33957 0.24276
# Poissons Ratio (y) = 0.33957 0.24276
# Poissons Ratio (z) = 0.23747 0.23747
#
# Static dielectric constant tensor:
#      x y z
#    x 3.238660 0.000000 0.000000 
#    y 0.000000 3.238660 0.000000 
#    z 0.000000 0.000000 3.276950 
# 
# 
# High freq. dielectric constant tensor:
#      x y z
#    x 1.669400 0.000000 0.000000 
#    y 0.000000 1.669400 0.000000 
#    z 0.000000 0.000000 1.703300 
# 
# From -- ./inp_files/1290.got.cif
#   From: 2010.03.12/outbox.cif.g09.slc.cpg/sg175_1_cif.got.tgz:1290.got - 2010.04.02 06:55:29.
