data_PCOD8325550
_publ_section_title
;
Structure prediction by ZEFSAII (Michael W. Deem and Ramdas Pophale) SiO2 
 PCOD8325550
Probable space group: P 63/M
;
_chemical_formula_sum "Si O2"
_cell_formula_units_Z 30
_cell_length_a 11.638836
_cell_length_b 11.638836
_cell_length_c 13.769546
_cell_angle_alpha 90.000000
_cell_angle_beta 90.000000
_cell_angle_gamma 120.000000
_cell_volume 1615.360096
_symmetry_space_group_name_H-M "P 63/M"
_symmetry_group_IT_number 176
_symmetry_cell_setting 'hexagonal'
loop_
_space_group_symop_operation_xyz
x,y,z
x-y,x,1/2+z
-y,x-y,z
-x,-y,1/2+z
-x+y,-x,z
y,-x+y,1/2+z
-x,-y,-z
-x+y,-x,1/2-z
y,-x+y,-z
x,y,1/2-z
x-y,x,-z
-y,x-y,1/2-z
loop_
_atom_site_type_symbol
_atom_site_label
_atom_site_fract_x
_atom_site_fract_y
_atom_site_fract_z
Si Si1 0.333335 0.666668 0.385451
Si Si2 0.791628 0.000004 0.250000
Si Si3 0.333333 0.666667 0.885451
Si Si4 0.285462 0.842896 0.250000
Si Si5 0.000000 0.000000 0.885293
Si Si6 0.842902 0.285469 0.250000
O O1 0.333334 0.666667 0.500000
O O2 0.330021 0.795593 0.345895
O O3 0.646604 0.873021 0.250000
O O4 0.869740 0.000003 0.153317
O O5 0.773586 0.126985 0.250000
O O6 0.465569 0.795597 0.845895
O O7 0.350643 0.999998 0.250000
O O8 0.000000 0.000000 0.000000
#
# Coordination Sequence:
#
# PCOD8325550 Si02
#       6
#     4   6   4   6   4   6
#     4  10  26  40  61  92 115 157 209 241 286 353
#     4  10  20  40  58  90 126 156 194 242 308 350
#     4  10  26  40  61  92 115 157 209 241 286 353
#     4  10  21  42  63  83 124 162 189 247 302 349
#     4  10  20  34  55  92 124 154 203 241 292 353
#     4  10  21  42  63  83 124 162 189 247 302 349
#
# _framework density 18.571709999999999
#
# number of rings (size 3 to 8) (size 9 to 14) (size 15 to 20)
#    0.000    2.400    4.000    0.000   11.200    4.800 
#    0.000    0.000    0.000    0.000    0.000    0.000 
#    0.000    0.000    0.000    0.000    0.000    0.000 
#
# Total GULP energy -372013.137180 kJ/mol
# GULP energy per Si atom -12400.437906 kJ/mol
# Density = 1.852944 g / cm^3
# Si number density = 18.571710 Si / 1000 Ang^3
#
#
#
# Elastic Constant Matrix: (Units=GPa)
#
#
# Indices 1 2 3 4 5 6 
#
# 1 107.2614 41.7024 38.7664 0.0000 0.0000 -0.0002
# 2 41.7024 107.2615 38.7665 0.0000 0.0000 -0.0005
# 3 38.7664 38.7665 193.8012 0.0000 0.0000 -0.0001
# 4 0.0000 0.0000 0.0000 7.9590 -0.0001 0.0000
# 5 0.0000 0.0000 0.0000 -0.0001 7.9593 0.0000
# 6 -0.0002 -0.0005 -0.0001 0.0000 0.0000 32.7797
#
#
#
# Elastic Compliance Matrix: (Units=1/GPa)
#
#
# Indices 1 2 3 4 5 6 
#
# 1 0.011373 -0.003880 -0.001499 0.000000 0.000000 0.000000
# 2 -0.003880 0.011373 -0.001499 0.000000 0.000000 0.000000
# 3 -0.001499 -0.001499 0.005760 0.000000 0.000000 0.000000
# 4 0.000000 0.000000 0.000000 0.125643 0.000002 0.000000
# 5 0.000000 0.000000 0.000000 0.000002 0.125639 0.000000
# 6 0.000000 0.000000 0.000000 0.000000 0.000000 0.030507
#
#
# Mechanical properties :
#
#
# Convention : Reuss Voigt Hill
#
# Bulk Modulus (GPa) = 67.79466 71.86606 69.83036
# Shear Modulus (GPa) = 15.19904 29.01219 22.10562
#
# Velocity S-wave (km/s) = 2.86387 3.95672 3.45379
# Velocity P-wave (km/s) = 6.89341 7.72365 7.32031
#
# Compressibility (1/GPa) = 0.01475042
#
# Stress axis : x y z
#
# Youngs Moduli (GPa) = 87.92525 87.92527 173.62397
#
# Poissons Ratio (x) = 0.34116 0.26024
# Poissons Ratio (y) = 0.34116 0.26024
# Poissons Ratio (z) = 0.13179 0.13179
#
# Static dielectric constant tensor:
#      x y z
#    x 3.487760 0.000000 0.000000 
#    y 0.000000 3.487770 0.000000 
#    z 0.000000 0.000000 3.170720 
# 
# 
# High freq. dielectric constant tensor:
#      x y z
#    x 1.732640 0.000000 0.000000 
#    y 0.000000 1.732640 0.000000 
#    z 0.000000 0.000000 1.698040 
# 
# From -- ./inp_files/2309.got.cif
#   From: 2010.06.25/outbox.cif.g09.slc.cpg/sg176_2_cif.got.tgz:2309.got - 2010.06.28 12:15:01.
