data_PCOD8325292
_publ_section_title
;
Structure prediction by ZEFSAII (Michael W. Deem and Ramdas Pophale) SiO2 
 PCOD8325292
Probable space group: P 6/M
;
_chemical_formula_sum "Si O2"
_cell_formula_units_Z 84
_cell_length_a 18.443034
_cell_length_b 18.443034
_cell_length_c 14.455435
_cell_angle_alpha 90.000000
_cell_angle_beta 90.000000
_cell_angle_gamma 120.000000
_cell_volume 4258.204658
_symmetry_space_group_name_H-M "P 6/M"
_symmetry_group_IT_number 175
_symmetry_cell_setting 'hexagonal'
loop_
_space_group_symop_operation_xyz
x,y,z
x-y,x,z
-y,x-y,z
-x,-y,z
-x+y,-x,z
y,-x+y,z
-x,-y,-z
-x+y,-x,-z
y,-x+y,-z
x,y,-z
x-y,x,-z
-y,x-y,-z
loop_
_atom_site_type_symbol
_atom_site_label
_atom_site_fract_x
_atom_site_fract_y
_atom_site_fract_z
Si Si1 0.963767 0.145893 0.500000
Si Si2 0.394376 0.858419 0.605953
Si Si3 0.416052 0.264910 0.103441
Si Si4 0.747327 0.431564 0.000000
Si Si5 0.432898 0.410736 0.771583
Si Si6 0.728004 0.521684 0.605003
Si Si7 0.962422 0.149587 0.699782
Si Si8 0.363747 0.115697 0.237067
O O1 0.954989 0.183503 0.597211
O O2 0.049746 0.148664 0.500000
O O3 0.404336 0.891239 0.500000
O O4 0.402124 0.932100 0.673098
O O5 0.305980 0.774093 0.619069
O O6 0.464390 0.833988 0.630630
O O7 0.405040 0.330946 0.163374
O O8 0.380281 0.174431 0.148873
O O9 0.375643 0.253936 0.000000
O O10 0.516094 0.304628 0.092941
O O11 0.649968 0.407164 0.000000
O O12 0.500000 0.500000 0.817277
O O13 0.347999 0.413288 0.761906
O O14 0.738607 0.554769 0.500000
O O15 0.775545 0.602825 0.670809
O O16 0.946404 0.209957 0.765443
O O17 0.053064 0.160349 0.718074
#
# Coordination Sequence:
#
# PCOD8325292 Si02
#       8
#     6  12  12   6  12  12  12  12
#     4   8  15  30  52  82 109 144 184 238 298 356
#     4  10  21  41  61  94 132 177 224 266 310 364
#     4  10  25  45  63  90 127 158 212 263 326 377
#     4   8  20  40  67  91 117 154 205 254 317 366
#     4  12  25  39  64  97 128 173 210 264 320 386
#     4  10  21  38  63  89 127 174 222 263 305 364
#     4  10  21  38  60  85 117 154 202 254 308 375
#     4  12  24  39  61  90 129 163 212 253 319 384
#
# _framework density 19.726623
#
# number of rings (size 3 to 8) (size 9 to 14) (size 15 to 20)
#    0.571    1.143    2.857    1.357    3.000    4.000 
#    0.000    0.000    0.000    0.000    0.000    0.000 
#    0.000    2.286    0.000    0.000    0.000    0.000 
#
# Total GULP energy -1040683.975473 kJ/mol
# GULP energy per Si atom -12389.094946 kJ/mol
# Density = 1.968172 g / cm^3
# Si number density = 19.726623 Si / 1000 Ang^3
#
#
#
# Elastic Constant Matrix: (Units=GPa)
#
#
# Indices 1 2 3 4 5 6 
#
# 1 86.2672 10.4829 28.6785 0.0000 0.0000 0.0000
# 2 10.4829 86.2672 28.6785 0.0000 0.0000 0.0000
# 3 28.6785 28.6785 94.7470 0.0000 0.0000 0.0000
# 4 0.0000 0.0000 0.0000 21.2948 0.0000 0.0000
# 5 0.0000 0.0000 0.0000 0.0000 21.2948 0.0000
# 6 0.0000 0.0000 0.0000 0.0000 0.0000 37.8921
#
#
#
# Elastic Compliance Matrix: (Units=1/GPa)
#
#
# Indices 1 2 3 4 5 6 
#
# 1 0.012896 -0.000300 -0.003813 0.000000 0.000000 0.000000
# 2 -0.000300 0.012896 -0.003813 0.000000 0.000000 0.000000
# 3 -0.003813 -0.003813 0.012862 0.000000 0.000000 0.000000
# 4 0.000000 0.000000 0.000000 0.046960 0.000000 0.000000
# 5 0.000000 0.000000 0.000000 0.000000 0.046960 0.000000
# 6 0.000000 0.000000 0.000000 0.000000 0.000000 0.026391
#
#
# Mechanical properties :
#
#
# Convention : Reuss Voigt Hill
#
# Bulk Modulus (GPa) = 43.85158 44.77345 44.31251
# Shear Modulus (GPa) = 27.40994 29.39245 28.40119
#
# Velocity S-wave (km/s) = 3.73163 3.86423 3.79851
# Velocity P-wave (km/s) = 6.39098 6.53115 6.46144
#
# Compressibility (1/GPa) = 0.02280420
#
# Stress axis : x y z
#
# Youngs Moduli (GPa) = 77.54476 77.54476 77.74542
#
# Poissons Ratio (x) = 0.02323 0.29642
# Poissons Ratio (y) = 0.02323 0.29642
# Poissons Ratio (z) = 0.29565 0.29565
#
# Static dielectric constant tensor:
#      x y z
#    x 3.497210 0.000000 0.000000 
#    y 0.000000 3.497210 0.000000 
#    z 0.000000 0.000000 3.589360 
# 
# 
# High freq. dielectric constant tensor:
#      x y z
#    x 1.769570 0.000000 0.000000 
#    y 0.000000 1.769570 0.000000 
#    z 0.000000 0.000000 1.753020 
# 
# From -- ./inp_files/2660.got.cif
#   From: 2010.03.12/outbox.cif.g09.slc.cpg/sg175_2_cif.got.tgz:2660.got - 2010.04.02 06:55:29.
