data_PCOD8325267
_publ_section_title
;
Structure prediction by ZEFSAII (Michael W. Deem and Ramdas Pophale) SiO2 
 PCOD8325267
Probable space group: P 6/M
;
_chemical_formula_sum "Si O2"
_cell_formula_units_Z 42
_cell_length_a 11.909361
_cell_length_b 11.909361
_cell_length_c 17.524274
_cell_angle_alpha 90.000000
_cell_angle_beta 90.000000
_cell_angle_gamma 120.000000
_cell_volume 2152.521939
_symmetry_space_group_name_H-M "P 6/M"
_symmetry_group_IT_number 175
_symmetry_cell_setting 'hexagonal'
loop_
_space_group_symop_operation_xyz
x,y,z
x-y,x,z
-y,x-y,z
-x,-y,z
-x+y,-x,z
y,-x+y,z
-x,-y,-z
-x+y,-x,-z
y,-x+y,-z
x,y,-z
x-y,x,-z
-y,x-y,-z
loop_
_atom_site_type_symbol
_atom_site_label
_atom_site_fract_x
_atom_site_fract_y
_atom_site_fract_z
Si Si1 0.904264 0.704323 0.376830
Si Si2 0.508414 0.299956 0.500000
Si Si3 0.512565 0.308634 0.084670
Si Si4 0.795239 0.087038 0.798998
O O1 0.812978 0.763319 0.397834
O O2 0.859958 0.574627 0.424927
O O3 0.895653 0.664287 0.288780
O O4 0.556382 0.193029 0.500000
O O5 0.551740 0.196131 0.093682
O O6 0.413976 0.296996 0.149387
O O7 0.453025 0.298334 0.000000
O O8 0.944099 0.180221 0.819173
#
# Coordination Sequence:
#
# PCOD8325267 Si02
#       4
#    12   6  12  12
#     4  10  21  38  60  83 108 142 184 227 267 315
#     4  10  24  40  54  80 116 148 172 218 274 326
#     4   8  18  37  56  78 108 143 187 231 268 312
#     4  10  21  36  56  83 113 143 177 222 275 327
#
# _framework density 19.511994999999999
#
# number of rings (size 3 to 8) (size 9 to 14) (size 15 to 20)
#    0.857    1.714    0.000    1.429    0.000    9.143 
#    0.000   10.000    0.000    1.714    0.000    0.000 
#    0.000    0.000    0.000    0.000    0.000    0.000 
#
# Total GULP energy -520638.856860 kJ/mol
# GULP energy per Si atom -12396.163259 kJ/mol
# Density = 1.946758 g / cm^3
# Si number density = 19.511995 Si / 1000 Ang^3
#
#
#
# Elastic Constant Matrix: (Units=GPa)
#
#
# Indices 1 2 3 4 5 6 
#
# 1 40.2706 -11.8952 16.9521 0.0000 0.0000 0.0000
# 2 -11.8952 40.2706 16.9521 0.0000 0.0000 0.0000
# 3 16.9521 16.9521 77.7612 0.0000 0.0000 0.0000
# 4 0.0000 0.0000 0.0000 4.9434 0.0000 0.0000
# 5 0.0000 0.0000 0.0000 0.0000 4.9434 0.0000
# 6 0.0000 0.0000 0.0000 0.0000 0.0000 26.0829
#
#
#
# Elastic Compliance Matrix: (Units=1/GPa)
#
#
# Indices 1 2 3 4 5 6 
#
# 1 0.033412 0.014243 -0.010389 0.000000 0.000000 0.000000
# 2 0.014243 0.033412 -0.010389 0.000000 0.000000 0.000000
# 3 -0.010389 -0.010389 0.017389 0.000000 0.000000 0.000000
# 4 0.000000 0.000000 0.000000 0.202291 0.000000 0.000000
# 5 0.000000 0.000000 0.000000 0.000000 0.202291 0.000000
# 6 0.000000 0.000000 0.000000 0.000000 0.000000 0.038339
#
#
# Mechanical properties :
#
#
# Convention : Reuss Voigt Hill
#
# Bulk Modulus (GPa) = 14.05606 22.48007 18.26807
# Shear Modulus (GPa) = 8.86652 16.28017 12.57334
#
# Velocity S-wave (km/s) = 2.13401 2.89167 2.54124
# Velocity P-wave (km/s) = 3.64574 4.76395 4.24185
#
# Compressibility (1/GPa) = 0.07114367
#
# Stress axis : x y z
#
# Youngs Moduli (GPa) = 29.92916 29.92916 57.50605
#
# Poissons Ratio (x) = -0.42627 0.59742
# Poissons Ratio (y) = -0.42627 0.59742
# Poissons Ratio (z) = 0.31093 0.31093
#
# Static dielectric constant tensor:
#      x y z
#    x 3.404300 0.000000 0.000000 
#    y 0.000000 3.404300 0.000000 
#    z 0.000000 0.000000 3.503030 
# 
# 
# High freq. dielectric constant tensor:
#      x y z
#    x 1.752230 0.000000 0.000000 
#    y 0.000000 1.752230 0.000000 
#    z 0.000000 0.000000 1.765350 
# 
# From -- ./inp_files/2769.got.cif
#   From: 2010.03.12/outbox.cif.g09.slc.cpg/sg175_2_cif.got.tgz:2769.got - 2010.04.02 06:55:29.
