data_PCOD8325964
_publ_section_title
;
Structure prediction by ZEFSAII (Michael W. Deem and Ramdas Pophale) SiO2 
 PCOD8325964
Probable space group: P 61 2 2
;
_chemical_formula_sum "Si O2"
_cell_formula_units_Z 72
_cell_length_a 14.681794
_cell_length_b 14.681794
_cell_length_c 18.033649
_cell_angle_alpha 90.000000
_cell_angle_beta 90.000000
_cell_angle_gamma 120.000000
_cell_volume 3366.452543
_symmetry_space_group_name_H-M "P 61 2 2"
_symmetry_group_IT_number 178
_symmetry_cell_setting 'hexagonal'
loop_
_space_group_symop_operation_xyz
x,y,z
x-y,x,1/6+z
-y,x-y,1/3+z
-x,-y,1/2+z
-x+y,-x,2/3+z
y,-x+y,5/6+z
x-y,-y,-z
-x,-x+y,2/3-z
y,x,1/3-z
-y,-x,5/6-z
-x+y,y,1/2-z
x,x-y,1/6-z
loop_
_atom_site_type_symbol
_atom_site_label
_atom_site_fract_x
_atom_site_fract_y
_atom_site_fract_z
Si Si1 0.693872 0.444842 0.599229
Si Si2 0.460498 0.552506 0.214738
Si Si3 0.194754 0.181011 0.747671
Si Si4 0.749355 0.053558 0.774015
Si Si5 0.723433 0.238233 0.730487
Si Si6 0.614270 0.542202 0.862314
O O1 0.636395 0.318198 0.583334
O O2 0.632065 0.474793 0.656938
O O3 0.712073 0.508108 0.522304
O O4 0.802674 0.474350 0.638433
O O5 0.554124 0.554124 0.166667
O O6 0.499646 0.661923 0.256368
O O7 0.423099 0.461453 0.277544
O O8 0.234298 0.234298 0.666667
O O9 0.257652 0.269607 0.809181
O O10 0.223698 0.088894 0.759206
O O11 0.067801 0.135602 0.750000
O O12 0.721173 0.146293 0.779474
O O13 0.661179 0.964571 0.721303
O O14 0.631546 0.263091 0.750000
O O15 0.512018 0.487983 0.916667
#
# Coordination Sequence:
#
# PCOD8325964 Si02
#       6
#    12  12  12  12  12  12
#     4  11  21  43  68  90 134 184 215 275 347 403
#     4  12  25  41  64  97 134 174 228 278 332 409
#     4   9  21  44  66  96 139 179 222 300 360 406
#     4  11  23  40  67  97 130 182 233 277 352 425
#     4  12  23  43  61  95 138 177 221 275 343 412
#     4  11  22  42  66  94 135 180 225 279 342 413
#
# _framework density 21.387498000000001
#
# number of rings (size 3 to 8) (size 9 to 14) (size 15 to 20)
#    0.000    1.000    5.000    3.000    0.000    2.000 
#   12.000    0.000    0.000   19.000    0.000    0.000 
#    0.000    0.000    0.000    0.000    0.000    0.000 
#
# Total GULP energy -892654.679231 kJ/mol
# GULP energy per Si atom -12397.981656 kJ/mol
# Density = 2.133882 g / cm^3
# Si number density = 21.387498 Si / 1000 Ang^3
#
#
#
# Elastic Constant Matrix: (Units=GPa)
#
#
# Indices 1 2 3 4 5 6 
#
# 1 88.3755 32.7274 48.4807 0.0000 0.0000 0.0000
# 2 32.7274 88.3755 48.4807 0.0000 0.0000 0.0000
# 3 48.4807 48.4807 174.9659 0.0000 0.0000 0.0000
# 4 0.0000 0.0000 0.0000 29.6910 0.0000 0.0000
# 5 0.0000 0.0000 0.0000 0.0000 29.6910 0.0000
# 6 0.0000 0.0000 0.0000 0.0000 0.0000 27.8241
#
#
#
# Elastic Compliance Matrix: (Units=1/GPa)
#
#
# Indices 1 2 3 4 5 6 
#
# 1 0.014291 -0.003679 -0.002940 0.000000 0.000000 0.000000
# 2 -0.003679 0.014291 -0.002940 0.000000 0.000000 0.000000
# 3 -0.002940 -0.002940 0.007345 0.000000 0.000000 0.000000
# 4 0.000000 0.000000 0.000000 0.033680 0.000000 0.000000
# 5 0.000000 0.000000 0.000000 0.000000 0.033680 0.000000
# 6 0.000000 0.000000 0.000000 0.000000 0.000000 0.035940
#
#
# Mechanical properties :
#
#
# Convention : Reuss Voigt Hill
#
# Bulk Modulus (GPa) = 59.49988 67.89941 63.69964
# Shear Modulus (GPa) = 30.49728 32.24311 31.37019
#
# Velocity S-wave (km/s) = 3.78026 3.88695 3.83398
# Velocity P-wave (km/s) = 6.85085 7.20838 7.03189
#
# Compressibility (1/GPa) = 0.01680676
#
# Stress axis : x y z
#
# Youngs Moduli (GPa) = 69.97487 69.97487 136.14962
#
# Poissons Ratio (x) = 0.25745 0.40033
# Poissons Ratio (y) = 0.25745 0.40033
# Poissons Ratio (z) = 0.20575 0.20575
#
# Static dielectric constant tensor:
#      x y z
#    x 3.864060 0.000000 0.000000 
#    y 0.000000 3.864060 0.000000 
#    z 0.000000 0.000000 4.195490 
# 
# 
# High freq. dielectric constant tensor:
#      x y z
#    x 1.825720 0.000000 0.000000 
#    y 0.000000 1.825720 0.000000 
#    z 0.000000 0.000000 1.855310 
# 
# From -- ./inp_files/6792.got.cif
#   From: 2010.03.12/outbox.cif.g09.slc.cpg/sg178_4_cif.got.tgz:6792.got - 2010.04.02 07:02:38.
