data_PCOD8325753
_publ_section_title
;
Structure prediction by ZEFSAII (Michael W. Deem and Ramdas Pophale) SiO2 
 PCOD8325753
Probable space group: P 61 2 2
;
_chemical_formula_sum "Si O2"
_cell_formula_units_Z 60
_cell_length_a 11.902804
_cell_length_b 11.902804
_cell_length_c 25.909958
_cell_angle_alpha 90.000000
_cell_angle_beta 90.000000
_cell_angle_gamma 120.000000
_cell_volume 3179.039362
_symmetry_space_group_name_H-M "P 61 2 2"
_symmetry_group_IT_number 178
_symmetry_cell_setting 'hexagonal'
loop_
_space_group_symop_operation_xyz
x,y,z
x-y,x,1/6+z
-y,x-y,1/3+z
-x,-y,1/2+z
-x+y,-x,2/3+z
y,-x+y,5/6+z
x-y,-y,-z
-x,-x+y,2/3-z
y,x,1/3-z
-y,-x,5/6-z
-x+y,y,1/2-z
x,x-y,1/6-z
loop_
_atom_site_type_symbol
_atom_site_label
_atom_site_fract_x
_atom_site_fract_y
_atom_site_fract_z
Si Si1 0.977362 0.772532 0.530667
Si Si2 0.781586 0.104849 0.556862
Si Si3 0.403101 0.403101 0.666667
Si Si4 0.928491 0.000000 0.500000
Si Si5 0.324657 0.854268 0.957847
Si Si6 0.222184 0.237676 0.582381
O O1 0.858892 0.654716 0.563059
O O2 0.982027 0.709567 0.475682
O O3 0.113804 0.842810 0.562185
O O4 0.938514 0.877218 0.514930
O O5 0.871241 0.040756 0.547917
O O6 0.774900 0.179540 0.505804
O O7 0.636356 0.988632 0.569913
O O8 0.416628 0.539023 0.647107
O O9 0.348143 0.302944 0.619112
O O10 0.263112 0.736889 0.916667
O O11 0.162966 0.081483 0.583334
#
# Coordination Sequence:
#
# PCOD8325753 Si02
#       6
#    12  12   6   6  12  12
#     4  12  18  27  47  82 120 141 163 209 280 352
#     4   9  17  27  50  88 112 132 159 217 286 343
#     4  10  22  38  54  76 102 152 192 224 262 334
#     4  10  14  22  40  74 124 142 150 182 260 352
#     4   9  19  36  59  76 103 143 190 227 269 323
#     4  12  20  31  51  77 112 150 179 211 276 336
#
# _framework density 18.873626000000002
#
# number of rings (size 3 to 8) (size 9 to 14) (size 15 to 20)
#    0.000    2.000    6.000    3.000    0.000    0.000 
#    0.000    0.000    8.800    0.000    0.000    0.000 
#    0.000    0.000    0.000    0.000    0.000    0.000 
#
# Total GULP energy -743322.385431 kJ/mol
# GULP energy per Si atom -12388.706424 kJ/mol
# Density = 1.883067 g / cm^3
# Si number density = 18.873626 Si / 1000 Ang^3
#
#
#
# Elastic Constant Matrix: (Units=GPa)
#
#
# Indices 1 2 3 4 5 6 
#
# 1 52.6769 16.8238 36.3486 0.0000 0.0000 0.0000
# 2 16.8238 52.6769 36.3486 0.0000 0.0000 0.0000
# 3 36.3486 36.3486 147.0439 0.0000 0.0000 0.0000
# 4 0.0000 0.0000 0.0000 29.3149 0.0000 0.0000
# 5 0.0000 0.0000 0.0000 0.0000 29.3149 0.0000
# 6 0.0000 0.0000 0.0000 0.0000 0.0000 17.9265
#
#
#
# Elastic Compliance Matrix: (Units=1/GPa)
#
#
# Indices 1 2 3 4 5 6 
#
# 1 0.023649 -0.004243 -0.004797 0.000000 0.000000 0.000000
# 2 -0.004243 0.023649 -0.004797 0.000000 0.000000 0.000000
# 3 -0.004797 -0.004797 0.009172 0.000000 0.000000 0.000000
# 4 0.000000 0.000000 0.000000 0.034112 0.000000 0.000000
# 5 0.000000 0.000000 0.000000 0.000000 0.034112 0.000000
# 6 0.000000 0.000000 0.000000 0.000000 0.000000 0.055783
#
#
# Mechanical properties :
#
#
# Convention : Reuss Voigt Hill
#
# Bulk Modulus (GPa) = 34.72691 47.93775 41.33233
# Shear Modulus (GPa) = 22.96207 26.16973 24.56590
#
# Velocity S-wave (km/s) = 3.49179 3.72772 3.61168
# Velocity P-wave (km/s) = 5.89037 6.63191 6.27211
#
# Compressibility (1/GPa) = 0.02879611
#
# Stress axis : x y z
#
# Youngs Moduli (GPa) = 42.28536 42.28536 109.02340
#
# Poissons Ratio (x) = 0.17941 0.52300
# Poissons Ratio (y) = 0.17941 0.52300
# Poissons Ratio (z) = 0.20285 0.20285
#
# Static dielectric constant tensor:
#      x y z
#    x 3.140400 0.000000 0.000000 
#    y 0.000000 3.140400 0.000000 
#    z 0.000000 0.000000 4.489580 
# 
# 
# High freq. dielectric constant tensor:
#      x y z
#    x 1.685980 0.000000 0.000000 
#    y 0.000000 1.685980 0.000000 
#    z 0.000000 0.000000 1.753980 
# 
# From -- ./inp_files/8832.got.cif
#   From: 2010.03.12/outbox.cif.g09.slc.cpg/sg178_5_cif.got.tgz:8832.got - 2010.04.02 07:02:38.
