data_PCOD8325098
_publ_section_title
;
Structure prediction by ZEFSAII (Michael W. Deem and Ramdas Pophale) SiO2 
 PCOD8325098
Probable space group: P 6/M
;
_chemical_formula_sum "Si O2"
_cell_formula_units_Z 84
_cell_length_a 19.482527
_cell_length_b 19.482527
_cell_length_c 13.521013
_cell_angle_alpha 90.000000
_cell_angle_beta 90.000000
_cell_angle_gamma 120.000000
_cell_volume 4444.577011
_symmetry_space_group_name_H-M "P 6/M"
_symmetry_group_IT_number 175
_symmetry_cell_setting 'hexagonal'
loop_
_space_group_symop_operation_xyz
x,y,z
x-y,x,z
-y,x-y,z
-x,-y,z
-x+y,-x,z
y,-x+y,z
-x,-y,-z
-x+y,-x,-z
y,-x+y,-z
x,y,-z
x-y,x,-z
-y,x-y,-z
loop_
_atom_site_type_symbol
_atom_site_label
_atom_site_fract_x
_atom_site_fract_y
_atom_site_fract_z
Si Si1 0.163665 0.468372 0.892772
Si Si2 0.093158 0.547099 0.766344
Si Si3 0.392956 0.767395 0.386233
Si Si4 0.203531 0.921357 0.892833
Si Si5 0.713592 0.923775 0.785609
Si Si6 0.121737 0.181564 0.385964
Si Si7 0.851895 0.301811 0.114856
O O1 0.118882 0.485765 0.806478
O O2 0.130979 0.375814 0.898603
O O3 0.258111 0.502453 0.873661
O O4 0.151952 0.499167 0.000000
O O5 0.151849 0.594311 0.675860
O O6 0.108131 0.606389 0.856670
O O7 0.000000 0.500000 0.734576
O O8 0.296957 0.719361 0.365278
O O9 0.408643 0.794355 0.500000
O O10 0.113077 0.864299 0.860537
O O11 0.246633 0.984409 0.808043
O O12 0.206310 0.959268 0.000000
O O13 0.736932 0.913833 0.674025
O O14 0.620265 0.885042 0.804007
O O15 0.145051 0.115385 0.358912
O O16 0.137813 0.206026 0.500000
O O17 0.875442 0.296161 0.000000
#
# Coordination Sequence:
#
# PCOD8325098 Si02
#       7
#    12  12  12  12  12  12  12
#     4   9  20  37  54  76 111 152 192 226 270 338
#     4  12  22  33  57  90 120 146 181 238 297 345
#     4   8  18  39  64  82 105 149 199 238 281 344
#     4  10  19  32  51  74 105 146 189 228 269 326
#     4  11  19  33  53  75 105 146 190 226 268 333
#     4  10  20  36  58  83 110 141 184 238 290 333
#     4  10  22  38  55  81 117 155 192 228 278 343
#
# _framework density 18.899436000000001
#
# number of rings (size 3 to 8) (size 9 to 14) (size 15 to 20)
#    0.286    1.714    1.429    4.429    0.000    3.143 
#    0.857    0.714    0.000    6.000    0.000    2.000 
#    0.000    0.000    0.000    0.000    0.000    0.000 
#
# Total GULP energy -1040669.094732 kJ/mol
# GULP energy per Si atom -12388.917794 kJ/mol
# Density = 1.885642 g / cm^3
# Si number density = 18.899436 Si / 1000 Ang^3
#
#
#
# Elastic Constant Matrix: (Units=GPa)
#
#
# Indices 1 2 3 4 5 6 
#
# 1 73.9954 27.5002 39.9006 0.0000 0.0000 0.0000
# 2 27.5002 73.9954 39.9006 0.0000 0.0000 0.0000
# 3 39.9006 39.9006 98.7912 0.0000 0.0000 0.0000
# 4 0.0000 0.0000 0.0000 29.3405 0.0000 0.0000
# 5 0.0000 0.0000 0.0000 0.0000 29.3405 0.0000
# 6 0.0000 0.0000 0.0000 0.0000 0.0000 23.2476
#
#
#
# Elastic Compliance Matrix: (Units=1/GPa)
#
#
# Indices 1 2 3 4 5 6 
#
# 1 0.017972 -0.003535 -0.005831 0.000000 0.000000 0.000000
# 2 -0.003535 0.017972 -0.005831 0.000000 0.000000 0.000000
# 3 -0.005831 -0.005831 0.014833 0.000000 0.000000 0.000000
# 4 0.000000 0.000000 0.000000 0.034083 0.000000 0.000000
# 5 0.000000 0.000000 0.000000 0.000000 0.034083 0.000000
# 6 0.000000 0.000000 0.000000 0.000000 0.000000 0.043015
#
#
# Mechanical properties :
#
#
# Convention : Reuss Voigt Hill
#
# Bulk Modulus (GPa) = 49.06062 51.26499 50.16281
# Shear Modulus (GPa) = 25.10712 25.68443 25.39577
#
# Velocity S-wave (km/s) = 3.64876 3.69047 3.66967
# Velocity P-wave (km/s) = 6.61562 6.73375 6.67495
#
# Compressibility (1/GPa) = 0.02038295
#
# Stress axis : x y z
#
# Youngs Moduli (GPa) = 55.64068 55.64068 67.41926
#
# Poissons Ratio (x) = 0.19670 0.39313
# Poissons Ratio (y) = 0.19670 0.39313
# Poissons Ratio (z) = 0.32444 0.32444
#
# Static dielectric constant tensor:
#      x y z
#    x 3.384620 0.000000 0.000000 
#    y 0.000000 3.384620 0.000000 
#    z 0.000000 0.000000 3.410460 
# 
# 
# High freq. dielectric constant tensor:
#      x y z
#    x 1.725510 0.000000 0.000000 
#    y 0.000000 1.725510 0.000000 
#    z 0.000000 0.000000 1.727330 
# 
# From -- ./inp_files/1988.got.cif
#   From: 2010.03.12/outbox.cif.g09.slc.cpg/sg175_1_cif.got.tgz:1988.got - 2010.04.02 06:55:29.
