data_PCOD8325982
_publ_section_title
;
Structure prediction by ZEFSAII (Michael W. Deem and Ramdas Pophale) SiO2 
 PCOD8325982
Probable space group: P 61 2 2
;
_chemical_formula_sum "Si O2"
_cell_formula_units_Z 60
_cell_length_a 14.853872
_cell_length_b 14.853872
_cell_length_c 14.029279
_cell_angle_alpha 90.000000
_cell_angle_beta 90.000000
_cell_angle_gamma 120.000000
_cell_volume 2680.682246
_symmetry_space_group_name_H-M "P 61 2 2"
_symmetry_group_IT_number 178
_symmetry_cell_setting 'hexagonal'
loop_
_space_group_symop_operation_xyz
x,y,z
x-y,x,1/6+z
-y,x-y,1/3+z
-x,-y,1/2+z
-x+y,-x,2/3+z
y,-x+y,5/6+z
x-y,-y,-z
-x,-x+y,2/3-z
y,x,1/3-z
-y,-x,5/6-z
-x+y,y,1/2-z
x,x-y,1/6-z
loop_
_atom_site_type_symbol
_atom_site_label
_atom_site_fract_x
_atom_site_fract_y
_atom_site_fract_z
Si Si1 0.743682 0.861016 0.185099
Si Si2 0.529079 0.524603 0.277757
Si Si3 0.735722 0.681568 0.971572
Si Si4 0.305428 0.485498 0.340687
Si Si5 0.235636 0.630456 0.692643
O O1 0.839382 0.839382 0.166667
O O2 0.665610 0.788952 0.267175
O O3 0.784270 0.980087 0.215232
O O4 0.683371 0.841686 0.083334
O O5 0.549536 0.549536 0.166667
O O6 0.622685 0.612701 0.339636
O O7 0.423011 0.517686 0.313333
O O8 0.530778 0.418617 0.297231
O O9 0.755775 0.634061 0.876501
O O10 0.249276 0.498551 0.250000
O O11 0.295364 0.547784 0.430846
O O12 0.284421 0.568842 0.750000
O O13 0.269541 0.634771 0.583334
#
# Coordination Sequence:
#
# PCOD8325982 Si02
#       5
#    12  12  12  12  12
#     4   9  20  41  66 102 137 175 223 301 365 418
#     4  12  26  45  72 107 147 195 244 303 375 446
#     4  11  24  41  72 102 141 185 237 296 366 447
#     4  12  27  50  68 101 157 197 247 311 370 450
#     4  12  28  47  74 109 150 196 251 305 377 452
#
# _framework density 22.382362000000001
#
# number of rings (size 3 to 8) (size 9 to 14) (size 15 to 20)
#    0.000    0.800    2.000    5.400    8.400    2.400 
#    0.000    0.000    0.000   25.200    0.000    0.000 
#    0.000    0.000    0.000    0.000    0.000    0.000 
#
# Total GULP energy -743478.259723 kJ/mol
# GULP energy per Si atom -12391.304329 kJ/mol
# Density = 2.233142 g / cm^3
# Si number density = 22.382362 Si / 1000 Ang^3
#
#
#
# Elastic Constant Matrix: (Units=GPa)
#
#
# Indices 1 2 3 4 5 6 
#
# 1 116.5212 48.2309 40.7607 0.0000 0.0000 0.0000
# 2 48.2309 116.5212 40.7607 0.0000 0.0000 0.0000
# 3 40.7607 40.7607 130.0071 0.0000 0.0000 0.0000
# 4 0.0000 0.0000 0.0000 27.0311 0.0000 0.0000
# 5 0.0000 0.0000 0.0000 0.0000 27.0311 0.0000
# 6 0.0000 0.0000 0.0000 0.0000 0.0000 34.1452
#
#
#
# Elastic Compliance Matrix: (Units=1/GPa)
#
#
# Indices 1 2 3 4 5 6 
#
# 1 0.010914 -0.003730 -0.002252 0.000000 0.000000 0.000000
# 2 -0.003730 0.010914 -0.002252 0.000000 0.000000 0.000000
# 3 -0.002252 -0.002252 0.009104 0.000000 0.000000 0.000000
# 4 0.000000 0.000000 0.000000 0.036994 0.000000 0.000000
# 5 0.000000 0.000000 0.000000 0.000000 0.036994 0.000000
# 6 0.000000 0.000000 0.000000 0.000000 0.000000 0.029287
#
#
# Mechanical properties :
#
#
# Convention : Reuss Voigt Hill
#
# Bulk Modulus (GPa) = 69.14197 69.17270 69.15734
# Shear Modulus (GPa) = 32.15485 33.19461 32.67473
#
# Velocity S-wave (km/s) = 3.79438 3.85524 3.82493
# Velocity P-wave (km/s) = 7.08201 7.12666 7.10437
#
# Compressibility (1/GPa) = 0.01446299
#
# Stress axis : x y z
#
# Youngs Moduli (GPa) = 91.62697 91.62697 109.83823
#
# Poissons Ratio (x) = 0.34173 0.24741
# Poissons Ratio (y) = 0.34173 0.24741
# Poissons Ratio (z) = 0.20639 0.20639
#
# Static dielectric constant tensor:
#      x y z
#    x 4.108670 0.000000 0.000000 
#    y 0.000000 4.108670 0.000000 
#    z 0.000000 0.000000 4.518430 
# 
# 
# High freq. dielectric constant tensor:
#      x y z
#    x 1.872610 0.000000 0.000000 
#    y 0.000000 1.872610 0.000000 
#    z 0.000000 0.000000 1.901150 
# 
# From -- ./inp_files/5670.got.cif
#   From: 2010.03.12/outbox.cif.g09.slc.cpg/sg178_3_cif.got.tgz:5670.got - 2010.04.02 07:02:38.
