data_PCOD8325087
_publ_section_title
;
Structure prediction by ZEFSAII (Michael W. Deem and Ramdas Pophale) SiO2 
 PCOD8325087
Probable space group: P 6/M
;
_chemical_formula_sum "Si O2"
_cell_formula_units_Z 82
_cell_length_a 22.049701
_cell_length_b 22.049701
_cell_length_c 10.215560
_cell_angle_alpha 90.000000
_cell_angle_beta 90.000000
_cell_angle_gamma 120.000000
_cell_volume 4301.285005
_symmetry_space_group_name_H-M "P 6/M"
_symmetry_group_IT_number 175
_symmetry_cell_setting 'hexagonal'
loop_
_space_group_symop_operation_xyz
x,y,z
x-y,x,z
-y,x-y,z
-x,-y,z
-x+y,-x,z
y,-x+y,z
-x,-y,-z
-x+y,-x,-z
y,-x+y,-z
x,y,-z
x-y,x,-z
-y,x-y,-z
loop_
_atom_site_type_symbol
_atom_site_label
_atom_site_fract_x
_atom_site_fract_y
_atom_site_fract_z
Si Si1 0.568832 0.501813 0.344189
Si Si2 0.544074 0.355777 0.344498
Si Si3 0.613215 0.741133 0.650714
Si Si4 0.925026 0.075029 0.353812
Si Si5 0.687551 0.650721 0.649902
Si Si6 0.164135 0.281735 0.237929
Si Si7 0.666668 0.333334 0.656187
Si Si8 0.829279 0.928309 0.000000
O O1 0.500000 0.500000 0.286221
O O2 0.565557 0.502366 0.500000
O O3 0.569026 0.433447 0.289783
O O4 0.639611 0.571256 0.298912
O O5 0.545114 0.359379 0.500000
O O6 0.466429 0.299557 0.298112
O O7 0.597686 0.332445 0.290082
O O8 0.617774 0.767584 0.500000
O O9 0.641999 0.688045 0.658614
O O10 0.652936 0.803734 0.755749
O O11 0.932586 0.055337 0.500000
O O12 0.886668 0.120601 0.360999
O O13 0.000262 0.119362 0.280292
O O14 0.712646 0.652228 0.500000
O O15 0.753408 0.689646 0.747191
O O16 0.129267 0.225854 0.120382
O O17 0.666667 0.333334 0.500000
O O18 0.871029 0.884067 0.000000
#
# Coordination Sequence:
#
# PCOD8325087 Si02
#       8
#    12  12  12  12  12  12   4   6
#     4   9  15  27  45  71 108 153 193 217 247 306
#     4   9  17  28  43  68 109 154 190 219 253 308
#     4  10  19  32  50  77 112 144 174 213 269 335
#     4  10  19  32  50  73 102 133 166 206 262 336
#     4  10  19  31  51  79 112 146 178 216 267 330
#     4  12  24  36  54  79 105 136 175 230 287 339
#     4   9  18  27  39  63 105 154 191 226 255 291
#     4  12  27  48  68  82 101 137 189 245 295 351
#
# _framework density 19.064070000000001
#
# number of rings (size 3 to 8) (size 9 to 14) (size 15 to 20)
#    0.000    1.902    1.463    4.171    2.049    2.927 
#    0.000    1.463    0.000    0.000    0.000    1.537 
#    0.000    0.000    0.000    0.000    0.000    0.000 
#
# Total GULP energy -1015840.140215 kJ/mol
# GULP energy per Si atom -12388.294393 kJ/mol
# Density = 1.902068 g / cm^3
# Si number density = 19.064070 Si / 1000 Ang^3
#
#
#
# Elastic Constant Matrix: (Units=GPa)
#
#
# Indices 1 2 3 4 5 6 
#
# 1 147.9948 64.8816 29.9365 0.0000 0.0000 0.0001
# 2 64.8816 147.9951 29.9366 0.0000 0.0000 0.0004
# 3 29.9365 29.9366 40.4004 0.0000 0.0000 0.0000
# 4 0.0000 0.0000 0.0000 9.4440 0.0000 0.0000
# 5 0.0000 0.0000 0.0000 0.0000 9.4441 0.0000
# 6 0.0001 0.0004 0.0000 0.0000 0.0000 41.5571
#
#
#
# Elastic Compliance Matrix: (Units=1/GPa)
#
#
# Indices 1 2 3 4 5 6 
#
# 1 0.008983 -0.003049 -0.004397 0.000000 0.000000 0.000000
# 2 -0.003049 0.008983 -0.004397 0.000000 0.000000 0.000000
# 3 -0.004397 -0.004397 0.031269 0.000000 0.000000 0.000000
# 4 0.000000 0.000000 0.000000 0.105888 0.000000 0.000000
# 5 0.000000 0.000000 0.000000 0.000000 0.105887 0.000000
# 6 0.000000 0.000000 0.000000 0.000000 0.000000 0.024063
#
#
# Mechanical properties :
#
#
# Convention : Reuss Voigt Hill
#
# Bulk Modulus (GPa) = 39.14135 65.09996 52.12066
# Shear Modulus (GPa) = 15.75916 26.19805 20.97861
#
# Velocity S-wave (km/s) = 2.87826 3.71106 3.32087
# Velocity P-wave (km/s) = 5.62333 7.25153 6.48870
#
# Compressibility (1/GPa) = 0.02554843
#
# Stress axis : x y z
#
# Youngs Moduli (GPa) = 111.32068 111.32080 31.98047
#
# Poissons Ratio (x) = 0.33938 0.14063
# Poissons Ratio (y) = 0.33938 0.14063
# Poissons Ratio (z) = 0.48951 0.48952
#
# Static dielectric constant tensor:
#      x y z
#    x 3.743380 0.000000 0.000000 
#    y 0.000000 3.743370 0.000000 
#    z 0.000000 0.000000 2.984930 
# 
# 
# High freq. dielectric constant tensor:
#      x y z
#    x 1.758860 0.000000 0.000000 
#    y 0.000000 1.758860 0.000000 
#    z 0.000000 0.000000 1.660830 
# 
# From -- ./inp_files/2057.got.cif
#   From: 2010.03.12/outbox.cif.g09.slc.cpg/sg175_2_cif.got.tgz:2057.got - 2010.04.02 06:55:29.
