data_PCOD8325483
_publ_section_title
;
Structure prediction by ZEFSAII (Michael W. Deem and Ramdas Pophale) SiO2 
 PCOD8325483
Probable space group: P 63/M
;
_chemical_formula_sum "Si O2"
_cell_formula_units_Z 96
_cell_length_a 14.435583
_cell_length_b 14.435583
_cell_length_c 26.608895
_cell_angle_alpha 90.000000
_cell_angle_beta 90.000000
_cell_angle_gamma 120.000000
_cell_volume 4802.043919
_symmetry_space_group_name_H-M "P 63/M"
_symmetry_group_IT_number 176
_symmetry_cell_setting 'hexagonal'
loop_
_space_group_symop_operation_xyz
x,y,z
x-y,x,1/2+z
-y,x-y,z
-x,-y,1/2+z
-x+y,-x,z
y,-x+y,1/2+z
-x,-y,-z
-x+y,-x,1/2-z
y,-x+y,-z
x,y,1/2-z
x-y,x,-z
-y,x-y,1/2-z
loop_
_atom_site_type_symbol
_atom_site_label
_atom_site_fract_x
_atom_site_fract_y
_atom_site_fract_z
Si Si1 0.532649 0.260459 0.391649
Si Si2 0.700715 0.073281 0.307096
Si Si3 0.636411 0.105396 0.859912
Si Si4 0.687921 0.934869 0.047699
Si Si5 0.554932 0.859589 0.355109
Si Si6 0.488007 0.885060 0.809184
Si Si7 0.141447 0.301528 0.900820
Si Si8 0.278944 0.963133 0.446498
O O1 0.611879 0.212336 0.403288
O O2 0.503449 0.213950 0.333448
O O3 0.424074 0.213720 0.423271
O O4 0.739876 0.100538 0.250000
O O5 0.625101 0.121779 0.324430
O O6 0.804847 0.116640 0.342507
O O7 0.627373 0.945278 0.313194
O O8 0.565245 0.161799 0.855595
O O9 0.754001 0.193923 0.841135
O O10 0.648315 0.075733 0.917577
O O11 0.587709 0.998319 0.826642
O O12 0.597069 0.904866 0.089085
O O13 0.702809 0.834842 0.035704
O O14 0.799237 0.032683 0.068431
O O15 0.656964 0.969758 0.995518
O O16 0.494808 0.875500 0.750000
O O17 0.217159 0.250749 0.907949
#
# Coordination Sequence:
#
# PCOD8325483 Si02
#       8
#    12  12  12  12  12  12  12  12
#     4  10  20  34  55  85 119 161 189 229 300 367
#     4   9  18  34  55  82 115 153 192 239 298 354
#     4  10  20  36  56  82 117 157 202 246 298 353
#     4  10  22  38  59  85 111 150 197 250 303 359
#     4   9  20  35  57  80 115 158 197 244 291 352
#     4  10  19  32  52  85 121 155 197 242 294 359
#     4  11  20  37  61  82 121 151 193 246 302 367
#     4  11  21  38  60  85 114 148 200 250 310 364
#
# _framework density 19.991486999999999
#
# number of rings (size 3 to 8) (size 9 to 14) (size 15 to 20)
#    0.250    1.750    3.750    0.250    0.000    2.000 
#    0.750    0.625    0.000    2.250    0.000    0.000 
#    0.000    0.000    0.000    0.000    0.000    0.000 
#
# Total GULP energy -1189329.811110 kJ/mol
# GULP energy per Si atom -12388.852199 kJ/mol
# Density = 1.994599 g / cm^3
# Si number density = 19.991487 Si / 1000 Ang^3
#
#
#
# Elastic Constant Matrix: (Units=GPa)
#
#
# Indices 1 2 3 4 5 6 
#
# 1 53.9953 2.7861 -2.8858 0.0000 0.0000 0.0000
# 2 2.7861 53.9953 -2.8858 0.0000 0.0000 0.0000
# 3 -2.8858 -2.8858 52.0089 0.0000 0.0000 0.0000
# 4 0.0000 0.0000 0.0000 22.8687 0.0000 0.0000
# 5 0.0000 0.0000 0.0000 0.0000 22.8687 0.0000
# 6 0.0000 0.0000 0.0000 0.0000 0.0000 25.6046
#
#
#
# Elastic Compliance Matrix: (Units=1/GPa)
#
#
# Indices 1 2 3 4 5 6 
#
# 1 0.018620 -0.000908 0.000983 0.000000 0.000000 0.000000
# 2 -0.000908 0.018620 0.000983 0.000000 0.000000 0.000000
# 3 0.000983 0.000983 0.019337 0.000000 0.000000 0.000000
# 4 0.000000 0.000000 0.000000 0.043728 0.000000 0.000000
# 5 0.000000 0.000000 0.000000 0.000000 0.043728 0.000000
# 6 0.000000 0.000000 0.000000 0.000000 0.000000 0.039056
#
#
# Mechanical properties :
#
#
# Convention : Reuss Voigt Hill
#
# Bulk Modulus (GPa) = 17.03868 17.11430 17.07649
# Shear Modulus (GPa) = 24.93322 25.13407 25.03365
#
# Velocity S-wave (km/s) = 3.53539 3.54960 3.54250
# Velocity P-wave (km/s) = 5.02064 5.03775 5.02920
#
# Compressibility (1/GPa) = 0.05869000
#
# Stress axis : x y z
#
# Youngs Moduli (GPa) = 53.70710 53.70710 51.71560
#
# Poissons Ratio (x) = 0.04878 -0.05082
# Poissons Ratio (y) = 0.04878 -0.05082
# Poissons Ratio (z) = -0.05278 -0.05278
#
# Static dielectric constant tensor:
#      x y z
#    x 3.682850 0.000000 0.000000 
#    y 0.000000 3.682850 0.000000 
#    z 0.000000 0.000000 3.404050 
# 
# 
# High freq. dielectric constant tensor:
#      x y z
#    x 1.777140 0.000000 0.000000 
#    y 0.000000 1.777140 0.000000 
#    z 0.000000 0.000000 1.762140 
# 
# From -- ./inp_files/4339.got.cif
#   From: 2010.06.25/outbox.cif.g09.slc.cpg/sg176_3_cif.got.tgz:4339.got - 2010.06.28 12:15:01.
