data_PCOD8325587
_publ_section_title
;
Structure prediction by ZEFSAII (Michael W. Deem and Ramdas Pophale) SiO2 
 PCOD8325587
Probable space group: P 63/M
;
_chemical_formula_sum "Si O2"
_cell_formula_units_Z 52
_cell_length_a 13.529969
_cell_length_b 13.529969
_cell_length_c 16.985029
_cell_angle_alpha 90.000000
_cell_angle_beta 90.000000
_cell_angle_gamma 120.000000
_cell_volume 2692.715855
_symmetry_space_group_name_H-M "P 63/M"
_symmetry_group_IT_number 176
_symmetry_cell_setting 'hexagonal'
loop_
_space_group_symop_operation_xyz
x,y,z
x-y,x,1/2+z
-y,x-y,z
-x,-y,1/2+z
-x+y,-x,z
y,-x+y,1/2+z
-x,-y,-z
-x+y,-x,1/2-z
y,-x+y,-z
x,y,1/2-z
x-y,x,-z
-y,x-y,1/2-z
loop_
_atom_site_type_symbol
_atom_site_label
_atom_site_fract_x
_atom_site_fract_y
_atom_site_fract_z
Si Si1 0.333334 0.666668 0.656510
Si Si2 0.896258 0.156143 0.517351
Si Si3 0.540938 0.431183 0.599856
Si Si4 0.185328 0.775156 0.339265
Si Si5 0.518319 0.867428 0.937395
O O1 0.333334 0.666668 0.750000
O O2 0.313986 0.546234 0.625544
O O3 0.858010 0.155766 0.607370
O O4 0.862592 0.234087 0.465975
O O5 0.029896 0.200785 0.517350
O O6 0.639199 0.535046 0.649753
O O7 0.510745 0.310628 0.636512
O O8 0.581742 0.435090 0.509970
O O9 0.428513 0.441658 0.605360
O O10 0.182002 0.811144 0.250000
#
# Coordination Sequence:
#
# PCOD8325587 Si02
#       5
#     4  12  12  12  12
#     4  12  27  39  57  93 136 170 202 252 309 372
#     4  11  23  44  68  90 118 166 217 261 308 380
#     4  10  20  38  65  88 127 163 207 256 303 377
#     4  11  22  36  62  99 128 159 204 262 316 359
#     4  10  22  41  63  92 119 171 214 244 308 379
#
# _framework density 19.311357000000001
#
# number of rings (size 3 to 8) (size 9 to 14) (size 15 to 20)
#    0.000    1.385    2.308    4.154    6.462    1.846 
#    0.000    1.154    0.000    0.000    0.000    0.000 
#    0.000    0.000    0.000    0.000    0.000    0.000 
#
# Total GULP energy -645104.830459 kJ/mol
# GULP energy per Si atom -12405.862124 kJ/mol
# Density = 1.926740 g / cm^3
# Si number density = 19.311357 Si / 1000 Ang^3
#
#
#
# Elastic Constant Matrix: (Units=GPa)
#
#
# Indices 1 2 3 4 5 6 
#
# 1 98.7467 34.7198 46.6284 0.0000 0.0000 0.0002
# 2 34.7198 98.7462 46.6277 0.0000 0.0000 0.0004
# 3 46.6284 46.6277 101.8713 0.0000 0.0000 0.0001
# 4 0.0000 0.0000 0.0000 14.1007 0.0001 0.0000
# 5 0.0000 0.0000 0.0000 0.0001 14.1007 0.0000
# 6 0.0002 0.0004 0.0001 0.0000 0.0000 32.0135
#
#
#
# Elastic Compliance Matrix: (Units=1/GPa)
#
#
# Indices 1 2 3 4 5 6 
#
# 1 0.013317 -0.002302 -0.005042 0.000000 0.000000 0.000000
# 2 -0.002302 0.013317 -0.005042 0.000000 0.000000 0.000000
# 3 -0.005042 -0.005042 0.014432 0.000000 0.000000 0.000000
# 4 0.000000 0.000000 0.000000 0.070918 0.000000 0.000000
# 5 0.000000 0.000000 0.000000 0.000000 0.070918 0.000000
# 6 0.000000 0.000000 0.000000 0.000000 0.000000 0.031237
#
#
# Mechanical properties :
#
#
# Convention : Reuss Voigt Hill
#
# Bulk Modulus (GPa) = 61.36850 61.70176 61.53513
# Shear Modulus (GPa) = 20.46313 23.46887 21.96600
#
# Velocity S-wave (km/s) = 3.25875 3.48988 3.37629
# Velocity P-wave (km/s) = 6.78282 6.94690 6.86535
#
# Compressibility (1/GPa) = 0.01629501
#
# Stress axis : x y z
#
# Youngs Moduli (GPa) = 75.09212 75.09216 69.29121
#
# Poissons Ratio (x) = 0.17283 0.34937
# Poissons Ratio (y) = 0.17283 0.34936
# Poissons Ratio (z) = 0.37861 0.37861
#
# Static dielectric constant tensor:
#      x y z
#    x 3.523910 -0.000010 0.000000 
#    y -0.000010 3.523910 0.000000 
#    z 0.000000 0.000000 3.433860 
# 
# 
# High freq. dielectric constant tensor:
#      x y z
#    x 1.753900 0.000000 0.000000 
#    y 0.000000 1.753900 0.000000 
#    z 0.000000 0.000000 1.734650 
# 
# From -- ./inp_files/2579.got.cif
#   From: 2010.06.25/outbox.cif.g09.slc.cpg/sg176_2_cif.got.tgz:2579.got - 2010.06.28 12:15:01.
