data_PCOD8325361
_publ_section_title
;
Structure prediction by ZEFSAII (Michael W. Deem and Ramdas Pophale) SiO2 
 PCOD8325361
Probable space group: P 6/M
;
_chemical_formula_sum "Si O2"
_cell_formula_units_Z 72
_cell_length_a 22.931136
_cell_length_b 22.931136
_cell_length_c 8.895002
_cell_angle_alpha 90.000000
_cell_angle_beta 90.000000
_cell_angle_gamma 120.000000
_cell_volume 4050.678939
_symmetry_space_group_name_H-M "P 6/M"
_symmetry_group_IT_number 175
_symmetry_cell_setting 'hexagonal'
loop_
_space_group_symop_operation_xyz
x,y,z
x-y,x,z
-y,x-y,z
-x,-y,z
-x+y,-x,z
y,-x+y,z
-x,-y,-z
-x+y,-x,-z
y,-x+y,-z
x,y,-z
x-y,x,-z
-y,x-y,-z
loop_
_atom_site_type_symbol
_atom_site_label
_atom_site_fract_x
_atom_site_fract_y
_atom_site_fract_z
Si Si1 0.387466 0.261258 0.675981
Si Si2 0.000000 0.869437 0.820964
Si Si3 0.261258 0.387466 0.675981
Si Si4 0.737595 0.737595 0.821700
Si Si5 0.077985 0.472722 0.825320
Si Si6 0.472722 0.077985 0.174680
O O1 0.376074 0.263543 0.500000
O O2 0.395288 0.197644 0.720581
O O3 0.325441 0.258063 0.763002
O O4 0.454713 0.329079 0.726953
O O5 0.934444 0.868888 0.755926
O O6 0.000000 0.803603 0.762603
O O7 0.000000 0.871349 0.000000
O O8 0.263543 0.376074 0.500000
O O9 0.258063 0.325441 0.763002
O O10 0.329079 0.454713 0.726953
O O11 0.733168 0.733168 0.000000
O O12 0.093687 0.546843 0.777593
O O13 1.000000 0.418686 0.793094
O O14 0.094033 0.471269 0.000000
O O15 0.471269 0.094033 0.000000
#
# Coordination Sequence:
#
# PCOD8325361 Si02
#       6
#    12  12  12  12  12  12
#     4  11  23  36  52  79 114 148 182 221 268 322
#     4   9  17  29  46  68  93 124 167 220 274 323
#     4  11  23  36  52  79 114 148 182 221 268 322
#     4  11  21  34  52  75 104 140 183 229 276 325
#     4   9  18  34  57  84 110 136 172 220 269 316
#     4   9  18  34  57  84 110 136 172 220 269 316
#
# _framework density 17.774798000000001
#
# number of rings (size 3 to 8) (size 9 to 14) (size 15 to 20)
#    0.000    2.000    1.667    3.667    0.000    5.333 
#    0.000    1.667    0.000    0.667    0.000    0.000 
#    0.000    8.000    0.000    0.000    0.000    0.000 
#
# Total GULP energy -892921.245550 kJ/mol
# GULP energy per Si atom -12401.683966 kJ/mol
# Density = 1.773434 g / cm^3
# Si number density = 17.774798 Si / 1000 Ang^3
#
#
#
# Elastic Constant Matrix: (Units=GPa)
#
#
# Indices 1 2 3 4 5 6 
#
# 1 126.8408 74.1835 48.5728 0.0000 0.0000 0.0000
# 2 74.1835 126.8408 48.5728 0.0000 0.0000 0.0000
# 3 48.5728 48.5728 64.7537 0.0000 0.0000 0.0000
# 4 0.0000 0.0000 0.0000 24.8207 0.0000 0.0000
# 5 0.0000 0.0000 0.0000 0.0000 24.8207 0.0000
# 6 0.0000 0.0000 0.0000 0.0000 0.0000 26.3287
#
#
#
# Elastic Compliance Matrix: (Units=1/GPa)
#
#
# Indices 1 2 3 4 5 6 
#
# 1 0.013397 -0.005594 -0.005853 0.000000 0.000000 0.000000
# 2 -0.005594 0.013397 -0.005853 0.000000 0.000000 0.000000
# 3 -0.005853 -0.005853 0.024224 0.000000 0.000000 0.000000
# 4 0.000000 0.000000 0.000000 0.040289 0.000000 0.000000
# 5 0.000000 0.000000 0.000000 0.000000 0.040289 0.000000
# 6 0.000000 0.000000 0.000000 0.000000 0.000000 0.037981
#
#
# Mechanical properties :
#
#
# Convention : Reuss Voigt Hill
#
# Bulk Modulus (GPa) = 60.91020 73.45485 67.18252
# Shear Modulus (GPa) = 23.84921 25.00111 24.42516
#
# Velocity S-wave (km/s) = 3.66695 3.75447 3.71097
# Velocity P-wave (km/s) = 7.22986 7.75949 7.49935
#
# Compressibility (1/GPa) = 0.01641761
#
# Stress axis : x y z
#
# Youngs Moduli (GPa) = 74.64408 74.64408 41.28075
#
# Poissons Ratio (x) = 0.41754 0.24163
# Poissons Ratio (y) = 0.41754 0.24163
# Poissons Ratio (z) = 0.43691 0.43691
#
# Static dielectric constant tensor:
#      x y z
#    x 3.407290 0.000000 0.000000 
#    y 0.000000 3.407290 0.000000 
#    z 0.000000 0.000000 3.141380 
# 
# 
# High freq. dielectric constant tensor:
#      x y z
#    x 1.687020 0.000000 0.000000 
#    y 0.000000 1.687020 0.000000 
#    z 0.000000 0.000000 1.675640 
# 
# From -- ./inp_files/1151.got.cif
#   From: 2010.03.12/outbox.cif.g09.slc.cpg/sg175_1_cif.got.tgz:1151.got - 2010.04.02 06:55:29.
