data_PCOD8325785
_publ_section_title
;
Structure prediction by ZEFSAII (Michael W. Deem and Ramdas Pophale) SiO2 
 PCOD8325785
Probable space group: P 61 2 2
;
_chemical_formula_sum "Si O2"
_cell_formula_units_Z 84
_cell_length_a 15.036090
_cell_length_b 15.036090
_cell_length_c 23.816130
_cell_angle_alpha 90.000000
_cell_angle_beta 90.000000
_cell_angle_gamma 120.000000
_cell_volume 4663.067016
_symmetry_space_group_name_H-M "P 61 2 2"
_symmetry_group_IT_number 178
_symmetry_cell_setting 'hexagonal'
loop_
_space_group_symop_operation_xyz
x,y,z
x-y,x,1/6+z
-y,x-y,1/3+z
-x,-y,1/2+z
-x+y,-x,2/3+z
y,-x+y,5/6+z
x-y,-y,-z
-x,-x+y,2/3-z
y,x,1/3-z
-y,-x,5/6-z
-x+y,y,1/2-z
x,x-y,1/6-z
loop_
_atom_site_type_symbol
_atom_site_label
_atom_site_fract_x
_atom_site_fract_y
_atom_site_fract_z
Si Si1 0.254192 0.926400 0.221355
Si Si2 0.037220 0.555404 0.687088
Si Si3 0.687169 0.092223 0.540233
Si Si4 0.678197 0.196078 0.792778
Si Si5 0.404768 0.730384 0.521120
Si Si6 0.848430 0.465267 0.526031
Si Si7 0.320076 0.189607 0.880373
O O1 0.360426 0.965282 0.187582
O O2 0.248445 0.841284 0.264824
O O3 0.157395 0.880080 0.177117
O O4 0.254072 0.015763 0.260304
O O5 0.059792 0.595198 0.749845
O O6 0.115066 0.514978 0.670907
O O7 0.925291 0.454638 0.688991
O O8 0.695252 0.185682 0.505559
O O9 0.793849 0.121853 0.570231
O O10 0.666945 0.000000 0.500000
O O11 0.607809 0.215618 0.750000
O O12 0.754995 0.310970 0.816751
O O13 0.435516 0.717758 0.583334
O O14 0.360318 0.625295 0.485967
O O15 0.893611 0.446806 0.583334
O O16 0.841874 0.566975 0.529031
#
# Coordination Sequence:
#
# PCOD8325785 Si02
#       7
#    12  12  12  12  12  12  12
#     4  10  19  34  53  80 106 143 190 238 285 331
#     4  10  18  31  51  73 106 146 190 231 264 314
#     4  11  23  34  47  75 115 150 183 229 283 340
#     4   9  17  31  50  75 104 140 188 228 257 316
#     4  11  21  32  48  74 109 153 191 219 266 333
#     4  12  18  32  55  77 105 151 194 222 269 328
#     4  11  21  35  55  78 110 150 193 238 281 341
#
# _framework density 18.013895999999999
#
# number of rings (size 3 to 8) (size 9 to 14) (size 15 to 20)
#    0.000    1.429    4.286    4.714    0.000    1.143 
#    0.000    0.000    0.000    0.000    0.000    0.000 
#    0.000   12.571    0.000    0.000    0.000    0.000 
#
# Total GULP energy -1041100.728004 kJ/mol
# GULP energy per Si atom -12394.056286 kJ/mol
# Density = 1.797290 g / cm^3
# Si number density = 18.013896 Si / 1000 Ang^3
#
#
#
# Elastic Constant Matrix: (Units=GPa)
#
#
# Indices 1 2 3 4 5 6 
#
# 1 53.9976 15.4588 25.4327 0.0000 0.0000 0.0000
# 2 15.4588 53.9976 25.4327 0.0000 0.0000 0.0000
# 3 25.4327 25.4327 69.3337 0.0000 0.0000 0.0000
# 4 0.0000 0.0000 0.0000 32.8762 0.0000 0.0000
# 5 0.0000 0.0000 0.0000 0.0000 32.8762 0.0000
# 6 0.0000 0.0000 0.0000 0.0000 0.0000 19.2694
#
#
#
# Elastic Compliance Matrix: (Units=1/GPa)
#
#
# Indices 1 2 3 4 5 6 
#
# 1 0.022817 -0.003131 -0.007221 0.000000 0.000000 0.000000
# 2 -0.003131 0.022817 -0.007221 0.000000 0.000000 0.000000
# 3 -0.007221 -0.007221 0.019721 0.000000 0.000000 0.000000
# 4 0.000000 0.000000 0.000000 0.030417 0.000000 0.000000
# 5 0.000000 0.000000 0.000000 0.000000 0.030417 0.000000
# 6 0.000000 0.000000 0.000000 0.000000 0.000000 0.051896
#
#
# Mechanical properties :
#
#
# Convention : Reuss Voigt Hill
#
# Bulk Modulus (GPa) = 33.10390 34.44190 33.77290
# Shear Modulus (GPa) = 22.39141 24.40466 23.39803
#
# Velocity S-wave (km/s) = 3.52946 3.68471 3.60792
# Velocity P-wave (km/s) = 5.91829 6.10442 6.01208
#
# Compressibility (1/GPa) = 0.03020792
#
# Stress axis : x y z
#
# Youngs Moduli (GPa) = 43.82734 43.82734 50.70849
#
# Poissons Ratio (x) = 0.13723 0.36617
# Poissons Ratio (y) = 0.13723 0.36617
# Poissons Ratio (z) = 0.31648 0.31648
#
# Static dielectric constant tensor:
#      x y z
#    x 3.246510 0.000000 0.000000 
#    y 0.000000 3.246510 0.000000 
#    z 0.000000 0.000000 3.516890 
# 
# 
# High freq. dielectric constant tensor:
#      x y z
#    x 1.674010 0.000000 0.000000 
#    y 0.000000 1.674010 0.000000 
#    z 0.000000 0.000000 1.699470 
# 
# From -- ./inp_files/8326.got.cif
#   From: 2010.03.12/outbox.cif.g09.slc.cpg/sg178_5_cif.got.tgz:8326.got - 2010.04.02 07:02:38.
