data_PCOD8325116
_publ_section_title
;
Structure prediction by ZEFSAII (Michael W. Deem and Ramdas Pophale) SiO2 
 PCOD8325116
Probable space group: P 6/M
;
_chemical_formula_sum "Si O2"
_cell_formula_units_Z 54
_cell_length_a 19.767485
_cell_length_b 19.767485
_cell_length_c 9.018545
_cell_angle_alpha 90.000000
_cell_angle_beta 90.000000
_cell_angle_gamma 120.000000
_cell_volume 3051.897505
_symmetry_space_group_name_H-M "P 6/M"
_symmetry_group_IT_number 175
_symmetry_cell_setting 'hexagonal'
loop_
_space_group_symop_operation_xyz
x,y,z
x-y,x,z
-y,x-y,z
-x,-y,z
-x+y,-x,z
y,-x+y,z
-x,-y,-z
-x+y,-x,-z
y,-x+y,-z
x,y,-z
x-y,x,-z
-y,x-y,-z
loop_
_atom_site_type_symbol
_atom_site_label
_atom_site_fract_x
_atom_site_fract_y
_atom_site_fract_z
Si Si1 0.285561 0.992581 0.335893
Si Si2 0.714538 0.566168 0.328385
Si Si3 0.839483 0.841982 0.500000
Si Si4 0.089103 0.536508 0.329400
Si Si5 0.855501 0.567663 0.824993
O O1 0.312596 0.979556 0.500000
O O2 0.354673 0.073228 0.269466
O O3 0.206064 0.996918 0.353839
O O4 0.269149 0.921553 0.230474
O O5 0.740676 0.576782 0.500000
O O6 0.628819 0.493367 0.304671
O O7 0.771704 0.549170 0.232524
O O8 0.850416 0.926980 0.500000
O O9 0.091805 0.514851 0.500000
O O10 0.130036 0.500751 0.230250
O O11 0.000000 0.500000 0.276550
O O12 0.855425 0.568297 0.000000
#
# Coordination Sequence:
#
# PCOD8325116 Si02
#       5
#    12  12   6  12  12
#     4   9  19  36  60  83 109 148 195 243 281 326
#     4  10  20  38  63  85 109 151 198 247 287 338
#     4  10  19  32  58  89 120 146 182 238 290 335
#     4  10  20  39  64  88 109 149 203 247 290 345
#     4  12  24  36  56  86 124 155 184 239 302 362
#
# _framework density 17.693911
#
# number of rings (size 3 to 8) (size 9 to 14) (size 15 to 20)
#    0.667    1.111    2.222    3.444    0.000    2.222 
#    1.333    0.000    0.000    0.000    0.000    0.000 
#    0.000    3.556    0.000    0.000    0.000    0.000 
#
# Total GULP energy -669619.027000 kJ/mol
# GULP energy per Si atom -12400.352352 kJ/mol
# Density = 1.765364 g / cm^3
# Si number density = 17.693911 Si / 1000 Ang^3
#
#
#
# Elastic Constant Matrix: (Units=GPa)
#
#
# Indices 1 2 3 4 5 6 
#
# 1 127.3459 64.8877 48.5699 0.0000 0.0000 0.0000
# 2 64.8877 127.3459 48.5699 0.0000 0.0000 0.0000
# 3 48.5699 48.5699 87.2948 0.0000 0.0000 0.0000
# 4 0.0000 0.0000 0.0000 1.1312 0.0000 0.0000
# 5 0.0000 0.0000 0.0000 0.0000 1.1312 0.0000
# 6 0.0000 0.0000 0.0000 0.0000 0.0000 31.2291
#
#
#
# Elastic Compliance Matrix: (Units=1/GPa)
#
#
# Indices 1 2 3 4 5 6 
#
# 1 0.011624 -0.004387 -0.004026 0.000000 0.000000 0.000000
# 2 -0.004387 0.011624 -0.004026 0.000000 0.000000 0.000000
# 3 -0.004026 -0.004026 0.015936 0.000000 0.000000 0.000000
# 4 0.000000 0.000000 0.000000 0.884037 0.000000 0.000000
# 5 0.000000 0.000000 0.000000 0.000000 0.884037 0.000000
# 6 0.000000 0.000000 0.000000 0.000000 0.000000 0.032021
#
#
# Mechanical properties :
#
#
# Convention : Reuss Voigt Hill
#
# Bulk Modulus (GPa) = 69.91234 74.00465 71.95849
# Shear Modulus (GPa) = 2.67533 18.69556 10.68545
#
# Velocity S-wave (km/s) = 1.23097 3.25408 2.46011
# Velocity P-wave (km/s) = 6.45122 7.48562 6.98759
#
# Compressibility (1/GPa) = 0.01430363
#
# Stress axis : x y z
#
# Youngs Moduli (GPa) = 86.03140 86.03140 62.75134
#
# Poissons Ratio (x) = 0.37742 0.25266
# Poissons Ratio (y) = 0.37742 0.25266
# Poissons Ratio (z) = 0.34640 0.34640
#
# Static dielectric constant tensor:
#      x y z
#    x 3.284190 0.000000 0.000000 
#    y 0.000000 3.284190 0.000000 
#    z 0.000000 0.000000 3.000140 
# 
# 
# High freq. dielectric constant tensor:
#      x y z
#    x 1.691250 0.000000 0.000000 
#    y 0.000000 1.691250 0.000000 
#    z 0.000000 0.000000 1.651980 
# 
# From -- ./inp_files/816.got.cif
#   From: 2010.03.12/outbox.cif.g09.slc.cpg/sg175_1_cif.got.tgz:816.got - 2010.04.02 06:55:29.
