data_PCOD8325083
_publ_section_title
;
Structure prediction by ZEFSAII (Michael W. Deem and Ramdas Pophale) SiO2 
 PCOD8325083
Probable space group: P 6/M
;
_chemical_formula_sum "Si O2"
_cell_formula_units_Z 72
_cell_length_a 23.797223
_cell_length_b 23.797223
_cell_length_c 9.056801
_cell_angle_alpha 90.000000
_cell_angle_beta 90.000000
_cell_angle_gamma 120.000000
_cell_volume 4441.789956
_symmetry_space_group_name_H-M "P 6/M"
_symmetry_group_IT_number 175
_symmetry_cell_setting 'hexagonal'
loop_
_space_group_symop_operation_xyz
x,y,z
x-y,x,z
-y,x-y,z
-x,-y,z
-x+y,-x,z
y,-x+y,z
-x,-y,-z
-x+y,-x,-z
y,-x+y,-z
x,y,-z
x-y,x,-z
-y,x-y,-z
loop_
_atom_site_type_symbol
_atom_site_label
_atom_site_fract_x
_atom_site_fract_y
_atom_site_fract_z
Si Si1 0.363790 0.849364 0.831421
Si Si2 0.935515 0.306094 0.325283
Si Si3 0.742972 0.260893 0.336049
Si Si4 0.703864 0.070054 0.172723
Si Si5 0.364319 0.185660 0.662940
Si Si6 0.505114 0.140525 0.170605
O O1 0.327433 0.783491 0.736231
O O2 0.343467 0.902054 0.783652
O O3 0.441046 0.881419 0.810980
O O4 0.342553 0.828930 0.000000
O O5 0.938587 0.317057 0.500000
O O6 0.887541 0.230065 0.285438
O O7 0.911671 0.352475 0.253975
O O8 0.004728 0.323719 0.262365
O O9 0.734486 0.282454 0.500000
O O10 0.777860 0.219043 0.345447
O O11 0.787118 0.323720 0.237023
O O12 0.778083 0.120167 0.221035
O O13 0.702401 0.056133 0.000000
O O14 0.336144 0.185751 0.500000
O O15 0.487671 0.142278 0.000000
#
# Coordination Sequence:
#
# PCOD8325083 Si02
#       6
#    12  12  12  12  12  12
#     4   9  19  33  47  64  87 118 152 192 241 290
#     4  10  20  33  49  70  95 123 155 188 230 280
#     4   9  17  30  47  64  82 108 145 187 234 286
#     4  10  19  31  49  71  93 119 154 190 228 276
#     4   8  16  31  48  65  88 117 146 180 220 266
#     4  10  19  32  48  64  87 117 152 195 241 288
#
# _framework density 16.209681
#
# number of rings (size 3 to 8) (size 9 to 14) (size 15 to 20)
#    0.000    2.667    0.000    3.000    0.000    7.333 
#    1.000    3.333    0.000    0.000    0.000    0.000 
#    0.000    0.000    0.000    0.500    0.000    9.667 
#
# Total GULP energy -892601.999734 kJ/mol
# GULP energy per Si atom -12397.249996 kJ/mol
# Density = 1.617279 g / cm^3
# Si number density = 16.209681 Si / 1000 Ang^3
#
#
#
# Elastic Constant Matrix: (Units=GPa)
#
#
# Indices 1 2 3 4 5 6 
#
# 1 75.3394 44.3483 44.9336 0.0000 0.0000 0.0000
# 2 44.3483 75.3394 44.9336 0.0000 0.0000 0.0000
# 3 44.9336 44.9336 102.0889 0.0000 0.0000 0.0000
# 4 0.0000 0.0000 0.0000 25.5089 0.0000 0.0000
# 5 0.0000 0.0000 0.0000 0.0000 25.5089 0.0000
# 6 0.0000 0.0000 0.0000 0.0000 0.0000 15.4955
#
#
#
# Elastic Compliance Matrix: (Units=1/GPa)
#
#
# Indices 1 2 3 4 5 6 
#
# 1 0.022373 -0.009894 -0.005493 0.000000 0.000000 0.000000
# 2 -0.009894 0.022373 -0.005493 0.000000 0.000000 0.000000
# 3 -0.005493 -0.005493 0.014630 0.000000 0.000000 0.000000
# 4 0.000000 0.000000 0.000000 0.039202 0.000000 0.000000
# 5 0.000000 0.000000 0.000000 0.000000 0.039202 0.000000
# 6 0.000000 0.000000 0.000000 0.000000 0.000000 0.064535
#
#
# Mechanical properties :
#
#
# Convention : Reuss Voigt Hill
#
# Bulk Modulus (GPa) = 56.75896 57.91099 57.33497
# Shear Modulus (GPa) = 20.00423 21.20614 20.60518
#
# Velocity S-wave (km/s) = 3.51677 3.62088 3.56921
# Velocity P-wave (km/s) = 7.18204 7.29964 7.24108
#
# Compressibility (1/GPa) = 0.01761836
#
# Stress axis : x y z
#
# Youngs Moduli (GPa) = 44.69617 44.69617 68.35061
#
# Poissons Ratio (x) = 0.44223 0.37542
# Poissons Ratio (y) = 0.44223 0.37542
# Poissons Ratio (z) = 0.24550 0.24550
#
# Static dielectric constant tensor:
#      x y z
#    x 2.958420 0.000000 0.000000 
#    y 0.000000 2.958420 0.000000 
#    z 0.000000 0.000000 3.280330 
# 
# 
# High freq. dielectric constant tensor:
#      x y z
#    x 1.594850 0.000000 0.000000 
#    y 0.000000 1.594850 0.000000 
#    z 0.000000 0.000000 1.639600 
# 
# From -- ./inp_files/1163.got.cif
#   From: 2010.03.12/outbox.cif.g09.slc.cpg/sg175_1_cif.got.tgz:1163.got - 2010.04.02 06:55:29.
