data_PCOD8325121
_publ_section_title
;
Structure prediction by ZEFSAII (Michael W. Deem and Ramdas Pophale) SiO2 
 PCOD8325121
Probable space group: P 6/M
;
_chemical_formula_sum "Si O2"
_cell_formula_units_Z 72
_cell_length_a 24.058469
_cell_length_b 24.058469
_cell_length_c 8.473523
_cell_angle_alpha 90.000000
_cell_angle_beta 90.000000
_cell_angle_gamma 120.000000
_cell_volume 4247.472913
_symmetry_space_group_name_H-M "P 6/M"
_symmetry_group_IT_number 175
_symmetry_cell_setting 'hexagonal'
loop_
_space_group_symop_operation_xyz
x,y,z
x-y,x,z
-y,x-y,z
-x,-y,z
-x+y,-x,z
y,-x+y,z
-x,-y,-z
-x+y,-x,-z
y,-x+y,-z
x,y,-z
x-y,x,-z
-y,x-y,-z
loop_
_atom_site_type_symbol
_atom_site_label
_atom_site_fract_x
_atom_site_fract_y
_atom_site_fract_z
Si Si1 0.136525 0.397360 0.687823
Si Si2 0.256107 0.071953 0.684836
Si Si3 0.934121 0.742967 0.184215
Si Si4 0.738647 0.599243 0.313695
Si Si5 0.403227 0.927846 0.312611
Si Si6 0.072500 0.597481 0.688104
O O1 0.130256 0.389659 0.500000
O O2 0.087591 0.328680 0.759974
O O3 0.209196 0.420245 0.743966
O O4 0.118477 0.449760 0.751363
O O5 0.254620 0.084344 0.500000
O O6 0.236526 0.118237 0.775194
O O7 0.327849 0.089769 0.738031
O O8 0.206580 0.999124 0.727376
O O9 0.947768 0.748770 0.000000
O O10 0.732442 0.593452 0.500000
O O11 0.668618 0.550981 0.239213
O O12 0.402239 0.928071 0.500000
O O13 0.451868 0.903412 0.254447
O O14 0.428813 0.000039 0.251120
O O15 0.073342 0.600199 0.500000
#
# Coordination Sequence:
#
# PCOD8325121 Si02
#       6
#    12  12  12  12  12  12
#     4   9  16  27  42  62  86 117 152 186 225 279
#     4  10  19  33  51  70  92 123 157 188 222 272
#     4  11  21  32  47  71  98 122 148 187 233 273
#     4   8  14  23  39  61  85 110 143 185 227 268
#     4   8  13  20  34  55  80 107 141 180 219 262
#     4   8  12  19  32  55  81 105 135 180 225 258
#
# _framework density 16.951256000000001
#
# number of rings (size 3 to 8) (size 9 to 14) (size 15 to 20)
#    0.000    3.000    0.000    5.000    0.000    2.667 
#    0.000    0.000    0.000    1.000    0.000   21.000 
#    0.000    0.000    0.000    0.000    0.000    0.000 
#
# Total GULP energy -892298.402872 kJ/mol
# GULP energy per Si atom -12393.033373 kJ/mol
# Density = 1.691267 g / cm^3
# Si number density = 16.951256 Si / 1000 Ang^3
#
#
#
# Elastic Constant Matrix: (Units=GPa)
#
#
# Indices 1 2 3 4 5 6 
#
# 1 125.1643 66.8266 3.7521 0.0000 0.0000 0.0000
# 2 66.8266 125.1643 3.7521 0.0000 0.0000 0.0000
# 3 3.7521 3.7521 22.8070 0.0000 0.0000 0.0000
# 4 0.0000 0.0000 0.0000 7.0557 0.0000 0.0000
# 5 0.0000 0.0000 0.0000 0.0000 7.0557 0.0000
# 6 0.0000 0.0000 0.0000 0.0000 0.0000 29.1689
#
#
#
# Elastic Compliance Matrix: (Units=1/GPa)
#
#
# Indices 1 2 3 4 5 6 
#
# 1 0.011192 -0.005950 -0.000862 0.000000 0.000000 0.000000
# 2 -0.005950 0.011192 -0.000862 0.000000 0.000000 0.000000
# 3 -0.000862 -0.000862 0.044130 0.000000 0.000000 0.000000
# 4 0.000000 0.000000 0.000000 0.141730 0.000000 0.000000
# 5 0.000000 0.000000 0.000000 0.000000 0.141730 0.000000
# 6 0.000000 0.000000 0.000000 0.000000 0.000000 0.034283
#
#
# Mechanical properties :
#
#
# Convention : Reuss Voigt Hill
#
# Bulk Modulus (GPa) = 19.54467 46.86635 33.20551
# Shear Modulus (GPa) = 12.00018 21.90969 16.95494
#
# Velocity S-wave (km/s) = 2.66357 3.59905 3.16605
# Velocity P-wave (km/s) = 4.58415 6.70661 5.74426
#
# Compressibility (1/GPa) = 0.05116484
#
# Stress axis : x y z
#
# Youngs Moduli (GPa) = 89.35010 89.35010 22.66030
#
# Poissons Ratio (x) = 0.53160 0.01954
# Poissons Ratio (y) = 0.53160 0.01954
# Poissons Ratio (z) = 0.07706 0.07706
#
# Static dielectric constant tensor:
#      x y z
#    x 3.413650 0.000000 0.000000 
#    y 0.000000 3.413650 0.000000 
#    z 0.000000 0.000000 2.732690 
# 
# 
# High freq. dielectric constant tensor:
#      x y z
#    x 1.647330 0.000000 0.000000 
#    y 0.000000 1.647330 0.000000 
#    z 0.000000 0.000000 1.613380 
# 
# From -- ./inp_files/1218.got.cif
#   From: 2010.03.12/outbox.cif.g09.slc.cpg/sg175_1_cif.got.tgz:1218.got - 2010.04.02 06:55:29.
