data_PCOD8325717
_publ_section_title
;
Structure prediction by ZEFSAII (Michael W. Deem and Ramdas Pophale) SiO2 
 PCOD8325717
Probable space group: P 63/M
;
_chemical_formula_sum "Si O2"
_cell_formula_units_Z 40
_cell_length_a 11.028443
_cell_length_b 11.028443
_cell_length_c 15.480393
_cell_angle_alpha 90.000000
_cell_angle_beta 90.000000
_cell_angle_gamma 120.000000
_cell_volume 1630.575901
_symmetry_space_group_name_H-M "P 63/M"
_symmetry_group_IT_number 176
_symmetry_cell_setting 'hexagonal'
loop_
_space_group_symop_operation_xyz
x,y,z
x-y,x,1/2+z
-y,x-y,z
-x,-y,1/2+z
-x+y,-x,z
y,-x+y,1/2+z
-x,-y,-z
-x+y,-x,1/2-z
y,-x+y,-z
x,y,1/2-z
x-y,x,-z
-y,x-y,1/2-z
loop_
_atom_site_type_symbol
_atom_site_label
_atom_site_fract_x
_atom_site_fract_y
_atom_site_fract_z
Si Si1 0.000000 0.000000 0.898070
Si Si2 0.388931 0.268100 0.849081
Si Si3 0.133074 0.293885 0.651733
Si Si4 0.956893 0.407057 0.585439
O O1 0.998942 0.137113 0.860706
O O2 0.000000 0.000000 0.000000
O O3 0.359347 0.208293 0.750000
O O4 0.263787 0.287976 0.891006
O O5 0.415087 0.169786 0.915650
O O6 0.521651 0.424758 0.845282
O O7 0.171164 0.336287 0.750000
O O8 0.099328 0.407728 0.611477
O O9 0.000000 0.500000 0.500000
#
# Coordination Sequence:
#
# PCOD8325717 Si02
#       4
#     4  12  12  12
#     4  12  25  38  79 114 154 182 253 345 400 461
#     4  11  25  48  78 107 154 214 265 321 403 496
#     4  11  24  47  78 111 149 205 270 327 399 486
#     4  12  28  45  77 113 161 203 269 336 401 474
#
# _framework density 24.531210999999999
#
# number of rings (size 3 to 8) (size 9 to 14) (size 15 to 20)
#    0.000    0.600    3.000    4.200    8.400    0.000 
#    1.800    0.000    0.000    0.000    0.000    0.000 
#    0.000    0.000    0.000    0.000    0.000    0.000 
#
# Total GULP energy -495783.878883 kJ/mol
# GULP energy per Si atom -12394.596972 kJ/mol
# Density = 2.447538 g / cm^3
# Si number density = 24.531211 Si / 1000 Ang^3
#
#
#
# Elastic Constant Matrix: (Units=GPa)
#
#
# Indices 1 2 3 4 5 6 
#
# 1 161.6418 66.4934 51.3708 0.0000 0.0000 0.0000
# 2 66.4934 161.6418 51.3708 0.0000 0.0000 0.0000
# 3 51.3708 51.3708 96.5888 0.0000 0.0000 0.0000
# 4 0.0000 0.0000 0.0000 42.9489 0.0000 0.0000
# 5 0.0000 0.0000 0.0000 0.0000 42.9489 0.0000
# 6 0.0000 0.0000 0.0000 0.0000 0.0000 47.5742
#
#
#
# Elastic Compliance Matrix: (Units=1/GPa)
#
#
# Indices 1 2 3 4 5 6 
#
# 1 0.008137 -0.002373 -0.003066 0.000000 0.000000 0.000000
# 2 -0.002373 0.008137 -0.003066 0.000000 0.000000 0.000000
# 3 -0.003066 -0.003066 0.013614 0.000000 0.000000 0.000000
# 4 0.000000 0.000000 0.000000 0.023283 0.000000 0.000000
# 5 0.000000 0.000000 0.000000 0.000000 0.023283 0.000000
# 6 0.000000 0.000000 0.000000 0.000000 0.000000 0.021020
#
#
# Mechanical properties :
#
#
# Convention : Reuss Voigt Hill
#
# Bulk Modulus (GPa) = 77.64175 84.26027 80.95101
# Shear Modulus (GPa) = 42.09605 43.40358 42.74982
#
# Velocity S-wave (km/s) = 4.14698 4.21089 4.17906
# Velocity P-wave (km/s) = 7.39249 7.62003 7.50712
#
# Compressibility (1/GPa) = 0.01287967
#
# Stress axis : x y z
#
# Youngs Moduli (GPa) = 122.89657 122.89657 73.45370
#
# Poissons Ratio (x) = 0.29163 0.22518
# Poissons Ratio (y) = 0.29163 0.22518
# Poissons Ratio (z) = 0.37675 0.37675
#
# Static dielectric constant tensor:
#      x y z
#    x 4.773350 0.000000 0.000000 
#    y 0.000000 4.773350 0.000000 
#    z 0.000000 0.000000 3.920780 
# 
# 
# High freq. dielectric constant tensor:
#      x y z
#    x 1.986450 0.000000 0.000000 
#    y 0.000000 1.986450 0.000000 
#    z 0.000000 0.000000 1.956920 
# 
# From -- ./inp_files/3136.got.cif
#   From: 2010.06.25/outbox.cif.g09.slc.cpg/sg176_2_cif.got.tgz:3136.got - 2010.06.28 12:15:01.
