data_PCOD8325218
_publ_section_title
;
Structure prediction by ZEFSAII (Michael W. Deem and Ramdas Pophale) SiO2 
 PCOD8325218
Probable space group: P 6/M
;
_chemical_formula_sum "Si O2"
_cell_formula_units_Z 60
_cell_length_a 19.884711
_cell_length_b 19.884711
_cell_length_c 9.319014
_cell_angle_alpha 90.000000
_cell_angle_beta 90.000000
_cell_angle_gamma 120.000000
_cell_volume 3191.090806
_symmetry_space_group_name_H-M "P 6/M"
_symmetry_group_IT_number 175
_symmetry_cell_setting 'hexagonal'
loop_
_space_group_symop_operation_xyz
x,y,z
x-y,x,z
-y,x-y,z
-x,-y,z
-x+y,-x,z
y,-x+y,z
-x,-y,-z
-x+y,-x,-z
y,-x+y,-z
x,y,-z
x-y,x,-z
-y,x-y,-z
loop_
_atom_site_type_symbol
_atom_site_label
_atom_site_fract_x
_atom_site_fract_y
_atom_site_fract_z
Si Si1 0.043672 0.871403 0.500000
Si Si2 0.997761 0.232642 0.750006
Si Si3 0.867281 0.260792 0.161629
Si Si4 0.420935 0.997463 0.830924
Si Si5 0.130428 0.958298 0.000000
Si Si6 0.605516 0.728317 0.335984
O O1 0.960109 0.860009 0.500000
O O2 0.057131 0.836099 0.643356
O O3 0.058119 0.304390 0.654407
O O4 0.935357 0.239725 0.846827
O O5 0.054466 0.221012 0.856477
O O6 0.793556 0.204048 0.261696
O O7 0.917757 0.350783 0.217710
O O8 0.834976 0.255539 0.000000
O O9 0.352681 0.920837 0.751931
O O10 0.500000 0.000000 0.791104
O O11 0.401964 0.985879 0.000000
O O12 0.041687 0.900861 0.000000
O O13 0.573692 0.716261 0.500000
#
# Coordination Sequence:
#
# PCOD8325218 Si02
#       6
#     6  12  12  12   6  12
#     4  12  23  36  46  62  91 134 178 224 276 332
#     4  11  23  35  51  72 100 135 178 233 283 324
#     4  10  20  35  58  84 108 140 183 229 277 331
#     4   9  20  39  61  87 119 152 187 232 288 344
#     4  12  23  36  48  64  89 130 180 232 280 326
#     4  11  22  35  56  85 113 144 184 227 276 335
#
# _framework density 18.802349
#
# number of rings (size 3 to 8) (size 9 to 14) (size 15 to 20)
#    0.000    1.400    2.000    4.400    4.200    1.200 
#    0.000    2.000    0.000    0.800    0.000    2.800 
#    0.000    0.000    0.000    0.000    0.000    0.000 
#
# Total GULP energy -743347.947396 kJ/mol
# GULP energy per Si atom -12389.132457 kJ/mol
# Density = 1.875955 g / cm^3
# Si number density = 18.802349 Si / 1000 Ang^3
#
#
#
# Elastic Constant Matrix: (Units=GPa)
#
#
# Indices 1 2 3 4 5 6 
#
# 1 118.0234 33.0488 37.4079 0.0000 0.0000 0.0000
# 2 33.0488 118.0234 37.4079 0.0000 0.0000 0.0000
# 3 37.4079 37.4079 107.0783 0.0000 0.0000 0.0000
# 4 0.0000 0.0000 0.0000 22.6362 0.0000 0.0000
# 5 0.0000 0.0000 0.0000 0.0000 22.6362 0.0000
# 6 0.0000 0.0000 0.0000 0.0000 0.0000 42.4873
#
#
#
# Elastic Compliance Matrix: (Units=1/GPa)
#
#
# Indices 1 2 3 4 5 6 
#
# 1 0.009886 -0.001882 -0.002796 0.000000 0.000000 0.000000
# 2 -0.001882 0.009886 -0.002796 0.000000 0.000000 0.000000
# 3 -0.002796 -0.002796 0.011293 0.000000 0.000000 0.000000
# 4 0.000000 0.000000 0.000000 0.044177 0.000000 0.000000
# 5 0.000000 0.000000 0.000000 0.000000 0.044177 0.000000
# 6 0.000000 0.000000 0.000000 0.000000 0.000000 0.023536
#
#
# Mechanical properties :
#
#
# Convention : Reuss Voigt Hill
#
# Bulk Modulus (GPa) = 62.05022 62.09493 62.07257
# Shear Modulus (GPa) = 30.62287 33.23598 31.92942
#
# Velocity S-wave (km/s) = 4.04006 4.20890 4.12535
# Velocity P-wave (km/s) = 7.40512 7.53104 7.46834
#
# Compressibility (1/GPa) = 0.01611598
#
# Stress axis : x y z
#
# Youngs Moduli (GPa) = 101.15129 101.15129 88.55273
#
# Poissons Ratio (x) = 0.19037 0.24762
# Poissons Ratio (y) = 0.19037 0.24762
# Poissons Ratio (z) = 0.28284 0.28284
#
# Static dielectric constant tensor:
#      x y z
#    x 3.427450 0.000000 0.000000 
#    y 0.000000 3.427450 0.000000 
#    z 0.000000 0.000000 3.521780 
# 
# 
# High freq. dielectric constant tensor:
#      x y z
#    x 1.712600 0.000000 0.000000 
#    y 0.000000 1.712600 0.000000 
#    z 0.000000 0.000000 1.741160 
# 
# From -- ./inp_files/892.got.cif
#   From: 2010.03.12/outbox.cif.g09.slc.cpg/sg175_1_cif.got.tgz:892.got - 2010.04.02 06:55:29.
