data_PCOD8325803
_publ_section_title
;
Structure prediction by ZEFSAII (Michael W. Deem and Ramdas Pophale) SiO2 
 PCOD8325803
Probable space group: P 61 2 2
;
_chemical_formula_sum "Si O2"
_cell_formula_units_Z 36
_cell_length_a 20.789597
_cell_length_b 20.789597
_cell_length_c 5.002993
_cell_angle_alpha 90.000000
_cell_angle_beta 90.000000
_cell_angle_gamma 120.000000
_cell_volume 1872.632983
_symmetry_space_group_name_H-M "P 61 2 2"
_symmetry_group_IT_number 178
_symmetry_cell_setting 'hexagonal'
loop_
_space_group_symop_operation_xyz
x,y,z
x-y,x,1/6+z
-y,x-y,1/3+z
-x,-y,1/2+z
-x+y,-x,2/3+z
y,-x+y,5/6+z
x-y,-y,-z
-x,-x+y,2/3-z
y,x,1/3-z
-y,-x,5/6-z
-x+y,y,1/2-z
x,x-y,1/6-z
loop_
_atom_site_type_symbol
_atom_site_label
_atom_site_fract_x
_atom_site_fract_y
_atom_site_fract_z
Si Si1 0.696823 0.780082 0.687057
Si Si2 0.204977 0.558765 0.822520
Si Si3 0.611394 0.695495 0.194188
O O1 0.766438 0.766438 0.666667
O O2 0.727277 0.863639 0.583334
O O3 0.631252 0.725791 0.492565
O O4 0.660768 0.761600 0.983214
O O5 0.282642 0.565284 0.750000
O O6 0.177247 0.588624 0.583334
O O7 0.141502 0.474479 0.844886
O O8 0.214533 0.607267 0.083334
O O9 0.627365 0.627365 0.166667
#
# Coordination Sequence:
#
# PCOD8325803 Si02
#       3
#    12  12  12
#     4  10  19  34  56  83 112 142 179 221 269 321
#     4  12  24  38  56  77 107 144 183 223 267 326
#     4  10  22  38  58  82 107 138 179 230 278 317
#
# _framework density 19.224269
#
# number of rings (size 3 to 8) (size 9 to 14) (size 15 to 20)
#    0.000    1.333    0.000    7.000    0.000    1.333 
#    0.000    0.000    0.000    0.000    0.000    7.000 
#    0.000    0.000    0.000    0.000    0.000    0.000 
#
# Total GULP energy -446365.167547 kJ/mol
# GULP energy per Si atom -12399.032432 kJ/mol
# Density = 1.918051 g / cm^3
# Si number density = 19.224269 Si / 1000 Ang^3
#
#
#
# Elastic Constant Matrix: (Units=GPa)
#
#
# Indices 1 2 3 4 5 6 
#
# 1 158.3530 38.9765 30.1310 0.0000 0.0000 0.0000
# 2 38.9765 158.3530 30.1310 0.0000 0.0000 0.0000
# 3 30.1310 30.1310 96.2239 0.0000 0.0000 0.0000
# 4 0.0000 0.0000 0.0000 26.7192 0.0000 0.0000
# 5 0.0000 0.0000 0.0000 0.0000 26.7192 0.0000
# 6 0.0000 0.0000 0.0000 0.0000 0.0000 59.6883
#
#
#
# Elastic Compliance Matrix: (Units=1/GPa)
#
#
# Indices 1 2 3 4 5 6 
#
# 1 0.006990 -0.001387 -0.001755 0.000000 0.000000 0.000000
# 2 -0.001387 0.006990 -0.001755 0.000000 0.000000 0.000000
# 3 -0.001755 -0.001755 0.011491 0.000000 0.000000 0.000000
# 4 0.000000 0.000000 0.000000 0.037426 0.000000 0.000000
# 5 0.000000 0.000000 0.000000 0.000000 0.037426 0.000000
# 6 0.000000 0.000000 0.000000 0.000000 0.000000 0.016754
#
#
# Mechanical properties :
#
#
# Convention : Reuss Voigt Hill
#
# Bulk Modulus (GPa) = 63.77659 67.93409 65.85534
# Shear Modulus (GPa) = 37.85109 43.53808 40.69459
#
# Velocity S-wave (km/s) = 4.44207 4.76410 4.60590
# Velocity P-wave (km/s) = 7.71728 8.10411 7.91306
#
# Compressibility (1/GPa) = 0.01567974
#
# Stress axis : x y z
#
# Youngs Moduli (GPa) = 143.05772 143.05772 87.02231
#
# Poissons Ratio (x) = 0.19837 0.15269
# Poissons Ratio (y) = 0.19837 0.15269
# Poissons Ratio (z) = 0.25102 0.25102
#
# Static dielectric constant tensor:
#      x y z
#    x 3.588450 0.000000 0.000000 
#    y 0.000000 3.588450 0.000000 
#    z 0.000000 0.000000 3.928950 
# 
# 
# High freq. dielectric constant tensor:
#      x y z
#    x 1.742480 0.000000 0.000000 
#    y 0.000000 1.742480 0.000000 
#    z 0.000000 0.000000 1.775140 
# 
# From -- ./inp_files/596.got.cif
#   From: 2010.03.12/outbox.cif.g09.slc.cpg/sg178_1_cif.got.tgz:596.got - 2010.04.02 07:02:38.
