data_PCOD8325877
_publ_section_title
;
Structure prediction by ZEFSAII (Michael W. Deem and Ramdas Pophale) SiO2 
 PCOD8325877
Probable space group: P 61 2 2
;
_chemical_formula_sum "Si O2"
_cell_formula_units_Z 72
_cell_length_a 15.757575
_cell_length_b 15.757575
_cell_length_c 16.800531
_cell_angle_alpha 90.000000
_cell_angle_beta 90.000000
_cell_angle_gamma 120.000000
_cell_volume 3612.704215
_symmetry_space_group_name_H-M "P 61 2 2"
_symmetry_group_IT_number 178
_symmetry_cell_setting 'hexagonal'
loop_
_space_group_symop_operation_xyz
x,y,z
x-y,x,1/6+z
-y,x-y,1/3+z
-x,-y,1/2+z
-x+y,-x,2/3+z
y,-x+y,5/6+z
x-y,-y,-z
-x,-x+y,2/3-z
y,x,1/3-z
-y,-x,5/6-z
-x+y,y,1/2-z
x,x-y,1/6-z
loop_
_atom_site_type_symbol
_atom_site_label
_atom_site_fract_x
_atom_site_fract_y
_atom_site_fract_z
Si Si1 0.678930 0.739938 0.588634
Si Si2 0.868123 0.570247 0.472541
Si Si3 0.291208 0.015101 0.753643
Si Si4 0.472683 0.985324 0.912684
Si Si5 0.498215 0.845370 0.303301
Si Si6 0.887227 0.708832 0.336540
O O1 0.738144 0.738144 0.666667
O O2 0.664670 0.832335 0.583334
O O3 0.740468 0.743345 0.511419
O O4 0.570934 0.645013 0.585625
O O5 0.916675 0.656164 0.537999
O O6 0.754524 0.506310 0.499144
O O7 0.876868 0.615365 0.384604
O O8 0.920800 0.505080 0.473373
O O9 0.408897 0.082867 0.749097
O O10 0.242807 0.073911 0.714613
O O11 0.509273 0.093031 0.876684
O O12 0.519718 0.000000 0.000000
O O13 0.401397 0.802794 0.250000
O O14 0.836706 0.673412 0.250000
O O15 0.000000 0.792582 0.333334
#
# Coordination Sequence:
#
# PCOD8325877 Si02
#       6
#    12  12  12  12  12  12
#     4  10  24  41  65  90 120 165 219 264 322 389
#     4  11  22  36  68  94 129 175 214 262 333 382
#     4  10  22  38  66  91 126 164 211 257 322 386
#     4  10  22  39  61  91 129 168 213 271 319 384
#     4  10  21  39  60  92 130 169 214 262 322 386
#     4  11  22  37  61  97 126 163 207 256 319 396
#
# _framework density 19.929669000000001
#
# number of rings (size 3 to 8) (size 9 to 14) (size 15 to 20)
#    0.000    1.667    3.333    0.500    9.333    0.667 
#    0.000    0.000    7.333    4.000    0.000    0.000 
#    0.000    0.000    0.000    0.000    0.000    0.000 
#
# Total GULP energy -892705.252304 kJ/mol
# GULP energy per Si atom -12398.684060 kJ/mol
# Density = 1.988431 g / cm^3
# Si number density = 19.929669 Si / 1000 Ang^3
#
#
#
# Elastic Constant Matrix: (Units=GPa)
#
#
# Indices 1 2 3 4 5 6 
#
# 1 109.2353 46.5652 41.7345 0.0000 0.0000 0.0000
# 2 46.5652 109.2353 41.7345 0.0000 0.0000 0.0000
# 3 41.7345 41.7345 131.1401 0.0000 0.0000 0.0000
# 4 0.0000 0.0000 0.0000 25.1595 0.0000 0.0000
# 5 0.0000 0.0000 0.0000 0.0000 25.1595 0.0000
# 6 0.0000 0.0000 0.0000 0.0000 0.0000 31.3351
#
#
#
# Elastic Compliance Matrix: (Units=1/GPa)
#
#
# Indices 1 2 3 4 5 6 
#
# 1 0.011847 -0.004109 -0.002462 0.000000 0.000000 0.000000
# 2 -0.004109 0.011847 -0.002462 0.000000 0.000000 0.000000
# 3 -0.002462 -0.002462 0.009193 0.000000 0.000000 0.000000
# 4 0.000000 0.000000 0.000000 0.039746 0.000000 0.000000
# 5 0.000000 0.000000 0.000000 0.000000 0.039746 0.000000
# 6 0.000000 0.000000 0.000000 0.000000 0.000000 0.031913
#
#
# Mechanical properties :
#
#
# Convention : Reuss Voigt Hill
#
# Bulk Modulus (GPa) = 67.48415 67.74211 67.61313
# Shear Modulus (GPa) = 29.88623 30.96926 30.42775
#
# Velocity S-wave (km/s) = 3.87665 3.94627 3.91161
# Velocity P-wave (km/s) = 7.34660 7.40462 7.37567
#
# Compressibility (1/GPa) = 0.01481829
#
# Stress axis : x y z
#
# Youngs Moduli (GPa) = 84.40854 84.40854 108.78117
#
# Poissons Ratio (x) = 0.34687 0.26787
# Poissons Ratio (y) = 0.34687 0.26787
# Poissons Ratio (z) = 0.20785 0.20785
#
# Static dielectric constant tensor:
#      x y z
#    x 3.587220 0.000000 0.000000 
#    y 0.000000 3.587220 0.000000 
#    z 0.000000 0.000000 3.814580 
# 
# 
# High freq. dielectric constant tensor:
#      x y z
#    x 1.764420 0.000000 0.000000 
#    y 0.000000 1.764420 0.000000 
#    z 0.000000 0.000000 1.787910 
# 
# From -- ./inp_files/6803.got.cif
#   From: 2010.03.12/outbox.cif.g09.slc.cpg/sg178_4_cif.got.tgz:6803.got - 2010.04.02 07:02:38.
