data_PCOD8325675
_publ_section_title
;
Structure prediction by ZEFSAII (Michael W. Deem and Ramdas Pophale) SiO2 
 PCOD8325675
Probable space group: P 63/M
;
_chemical_formula_sum "Si O2"
_cell_formula_units_Z 34
_cell_length_a 9.939762
_cell_length_b 9.939762
_cell_length_c 18.757375
_cell_angle_alpha 90.000000
_cell_angle_beta 90.000000
_cell_angle_gamma 120.000000
_cell_volume 1604.924711
_symmetry_space_group_name_H-M "P 63/M"
_symmetry_group_IT_number 176
_symmetry_cell_setting 'hexagonal'
loop_
_space_group_symop_operation_xyz
x,y,z
x-y,x,1/2+z
-y,x-y,z
-x,-y,1/2+z
-x+y,-x,z
y,-x+y,1/2+z
-x,-y,-z
-x+y,-x,1/2-z
y,-x+y,-z
x,y,1/2-z
x-y,x,-z
-y,x-y,1/2-z
loop_
_atom_site_type_symbol
_atom_site_label
_atom_site_fract_x
_atom_site_fract_y
_atom_site_fract_z
Si Si1 0.474509 0.279569 0.483290
Si Si2 0.682551 0.921038 0.111185
Si Si3 0.000000 0.000000 0.166287
Si Si4 0.840816 0.339132 0.750000
O O1 0.543620 0.161107 0.471362
O O2 0.414587 0.235569 0.564642
O O3 0.334326 0.252429 0.432702
O O4 0.588013 0.931715 0.178537
O O5 0.825832 0.906366 0.138431
O O6 0.000000 0.000000 0.250000
O O7 0.818664 0.489699 0.750000
#
# Coordination Sequence:
#
# PCOD8325675 Si02
#       4
#    12  12   4   6
#     4  10  24  41  69 102 133 176 226 279 339 401
#     4  12  22  46  67  98 140 175 230 284 336 412
#     4  12  27  43  65 100 126 184 224 286 333 394
#     4  10  24  42  70  96 130 184 222 272 348 408
#
# _framework density 21.184792999999999
#
# number of rings (size 3 to 8) (size 9 to 14) (size 15 to 20)
#    1.059    0.000    1.765    5.294    0.000    4.235 
#    0.000    1.765    0.000    0.000    0.000    0.000 
#    0.000    0.000    0.000    0.000    0.000    0.000 
#
# Total GULP energy -421306.952500 kJ/mol
# GULP energy per Si atom -12391.380956 kJ/mol
# Density = 2.113658 g / cm^3
# Si number density = 21.184793 Si / 1000 Ang^3
#
#
#
# Elastic Constant Matrix: (Units=GPa)
#
#
# Indices 1 2 3 4 5 6 
#
# 1 98.4898 -9.7090 38.7826 0.0000 0.0000 0.0000
# 2 -9.7090 98.4898 38.7826 0.0000 0.0000 0.0000
# 3 38.7826 38.7826 154.5045 0.0000 0.0000 0.0000
# 4 0.0000 0.0000 0.0000 31.9469 0.0000 0.0000
# 5 0.0000 0.0000 0.0000 0.0000 31.9469 0.0000
# 6 0.0000 0.0000 0.0000 0.0000 0.0000 54.0994
#
#
#
# Elastic Compliance Matrix: (Units=1/GPa)
#
#
# Indices 1 2 3 4 5 6 
#
# 1 0.011835 0.002593 -0.003622 0.000000 0.000000 0.000000
# 2 0.002593 0.011835 -0.003622 0.000000 0.000000 0.000000
# 3 -0.003622 -0.003622 0.008290 0.000000 0.000000 0.000000
# 4 0.000000 0.000000 0.000000 0.031302 0.000000 0.000000
# 5 0.000000 0.000000 0.000000 0.000000 0.031302 0.000000
# 6 0.000000 0.000000 0.000000 0.000000 0.000000 0.018484
#
#
# Mechanical properties :
#
#
# Convention : Reuss Voigt Hill
#
# Bulk Modulus (GPa) = 44.13120 54.13293 49.13207
# Shear Modulus (GPa) = 38.49034 42.50716 40.49875
#
# Velocity S-wave (km/s) = 4.26712 4.48425 4.37703
# Velocity P-wave (km/s) = 6.71971 7.24013 6.98477
#
# Compressibility (1/GPa) = 0.02265970
#
# Stress axis : x y z
#
# Youngs Moduli (GPa) = 84.49521 84.49521 120.62132
#
# Poissons Ratio (x) = -0.21907 0.43684
# Poissons Ratio (y) = -0.21907 0.43684
# Poissons Ratio (z) = 0.30600 0.30600
#
# Static dielectric constant tensor:
#      x y z
#    x 3.643100 0.000000 0.000000 
#    y 0.000000 3.643100 0.000000 
#    z 0.000000 0.000000 3.739700 
# 
# 
# High freq. dielectric constant tensor:
#      x y z
#    x 1.827400 0.000000 0.000000 
#    y 0.000000 1.827400 0.000000 
#    z 0.000000 0.000000 1.830540 
# 
# From -- ./inp_files/2337.got.cif
#   From: 2010.06.25/outbox.cif.g09.slc.cpg/sg176_2_cif.got.tgz:2337.got - 2010.06.28 12:15:01.
