data_PCOD8325630
_publ_section_title
;
Structure prediction by ZEFSAII (Michael W. Deem and Ramdas Pophale) SiO2 
 PCOD8325630
Probable space group: P 63/M
;
_chemical_formula_sum "Si O2"
_cell_formula_units_Z 68
_cell_length_a 12.637205
_cell_length_b 12.637205
_cell_length_c 24.549294
_cell_angle_alpha 90.000000
_cell_angle_beta 90.000000
_cell_angle_gamma 120.000000
_cell_volume 3395.249547
_symmetry_space_group_name_H-M "P 63/M"
_symmetry_group_IT_number 176
_symmetry_cell_setting 'hexagonal'
loop_
_space_group_symop_operation_xyz
x,y,z
x-y,x,1/2+z
-y,x-y,z
-x,-y,1/2+z
-x+y,-x,z
y,-x+y,1/2+z
-x,-y,-z
-x+y,-x,1/2-z
y,-x+y,-z
x,y,1/2-z
x-y,x,-z
-y,x-y,1/2-z
loop_
_atom_site_type_symbol
_atom_site_label
_atom_site_fract_x
_atom_site_fract_y
_atom_site_fract_z
Si Si1 0.570589 0.910288 0.046101
Si Si2 0.333334 0.666668 0.315639
Si Si3 0.410794 0.108134 0.663477
Si Si4 0.538929 0.613265 0.750000
Si Si5 0.092007 0.411129 0.048050
Si Si6 0.962195 0.743581 0.841079
Si Si7 0.000000 0.000000 0.183465
Si Si8 0.599689 0.882696 0.750000
O O1 0.639095 0.948525 0.104040
O O2 0.545220 0.775709 0.030335
O O3 0.448076 0.915619 0.056607
O O4 0.663219 0.002662 0.001769
O O5 0.333334 0.666668 0.250000
O O6 0.459717 0.768629 0.340663
O O7 0.314683 0.144083 0.688059
O O8 0.426164 0.010845 0.697632
O O9 0.596257 0.756147 0.750000
O O10 0.393211 0.539357 0.750000
O O11 0.048949 0.319327 0.100003
O O12 0.046271 0.711077 0.804539
O O13 0.015934 0.889579 0.841086
O O14 0.000000 0.000000 0.250000
#
# Coordination Sequence:
#
# PCOD8325630 Si02
#       8
#    12   4  12   6  12  12   4   6
#     4  10  21  40  62  90 123 164 212 264 332 380
#     4  12  21  33  63 102 132 159 216 268 335 382
#     4  11  22  38  61  91 125 162 203 267 320 384
#     4  12  24  38  58  84 121 162 204 258 316 380
#     4  10  22  39  64  91 123 164 212 269 319 388
#     4  11  24  41  64  91 126 167 213 254 316 385
#     4  12  24  42  66  94 131 178 213 256 317 388
#     4  12  24  40  58  84 121 160 204 250 314 382
#
# _framework density 20.027984
#
# number of rings (size 3 to 8) (size 9 to 14) (size 15 to 20)
#    0.000    1.059    1.765    6.353    0.000    4.235 
#    0.000    0.000    0.000    8.824    0.000    0.000 
#    0.000    0.000    0.000    0.000    0.000    0.000 
#
# Total GULP energy -843022.340917 kJ/mol
# GULP energy per Si atom -12397.387366 kJ/mol
# Density = 1.998240 g / cm^3
# Si number density = 20.027984 Si / 1000 Ang^3
#
#
#
# Elastic Constant Matrix: (Units=GPa)
#
#
# Indices 1 2 3 4 5 6 
#
# 1 100.5282 19.4982 43.4091 0.0000 0.0000 0.0000
# 2 19.4982 100.5276 43.4086 0.0000 0.0000 0.0000
# 3 43.4091 43.4086 117.5027 0.0000 0.0000 0.0000
# 4 0.0000 0.0000 0.0000 31.3726 0.0000 0.0000
# 5 0.0000 0.0000 0.0000 0.0000 31.3727 0.0000
# 6 0.0000 0.0000 0.0000 0.0000 0.0000 40.5148
#
#
#
# Elastic Compliance Matrix: (Units=1/GPa)
#
#
# Indices 1 2 3 4 5 6 
#
# 1 0.011855 -0.000486 -0.004200 0.000000 0.000000 0.000000
# 2 -0.000486 0.011855 -0.004200 0.000000 0.000000 0.000000
# 3 -0.004200 -0.004200 0.011614 0.000000 0.000000 0.000000
# 4 0.000000 0.000000 0.000000 0.031875 0.000000 0.000000
# 5 0.000000 0.000000 0.000000 0.000000 0.031875 0.000000
# 6 0.000000 0.000000 0.000000 0.000000 0.000000 0.024682
#
#
# Mechanical properties :
#
#
# Convention : Reuss Voigt Hill
#
# Bulk Modulus (GPa) = 56.97330 59.02115 57.99723
# Shear Modulus (GPa) = 33.92587 34.80152 34.36369
#
# Velocity S-wave (km/s) = 4.12019 4.17303 4.14670
# Velocity P-wave (km/s) = 7.15145 7.26307 7.20748
#
# Compressibility (1/GPa) = 0.01755208
#
# Stress axis : x y z
#
# Youngs Moduli (GPa) = 84.34971 84.34955 86.10407
#
# Poissons Ratio (x) = 0.04097 0.36166
# Poissons Ratio (y) = 0.04097 0.36166
# Poissons Ratio (z) = 0.35430 0.35429
#
# Static dielectric constant tensor:
#      x y z
#    x 3.687970 0.000000 0.000000 
#    y 0.000000 3.687970 0.000000 
#    z 0.000000 0.000000 3.711320 
# 
# 
# High freq. dielectric constant tensor:
#      x y z
#    x 1.787050 0.000000 0.000000 
#    y 0.000000 1.787050 0.000000 
#    z 0.000000 0.000000 1.783190 
# 
# From -- ./inp_files/4508.got.cif
#   From: 2010.06.25/outbox.cif.g09.slc.cpg/sg176_3_cif.got.tgz:4508.got - 2010.06.28 12:15:01.
