data_PCOD8325430
_publ_section_title
;
Structure prediction by ZEFSAII (Michael W. Deem and Ramdas Pophale) SiO2 
 PCOD8325430
Probable space group: P 63/M
;
_chemical_formula_sum "Si O2"
_cell_formula_units_Z 84
_cell_length_a 20.723446
_cell_length_b 20.723446
_cell_length_c 12.781547
_cell_angle_alpha 90.000000
_cell_angle_beta 90.000000
_cell_angle_gamma 120.000000
_cell_volume 4753.768194
_symmetry_space_group_name_H-M "P 63/M"
_symmetry_group_IT_number 176
_symmetry_cell_setting 'hexagonal'
loop_
_space_group_symop_operation_xyz
x,y,z
x-y,x,1/2+z
-y,x-y,z
-x,-y,1/2+z
-x+y,-x,z
y,-x+y,1/2+z
-x,-y,-z
-x+y,-x,1/2-z
y,-x+y,-z
x,y,1/2-z
x-y,x,-z
-y,x-y,1/2-z
loop_
_atom_site_type_symbol
_atom_site_label
_atom_site_fract_x
_atom_site_fract_y
_atom_site_fract_z
Si Si1 0.621886 0.946786 0.369089
Si Si2 0.587535 0.666478 0.504056
Si Si3 0.144370 0.258846 0.630055
Si Si4 0.541966 0.361778 0.870588
Si Si5 0.213022 0.432569 0.868920
Si Si6 0.796148 0.306364 0.558940
Si Si7 0.250204 0.237082 0.491497
O O1 0.632586 0.973080 0.250000
O O2 0.555357 0.863345 0.377768
O O3 0.604942 0.003660 0.436837
O O4 0.700226 0.955439 0.409491
O O5 0.527279 0.629813 0.411883
O O6 0.559288 0.703481 0.590417
O O7 0.667179 0.730900 0.456834
O O8 0.126972 0.233223 0.750000
O O9 0.194939 0.347952 0.621849
O O10 0.189440 0.221738 0.579908
O O11 0.066178 0.227159 0.569864
O O12 0.556266 0.386391 0.750000
O O13 0.523951 0.277795 0.882575
O O14 0.614363 0.414994 0.938563
O O15 0.230972 0.461010 0.750000
O O16 0.285421 0.485609 0.938473
#
# Coordination Sequence:
#
# PCOD8325430 Si02
#       7
#    12  12  12  12  12  12  12
#     4  10  18  33  54  80 108 139 183 235 291 339
#     4   8  19  32  53  80 105 139 183 231 285 341
#     4  10  18  34  58  84 121 155 180 230 291 334
#     4  11  22  37  54  77 113 151 192 238 284 332
#     4   9  16  33  57  79 107 142 179 230 287 334
#     4  11  22  37  54  80 107 152 198 234 279 346
#     4   9  19  34  55  88 114 146 193 227 277 352
#
# _framework density 17.670193000000001
#
# number of rings (size 3 to 8) (size 9 to 14) (size 15 to 20)
#    0.857    1.429    1.429    2.429    0.000    1.143 
#    0.000    5.714    0.000    0.286    0.000    0.000 
#    0.000    0.000    0.000    0.000    0.000    0.000 
#
# Total GULP energy -1041180.105152 kJ/mol
# GULP energy per Si atom -12395.001252 kJ/mol
# Density = 1.762997 g / cm^3
# Si number density = 17.670193 Si / 1000 Ang^3
#
#
#
# Elastic Constant Matrix: (Units=GPa)
#
#
# Indices 1 2 3 4 5 6 
#
# 1 78.8542 33.7967 41.4259 0.0000 0.0000 0.0000
# 2 33.7967 78.8542 41.4259 0.0000 0.0000 0.0000
# 3 41.4259 41.4259 106.0854 0.0000 0.0000 0.0000
# 4 0.0000 0.0000 0.0000 25.1395 0.0000 0.0000
# 5 0.0000 0.0000 0.0000 0.0000 25.1395 0.0000
# 6 0.0000 0.0000 0.0000 0.0000 0.0000 22.5287
#
#
#
# Elastic Compliance Matrix: (Units=1/GPa)
#
#
# Indices 1 2 3 4 5 6 
#
# 1 0.017324 -0.004870 -0.004863 0.000000 0.000000 0.000000
# 2 -0.004870 0.017324 -0.004863 0.000000 0.000000 0.000000
# 3 -0.004863 -0.004863 0.013224 0.000000 0.000000 0.000000
# 4 0.000000 0.000000 0.000000 0.039778 0.000000 0.000000
# 5 0.000000 0.000000 0.000000 0.000000 0.039778 0.000000
# 6 0.000000 0.000000 0.000000 0.000000 0.000000 0.044388
#
#
# Mechanical properties :
#
#
# Convention : Reuss Voigt Hill
#
# Bulk Modulus (GPa) = 53.53510 55.23230 54.38370
# Shear Modulus (GPa) = 24.12721 24.37123 24.24922
#
# Velocity S-wave (km/s) = 3.69917 3.71782 3.70851
# Velocity P-wave (km/s) = 6.97192 7.05371 7.01294
#
# Compressibility (1/GPa) = 0.01867933
#
# Stress axis : x y z
#
# Youngs Moduli (GPa) = 57.72413 57.72413 75.61777
#
# Poissons Ratio (x) = 0.28112 0.36774
# Poissons Ratio (y) = 0.28112 0.36774
# Poissons Ratio (z) = 0.28072 0.28072
#
# Static dielectric constant tensor:
#      x y z
#    x 3.128090 0.000000 0.000000 
#    y 0.000000 3.128090 0.000000 
#    z 0.000000 0.000000 3.207970 
# 
# 
# High freq. dielectric constant tensor:
#      x y z
#    x 1.667420 0.000000 0.000000 
#    y 0.000000 1.667420 0.000000 
#    z 0.000000 0.000000 1.678820 
# 
# From -- ./inp_files/2038.got.cif
#   From: 2010.06.25/outbox.cif.g09.slc.cpg/sg176_2_cif.got.tgz:2038.got - 2010.06.28 12:15:01.
