data_PCOD8325305
_publ_section_title
;
Structure prediction by ZEFSAII (Michael W. Deem and Ramdas Pophale) SiO2 
 PCOD8325305
Probable space group: P 6/M
;
_chemical_formula_sum "Si O2"
_cell_formula_units_Z 66
_cell_length_a 15.873944
_cell_length_b 15.873944
_cell_length_c 16.382422
_cell_angle_alpha 90.000000
_cell_angle_beta 90.000000
_cell_angle_gamma 120.000000
_cell_volume 3575.019609
_symmetry_space_group_name_H-M "P 6/M"
_symmetry_group_IT_number 175
_symmetry_cell_setting 'hexagonal'
loop_
_space_group_symop_operation_xyz
x,y,z
x-y,x,z
-y,x-y,z
-x,-y,z
-x+y,-x,z
y,-x+y,z
-x,-y,-z
-x+y,-x,-z
y,-x+y,-z
x,y,-z
x-y,x,-z
-y,x-y,-z
loop_
_atom_site_type_symbol
_atom_site_label
_atom_site_fract_x
_atom_site_fract_y
_atom_site_fract_z
Si Si1 0.538655 0.426097 0.593817
Si Si2 0.093786 0.349053 0.343503
Si Si3 0.783737 0.826761 0.500000
Si Si4 0.642517 0.906397 0.236627
Si Si5 0.562997 0.223937 0.266953
Si Si6 0.840973 0.782096 0.906594
O O1 0.500000 0.500000 0.613672
O O2 0.564404 0.427990 0.500000
O O3 0.457183 0.318755 0.621499
O O4 0.640721 0.458700 0.640116
O O5 0.051125 0.275849 0.418921
O O6 0.178182 0.339837 0.298433
O O7 0.010362 0.327619 0.277921
O O8 0.878522 0.817413 0.500000
O O9 0.526849 0.857282 0.214679
O O10 0.690973 0.916312 0.149525
O O11 0.671723 0.240427 0.250245
O O12 0.821808 0.869154 0.886083
O O13 0.815762 0.747561 0.000000
#
# Coordination Sequence:
#
# PCOD8325305 Si02
#       6
#    12  12   6  12  12  12
#     4  11  22  35  55  83 113 150 202 256 303 346
#     4  12  22  36  56  81 108 156 197 240 291 345
#     4  12  25  38  51  72 112 154 202 240 279 340
#     4  12  22  37  61  84 116 153 196 241 296 365
#     4  10  22  38  55  83 114 152 198 245 302 346
#     4  10  21  38  63  96 127 155 190 246 310 369
#
# _framework density 18.461435999999999
#
# number of rings (size 3 to 8) (size 9 to 14) (size 15 to 20)
#    0.364    0.545    8.182    0.273    0.000    1.455 
#    1.636    0.000    0.000    1.091    0.000    3.818 
#    0.000    0.000    0.000    0.000    0.000    0.000 
#
# Total GULP energy -817891.708111 kJ/mol
# GULP energy per Si atom -12392.298608 kJ/mol
# Density = 1.841942 g / cm^3
# Si number density = 18.461436 Si / 1000 Ang^3
#
#
#
# Elastic Constant Matrix: (Units=GPa)
#
#
# Indices 1 2 3 4 5 6 
#
# 1 81.5997 29.8172 32.6648 0.0000 0.0000 0.0000
# 2 29.8172 81.5997 32.6648 0.0000 0.0000 0.0000
# 3 32.6648 32.6648 76.3917 0.0000 0.0000 0.0000
# 4 0.0000 0.0000 0.0000 25.4497 0.0000 0.0000
# 5 0.0000 0.0000 0.0000 0.0000 25.4497 0.0000
# 6 0.0000 0.0000 0.0000 0.0000 0.0000 25.8913
#
#
#
# Elastic Compliance Matrix: (Units=1/GPa)
#
#
# Indices 1 2 3 4 5 6 
#
# 1 0.015645 -0.003666 -0.005122 0.000000 0.000000 0.000000
# 2 -0.003666 0.015645 -0.005122 0.000000 0.000000 0.000000
# 3 -0.005122 -0.005122 0.017471 0.000000 0.000000 0.000000
# 4 0.000000 0.000000 0.000000 0.039293 0.000000 0.000000
# 5 0.000000 0.000000 0.000000 0.000000 0.039293 0.000000
# 6 0.000000 0.000000 0.000000 0.000000 0.000000 0.038623
#
#
# Mechanical properties :
#
#
# Convention : Reuss Voigt Hill
#
# Bulk Modulus (GPa) = 47.75569 47.76496 47.76033
# Shear Modulus (GPa) = 24.90398 24.98777 24.94587
#
# Velocity S-wave (km/s) = 3.67682 3.68300 3.67991
# Velocity P-wave (km/s) = 6.62943 6.63438 6.63190
#
# Compressibility (1/GPa) = 0.02093991
#
# Stress axis : x y z
#
# Youngs Moduli (GPa) = 63.91789 63.91789 57.23860
#
# Poissons Ratio (x) = 0.23435 0.29318
# Poissons Ratio (y) = 0.23435 0.29318
# Poissons Ratio (z) = 0.32739 0.32739
#
# Static dielectric constant tensor:
#      x y z
#    x 3.539610 0.000000 0.000000 
#    y 0.000000 3.539610 0.000000 
#    z 0.000000 0.000000 3.182680 
# 
# 
# High freq. dielectric constant tensor:
#      x y z
#    x 1.726800 0.000000 0.000000 
#    y 0.000000 1.726800 0.000000 
#    z 0.000000 0.000000 1.684120 
# 
# From -- ./inp_files/2487.got.cif
#   From: 2010.03.12/outbox.cif.g09.slc.cpg/sg175_2_cif.got.tgz:2487.got - 2010.04.02 06:55:29.
