data_PCOD8325276
_publ_section_title
;
Structure prediction by ZEFSAII (Michael W. Deem and Ramdas Pophale) SiO2 
 PCOD8325276
Probable space group: P 6/M
;
_chemical_formula_sum "Si O2"
_cell_formula_units_Z 72
_cell_length_a 22.358478
_cell_length_b 22.358478
_cell_length_c 8.846909
_cell_angle_alpha 90.000000
_cell_angle_beta 90.000000
_cell_angle_gamma 120.000000
_cell_volume 3830.069592
_symmetry_space_group_name_H-M "P 6/M"
_symmetry_group_IT_number 175
_symmetry_cell_setting 'hexagonal'
loop_
_space_group_symop_operation_xyz
x,y,z
x-y,x,z
-y,x-y,z
-x,-y,z
-x+y,-x,z
y,-x+y,z
-x,-y,-z
-x+y,-x,-z
y,-x+y,-z
x,y,-z
x-y,x,-z
-y,x-y,-z
loop_
_atom_site_type_symbol
_atom_site_label
_atom_site_fract_x
_atom_site_fract_y
_atom_site_fract_z
Si Si1 0.620672 0.846711 0.325439
Si Si2 0.144925 0.130699 0.822658
Si Si3 0.286378 0.890034 0.177539
Si Si4 0.679473 0.469491 0.675282
Si Si5 0.810537 0.461854 0.680109
Si Si6 0.735520 0.999120 0.323327
O O1 0.621151 0.825617 0.500000
O O2 0.624459 0.791405 0.219332
O O3 0.549385 0.847400 0.293591
O O4 0.686448 0.919020 0.285696
O O5 0.077022 0.133418 0.774646
O O6 0.211658 0.187974 0.735392
O O7 0.159001 0.143776 0.000000
O O8 0.342726 0.873583 0.249600
O O9 0.299468 0.962606 0.240468
O O10 0.295980 0.894652 0.000000
O O11 0.671616 0.451602 0.500000
O O12 0.738651 0.454845 0.738362
O O13 0.604314 0.417898 0.746056
O O14 0.817442 0.469105 0.500000
O O15 0.739443 0.014841 0.500000
#
# Coordination Sequence:
#
# PCOD8325276 Si02
#       6
#    12  12  12  12  12  12
#     4   9  19  36  56  78 103 132 173 221 263 303
#     4  10  21  37  57  81 109 139 170 206 252 308
#     4  11  22  35  52  75 105 139 173 210 256 310
#     4   8  14  27  51  79 102 129 167 213 260 304
#     4   9  16  30  53  79 106 135 172 216 261 308
#     4  11  22  36  55  77 102 135 175 218 260 303
#
# _framework density 18.798614000000001
#
# number of rings (size 3 to 8) (size 9 to 14) (size 15 to 20)
#    0.000    2.333    0.000    4.500    0.000    6.667 
#    0.000    4.167    0.000    6.000    0.000    0.000 
#    0.000    0.000    0.000    0.000    0.000    0.000 
#
# Total GULP energy -892753.285147 kJ/mol
# GULP energy per Si atom -12399.351183 kJ/mol
# Density = 1.875583 g / cm^3
# Si number density = 18.798614 Si / 1000 Ang^3
#
#
#
# Elastic Constant Matrix: (Units=GPa)
#
#
# Indices 1 2 3 4 5 6 
#
# 1 59.1382 0.5899 13.1888 0.0000 0.0000 0.0000
# 2 0.5899 59.1382 13.1888 0.0000 0.0000 0.0000
# 3 13.1888 13.1888 56.7698 0.0000 0.0000 0.0000
# 4 0.0000 0.0000 0.0000 19.9393 0.0000 0.0000
# 5 0.0000 0.0000 0.0000 0.0000 19.9393 0.0000
# 6 0.0000 0.0000 0.0000 0.0000 0.0000 29.2741
#
#
#
# Elastic Compliance Matrix: (Units=1/GPa)
#
#
# Indices 1 2 3 4 5 6 
#
# 1 0.017868 0.000788 -0.004334 0.000000 0.000000 0.000000
# 2 0.000788 0.017868 -0.004334 0.000000 0.000000 0.000000
# 3 -0.004334 -0.004334 0.019629 0.000000 0.000000 0.000000
# 4 0.000000 0.000000 0.000000 0.050152 0.000000 0.000000
# 5 0.000000 0.000000 0.000000 0.000000 0.050152 0.000000
# 6 0.000000 0.000000 0.000000 0.000000 0.000000 0.034160
#
#
# Mechanical properties :
#
#
# Convention : Reuss Voigt Hill
#
# Bulk Modulus (GPa) = 25.24939 25.44238 25.34589
# Shear Modulus (GPa) = 22.85274 23.70245 23.27760
#
# Velocity S-wave (km/s) = 3.49042 3.55471 3.52271
# Velocity P-wave (km/s) = 5.45020 5.51467 5.48253
#
# Compressibility (1/GPa) = 0.03960492
#
# Stress axis : x y z
#
# Youngs Moduli (GPa) = 55.96499 55.96499 50.94521
#
# Poissons Ratio (x) = -0.04412 0.22081
# Poissons Ratio (y) = -0.04412 0.22081
# Poissons Ratio (z) = 0.24257 0.24257
#
# Static dielectric constant tensor:
#      x y z
#    x 3.550860 0.000000 0.000000 
#    y 0.000000 3.550860 0.000000 
#    z 0.000000 0.000000 3.186500 
# 
# 
# High freq. dielectric constant tensor:
#      x y z
#    x 1.731120 0.000000 0.000000 
#    y 0.000000 1.731120 0.000000 
#    z 0.000000 0.000000 1.706300 
# 
# From -- ./inp_files/1175.got.cif
#   From: 2010.03.12/outbox.cif.g09.slc.cpg/sg175_1_cif.got.tgz:1175.got - 2010.04.02 06:55:29.
