data_PCOD8325253
_publ_section_title
;
Structure prediction by ZEFSAII (Michael W. Deem and Ramdas Pophale) SiO2 
 PCOD8325253
Probable space group: P 6/M
;
_chemical_formula_sum "Si O2"
_cell_formula_units_Z 54
_cell_length_a 17.551668
_cell_length_b 17.551668
_cell_length_c 11.389472
_cell_angle_alpha 90.000000
_cell_angle_beta 90.000000
_cell_angle_gamma 120.000000
_cell_volume 3038.582370
_symmetry_space_group_name_H-M "P 6/M"
_symmetry_group_IT_number 175
_symmetry_cell_setting 'hexagonal'
loop_
_space_group_symop_operation_xyz
x,y,z
x-y,x,z
-y,x-y,z
-x,-y,z
-x+y,-x,z
y,-x+y,z
-x,-y,-z
-x+y,-x,-z
y,-x+y,-z
x,y,-z
x-y,x,-z
-y,x-y,-z
loop_
_atom_site_type_symbol
_atom_site_label
_atom_site_fract_x
_atom_site_fract_y
_atom_site_fract_z
Si Si1 0.011224 0.177729 0.139695
Si Si2 0.659456 0.010278 0.135121
Si Si3 0.497695 0.817221 0.865236
Si Si4 0.572429 0.341089 0.500000
Si Si5 0.490437 0.655757 0.249068
O O1 0.094727 0.172773 0.189111
O O2 0.017815 0.268242 0.182142
O O3 0.008296 0.173969 0.000000
O O4 0.631872 0.067197 0.215959
O O5 0.582124 0.911764 0.148151
O O6 0.669458 0.042400 0.000000
O O7 0.522304 0.751938 0.800956
O O8 0.412334 0.810308 0.806807
O O9 0.475585 0.789723 0.000000
O O10 0.577048 0.250544 0.500000
O O11 0.519386 0.345624 0.388782
#
# Coordination Sequence:
#
# PCOD8325253 Si02
#       5
#    12  12  12   6  12
#     4   9  16  28  47  73 107 147 183 212 254 317
#     4  10  21  34  50  80 117 143 171 226 286 329
#     4  11  21  34  55  82 110 141 180 223 271 334
#     4  10  20  42  57  77 101 138 185 241 266 304
#     4  12  21  37  57  76 104 144 185 221 272 325
#
# _framework density 17.771445
#
# number of rings (size 3 to 8) (size 9 to 14) (size 15 to 20)
#    0.222    1.333    2.222    4.667    0.000    6.222 
#    0.000    3.333    0.000    0.000    0.000    0.000 
#    0.000    0.000    0.000    4.889    0.000    1.778 
#
# Total GULP energy -669752.020752 kJ/mol
# GULP energy per Si atom -12402.815199 kJ/mol
# Density = 1.773100 g / cm^3
# Si number density = 17.771445 Si / 1000 Ang^3
#
#
#
# Elastic Constant Matrix: (Units=GPa)
#
#
# Indices 1 2 3 4 5 6 
#
# 1 61.0892 7.0752 22.4582 0.0000 0.0000 0.0000
# 2 7.0752 61.0892 22.4582 0.0000 0.0000 0.0000
# 3 22.4582 22.4582 97.5817 0.0000 0.0000 0.0000
# 4 0.0000 0.0000 0.0000 8.3381 0.0000 0.0000
# 5 0.0000 0.0000 0.0000 0.0000 8.3381 0.0000
# 6 0.0000 0.0000 0.0000 0.0000 0.0000 27.0070
#
#
#
# Elastic Compliance Matrix: (Units=1/GPa)
#
#
# Indices 1 2 3 4 5 6 
#
# 1 0.017903 -0.000610 -0.003980 0.000000 0.000000 0.000000
# 2 -0.000610 0.017903 -0.003980 0.000000 0.000000 0.000000
# 3 -0.003980 -0.003980 0.012080 0.000000 0.000000 0.000000
# 4 0.000000 0.000000 0.000000 0.119931 0.000000 0.000000
# 5 0.000000 0.000000 0.000000 0.000000 0.119931 0.000000
# 6 0.000000 0.000000 0.000000 0.000000 0.000000 0.037027
#
#
# Mechanical properties :
#
#
# Convention : Reuss Voigt Hill
#
# Bulk Modulus (GPa) = 32.52460 35.97147 34.24803
# Shear Modulus (GPa) = 14.19789 19.92122 17.05955
#
# Velocity S-wave (km/s) = 2.82958 3.35172 3.10165
# Velocity P-wave (km/s) = 5.38671 5.93833 5.66924
#
# Compressibility (1/GPa) = 0.03074596
#
# Stress axis : x y z
#
# Youngs Moduli (GPa) = 55.85549 55.85549 82.78301
#
# Poissons Ratio (x) = 0.03409 0.32947
# Poissons Ratio (y) = 0.03409 0.32947
# Poissons Ratio (z) = 0.22230 0.22230
#
# Static dielectric constant tensor:
#      x y z
#    x 3.390650 0.000000 0.000000 
#    y 0.000000 3.390650 0.000000 
#    z 0.000000 0.000000 3.002880 
# 
# 
# High freq. dielectric constant tensor:
#      x y z
#    x 1.698320 0.000000 0.000000 
#    y 0.000000 1.698320 0.000000 
#    z 0.000000 0.000000 1.643720 
# 
# From -- ./inp_files/1745.got.cif
#   From: 2010.03.12/outbox.cif.g09.slc.cpg/sg175_1_cif.got.tgz:1745.got - 2010.04.02 06:55:29.
