data_PCOD8325542
_publ_section_title
;
Structure prediction by ZEFSAII (Michael W. Deem and Ramdas Pophale) SiO2 
 PCOD8325542
Probable space group: P 63/M
;
_chemical_formula_sum "Si O2"
_cell_formula_units_Z 96
_cell_length_a 15.331608
_cell_length_b 15.331608
_cell_length_c 23.642817
_cell_angle_alpha 90.000000
_cell_angle_beta 90.000000
_cell_angle_gamma 120.000000
_cell_volume 4812.882573
_symmetry_space_group_name_H-M "P 63/M"
_symmetry_group_IT_number 176
_symmetry_cell_setting 'hexagonal'
loop_
_space_group_symop_operation_xyz
x,y,z
x-y,x,1/2+z
-y,x-y,z
-x,-y,1/2+z
-x+y,-x,z
y,-x+y,1/2+z
-x,-y,-z
-x+y,-x,1/2-z
y,-x+y,-z
x,y,1/2-z
x-y,x,-z
-y,x-y,1/2-z
loop_
_atom_site_type_symbol
_atom_site_label
_atom_site_fract_x
_atom_site_fract_y
_atom_site_fract_z
Si Si1 0.876241 0.100352 0.682845
Si Si2 0.973074 0.789479 0.005875
Si Si3 0.452829 0.442824 0.419822
Si Si4 0.894301 0.764539 0.183006
Si Si5 0.444364 0.257129 0.814701
Si Si6 0.844624 0.621725 0.411724
Si Si7 0.523417 0.110551 0.814830
Si Si8 0.600430 0.941296 0.531700
O O1 0.875135 0.103842 0.750000
O O2 0.811374 0.147500 0.655841
O O3 0.990584 0.168431 0.662868
O O4 0.827304 0.985758 0.662199
O O5 0.925640 0.730411 0.063445
O O6 0.891771 0.815100 0.978226
O O7 0.991633 0.714490 0.964772
O O8 0.459445 0.340897 0.420150
O O9 0.413811 0.442081 0.356641
O O10 0.372295 0.436117 0.466742
O O11 0.559375 0.543400 0.430193
O O12 0.883421 0.744411 0.250000
O O13 0.839210 0.653688 0.153172
O O14 0.423716 0.269687 0.750000
O O15 0.516815 0.210770 0.819922
O O16 0.503767 0.369019 0.839880
O O17 0.738322 0.569580 0.444533
O O18 0.502466 0.070315 0.750000
#
# Coordination Sequence:
#
# PCOD8325542 Si02
#       8
#    12  12  12  12  12  12  12  12
#     4   9  18  32  49  77 116 158 194 229 275 346
#     4   9  18  35  58  84 115 148 184 232 284 350
#     4  10  21  41  61  83 111 153 199 244 301 356
#     4  10  20  33  53  83 122 161 199 235 284 351
#     4   9  18  33  53  81 118 149 183 235 293 353
#     4  10  21  37  58  83 112 151 193 247 295 336
#     4  10  20  36  59  87 118 151 191 242 304 363
#     4   9  21  41  58  79 114 151 195 248 294 343
#
# _framework density 19.946466000000001
#
# number of rings (size 3 to 8) (size 9 to 14) (size 15 to 20)
#    0.000    2.500    0.000    1.375    1.750    5.500 
#   12.000    0.000    0.000    0.000    0.000    0.000 
#    0.000    0.000    0.000    0.000    0.000    0.000 
#
# Total GULP energy -1189682.978827 kJ/mol
# GULP energy per Si atom -12392.531029 kJ/mol
# Density = 1.990107 g / cm^3
# Si number density = 19.946466 Si / 1000 Ang^3
#
#
#
# Elastic Constant Matrix: (Units=GPa)
#
#
# Indices 1 2 3 4 5 6 
#
# 1 111.7375 50.4866 31.4397 0.0000 0.0000 0.0000
# 2 50.4866 111.7375 31.4397 0.0000 0.0000 0.0000
# 3 31.4397 31.4397 78.9312 0.0000 0.0000 0.0000
# 4 0.0000 0.0000 0.0000 19.0339 0.0000 0.0000
# 5 0.0000 0.0000 0.0000 0.0000 19.0339 0.0000
# 6 0.0000 0.0000 0.0000 0.0000 0.0000 30.6255
#
#
#
# Elastic Compliance Matrix: (Units=1/GPa)
#
#
# Indices 1 2 3 4 5 6 
#
# 1 0.011808 -0.004518 -0.002904 0.000000 0.000000 0.000000
# 2 -0.004518 0.011808 -0.002904 0.000000 0.000000 0.000000
# 3 -0.002904 -0.002904 0.014982 0.000000 0.000000 0.000000
# 4 0.000000 0.000000 0.000000 0.052538 0.000000 0.000000
# 5 0.000000 0.000000 0.000000 0.000000 0.052538 0.000000
# 6 0.000000 0.000000 0.000000 0.000000 0.000000 0.032653
#
#
# Mechanical properties :
#
#
# Convention : Reuss Voigt Hill
#
# Bulk Modulus (GPa) = 55.71844 58.79315 57.25579
# Shear Modulus (GPa) = 24.63537 26.34134 25.48836
#
# Velocity S-wave (km/s) = 3.51818 3.63795 3.57856
# Velocity P-wave (km/s) = 6.67069 6.86919 6.77066
#
# Compressibility (1/GPa) = 0.01794738
#
# Stress axis : x y z
#
# Youngs Moduli (GPa) = 84.68808 84.68808 66.74490
#
# Poissons Ratio (x) = 0.38264 0.19380
# Poissons Ratio (y) = 0.38264 0.19380
# Poissons Ratio (z) = 0.24591 0.24591
#
# Static dielectric constant tensor:
#      x y z
#    x 3.672580 0.000000 0.000000 
#    y 0.000000 3.672580 0.000000 
#    z 0.000000 0.000000 3.421490 
# 
# 
# High freq. dielectric constant tensor:
#      x y z
#    x 1.770750 0.000000 0.000000 
#    y 0.000000 1.770750 0.000000 
#    z 0.000000 0.000000 1.764090 
# 
# From -- ./inp_files/4335.got.cif
#   From: 2010.06.25/outbox.cif.g09.slc.cpg/sg176_3_cif.got.tgz:4335.got - 2010.06.28 12:15:01.
