data_PCOD8325007
_publ_section_title
;
Structure prediction by ZEFSAII (Michael W. Deem and Ramdas Pophale) SiO2 
 PCOD8325007
Probable space group: P 6/M
;
_chemical_formula_sum "Si O2"
_cell_formula_units_Z 66
_cell_length_a 20.402882
_cell_length_b 20.402882
_cell_length_c 12.523603
_cell_angle_alpha 90.000000
_cell_angle_beta 90.000000
_cell_angle_gamma 120.000000
_cell_volume 4514.846188
_symmetry_space_group_name_H-M "P 6/M"
_symmetry_group_IT_number 175
_symmetry_cell_setting 'hexagonal'
loop_
_space_group_symop_operation_xyz
x,y,z
x-y,x,z
-y,x-y,z
-x,-y,z
-x+y,-x,z
y,-x+y,z
-x,-y,-z
-x+y,-x,-z
y,-x+y,-z
x,y,-z
x-y,x,-z
-y,x-y,-z
loop_
_atom_site_type_symbol
_atom_site_label
_atom_site_fract_x
_atom_site_fract_y
_atom_site_fract_z
Si Si1 0.290415 0.856573 0.373020
Si Si2 0.709585 0.566158 0.626980
Si Si3 0.152220 0.000000 0.000000
Si Si4 0.542992 0.085983 0.372719
Si Si5 0.721016 0.721016 0.373336
Si Si6 0.154660 0.000000 0.230651
O O1 0.289414 0.854438 0.500000
O O2 0.222278 0.777721 0.326807
O O3 0.370710 0.869348 0.330364
O O4 0.280490 0.925889 0.333382
O O5 0.710586 0.565024 0.500000
O O6 0.629289 0.498638 0.669636
O O7 0.719509 0.645398 0.666618
O O8 0.139713 0.069856 0.000000
O O9 0.191507 0.000000 0.113220
O O10 0.541465 0.082929 0.500000
O O11 0.500000 0.000000 0.328703
O O12 0.729184 0.729184 0.500000
O O13 0.792132 0.792131 0.322902
O O14 0.145862 0.072931 0.244865
#
# Coordination Sequence:
#
# PCOD8325007 Si02
#       6
#    12  12   6  12  12  12
#     4   9  16  25  37  53  74 101 132 166 200 235
#     4   9  16  25  37  53  74 101 132 166 200 235
#     4   8  15  28  44  58  72  95 128 164 202 240
#     4   9  14  24  38  50  68  98 134 168 198 234
#     4  10  18  28  41  57  80 109 138 161 189 236
#     4  10  19  30  43  58  77 102 133 168 202 234
#
# _framework density 14.618437999999999
#
# number of rings (size 3 to 8) (size 9 to 14) (size 15 to 20)
#    0.000    2.727    1.818    1.364    0.000    3.636 
#    1.091    0.000    0.000    1.091    0.000    0.000 
#    0.000    2.909    0.000    0.182    0.000    0.000 
#
# Total GULP energy -817811.672158 kJ/mol
# GULP energy per Si atom -12391.085942 kJ/mol
# Density = 1.458517 g / cm^3
# Si number density = 14.618438 Si / 1000 Ang^3
#
#
#
# Elastic Constant Matrix: (Units=GPa)
#
#
# Indices 1 2 3 4 5 6 
#
# 1 128.7645 69.1643 19.6437 0.0000 0.0000 0.0000
# 2 69.1643 128.7645 19.6437 0.0000 0.0000 0.0000
# 3 19.6437 19.6437 22.2992 0.0000 0.0000 0.0000
# 4 0.0000 0.0000 0.0000 4.5027 0.0000 0.0000
# 5 0.0000 0.0000 0.0000 0.0000 4.5027 0.0000
# 6 0.0000 0.0000 0.0000 0.0000 0.0000 29.8001
#
#
#
# Elastic Compliance Matrix: (Units=1/GPa)
#
#
# Indices 1 2 3 4 5 6 
#
# 1 0.011451 -0.005328 -0.005394 0.000000 0.000000 0.000000
# 2 -0.005328 0.011451 -0.005394 0.000000 0.000000 0.000000
# 3 -0.005394 -0.005394 0.054348 0.000000 0.000000 0.000000
# 4 0.000000 0.000000 0.000000 0.222089 0.000000 0.000000
# 5 0.000000 0.000000 0.000000 0.000000 0.222089 0.000000
# 6 0.000000 0.000000 0.000000 0.000000 0.000000 0.033557
#
#
# Mechanical properties :
#
#
# Convention : Reuss Voigt Hill
#
# Bulk Modulus (GPa) = 22.21321 55.19238 38.70280
# Shear Modulus (GPa) = 8.30261 19.18620 13.74441
#
# Velocity S-wave (km/s) = 2.38577 3.62673 3.06961
# Velocity P-wave (km/s) = 4.77677 7.44143 6.25269
#
# Compressibility (1/GPa) = 0.04501826
#
# Stress axis : x y z
#
# Youngs Moduli (GPa) = 87.33085 87.33085 18.40011
#
# Poissons Ratio (x) = 0.46528 0.09925
# Poissons Ratio (y) = 0.46528 0.09925
# Poissons Ratio (z) = 0.47104 0.47104
#
# Static dielectric constant tensor:
#      x y z
#    x 3.000930 0.000000 0.000000 
#    y 0.000000 3.000930 0.000000 
#    z 0.000000 0.000000 2.518630 
# 
# 
# High freq. dielectric constant tensor:
#      x y z
#    x 1.564750 0.000000 0.000000 
#    y 0.000000 1.564750 0.000000 
#    z 0.000000 0.000000 1.488890 
# 
# From -- ./inp_files/2485.got.cif
#   From: 2010.03.12/outbox.cif.g09.slc.cpg/sg175_2_cif.got.tgz:2485.got - 2010.04.02 06:55:29.
