data_PCOD8325336
_publ_section_title
;
Structure prediction by ZEFSAII (Michael W. Deem and Ramdas Pophale) SiO2 
 PCOD8325336
Probable space group: P 6/M
;
_chemical_formula_sum "Si O2"
_cell_formula_units_Z 30
_cell_length_a 14.413600
_cell_length_b 14.413600
_cell_length_c 7.581143
_cell_angle_alpha 90.000000
_cell_angle_beta 90.000000
_cell_angle_gamma 120.000000
_cell_volume 1363.987064
_symmetry_space_group_name_H-M "P 6/M"
_symmetry_group_IT_number 175
_symmetry_cell_setting 'hexagonal'
loop_
_space_group_symop_operation_xyz
x,y,z
x-y,x,z
-y,x-y,z
-x,-y,z
-x+y,-x,z
y,-x+y,z
-x,-y,-z
-x+y,-x,-z
y,-x+y,-z
x,y,-z
x-y,x,-z
-y,x-y,-z
loop_
_atom_site_type_symbol
_atom_site_label
_atom_site_fract_x
_atom_site_fract_y
_atom_site_fract_z
Si Si1 0.211163 0.202626 0.792965
Si Si2 0.375632 0.436393 0.795882
Si Si3 0.678909 0.456843 0.500000
O O1 0.212891 0.100278 0.710054
O O2 0.324018 0.310100 0.753322
O O3 0.193294 0.186451 0.000000
O O4 0.500000 0.500000 0.744300
O O5 0.313411 0.479440 0.677505
O O6 0.357959 0.454997 0.000000
O O7 0.566024 0.343620 0.500000
#
# Coordination Sequence:
#
# PCOD8325336 Si02
#       3
#    12  12   6
#     4   9  18  33  58  90 124 162 206 257 315 375
#     4  10  22  40  64  90 125 166 210 260 318 379
#     4  10  25  40  60  90 123 165 210 259 318 373
#
# _framework density 21.994343000000001
#
# number of rings (size 3 to 8) (size 9 to 14) (size 15 to 20)
#    0.400    2.000    0.000    1.000    5.600    3.200 
#    0.000    0.000    0.000    0.000    0.000    2.800 
#    0.000    0.000    0.000    0.000    0.000    0.000 
#
# Total GULP energy -371866.351671 kJ/mol
# GULP energy per Si atom -12395.545056 kJ/mol
# Density = 2.194428 g / cm^3
# Si number density = 21.994343 Si / 1000 Ang^3
#
#
#
# Elastic Constant Matrix: (Units=GPa)
#
#
# Indices 1 2 3 4 5 6 
#
# 1 137.6415 51.5673 10.9362 0.0000 0.0000 0.0000
# 2 51.5673 137.6415 10.9362 0.0000 0.0000 0.0000
# 3 10.9362 10.9362 65.6909 0.0000 0.0000 0.0000
# 4 0.0000 0.0000 0.0000 15.7000 0.0000 0.0000
# 5 0.0000 0.0000 0.0000 0.0000 15.7000 0.0000
# 6 0.0000 0.0000 0.0000 0.0000 0.0000 43.0371
#
#
#
# Elastic Compliance Matrix: (Units=1/GPa)
#
#
# Indices 1 2 3 4 5 6 
#
# 1 0.008503 -0.003115 -0.000897 0.000000 0.000000 0.000000
# 2 -0.003115 0.008503 -0.000897 0.000000 0.000000 0.000000
# 3 -0.000897 -0.000897 0.015522 0.000000 0.000000 0.000000
# 4 0.000000 0.000000 0.000000 0.063694 0.000000 0.000000
# 5 0.000000 0.000000 0.000000 0.000000 0.063694 0.000000
# 6 0.000000 0.000000 0.000000 0.000000 0.000000 0.023236
#
#
# Mechanical properties :
#
#
# Convention : Reuss Voigt Hill
#
# Bulk Modulus (GPa) = 44.03206 54.20591 49.11898
# Shear Modulus (GPa) = 24.93267 32.72305 28.82786
#
# Velocity S-wave (km/s) = 3.37054 3.86138 3.62428
# Velocity P-wave (km/s) = 5.93385 6.67677 6.31624
#
# Compressibility (1/GPa) = 0.02271072
#
# Stress axis : x y z
#
# Youngs Moduli (GPa) = 117.60032 117.60032 64.42666
#
# Poissons Ratio (x) = 0.36627 0.05780
# Poissons Ratio (y) = 0.36627 0.05780
# Poissons Ratio (z) = 0.10550 0.10550
#
# Static dielectric constant tensor:
#      x y z
#    x 4.011520 0.000000 0.000000 
#    y 0.000000 4.011520 0.000000 
#    z 0.000000 0.000000 3.567550 
# 
# 
# High freq. dielectric constant tensor:
#      x y z
#    x 1.864570 0.000000 0.000000 
#    y 0.000000 1.864570 0.000000 
#    z 0.000000 0.000000 1.844990 
# 
# From -- ./inp_files/284.got.cif
#   From: 2010.03.12/outbox.cif.g09.slc.cpg/sg175_1_cif.got.tgz:284.got - 2010.04.02 06:55:29.
