data_PCOD8325510
_publ_section_title
;
Structure prediction by ZEFSAII (Michael W. Deem and Ramdas Pophale) SiO2 
 PCOD8325510
Probable space group: P 63/M
;
_chemical_formula_sum "Si O2"
_cell_formula_units_Z 72
_cell_length_a 22.337966
_cell_length_b 22.337966
_cell_length_c 9.182466
_cell_angle_alpha 90.000000
_cell_angle_beta 90.000000
_cell_angle_gamma 120.000000
_cell_volume 3968.050693
_symmetry_space_group_name_H-M "P 63/M"
_symmetry_group_IT_number 176
_symmetry_cell_setting 'hexagonal'
loop_
_space_group_symop_operation_xyz
x,y,z
x-y,x,1/2+z
-y,x-y,z
-x,-y,1/2+z
-x+y,-x,z
y,-x+y,1/2+z
-x,-y,-z
-x+y,-x,1/2-z
y,-x+y,-z
x,y,1/2-z
x-y,x,-z
-y,x-y,1/2-z
loop_
_atom_site_type_symbol
_atom_site_label
_atom_site_fract_x
_atom_site_fract_y
_atom_site_fract_z
Si Si1 0.864958 0.367420 0.913978
Si Si2 0.009054 0.756968 0.420039
Si Si3 0.711509 0.856353 0.921125
Si Si4 0.218249 0.771016 0.578291
Si Si5 0.643472 0.142352 0.580058
Si Si6 0.389005 0.377799 0.085030
O O1 0.840560 0.338354 0.750000
O O2 0.845201 0.425224 0.952222
O O3 0.947339 0.402140 0.924859
O O4 0.830420 0.307540 0.031785
O O5 0.022512 0.771838 0.250000
O O6 0.935403 0.747905 0.466118
O O7 0.012017 0.688760 0.464105
O O8 0.069222 0.822327 0.503363
O O9 0.714469 0.868505 0.750000
O O10 0.631978 0.814589 0.973913
O O11 0.228733 0.775071 0.750000
O O12 0.291405 0.797446 0.502033
O O13 0.659614 0.145940 0.750000
O O14 0.626568 0.068173 0.523505
O O15 0.401053 0.359736 0.250000
#
# Coordination Sequence:
#
# PCOD8325510 Si02
#       6
#    12  12  12  12  12  12
#     4  10  22  39  57  81 112 148 190 236 286 343
#     4  10  20  36  59  86 119 153 183 230 286 336
#     4  10  21  37  57  87 119 147 187 232 277 339
#     4  11  22  38  59  82 111 148 192 244 292 341
#     4  11  23  37  56  82 113 150 192 235 284 340
#     4  10  19  35  58  84 116 148 182 230 287 339
#
# _framework density 18.144929999999999
#
# number of rings (size 3 to 8) (size 9 to 14) (size 15 to 20)
#    0.000    1.667    3.333    1.500    0.000    4.000 
#    1.000    0.000    0.000    0.333    0.000    0.000 
#    0.000    0.000    0.000    0.000    0.000    0.000 
#
# Total GULP energy -893132.245265 kJ/mol
# GULP energy per Si atom -12404.614518 kJ/mol
# Density = 1.810363 g / cm^3
# Si number density = 18.144930 Si / 1000 Ang^3
#
#
#
# Elastic Constant Matrix: (Units=GPa)
#
#
# Indices 1 2 3 4 5 6 
#
# 1 96.9524 38.1691 44.5681 0.0000 0.0000 0.0000
# 2 38.1691 96.9524 44.5681 0.0000 0.0000 0.0000
# 3 44.5681 44.5681 68.2707 0.0000 0.0000 0.0000
# 4 0.0000 0.0000 0.0000 34.3520 0.0000 0.0000
# 5 0.0000 0.0000 0.0000 0.0000 34.3520 0.0000
# 6 0.0000 0.0000 0.0000 0.0000 0.0000 29.3917
#
#
#
# Elastic Compliance Matrix: (Units=1/GPa)
#
#
# Indices 1 2 3 4 5 6 
#
# 1 0.015005 -0.002007 -0.008486 0.000000 0.000000 0.000000
# 2 -0.002007 0.015005 -0.008486 0.000000 0.000000 0.000000
# 3 -0.008486 -0.008486 0.025727 0.000000 0.000000 0.000000
# 4 0.000000 0.000000 0.000000 0.029110 0.000000 0.000000
# 5 0.000000 0.000000 0.000000 0.000000 0.029110 0.000000
# 6 0.000000 0.000000 0.000000 0.000000 0.000000 0.034023
#
#
# Mechanical properties :
#
#
# Convention : Reuss Voigt Hill
#
# Bulk Modulus (GPa) = 56.23922 57.42068 56.82995
# Shear Modulus (GPa) = 26.06020 28.61046 27.33533
#
# Velocity S-wave (km/s) = 3.79387 3.97517 3.88558
# Velocity P-wave (km/s) = 7.08893 7.26523 7.17762
#
# Compressibility (1/GPa) = 0.01778118
#
# Stress axis : x y z
#
# Youngs Moduli (GPa) = 66.64417 66.64417 38.87024
#
# Poissons Ratio (x) = 0.13373 0.32984
# Poissons Ratio (y) = 0.13373 0.32984
# Poissons Ratio (z) = 0.56552 0.56552
#
# Static dielectric constant tensor:
#      x y z
#    x 3.316960 0.000000 0.000000 
#    y 0.000000 3.316960 0.000000 
#    z 0.000000 0.000000 3.317780 
# 
# 
# High freq. dielectric constant tensor:
#      x y z
#    x 1.700030 0.000000 0.000000 
#    y 0.000000 1.700030 0.000000 
#    z 0.000000 0.000000 1.704300 
# 
# From -- ./inp_files/1188.got.cif
#   From: 2010.06.25/outbox.cif.g09.slc.cpg/sg176_1_cif.got.tgz:1188.got - 2010.06.28 12:15:01.
