data_PCOD8325310
_publ_section_title
;
Structure prediction by ZEFSAII (Michael W. Deem and Ramdas Pophale) SiO2 
 PCOD8325310
Probable space group: P 6/M
;
_chemical_formula_sum "Si O2"
_cell_formula_units_Z 42
_cell_length_a 11.141558
_cell_length_b 11.141558
_cell_length_c 18.338117
_cell_angle_alpha 90.000000
_cell_angle_beta 90.000000
_cell_angle_gamma 120.000000
_cell_volume 1971.411210
_symmetry_space_group_name_H-M "P 6/M"
_symmetry_group_IT_number 175
_symmetry_cell_setting 'hexagonal'
loop_
_space_group_symop_operation_xyz
x,y,z
x-y,x,z
-y,x-y,z
-x,-y,z
-x+y,-x,z
y,-x+y,z
-x,-y,-z
-x+y,-x,-z
y,-x+y,-z
x,y,-z
x-y,x,-z
-y,x-y,-z
loop_
_atom_site_type_symbol
_atom_site_label
_atom_site_fract_x
_atom_site_fract_y
_atom_site_fract_z
Si Si1 0.500000 0.500000 0.324519
Si Si2 0.257110 0.959856 0.083456
Si Si3 0.701220 0.950885 0.585539
Si Si4 0.473970 0.646086 0.193142
O O1 0.363478 0.438486 0.374581
O O2 0.516968 0.626817 0.274115
O O3 0.364231 0.938920 0.133802
O O4 0.102310 0.839663 0.101358
O O5 0.297650 0.953429 0.000000
O O6 0.673010 0.945855 0.500000
O O7 0.831406 0.097569 0.608855
O O8 0.478862 0.793069 0.183075
#
# Coordination Sequence:
#
# PCOD8325310 Si02
#       4
#     6  12  12  12
#     4  12  21  40  63  92 128 166 214 252 311 378
#     4  10  21  39  63  90 120 158 207 261 313 368
#     4  10  22  41  66  96 128 164 209 263 321 378
#     4  10  23  38  58  86 122 163 201 252 310 364
#
# _framework density 21.304534
#
# number of rings (size 3 to 8) (size 9 to 14) (size 15 to 20)
#    0.571    1.143    0.000    4.429    0.000    3.429 
#    1.714    3.571    0.000    3.429    0.000    0.000 
#    0.000    0.000    0.000    0.000    0.000    0.000 
#
# Total GULP energy -520634.146349 kJ/mol
# GULP energy per Si atom -12396.051104 kJ/mol
# Density = 2.125604 g / cm^3
# Si number density = 21.304534 Si / 1000 Ang^3
#
#
#
# Elastic Constant Matrix: (Units=GPa)
#
#
# Indices 1 2 3 4 5 6 
#
# 1 103.5671 30.0198 51.8267 0.0000 0.0000 0.0000
# 2 30.0198 103.5671 51.8267 0.0000 0.0000 0.0000
# 3 51.8267 51.8267 91.2975 0.0000 0.0000 0.0000
# 4 0.0000 0.0000 0.0000 32.8993 0.0000 0.0000
# 5 0.0000 0.0000 0.0000 0.0000 32.8993 0.0000
# 6 0.0000 0.0000 0.0000 0.0000 0.0000 36.7736
#
#
#
# Elastic Compliance Matrix: (Units=1/GPa)
#
#
# Indices 1 2 3 4 5 6 
#
# 1 0.013488 -0.000109 -0.007595 0.000000 0.000000 0.000000
# 2 -0.000109 0.013488 -0.007595 0.000000 0.000000 0.000000
# 3 -0.007595 -0.007595 0.019576 0.000000 0.000000 0.000000
# 4 0.000000 0.000000 0.000000 0.030396 0.000000 0.000000
# 5 0.000000 0.000000 0.000000 0.000000 0.030396 0.000000
# 6 0.000000 0.000000 0.000000 0.000000 0.000000 0.027193
#
#
# Mechanical properties :
#
#
# Convention : Reuss Voigt Hill
#
# Bulk Modulus (GPa) = 62.67858 62.86423 62.77141
# Shear Modulus (GPa) = 29.33403 31.49837 30.41620
#
# Velocity S-wave (km/s) = 3.71467 3.84927 3.78257
# Velocity P-wave (km/s) = 6.91972 7.02335 6.97173
#
# Compressibility (1/GPa) = 0.01595441
#
# Stress axis : x y z
#
# Youngs Moduli (GPa) = 74.14187 74.14187 51.08388
#
# Poissons Ratio (x) = 0.00808 0.38796
# Poissons Ratio (y) = 0.00808 0.38796
# Poissons Ratio (z) = 0.56308 0.56308
#
# Static dielectric constant tensor:
#      x y z
#    x 3.770120 0.000000 0.000000 
#    y 0.000000 3.770120 0.000000 
#    z 0.000000 0.000000 3.729470 
# 
# 
# High freq. dielectric constant tensor:
#      x y z
#    x 1.840860 0.000000 0.000000 
#    y 0.000000 1.840860 0.000000 
#    z 0.000000 0.000000 1.830830 
# 
# From -- ./inp_files/2770.got.cif
#   From: 2010.03.12/outbox.cif.g09.slc.cpg/sg175_2_cif.got.tgz:2770.got - 2010.04.02 06:55:29.
