data_PCOD8325254
_publ_section_title
;
Structure prediction by ZEFSAII (Michael W. Deem and Ramdas Pophale) SiO2 
 PCOD8325254
Probable space group: P 6/M
;
_chemical_formula_sum "Si O2"
_cell_formula_units_Z 42
_cell_length_a 14.982492
_cell_length_b 14.982492
_cell_length_c 11.203236
_cell_angle_alpha 90.000000
_cell_angle_beta 90.000000
_cell_angle_gamma 120.000000
_cell_volume 2177.921515
_symmetry_space_group_name_H-M "P 6/M"
_symmetry_group_IT_number 175
_symmetry_cell_setting 'hexagonal'
loop_
_space_group_symop_operation_xyz
x,y,z
x-y,x,z
-y,x-y,z
-x,-y,z
-x+y,-x,z
y,-x+y,z
-x,-y,-z
-x+y,-x,-z
y,-x+y,-z
x,y,-z
x-y,x,-z
-y,x-y,-z
loop_
_atom_site_type_symbol
_atom_site_label
_atom_site_fract_x
_atom_site_fract_y
_atom_site_fract_z
Si Si1 0.214641 0.764475 0.754050
Si Si2 0.429392 0.882956 0.860536
Si Si3 0.850202 0.764160 0.138910
Si Si4 0.262786 0.534095 0.500000
O O1 0.312253 0.848485 0.828884
O O2 0.189967 0.650991 0.790416
O O3 0.119528 0.781575 0.783730
O O4 0.237880 0.778508 0.613638
O O5 0.500000 0.000000 0.818784
O O6 0.441923 0.870798 0.000000
O O7 0.814874 0.845385 0.172894
O O8 0.830756 0.734177 0.000000
O O9 0.388194 0.604389 0.500000
#
# Coordination Sequence:
#
# PCOD8325254 Si02
#       4
#    12  12  12   6
#     4  12  21  38  59  83 119 157 196 242 285 346
#     4  11  22  35  56  87 118 149 187 236 298 356
#     4  10  21  39  63  90 120 154 195 245 301 356
#     4  10  20  42  58  80 114 166 208 234 274 346
#
# _framework density 19.284441000000001
#
# number of rings (size 3 to 8) (size 9 to 14) (size 15 to 20)
#    0.286    0.857    2.857    5.143    0.000    5.714 
#    0.000    7.143    0.000    0.000    0.000    2.000 
#    0.000    0.000    0.000    0.000    0.000    0.000 
#
# Total GULP energy -521082.590726 kJ/mol
# GULP energy per Si atom -12406.728351 kJ/mol
# Density = 1.924055 g / cm^3
# Si number density = 19.284441 Si / 1000 Ang^3
#
#
#
# Elastic Constant Matrix: (Units=GPa)
#
#
# Indices 1 2 3 4 5 6 
#
# 1 73.8102 0.0381 29.4268 0.0000 0.0000 0.0000
# 2 0.0381 73.8102 29.4268 0.0000 0.0000 0.0000
# 3 29.4268 29.4268 68.4562 0.0000 0.0000 0.0000
# 4 0.0000 0.0000 0.0000 12.2362 0.0000 0.0000
# 5 0.0000 0.0000 0.0000 0.0000 12.2362 0.0000
# 6 0.0000 0.0000 0.0000 0.0000 0.0000 36.8861
#
#
#
# Elastic Compliance Matrix: (Units=1/GPa)
#
#
# Indices 1 2 3 4 5 6 
#
# 1 0.017076 0.003521 -0.008854 0.000000 0.000000 0.000000
# 2 0.003521 0.017076 -0.008854 0.000000 0.000000 0.000000
# 3 -0.008854 -0.008854 0.022220 0.000000 0.000000 0.000000
# 4 0.000000 0.000000 0.000000 0.081725 0.000000 0.000000
# 5 0.000000 0.000000 0.000000 0.000000 0.081725 0.000000
# 6 0.000000 0.000000 0.000000 0.000000 0.000000 0.027111
#
#
# Mechanical properties :
#
#
# Convention : Reuss Voigt Hill
#
# Bulk Modulus (GPa) = 35.71604 37.09555 36.40580
# Shear Modulus (GPa) = 17.56606 22.75069 20.15838
#
# Velocity S-wave (km/s) = 3.02137 3.43847 3.23665
# Velocity P-wave (km/s) = 5.54369 5.91961 5.73473
#
# Compressibility (1/GPa) = 0.02799862
#
# Stress axis : x y z
#
# Youngs Moduli (GPa) = 58.56035 58.56035 45.00455
#
# Poissons Ratio (x) = -0.20620 0.39848
# Poissons Ratio (y) = -0.20620 0.39848
# Poissons Ratio (z) = 0.51850 0.51850
#
# Static dielectric constant tensor:
#      x y z
#    x 3.480700 0.000000 0.000000 
#    y 0.000000 3.480700 0.000000 
#    z 0.000000 0.000000 3.283920 
# 
# 
# High freq. dielectric constant tensor:
#      x y z
#    x 1.752940 0.000000 0.000000 
#    y 0.000000 1.752940 0.000000 
#    z 0.000000 0.000000 1.734480 
# 
# From -- ./inp_files/1583.got.cif
#   From: 2010.03.12/outbox.cif.g09.slc.cpg/sg175_1_cif.got.tgz:1583.got - 2010.04.02 06:55:29.
