data_PCOD8325429
_publ_section_title
;
Structure prediction by ZEFSAII (Michael W. Deem and Ramdas Pophale) SiO2 
 PCOD8325429
Probable space group: P 63/M
;
_chemical_formula_sum "Si O2"
_cell_formula_units_Z 96
_cell_length_a 24.279931
_cell_length_b 24.279931
_cell_length_c 10.630245
_cell_angle_alpha 90.000000
_cell_angle_beta 90.000000
_cell_angle_gamma 120.000000
_cell_volume 5427.112223
_symmetry_space_group_name_H-M "P 63/M"
_symmetry_group_IT_number 176
_symmetry_cell_setting 'hexagonal'
loop_
_space_group_symop_operation_xyz
x,y,z
x-y,x,1/2+z
-y,x-y,z
-x,-y,1/2+z
-x+y,-x,z
y,-x+y,1/2+z
-x,-y,-z
-x+y,-x,1/2-z
y,-x+y,-z
x,y,1/2-z
x-y,x,-z
-y,x-y,1/2-z
loop_
_atom_site_type_symbol
_atom_site_label
_atom_site_fract_x
_atom_site_fract_y
_atom_site_fract_z
Si Si1 0.209651 0.844214 0.891681
Si Si2 0.978479 0.662276 0.107592
Si Si3 0.664432 0.502524 0.535991
Si Si4 0.489271 0.725683 0.607882
Si Si5 0.536007 0.602704 0.033287
Si Si6 0.365937 0.804010 0.113817
Si Si7 0.760070 0.638048 0.890139
Si Si8 0.499813 0.061206 0.384917
O O1 0.180053 0.822811 0.750000
O O2 0.242987 0.920904 0.902950
O O3 0.264403 0.824603 0.909098
O O4 0.156100 0.812382 0.999965
O O5 0.980557 0.639118 0.250000
O O6 0.961817 0.608566 0.004012
O O7 0.046927 0.722833 0.075577
O O8 0.700101 0.492267 0.418481
O O9 0.623277 0.436556 0.609882
O O10 0.714506 0.561408 0.620178
O O11 0.617790 0.526369 0.485279
O O12 0.464113 0.703031 0.750000
O O13 0.439776 0.675927 0.505502
O O14 0.490919 0.573592 0.910445
O O15 0.505814 0.636127 0.116000
O O16 0.528361 0.543102 0.113429
O O17 0.336824 0.771147 0.250000
O O18 0.791019 0.659184 0.750000
O O19 0.497171 0.088320 0.250000
#
# Coordination Sequence:
#
# PCOD8325429 Si02
#       8
#    12  12  12  12  12  12  12  12
#     4   9  19  36  54  75 105 136 169 205 246 293
#     4  10  18  33  54  75 102 139 174 202 244 300
#     4  10  21  37  53  71  95 123 165 211 261 316
#     4  10  21  37  56  72  91 125 167 208 255 315
#     4  10  19  32  45  72 101 127 162 197 247 309
#     4  11  23  36  53  75  99 127 159 207 268 319
#     4  10  20  35  56  79 103 135 173 208 250 299
#     4  10  19  30  48  69  96 125 156 205 255 300
#
# _framework density 17.688966000000001
#
# number of rings (size 3 to 8) (size 9 to 14) (size 15 to 20)
#    0.000    2.000    2.500    1.500    0.000    5.500 
#    0.750    0.625    0.000    0.000    0.000    0.000 
#    0.000    0.000    0.000    0.375    0.000    4.500 
#
# Total GULP energy -1189441.345970 kJ/mol
# GULP energy per Si atom -12390.014021 kJ/mol
# Density = 1.764870 g / cm^3
# Si number density = 17.688966 Si / 1000 Ang^3
#
#
#
# Elastic Constant Matrix: (Units=GPa)
#
#
# Indices 1 2 3 4 5 6 
#
# 1 60.2166 22.3336 31.9586 0.0000 0.0000 0.0000
# 2 22.3336 60.2166 31.9586 0.0000 0.0000 0.0000
# 3 31.9586 31.9586 122.5969 0.0000 0.0000 0.0000
# 4 0.0000 0.0000 0.0000 16.9676 0.0000 0.0000
# 5 0.0000 0.0000 0.0000 0.0000 16.9676 0.0000
# 6 0.0000 0.0000 0.0000 0.0000 0.0000 18.9415
#
#
#
# Elastic Compliance Matrix: (Units=1/GPa)
#
#
# Indices 1 2 3 4 5 6 
#
# 1 0.020787 -0.005610 -0.003956 0.000000 0.000000 0.000000
# 2 -0.005610 0.020787 -0.003956 0.000000 0.000000 0.000000
# 3 -0.003956 -0.003956 0.010220 0.000000 0.000000 0.000000
# 4 0.000000 0.000000 0.000000 0.058936 0.000000 0.000000
# 5 0.000000 0.000000 0.000000 0.000000 0.058936 0.000000
# 6 0.000000 0.000000 0.000000 0.000000 0.000000 0.052794
#
#
# Mechanical properties :
#
#
# Convention : Reuss Voigt Hill
#
# Bulk Modulus (GPa) = 40.40677 46.17023 43.28850
# Shear Modulus (GPa) = 19.39831 21.02730 20.21281
#
# Velocity S-wave (km/s) = 3.31514 3.45153 3.38402
# Velocity P-wave (km/s) = 6.12748 6.48397 6.30824
#
# Compressibility (1/GPa) = 0.02474833
#
# Stress axis : x y z
#
# Youngs Moduli (GPa) = 48.10666 48.10666 97.85189
#
# Poissons Ratio (x) = 0.26988 0.38714
# Poissons Ratio (y) = 0.26988 0.38714
# Poissons Ratio (z) = 0.19033 0.19033
#
# Static dielectric constant tensor:
#      x y z
#    x 3.089600 0.000000 0.000000 
#    y 0.000000 3.089600 0.000000 
#    z 0.000000 0.000000 3.295100 
# 
# 
# High freq. dielectric constant tensor:
#      x y z
#    x 1.652560 0.000000 0.000000 
#    y 0.000000 1.652560 0.000000 
#    z 0.000000 0.000000 1.692600 
# 
# From -- ./inp_files/2178.got.cif
#   From: 2010.06.25/outbox.cif.g09.slc.cpg/sg176_2_cif.got.tgz:2178.got - 2010.06.28 12:15:01.
