data_PCOD8325181
_publ_section_title
;
Structure prediction by ZEFSAII (Michael W. Deem and Ramdas Pophale) SiO2 
 PCOD8325181
Probable space group: P 6/M
;
_chemical_formula_sum "Si O2"
_cell_formula_units_Z 60
_cell_length_a 22.304300
_cell_length_b 22.304300
_cell_length_c 7.721935
_cell_angle_alpha 90.000000
_cell_angle_beta 90.000000
_cell_angle_gamma 120.000000
_cell_volume 3326.855738
_symmetry_space_group_name_H-M "P 6/M"
_symmetry_group_IT_number 175
_symmetry_cell_setting 'hexagonal'
loop_
_space_group_symop_operation_xyz
x,y,z
x-y,x,z
-y,x-y,z
-x,-y,z
-x+y,-x,z
y,-x+y,z
-x,-y,-z
-x+y,-x,-z
y,-x+y,-z
x,y,-z
x-y,x,-z
-y,x-y,-z
loop_
_atom_site_type_symbol
_atom_site_label
_atom_site_fract_x
_atom_site_fract_y
_atom_site_fract_z
Si Si1 0.146530 0.715954 0.306485
Si Si2 0.532813 0.921485 0.000000
Si Si3 0.727527 0.807018 0.303056
Si Si4 0.610348 0.081517 0.000000
Si Si5 0.720450 0.929462 0.193031
Si Si6 0.570240 0.716119 0.700152
O O1 0.143801 0.686694 0.500000
O O2 0.118004 0.653920 0.170689
O O3 0.098684 0.751097 0.310117
O O4 0.225099 0.774801 0.259777
O O5 0.459404 0.916180 0.000000
O O6 0.593572 0.001880 0.000000
O O7 0.731098 0.830025 0.500000
O O8 0.747423 0.874623 0.189120
O O9 0.781874 0.782090 0.266947
O O10 0.650795 0.745632 0.257979
O O11 0.651612 0.122052 0.172171
O O12 0.700548 0.940168 0.000000
O O13 0.553087 0.691497 0.500000
#
# Coordination Sequence:
#
# PCOD8325181 Si02
#       6
#    12   6  12   6  12  12
#     4  10  20  37  58  79 105 138 180 226 268 310
#     4  11  23  36  50  84 112 149 173 205 262 328
#     4  10  20  33  50  76 107 141 178 219 270 316
#     4  11  23  34  54  78 118 145 173 207 260 328
#     4  11  20  31  51  79 107 138 178 223 269 313
#     4   9  20  36  57  80 103 138 180 224 267 307
#
# _framework density 18.035048
#
# number of rings (size 3 to 8) (size 9 to 14) (size 15 to 20)
#    0.000    1.800    1.000    5.400    5.600    3.200 
#    0.000    2.000    0.000    3.600    0.000    2.800 
#    0.000    0.000    0.000    0.000    0.000    0.000 
#
# Total GULP energy -744029.115427 kJ/mol
# GULP energy per Si atom -12400.485257 kJ/mol
# Density = 1.799400 g / cm^3
# Si number density = 18.035048 Si / 1000 Ang^3
#
#
#
# Elastic Constant Matrix: (Units=GPa)
#
#
# Indices 1 2 3 4 5 6 
#
# 1 86.2726 39.9710 46.5144 0.0000 0.0000 0.0000
# 2 39.9710 86.2726 46.5144 0.0000 0.0000 0.0000
# 3 46.5144 46.5144 114.1916 0.0000 0.0000 0.0000
# 4 0.0000 0.0000 0.0000 24.1586 0.0000 0.0000
# 5 0.0000 0.0000 0.0000 0.0000 24.1586 0.0000
# 6 0.0000 0.0000 0.0000 0.0000 0.0000 23.1508
#
#
#
# Elastic Compliance Matrix: (Units=1/GPa)
#
#
# Indices 1 2 3 4 5 6 
#
# 1 0.016458 -0.005139 -0.004611 0.000000 0.000000 0.000000
# 2 -0.005139 0.016458 -0.004611 0.000000 0.000000 0.000000
# 3 -0.004611 -0.004611 0.012513 0.000000 0.000000 0.000000
# 4 0.000000 0.000000 0.000000 0.041393 0.000000 0.000000
# 5 0.000000 0.000000 0.000000 0.000000 0.041393 0.000000
# 6 0.000000 0.000000 0.000000 0.000000 0.000000 0.043195
#
#
# Mechanical properties :
#
#
# Convention : Reuss Voigt Hill
#
# Bulk Modulus (GPa) = 59.84949 61.41516 60.63233
# Shear Modulus (GPa) = 24.30710 24.54273 24.42492
#
# Velocity S-wave (km/s) = 3.67518 3.69295 3.68408
# Velocity P-wave (km/s) = 7.16006 7.23264 7.19644
#
# Compressibility (1/GPa) = 0.01670858
#
# Stress axis : x y z
#
# Youngs Moduli (GPa) = 60.76035 60.76035 79.91517
#
# Poissons Ratio (x) = 0.31227 0.36845
# Poissons Ratio (y) = 0.31227 0.36845
# Poissons Ratio (z) = 0.28014 0.28014
#
# Static dielectric constant tensor:
#      x y z
#    x 3.175370 0.000000 0.000000 
#    y 0.000000 3.175370 0.000000 
#    z 0.000000 0.000000 3.544010 
# 
# 
# High freq. dielectric constant tensor:
#      x y z
#    x 1.678940 0.000000 0.000000 
#    y 0.000000 1.678940 0.000000 
#    z 0.000000 0.000000 1.717620 
# 
# From -- ./inp_files/915.got.cif
#   From: 2010.03.12/outbox.cif.g09.slc.cpg/sg175_1_cif.got.tgz:915.got - 2010.04.02 06:55:29.
