data_PCOD8325069
_publ_section_title
;
Structure prediction by ZEFSAII (Michael W. Deem and Ramdas Pophale) SiO2 
 PCOD8325069
Probable space group: P 6/M
;
_chemical_formula_sum "Si O2"
_cell_formula_units_Z 82
_cell_length_a 21.874591
_cell_length_b 21.874591
_cell_length_c 10.593469
_cell_angle_alpha 90.000000
_cell_angle_beta 90.000000
_cell_angle_gamma 120.000000
_cell_volume 4389.840236
_symmetry_space_group_name_H-M "P 6/M"
_symmetry_group_IT_number 175
_symmetry_cell_setting 'hexagonal'
loop_
_space_group_symop_operation_xyz
x,y,z
x-y,x,z
-y,x-y,z
-x,-y,z
-x+y,-x,z
y,-x+y,z
-x,-y,-z
-x+y,-x,-z
y,-x+y,-z
x,y,-z
x-y,x,-z
-y,x-y,-z
loop_
_atom_site_type_symbol
_atom_site_label
_atom_site_fract_x
_atom_site_fract_y
_atom_site_fract_z
Si Si1 0.801609 0.610162 0.854576
Si Si2 0.537085 0.579500 0.150474
Si Si3 0.666667 0.333334 0.848209
Si Si4 0.077317 0.925261 0.143526
Si Si5 0.031172 0.697931 0.853508
Si Si6 0.471277 0.670939 0.853315
Si Si7 0.952269 0.832858 0.500000
Si Si8 0.925159 0.732581 0.262246
O O1 0.735312 0.620839 0.829806
O O2 0.775794 0.528543 0.830081
O O3 0.862999 0.651566 0.748973
O O4 0.829731 0.629868 0.000000
O O5 0.500000 0.500000 0.204394
O O6 0.618087 0.621233 0.196315
O O7 0.496582 0.618793 0.205774
O O8 0.535601 0.578631 0.000000
O O9 0.740051 0.397625 0.794376
O O10 0.666667 0.333334 0.000000
O O11 0.129603 0.894538 0.156293
O O12 0.002096 0.882227 0.212630
O O13 0.056651 0.925839 0.000000
O O14 0.999520 0.738875 0.774267
O O15 0.013217 0.700485 0.000000
O O16 0.459394 0.653283 0.000000
O O17 0.897497 0.863375 0.500000
O O18 0.934176 0.777595 0.386307
#
# Coordination Sequence:
#
# PCOD8325069 Si02
#       8
#    12  12   4  12  12  12   6  12
#     4  10  19  31  50  74 104 135 169 213 260 311
#     4   9  17  28  44  68 103 142 180 212 245 296
#     4   9  18  27  42  66 105 154 185 205 243 303
#     4  10  19  30  46  67  92 120 153 195 244 297
#     4  10  19  31  50  76 105 139 174 212 260 309
#     4   9  17  29  43  67 104 145 182 213 246 297
#     4  12  27  44  60  74  95 130 174 224 272 324
#     4  12  22  36  52  72  96 127 167 213 261 312
#
# _framework density 18.679493999999998
#
# number of rings (size 3 to 8) (size 9 to 14) (size 15 to 20)
#    0.000    1.902    1.463    4.171    2.049    2.927 
#    0.000    1.463    0.000    0.000    0.000    0.512 
#    0.000    1.463    0.000    0.000    0.000    0.000 
#
# Total GULP energy -1015869.017327 kJ/mol
# GULP energy per Si atom -12388.646553 kJ/mol
# Density = 1.863698 g / cm^3
# Si number density = 18.679494 Si / 1000 Ang^3
#
#
#
# Elastic Constant Matrix: (Units=GPa)
#
#
# Indices 1 2 3 4 5 6 
#
# 1 117.2976 47.8589 27.7605 0.0000 0.0000 0.0000
# 2 47.8589 117.2959 27.7601 0.0000 0.0000 0.0007
# 3 27.7605 27.7601 38.1938 0.0000 0.0000 0.0000
# 4 0.0000 0.0000 0.0000 6.5541 0.0000 0.0000
# 5 0.0000 0.0000 0.0000 0.0000 6.5543 0.0000
# 6 0.0000 0.0007 0.0000 0.0000 0.0000 34.7189
#
#
#
# Elastic Compliance Matrix: (Units=1/GPa)
#
#
# Indices 1 2 3 4 5 6 
#
# 1 0.011207 -0.003194 -0.005824 0.000000 0.000000 0.000000
# 2 -0.003194 0.011207 -0.005824 0.000000 0.000000 0.000000
# 3 -0.005824 -0.005824 0.034648 0.000000 0.000000 0.000000
# 4 0.000000 0.000000 0.000000 0.152576 0.000001 0.000000
# 5 0.000000 0.000000 0.000000 0.000001 0.152572 0.000000
# 6 0.000000 0.000000 0.000000 0.000000 0.000000 0.028803
#
#
# Mechanical properties :
#
#
# Convention : Reuss Voigt Hill
#
# Bulk Modulus (GPa) = 36.52551 53.28294 44.90422
# Shear Modulus (GPa) = 11.63270 20.85931 16.24601
#
# Velocity S-wave (km/s) = 2.49821 3.34533 2.95231
# Velocity P-wave (km/s) = 5.28371 6.59609 5.97604
#
# Compressibility (1/GPa) = 0.02737813
#
# Stress axis : x y z
#
# Youngs Moduli (GPa) = 89.23014 89.22913 28.86158
#
# Poissons Ratio (x) = 0.28503 0.16809
# Poissons Ratio (y) = 0.28503 0.16808
# Poissons Ratio (z) = 0.51967 0.51966
#
# Static dielectric constant tensor:
#      x y z
#    x 3.637750 -0.000010 0.000000 
#    y -0.000010 3.637740 0.000000 
#    z 0.000000 0.000000 2.846320 
# 
# 
# High freq. dielectric constant tensor:
#      x y z
#    x 1.739620 0.000000 0.000000 
#    y 0.000000 1.739620 0.000000 
#    z 0.000000 0.000000 1.641880 
# 
# From -- ./inp_files/2025.got.cif
#   From: 2010.03.12/outbox.cif.g09.slc.cpg/sg175_2_cif.got.tgz:2025.got - 2010.04.02 06:55:29.
