data_PCOD8325685
_publ_section_title
;
Structure prediction by ZEFSAII (Michael W. Deem and Ramdas Pophale) SiO2 
 PCOD8325685
Probable space group: P 63/M
;
_chemical_formula_sum "Si O2"
_cell_formula_units_Z 30
_cell_length_a 14.231307
_cell_length_b 14.231307
_cell_length_c 7.793140
_cell_angle_alpha 90.000000
_cell_angle_beta 90.000000
_cell_angle_gamma 120.000000
_cell_volume 1366.887225
_symmetry_space_group_name_H-M "P 63/M"
_symmetry_group_IT_number 176
_symmetry_cell_setting 'hexagonal'
loop_
_space_group_symop_operation_xyz
x,y,z
x-y,x,1/2+z
-y,x-y,z
-x,-y,1/2+z
-x+y,-x,z
y,-x+y,1/2+z
-x,-y,-z
-x+y,-x,1/2-z
y,-x+y,-z
x,y,1/2-z
x-y,x,-z
-y,x-y,1/2-z
loop_
_atom_site_type_symbol
_atom_site_label
_atom_site_fract_x
_atom_site_fract_y
_atom_site_fract_z
Si Si1 0.560115 0.624706 0.551703
Si Si2 0.792387 0.800244 0.939361
Si Si3 0.220905 0.541316 0.250000
O O1 0.500000 0.500000 0.500000
O O2 0.533270 0.636394 0.750000
O O3 0.689785 0.681314 0.520000
O O4 0.521352 0.687900 0.425235
O O5 0.778945 0.835867 0.750000
O O6 0.902431 0.795255 0.940750
O O7 0.344397 0.564554 0.250000
#
# Coordination Sequence:
#
# PCOD8325685 Si02
#       3
#    12  12   6
#     4  11  25  43  71 101 136 181 230 283 347 409
#     4  11  26  43  68  99 135 178 224 279 341 407
#     4  10  26  44  68  96 142 178 228 292 336 408
#
# _framework density 21.947676999999999
#
# number of rings (size 3 to 8) (size 9 to 14) (size 15 to 20)
#    0.400    0.800    2.000    1.600   11.200    1.600 
#    0.000    0.000    0.000    0.000    0.000    0.000 
#    0.000    0.000    0.000    0.000    0.000    0.000 
#
# Total GULP energy -371891.039878 kJ/mol
# GULP energy per Si atom -12396.367996 kJ/mol
# Density = 2.189772 g / cm^3
# Si number density = 21.947677 Si / 1000 Ang^3
#
#
#
# Elastic Constant Matrix: (Units=GPa)
#
#
# Indices 1 2 3 4 5 6 
#
# 1 122.2356 35.5708 31.6220 0.0000 0.0000 0.0000
# 2 35.5708 122.2356 31.6220 0.0000 0.0000 0.0000
# 3 31.6220 31.6220 144.6147 0.0000 0.0000 0.0000
# 4 0.0000 0.0000 0.0000 28.8298 0.0000 0.0000
# 5 0.0000 0.0000 0.0000 0.0000 28.8298 0.0000
# 6 0.0000 0.0000 0.0000 0.0000 0.0000 43.3324
#
#
#
# Elastic Compliance Matrix: (Units=1/GPa)
#
#
# Indices 1 2 3 4 5 6 
#
# 1 0.009242 -0.002297 -0.001519 0.000000 0.000000 0.000000
# 2 -0.002297 0.009242 -0.001519 0.000000 0.000000 0.000000
# 3 -0.001519 -0.001519 0.007579 0.000000 0.000000 0.000000
# 4 0.000000 0.000000 0.000000 0.034686 0.000000 0.000000
# 5 0.000000 0.000000 0.000000 0.000000 0.034686 0.000000
# 6 0.000000 0.000000 0.000000 0.000000 0.000000 0.023077
#
#
# Mechanical properties :
#
#
# Convention : Reuss Voigt Hill
#
# Bulk Modulus (GPa) = 64.95511 65.19059 65.07285
# Shear Modulus (GPa) = 37.22638 39.54981 38.38810
#
# Velocity S-wave (km/s) = 4.12289 4.24961 4.18673
# Velocity P-wave (km/s) = 7.23353 7.33799 7.28595
#
# Compressibility (1/GPa) = 0.01539525
#
# Stress axis : x y z
#
# Youngs Moduli (GPa) = 108.20025 108.20025 131.94165
#
# Poissons Ratio (x) = 0.24849 0.20038
# Poissons Ratio (y) = 0.24849 0.20038
# Poissons Ratio (z) = 0.16433 0.16433
#
# Static dielectric constant tensor:
#      x y z
#    x 3.876050 0.000000 0.000000 
#    y 0.000000 3.876050 0.000000 
#    z 0.000000 0.000000 4.141410 
# 
# 
# High freq. dielectric constant tensor:
#      x y z
#    x 1.860280 0.000000 0.000000 
#    y 0.000000 1.860280 0.000000 
#    z 0.000000 0.000000 1.878390 
# 
# From -- ./inp_files/287.got.cif
#   From: 2010.06.25/outbox.cif.g09.slc.cpg/sg176_1_cif.got.tgz:287.got - 2010.06.28 12:15:01.
