data_PCOD8325678
_publ_section_title
;
Structure prediction by ZEFSAII (Michael W. Deem and Ramdas Pophale) SiO2 
 PCOD8325678
Probable space group: P 63/M
;
_chemical_formula_sum "Si O2"
_cell_formula_units_Z 52
_cell_length_a 11.837525
_cell_length_b 11.837525
_cell_length_c 19.429642
_cell_angle_alpha 90.000000
_cell_angle_beta 90.000000
_cell_angle_gamma 120.000000
_cell_volume 2357.855840
_symmetry_space_group_name_H-M "P 63/M"
_symmetry_group_IT_number 176
_symmetry_cell_setting 'hexagonal'
loop_
_space_group_symop_operation_xyz
x,y,z
x-y,x,1/2+z
-y,x-y,z
-x,-y,1/2+z
-x+y,-x,z
y,-x+y,1/2+z
-x,-y,-z
-x+y,-x,1/2-z
y,-x+y,-z
x,y,1/2-z
x-y,x,-z
-y,x-y,1/2-z
loop_
_atom_site_type_symbol
_atom_site_label
_atom_site_fract_x
_atom_site_fract_y
_atom_site_fract_z
Si Si1 0.123613 0.818364 0.750000
Si Si2 0.710741 0.878788 0.250000
Si Si3 0.388518 0.033056 0.486383
Si Si4 0.000000 0.000000 0.082344
Si Si5 0.495318 0.781401 0.630008
Si Si6 0.853116 0.155366 0.600701
O O1 0.136815 0.744635 0.684104
O O2 0.985997 0.812345 0.750000
O O3 0.229499 0.967779 0.750000
O O4 0.631947 0.829340 0.177257
O O5 0.445204 0.170718 0.445932
O O6 0.328469 0.045272 0.558297
O O7 0.500000 0.000000 0.500000
O O8 0.281795 0.918654 0.439304
O O9 0.065553 0.146539 0.110708
O O10 0.000000 0.000000 0.000000
O O11 0.374537 0.810775 0.638785
#
# Coordination Sequence:
#
# PCOD8325678 Si02
#       6
#     6   6  12   4  12  12
#     4  12  23  46  66 108 146 187 226 296 370 450
#     4  12  27  40  70 102 154 181 226 284 382 442
#     4  12  25  44  72 100 144 188 251 299 356 427
#     4  12  21  40  77 106 150 163 233 295 369 415
#     4  10  24  44  72 104 135 185 248 306 350 413
#     4  12  25  45  67 112 140 191 227 301 368 430
#
# _framework density 22.053934999999999
#
# number of rings (size 3 to 8) (size 9 to 14) (size 15 to 20)
#    0.462    0.000    4.615    3.692    6.462    0.000 
#    1.385    1.154    0.000    0.000    0.000    0.000 
#    0.000    0.000    0.000    0.000    0.000    0.000 
#
# Total GULP energy -644604.152385 kJ/mol
# GULP energy per Si atom -12396.233700 kJ/mol
# Density = 2.200374 g / cm^3
# Si number density = 22.053935 Si / 1000 Ang^3
#
#
#
# Elastic Constant Matrix: (Units=GPa)
#
#
# Indices 1 2 3 4 5 6 
#
# 1 99.9755 25.7084 46.6415 0.0000 0.0000 0.0000
# 2 25.7084 99.9755 46.6415 0.0000 0.0000 0.0000
# 3 46.6415 46.6415 202.6685 0.0000 0.0000 0.0000
# 4 0.0000 0.0000 0.0000 21.2606 0.0000 0.0000
# 5 0.0000 0.0000 0.0000 0.0000 21.2606 0.0000
# 6 0.0000 0.0000 0.0000 0.0000 0.0000 37.1335
#
#
#
# Elastic Compliance Matrix: (Units=1/GPa)
#
#
# Indices 1 2 3 4 5 6 
#
# 1 0.011530 -0.001935 -0.002208 0.000000 0.000000 0.000000
# 2 -0.001935 0.011530 -0.002208 0.000000 0.000000 0.000000
# 3 -0.002208 -0.002208 0.005951 0.000000 0.000000 0.000000
# 4 0.000000 0.000000 0.000000 0.047035 0.000000 0.000000
# 5 0.000000 0.000000 0.000000 0.000000 0.047035 0.000000
# 6 0.000000 0.000000 0.000000 0.000000 0.000000 0.026930
#
#
# Mechanical properties :
#
#
# Convention : Reuss Voigt Hill
#
# Bulk Modulus (GPa) = 61.31805 71.17804 66.24805
# Shear Modulus (GPa) = 29.73531 34.83948 32.28739
#
# Velocity S-wave (km/s) = 3.67590 3.97891 3.83040
# Velocity P-wave (km/s) = 6.77351 7.31119 7.04748
#
# Compressibility (1/GPa) = 0.01630841
#
# Stress axis : x y z
#
# Youngs Moduli (GPa) = 86.72887 86.72887 168.05098
#
# Poissons Ratio (x) = 0.16780 0.37110
# Poissons Ratio (y) = 0.16780 0.37110
# Poissons Ratio (z) = 0.19152 0.19152
#
# Static dielectric constant tensor:
#      x y z
#    x 3.845240 0.000000 0.000000 
#    y 0.000000 3.845240 0.000000 
#    z 0.000000 0.000000 4.627890 
# 
# 
# High freq. dielectric constant tensor:
#      x y z
#    x 1.853330 0.000000 0.000000 
#    y 0.000000 1.853330 0.000000 
#    z 0.000000 0.000000 1.891260 
# 
# From -- ./inp_files/3722.got.cif
#   From: 2010.06.25/outbox.cif.g09.slc.cpg/sg176_2_cif.got.tgz:3722.got - 2010.06.28 12:15:01.
