data_PCOD8325154
_publ_section_title
;
Structure prediction by ZEFSAII (Michael W. Deem and Ramdas Pophale) SiO2 
 PCOD8325154
Probable space group: P 6/M
;
_chemical_formula_sum "Si O2"
_cell_formula_units_Z 46
_cell_length_a 17.872869
_cell_length_b 17.872869
_cell_length_c 8.866742
_cell_angle_alpha 90.000000
_cell_angle_beta 90.000000
_cell_angle_gamma 120.000000
_cell_volume 2452.919229
_symmetry_space_group_name_H-M "P 6/M"
_symmetry_group_IT_number 175
_symmetry_cell_setting 'hexagonal'
loop_
_space_group_symop_operation_xyz
x,y,z
x-y,x,z
-y,x-y,z
-x,-y,z
-x+y,-x,z
y,-x+y,z
-x,-y,-z
-x+y,-x,-z
y,-x+y,-z
x,y,-z
x-y,x,-z
-y,x-y,-z
loop_
_atom_site_type_symbol
_atom_site_label
_atom_site_fract_x
_atom_site_fract_y
_atom_site_fract_z
Si Si1 0.600106 0.042134 0.674939
Si Si2 0.333334 0.666667 0.321778
Si Si3 0.271246 0.353529 0.834143
Si Si4 0.152312 0.193324 0.000000
Si Si5 0.728189 0.218985 0.823558
O O1 0.617199 0.066529 0.500000
O O2 0.650135 0.128051 0.771719
O O3 0.500000 0.000000 0.716310
O O4 0.634223 0.976622 0.713310
O O5 0.333334 0.666668 0.500000
O O6 0.272822 0.702833 0.262484
O O7 0.224013 0.405803 0.782015
O O8 0.315117 0.388019 0.000000
O O9 0.198122 0.252172 0.851087
O O10 0.052187 0.162419 0.000000
O O11 0.718039 0.228676 0.000000
#
# Coordination Sequence:
#
# PCOD8325154 Si02
#       5
#    12   4  12   6  12
#     4  11  23  37  56  84 119 158 199 245 300 357
#     4  12  25  38  55  84 124 164 208 252 295 350
#     4   9  21  37  59  83 114 150 194 248 294 357
#     4  10  19  36  61  90 116 144 184 242 304 366
#     4  11  22  39  60  84 114 157 202 252 298 350
#
# _framework density 18.753164999999999
#
# number of rings (size 3 to 8) (size 9 to 14) (size 15 to 20)
#    0.783    0.783    0.000    5.609    0.000    8.348 
#    0.000    0.000    0.000    0.000    0.000    0.000 
#    0.000    4.174    0.000    0.000    0.000    0.000 
#
# Total GULP energy -570422.686894 kJ/mol
# GULP energy per Si atom -12400.493193 kJ/mol
# Density = 1.871048 g / cm^3
# Si number density = 18.753165 Si / 1000 Ang^3
#
#
#
# Elastic Constant Matrix: (Units=GPa)
#
#
# Indices 1 2 3 4 5 6 
#
# 1 126.7721 47.5001 35.5346 0.0000 0.0000 0.0005
# 2 47.5001 126.7719 35.5345 0.0000 0.0000 0.0004
# 3 35.5346 35.5345 79.8546 0.0000 0.0000 0.0004
# 4 0.0000 0.0000 0.0000 10.0668 -0.0006 0.0000
# 5 0.0000 0.0000 0.0000 -0.0006 10.0668 0.0000
# 6 0.0005 0.0004 0.0004 0.0000 0.0000 39.6362
#
#
#
# Elastic Compliance Matrix: (Units=1/GPa)
#
#
# Indices 1 2 3 4 5 6 
#
# 1 0.009813 -0.002802 -0.003120 0.000000 0.000000 0.000000
# 2 -0.002802 0.009813 -0.003120 0.000000 0.000000 0.000000
# 3 -0.003120 -0.003120 0.015299 0.000000 0.000000 0.000000
# 4 0.000000 0.000000 0.000000 0.099336 0.000006 0.000000
# 5 0.000000 0.000000 0.000000 0.000006 0.099336 0.000000
# 6 0.000000 0.000000 0.000000 0.000000 0.000000 0.025229
#
#
# Mechanical properties :
#
#
# Convention : Reuss Voigt Hill
#
# Bulk Modulus (GPa) = 59.37677 63.39301 61.38489
# Shear Modulus (GPa) = 17.69769 26.27594 21.98681
#
# Velocity S-wave (km/s) = 3.07533 3.74725 3.42779
# Velocity P-wave (km/s) = 6.65892 7.25257 6.96208
#
# Compressibility (1/GPa) = 0.01684160
#
# Stress axis : x y z
#
# Youngs Moduli (GPa) = 101.91024 101.91018 65.36344
#
# Poissons Ratio (x) = 0.28558 0.20390
# Poissons Ratio (y) = 0.28558 0.20390
# Poissons Ratio (z) = 0.31791 0.31791
#
# Static dielectric constant tensor:
#      x y z
#    x 3.487570 -0.000010 0.000000 
#    y -0.000010 3.487580 0.000000 
#    z 0.000000 0.000000 3.283620 
# 
# 
# High freq. dielectric constant tensor:
#      x y z
#    x 1.734580 0.000000 0.000000 
#    y 0.000000 1.734580 0.000000 
#    z 0.000000 0.000000 1.712460 
# 
# From -- ./inp_files/563.got.cif
#   From: 2010.03.12/outbox.cif.g09.slc.cpg/sg175_1_cif.got.tgz:563.got - 2010.04.02 06:55:29.
