data_PCOD8325101
_publ_section_title
;
Structure prediction by ZEFSAII (Michael W. Deem and Ramdas Pophale) SiO2 
 PCOD8325101
Probable space group: P 6/M
;
_chemical_formula_sum "Si O2"
_cell_formula_units_Z 96
_cell_length_a 24.075151
_cell_length_b 24.075151
_cell_length_c 10.551185
_cell_angle_alpha 90.000000
_cell_angle_beta 90.000000
_cell_angle_gamma 120.000000
_cell_volume 5296.267463
_symmetry_space_group_name_H-M "P 6/M"
_symmetry_group_IT_number 175
_symmetry_cell_setting 'hexagonal'
loop_
_space_group_symop_operation_xyz
x,y,z
x-y,x,z
-y,x-y,z
-x,-y,z
-x+y,-x,z
y,-x+y,z
-x,-y,-z
-x+y,-x,-z
y,-x+y,-z
x,y,-z
x-y,x,-z
-y,x-y,-z
loop_
_atom_site_type_symbol
_atom_site_label
_atom_site_fract_x
_atom_site_fract_y
_atom_site_fract_z
Si Si1 0.008664 0.883681 0.645733
Si Si2 0.664120 0.999607 0.355423
Si Si3 0.763729 0.144724 0.645146
Si Si4 0.574886 0.190529 0.348670
Si Si5 0.283372 0.159621 0.138147
Si Si6 0.019493 0.784557 0.783150
Si Si7 0.282766 0.758191 0.650232
Si Si8 0.951191 0.429796 0.349110
O O1 0.006924 0.897616 0.500000
O O2 0.013377 0.819945 0.659096
O O3 0.943983 0.874442 0.711256
O O4 0.663224 0.976767 0.500000
O O5 0.697862 0.972269 0.263400
O O6 0.592671 0.972098 0.301867
O O7 0.699380 0.076364 0.349031
O O8 0.790970 0.158096 0.500000
O O9 0.816426 0.147648 0.742033
O O10 0.746239 0.197461 0.691985
O O11 0.574827 0.190536 0.500000
O O12 0.645778 0.213961 0.294428
O O13 0.550860 0.237737 0.296035
O O14 0.527302 0.119439 0.296632
O O15 0.245490 0.081893 0.140038
O O16 0.238230 0.191841 0.139512
O O17 0.318273 0.179034 0.000000
O O18 0.286343 0.756904 0.500000
O O19 0.952855 0.432323 0.500000
O O20 0.000000 0.500000 0.293512
#
# Coordination Sequence:
#
# PCOD8325101 Si02
#       8
#    12  12  12  12  12  12  12  12
#     4  10  19  32  51  77 107 139 174 216 264 314
#     4   9  18  30  46  74 106 136 172 216 259 308
#     4   9  19  34  54  77 106 139 174 217 264 312
#     4   9  16  24  39  64  99 141 172 205 254 308
#     4  11  24  40  57  77 103 138 179 221 271 323
#     4  11  21  36  55  73 101 134 177 221 265 317
#     4   9  16  27  43  70 107 142 175 211 257 312
#     4   9  16  26  41  62  96 139 175 206 252 309
#
# _framework density 18.125972999999998
#
# number of rings (size 3 to 8) (size 9 to 14) (size 15 to 20)
#    0.000    2.375    1.250    1.875    1.750    6.000 
#    0.000    0.000    0.000    0.000    0.000    2.625 
#    0.000    5.250    0.000    0.000    0.000    0.000 
#
# Total GULP energy -1189786.793812 kJ/mol
# GULP energy per Si atom -12393.612436 kJ/mol
# Density = 1.808472 g / cm^3
# Si number density = 18.125973 Si / 1000 Ang^3
#
#
#
# Elastic Constant Matrix: (Units=GPa)
#
#
# Indices 1 2 3 4 5 6 
#
# 1 135.3344 69.2550 31.0038 0.0000 0.0000 0.0000
# 2 69.2550 135.3344 31.0038 0.0000 0.0000 0.0000
# 3 31.0038 31.0038 53.8802 0.0000 0.0000 0.0000
# 4 0.0000 0.0000 0.0000 4.5617 0.0000 0.0000
# 5 0.0000 0.0000 0.0000 0.0000 4.5617 0.0000
# 6 0.0000 0.0000 0.0000 0.0000 0.0000 33.0397
#
#
#
# Elastic Compliance Matrix: (Units=1/GPa)
#
#
# Indices 1 2 3 4 5 6 
#
# 1 0.010527 -0.004606 -0.003407 0.000000 0.000000 0.000000
# 2 -0.004606 0.010527 -0.003407 0.000000 0.000000 0.000000
# 3 -0.003407 -0.003407 0.022480 0.000000 0.000000 0.000000
# 4 0.000000 0.000000 0.000000 0.219217 0.000000 0.000000
# 5 0.000000 0.000000 0.000000 0.000000 0.219217 0.000000
# 6 0.000000 0.000000 0.000000 0.000000 0.000000 0.030267
#
#
# Mechanical properties :
#
#
# Convention : Reuss Voigt Hill
#
# Bulk Modulus (GPa) = 48.32274 65.23045 56.77659
# Shear Modulus (GPa) = 9.22557 21.31837 15.27197
#
# Velocity S-wave (km/s) = 2.25848 3.43319 2.90581
# Velocity P-wave (km/s) = 5.78950 7.19591 6.53067
#
# Compressibility (1/GPa) = 0.02069419
#
# Stress axis : x y z
#
# Youngs Moduli (GPa) = 94.99531 94.99531 44.48349
#
# Poissons Ratio (x) = 0.43759 0.15154
# Poissons Ratio (y) = 0.43759 0.15154
# Poissons Ratio (z) = 0.32362 0.32362
#
# Static dielectric constant tensor:
#      x y z
#    x 3.505820 0.000000 0.000000 
#    y 0.000000 3.505820 0.000000 
#    z 0.000000 0.000000 2.719850 
# 
# 
# High freq. dielectric constant tensor:
#      x y z
#    x 1.714570 0.000000 0.000000 
#    y 0.000000 1.714570 0.000000 
#    z 0.000000 0.000000 1.627480 
# 
# From -- ./inp_files/2158.got.cif
#   From: 2010.03.12/outbox.cif.g09.slc.cpg/sg175_2_cif.got.tgz:2158.got - 2010.04.02 06:55:29.
