data_PCOD8325022
_publ_section_title
;
Structure prediction by ZEFSAII (Michael W. Deem and Ramdas Pophale) SiO2 
 PCOD8325022
Probable space group: P 6/M
;
_chemical_formula_sum "Si O2"
_cell_formula_units_Z 72
_cell_length_a 21.810576
_cell_length_b 21.810576
_cell_length_c 10.289070
_cell_angle_alpha 90.000000
_cell_angle_beta 90.000000
_cell_angle_gamma 120.000000
_cell_volume 4238.781437
_symmetry_space_group_name_H-M "P 6/M"
_symmetry_group_IT_number 175
_symmetry_cell_setting 'hexagonal'
loop_
_space_group_symop_operation_xyz
x,y,z
x-y,x,z
-y,x-y,z
-x,-y,z
-x+y,-x,z
y,-x+y,z
-x,-y,-z
-x+y,-x,-z
y,-x+y,-z
x,y,-z
x-y,x,-z
-y,x-y,-z
loop_
_atom_site_type_symbol
_atom_site_label
_atom_site_fract_x
_atom_site_fract_y
_atom_site_fract_z
Si Si1 0.474900 0.665996 0.848968
Si Si2 0.294865 0.079906 0.000000
Si Si3 0.379030 0.080604 0.754155
Si Si4 0.525100 0.191096 0.151032
Si Si5 0.918924 0.699402 0.500000
Si Si6 0.379030 0.298426 0.754155
Si Si7 0.920094 0.705135 0.000000
Si Si8 0.699402 0.918924 0.500000
O O1 0.467016 0.733508 0.818852
O O2 0.402618 0.597382 0.806684
O O3 0.536921 0.668099 0.761698
O O4 0.491780 0.662708 0.000000
O O5 0.343481 0.097119 0.125481
O O6 0.260854 0.130427 0.000000
O O7 0.230043 0.000000 0.000000
O O8 0.463079 0.131178 0.761698
O O9 0.350037 0.096659 0.624101
O O10 0.362411 0.000000 0.757746
O O11 0.508220 0.170929 0.000000
O O12 0.903341 0.649963 0.624101
O O13 0.865289 0.730578 0.500000
O O14 1.000000 0.764765 0.500000
O O15 0.343481 0.246362 0.874519
#
# Coordination Sequence:
#
# PCOD8325022 Si02
#       8
#    12   6  12  12   6  12   6   6
#     4  10  19  31  49  72 100 132 167 206 248 297
#     4  10  18  30  49  72  97 123 157 197 238 284
#     4  10  20  33  51  75  99 127 162 204 250 293
#     4  10  19  31  49  72 100 132 167 206 248 297
#     4  10  20  34  53  76 103 133 165 201 246 298
#     4  10  20  33  51  75  99 127 162 204 250 293
#     4  10  18  30  49  72  97 123 157 197 238 284
#     4  10  20  34  53  76 103 133 165 201 246 298
#
# _framework density 16.986014999999998
#
# number of rings (size 3 to 8) (size 9 to 14) (size 15 to 20)
#    0.000    2.000    1.667    3.333    0.000    2.000 
#    0.000    2.500    0.000    3.333    0.000    2.333 
#    0.000    8.000    0.000    0.000    0.000    1.333 
#
# Total GULP energy -892959.965427 kJ/mol
# GULP energy per Si atom -12402.221742 kJ/mol
# Density = 1.694735 g / cm^3
# Si number density = 16.986015 Si / 1000 Ang^3
#
#
#
# Elastic Constant Matrix: (Units=GPa)
#
#
# Indices 1 2 3 4 5 6 
#
# 1 126.2761 92.4000 41.5471 0.0000 0.0000 0.0000
# 2 92.4000 126.2761 41.5471 0.0000 0.0000 0.0000
# 3 41.5471 41.5471 106.0315 0.0000 0.0000 0.0000
# 4 0.0000 0.0000 0.0000 22.3267 0.0000 0.0000
# 5 0.0000 0.0000 0.0000 0.0000 22.3267 0.0000
# 6 0.0000 0.0000 0.0000 0.0000 0.0000 16.9380
#
#
#
# Elastic Compliance Matrix: (Units=1/GPa)
#
#
# Indices 1 2 3 4 5 6 
#
# 1 0.017446 -0.012073 -0.002105 0.000000 0.000000 0.000000
# 2 -0.012073 0.017446 -0.002105 0.000000 0.000000 0.000000
# 3 -0.002105 -0.002105 0.011081 0.000000 0.000000 0.000000
# 4 0.000000 0.000000 0.000000 0.044789 0.000000 0.000000
# 5 0.000000 0.000000 0.000000 0.000000 0.044789 0.000000
# 6 0.000000 0.000000 0.000000 0.000000 0.000000 0.059039
#
#
# Mechanical properties :
#
#
# Convention : Reuss Voigt Hill
#
# Bulk Modulus (GPa) = 74.59526 78.84132 76.71829
# Shear Modulus (GPa) = 21.58642 24.52427 23.05534
#
# Velocity S-wave (km/s) = 3.56874 3.80385 3.68817
# Velocity P-wave (km/s) = 7.80976 8.11225 7.96244
#
# Compressibility (1/GPa) = 0.01340568
#
# Stress axis : x y z
#
# Youngs Moduli (GPa) = 57.31918 57.31918 90.24418
#
# Poissons Ratio (x) = 0.69203 0.18999
# Poissons Ratio (y) = 0.69203 0.18999
# Poissons Ratio (z) = 0.12068 0.12068
#
# Static dielectric constant tensor:
#      x y z
#    x 3.170700 0.000000 0.000000 
#    y 0.000000 3.170700 0.000000 
#    z 0.000000 0.000000 3.099030 
# 
# 
# High freq. dielectric constant tensor:
#      x y z
#    x 1.651540 0.000000 0.000000 
#    y 0.000000 1.651540 0.000000 
#    z 0.000000 0.000000 1.651750 
# 
# From -- ./inp_files/1972.got.cif
#   From: 2010.03.12/outbox.cif.g09.slc.cpg/sg175_1_cif.got.tgz:1972.got - 2010.04.02 06:55:29.
