data_PCOD8325469
_publ_section_title
;
Structure prediction by ZEFSAII (Michael W. Deem and Ramdas Pophale) SiO2 
 PCOD8325469
Probable space group: P 63/M
;
_chemical_formula_sum "Si O2"
_cell_formula_units_Z 72
_cell_length_a 23.919231
_cell_length_b 23.919231
_cell_length_c 8.989833
_cell_angle_alpha 90.000000
_cell_angle_beta 90.000000
_cell_angle_gamma 120.000000
_cell_volume 4454.271469
_symmetry_space_group_name_H-M "P 63/M"
_symmetry_group_IT_number 176
_symmetry_cell_setting 'hexagonal'
loop_
_space_group_symop_operation_xyz
x,y,z
x-y,x,1/2+z
-y,x-y,z
-x,-y,1/2+z
-x+y,-x,z
y,-x+y,1/2+z
-x,-y,-z
-x+y,-x,1/2-z
y,-x+y,-z
x,y,1/2-z
x-y,x,-z
-y,x-y,1/2-z
loop_
_atom_site_type_symbol
_atom_site_label
_atom_site_fract_x
_atom_site_fract_y
_atom_site_fract_z
Si Si1 0.624998 0.139127 0.925903
Si Si2 0.822479 0.635726 0.586481
Si Si3 0.736433 0.482924 0.586267
Si Si4 0.629231 0.489048 0.074653
Si Si5 0.071143 0.695918 0.423125
Si Si6 0.076818 0.378008 0.577623
O O1 0.616191 0.128451 0.750000
O O2 0.672783 0.215225 0.964802
O O3 0.556653 0.116237 0.002609
O O4 0.652642 0.094825 0.986749
O O5 0.850803 0.664175 0.750000
O O6 0.780442 0.559163 0.596030
O O7 0.772173 0.658647 0.532524
O O8 0.881551 0.655311 0.473459
O O9 0.706899 0.455384 0.750000
O O10 0.678348 0.463718 0.471400
O O11 0.622271 0.486351 0.250000
O O12 0.653127 0.561107 0.019504
O O13 0.083513 0.687350 0.250000
O O14 0.997282 0.673928 0.454637
O O15 0.090463 0.396250 0.750000
#
# Coordination Sequence:
#
# PCOD8325469 Si02
#       6
#    12  12  12  12  12  12
#     4  10  20  34  49  63  86 119 149 183 234 291
#     4   8  15  30  49  66  88 119 147 173 212 266
#     4   8  16  32  49  61  78 111 146 175 222 286
#     4  11  21  31  47  68  88 111 146 196 239 271
#     4   9  19  34  49  66  93 126 152 176 221 281
#     4  10  19  31  49  72  93 116 151 191 224 259
#
# _framework density 16.164259000000001
#
# number of rings (size 3 to 8) (size 9 to 14) (size 15 to 20)
#    0.000    2.667    0.000    4.500    0.000    8.667 
#    1.000    0.000    0.000    0.000    0.000    0.000 
#    0.000    0.000    0.000    0.500    0.000    6.000 
#
# Total GULP energy -892424.343918 kJ/mol
# GULP energy per Si atom -12394.782554 kJ/mol
# Density = 1.612747 g / cm^3
# Si number density = 16.164259 Si / 1000 Ang^3
#
#
#
# Elastic Constant Matrix: (Units=GPa)
#
#
# Indices 1 2 3 4 5 6 
#
# 1 78.1676 48.0796 47.2644 0.0000 0.0000 0.0000
# 2 48.0796 78.1676 47.2644 0.0000 0.0000 0.0000
# 3 47.2644 47.2644 103.0691 0.0000 0.0000 0.0000
# 4 0.0000 0.0000 0.0000 22.3047 0.0000 0.0000
# 5 0.0000 0.0000 0.0000 0.0000 22.3047 0.0000
# 6 0.0000 0.0000 0.0000 0.0000 0.0000 15.0440
#
#
#
# Elastic Compliance Matrix: (Units=1/GPa)
#
#
# Indices 1 2 3 4 5 6 
#
# 1 0.022649 -0.010586 -0.005532 0.000000 0.000000 0.000000
# 2 -0.010586 0.022649 -0.005532 0.000000 0.000000 0.000000
# 3 -0.005532 -0.005532 0.014776 0.000000 0.000000 0.000000
# 4 0.000000 0.000000 0.000000 0.044834 0.000000 0.000000
# 5 0.000000 0.000000 0.000000 0.000000 0.044834 0.000000
# 6 0.000000 0.000000 0.000000 0.000000 0.000000 0.066472
#
#
# Mechanical properties :
#
#
# Convention : Reuss Voigt Hill
#
# Bulk Modulus (GPa) = 59.61397 60.51346 60.06372
# Shear Modulus (GPa) = 18.86051 19.71708 19.28879
#
# Velocity S-wave (km/s) = 3.41956 3.49634 3.45816
# Velocity P-wave (km/s) = 7.24923 7.33601 7.29275
#
# Compressibility (1/GPa) = 0.01677459
#
# Stress axis : x y z
#
# Youngs Moduli (GPa) = 44.15142 44.15142 67.67948
#
# Poissons Ratio (x) = 0.46741 0.37438
# Poissons Ratio (y) = 0.46741 0.37438
# Poissons Ratio (z) = 0.24423 0.24423
#
# Static dielectric constant tensor:
#      x y z
#    x 3.119520 0.000000 0.000000 
#    y 0.000000 3.119520 0.000000 
#    z 0.000000 0.000000 3.109420 
# 
# 
# High freq. dielectric constant tensor:
#      x y z
#    x 1.595590 0.000000 0.000000 
#    y 0.000000 1.595590 0.000000 
#    z 0.000000 0.000000 1.627250 
# 
# From -- ./inp_files/1145.got.cif
#   From: 2010.06.25/outbox.cif.g09.slc.cpg/sg176_1_cif.got.tgz:1145.got - 2010.06.28 12:15:01.
