data_PCOD8325823
_publ_section_title
;
Structure prediction by ZEFSAII (Michael W. Deem and Ramdas Pophale) SiO2 
 PCOD8325823
Probable space group: P 61 2 2
;
_chemical_formula_sum "Si O2"
_cell_formula_units_Z 78
_cell_length_a 18.054364
_cell_length_b 18.054364
_cell_length_c 15.075935
_cell_angle_alpha 90.000000
_cell_angle_beta 90.000000
_cell_angle_gamma 120.000000
_cell_volume 4255.781049
_symmetry_space_group_name_H-M "P 61 2 2"
_symmetry_group_IT_number 178
_symmetry_cell_setting 'hexagonal'
loop_
_space_group_symop_operation_xyz
x,y,z
x-y,x,1/6+z
-y,x-y,1/3+z
-x,-y,1/2+z
-x+y,-x,2/3+z
y,-x+y,5/6+z
x-y,-y,-z
-x,-x+y,2/3-z
y,x,1/3-z
-y,-x,5/6-z
-x+y,y,1/2-z
x,x-y,1/6-z
loop_
_atom_site_type_symbol
_atom_site_label
_atom_site_fract_x
_atom_site_fract_y
_atom_site_fract_z
Si Si1 0.724596 0.018573 0.185821
Si Si2 0.192255 0.636024 0.902267
Si Si3 0.048515 0.595812 0.036020
Si Si4 0.807369 0.665257 0.469144
Si Si5 0.283866 0.473781 0.658578
Si Si6 0.925329 0.334685 0.272020
Si Si7 0.000000 0.651749 0.333334
O O1 0.722974 0.944698 0.246838
O O2 0.669531 0.057041 0.230793
O O3 0.820980 0.095996 0.170307
O O4 0.692928 0.984018 0.087282
O O5 0.275687 0.724314 0.916667
O O6 0.222984 0.567286 0.882679
O O7 0.138673 0.642309 0.821097
O O8 0.138808 0.619979 0.992218
O O9 0.013141 0.506571 0.083334
O O10 0.972220 0.566921 0.968155
O O11 0.794767 0.586505 0.408206
O O12 0.757017 0.630171 0.560459
O O13 0.239683 0.479366 0.750000
O O14 0.351599 0.439087 0.664351
O O15 0.000000 0.336810 0.333334
#
# Coordination Sequence:
#
# PCOD8325823 Si02
#       7
#    12  12  12  12  12  12   6
#     4  10  20  33  60  81 121 141 189 239 290 343
#     4  11  24  37  54  77 119 159 195 237 287 342
#     4  10  20  35  55  82 105 155 198 239 290 328
#     4  10  20  38  56  87 114 149 186 242 286 347
#     4  11  23  36  57  83 115 150 193 236 294 337
#     4   9  21  37  58  82 113 150 196 237 282 336
#     4  10  20  36  56  82 112 142 184 246 284 346
#
# _framework density 18.328009999999999
#
# number of rings (size 3 to 8) (size 9 to 14) (size 15 to 20)
#    0.000    1.846    1.538    2.769    5.385    1.846 
#    0.000    0.769    0.000    0.000    0.000    0.000 
#   46.154    0.000    0.000    0.000    0.000    0.000 
#
# Total GULP energy -966641.623273 kJ/mol
# GULP energy per Si atom -12392.841324 kJ/mol
# Density = 1.828629 g / cm^3
# Si number density = 18.328010 Si / 1000 Ang^3
#
#
#
# Elastic Constant Matrix: (Units=GPa)
#
#
# Indices 1 2 3 4 5 6 
#
# 1 84.1208 40.8152 37.7177 0.0000 0.0000 0.0000
# 2 40.8152 84.1208 37.7177 0.0000 0.0000 0.0000
# 3 37.7177 37.7177 102.2738 0.0000 0.0000 0.0000
# 4 0.0000 0.0000 0.0000 8.0442 0.0000 0.0000
# 5 0.0000 0.0000 0.0000 0.0000 8.0442 0.0000
# 6 0.0000 0.0000 0.0000 0.0000 0.0000 21.6528
#
#
#
# Elastic Compliance Matrix: (Units=1/GPa)
#
#
# Indices 1 2 3 4 5 6 
#
# 1 0.016694 -0.006397 -0.003797 0.000000 0.000000 0.000000
# 2 -0.006397 0.016694 -0.003797 0.000000 0.000000 0.000000
# 3 -0.003797 -0.003797 0.012579 0.000000 0.000000 0.000000
# 4 0.000000 0.000000 0.000000 0.124313 0.000000 0.000000
# 5 0.000000 0.000000 0.000000 0.000000 0.124313 0.000000
# 6 0.000000 0.000000 0.000000 0.000000 0.000000 0.046183
#
#
# Mechanical properties :
#
#
# Convention : Reuss Voigt Hill
#
# Bulk Modulus (GPa) = 55.60873 55.89075 55.74974
# Shear Modulus (GPa) = 13.34204 17.83257 15.58731
#
# Velocity S-wave (km/s) = 2.70100 3.12263 2.91944
# Velocity P-wave (km/s) = 6.33513 6.60015 6.46900
#
# Compressibility (1/GPa) = 0.01798279
#
# Stress axis : x y z
#
# Youngs Moduli (GPa) = 59.90064 59.90064 79.50009
#
# Poissons Ratio (x) = 0.38321 0.30190
# Poissons Ratio (y) = 0.38321 0.30190
# Poissons Ratio (z) = 0.22747 0.22747
#
# Static dielectric constant tensor:
#      x y z
#    x 3.374620 0.000000 0.000000 
#    y 0.000000 3.374620 0.000000 
#    z 0.000000 0.000000 3.181660 
# 
# 
# High freq. dielectric constant tensor:
#      x y z
#    x 1.698790 0.000000 0.000000 
#    y 0.000000 1.698790 0.000000 
#    z 0.000000 0.000000 1.732840 
# 
# From -- ./inp_files/5979.got.cif
#   From: 2010.03.12/outbox.cif.g09.slc.cpg/sg178_3_cif.got.tgz:5979.got - 2010.04.02 07:02:38.
