data_PCOD8325084
_publ_section_title
;
Structure prediction by ZEFSAII (Michael W. Deem and Ramdas Pophale) SiO2 
 PCOD8325084
Probable space group: P 6/M
;
_chemical_formula_sum "Si O2"
_cell_formula_units_Z 72
_cell_length_a 23.926118
_cell_length_b 23.926118
_cell_length_c 8.739554
_cell_angle_alpha 90.000000
_cell_angle_beta 90.000000
_cell_angle_gamma 120.000000
_cell_volume 4332.757497
_symmetry_space_group_name_H-M "P 6/M"
_symmetry_group_IT_number 175
_symmetry_cell_setting 'hexagonal'
loop_
_space_group_symop_operation_xyz
x,y,z
x-y,x,z
-y,x-y,z
-x,-y,z
-x+y,-x,z
y,-x+y,z
-x,-y,-z
-x+y,-x,-z
y,-x+y,-z
x,y,-z
x-y,x,-z
-y,x-y,-z
loop_
_atom_site_type_symbol
_atom_site_label
_atom_site_fract_x
_atom_site_fract_y
_atom_site_fract_z
Si Si1 0.522238 0.930822 0.679093
Si Si2 0.593159 0.067666 0.180329
Si Si3 0.738838 0.596070 0.321719
Si Si4 0.410557 0.260760 0.179505
Si Si5 0.192590 0.928214 0.180826
Si Si6 0.929437 0.195368 0.181981
O O1 0.511390 0.934862 0.500000
O O2 0.454920 0.907450 0.766377
O O3 0.544281 0.879179 0.716918
O O4 0.576171 0.001241 0.736574
O O5 0.665201 0.122251 0.226289
O O6 0.587019 0.054761 0.000000
O O7 0.749355 0.611379 0.500000
O O8 0.782760 0.566277 0.265887
O O9 0.756599 0.661809 0.235682
O O10 0.337998 0.240122 0.231720
O O11 0.412659 0.249271 0.000000
O O12 0.120000 0.877784 0.238858
O O13 0.217981 0.999431 0.251321
O O14 0.192735 0.933711 0.000000
O O15 0.931162 0.198078 0.000000
#
# Coordination Sequence:
#
# PCOD8325084 Si02
#       6
#    12  12  12  12  12  12
#     4  10  20  32  46  68  98 127 152 183 227 273
#     4  10  19  31  50  73  93 119 155 189 225 270
#     4  10  20  31  45  67  92 120 151 182 223 271
#     4   9  18  31  47  68  91 117 150 187 227 268
#     4   8  14  25  43  64  86 115 147 181 222 265
#     4   9  16  28  45  64  88 118 152 188 226 269
#
# _framework density 16.617592999999999
#
# number of rings (size 3 to 8) (size 9 to 14) (size 15 to 20)
#    0.000    2.667    0.000    4.500    0.000    5.333 
#    0.000    5.000    0.000    1.000    0.000    2.333 
#    0.000    0.000    0.000    6.000    0.000    6.667 
#
# Total GULP energy -892576.376465 kJ/mol
# GULP energy per Si atom -12396.894118 kJ/mol
# Density = 1.657977 g / cm^3
# Si number density = 16.617593 Si / 1000 Ang^3
#
#
#
# Elastic Constant Matrix: (Units=GPa)
#
#
# Indices 1 2 3 4 5 6 
#
# 1 119.3531 65.5253 19.6122 0.0000 0.0000 0.0000
# 2 65.5253 119.3531 19.6122 0.0000 0.0000 0.0000
# 3 19.6122 19.6122 23.4687 0.0000 0.0000 0.0000
# 4 0.0000 0.0000 0.0000 18.5435 0.0000 0.0000
# 5 0.0000 0.0000 0.0000 0.0000 18.5435 0.0000
# 6 0.0000 0.0000 0.0000 0.0000 0.0000 26.9139
#
#
#
# Elastic Compliance Matrix: (Units=1/GPa)
#
#
# Indices 1 2 3 4 5 6 
#
# 1 0.012576 -0.006002 -0.005494 0.000000 0.000000 0.000000
# 2 -0.006002 0.012576 -0.005494 0.000000 0.000000 0.000000
# 3 -0.005494 -0.005494 0.051793 0.000000 0.000000 0.000000
# 4 0.000000 0.000000 0.000000 0.053927 0.000000 0.000000
# 5 0.000000 0.000000 0.000000 0.000000 0.053927 0.000000
# 6 0.000000 0.000000 0.000000 0.000000 0.000000 0.037156
#
#
# Mechanical properties :
#
#
# Convention : Reuss Voigt Hill
#
# Bulk Modulus (GPa) = 23.27472 52.40826 37.84149
# Shear Modulus (GPa) = 18.50088 23.29517 20.89802
#
# Velocity S-wave (km/s) = 3.34028 3.74817 3.55009
# Velocity P-wave (km/s) = 5.37709 7.09493 6.29488
#
# Compressibility (1/GPa) = 0.04296506
#
# Stress axis : x y z
#
# Youngs Moduli (GPa) = 79.51527 79.51527 19.30767
#
# Poissons Ratio (x) = 0.47722 0.10608
# Poissons Ratio (y) = 0.47722 0.10608
# Poissons Ratio (z) = 0.43688 0.43688
#
# Static dielectric constant tensor:
#      x y z
#    x 3.267970 0.000000 0.000000 
#    y 0.000000 3.267970 0.000000 
#    z 0.000000 0.000000 3.027790 
# 
# 
# High freq. dielectric constant tensor:
#      x y z
#    x 1.632080 0.000000 0.000000 
#    y 0.000000 1.632080 0.000000 
#    z 0.000000 0.000000 1.631610 
# 
# From -- ./inp_files/1168.got.cif
#   From: 2010.03.12/outbox.cif.g09.slc.cpg/sg175_1_cif.got.tgz:1168.got - 2010.04.02 06:55:29.
