data_PCOD8325751
_publ_section_title
;
Structure prediction by ZEFSAII (Michael W. Deem and Ramdas Pophale) SiO2 
 PCOD8325751
Probable space group: P 6 2 2
;
_chemical_formula_sum "Si O2"
_cell_formula_units_Z 72
_cell_length_a 26.349823
_cell_length_b 26.349823
_cell_length_c 7.593689
_cell_angle_alpha 90.000000
_cell_angle_beta 90.000000
_cell_angle_gamma 120.000000
_cell_volume 4566.030865
_symmetry_space_group_name_H-M "P 6 2 2"
_symmetry_group_IT_number 177
_symmetry_cell_setting 'hexagonal'
loop_
_space_group_symop_operation_xyz
x,y,z
x-y,x,z
-y,x-y,z
-x,-y,z
-x+y,-x,z
y,-x+y,z
x-y,-y,-z
-x,-x+y,-z
y,x,-z
-y,-x,-z
-x+y,y,-z
x,x-y,-z
loop_
_atom_site_type_symbol
_atom_site_label
_atom_site_fract_x
_atom_site_fract_y
_atom_site_fract_z
Si Si1 0.333373 0.784499 0.299340
Si Si2 0.179942 0.245204 0.299778
Si Si3 0.291335 0.462357 0.000000
Si Si4 0.820058 0.754796 0.700222
Si Si5 0.774005 0.667334 0.000000
Si Si6 0.784499 0.451126 0.700659
O O1 0.326686 0.830120 0.174533
O O2 0.333153 0.803921 0.500000
O O3 0.281434 0.718566 0.265759
O O4 0.393093 0.786186 0.250722
O O5 0.194101 0.268510 0.500000
O O6 0.112464 0.224928 0.251240
O O7 0.189659 0.189659 0.273513
O O8 0.225197 0.297745 0.174964
O O9 0.283574 0.397294 0.000000
O O10 0.228566 0.457131 0.000000
O O11 0.326686 0.496566 0.174534
O O12 0.774803 0.702255 0.825036
O O13 0.829754 0.659507 0.000000
#
# Coordination Sequence:
#
# PCOD8325751 Si02
#       6
#    12  12  12  12  12  12
#     4   9  16  25  37  53  75 105 140 175 210 251
#     4   9  17  29  46  67  90 116 143 169 197 232
#     4   9  17  26  36  53  77 106 139 173 209 249
#     4   9  17  29  46  67  90 116 143 169 197 232
#     4   9  17  28  41  59  84 113 143 172 205 245
#     4   9  16  25  37  53  75 105 140 175 210 251
#
# _framework density 15.76862
#
# number of rings (size 3 to 8) (size 9 to 14) (size 15 to 20)
#    0.000    3.000    0.000    1.333    0.000    2.667 
#    0.000    8.333    0.000    0.333    0.000    2.333 
#    0.000   14.667    0.000   29.667    0.000    2.667 
#
# Total GULP energy -892431.351062 kJ/mol
# GULP energy per Si atom -12394.879876 kJ/mol
# Density = 1.573273 g / cm^3
# Si number density = 15.768620 Si / 1000 Ang^3
#
#
#
# Elastic Constant Matrix: (Units=GPa)
#
#
# Indices 1 2 3 4 5 6 
#
# 1 82.1165 49.8160 52.2323 0.0000 0.0000 0.0000
# 2 49.8160 82.1165 52.2323 0.0000 0.0000 0.0000
# 3 52.2323 52.2323 109.9098 0.0000 0.0000 0.0000
# 4 0.0000 0.0000 0.0000 20.1859 0.0000 0.0000
# 5 0.0000 0.0000 0.0000 0.0000 20.1859 0.0000
# 6 0.0000 0.0000 0.0000 0.0000 0.0000 16.1503
#
#
#
# Elastic Compliance Matrix: (Units=1/GPa)
#
#
# Indices 1 2 3 4 5 6 
#
# 1 0.021556 -0.009403 -0.005775 0.000000 0.000000 0.000000
# 2 -0.009403 0.021556 -0.005775 0.000000 0.000000 0.000000
# 3 -0.005775 -0.005775 0.014587 0.000000 0.000000 0.000000
# 4 0.000000 0.000000 0.000000 0.049540 0.000000 0.000000
# 5 0.000000 0.000000 0.000000 0.000000 0.049540 0.000000
# 6 0.000000 0.000000 0.000000 0.000000 0.000000 0.061918
#
#
# Mechanical properties :
#
#
# Convention : Reuss Voigt Hill
#
# Bulk Modulus (GPa) = 63.32493 64.74491 64.03492
# Shear Modulus (GPa) = 18.80631 19.29522 19.05076
#
# Velocity S-wave (km/s) = 3.45721 3.50186 3.47961
# Velocity P-wave (km/s) = 7.49549 7.58282 7.53928
#
# Compressibility (1/GPa) = 0.01579157
#
# Stress axis : x y z
#
# Youngs Moduli (GPa) = 46.39116 46.39116 68.55205
#
# Poissons Ratio (x) = 0.43623 0.39590
# Poissons Ratio (y) = 0.43623 0.39590
# Poissons Ratio (z) = 0.26792 0.26792
#
# Static dielectric constant tensor:
#      x y z
#    x 2.928270 0.000000 0.000000 
#    y 0.000000 2.928270 0.000000 
#    z 0.000000 0.000000 3.254130 
# 
# 
# High freq. dielectric constant tensor:
#      x y z
#    x 1.573900 0.000000 0.000000 
#    y 0.000000 1.573900 0.000000 
#    z 0.000000 0.000000 1.625940 
# 
# From -- ./inp_files/1515.got.cif
#   From: 2010.03.12/outbox.cif.g09.slc.cpg/sg177_1_cif.got.tgz:1515.got - 2010.04.02 07:00:27.
