data_PCOD8325784
_publ_section_title
;
Structure prediction by ZEFSAII (Michael W. Deem and Ramdas Pophale) SiO2 
 PCOD8325784
Probable space group: P 61 2 2
;
_chemical_formula_sum "Si O2"
_cell_formula_units_Z 66
_cell_length_a 18.040977
_cell_length_b 18.040977
_cell_length_c 15.383021
_cell_angle_alpha 90.000000
_cell_angle_beta 90.000000
_cell_angle_gamma 120.000000
_cell_volume 4336.030918
_symmetry_space_group_name_H-M "P 61 2 2"
_symmetry_group_IT_number 178
_symmetry_cell_setting 'hexagonal'
loop_
_space_group_symop_operation_xyz
x,y,z
x-y,x,1/6+z
-y,x-y,1/3+z
-x,-y,1/2+z
-x+y,-x,2/3+z
y,-x+y,5/6+z
x-y,-y,-z
-x,-x+y,2/3-z
y,x,1/3-z
-y,-x,5/6-z
-x+y,y,1/2-z
x,x-y,1/6-z
loop_
_atom_site_type_symbol
_atom_site_label
_atom_site_fract_x
_atom_site_fract_y
_atom_site_fract_z
Si Si1 0.672178 0.344355 0.750000
Si Si2 0.575002 0.619270 0.251468
Si Si3 0.752486 0.229499 0.120298
Si Si4 0.800786 0.473743 0.630788
Si Si5 0.553102 0.955683 0.587686
Si Si6 0.378549 0.450713 0.917434
O O1 0.570425 0.289650 0.743334
O O2 0.707839 0.404430 0.665615
O O3 0.630940 0.630940 0.166667
O O4 0.575048 0.707947 0.253769
O O5 0.479651 0.541809 0.237717
O O6 0.615638 0.601865 0.336372
O O7 0.745267 0.221386 0.225215
O O8 0.850138 0.281533 0.089174
O O9 0.844452 0.422226 0.583334
O O10 0.862724 0.535418 0.708807
O O11 0.609717 0.000000 0.500000
O O12 0.606648 0.020656 0.661945
O O13 0.447722 0.552278 0.916667
#
# Coordination Sequence:
#
# PCOD8325784 Si02
#       6
#     6  12  12  12  12  12
#     4  10  20  28  42  68  88 124 162 208 250 278
#     4  10  20  34  48  62  92 129 158 207 259 293
#     4  11  20  34  47  69  94 124 164 220 249 288
#     4  10  18  32  45  59  97 122 153 210 260 284
#     4  10  18  31  47  64  88 128 159 196 256 308
#     4  10  20  33  48  69  92 122 168 208 247 301
#
# _framework density 15.221292999999999
#
# number of rings (size 3 to 8) (size 9 to 14) (size 15 to 20)
#    0.000    1.818    6.364    0.545    2.545    2.182 
#    3.273    0.000    0.000    0.000    0.000    0.000 
#    0.000    0.000    0.000    0.000    0.000   16.364 
#
# Total GULP energy -817624.328093 kJ/mol
# GULP energy per Si atom -12388.247395 kJ/mol
# Density = 1.518665 g / cm^3
# Si number density = 15.221293 Si / 1000 Ang^3
#
#
#
# Elastic Constant Matrix: (Units=GPa)
#
#
# Indices 1 2 3 4 5 6 
#
# 1 66.8653 31.1645 28.9077 0.0000 0.0000 0.0000
# 2 31.1645 66.8653 28.9077 0.0000 0.0000 0.0000
# 3 28.9077 28.9077 105.0738 0.0000 0.0000 0.0000
# 4 0.0000 0.0000 0.0000 10.6406 0.0000 0.0000
# 5 0.0000 0.0000 0.0000 0.0000 10.6406 0.0000
# 6 0.0000 0.0000 0.0000 0.0000 0.0000 17.8504
#
#
#
# Elastic Compliance Matrix: (Units=1/GPa)
#
#
# Indices 1 2 3 4 5 6 
#
# 1 0.020094 -0.007917 -0.003350 0.000000 0.000000 0.000000
# 2 -0.007917 0.020094 -0.003350 0.000000 0.000000 0.000000
# 3 -0.003350 -0.003350 0.011360 0.000000 0.000000 0.000000
# 4 0.000000 0.000000 0.000000 0.093980 0.000000 0.000000
# 5 0.000000 0.000000 0.000000 0.000000 0.093980 0.000000
# 6 0.000000 0.000000 0.000000 0.000000 0.000000 0.056021
#
#
# Mechanical properties :
#
#
# Convention : Reuss Voigt Hill
#
# Bulk Modulus (GPa) = 44.81539 46.30712 45.56125
# Shear Modulus (GPa) = 15.05116 17.81463 16.43290
#
# Velocity S-wave (km/s) = 3.14797 3.42479 3.28929
# Velocity P-wave (km/s) = 6.53601 6.79172 6.66509
#
# Compressibility (1/GPa) = 0.02231376
#
# Stress axis : x y z
#
# Youngs Moduli (GPa) = 49.76699 49.76699 88.02486
#
# Poissons Ratio (x) = 0.39400 0.29489
# Poissons Ratio (y) = 0.39400 0.29489
# Poissons Ratio (z) = 0.16672 0.16672
#
# Static dielectric constant tensor:
#      x y z
#    x 2.847810 0.000000 0.000000 
#    y 0.000000 2.847810 0.000000 
#    z 0.000000 0.000000 3.362090 
# 
# 
# High freq. dielectric constant tensor:
#      x y z
#    x 1.543800 0.000000 0.000000 
#    y 0.000000 1.543800 0.000000 
#    z 0.000000 0.000000 1.604350 
# 
# From -- ./inp_files/5914.got.cif
#   From: 2010.03.12/outbox.cif.g09.slc.cpg/sg178_3_cif.got.tgz:5914.got - 2010.04.02 07:02:38.
