data_PCOD8325596
_publ_section_title
;
Structure prediction by ZEFSAII (Michael W. Deem and Ramdas Pophale) SiO2 
 PCOD8325596
Probable space group: P 63/M
;
_chemical_formula_sum "Si O2"
_cell_formula_units_Z 42
_cell_length_a 8.490235
_cell_length_b 8.490235
_cell_length_c 31.555800
_cell_angle_alpha 90.000000
_cell_angle_beta 90.000000
_cell_angle_gamma 120.000000
_cell_volume 1969.922991
_symmetry_space_group_name_H-M "P 63/M"
_symmetry_group_IT_number 176
_symmetry_cell_setting 'hexagonal'
loop_
_space_group_symop_operation_xyz
x,y,z
x-y,x,1/2+z
-y,x-y,z
-x,-y,1/2+z
-x+y,-x,z
y,-x+y,1/2+z
-x,-y,-z
-x+y,-x,1/2-z
y,-x+y,-z
x,y,1/2-z
x-y,x,-z
-y,x-y,1/2-z
loop_
_atom_site_type_symbol
_atom_site_label
_atom_site_fract_x
_atom_site_fract_y
_atom_site_fract_z
Si Si1 0.325287 0.012989 0.338698
Si Si2 0.530149 0.427133 0.456505
Si Si3 0.281459 0.440997 0.750000
Si Si4 0.353147 0.359500 0.371538
O O1 0.309313 0.061892 0.290087
O O2 0.390822 0.192246 0.367404
O O3 0.480940 0.958248 0.339022
O O4 0.140128 0.855225 0.359055
O O5 0.460643 0.211046 0.453901
O O6 0.500000 0.500000 0.500000
O O7 0.417883 0.453702 0.418189
O O8 0.484622 0.621997 0.750000
#
# Coordination Sequence:
#
# PCOD8325596 Si02
#       4
#    12  12   6  12
#     4  12  24  42  72  98 139 184 229 292 349 434
#     4  10  23  41  68 100 139 180 234 295 359 422
#     4  10  20  42  72  96 134 178 226 292 362 400
#     4  12  24  45  66 106 138 188 234 285 365 429
#
# _framework density 21.320627999999999
#
# number of rings (size 3 to 8) (size 9 to 14) (size 15 to 20)
#    0.857    0.000    5.714    1.714    4.000    2.286 
#    0.000    0.000    0.000    2.286    0.000    0.000 
#    0.000    0.000    0.000    0.000    0.000    0.000 
#
# Total GULP energy -520331.309511 kJ/mol
# GULP energy per Si atom -12388.840703 kJ/mol
# Density = 2.127210 g / cm^3
# Si number density = 21.320628 Si / 1000 Ang^3
#
#
#
# Elastic Constant Matrix: (Units=GPa)
#
#
# Indices 1 2 3 4 5 6 
#
# 1 83.3979 15.4205 43.5180 0.0000 0.0000 0.0000
# 2 15.4205 83.3979 43.5180 0.0000 0.0000 0.0000
# 3 43.5180 43.5180 182.2539 0.0000 0.0000 0.0000
# 4 0.0000 0.0000 0.0000 37.9855 0.0000 0.0000
# 5 0.0000 0.0000 0.0000 0.0000 37.9855 0.0000
# 6 0.0000 0.0000 0.0000 0.0000 0.0000 33.9887
#
#
#
# Elastic Compliance Matrix: (Units=1/GPa)
#
#
# Indices 1 2 3 4 5 6 
#
# 1 0.013763 -0.000948 -0.003060 0.000000 0.000000 0.000000
# 2 -0.000948 0.013763 -0.003060 0.000000 0.000000 0.000000
# 3 -0.003060 -0.003060 0.006948 0.000000 0.000000 0.000000
# 4 0.000000 0.000000 0.000000 0.026326 0.000000 0.000000
# 5 0.000000 0.000000 0.000000 0.000000 0.026326 0.000000
# 6 0.000000 0.000000 0.000000 0.000000 0.000000 0.029422
#
#
# Mechanical properties :
#
#
# Convention : Reuss Voigt Hill
#
# Bulk Modulus (GPa) = 49.16926 61.55145 55.36035
# Shear Modulus (GPa) = 36.37383 38.43148 37.40265
#
# Velocity S-wave (km/s) = 4.13490 4.25025 4.19297
# Velocity P-wave (km/s) = 6.77558 7.28136 7.03302
#
# Compressibility (1/GPa) = 0.02033791
#
# Stress axis : x y z
#
# Youngs Moduli (GPa) = 72.66033 72.66033 143.92464
#
# Poissons Ratio (x) = 0.06889 0.44038
# Poissons Ratio (y) = 0.06889 0.44038
# Poissons Ratio (z) = 0.22233 0.22233
#
# Static dielectric constant tensor:
#      x y z
#    x 3.586470 0.000000 0.000000 
#    y 0.000000 3.586470 0.000000 
#    z 0.000000 0.000000 3.821140 
# 
# 
# High freq. dielectric constant tensor:
#      x y z
#    x 1.819180 0.000000 0.000000 
#    y 0.000000 1.819180 0.000000 
#    z 0.000000 0.000000 1.847310 
# 
# From -- ./inp_files/4418.got.cif
#   From: 2010.06.25/outbox.cif.g09.slc.cpg/sg176_3_cif.got.tgz:4418.got - 2010.06.28 12:15:01.
