data_PCOD8325513
_publ_section_title
;
Structure prediction by ZEFSAII (Michael W. Deem and Ramdas Pophale) SiO2 
 PCOD8325513
Probable space group: P 63/M
;
_chemical_formula_sum "Si O2"
_cell_formula_units_Z 66
_cell_length_a 21.277937
_cell_length_b 21.277937
_cell_length_c 8.182986
_cell_angle_alpha 90.000000
_cell_angle_beta 90.000000
_cell_angle_gamma 120.000000
_cell_volume 3208.495816
_symmetry_space_group_name_H-M "P 63/M"
_symmetry_group_IT_number 176
_symmetry_cell_setting 'hexagonal'
loop_
_space_group_symop_operation_xyz
x,y,z
x-y,x,1/2+z
-y,x-y,z
-x,-y,1/2+z
-x+y,-x,z
y,-x+y,1/2+z
-x,-y,-z
-x+y,-x,1/2-z
y,-x+y,-z
x,y,1/2-z
x-y,x,-z
-y,x-y,1/2-z
loop_
_atom_site_type_symbol
_atom_site_label
_atom_site_fract_x
_atom_site_fract_y
_atom_site_fract_z
Si Si1 0.226324 0.938889 0.062314
Si Si2 0.102956 0.794862 0.560436
Si Si3 0.657807 0.250185 0.750000
Si Si4 0.599043 0.166752 0.066270
Si Si5 0.116737 0.668452 0.439694
Si Si6 0.954120 0.589743 0.064067
O O1 0.204798 0.933293 0.250000
O O2 0.254520 0.020798 0.994215
O O3 0.153209 0.880690 0.969743
O O4 0.289438 0.918325 0.037902
O O5 0.097848 0.776494 0.750000
O O6 0.139374 0.751989 0.473855
O O7 0.734379 0.324681 0.750000
O O8 0.655242 0.211783 0.578659
O O9 0.627946 0.198598 0.250000
O O10 0.591535 0.088264 0.047426
O O11 0.522175 0.163205 0.041657
O O12 0.125760 0.656486 0.250000
O O13 0.034619 0.617740 0.501578
O O14 0.956571 0.614869 0.250000
#
# Coordination Sequence:
#
# PCOD8325513 Si02
#       6
#    12  12   6  12  12  12
#     4  10  21  36  58  87 118 156 195 239 293 350
#     4  10  21  37  57  86 121 155 196 242 290 352
#     4  10  26  46  58  76 108 148 202 252 294 348
#     4  11  22  39  63  87 113 154 200 247 307 357
#     4  10  19  35  58  87 123 153 189 239 296 357
#     4   9  20  35  56  88 120 151 190 239 295 355
#
# _framework density 20.570388000000001
#
# number of rings (size 3 to 8) (size 9 to 14) (size 15 to 20)
#    0.182    1.818    0.909    2.182    1.273    5.091 
#    0.000    1.818    0.000    0.364    0.000    0.000 
#    0.000    0.000    0.000    0.000    0.000    0.000 
#
# Total GULP energy -818083.818531 kJ/mol
# GULP energy per Si atom -12395.209372 kJ/mol
# Density = 2.052357 g / cm^3
# Si number density = 20.570388 Si / 1000 Ang^3
#
#
#
# Elastic Constant Matrix: (Units=GPa)
#
#
# Indices 1 2 3 4 5 6 
#
# 1 67.7081 14.1837 13.2300 0.0000 0.0000 0.0000
# 2 14.1837 67.7081 13.2300 0.0000 0.0000 0.0000
# 3 13.2300 13.2300 96.0024 0.0000 0.0000 0.0000
# 4 0.0000 0.0000 0.0000 26.1355 0.0000 0.0000
# 5 0.0000 0.0000 0.0000 0.0000 26.1355 0.0000
# 6 0.0000 0.0000 0.0000 0.0000 0.0000 26.7622
#
#
#
# Elastic Compliance Matrix: (Units=1/GPa)
#
#
# Indices 1 2 3 4 5 6 
#
# 1 0.015732 -0.002951 -0.001761 0.000000 0.000000 0.000000
# 2 -0.002951 0.015732 -0.001761 0.000000 0.000000 0.000000
# 3 -0.001761 -0.001761 0.010902 0.000000 0.000000 0.000000
# 4 0.000000 0.000000 0.000000 0.038262 0.000000 0.000000
# 5 0.000000 0.000000 0.000000 0.000000 0.038262 0.000000
# 6 0.000000 0.000000 0.000000 0.000000 0.000000 0.037366
#
#
# Mechanical properties :
#
#
# Convention : Reuss Voigt Hill
#
# Bulk Modulus (GPa) = 33.99337 34.74509 34.36923
# Shear Modulus (GPa) = 27.93153 28.52497 28.22825
#
# Velocity S-wave (km/s) = 3.68890 3.72788 3.70844
# Velocity P-wave (km/s) = 5.89112 5.95458 5.92293
#
# Compressibility (1/GPa) = 0.02941750
#
# Stress axis : x y z
#
# Youngs Moduli (GPa) = 63.56600 63.56600 91.72770
#
# Poissons Ratio (x) = 0.18761 0.16155
# Poissons Ratio (y) = 0.18761 0.16155
# Poissons Ratio (z) = 0.11195 0.11195
#
# Static dielectric constant tensor:
#      x y z
#    x 3.573750 0.000000 0.000000 
#    y 0.000000 3.573750 0.000000 
#    z 0.000000 0.000000 3.732060 
# 
# 
# High freq. dielectric constant tensor:
#      x y z
#    x 1.786990 0.000000 0.000000 
#    y 0.000000 1.786990 0.000000 
#    z 0.000000 0.000000 1.811540 
# 
# From -- ./inp_files/958.got.cif
#   From: 2010.06.25/outbox.cif.g09.slc.cpg/sg176_1_cif.got.tgz:958.got - 2010.06.28 12:15:01.
