data_PCOD8325082
_publ_section_title
;
Structure prediction by ZEFSAII (Michael W. Deem and Ramdas Pophale) SiO2 
 PCOD8325082
Probable space group: P 6/M
;
_chemical_formula_sum "Si O2"
_cell_formula_units_Z 84
_cell_length_a 21.164603
_cell_length_b 21.164603
_cell_length_c 12.142845
_cell_angle_alpha 90.000000
_cell_angle_beta 90.000000
_cell_angle_gamma 120.000000
_cell_volume 4710.546943
_symmetry_space_group_name_H-M "P 6/M"
_symmetry_group_IT_number 175
_symmetry_cell_setting 'hexagonal'
loop_
_space_group_symop_operation_xyz
x,y,z
x-y,x,z
-y,x-y,z
-x,-y,z
-x+y,-x,z
y,-x+y,z
-x,-y,-z
-x+y,-x,-z
y,-x+y,-z
x,y,-z
x-y,x,-z
-y,x-y,-z
loop_
_atom_site_type_symbol
_atom_site_label
_atom_site_fract_x
_atom_site_fract_y
_atom_site_fract_z
Si Si1 0.328220 0.396361 0.376640
Si Si2 0.480763 0.563003 0.870910
Si Si3 0.774198 0.466256 0.623020
Si Si4 0.541711 0.180759 0.294690
Si Si5 0.161254 0.076079 0.630265
Si Si6 0.165793 0.838022 0.369073
Si Si7 0.910198 0.589306 0.717843
O O1 0.327083 0.370155 0.500000
O O2 0.371551 0.483927 0.367492
O O3 0.246367 0.368282 0.335381
O O4 0.367615 0.363062 0.306476
O O5 0.500000 0.500000 0.838592
O O6 0.403151 0.547838 0.819456
O O7 0.546046 0.642559 0.831586
O O8 0.471672 0.566081 0.000000
O O9 0.746092 0.468002 0.500000
O O10 0.725447 0.482411 0.711303
O O11 0.771720 0.390729 0.645110
O O12 0.859663 0.527465 0.629978
O O13 0.125499 0.120885 0.681640
O O14 0.152245 0.072020 0.500000
O O15 0.244766 0.114102 0.662998
O O16 0.187728 0.849059 0.500000
O O17 0.234309 0.879736 0.286119
#
# Coordination Sequence:
#
# PCOD8325082 Si02
#       7
#    12  12  12  12  12  12  12
#     4  11  20  32  51  80 116 149 185 222 273 342
#     4  10  22  43  63  80 104 138 183 238 286 323
#     4  11  21  34  53  79 115 144 170 213 268 329
#     4  11  22  37  56  82 107 147 184 219 275 335
#     4   9  16  26  41  65 101 151 199 231 257 299
#     4  10  19  31  48  75 115 151 181 226 280 330
#     4  11  21  34  55  81 106 143 187 225 273 332
#
# _framework density 17.832322999999999
#
# number of rings (size 3 to 8) (size 9 to 14) (size 15 to 20)
#    0.000    1.571    2.857    3.857    0.000    2.857 
#    0.000    5.000    0.000    0.857    0.000    0.000 
#    0.000    0.000    0.000    0.286    0.000    5.286 
#
# Total GULP energy -1040717.474707 kJ/mol
# GULP energy per Si atom -12389.493747 kJ/mol
# Density = 1.779174 g / cm^3
# Si number density = 17.832323 Si / 1000 Ang^3
#
#
#
# Elastic Constant Matrix: (Units=GPa)
#
#
# Indices 1 2 3 4 5 6 
#
# 1 110.9678 39.6743 36.9603 0.0000 0.0000 0.0000
# 2 39.6743 110.9678 36.9603 0.0000 0.0000 0.0000
# 3 36.9603 36.9603 64.4629 0.0000 0.0000 0.0000
# 4 0.0000 0.0000 0.0000 19.1706 0.0000 0.0000
# 5 0.0000 0.0000 0.0000 0.0000 19.1706 0.0000
# 6 0.0000 0.0000 0.0000 0.0000 0.0000 35.6467
#
#
#
# Elastic Compliance Matrix: (Units=1/GPa)
#
#
# Indices 1 2 3 4 5 6 
#
# 1 0.011632 -0.002395 -0.005296 0.000000 0.000000 0.000000
# 2 -0.002395 0.011632 -0.005296 0.000000 0.000000 0.000000
# 3 -0.005296 -0.005296 0.021586 0.000000 0.000000 0.000000
# 4 0.000000 0.000000 0.000000 0.052163 0.000000 0.000000
# 5 0.000000 0.000000 0.000000 0.000000 0.052163 0.000000
# 6 0.000000 0.000000 0.000000 0.000000 0.000000 0.028053
#
#
# Mechanical properties :
#
#
# Convention : Reuss Voigt Hill
#
# Bulk Modulus (GPa) = 52.97864 57.06537 55.02201
# Shear Modulus (GPa) = 23.86694 26.31784 25.09239
#
# Velocity S-wave (km/s) = 3.66240 3.84585 3.75524
# Velocity P-wave (km/s) = 6.90348 7.19662 7.05157
#
# Compressibility (1/GPa) = 0.01887553
#
# Stress axis : x y z
#
# Youngs Moduli (GPa) = 85.97110 85.97110 46.32637
#
# Poissons Ratio (x) = 0.20588 0.24535
# Poissons Ratio (y) = 0.20588 0.24535
# Poissons Ratio (z) = 0.45532 0.45532
#
# Static dielectric constant tensor:
#      x y z
#    x 3.580180 0.000000 0.000000 
#    y 0.000000 3.580180 0.000000 
#    z 0.000000 0.000000 2.751470 
# 
# 
# High freq. dielectric constant tensor:
#      x y z
#    x 1.711190 0.000000 0.000000 
#    y 0.000000 1.711190 0.000000 
#    z 0.000000 0.000000 1.615060 
# 
# From -- ./inp_files/2009.got.cif
#   From: 2010.03.12/outbox.cif.g09.slc.cpg/sg175_2_cif.got.tgz:2009.got - 2010.04.02 06:55:29.
