data_PCOD8325477
_publ_section_title
;
Structure prediction by ZEFSAII (Michael W. Deem and Ramdas Pophale) SiO2 
 PCOD8325477
Probable space group: P 63/M
;
_chemical_formula_sum "Si O2"
_cell_formula_units_Z 72
_cell_length_a 23.136317
_cell_length_b 23.136317
_cell_length_c 8.785553
_cell_angle_alpha 90.000000
_cell_angle_beta 90.000000
_cell_angle_gamma 120.000000
_cell_volume 4072.754075
_symmetry_space_group_name_H-M "P 63/M"
_symmetry_group_IT_number 176
_symmetry_cell_setting 'hexagonal'
loop_
_space_group_symop_operation_xyz
x,y,z
x-y,x,1/2+z
-y,x-y,z
-x,-y,1/2+z
-x+y,-x,z
y,-x+y,1/2+z
-x,-y,-z
-x+y,-x,1/2-z
y,-x+y,-z
x,y,1/2-z
x-y,x,-z
-y,x-y,1/2-z
loop_
_atom_site_type_symbol
_atom_site_label
_atom_site_fract_x
_atom_site_fract_y
_atom_site_fract_z
Si Si1 0.084548 0.491476 0.920329
Si Si2 0.600066 0.526283 0.578788
Si Si3 0.287710 0.138479 0.570891
Si Si4 0.145173 0.075008 0.069647
Si Si5 0.063741 0.710692 0.924572
Si Si6 0.619390 0.711876 0.423687
O O1 0.110060 0.513537 0.750000
O O2 0.005280 0.446559 0.928171
O O3 0.108281 0.559016 0.016284
O O4 0.117048 0.448787 0.983114
O O5 0.623039 0.524306 0.750000
O O6 0.665705 0.570139 0.477143
O O7 0.271375 0.135319 0.750000
O O8 0.222169 0.120170 0.474641
O O9 0.314486 0.088775 0.531954
O O10 0.344677 0.212073 0.520382
O O11 0.138137 0.061016 0.250000
O O12 0.107234 0.113992 0.023493
O O13 0.083755 0.732306 0.750000
O O14 0.985032 0.670531 0.947727
O O15 0.597226 0.705634 0.250000
#
# Coordination Sequence:
#
# PCOD8325477 Si02
#       6
#    12  12  12  12  12  12
#     4   9  16  26  44  69  95 123 156 191 229 277
#     4   9  16  27  44  67  96 127 157 190 231 280
#     4  11  22  36  53  75 103 136 173 213 264 323
#     4  12  25  42  61  80 101 129 171 225 283 340
#     4  10  19  32  49  70  98 132 169 209 253 301
#     4   9  19  33  48  67  96 131 165 203 248 301
#
# _framework density 17.678455
#
# number of rings (size 3 to 8) (size 9 to 14) (size 15 to 20)
#    0.000    2.000    0.000    4.667    0.000    7.333 
#    0.000    0.000    0.000    0.000    0.000    0.000 
#    1.667    0.000    3.000    0.000    3.000    0.000 
#
# Total GULP energy -892893.561509 kJ/mol
# GULP energy per Si atom -12401.299465 kJ/mol
# Density = 1.763822 g / cm^3
# Si number density = 17.678455 Si / 1000 Ang^3
#
#
#
# Elastic Constant Matrix: (Units=GPa)
#
#
# Indices 1 2 3 4 5 6 
#
# 1 27.6624 12.7434 20.4098 0.0000 0.0000 0.0000
# 2 12.7434 27.6624 20.4098 0.0000 0.0000 0.0000
# 3 20.4098 20.4098 83.5421 0.0000 0.0000 0.0000
# 4 0.0000 0.0000 0.0000 25.0025 0.0000 0.0000
# 5 0.0000 0.0000 0.0000 0.0000 25.0025 0.0000
# 6 0.0000 0.0000 0.0000 0.0000 0.0000 7.4595
#
#
#
# Elastic Compliance Matrix: (Units=1/GPa)
#
#
# Indices 1 2 3 4 5 6 
#
# 1 0.049944 -0.017085 -0.008028 0.000000 0.000000 0.000000
# 2 -0.017085 0.049944 -0.008028 0.000000 0.000000 0.000000
# 3 -0.008028 -0.008028 0.015892 0.000000 0.000000 0.000000
# 4 0.000000 0.000000 0.000000 0.039996 0.000000 0.000000
# 5 0.000000 0.000000 0.000000 0.000000 0.039996 0.000000
# 6 0.000000 0.000000 0.000000 0.000000 0.000000 0.134057
#
#
# Mechanical properties :
#
#
# Convention : Reuss Voigt Hill
#
# Bulk Modulus (GPa) = 20.20221 27.33253 23.76737
# Shear Modulus (GPa) = 12.11801 17.17981 14.64891
#
# Velocity S-wave (km/s) = 2.62098 3.12074 2.88172
# Velocity P-wave (km/s) = 4.54002 5.33665 4.95438
#
# Compressibility (1/GPa) = 0.04949953
#
# Stress axis : x y z
#
# Youngs Moduli (GPa) = 20.02257 20.02257 62.92326
#
# Poissons Ratio (x) = 0.34208 0.50512
# Poissons Ratio (y) = 0.34208 0.50512
# Poissons Ratio (z) = 0.16073 0.16073
#
# Static dielectric constant tensor:
#      x y z
#    x 3.223770 0.000000 0.000000 
#    y 0.000000 3.223770 0.000000 
#    z 0.000000 0.000000 3.414770 
# 
# 
# High freq. dielectric constant tensor:
#      x y z
#    x 1.662420 0.000000 0.000000 
#    y 0.000000 1.662420 0.000000 
#    z 0.000000 0.000000 1.699320 
# 
# From -- ./inp_files/1140.got.cif
#   From: 2010.06.25/outbox.cif.g09.slc.cpg/sg176_1_cif.got.tgz:1140.got - 2010.06.28 12:15:01.
