data_PCOD8325932
_publ_section_title
;
Structure prediction by ZEFSAII (Michael W. Deem and Ramdas Pophale) SiO2 
 PCOD8325932
Probable space group: P 61 2 2
;
_chemical_formula_sum "Si O2"
_cell_formula_units_Z 84
_cell_length_a 18.903470
_cell_length_b 18.903470
_cell_length_c 13.691459
_cell_angle_alpha 90.000000
_cell_angle_beta 90.000000
_cell_angle_gamma 120.000000
_cell_volume 4237.048417
_symmetry_space_group_name_H-M "P 61 2 2"
_symmetry_group_IT_number 178
_symmetry_cell_setting 'hexagonal'
loop_
_space_group_symop_operation_xyz
x,y,z
x-y,x,1/6+z
-y,x-y,1/3+z
-x,-y,1/2+z
-x+y,-x,2/3+z
y,-x+y,5/6+z
x-y,-y,-z
-x,-x+y,2/3-z
y,x,1/3-z
-y,-x,5/6-z
-x+y,y,1/2-z
x,x-y,1/6-z
loop_
_atom_site_type_symbol
_atom_site_label
_atom_site_fract_x
_atom_site_fract_y
_atom_site_fract_z
Si Si1 0.980759 0.260247 0.049787
Si Si2 0.159665 0.840336 0.416667
Si Si3 0.859622 0.295089 0.168867
Si Si4 0.273705 0.401466 0.572526
Si Si5 0.538547 0.077094 0.750000
Si Si6 0.791275 0.053078 0.403789
Si Si7 0.053031 0.539018 0.241612
Si Si8 0.445395 0.300523 0.102594
O O1 0.005912 0.219829 0.137063
O O2 0.932667 0.297815 0.106323
O O3 0.056398 0.326663 0.986888
O O4 0.921242 0.185213 0.979840
O O5 0.139356 0.764407 0.346598
O O6 0.774255 0.212215 0.153587
O O7 0.858826 0.374412 0.129631
O O8 0.878564 0.306567 0.283453
O O9 0.364790 0.473938 0.591020
O O10 0.539119 0.013846 0.827649
O O11 0.886318 0.113682 0.416667
O O12 0.740944 0.099587 0.381167
O O13 0.757333 0.000000 0.500000
O O14 0.113102 0.502429 0.220097
O O15 0.000000 0.490377 0.333334
O O16 0.485289 0.242645 0.083334
#
# Coordination Sequence:
#
# PCOD8325932 Si02
#       8
#    12   6  12  12   6  12  12  12
#     4  11  21  40  62  93 129 163 203 266 320 381
#     4  10  24  38  64  91 128 162 214 266 317 378
#     4  11  23  42  64  92 129 169 219 276 327 386
#     4  11  24  40  63  91 126 174 216 271 325 383
#     4  12  24  40  66  93 126 176 226 274 331 394
#     4  11  22  37  62  97 126 157 198 251 312 372
#     4  12  24  40  66  92 125 174 225 269 327 400
#     4  11  23  40  61  93 131 167 213 273 324 379
#
# _framework density 19.825120999999999
#
# number of rings (size 3 to 8) (size 9 to 14) (size 15 to 20)
#    0.000    0.857    4.286    4.286    6.000    0.000 
#    1.286    0.000    0.000    0.000    1.857    0.000 
#    0.000    0.000    0.000    0.000    0.000    0.000 
#
# Total GULP energy -1041313.195275 kJ/mol
# GULP energy per Si atom -12396.585658 kJ/mol
# Density = 1.978000 g / cm^3
# Si number density = 19.825121 Si / 1000 Ang^3
#
#
#
# Elastic Constant Matrix: (Units=GPa)
#
#
# Indices 1 2 3 4 5 6 
#
# 1 110.0466 40.9775 26.7973 0.0000 0.0000 0.0000
# 2 40.9775 110.0466 26.7973 0.0000 0.0000 0.0000
# 3 26.7973 26.7973 106.1427 0.0000 0.0000 0.0000
# 4 0.0000 0.0000 0.0000 37.0027 0.0000 0.0000
# 5 0.0000 0.0000 0.0000 0.0000 37.0027 0.0000
# 6 0.0000 0.0000 0.0000 0.0000 0.0000 34.5346
#
#
#
# Elastic Compliance Matrix: (Units=1/GPa)
#
#
# Indices 1 2 3 4 5 6 
#
# 1 0.010876 -0.003603 -0.001836 0.000000 0.000000 0.000000
# 2 -0.003603 0.010876 -0.001836 0.000000 0.000000 0.000000
# 3 -0.001836 -0.001836 0.010348 0.000000 0.000000 0.000000
# 4 0.000000 0.000000 0.000000 0.027025 0.000000 0.000000
# 5 0.000000 0.000000 0.000000 0.000000 0.027025 0.000000
# 6 0.000000 0.000000 0.000000 0.000000 0.000000 0.028957
#
#
# Mechanical properties :
#
#
# Convention : Reuss Voigt Hill
#
# Bulk Modulus (GPa) = 56.98070 57.26445 57.12258
# Shear Modulus (GPa) = 36.89867 37.15225 37.02546
#
# Velocity S-wave (km/s) = 4.31885 4.33367 4.32627
# Velocity P-wave (km/s) = 7.32626 7.34768 7.33698
#
# Compressibility (1/GPa) = 0.01754980
#
# Stress axis : x y z
#
# Youngs Moduli (GPa) = 91.94841 91.94841 96.63303
#
# Poissons Ratio (x) = 0.33125 0.17744
# Poissons Ratio (y) = 0.33125 0.17744
# Poissons Ratio (z) = 0.16884 0.16884
#
# Static dielectric constant tensor:
#      x y z
#    x 3.574830 0.000000 0.000000 
#    y 0.000000 3.574830 0.000000 
#    z 0.000000 0.000000 3.710790 
# 
# 
# High freq. dielectric constant tensor:
#      x y z
#    x 1.758700 0.000000 0.000000 
#    y 0.000000 1.758700 0.000000 
#    z 0.000000 0.000000 1.797580 
# 
# From -- ./inp_files/6054.got.cif
#   From: 2010.03.12/outbox.cif.g09.slc.cpg/sg178_4_cif.got.tgz:6054.got - 2010.04.02 07:02:38.
