data_PCOD8325903
_publ_section_title
;
Structure prediction by ZEFSAII (Michael W. Deem and Ramdas Pophale) SiO2 
 PCOD8325903
Probable space group: P 61 2 2
;
_chemical_formula_sum "Si O2"
_cell_formula_units_Z 60
_cell_length_a 11.796355
_cell_length_b 11.796355
_cell_length_c 24.268707
_cell_angle_alpha 90.000000
_cell_angle_beta 90.000000
_cell_angle_gamma 120.000000
_cell_volume 2924.643516
_symmetry_space_group_name_H-M "P 61 2 2"
_symmetry_group_IT_number 178
_symmetry_cell_setting 'hexagonal'
loop_
_space_group_symop_operation_xyz
x,y,z
x-y,x,1/6+z
-y,x-y,1/3+z
-x,-y,1/2+z
-x+y,-x,2/3+z
y,-x+y,5/6+z
x-y,-y,-z
-x,-x+y,2/3-z
y,x,1/3-z
-y,-x,5/6-z
-x+y,y,1/2-z
x,x-y,1/6-z
loop_
_atom_site_type_symbol
_atom_site_label
_atom_site_fract_x
_atom_site_fract_y
_atom_site_fract_z
Si Si1 0.709227 0.290773 0.916667
Si Si2 0.494746 0.505255 0.916667
Si Si3 0.746945 0.594123 0.344387
Si Si4 0.088454 0.929035 0.052632
Si Si5 0.696772 0.803285 0.289351
Si Si6 0.428630 0.229041 0.897631
O O1 0.775439 0.270615 0.862691
O O2 0.552292 0.215426 0.913107
O O3 0.400878 0.499895 0.867401
O O4 0.438000 0.352433 0.931979
O O5 0.758561 0.713089 0.306640
O O6 0.856246 0.646180 0.392917
O O7 0.182468 0.893973 0.087586
O O8 0.953285 0.804008 0.034827
O O9 0.051468 0.025734 0.083334
O O10 0.175455 0.000000 0.000000
O O11 0.573803 0.759083 0.330985
#
# Coordination Sequence:
#
# PCOD8325903 Si02
#       6
#     6   6  12  12  12  12
#     4  11  26  42  64  94 136 175 216 268 318 403
#     4   9  18  40  70  88 122 177 218 260 308 397
#     4  11  23  40  67  95 131 170 219 268 326 383
#     4  12  22  38  68  99 128 164 215 276 329 383
#     4  11  21  42  69  96 126 171 217 274 327 389
#     4  10  22  42  67  96 130 172 219 260 326 399
#
# _framework density 20.515319999999999
#
# number of rings (size 3 to 8) (size 9 to 14) (size 15 to 20)
#    0.000    1.200    6.000    1.200    1.400    0.800 
#    3.600    0.000    2.200    0.000    0.000    0.000 
#    0.000    0.000    0.000    0.000    0.000    0.000 
#
# Total GULP energy -743348.673122 kJ/mol
# GULP energy per Si atom -12389.144552 kJ/mol
# Density = 2.046863 g / cm^3
# Si number density = 20.515320 Si / 1000 Ang^3
#
#
#
# Elastic Constant Matrix: (Units=GPa)
#
#
# Indices 1 2 3 4 5 6 
#
# 1 87.1199 38.7229 50.9311 0.0000 0.0000 0.0000
# 2 38.7229 87.1199 50.9311 0.0000 0.0000 0.0000
# 3 50.9311 50.9311 125.2351 0.0000 0.0000 0.0000
# 4 0.0000 0.0000 0.0000 30.0914 0.0000 0.0000
# 5 0.0000 0.0000 0.0000 0.0000 30.0914 0.0000
# 6 0.0000 0.0000 0.0000 0.0000 0.0000 24.1985
#
#
#
# Elastic Compliance Matrix: (Units=1/GPa)
#
#
# Indices 1 2 3 4 5 6 
#
# 1 0.016254 -0.004408 -0.004818 0.000000 0.000000 0.000000
# 2 -0.004408 0.016254 -0.004818 0.000000 0.000000 0.000000
# 3 -0.004818 -0.004818 0.011903 0.000000 0.000000 0.000000
# 4 0.000000 0.000000 0.000000 0.033232 0.000000 0.000000
# 5 0.000000 0.000000 0.000000 0.000000 0.033232 0.000000
# 6 0.000000 0.000000 0.000000 0.000000 0.000000 0.041325
#
#
# Mechanical properties :
#
#
# Convention : Reuss Voigt Hill
#
# Bulk Modulus (GPa) = 61.25541 64.51614 62.88577
# Shear Modulus (GPa) = 26.92091 27.46892 27.19491
#
# Velocity S-wave (km/s) = 3.62641 3.66313 3.64482
# Velocity P-wave (km/s) = 6.88895 7.02904 6.95935
#
# Compressibility (1/GPa) = 0.01632509
#
# Stress axis : x y z
#
# Youngs Moduli (GPa) = 61.52260 61.52260 84.00949
#
# Poissons Ratio (x) = 0.27121 0.40472
# Poissons Ratio (y) = 0.27121 0.40472
# Poissons Ratio (z) = 0.29639 0.29639
#
# Static dielectric constant tensor:
#      x y z
#    x 3.763550 0.000000 0.000000 
#    y 0.000000 3.763550 0.000000 
#    z 0.000000 0.000000 3.831130 
# 
# 
# High freq. dielectric constant tensor:
#      x y z
#    x 1.795880 0.000000 0.000000 
#    y 0.000000 1.795880 0.000000 
#    z 0.000000 0.000000 1.802820 
# 
# From -- ./inp_files/8829.got.cif
#   From: 2010.03.12/outbox.cif.g09.slc.cpg/sg178_5_cif.got.tgz:8829.got - 2010.04.02 07:02:38.
