data_PCOD8325486
_publ_section_title
;
Structure prediction by ZEFSAII (Michael W. Deem and Ramdas Pophale) SiO2 
 PCOD8325486
Probable space group: P 63/M
;
_chemical_formula_sum "Si O2"
_cell_formula_units_Z 60
_cell_length_a 21.360440
_cell_length_b 21.360440
_cell_length_c 7.609119
_cell_angle_alpha 90.000000
_cell_angle_beta 90.000000
_cell_angle_gamma 120.000000
_cell_volume 3006.667455
_symmetry_space_group_name_H-M "P 63/M"
_symmetry_group_IT_number 176
_symmetry_cell_setting 'hexagonal'
loop_
_space_group_symop_operation_xyz
x,y,z
x-y,x,1/2+z
-y,x-y,z
-x,-y,1/2+z
-x+y,-x,z
y,-x+y,1/2+z
-x,-y,-z
-x+y,-x,1/2-z
y,-x+y,-z
x,y,1/2-z
x-y,x,-z
-y,x-y,1/2-z
loop_
_atom_site_type_symbol
_atom_site_label
_atom_site_fract_x
_atom_site_fract_y
_atom_site_fract_z
Si Si1 0.083048 0.796683 0.450832
Si Si2 0.523265 0.333894 0.250000
Si Si3 0.927695 0.706086 0.053686
Si Si4 0.081353 0.649857 0.048394
Si Si5 0.186929 0.661924 0.750000
Si Si6 0.433217 0.351400 0.946327
O O1 0.098926 0.821519 0.250000
O O2 0.139309 0.864514 0.563764
O O3 0.092491 0.728414 0.489336
O O4 0.002132 0.775942 0.510298
O O5 0.506770 0.251565 0.250000
O O6 0.609203 0.388601 0.250000
O O7 0.490921 0.350040 0.423355
O O8 0.942752 0.686721 0.250000
O O9 0.907804 0.636711 0.935676
O O10 0.099064 0.641468 0.250000
O O11 0.137370 0.642618 0.923150
O O12 0.999057 0.588757 0.006347
O O13 0.466558 0.370987 0.750000
#
# Coordination Sequence:
#
# PCOD8325486 Si02
#       6
#    12   6  12  12   6  12
#     4   9  19  32  51  81 116 149 190 243 300 364
#     4  12  27  46  64  94 131 170 220 252 300 396
#     4  10  19  32  53  82 117 150 191 244 299 367
#     4  10  21  41  65  98 125 152 207 266 324 377
#     4  12  27  44  68  90 129 180 208 254 316 372
#     4  11  21  40  67  96 124 157 201 266 331 366
#
# _framework density 19.955649000000001
#
# number of rings (size 3 to 8) (size 9 to 14) (size 15 to 20)
#    0.000    1.600    3.000    3.200    1.400    5.600 
#    0.000    0.000    0.000    2.800    0.000    0.000 
#    0.000    0.000    0.000    0.000    0.000    0.000 
#
# Total GULP energy -743945.949402 kJ/mol
# GULP energy per Si atom -12399.099157 kJ/mol
# Density = 1.991023 g / cm^3
# Si number density = 19.955649 Si / 1000 Ang^3
#
#
#
# Elastic Constant Matrix: (Units=GPa)
#
#
# Indices 1 2 3 4 5 6 
#
# 1 92.3609 41.6341 34.7261 0.0000 0.0000 0.0000
# 2 41.6341 92.3609 34.7261 0.0000 0.0000 0.0000
# 3 34.7261 34.7261 125.1988 0.0000 0.0000 0.0000
# 4 0.0000 0.0000 0.0000 19.4112 0.0000 0.0000
# 5 0.0000 0.0000 0.0000 0.0000 19.4112 0.0000
# 6 0.0000 0.0000 0.0000 0.0000 0.0000 25.3634
#
#
#
# Elastic Compliance Matrix: (Units=1/GPa)
#
#
# Indices 1 2 3 4 5 6 
#
# 1 0.014215 -0.005499 -0.002418 0.000000 0.000000 0.000000
# 2 -0.005499 0.014215 -0.002418 0.000000 0.000000 0.000000
# 3 -0.002418 -0.002418 0.009328 0.000000 0.000000 0.000000
# 4 0.000000 0.000000 0.000000 0.051517 0.000000 0.000000
# 5 0.000000 0.000000 0.000000 0.000000 0.051517 0.000000
# 6 0.000000 0.000000 0.000000 0.000000 0.000000 0.039427
#
#
# Mechanical properties :
#
#
# Convention : Reuss Voigt Hill
#
# Bulk Modulus (GPa) = 58.51281 59.12145 58.81713
# Shear Modulus (GPa) = 24.20342 26.09277 25.14809
#
# Velocity S-wave (km/s) = 3.48639 3.61991 3.55378
# Velocity P-wave (km/s) = 6.75216 6.86749 6.81007
#
# Compressibility (1/GPa) = 0.01709027
#
# Stress axis : x y z
#
# Youngs Moduli (GPa) = 70.34950 70.34950 107.19954
#
# Poissons Ratio (x) = 0.38683 0.25916
# Poissons Ratio (y) = 0.38683 0.25916
# Poissons Ratio (z) = 0.17007 0.17007
#
# Static dielectric constant tensor:
#      x y z
#    x 3.467020 0.000000 0.000000 
#    y 0.000000 3.467020 0.000000 
#    z 0.000000 0.000000 3.677020 
# 
# 
# High freq. dielectric constant tensor:
#      x y z
#    x 1.763790 0.000000 0.000000 
#    y 0.000000 1.763790 0.000000 
#    z 0.000000 0.000000 1.790610 
# 
# From -- ./inp_files/940.got.cif
#   From: 2010.06.25/outbox.cif.g09.slc.cpg/sg176_1_cif.got.tgz:940.got - 2010.06.28 12:15:01.
