data_PCOD8325576
_publ_section_title
;
Structure prediction by ZEFSAII (Michael W. Deem and Ramdas Pophale) SiO2 
 PCOD8325576
Probable space group: P 63/M
;
_chemical_formula_sum "Si O2"
_cell_formula_units_Z 60
_cell_length_a 16.140851
_cell_length_b 16.140851
_cell_length_c 12.030763
_cell_angle_alpha 90.000000
_cell_angle_beta 90.000000
_cell_angle_gamma 120.000000
_cell_volume 2714.417585
_symmetry_space_group_name_H-M "P 63/M"
_symmetry_group_IT_number 176
_symmetry_cell_setting 'hexagonal'
loop_
_space_group_symop_operation_xyz
x,y,z
x-y,x,1/2+z
-y,x-y,z
-x,-y,1/2+z
-x+y,-x,z
y,-x+y,1/2+z
-x,-y,-z
-x+y,-x,1/2-z
y,-x+y,-z
x,y,1/2-z
x-y,x,-z
-y,x-y,1/2-z
loop_
_atom_site_type_symbol
_atom_site_label
_atom_site_fract_x
_atom_site_fract_y
_atom_site_fract_z
Si Si1 0.250406 0.966393 0.876327
Si Si2 0.841636 0.348780 0.124565
Si Si3 0.479045 0.319400 0.045087
Si Si4 0.291963 0.067593 0.120258
Si Si5 0.669616 0.817301 0.382928
O O1 0.231180 0.981595 0.750000
O O2 0.327747 0.931692 0.887999
O O3 0.152705 0.877050 0.930526
O O4 0.291461 0.073098 0.931136
O O5 0.856238 0.389761 0.250000
O O6 0.736164 0.256688 0.116241
O O7 0.858349 0.431352 0.034924
O O8 0.917108 0.314225 0.096991
O O9 0.435850 0.260369 0.929092
O O10 0.276035 0.072078 0.250000
O O11 0.216783 0.961251 0.076008
O O12 0.661840 0.816889 0.250000
#
# Coordination Sequence:
#
# PCOD8325576 Si02
#       5
#    12  12  12  12  12
#     4   9  19  37  60  86 120 163 209 254 308 368
#     4  10  20  37  61  92 120 144 198 269 314 357
#     4  11  22  36  65  92 117 157 205 254 318 370
#     4   8  17  36  59  84 118 161 205 253 306 354
#     4  10  22  40  57  86 133 169 203 256 311 379
#
# _framework density 22.104189999999999
#
# number of rings (size 3 to 8) (size 9 to 14) (size 15 to 20)
#    0.000    2.400    0.000    3.400    5.600    0.800 
#    1.200    1.000    0.000    1.200    0.000    0.000 
#    0.000    0.000    0.000    0.000    0.000    0.000 
#
# Total GULP energy -743673.119106 kJ/mol
# GULP energy per Si atom -12394.551985 kJ/mol
# Density = 2.205388 g / cm^3
# Si number density = 22.104190 Si / 1000 Ang^3
#
#
#
# Elastic Constant Matrix: (Units=GPa)
#
#
# Indices 1 2 3 4 5 6 
#
# 1 141.3309 94.9164 64.8854 0.0000 0.0000 0.0000
# 2 94.9164 141.3309 64.8854 0.0000 0.0000 0.0000
# 3 64.8854 64.8854 100.6526 0.0000 0.0000 0.0000
# 4 0.0000 0.0000 0.0000 38.7077 0.0000 0.0000
# 5 0.0000 0.0000 0.0000 0.0000 38.7077 0.0000
# 6 0.0000 0.0000 0.0000 0.0000 0.0000 23.2073
#
#
#
# Elastic Compliance Matrix: (Units=1/GPa)
#
#
# Indices 1 2 3 4 5 6 
#
# 1 0.014049 -0.007496 -0.004225 0.000000 0.000000 0.000000
# 2 -0.007496 0.014049 -0.004225 0.000000 0.000000 0.000000
# 3 -0.004225 -0.004225 0.015382 0.000000 0.000000 0.000000
# 4 0.000000 0.000000 0.000000 0.025835 0.000000 0.000000
# 5 0.000000 0.000000 0.000000 0.000000 0.025835 0.000000
# 6 0.000000 0.000000 0.000000 0.000000 0.000000 0.043090
#
#
# Mechanical properties :
#
#
# Convention : Reuss Voigt Hill
#
# Bulk Modulus (GPa) = 86.27942 92.52099 89.40020
# Shear Modulus (GPa) = 28.73673 30.69968 29.71820
#
# Velocity S-wave (km/s) = 3.60954 3.73079 3.67067
# Velocity P-wave (km/s) = 7.51595 7.77856 7.64838
#
# Compressibility (1/GPa) = 0.01159025
#
# Stress axis : x y z
#
# Youngs Moduli (GPa) = 71.17831 71.17831 65.01096
#
# Poissons Ratio (x) = 0.53353 0.27465
# Poissons Ratio (y) = 0.53353 0.27465
# Poissons Ratio (z) = 0.30071 0.30071
#
# Static dielectric constant tensor:
#      x y z
#    x 4.020300 0.000000 0.000000 
#    y 0.000000 4.020300 0.000000 
#    z 0.000000 0.000000 4.377680 
# 
# 
# High freq. dielectric constant tensor:
#      x y z
#    x 1.862130 0.000000 0.000000 
#    y 0.000000 1.862130 0.000000 
#    z 0.000000 0.000000 1.916980 
# 
# From -- ./inp_files/2644.got.cif
#   From: 2010.06.25/outbox.cif.g09.slc.cpg/sg176_2_cif.got.tgz:2644.got - 2010.06.28 12:15:01.
