data_PCOD8325527
_publ_section_title
;
Structure prediction by ZEFSAII (Michael W. Deem and Ramdas Pophale) SiO2 
 PCOD8325527
Probable space group: P 63/M
;
_chemical_formula_sum "Si O2"
_cell_formula_units_Z 72
_cell_length_a 12.942677
_cell_length_b 12.942677
_cell_length_c 30.091754
_cell_angle_alpha 90.000000
_cell_angle_beta 90.000000
_cell_angle_gamma 120.000000
_cell_volume 4365.423283
_symmetry_space_group_name_H-M "P 63/M"
_symmetry_group_IT_number 176
_symmetry_cell_setting 'hexagonal'
loop_
_space_group_symop_operation_xyz
x,y,z
x-y,x,1/2+z
-y,x-y,z
-x,-y,1/2+z
-x+y,-x,z
y,-x+y,1/2+z
-x,-y,-z
-x+y,-x,1/2-z
y,-x+y,-z
x,y,1/2-z
x-y,x,-z
-y,x-y,1/2-z
loop_
_atom_site_type_symbol
_atom_site_label
_atom_site_fract_x
_atom_site_fract_y
_atom_site_fract_z
Si Si1 0.574514 0.909178 0.250000
Si Si2 0.758293 1.000000 0.000000
Si Si3 0.570414 0.666557 0.574158
Si Si4 0.090822 0.425486 0.250000
Si Si5 0.666557 0.570929 0.324439
Si Si6 0.333443 0.429586 0.574158
Si Si7 0.666557 0.095628 0.175561
O O1 0.584230 0.792115 0.250000
O O2 0.436433 0.872865 0.250000
O O3 0.640857 0.984544 0.206301
O O4 0.681603 0.988657 0.956550
O O5 0.773546 0.886773 0.007364
O O6 0.692946 0.011343 0.043450
O O7 0.459585 0.540415 0.560138
O O8 0.531362 0.765681 0.567768
O O9 0.609615 0.665800 0.624826
O O10 0.015456 0.359143 0.293699
O O11 0.665800 0.609615 0.375174
O O12 0.566895 0.433105 0.317108
O O13 0.792776 0.585553 0.310858
#
# Coordination Sequence:
#
# PCOD8325527 Si02
#       7
#     6  12  12   6  12  12  12
#     4  10  20  32  46  64  90 124 156 184 214 256
#     4  10  20  32  46  64  90 126 164 196 222 258
#     4   9  17  30  49  72  95 117 144 184 235 284
#     4  10  20  32  46  64  90 124 156 184 214 256
#     4   9  17  30  50  74  95 115 143 185 236 282
#     4   9  17  30  49  72  95 117 144 184 235 284
#     4   9  17  30  50  74  95 115 143 185 236 282
#
# _framework density 16.493247
#
# number of rings (size 3 to 8) (size 9 to 14) (size 15 to 20)
#    0.000    2.667    0.000    2.000    0.000    4.000 
#    0.000    1.667    0.000    3.333    0.000    0.000 
#    0.000    0.000    0.000    0.000    0.000    0.000 
#
# Total GULP energy -892933.730156 kJ/mol
# GULP energy per Si atom -12401.857363 kJ/mol
# Density = 1.645571 g / cm^3
# Si number density = 16.493247 Si / 1000 Ang^3
#
#
#
# Elastic Constant Matrix: (Units=GPa)
#
#
# Indices 1 2 3 4 5 6 
#
# 1 120.7955 75.1654 73.0718 0.0000 0.0000 0.0000
# 2 75.1654 120.7955 73.0718 0.0000 0.0000 0.0000
# 3 73.0718 73.0718 116.2707 0.0000 0.0000 0.0000
# 4 0.0000 0.0000 0.0000 23.6979 0.0000 0.0000
# 5 0.0000 0.0000 0.0000 0.0000 23.6979 0.0000
# 6 0.0000 0.0000 0.0000 0.0000 0.0000 22.8151
#
#
#
# Elastic Compliance Matrix: (Units=1/GPa)
#
#
# Indices 1 2 3 4 5 6 
#
# 1 0.015760 -0.006155 -0.006036 0.000000 0.000000 0.000000
# 2 -0.006155 0.015760 -0.006036 0.000000 0.000000 0.000000
# 3 -0.006036 -0.006036 0.016188 0.000000 0.000000 0.000000
# 4 0.000000 0.000000 0.000000 0.042198 0.000000 0.000000
# 5 0.000000 0.000000 0.000000 0.000000 0.042198 0.000000
# 6 0.000000 0.000000 0.000000 0.000000 0.000000 0.043831
#
#
# Mechanical properties :
#
#
# Convention : Reuss Voigt Hill
#
# Bulk Modulus (GPa) = 88.87071 88.94217 88.90644
# Shear Modulus (GPa) = 23.13311 23.14569 23.13940
#
# Velocity S-wave (km/s) = 3.74917 3.75019 3.74968
# Velocity P-wave (km/s) = 8.52888 8.53202 8.53045
#
# Compressibility (1/GPa) = 0.01125230
#
# Stress axis : x y z
#
# Youngs Moduli (GPa) = 63.45158 63.45158 61.77533
#
# Poissons Ratio (x) = 0.39056 0.37289
# Poissons Ratio (y) = 0.39056 0.37289
# Poissons Ratio (z) = 0.38301 0.38301
#
# Static dielectric constant tensor:
#      x y z
#    x 2.959580 0.000000 0.000000 
#    y 0.000000 2.959580 0.000000 
#    z 0.000000 0.000000 3.354880 
# 
# 
# High freq. dielectric constant tensor:
#      x y z
#    x 1.626010 0.000000 0.000000 
#    y 0.000000 1.626010 0.000000 
#    z 0.000000 0.000000 1.647590 
# 
# From -- ./inp_files/4523.got.cif
#   From: 2010.06.25/outbox.cif.g09.slc.cpg/sg176_3_cif.got.tgz:4523.got - 2010.06.28 12:15:01.
