data_PCOD8325586
_publ_section_title
;
Structure prediction by ZEFSAII (Michael W. Deem and Ramdas Pophale) SiO2 
 PCOD8325586
Probable space group: P 63/M
;
_chemical_formula_sum "Si O2"
_cell_formula_units_Z 84
_cell_length_a 17.646212
_cell_length_b 17.646212
_cell_length_c 13.554139
_cell_angle_alpha 90.000000
_cell_angle_beta 90.000000
_cell_angle_gamma 120.000000
_cell_volume 3655.152925
_symmetry_space_group_name_H-M "P 63/M"
_symmetry_group_IT_number 176
_symmetry_cell_setting 'hexagonal'
loop_
_space_group_symop_operation_xyz
x,y,z
x-y,x,1/2+z
-y,x-y,z
-x,-y,1/2+z
-x+y,-x,z
y,-x+y,1/2+z
-x,-y,-z
-x+y,-x,1/2-z
y,-x+y,-z
x,y,1/2-z
x-y,x,-z
-y,x-y,1/2-z
loop_
_atom_site_type_symbol
_atom_site_label
_atom_site_fract_x
_atom_site_fract_y
_atom_site_fract_z
Si Si1 0.423546 0.940888 0.631946
Si Si2 0.148515 0.961593 0.507071
Si Si3 0.268559 0.955851 0.139517
Si Si4 0.449073 0.117905 0.361705
Si Si5 0.476595 0.265588 0.868273
Si Si6 0.224278 0.863879 0.631957
Si Si7 0.539765 0.137263 0.632171
O O1 0.428880 0.941426 0.750000
O O2 0.465076 0.881298 0.590967
O O3 0.324741 0.906015 0.596692
O O4 0.481892 0.039309 0.590694
O O5 0.218010 0.995010 0.418525
O O6 0.180154 0.918838 0.591456
O O7 0.052626 0.897581 0.460567
O O8 0.234588 0.945458 0.250000
O O9 0.241585 0.861006 0.093421
O O10 0.372883 0.016739 0.134654
O O11 0.473064 0.151491 0.250000
O O12 0.413645 0.177871 0.411259
O O13 0.477879 0.267589 0.750000
O O14 0.545186 0.361648 0.908252
O O15 0.497963 0.193587 0.910449
O O16 0.214991 0.863938 0.750000
O O17 0.538498 0.137422 0.750000
#
# Coordination Sequence:
#
# PCOD8325586 Si02
#       7
#    12  12  12  12  12  12  12
#     4   9  17  31  56  90 121 153 200 249 292 350
#     4  12  27  45  66  91 122 159 210 269 333 392
#     4  10  20  38  64  89 116 160 209 252 313 385
#     4   9  16  35  62  87 119 161 205 249 305 367
#     4   9  16  26  47  79 116 158 196 233 286 355
#     4  10  22  41  66  95 126 163 209 261 314 375
#     4   9  15  24  42  76 117 152 189 232 280 341
#
# _framework density 22.981255000000001
#
# number of rings (size 3 to 8) (size 9 to 14) (size 15 to 20)
#    0.000    2.286    2.857    0.429    2.000    1.714 
#    0.857    0.714    3.143    1.714    0.000    0.000 
#    0.000    0.000    0.000    0.000    0.000    0.000 
#
# Total GULP energy -1041188.789526 kJ/mol
# GULP energy per Si atom -12395.104637 kJ/mol
# Density = 2.292895 g / cm^3
# Si number density = 22.981255 Si / 1000 Ang^3
#
#
#
# Elastic Constant Matrix: (Units=GPa)
#
#
# Indices 1 2 3 4 5 6 
#
# 1 131.8440 57.9286 12.0656 0.0000 0.0000 0.0000
# 2 57.9286 131.8440 12.0656 0.0000 0.0000 0.0000
# 3 12.0656 12.0656 19.3189 0.0000 0.0000 0.0000
# 4 0.0000 0.0000 0.0000 18.1657 0.0000 0.0000
# 5 0.0000 0.0000 0.0000 0.0000 18.1657 0.0000
# 6 0.0000 0.0000 0.0000 0.0000 0.0000 36.9577
#
#
#
# Elastic Compliance Matrix: (Units=1/GPa)
#
#
# Indices 1 2 3 4 5 6 
#
# 1 0.009627 -0.003902 -0.003575 0.000000 0.000000 0.000000
# 2 -0.003902 0.009627 -0.003575 0.000000 0.000000 0.000000
# 3 -0.003575 -0.003575 0.056228 0.000000 0.000000 0.000000
# 4 0.000000 0.000000 0.000000 0.055049 0.000000 0.000000
# 5 0.000000 0.000000 0.000000 0.000000 0.055049 0.000000
# 6 0.000000 0.000000 0.000000 0.000000 0.000000 0.027058
#
#
# Mechanical properties :
#
#
# Convention : Reuss Voigt Hill
#
# Bulk Modulus (GPa) = 18.73481 49.68075 34.20778
# Shear Modulus (GPa) = 19.79931 28.05428 23.92680
#
# Velocity S-wave (km/s) = 2.93839 3.49771 3.23018
# Velocity P-wave (km/s) = 4.43645 6.16253 5.36931
#
# Compressibility (1/GPa) = 0.05337659
#
# Stress axis : x y z
#
# Youngs Moduli (GPa) = 103.87968 103.87968 17.78462
#
# Poissons Ratio (x) = 0.40539 0.06358
# Poissons Ratio (y) = 0.40539 0.06358
# Poissons Ratio (z) = 0.37137 0.37137
#
# Static dielectric constant tensor:
#      x y z
#    x 4.192590 0.000000 0.000000 
#    y 0.000000 4.192590 0.000000 
#    z 0.000000 0.000000 3.745260 
# 
# 
# High freq. dielectric constant tensor:
#      x y z
#    x 1.908370 0.000000 0.000000 
#    y 0.000000 1.908370 0.000000 
#    z 0.000000 0.000000 1.897450 
# 
# From -- ./inp_files/2920.got.cif
#   From: 2010.06.25/outbox.cif.g09.slc.cpg/sg176_2_cif.got.tgz:2920.got - 2010.06.28 12:15:01.
