data_PCOD8325072
_publ_section_title
;
Structure prediction by ZEFSAII (Michael W. Deem and Ramdas Pophale) SiO2 
 PCOD8325072
Probable space group: P 6/M
;
_chemical_formula_sum "Si O2"
_cell_formula_units_Z 78
_cell_length_a 24.251956
_cell_length_b 24.251956
_cell_length_c 8.193867
_cell_angle_alpha 90.000000
_cell_angle_beta 90.000000
_cell_angle_gamma 120.000000
_cell_volume 4173.621734
_symmetry_space_group_name_H-M "P 6/M"
_symmetry_group_IT_number 175
_symmetry_cell_setting 'hexagonal'
loop_
_space_group_symop_operation_xyz
x,y,z
x-y,x,z
-y,x-y,z
-x,-y,z
-x+y,-x,z
y,-x+y,z
-x,-y,-z
-x+y,-x,-z
y,-x+y,-z
x,y,-z
x-y,x,-z
-y,x-y,-z
loop_
_atom_site_type_symbol
_atom_site_label
_atom_site_fract_x
_atom_site_fract_y
_atom_site_fract_z
Si Si1 0.081633 0.707606 0.812386
Si Si2 0.631007 0.684118 0.309932
Si Si3 0.271615 0.743760 0.680521
Si Si4 0.848859 0.366698 0.808708
Si Si5 0.592478 0.323888 0.000000
Si Si6 0.497972 0.435923 0.693841
Si Si7 0.822645 0.622108 0.683571
O O1 0.104885 0.659653 0.746377
O O2 0.135740 0.781367 0.785235
O O3 0.016679 0.691046 0.719817
O O4 0.063846 0.696035 0.000000
O O5 0.619043 0.686437 0.500000
O O6 0.565923 0.625065 0.236447
O O7 0.646330 0.753240 0.239079
O O8 0.302633 0.748877 0.500000
O O9 0.216464 0.671090 0.707997
O O10 0.321514 0.764942 0.831634
O O11 0.243295 0.789909 0.687782
O O12 0.877728 0.441011 0.772455
O O13 0.836533 0.351446 0.000000
O O14 0.608355 0.265984 0.000000
O O15 0.500000 0.500000 0.752569
O O16 0.502264 0.433544 0.500000
O O17 0.826772 0.647366 0.500000
#
# Coordination Sequence:
#
# PCOD8325072 Si02
#       7
#    12  12  12  12   6  12  12
#     4  10  20  33  52  76 106 139 171 213 271 327
#     4  10  20  35  53  78 107 135 180 225 265 328
#     4  10  20  38  59  75  98 133 173 219 274 333
#     4  10  19  32  51  73 101 132 172 216 269 330
#     4  10  24  40  54  74  97 123 173 222 276 332
#     4  10  19  30  47  74 105 133 167 218 275 324
#     4   9  20  36  56  79 102 139 180 217 268 326
#
# _framework density 18.688804000000001
#
# number of rings (size 3 to 8) (size 9 to 14) (size 15 to 20)
#    0.154    2.000    2.308    0.923    1.077    4.615 
#    0.000    1.538    0.000    0.000    0.000    0.000 
#    0.000    0.000    0.000    0.462    0.000    8.923 
#
# Total GULP energy -966727.927438 kJ/mol
# GULP energy per Si atom -12393.947788 kJ/mol
# Density = 1.864627 g / cm^3
# Si number density = 18.688804 Si / 1000 Ang^3
#
#
#
# Elastic Constant Matrix: (Units=GPa)
#
#
# Indices 1 2 3 4 5 6 
#
# 1 82.4494 37.3007 11.9684 0.0000 0.0000 0.0000
# 2 37.3007 82.4494 11.9684 0.0000 0.0000 0.0000
# 3 11.9684 11.9684 69.7137 0.0000 0.0000 0.0000
# 4 0.0000 0.0000 0.0000 18.2529 0.0000 0.0000
# 5 0.0000 0.0000 0.0000 0.0000 18.2529 0.0000
# 6 0.0000 0.0000 0.0000 0.0000 0.0000 22.5744
#
#
#
# Elastic Compliance Matrix: (Units=1/GPa)
#
#
# Indices 1 2 3 4 5 6 
#
# 1 0.015398 -0.006751 -0.001485 0.000000 0.000000 0.000000
# 2 -0.006751 0.015398 -0.001485 0.000000 0.000000 0.000000
# 3 -0.001485 -0.001485 0.014854 0.000000 0.000000 0.000000
# 4 0.000000 0.000000 0.000000 0.054786 0.000000 0.000000
# 5 0.000000 0.000000 0.000000 0.000000 0.054786 0.000000
# 6 0.000000 0.000000 0.000000 0.000000 0.000000 0.044298
#
#
# Mechanical properties :
#
#
# Convention : Reuss Voigt Hill
#
# Bulk Modulus (GPa) = 38.15229 39.67635 38.91432
# Shear Modulus (GPa) = 21.95900 23.37437 22.66668
#
# Velocity S-wave (km/s) = 3.43152 3.54038 3.48638
# Velocity P-wave (km/s) = 6.01326 6.16348 6.08883
#
# Compressibility (1/GPa) = 0.02621074
#
# Stress axis : x y z
#
# Youngs Moduli (GPa) = 64.94242 64.94242 67.32133
#
# Poissons Ratio (x) = 0.43841 0.09994
# Poissons Ratio (y) = 0.43841 0.09994
# Poissons Ratio (z) = 0.09641 0.09641
#
# Static dielectric constant tensor:
#      x y z
#    x 3.341960 0.000000 0.000000 
#    y 0.000000 3.341960 0.000000 
#    z 0.000000 0.000000 3.426330 
# 
# 
# High freq. dielectric constant tensor:
#      x y z
#    x 1.696980 0.000000 0.000000 
#    y 0.000000 1.696980 0.000000 
#    z 0.000000 0.000000 1.725090 
# 
# From -- ./inp_files/1333.got.cif
#   From: 2010.03.12/outbox.cif.g09.slc.cpg/sg175_1_cif.got.tgz:1333.got - 2010.04.02 06:55:29.
