data_PCOD8325211
_publ_section_title
;
Structure prediction by ZEFSAII (Michael W. Deem and Ramdas Pophale) SiO2 
 PCOD8325211
Probable space group: P 6/M
;
_chemical_formula_sum "Si O2"
_cell_formula_units_Z 84
_cell_length_a 23.598409
_cell_length_b 23.598409
_cell_length_c 9.342283
_cell_angle_alpha 90.000000
_cell_angle_beta 90.000000
_cell_angle_gamma 120.000000
_cell_volume 4505.563330
_symmetry_space_group_name_H-M "P 6/M"
_symmetry_group_IT_number 175
_symmetry_cell_setting 'hexagonal'
loop_
_space_group_symop_operation_xyz
x,y,z
x-y,x,z
-y,x-y,z
-x,-y,z
-x+y,-x,z
y,-x+y,z
-x,-y,-z
-x+y,-x,-z
y,-x+y,-z
x,y,-z
x-y,x,-z
-y,x-y,-z
loop_
_atom_site_type_symbol
_atom_site_label
_atom_site_fract_x
_atom_site_fract_y
_atom_site_fract_z
Si Si1 0.050421 0.901515 0.665384
Si Si2 0.091263 0.811356 0.830943
Si Si3 0.478676 0.051993 0.169222
Si Si4 0.148905 0.386074 0.169122
Si Si5 0.816303 0.386205 0.665896
Si Si6 0.331891 0.997200 0.169989
Si Si7 0.482301 0.719044 0.665855
O O1 0.057323 0.887915 0.500000
O O2 0.072370 0.860525 0.760816
O O3 0.977032 0.881741 0.704691
O O4 0.164489 0.832282 0.785845
O O5 0.043065 0.738526 0.771834
O O6 0.084495 0.814963 0.000000
O O7 0.525707 0.120562 0.240941
O O8 0.500000 0.000000 0.215015
O O9 0.405306 0.025092 0.226876
O O10 0.483335 0.062955 0.000000
O O11 0.076224 0.362682 0.227790
O O12 0.199830 0.453260 0.240749
O O13 0.153279 0.397075 0.000000
O O14 0.836120 0.394006 0.500000
O O15 0.788368 0.433097 0.709850
O O16 0.760410 0.313100 0.702023
O O17 0.331367 0.996976 0.000000
O O18 0.501741 0.724944 0.500000
#
# Coordination Sequence:
#
# PCOD8325211 Si02
#       7
#    12  12  12  12  12  12  12
#     4  10  21  37  56  78 106 140 177 218 265 315
#     4  10  20  35  56  80 107 140 177 217 262 313
#     4  10  20  35  56  80 107 140 177 217 262 313
#     4  10  20  35  56  80 107 140 177 217 262 313
#     4  10  21  37  56  78 106 140 177 218 265 315
#     4   9  18  33  52  77 109 141 172 212 265 318
#     4  10  21  37  56  78 106 140 177 218 265 315
#
# _framework density 18.643616999999999
#
# number of rings (size 3 to 8) (size 9 to 14) (size 15 to 20)
#    0.000    2.143    0.000    3.000    0.000    7.714 
#    0.000    2.143    0.000    2.571    0.000    0.000 
#    0.000    0.000    0.000    0.000    0.000    0.000 
#
# Total GULP energy -1041913.615310 kJ/mol
# GULP energy per Si atom -12403.733516 kJ/mol
# Density = 1.860118 g / cm^3
# Si number density = 18.643617 Si / 1000 Ang^3
#
#
#
# Elastic Constant Matrix: (Units=GPa)
#
#
# Indices 1 2 3 4 5 6 
#
# 1 133.9093 46.9972 34.3646 0.0000 0.0000 0.0000
# 2 46.9972 133.9093 34.3646 0.0000 0.0000 0.0000
# 3 34.3646 34.3646 26.1324 0.0000 0.0000 0.0000
# 4 0.0000 0.0000 0.0000 28.9584 0.0000 0.0000
# 5 0.0000 0.0000 0.0000 0.0000 28.9584 0.0000
# 6 0.0000 0.0000 0.0000 0.0000 0.0000 43.4560
#
#
#
# Elastic Compliance Matrix: (Units=1/GPa)
#
#
# Indices 1 2 3 4 5 6 
#
# 1 0.011276 -0.000230 -0.014526 0.000000 0.000000 0.000000
# 2 -0.000230 0.011276 -0.014526 0.000000 0.000000 0.000000
# 3 -0.014526 -0.014526 0.076472 0.000000 0.000000 0.000000
# 4 0.000000 0.000000 0.000000 0.034532 0.000000 0.000000
# 5 0.000000 0.000000 0.000000 0.000000 0.034532 0.000000
# 6 0.000000 0.000000 0.000000 0.000000 0.000000 0.023012
#
#
# Mechanical properties :
#
#
# Convention : Reuss Voigt Hill
#
# Bulk Modulus (GPa) = 24.71623 58.37821 41.54722
# Shear Modulus (GPa) = 19.00040 32.15619 25.57829
#
# Velocity S-wave (km/s) = 3.19586 4.15756 3.70802
# Velocity P-wave (km/s) = 5.18690 7.37751 6.37698
#
# Compressibility (1/GPa) = 0.04045924
#
# Stress axis : x y z
#
# Youngs Moduli (GPa) = 88.68225 88.68225 13.07668
#
# Poissons Ratio (x) = 0.02037 0.18996
# Poissons Ratio (y) = 0.02037 0.18996
# Poissons Ratio (z) = 1.28824 1.28824
#
# Static dielectric constant tensor:
#      x y z
#    x 3.632640 0.000000 0.000000 
#    y 0.000000 3.632640 0.000000 
#    z 0.000000 0.000000 3.191820 
# 
# 
# High freq. dielectric constant tensor:
#      x y z
#    x 1.743010 0.000000 0.000000 
#    y 0.000000 1.743010 0.000000 
#    z 0.000000 0.000000 1.699010 
# 
# From -- ./inp_files/2002.got.cif
#   From: 2010.03.12/outbox.cif.g09.slc.cpg/sg175_2_cif.got.tgz:2002.got - 2010.04.02 06:55:29.
