data_PCOD8325011
_publ_section_title
;
Structure prediction by ZEFSAII (Michael W. Deem and Ramdas Pophale) SiO2 
 PCOD8325011
Probable space group: P 6/M
;
_chemical_formula_sum "Si O2"
_cell_formula_units_Z 76
_cell_length_a 19.612129
_cell_length_b 19.612129
_cell_length_c 15.654788
_cell_angle_alpha 90.000000
_cell_angle_beta 90.000000
_cell_angle_gamma 120.000000
_cell_volume 5214.675698
_symmetry_space_group_name_H-M "P 6/M"
_symmetry_group_IT_number 175
_symmetry_cell_setting 'hexagonal'
loop_
_space_group_symop_operation_xyz
x,y,z
x-y,x,z
-y,x-y,z
-x,-y,z
-x+y,-x,z
y,-x+y,z
-x,-y,-z
-x+y,-x,-z
y,-x+y,-z
x,y,-z
x-y,x,-z
-y,x-y,-z
loop_
_atom_site_type_symbol
_atom_site_label
_atom_site_fract_x
_atom_site_fract_y
_atom_site_fract_z
Si Si1 0.266176 0.855869 0.401185
Si Si2 0.002574 0.259629 0.658353
Si Si3 0.994851 0.155200 0.000000
Si Si4 0.333333 0.666667 0.397563
Si Si5 0.158911 0.164132 0.814772
Si Si6 0.423293 0.115546 0.401066
Si Si7 0.840579 0.431878 0.601233
Si Si8 0.832920 0.987073 0.500000
O O1 0.269083 0.879320 0.500000
O O2 0.237872 0.907591 0.348951
O O3 0.204629 0.763643 0.387431
O O4 0.353595 0.876319 0.369615
O O5 0.991952 0.219193 0.749013
O O6 0.945074 0.295776 0.655756
O O7 0.979594 0.196168 0.583864
O O8 0.068624 0.144309 0.000000
O O9 0.993552 0.194912 0.909349
O O10 0.333334 0.666668 0.500000
O O11 0.246019 0.618420 0.359473
O O12 0.072587 0.152575 0.800656
O O13 0.403726 0.091041 0.500000
O O14 0.499533 0.109292 0.371254
O O15 0.832858 0.428589 0.500000
O O16 0.849095 0.915365 0.500000
#
# Coordination Sequence:
#
# PCOD8325011 Si02
#       8
#    12  12   6   4  12  12  12   6
#     4  10  18  29  42  58  82 114 148 185 221 252
#     4  12  22  31  42  60  88 120 145 173 211 254
#     4   8  15  28  48  70  86  99 124 172 228 270
#     4   9  12  24  39  66  75  96 144 190 230 253
#     4  10  19  32  49  67  85 107 139 179 221 260
#     4  10  18  29  42  58  82 114 148 185 221 252
#     4   9  16  25  44  61  78 104 148 192 222 256
#     4  12  23  36  46  55  74 112 160 190 198 215
#
# _framework density 14.574252
#
# number of rings (size 3 to 8) (size 9 to 14) (size 15 to 20)
#    0.000    1.895    3.158    3.158    0.000    1.895 
#    0.000    3.947    0.000    0.000    0.000    0.000 
#    0.000    2.526    0.000    0.158    0.000    2.368 
#
# Total GULP energy -941876.671757 kJ/mol
# GULP energy per Si atom -12393.114102 kJ/mol
# Density = 1.454108 g / cm^3
# Si number density = 14.574252 Si / 1000 Ang^3
#
#
#
# Elastic Constant Matrix: (Units=GPa)
#
#
# Indices 1 2 3 4 5 6 
#
# 1 55.7187 1.1507 20.8012 0.0000 0.0000 0.0000
# 2 1.1507 55.7185 20.8012 0.0000 0.0000 0.0000
# 3 20.8012 20.8012 74.7878 0.0000 0.0000 0.0000
# 4 0.0000 0.0000 0.0000 10.6446 0.0000 0.0000
# 5 0.0000 0.0000 0.0000 0.0000 10.6447 0.0000
# 6 0.0000 0.0000 0.0000 0.0000 0.0000 27.2839
#
#
#
# Elastic Compliance Matrix: (Units=1/GPa)
#
#
# Indices 1 2 3 4 5 6 
#
# 1 0.020201 0.001875 -0.006140 0.000000 0.000000 0.000000
# 2 0.001875 0.020201 -0.006140 0.000000 0.000000 0.000000
# 3 -0.006140 -0.006140 0.016787 0.000000 0.000000 0.000000
# 4 0.000000 0.000000 0.000000 0.093944 0.000000 0.000000
# 5 0.000000 0.000000 0.000000 0.000000 0.093944 0.000000
# 6 0.000000 0.000000 0.000000 0.000000 0.000000 0.036652
#
#
# Mechanical properties :
#
#
# Convention : Reuss Voigt Hill
#
# Bulk Modulus (GPa) = 27.48903 30.19237 28.84070
# Shear Modulus (GPa) = 15.88994 19.27942 17.58468
#
# Velocity S-wave (km/s) = 3.30551 3.64103 3.47732
# Velocity P-wave (km/s) = 5.78540 6.19979 5.99618
#
# Compressibility (1/GPa) = 0.03637815
#
# Stress axis : x y z
#
# Youngs Moduli (GPa) = 49.50286 49.50271 59.57084
#
# Poissons Ratio (x) = -0.09282 0.36577
# Poissons Ratio (y) = -0.09282 0.36577
# Poissons Ratio (z) = 0.30395 0.30395
#
# Static dielectric constant tensor:
#      x y z
#    x 2.927280 0.000000 0.000000 
#    y 0.000000 2.927280 0.000000 
#    z 0.000000 0.000000 2.672690 
# 
# 
# High freq. dielectric constant tensor:
#      x y z
#    x 1.562830 0.000000 0.000000 
#    y 0.000000 1.562830 0.000000 
#    z 0.000000 0.000000 1.493730 
# 
# From -- ./inp_files/2581.got.cif
#   From: 2010.03.12/outbox.cif.g09.slc.cpg/sg175_2_cif.got.tgz:2581.got - 2010.04.02 06:55:29.
