data_PCOD8325302
_publ_section_title
;
Structure prediction by ZEFSAII (Michael W. Deem and Ramdas Pophale) SiO2 
 PCOD8325302
Probable space group: P 6/M
;
_chemical_formula_sum "Si O2"
_cell_formula_units_Z 30
_cell_length_a 11.461532
_cell_length_b 11.461532
_cell_length_c 12.673589
_cell_angle_alpha 90.000000
_cell_angle_beta 90.000000
_cell_angle_gamma 120.000000
_cell_volume 1441.835098
_symmetry_space_group_name_H-M "P 6/M"
_symmetry_group_IT_number 175
_symmetry_cell_setting 'hexagonal'
loop_
_space_group_symop_operation_xyz
x,y,z
x-y,x,z
-y,x-y,z
-x,-y,z
-x+y,-x,z
y,-x+y,z
-x,-y,-z
-x+y,-x,-z
y,-x+y,-z
x,y,-z
x-y,x,-z
-y,x-y,-z
loop_
_atom_site_type_symbol
_atom_site_label
_atom_site_fract_x
_atom_site_fract_y
_atom_site_fract_z
Si Si1 0.901986 0.689251 0.500000
Si Si2 0.203748 0.503515 0.694395
Si Si3 0.103048 0.307349 0.879102
O O1 0.808642 0.755015 0.500000
O O2 0.878242 0.599273 0.602506
O O3 0.363676 0.551459 0.685593
O O4 0.146404 0.437450 0.807550
O O5 0.194487 0.242372 0.852233
O O6 0.118566 0.355029 0.000000
#
# Coordination Sequence:
#
# PCOD8325302 Si02
#       3
#     6  12  12
#     4  12  25  42  66  92 119 152 194 248 302 352
#     4  10  24  42  59  90 121 160 201 239 291 357
#     4  10  21  38  62  90 121 158 200 250 302 350
#
# _framework density 20.806816000000001
#
# number of rings (size 3 to 8) (size 9 to 14) (size 15 to 20)
#    0.800    0.800    0.000    4.200    0.000   11.200 
#    0.000    8.000    0.000    0.000    0.000    0.000 
#    0.000    0.000    0.000    0.000    0.000    0.000 
#
# Total GULP energy -372054.050862 kJ/mol
# GULP energy per Si atom -12401.801695 kJ/mol
# Density = 2.075946 g / cm^3
# Si number density = 20.806816 Si / 1000 Ang^3
#
#
#
# Elastic Constant Matrix: (Units=GPa)
#
#
# Indices 1 2 3 4 5 6 
#
# 1 58.7741 -22.3288 22.7689 0.0000 0.0000 0.0000
# 2 -22.3288 58.7741 22.7689 0.0000 0.0000 0.0000
# 3 22.7689 22.7689 110.2436 0.0000 0.0000 0.0000
# 4 0.0000 0.0000 0.0000 14.1832 0.0000 0.0000
# 5 0.0000 0.0000 0.0000 0.0000 14.1832 0.0000
# 6 0.0000 0.0000 0.0000 0.0000 0.0000 40.5514
#
#
#
# Elastic Compliance Matrix: (Units=1/GPa)
#
#
# Indices 1 2 3 4 5 6 
#
# 1 0.024656 0.012326 -0.007638 0.000000 0.000000 0.000000
# 2 0.012326 0.024656 -0.007638 0.000000 0.000000 0.000000
# 3 -0.007638 -0.007638 0.012226 0.000000 0.000000 0.000000
# 4 0.000000 0.000000 0.000000 0.070506 0.000000 0.000000
# 5 0.000000 0.000000 0.000000 0.000000 0.070506 0.000000
# 6 0.000000 0.000000 0.000000 0.000000 0.000000 0.024660
#
#
# Mechanical properties :
#
#
# Convention : Reuss Voigt Hill
#
# Bulk Modulus (GPa) = 17.97340 30.46774 24.22057
# Shear Modulus (GPa) = 19.86839 27.42240 23.64539
#
# Velocity S-wave (km/s) = 3.09349 3.63430 3.37475
# Velocity P-wave (km/s) = 4.62781 5.68206 5.18181
#
# Compressibility (1/GPa) = 0.05563776
#
# Stress axis : x y z
#
# Youngs Moduli (GPa) = 40.55813 40.55813 81.79423
#
# Poissons Ratio (x) = -0.49992 0.62474
# Poissons Ratio (y) = -0.49992 0.62474
# Poissons Ratio (z) = 0.30978 0.30978
#
# Static dielectric constant tensor:
#      x y z
#    x 3.719800 0.000000 0.000000 
#    y 0.000000 3.719800 0.000000 
#    z 0.000000 0.000000 3.835350 
# 
# 
# High freq. dielectric constant tensor:
#      x y z
#    x 1.816910 0.000000 0.000000 
#    y 0.000000 1.816910 0.000000 
#    z 0.000000 0.000000 1.824990 
# 
# From -- ./inp_files/2190.got.cif
#   From: 2010.03.12/outbox.cif.g09.slc.cpg/sg175_2_cif.got.tgz:2190.got - 2010.04.02 06:55:29.
