data_PCOD8325092
_publ_section_title
;
Structure prediction by ZEFSAII (Michael W. Deem and Ramdas Pophale) SiO2 
 PCOD8325092
Probable space group: P 6/M
;
_chemical_formula_sum "Si O2"
_cell_formula_units_Z 72
_cell_length_a 23.343875
_cell_length_b 23.343875
_cell_length_c 9.001487
_cell_angle_alpha 90.000000
_cell_angle_beta 90.000000
_cell_angle_gamma 120.000000
_cell_volume 4248.061430
_symmetry_space_group_name_H-M "P 6/M"
_symmetry_group_IT_number 175
_symmetry_cell_setting 'hexagonal'
loop_
_space_group_symop_operation_xyz
x,y,z
x-y,x,z
-y,x-y,z
-x,-y,z
-x+y,-x,z
y,-x+y,z
-x,-y,-z
-x+y,-x,-z
y,-x+y,-z
x,y,-z
x-y,x,-z
-y,x-y,-z
loop_
_atom_site_type_symbol
_atom_site_label
_atom_site_fract_x
_atom_site_fract_y
_atom_site_fract_z
Si Si1 0.369500 0.291415 0.669068
Si Si2 0.847093 0.910349 0.826683
Si Si3 0.482812 0.398638 0.831579
Si Si4 0.344566 0.058461 0.177384
Si Si5 0.712535 0.860428 0.330473
Si Si6 0.926782 0.400454 0.833360
O O1 0.368916 0.313327 0.500000
O O2 0.444864 0.332748 0.731782
O O3 0.318777 0.302873 0.765130
O O4 0.346264 0.214619 0.680067
O O5 0.895776 0.883098 0.783570
O O6 0.780448 0.868754 0.733049
O O7 0.828982 0.899872 0.000000
O O8 0.554883 0.453039 0.759837
O O9 0.439423 0.433811 0.832680
O O10 0.490407 0.378984 0.000000
O O11 0.309346 0.097202 0.233067
O O12 0.421761 0.093340 0.236401
O O13 0.343342 0.056208 0.000000
O O14 0.724107 0.885438 0.500000
O O15 0.899995 0.389862 0.000000
#
# Coordination Sequence:
#
# PCOD8325092 Si02
#       6
#    12  12  12  12  12  12
#     4  10  20  32  45  65  96 127 154 188 231 279
#     4  10  21  37  56  74  90 113 154 209 263 313
#     4   8  13  25  45  66  90 118 147 175 209 256
#     4  10  19  32  50  68  89 120 158 194 231 279
#     4  11  23  35  46  65  96 128 157 194 241 293
#     4   7  12  24  43  67  91 114 141 178 217 252
#
# _framework density 16.948907999999999
#
# number of rings (size 3 to 8) (size 9 to 14) (size 15 to 20)
#    0.000    2.667    0.000    4.667    0.000    6.667 
#    0.000    7.500    0.000    1.000    0.000    0.000 
#    1.667    0.000    1.000    0.000    1.333    0.000 
#
# Total GULP energy -891980.850155 kJ/mol
# GULP energy per Si atom -12388.622919 kJ/mol
# Density = 1.691033 g / cm^3
# Si number density = 16.948908 Si / 1000 Ang^3
#
#
#
# Elastic Constant Matrix: (Units=GPa)
#
#
# Indices 1 2 3 4 5 6 
#
# 1 51.0437 4.6532 18.3050 0.0000 0.0000 0.0000
# 2 4.6532 51.0437 18.3050 0.0000 0.0000 0.0000
# 3 18.3050 18.3050 67.0580 0.0000 0.0000 0.0000
# 4 0.0000 0.0000 0.0000 14.0317 0.0000 0.0000
# 5 0.0000 0.0000 0.0000 0.0000 14.0317 0.0000
# 6 0.0000 0.0000 0.0000 0.0000 0.0000 23.1953
#
#
#
# Elastic Compliance Matrix: (Units=1/GPa)
#
#
# Indices 1 2 3 4 5 6 
#
# 1 0.021718 0.000162 -0.005973 0.000000 0.000000 0.000000
# 2 0.000162 0.021718 -0.005973 0.000000 0.000000 0.000000
# 3 -0.005973 -0.005973 0.018173 0.000000 0.000000 0.000000
# 4 0.000000 0.000000 0.000000 0.071267 0.000000 0.000000
# 5 0.000000 0.000000 0.000000 0.000000 0.071267 0.000000
# 6 0.000000 0.000000 0.000000 0.000000 0.000000 0.043112
#
#
# Mechanical properties :
#
#
# Convention : Reuss Voigt Hill
#
# Bulk Modulus (GPa) = 26.28613 27.96352 27.12482
# Shear Modulus (GPa) = 17.63646 18.77724 18.20685
#
# Velocity S-wave (km/s) = 3.22928 3.33208 3.28108
# Velocity P-wave (km/s) = 5.42651 5.59806 5.51295
#
# Compressibility (1/GPa) = 0.03804288
#
# Stress axis : x y z
#
# Youngs Moduli (GPa) = 46.04443 46.04443 55.02602
#
# Poissons Ratio (x) = -0.00746 0.32865
# Poissons Ratio (y) = -0.00746 0.32865
# Poissons Ratio (z) = 0.27501 0.27501
#
# Static dielectric constant tensor:
#      x y z
#    x 3.326090 0.000000 0.000000 
#    y 0.000000 3.326090 0.000000 
#    z 0.000000 0.000000 3.165210 
# 
# 
# High freq. dielectric constant tensor:
#      x y z
#    x 1.637330 0.000000 0.000000 
#    y 0.000000 1.637330 0.000000 
#    z 0.000000 0.000000 1.643340 
# 
# From -- ./inp_files/1201.got.cif
#   From: 2010.03.12/outbox.cif.g09.slc.cpg/sg175_1_cif.got.tgz:1201.got - 2010.04.02 06:55:29.
