data_PCOD8325646
_publ_section_title
;
Structure prediction by ZEFSAII (Michael W. Deem and Ramdas Pophale) SiO2 
 PCOD8325646
Probable space group: P 63/M
;
_chemical_formula_sum "Si O2"
_cell_formula_units_Z 54
_cell_length_a 11.816919
_cell_length_b 11.816919
_cell_length_c 22.141624
_cell_angle_alpha 90.000000
_cell_angle_beta 90.000000
_cell_angle_gamma 120.000000
_cell_volume 2677.618010
_symmetry_space_group_name_H-M "P 63/M"
_symmetry_group_IT_number 176
_symmetry_cell_setting 'hexagonal'
loop_
_space_group_symop_operation_xyz
x,y,z
x-y,x,1/2+z
-y,x-y,z
-x,-y,1/2+z
-x+y,-x,z
y,-x+y,1/2+z
-x,-y,-z
-x+y,-x,1/2-z
y,-x+y,-z
x,y,1/2-z
x-y,x,-z
-y,x-y,1/2-z
loop_
_atom_site_type_symbol
_atom_site_label
_atom_site_fract_x
_atom_site_fract_y
_atom_site_fract_z
Si Si1 0.579056 0.916611 0.569307
Si Si2 0.378486 0.931797 0.182855
Si Si3 0.030701 0.870012 0.250000
Si Si4 0.717681 0.613603 0.844329
Si Si5 0.925060 0.594426 0.044963
O O1 0.428380 0.868850 0.555284
O O2 0.622057 0.811430 0.559434
O O3 0.607126 0.953465 0.639517
O O4 0.666358 0.037200 0.524880
O O5 0.339481 0.953809 0.250000
O O6 0.514338 0.932502 0.187741
O O7 0.261378 0.798384 0.155058
O O8 0.046601 0.798069 0.308968
O O9 0.887618 0.860657 0.250000
O O10 0.685892 0.637082 0.912475
#
# Coordination Sequence:
#
# PCOD8325646 Si02
#       5
#    12  12   6  12  12
#     4  10  22  39  61  87 118 157 201 261 313 381
#     4  11  21  37  63  91 122 160 211 264 309 359
#     4  10  24  38  58  92 134 176 200 246 316 396
#     4  11  22  39  63  93 126 167 214 266 312 369
#     4  10  22  40  63  88 120 160 209 260 320 379
#
# _framework density 20.167179000000001
#
# number of rings (size 3 to 8) (size 9 to 14) (size 15 to 20)
#    0.222    1.333    2.222    2.222    3.111    0.000 
#    0.000    4.444    0.000    1.778    0.000    0.000 
#    0.000    0.000    0.000    0.000    0.000    0.000 
#
# Total GULP energy -669377.435361 kJ/mol
# GULP energy per Si atom -12395.878433 kJ/mol
# Density = 2.012128 g / cm^3
# Si number density = 20.167179 Si / 1000 Ang^3
#
#
#
# Elastic Constant Matrix: (Units=GPa)
#
#
# Indices 1 2 3 4 5 6 
#
# 1 81.6377 40.2340 39.9430 0.0000 0.0000 0.0000
# 2 40.2340 81.6377 39.9430 0.0000 0.0000 0.0000
# 3 39.9430 39.9430 109.2844 0.0000 0.0000 0.0000
# 4 0.0000 0.0000 0.0000 13.8922 0.0000 0.0000
# 5 0.0000 0.0000 0.0000 0.0000 13.8922 0.0000
# 6 0.0000 0.0000 0.0000 0.0000 0.0000 20.7018
#
#
#
# Elastic Compliance Matrix: (Units=1/GPa)
#
#
# Indices 1 2 3 4 5 6 
#
# 1 0.017471 -0.006681 -0.003944 0.000000 0.000000 0.000000
# 2 -0.006681 0.017471 -0.003944 0.000000 0.000000 0.000000
# 3 -0.003944 -0.003944 0.012033 0.000000 0.000000 0.000000
# 4 0.000000 0.000000 0.000000 0.071983 0.000000 0.000000
# 5 0.000000 0.000000 0.000000 0.000000 0.071983 0.000000
# 6 0.000000 0.000000 0.000000 0.000000 0.000000 0.048305
#
#
# Mechanical properties :
#
#
# Convention : Reuss Voigt Hill
#
# Bulk Modulus (GPa) = 56.05733 56.97778 56.51755
# Shear Modulus (GPa) = 18.22620 19.85992 19.04306
#
# Velocity S-wave (km/s) = 3.00951 3.14150 3.07621
# Velocity P-wave (km/s) = 6.31925 6.43993 6.37988
#
# Compressibility (1/GPa) = 0.01783888
#
# Stress axis : x y z
#
# Youngs Moduli (GPa) = 57.23609 57.23609 83.10205
#
# Poissons Ratio (x) = 0.38239 0.32775
# Poissons Ratio (y) = 0.38239 0.32775
# Poissons Ratio (z) = 0.22573 0.22573
#
# Static dielectric constant tensor:
#      x y z
#    x 3.533980 0.000000 0.000000 
#    y 0.000000 3.533980 0.000000 
#    z 0.000000 0.000000 3.791120 
# 
# 
# High freq. dielectric constant tensor:
#      x y z
#    x 1.780230 0.000000 0.000000 
#    y 0.000000 1.780230 0.000000 
#    z 0.000000 0.000000 1.798760 
# 
# From -- ./inp_files/4007.got.cif
#   From: 2010.06.25/outbox.cif.g09.slc.cpg/sg176_3_cif.got.tgz:4007.got - 2010.06.28 12:15:01.
