data_PCOD8325568
_publ_section_title
;
Structure prediction by ZEFSAII (Michael W. Deem and Ramdas Pophale) SiO2 
 PCOD8325568
Probable space group: P 63/M
;
_chemical_formula_sum "Si O2"
_cell_formula_units_Z 66
_cell_length_a 20.001134
_cell_length_b 20.001134
_cell_length_c 10.305951
_cell_angle_alpha 90.000000
_cell_angle_beta 90.000000
_cell_angle_gamma 120.000000
_cell_volume 3570.491010
_symmetry_space_group_name_H-M "P 63/M"
_symmetry_group_IT_number 176
_symmetry_cell_setting 'hexagonal'
loop_
_space_group_symop_operation_xyz
x,y,z
x-y,x,1/2+z
-y,x-y,z
-x,-y,1/2+z
-x+y,-x,z
y,-x+y,1/2+z
-x,-y,-z
-x+y,-x,1/2-z
y,-x+y,-z
x,y,1/2-z
x-y,x,-z
-y,x-y,1/2-z
loop_
_atom_site_type_symbol
_atom_site_label
_atom_site_fract_x
_atom_site_fract_y
_atom_site_fract_z
Si Si1 0.454516 0.931395 0.600334
Si Si2 0.464269 0.163706 0.103625
Si Si3 0.303329 0.832701 0.468935
Si Si4 0.196710 0.899886 0.103290
Si Si5 0.920976 0.210692 0.101318
Si Si6 0.344542 0.758158 0.250000
O O1 0.472861 0.960814 0.750000
O O2 0.479883 0.868864 0.569889
O O3 0.362579 0.889980 0.577129
O O4 0.500000 0.000000 0.500000
O O5 0.474168 0.191790 0.250000
O O6 0.489206 0.239840 0.022491
O O7 0.376570 0.097233 0.075727
O O8 0.262161 0.875906 0.405253
O O9 0.352143 0.812111 0.370244
O O10 0.163059 0.881301 0.250000
O O11 0.233514 0.989811 0.072482
O O12 0.128920 0.858115 0.998525
O O13 0.899876 0.180236 0.250000
O O14 0.262270 0.676016 0.250000
#
# Coordination Sequence:
#
# PCOD8325568 Si02
#       6
#    12  12  12  12  12   6
#     4  11  24  39  59  83 113 152 195 246 303 359
#     4   9  19  37  56  78 109 147 194 240 290 348
#     4  11  20  37  57  81 112 154 195 244 294 353
#     4  10  20  36  59  86 115 153 188 233 291 345
#     4   9  19  35  57  83 114 146 186 234 283 342
#     4  10  22  34  52  82 116 152 194 248 304 340
#
# _framework density 18.484853999999999
#
# number of rings (size 3 to 8) (size 9 to 14) (size 15 to 20)
#    0.182    1.818    0.909    2.727    1.273    2.909 
#    2.727    3.636    0.000    0.364    0.000    0.000 
#    0.000    0.000    0.000    0.000    0.000    0.000 
#
# Total GULP energy -818208.788301 kJ/mol
# GULP energy per Si atom -12397.102853 kJ/mol
# Density = 1.844278 g / cm^3
# Si number density = 18.484854 Si / 1000 Ang^3
#
#
#
# Elastic Constant Matrix: (Units=GPa)
#
#
# Indices 1 2 3 4 5 6 
#
# 1 73.6821 35.5638 50.6801 0.0000 0.0000 0.0000
# 2 35.5638 73.6821 50.6801 0.0000 0.0000 0.0000
# 3 50.6801 50.6801 114.7046 0.0000 0.0000 0.0000
# 4 0.0000 0.0000 0.0000 30.0196 0.0000 0.0000
# 5 0.0000 0.0000 0.0000 0.0000 30.0196 0.0000
# 6 0.0000 0.0000 0.0000 0.0000 0.0000 19.0592
#
#
#
# Elastic Compliance Matrix: (Units=1/GPa)
#
#
# Indices 1 2 3 4 5 6 
#
# 1 0.020874 -0.005361 -0.006854 0.000000 0.000000 0.000000
# 2 -0.005361 0.020874 -0.006854 0.000000 0.000000 0.000000
# 3 -0.006854 -0.006854 0.014775 0.000000 0.000000 0.000000
# 4 0.000000 0.000000 0.000000 0.033312 0.000000 0.000000
# 5 0.000000 0.000000 0.000000 0.000000 0.033312 0.000000
# 6 0.000000 0.000000 0.000000 0.000000 0.000000 0.052468
#
#
# Mechanical properties :
#
#
# Convention : Reuss Voigt Hill
#
# Bulk Modulus (GPa) = 54.39422 59.54633 56.97027
# Shear Modulus (GPa) = 22.73976 24.16266 23.45121
#
# Velocity S-wave (km/s) = 3.51120 3.61939 3.56571
# Velocity P-wave (km/s) = 6.77704 7.05338 6.91659
#
# Compressibility (1/GPa) = 0.01838431
#
# Stress axis : x y z
#
# Youngs Moduli (GPa) = 47.90741 47.90741 67.68263
#
# Poissons Ratio (x) = 0.25681 0.46391
# Poissons Ratio (y) = 0.25681 0.46391
# Poissons Ratio (z) = 0.32837 0.32837
#
# Static dielectric constant tensor:
#      x y z
#    x 3.489300 0.000000 0.000000 
#    y 0.000000 3.489300 0.000000 
#    z 0.000000 0.000000 3.646780 
# 
# 
# High freq. dielectric constant tensor:
#      x y z
#    x 1.707700 0.000000 0.000000 
#    y 0.000000 1.707700 0.000000 
#    z 0.000000 0.000000 1.726910 
# 
# From -- ./inp_files/967.got.cif
#   From: 2010.06.25/outbox.cif.g09.slc.cpg/sg176_1_cif.got.tgz:967.got - 2010.06.28 12:15:01.
