data_PCOD8325690
_publ_section_title
;
Structure prediction by ZEFSAII (Michael W. Deem and Ramdas Pophale) SiO2 
 PCOD8325690
Probable space group: P 63/M
;
_chemical_formula_sum "Si O2"
_cell_formula_units_Z 64
_cell_length_a 16.062536
_cell_length_b 16.062536
_cell_length_c 18.014906
_cell_angle_alpha 90.000000
_cell_angle_beta 90.000000
_cell_angle_gamma 120.000000
_cell_volume 4025.231476
_symmetry_space_group_name_H-M "P 63/M"
_symmetry_group_IT_number 176
_symmetry_cell_setting 'hexagonal'
loop_
_space_group_symop_operation_xyz
x,y,z
x-y,x,1/2+z
-y,x-y,z
-x,-y,1/2+z
-x+y,-x,z
y,-x+y,1/2+z
-x,-y,-z
-x+y,-x,1/2-z
y,-x+y,-z
x,y,1/2-z
x-y,x,-z
-y,x-y,1/2-z
loop_
_atom_site_type_symbol
_atom_site_label
_atom_site_fract_x
_atom_site_fract_y
_atom_site_fract_z
Si Si1 0.475255 0.331786 0.334939
Si Si2 0.283548 0.238506 0.078047
Si Si3 0.104271 0.889821 0.337160
Si Si4 0.523300 0.857504 0.665227
Si Si5 0.040554 0.758733 0.916020
Si Si6 0.000000 0.000000 0.338293
O O1 0.441788 0.330669 0.250000
O O2 0.389290 0.308949 0.390906
O O3 0.509792 0.254227 0.344305
O O4 0.562989 0.435061 0.357096
O O5 0.214228 0.263674 0.125544
O O6 0.257825 0.127372 0.084329
O O7 0.276290 0.266101 0.994620
O O8 0.095409 0.874572 0.250000
O O9 0.215032 0.955842 0.359129
O O10 0.050974 0.944094 0.369323
O O11 0.556187 0.889998 0.750000
O O12 0.610002 0.921757 0.610031
O O13 0.000000 0.000000 0.250000
#
# Coordination Sequence:
#
# PCOD8325690 Si02
#       6
#    12  12  12  12  12   4
#     4   9  18  33  53  74  95 121 156 200 249 297
#     4  11  21  32  47  70 101 134 165 199 241 290
#     4  11  20  31  47  69  98 135 175 205 233 277
#     4   9  18  33  53  74  95 121 156 200 249 297
#     4  11  21  32  47  70 101 134 165 199 241 290
#     4   9  18  27  43  65  91 129 169 203 229 258
#
# _framework density 15.899706
#
# number of rings (size 3 to 8) (size 9 to 14) (size 15 to 20)
#    0.000    1.875    3.750    1.500    0.000    3.750 
#    0.000    1.875    0.000    0.000    0.000    0.000 
#    1.875    0.000    2.250    0.000    0.000    0.000 
#
# Total GULP energy -793519.116884 kJ/mol
# GULP energy per Si atom -12398.736201 kJ/mol
# Density = 1.586352 g / cm^3
# Si number density = 15.899706 Si / 1000 Ang^3
#
#
#
# Elastic Constant Matrix: (Units=GPa)
#
#
# Indices 1 2 3 4 5 6 
#
# 1 81.2483 35.3456 25.3027 0.0000 0.0000 0.0000
# 2 35.3456 81.2483 25.3027 0.0000 0.0000 0.0000
# 3 25.3027 25.3027 56.9985 0.0000 0.0000 0.0000
# 4 0.0000 0.0000 0.0000 24.6218 0.0000 0.0000
# 5 0.0000 0.0000 0.0000 0.0000 24.6218 0.0000
# 6 0.0000 0.0000 0.0000 0.0000 0.0000 22.9514
#
#
#
# Elastic Compliance Matrix: (Units=1/GPa)
#
#
# Indices 1 2 3 4 5 6 
#
# 1 0.016204 -0.005581 -0.004716 0.000000 0.000000 0.000000
# 2 -0.005581 0.016204 -0.004716 0.000000 0.000000 0.000000
# 3 -0.004716 -0.004716 0.021731 0.000000 0.000000 0.000000
# 4 0.000000 0.000000 0.000000 0.040614 0.000000 0.000000
# 5 0.000000 0.000000 0.000000 0.000000 0.040614 0.000000
# 6 0.000000 0.000000 0.000000 0.000000 0.000000 0.043570
#
#
# Mechanical properties :
#
#
# Convention : Reuss Voigt Hill
#
# Bulk Modulus (GPa) = 41.46870 43.48857 42.47864
# Shear Modulus (GPa) = 23.04110 23.34192 23.19151
#
# Velocity S-wave (km/s) = 3.81090 3.83570 3.82332
# Velocity P-wave (km/s) = 6.74552 6.85770 6.80184
#
# Compressibility (1/GPa) = 0.02411457
#
# Stress axis : x y z
#
# Youngs Moduli (GPa) = 61.71143 61.71143 46.01627
#
# Poissons Ratio (x) = 0.34440 0.21702
# Poissons Ratio (y) = 0.34440 0.21702
# Poissons Ratio (z) = 0.29104 0.29104
#
# Static dielectric constant tensor:
#      x y z
#    x 2.937690 0.000000 0.000000 
#    y 0.000000 2.937690 0.000000 
#    z 0.000000 0.000000 2.925230 
# 
# 
# High freq. dielectric constant tensor:
#      x y z
#    x 1.601890 0.000000 0.000000 
#    y 0.000000 1.601890 0.000000 
#    z 0.000000 0.000000 1.610500 
# 
# From -- ./inp_files/3291.got.cif
#   From: 2010.06.25/outbox.cif.g09.slc.cpg/sg176_2_cif.got.tgz:3291.got - 2010.06.28 12:15:01.
