data_PCOD8325419
_publ_section_title
;
Structure prediction by ZEFSAII (Michael W. Deem and Ramdas Pophale) SiO2 
 PCOD8325419
Probable space group: P 63/M
;
_chemical_formula_sum "Si O2"
_cell_formula_units_Z 72
_cell_length_a 22.487763
_cell_length_b 22.487763
_cell_length_c 9.577022
_cell_angle_alpha 90.000000
_cell_angle_beta 90.000000
_cell_angle_gamma 120.000000
_cell_volume 4194.243382
_symmetry_space_group_name_H-M "P 63/M"
_symmetry_group_IT_number 176
_symmetry_cell_setting 'hexagonal'
loop_
_space_group_symop_operation_xyz
x,y,z
x-y,x,1/2+z
-y,x-y,z
-x,-y,1/2+z
-x+y,-x,z
y,-x+y,1/2+z
-x,-y,-z
-x+y,-x,1/2-z
y,-x+y,-z
x,y,1/2-z
x-y,x,-z
-y,x-y,1/2-z
loop_
_atom_site_type_symbol
_atom_site_label
_atom_site_fract_x
_atom_site_fract_y
_atom_site_fract_z
Si Si1 0.615629 0.629305 0.907996
Si Si2 0.437968 0.211084 0.588740
Si Si3 0.363607 0.868543 0.411121
Si Si4 0.240881 0.241634 0.090082
Si Si5 0.131269 0.284889 0.085872
Si Si6 0.502320 0.125714 0.912133
O O1 0.595700 0.636545 0.750000
O O2 0.695485 0.682148 0.936243
O O3 0.598979 0.552407 0.936885
O O4 0.571338 0.645090 0.012983
O O5 0.423521 0.188340 0.750000
O O6 0.492582 0.291481 0.570824
O O7 0.362983 0.188749 0.524929
O O8 0.473982 0.172008 0.515838
O O9 0.379715 0.890758 0.250000
O O10 0.424813 0.859139 0.477089
O O11 0.239910 0.219287 0.250000
O O12 0.172528 0.244846 0.054960
O O13 0.244421 0.185736 0.992376
O O14 0.116712 0.285667 0.250000
O O15 0.514483 0.145256 0.750000
#
# Coordination Sequence:
#
# PCOD8325419 Si02
#       6
#    12  12  12  12  12  12
#     4  10  18  30  49  70  97 130 160 198 250 303
#     4   9  16  29  47  69  98 130 165 208 256 295
#     4  10  19  30  48  71  95 127 168 209 246 290
#     4  10  20  33  53  79 104 136 169 200 253 311
#     4  10  19  34  55  76 105 138 165 206 256 300
#     4   9  17  30  46  67  97 131 164 202 250 298
#
# _framework density 17.166385999999999
#
# number of rings (size 3 to 8) (size 9 to 14) (size 15 to 20)
#    0.000    2.333    3.333    0.500    0.000    0.667 
#    1.000    0.000    0.000    3.333    0.000    0.000 
#    0.000    0.000    0.000    0.000    0.000    0.000 
#
# Total GULP energy -892616.939611 kJ/mol
# GULP energy per Si atom -12397.457495 kJ/mol
# Density = 1.712731 g / cm^3
# Si number density = 17.166386 Si / 1000 Ang^3
#
#
#
# Elastic Constant Matrix: (Units=GPa)
#
#
# Indices 1 2 3 4 5 6 
#
# 1 90.7696 38.3123 32.6083 0.0000 0.0000 0.0000
# 2 38.3123 90.7696 32.6083 0.0000 0.0000 0.0000
# 3 32.6083 32.6083 39.6600 0.0000 0.0000 0.0000
# 4 0.0000 0.0000 0.0000 19.5393 0.0000 0.0000
# 5 0.0000 0.0000 0.0000 0.0000 19.5393 0.0000
# 6 0.0000 0.0000 0.0000 0.0000 0.0000 26.2287
#
#
#
# Elastic Compliance Matrix: (Units=1/GPa)
#
#
# Indices 1 2 3 4 5 6 
#
# 1 0.016157 -0.002906 -0.010896 0.000000 0.000000 0.000000
# 2 -0.002906 0.016157 -0.010896 0.000000 0.000000 0.000000
# 3 -0.010896 -0.010896 0.043131 0.000000 0.000000 0.000000
# 4 0.000000 0.000000 0.000000 0.051179 0.000000 0.000000
# 5 0.000000 0.000000 0.000000 0.000000 0.051179 0.000000
# 6 0.000000 0.000000 0.000000 0.000000 0.000000 0.038126
#
#
# Mechanical properties :
#
#
# Convention : Reuss Voigt Hill
#
# Bulk Modulus (GPa) = 38.38445 47.58409 42.98427
# Shear Modulus (GPa) = 18.24767 20.90615 19.57691
#
# Velocity S-wave (km/s) = 3.26389 3.49356 3.38068
# Velocity P-wave (km/s) = 6.05085 6.63723 6.35081
#
# Compressibility (1/GPa) = 0.02605221
#
# Stress axis : x y z
#
# Youngs Moduli (GPa) = 61.89078 61.89078 23.18519
#
# Poissons Ratio (x) = 0.17983 0.25262
# Poissons Ratio (y) = 0.17983 0.25262
# Poissons Ratio (z) = 0.67434 0.67434
#
# Static dielectric constant tensor:
#      x y z
#    x 3.274160 0.000000 0.000000 
#    y 0.000000 3.274160 0.000000 
#    z 0.000000 0.000000 2.874790 
# 
# 
# High freq. dielectric constant tensor:
#      x y z
#    x 1.663130 0.000000 0.000000 
#    y 0.000000 1.663130 0.000000 
#    z 0.000000 0.000000 1.621280 
# 
# From -- ./inp_files/1137.got.cif
#   From: 2010.06.25/outbox.cif.g09.slc.cpg/sg176_1_cif.got.tgz:1137.got - 2010.06.28 12:15:01.
