data_PCOD8325555
_publ_section_title
;
Structure prediction by ZEFSAII (Michael W. Deem and Ramdas Pophale) SiO2 
 PCOD8325555
Probable space group: P 63/M
;
_chemical_formula_sum "Si O2"
_cell_formula_units_Z 60
_cell_length_a 16.379066
_cell_length_b 16.379066
_cell_length_c 13.911945
_cell_angle_alpha 90.000000
_cell_angle_beta 90.000000
_cell_angle_gamma 120.000000
_cell_volume 3232.189012
_symmetry_space_group_name_H-M "P 63/M"
_symmetry_group_IT_number 176
_symmetry_cell_setting 'hexagonal'
loop_
_space_group_symop_operation_xyz
x,y,z
x-y,x,1/2+z
-y,x-y,z
-x,-y,1/2+z
-x+y,-x,z
y,-x+y,1/2+z
-x,-y,-z
-x+y,-x,1/2-z
y,-x+y,-z
x,y,1/2-z
x-y,x,-z
-y,x-y,1/2-z
loop_
_atom_site_type_symbol
_atom_site_label
_atom_site_fract_x
_atom_site_fract_y
_atom_site_fract_z
Si Si1 0.515985 0.854833 0.357984
Si Si2 0.851302 0.065087 0.004161
Si Si3 0.753777 0.125139 0.640942
Si Si4 0.060277 0.364549 0.860853
Si Si5 0.908179 0.504405 0.518286
O O1 0.476527 0.849418 0.250000
O O2 0.543231 0.774903 0.374150
O O3 0.433163 0.835784 0.434534
O O4 0.612027 0.953657 0.371243
O O5 0.790657 0.068444 0.094694
O O6 0.830257 0.107387 0.910071
O O7 0.961582 0.130912 0.024412
O O8 0.753828 0.097314 0.750000
O O9 0.650326 0.062003 0.595937
O O10 0.094137 0.379188 0.750000
O O11 0.124664 0.462804 0.921443
O O12 0.000000 0.500000 0.500000
#
# Coordination Sequence:
#
# PCOD8325555 Si02
#       5
#    12  12  12  12  12
#     4   9  16  31  54  79 110 140 171 221 275 324
#     4  11  22  36  55  79 110 147 194 245 292 334
#     4  10  20  35  56  82 112 147 186 230 281 337
#     4   9  18  34  55  77 107 144 179 219 274 328
#     4   9  18  32  55  81 109 141 179 221 271 328
#
# _framework density 18.563271
#
# number of rings (size 3 to 8) (size 9 to 14) (size 15 to 20)
#    0.000    2.400    2.000    0.800    0.000    1.600 
#    1.200    0.000    0.000    3.600    0.000    0.000 
#    0.000    0.000    0.000    0.000    0.000    0.000 
#
# Total GULP energy -743364.379535 kJ/mol
# GULP energy per Si atom -12389.406326 kJ/mol
# Density = 1.852102 g / cm^3
# Si number density = 18.563271 Si / 1000 Ang^3
#
#
#
# Elastic Constant Matrix: (Units=GPa)
#
#
# Indices 1 2 3 4 5 6 
#
# 1 71.7878 29.1191 47.4188 0.0000 0.0000 0.0000
# 2 29.1191 71.7878 47.4188 0.0000 0.0000 0.0000
# 3 47.4188 47.4188 152.6541 0.0000 0.0000 0.0000
# 4 0.0000 0.0000 0.0000 20.2786 0.0000 0.0000
# 5 0.0000 0.0000 0.0000 0.0000 20.2786 0.0000
# 6 0.0000 0.0000 0.0000 0.0000 0.0000 21.3343
#
#
#
# Elastic Compliance Matrix: (Units=1/GPa)
#
#
# Indices 1 2 3 4 5 6 
#
# 1 0.018716 -0.004720 -0.004348 0.000000 0.000000 0.000000
# 2 -0.004720 0.018716 -0.004348 0.000000 0.000000 0.000000
# 3 -0.004348 -0.004348 0.009252 0.000000 0.000000 0.000000
# 4 0.000000 0.000000 0.000000 0.049313 0.000000 0.000000
# 5 0.000000 0.000000 0.000000 0.000000 0.049313 0.000000
# 6 0.000000 0.000000 0.000000 0.000000 0.000000 0.046873
#
#
# Mechanical properties :
#
#
# Convention : Reuss Voigt Hill
#
# Bulk Modulus (GPa) = 50.36840 60.46035 55.41437
# Shear Modulus (GPa) = 22.15996 23.86316 23.01156
#
# Velocity S-wave (km/s) = 3.45882 3.58928 3.52466
# Velocity P-wave (km/s) = 6.56837 7.05818 6.81767
#
# Compressibility (1/GPa) = 0.01985372
#
# Stress axis : x y z
#
# Youngs Moduli (GPa) = 53.42925 53.42925 108.08738
#
# Poissons Ratio (x) = 0.25219 0.46993
# Poissons Ratio (y) = 0.25219 0.46993
# Poissons Ratio (z) = 0.23229 0.23229
#
# Static dielectric constant tensor:
#      x y z
#    x 3.410480 0.000000 0.000000 
#    y 0.000000 3.410480 0.000000 
#    z 0.000000 0.000000 3.732610 
# 
# 
# High freq. dielectric constant tensor:
#      x y z
#    x 1.707600 0.000000 0.000000 
#    y 0.000000 1.707600 0.000000 
#    z 0.000000 0.000000 1.724880 
# 
# From -- ./inp_files/2620.got.cif
#   From: 2010.06.25/outbox.cif.g09.slc.cpg/sg176_2_cif.got.tgz:2620.got - 2010.06.28 12:15:01.
