data_PCOD8325495
_publ_section_title
;
Structure prediction by ZEFSAII (Michael W. Deem and Ramdas Pophale) SiO2 
 PCOD8325495
Probable space group: P 63/M
;
_chemical_formula_sum "Si O2"
_cell_formula_units_Z 84
_cell_length_a 18.529692
_cell_length_b 18.529692
_cell_length_c 13.629680
_cell_angle_alpha 90.000000
_cell_angle_beta 90.000000
_cell_angle_gamma 120.000000
_cell_volume 4052.776856
_symmetry_space_group_name_H-M "P 63/M"
_symmetry_group_IT_number 176
_symmetry_cell_setting 'hexagonal'
loop_
_space_group_symop_operation_xyz
x,y,z
x-y,x,1/2+z
-y,x-y,z
-x,-y,1/2+z
-x+y,-x,z
y,-x+y,1/2+z
-x,-y,-z
-x+y,-x,1/2-z
y,-x+y,-z
x,y,1/2-z
x-y,x,-z
-y,x-y,1/2-z
loop_
_atom_site_type_symbol
_atom_site_label
_atom_site_fract_x
_atom_site_fract_y
_atom_site_fract_z
Si Si1 0.745074 0.595914 0.037518
Si Si2 0.528074 0.583675 0.136719
Si Si3 0.690759 0.957805 0.361442
Si Si4 0.294204 0.277321 0.860078
Si Si5 0.429673 0.305000 0.360834
Si Si6 0.156153 0.981340 0.509057
Si Si7 0.426647 0.545356 0.956418
O O1 0.733489 0.656110 0.111772
O O2 0.831568 0.602214 0.063781
O O3 0.673465 0.498529 0.048998
O O4 0.749295 0.628245 0.926655
O O5 0.500265 0.557581 0.250000
O O6 0.605434 0.678180 0.130285
O O7 0.554780 0.524581 0.082976
O O8 0.452410 0.574725 0.069821
O O9 0.682672 0.927090 0.250000
O O10 0.660687 0.026003 0.373067
O O11 0.787315 0.996623 0.393433
O O12 0.265551 0.247349 0.750000
O O13 0.247583 0.195555 0.927251
O O14 0.428517 0.274535 0.250000
O O15 0.524007 0.375326 0.385925
O O16 0.062800 0.908181 0.531013
#
# Coordination Sequence:
#
# PCOD8325495 Si02
#       7
#    12  12  12  12  12  12  12
#     4  10  21  36  56  85 118 151 189 236 287 344
#     4   9  17  31  56  86 109 136 182 238 293 337
#     4  10  21  38  62  86 108 143 195 253 300 337
#     4   9  18  34  56  79 105 138 184 241 290 332
#     4  11  22  37  58  85 119 157 194 236 291 347
#     4  11  23  38  55  78 112 152 192 237 296 362
#     4  10  19  33  53  81 116 150 182 224 277 344
#
# _framework density 20.726531000000001
#
# number of rings (size 3 to 8) (size 9 to 14) (size 15 to 20)
#    0.000    2.000    0.000    6.143    0.000    5.714 
#    0.857    2.143    0.000    2.571    0.000    0.000 
#    0.000    0.000    0.000    0.000    0.000    0.000 
#
# Total GULP energy -1041308.152759 kJ/mol
# GULP energy per Si atom -12396.525628 kJ/mol
# Density = 2.067936 g / cm^3
# Si number density = 20.726531 Si / 1000 Ang^3
#
#
#
# Elastic Constant Matrix: (Units=GPa)
#
#
# Indices 1 2 3 4 5 6 
#
# 1 59.9238 13.7924 33.2960 0.0000 0.0000 0.0000
# 2 13.7924 59.9238 33.2960 0.0000 0.0000 0.0000
# 3 33.2960 33.2960 159.7262 0.0000 0.0000 0.0000
# 4 0.0000 0.0000 0.0000 19.1812 0.0000 0.0000
# 5 0.0000 0.0000 0.0000 0.0000 19.1812 0.0000
# 6 0.0000 0.0000 0.0000 0.0000 0.0000 23.0657
#
#
#
# Elastic Compliance Matrix: (Units=1/GPa)
#
#
# Indices 1 2 3 4 5 6 
#
# 1 0.019195 -0.002482 -0.003484 0.000000 0.000000 0.000000
# 2 -0.002482 0.019195 -0.003484 0.000000 0.000000 0.000000
# 3 -0.003484 -0.003484 0.007713 0.000000 0.000000 0.000000
# 4 0.000000 0.000000 0.000000 0.052134 0.000000 0.000000
# 5 0.000000 0.000000 0.000000 0.000000 0.052134 0.000000
# 6 0.000000 0.000000 0.000000 0.000000 0.000000 0.043354
#
#
# Mechanical properties :
#
#
# Convention : Reuss Voigt Hill
#
# Bulk Modulus (GPa) = 36.76048 48.92694 42.84371
# Shear Modulus (GPa) = 22.55363 25.56493 24.05928
#
# Velocity S-wave (km/s) = 3.30229 3.51585 3.41074
# Velocity P-wave (km/s) = 5.68460 6.33552 6.01886
#
# Compressibility (1/GPa) = 0.02720313
#
# Stress axis : x y z
#
# Youngs Moduli (GPa) = 52.09698 52.09698 129.64800
#
# Poissons Ratio (x) = 0.12932 0.45168
# Poissons Ratio (y) = 0.12932 0.45168
# Poissons Ratio (z) = 0.18150 0.18150
#
# Static dielectric constant tensor:
#      x y z
#    x 3.691680 0.000000 0.000000 
#    y 0.000000 3.691680 0.000000 
#    z 0.000000 0.000000 3.871740 
# 
# 
# High freq. dielectric constant tensor:
#      x y z
#    x 1.790830 0.000000 0.000000 
#    y 0.000000 1.790830 0.000000 
#    z 0.000000 0.000000 1.818060 
# 
# From -- ./inp_files/2933.got.cif
#   From: 2010.06.25/outbox.cif.g09.slc.cpg/sg176_2_cif.got.tgz:2933.got - 2010.06.28 12:15:01.
