data_PCOD8325372
_publ_section_title
;
Structure prediction by ZEFSAII (Michael W. Deem and Ramdas Pophale) SiO2 
 PCOD8325372
Probable space group: P 6/M
;
_chemical_formula_sum "Si O2"
_cell_formula_units_Z 48
_cell_length_a 19.348842
_cell_length_b 19.348842
_cell_length_c 7.768763
_cell_angle_alpha 90.000000
_cell_angle_beta 90.000000
_cell_angle_gamma 120.000000
_cell_volume 2518.792903
_symmetry_space_group_name_H-M "P 6/M"
_symmetry_group_IT_number 175
_symmetry_cell_setting 'hexagonal'
loop_
_space_group_symop_operation_xyz
x,y,z
x-y,x,z
-y,x-y,z
-x,-y,z
-x+y,-x,z
y,-x+y,z
-x,-y,-z
-x+y,-x,-z
y,-x+y,-z
x,y,-z
x-y,x,-z
-y,x-y,-z
loop_
_atom_site_type_symbol
_atom_site_label
_atom_site_fract_x
_atom_site_fract_y
_atom_site_fract_z
Si Si1 0.394703 0.837359 0.500000
Si Si2 0.724910 0.027537 0.701910
Si Si3 0.653352 0.853907 0.195506
Si Si4 0.472813 0.208426 0.500000
Si Si5 0.939211 0.529551 0.184877
O O1 0.447986 0.796811 0.500000
O O2 0.301319 0.788227 0.500000
O O3 0.415826 0.883472 0.323403
O O4 0.739076 0.035787 0.500000
O O5 0.799311 0.105002 0.786035
O O6 0.640494 0.021020 0.744987
O O7 0.720109 0.946325 0.769656
O O8 0.580658 0.827938 0.329279
O O9 0.621086 0.845409 0.000000
O O10 0.000000 0.500000 0.146251
O O11 0.896568 0.524966 0.000000
#
# Coordination Sequence:
#
# PCOD8325372 Si02
#       5
#     6  12  12   6  12
#     4  12  24  40  60  84 123 168 205 266 311 376
#     4  12  22  42  66  97 129 167 214 270 327 386
#     4  12  24  42  67  95 131 171 215 270 327 389
#     4  12  25  42  62  90 129 168 222 263 325 386
#     4  11  22  37  60  89 120 159 209 262 316 376
#
# _framework density 19.056747999999999
#
# number of rings (size 3 to 8) (size 9 to 14) (size 15 to 20)
#    0.000    0.250    6.250    4.375    0.000    3.000 
#    0.000    0.000    0.000    3.500    0.000    3.500 
#    0.000    0.000    0.000    0.000    0.000    0.000 
#
# Total GULP energy -594776.378303 kJ/mol
# GULP energy per Si atom -12391.174548 kJ/mol
# Density = 1.901337 g / cm^3
# Si number density = 19.056748 Si / 1000 Ang^3
#
#
#
# Elastic Constant Matrix: (Units=GPa)
#
#
# Indices 1 2 3 4 5 6 
#
# 1 121.1379 101.3111 49.0479 0.0000 0.0000 0.0000
# 2 101.3111 121.1379 49.0479 0.0000 0.0000 0.0000
# 3 49.0479 49.0479 184.5447 0.0000 0.0000 0.0000
# 4 0.0000 0.0000 0.0000 40.9897 0.0000 0.0000
# 5 0.0000 0.0000 0.0000 0.0000 40.9897 0.0000
# 6 0.0000 0.0000 0.0000 0.0000 0.0000 9.9134
#
#
#
# Elastic Compliance Matrix: (Units=1/GPa)
#
#
# Indices 1 2 3 4 5 6 
#
# 1 0.027764 -0.022672 -0.001353 0.000000 0.000000 0.000000
# 2 -0.022672 0.027764 -0.001353 0.000000 0.000000 0.000000
# 3 -0.001353 -0.001353 0.006138 0.000000 0.000000 0.000000
# 4 0.000000 0.000000 0.000000 0.024396 0.000000 0.000000
# 5 0.000000 0.000000 0.000000 0.000000 0.024396 0.000000
# 6 0.000000 0.000000 0.000000 0.000000 0.000000 0.100873
#
#
# Mechanical properties :
#
#
# Convention : Reuss Voigt Hill
#
# Bulk Modulus (GPa) = 91.66736 91.73716 91.70226
# Shear Modulus (GPa) = 18.81626 33.53948 26.17787
#
# Velocity S-wave (km/s) = 3.14567 4.19976 3.71034
# Velocity P-wave (km/s) = 7.83584 8.47117 8.15969
#
# Compressibility (1/GPa) = 0.01090901
#
# Stress axis : x y z
#
# Youngs Moduli (GPa) = 36.01725 36.01725 162.91545
#
# Poissons Ratio (x) = 0.81659 0.22049
# Poissons Ratio (y) = 0.81659 0.22049
# Poissons Ratio (z) = 0.04875 0.04875
#
# Static dielectric constant tensor:
#      x y z
#    x 2.729140 0.000000 0.000000 
#    y 0.000000 2.729140 0.000000 
#    z 0.000000 0.000000 3.696150 
# 
# 
# High freq. dielectric constant tensor:
#      x y z
#    x 1.732420 0.000000 0.000000 
#    y 0.000000 1.732420 0.000000 
#    z 0.000000 0.000000 1.776660 
# 
# From -- ./inp_files/639.got.cif
#   From: 2010.03.12/outbox.cif.g09.slc.cpg/sg175_1_cif.got.tgz:639.got - 2010.04.02 06:55:29.
