data_PCOD8325878
_publ_section_title
;
Structure prediction by ZEFSAII (Michael W. Deem and Ramdas Pophale) SiO2 
 PCOD8325878
Probable space group: P 61 2 2
;
_chemical_formula_sum "Si O2"
_cell_formula_units_Z 72
_cell_length_a 11.997782
_cell_length_b 11.997782
_cell_length_c 28.244955
_cell_angle_alpha 90.000000
_cell_angle_beta 90.000000
_cell_angle_gamma 120.000000
_cell_volume 3521.060213
_symmetry_space_group_name_H-M "P 61 2 2"
_symmetry_group_IT_number 178
_symmetry_cell_setting 'hexagonal'
loop_
_space_group_symop_operation_xyz
x,y,z
x-y,x,1/6+z
-y,x-y,1/3+z
-x,-y,1/2+z
-x+y,-x,2/3+z
y,-x+y,5/6+z
x-y,-y,-z
-x,-x+y,2/3-z
y,x,1/3-z
-y,-x,5/6-z
-x+y,y,1/2-z
x,x-y,1/6-z
loop_
_atom_site_type_symbol
_atom_site_label
_atom_site_fract_x
_atom_site_fract_y
_atom_site_fract_z
Si Si1 0.089480 0.649815 0.498689
Si Si2 0.270023 0.135012 0.083334
Si Si3 0.914914 0.914914 0.666667
Si Si4 0.691252 0.367731 0.029792
Si Si5 0.817615 0.833587 0.285675
Si Si6 0.625909 0.710234 0.897549
Si Si7 0.081593 0.441897 0.182381
O O1 0.244833 0.704508 0.500808
O O2 0.047491 0.628212 0.554183
O O3 0.061299 0.752582 0.474061
O O4 0.012974 0.511838 0.472598
O O5 0.179216 0.149420 0.122022
O O6 0.360414 0.275327 0.060319
O O7 0.057333 0.934451 0.659391
O O8 0.646546 0.323273 0.083334
O O9 0.804829 0.515142 0.032150
O O10 0.564075 0.343626 0.002748
O O11 0.719421 0.860513 0.255910
O O12 0.927032 0.854063 0.250000
O O13 0.689874 0.648614 0.864060
#
# Coordination Sequence:
#
# PCOD8325878 Si02
#       7
#    12   6   6  12  12  12  12
#     4  10  23  40  65  99 130 175 229 273 340 409
#     4  12  26  42  68  98 134 178 224 288 352 404
#     4  12  26  46  62 100 136 178 234 272 340 412
#     4   9  18  37  63  90 128 167 211 274 333 391
#     4  12  23  41  67  92 133 177 221 283 332 401
#     4  10  21  39  63  97 127 173 232 268 331 409
#     4  11  20  40  68  93 133 176 220 283 341 405
#
# _framework density 20.448384999999998
#
# number of rings (size 3 to 8) (size 9 to 14) (size 15 to 20)
#    0.000    1.333    5.000    2.500    0.000    0.000 
#    0.000    3.333    0.000    0.000    0.000    0.000 
#    0.000    0.000    0.000    0.000    0.000    0.000 
#
# Total GULP energy -892436.693832 kJ/mol
# GULP energy per Si atom -12394.954081 kJ/mol
# Density = 2.040184 g / cm^3
# Si number density = 20.448385 Si / 1000 Ang^3
#
#
#
# Elastic Constant Matrix: (Units=GPa)
#
#
# Indices 1 2 3 4 5 6 
#
# 1 117.8351 47.6260 44.7974 0.0000 0.0000 0.0000
# 2 47.6260 117.8351 44.7974 0.0000 0.0000 0.0000
# 3 44.7974 44.7974 83.3427 0.0000 0.0000 0.0000
# 4 0.0000 0.0000 0.0000 34.1339 0.0000 0.0000
# 5 0.0000 0.0000 0.0000 0.0000 34.1339 0.0000
# 6 0.0000 0.0000 0.0000 0.0000 0.0000 35.1046
#
#
#
# Elastic Compliance Matrix: (Units=1/GPa)
#
#
# Indices 1 2 3 4 5 6 
#
# 1 0.011384 -0.002859 -0.004582 0.000000 0.000000 0.000000
# 2 -0.002859 0.011384 -0.004582 0.000000 0.000000 0.000000
# 3 -0.004582 -0.004582 0.016925 0.000000 0.000000 0.000000
# 4 0.000000 0.000000 0.000000 0.029296 0.000000 0.000000
# 5 0.000000 0.000000 0.000000 0.000000 0.029296 0.000000
# 6 0.000000 0.000000 0.000000 0.000000 0.000000 0.028486
#
#
# Mechanical properties :
#
#
# Convention : Reuss Voigt Hill
#
# Bulk Modulus (GPa) = 63.91579 65.93940 64.92759
# Shear Modulus (GPa) = 32.04427 32.79394 32.41911
#
# Velocity S-wave (km/s) = 3.96293 4.00902 3.98604
# Velocity P-wave (km/s) = 7.22944 7.33119 7.28049
#
# Compressibility (1/GPa) = 0.01564559
#
# Stress axis : x y z
#
# Youngs Moduli (GPa) = 87.84225 87.84225 59.08550
#
# Poissons Ratio (x) = 0.25115 0.27074
# Poissons Ratio (y) = 0.25115 0.27074
# Poissons Ratio (z) = 0.40251 0.40251
#
# Static dielectric constant tensor:
#      x y z
#    x 3.875430 0.000000 0.000000 
#    y 0.000000 3.875430 0.000000 
#    z 0.000000 0.000000 3.471850 
# 
# 
# High freq. dielectric constant tensor:
#      x y z
#    x 1.804700 0.000000 0.000000 
#    y 0.000000 1.804700 0.000000 
#    z 0.000000 0.000000 1.774790 
# 
# From -- ./inp_files/9631.got.cif
#   From: 2010.03.12/outbox.cif.g09.slc.cpg/sg178_5_cif.got.tgz:9631.got - 2010.04.02 07:02:38.
