data_PCOD8325658
_publ_section_title
;
Structure prediction by ZEFSAII (Michael W. Deem and Ramdas Pophale) SiO2 
 PCOD8325658
Probable space group: P 63/M
;
_chemical_formula_sum "Si O2"
_cell_formula_units_Z 54
_cell_length_a 11.855739
_cell_length_b 11.855739
_cell_length_c 23.859754
_cell_angle_alpha 90.000000
_cell_angle_beta 90.000000
_cell_angle_gamma 120.000000
_cell_volume 2904.382780
_symmetry_space_group_name_H-M "P 63/M"
_symmetry_group_IT_number 176
_symmetry_cell_setting 'hexagonal'
loop_
_space_group_symop_operation_xyz
x,y,z
x-y,x,1/2+z
-y,x-y,z
-x,-y,1/2+z
-x+y,-x,z
y,-x+y,1/2+z
-x,-y,-z
-x+y,-x,1/2-z
y,-x+y,-z
x,y,1/2-z
x-y,x,-z
-y,x-y,1/2-z
loop_
_atom_site_type_symbol
_atom_site_label
_atom_site_fract_x
_atom_site_fract_y
_atom_site_fract_z
Si Si1 0.414768 0.282028 0.630281
Si Si2 0.255672 0.381548 0.561114
Si Si3 0.297572 0.791920 0.250000
Si Si4 0.038030 0.767759 0.063881
Si Si5 0.000000 0.000000 0.564769
Si Si6 0.666668 0.333335 0.457266
Si Si7 0.333334 0.666668 0.088090
O O1 0.323842 0.335665 0.606611
O O2 0.411343 0.276316 0.697530
O O3 0.564066 0.374414 0.611317
O O4 0.381276 0.142287 0.603878
O O5 0.108905 0.340603 0.578931
O O6 0.249155 0.314838 0.501165
O O7 0.335784 0.537930 0.561951
O O8 0.193141 0.635592 0.250000
O O9 0.056690 0.907847 0.082119
O O10 0.000000 0.000000 0.500000
O O11 0.666668 0.333334 0.522838
#
# Coordination Sequence:
#
# PCOD8325658 Si02
#       7
#    12  12   6  12   4   4   4
#     4  12  23  39  67  93 121 163 219 272 309 364
#     4  12  24  37  59  92 134 170 205 253 324 393
#     4  10  22  44  66  90 114 158 224 270 302 358
#     4  12  20  36  62  93 130 171 207 256 315 386
#     4  12  15  33  57  91 125 166 210 228 307 374
#     4  12  27  36  52  98 142 168 195 253 332 409
#     4  12  21  37  64  93 121 160 204 265 314 364
#
# _framework density 18.592590000000001
#
# number of rings (size 3 to 8) (size 9 to 14) (size 15 to 20)
#    0.222    0.000   11.111    0.000    3.111    1.778 
#    0.000    1.111    0.000    1.333    0.000    0.000 
#    0.000    0.000    0.000    0.000    0.000    0.000 
#
# Total GULP energy -669164.863034 kJ/mol
# GULP energy per Si atom -12391.941908 kJ/mol
# Density = 1.855027 g / cm^3
# Si number density = 18.592590 Si / 1000 Ang^3
#
#
#
# Elastic Constant Matrix: (Units=GPa)
#
#
# Indices 1 2 3 4 5 6 
#
# 1 195.8029 -75.3777 41.4370 0.0000 0.0000 0.4739
# 2 -75.3777 195.7545 41.4305 0.0000 0.0000 -0.4911
# 3 41.4370 41.4305 141.3254 0.0000 0.0000 0.0007
# 4 0.0000 0.0000 0.0000 25.3195 0.0000 0.0000
# 5 0.0000 0.0000 0.0000 0.0000 25.3192 0.0000
# 6 0.4739 -0.4911 0.0007 0.0000 0.0000 135.2673
#
#
#
# Elastic Compliance Matrix: (Units=1/GPa)
#
#
# Indices 1 2 3 4 5 6 
#
# 1 0.007046 0.003359 -0.003050 0.000000 0.000000 -0.000012
# 2 0.003359 0.007047 -0.003051 0.000000 0.000000 0.000014
# 3 -0.003050 -0.003051 0.008865 0.000000 0.000000 0.000000
# 4 0.000000 0.000000 0.000000 0.039495 0.000000 0.000000
# 5 0.000000 0.000000 0.000000 0.000000 0.039496 0.000000
# 6 -0.000012 0.000014 0.000000 0.000000 0.000000 0.007393
#
#
# Mechanical properties :
#
#
# Convention : Reuss Voigt Hill
#
# Bulk Modulus (GPa) = 57.23238 60.87359 59.05298
# Shear Modulus (GPa) = 41.44187 72.20741 56.82464
#
# Velocity S-wave (km/s) = 4.72629 6.23867 5.53438
# Velocity P-wave (km/s) = 7.78672 9.20361 8.52465
#
# Compressibility (1/GPa) = 0.01747263
#
# Stress axis : x y z
#
# Youngs Moduli (GPa) = 141.93028 141.89576 112.80814
#
# Poissons Ratio (x) = -0.47657 0.34411
# Poissons Ratio (y) = -0.47669 0.34415
# Poissons Ratio (z) = 0.43295 0.43289
#
# Static dielectric constant tensor:
#      x y z
#    x 3.398660 0.000000 0.000000 
#    y 0.000000 3.398650 0.000000 
#    z 0.000000 0.000000 3.090790 
# 
# 
# High freq. dielectric constant tensor:
#      x y z
#    x 1.729310 0.000000 0.000000 
#    y 0.000000 1.729310 0.000000 
#    z 0.000000 0.000000 1.678590 
# 
# From -- ./inp_files/4044.got.cif
#   From: 2010.06.25/outbox.cif.g09.slc.cpg/sg176_3_cif.got.tgz:4044.got - 2010.06.28 12:15:01.
