data_PCOD8325365
_publ_section_title
;
Structure prediction by ZEFSAII (Michael W. Deem and Ramdas Pophale) SiO2 
 PCOD8325365
Probable space group: P 6/M
;
_chemical_formula_sum "Si O2"
_cell_formula_units_Z 72
_cell_length_a 14.892001
_cell_length_b 14.892001
_cell_length_c 17.945019
_cell_angle_alpha 90.000000
_cell_angle_beta 90.000000
_cell_angle_gamma 120.000000
_cell_volume 3446.518925
_symmetry_space_group_name_H-M "P 6/M"
_symmetry_group_IT_number 175
_symmetry_cell_setting 'hexagonal'
loop_
_space_group_symop_operation_xyz
x,y,z
x-y,x,z
-y,x-y,z
-x,-y,z
-x+y,-x,z
y,-x+y,z
-x,-y,-z
-x+y,-x,-z
y,-x+y,-z
x,y,-z
x-y,x,-z
-y,x-y,-z
loop_
_atom_site_type_symbol
_atom_site_label
_atom_site_fract_x
_atom_site_fract_y
_atom_site_fract_z
Si Si1 0.891834 0.305485 0.085077
Si Si2 0.842948 0.083530 0.695146
Si Si3 0.878205 0.419568 0.366211
Si Si4 0.436629 0.877587 0.798569
Si Si5 0.746316 0.107356 0.843548
Si Si6 0.765484 0.193101 0.583896
O O1 0.839420 0.358662 0.133832
O O2 0.823001 0.181972 0.092911
O O3 0.003543 0.336500 0.115588
O O4 0.898226 0.340805 0.000000
O O5 0.812704 0.092261 0.779636
O O6 0.780976 0.117250 0.639275
O O7 0.964873 0.154757 0.680497
O O8 0.838667 0.386102 0.281206
O O9 0.852861 0.313519 0.406768
O O10 0.816905 0.470949 0.403251
O O11 0.000000 0.500000 0.371821
O O12 0.315448 0.838851 0.808837
O O13 0.500000 0.000000 0.797891
O O14 0.772913 0.159421 0.500000
#
# Coordination Sequence:
#
# PCOD8325365 Si02
#       6
#    12  12  12  12  12  12
#     4  11  23  39  64  97 135 172 217 274 335 400
#     4  12  25  45  71  97 132 180 237 292 346 412
#     4  11  23  43  68  95 134 176 218 270 330 405
#     4   9  21  38  63  90 120 167 211 252 315 391
#     4  11  21  41  66  92 128 174 221 268 333 400
#     4  12  26  42  68 103 138 177 223 279 348 417
#
# _framework density 20.890643000000001
#
# number of rings (size 3 to 8) (size 9 to 14) (size 15 to 20)
#    0.000    1.000    3.333    3.500    2.333    7.000 
#    1.000    0.000    0.000    1.000    0.000    2.333 
#    0.000    0.000    0.000    0.000    0.000    0.000 
#
# Total GULP energy -892871.877610 kJ/mol
# GULP energy per Si atom -12400.998300 kJ/mol
# Density = 2.084309 g / cm^3
# Si number density = 20.890643 Si / 1000 Ang^3
#
#
#
# Elastic Constant Matrix: (Units=GPa)
#
#
# Indices 1 2 3 4 5 6 
#
# 1 74.3468 11.3097 25.4397 0.0000 0.0000 0.0000
# 2 11.3097 74.3468 25.4397 0.0000 0.0000 0.0000
# 3 25.4397 25.4397 131.1810 0.0000 0.0000 0.0000
# 4 0.0000 0.0000 0.0000 21.8617 0.0000 0.0000
# 5 0.0000 0.0000 0.0000 0.0000 21.8617 0.0000
# 6 0.0000 0.0000 0.0000 0.0000 0.0000 31.5185
#
#
#
# Elastic Compliance Matrix: (Units=1/GPa)
#
#
# Indices 1 2 3 4 5 6 
#
# 1 0.014529 -0.001335 -0.002559 0.000000 0.000000 0.000000
# 2 -0.001335 0.014529 -0.002559 0.000000 0.000000 0.000000
# 3 -0.002559 -0.002559 0.008615 0.000000 0.000000 0.000000
# 4 0.000000 0.000000 0.000000 0.045742 0.000000 0.000000
# 5 0.000000 0.000000 0.000000 0.000000 0.045742 0.000000
# 6 0.000000 0.000000 0.000000 0.000000 0.000000 0.031727
#
#
# Mechanical properties :
#
#
# Convention : Reuss Voigt Hill
#
# Bulk Modulus (GPa) = 40.37262 44.91698 42.64480
# Shear Modulus (GPa) = 27.46561 29.56076 28.51318
#
# Velocity S-wave (km/s) = 3.62986 3.76576 3.69843
# Velocity P-wave (km/s) = 6.07746 6.36047 6.22057
#
# Compressibility (1/GPa) = 0.02476926
#
# Stress axis : x y z
#
# Youngs Moduli (GPa) = 68.82762 68.82762 116.07001
#
# Poissons Ratio (x) = 0.09186 0.29700
# Poissons Ratio (y) = 0.09186 0.29700
# Poissons Ratio (z) = 0.17611 0.17611
#
# Static dielectric constant tensor:
#      x y z
#    x 3.864560 0.000000 0.000000 
#    y 0.000000 3.864560 0.000000 
#    z 0.000000 0.000000 3.871910 
# 
# 
# High freq. dielectric constant tensor:
#      x y z
#    x 1.819000 0.000000 0.000000 
#    y 0.000000 1.819000 0.000000 
#    z 0.000000 0.000000 1.820230 
# 
# From -- ./inp_files/2877.got.cif
#   From: 2010.03.12/outbox.cif.g09.slc.cpg/sg175_2_cif.got.tgz:2877.got - 2010.04.02 06:55:29.
