data_PCOD8325983
_publ_section_title
;
Structure prediction by ZEFSAII (Michael W. Deem and Ramdas Pophale) SiO2 
 PCOD8325983
Probable space group: P 61 2 2
;
_chemical_formula_sum "Si O2"
_cell_formula_units_Z 36
_cell_length_a 7.554942
_cell_length_b 7.554942
_cell_length_c 33.853946
_cell_angle_alpha 90.000000
_cell_angle_beta 90.000000
_cell_angle_gamma 120.000000
_cell_volume 1673.409376
_symmetry_space_group_name_H-M "P 61 2 2"
_symmetry_group_IT_number 178
_symmetry_cell_setting 'hexagonal'
loop_
_space_group_symop_operation_xyz
x,y,z
x-y,x,1/6+z
-y,x-y,1/3+z
-x,-y,1/2+z
-x+y,-x,2/3+z
y,-x+y,5/6+z
x-y,-y,-z
-x,-x+y,2/3-z
y,x,1/3-z
-y,-x,5/6-z
-x+y,y,1/2-z
x,x-y,1/6-z
loop_
_atom_site_type_symbol
_atom_site_label
_atom_site_fract_x
_atom_site_fract_y
_atom_site_fract_z
Si Si1 0.490848 0.721456 0.158743
Si Si2 0.129840 0.012988 0.374289
Si Si3 0.048891 0.563280 0.039992
O O1 0.543130 0.543130 0.166667
O O2 0.250160 0.614531 0.152496
O O3 0.634829 0.870844 0.123488
O O4 0.539378 0.872611 0.196198
O O5 0.286449 0.247687 0.367836
O O6 0.000000 0.942297 0.333334
O O7 0.014168 0.985833 0.416667
O O8 0.124908 0.562454 0.083334
#
# Coordination Sequence:
#
# PCOD8325983 Si02
#       3
#    12  12  12
#     4  11  24  45  67 102 136 178 232 283 349 415
#     4  11  24  46  71 103 142 184 233 290 348 415
#     4  12  24  43  69  99 138 183 231 289 352 417
#
# _framework density 21.512968000000001
#
# number of rings (size 3 to 8) (size 9 to 14) (size 15 to 20)
#    0.000    0.667    3.333    6.000    0.000    0.000 
#    0.000    1.667    0.000    0.000    0.000    0.000 
#    0.000    0.000    0.000    0.000    0.000    0.000 
#
# Total GULP energy -445990.832097 kJ/mol
# GULP energy per Si atom -12388.634225 kJ/mol
# Density = 2.146400 g / cm^3
# Si number density = 21.512968 Si / 1000 Ang^3
#
#
#
# Elastic Constant Matrix: (Units=GPa)
#
#
# Indices 1 2 3 4 5 6 
#
# 1 111.3678 55.0535 32.3835 0.0000 0.0000 0.0000
# 2 55.0535 111.3678 32.3835 0.0000 0.0000 0.0000
# 3 32.3835 32.3835 118.5535 0.0000 0.0000 0.0000
# 4 0.0000 0.0000 0.0000 29.4399 0.0000 0.0000
# 5 0.0000 0.0000 0.0000 0.0000 29.4399 0.0000
# 6 0.0000 0.0000 0.0000 0.0000 0.0000 28.1571
#
#
#
# Elastic Compliance Matrix: (Units=1/GPa)
#
#
# Indices 1 2 3 4 5 6 
#
# 1 0.012241 -0.005517 -0.001837 0.000000 0.000000 0.000000
# 2 -0.005517 0.012241 -0.001837 0.000000 0.000000 0.000000
# 3 -0.001837 -0.001837 0.009438 0.000000 0.000000 0.000000
# 4 0.000000 0.000000 0.000000 0.033968 0.000000 0.000000
# 5 0.000000 0.000000 0.000000 0.000000 0.033968 0.000000
# 6 0.000000 0.000000 0.000000 0.000000 0.000000 0.035515
#
#
# Mechanical properties :
#
#
# Convention : Reuss Voigt Hill
#
# Bulk Modulus (GPa) = 64.35333 64.54780 64.45057
# Shear Modulus (GPa) = 31.06953 32.17197 31.62075
#
# Velocity S-wave (km/s) = 3.80442 3.87132 3.83802
# Velocity P-wave (km/s) = 7.01974 7.07475 7.04730
#
# Compressibility (1/GPa) = 0.01553921
#
# Stress axis : x y z
#
# Youngs Moduli (GPa) = 81.69575 81.69575 105.95072
#
# Poissons Ratio (x) = 0.45071 0.19459
# Poissons Ratio (y) = 0.45071 0.19459
# Poissons Ratio (z) = 0.15004 0.15004
#
# Static dielectric constant tensor:
#      x y z
#    x 4.111140 0.000000 0.000000 
#    y 0.000000 4.111140 0.000000 
#    z 0.000000 0.000000 3.981910 
# 
# 
# High freq. dielectric constant tensor:
#      x y z
#    x 1.855020 0.000000 0.000000 
#    y 0.000000 1.855020 0.000000 
#    z 0.000000 0.000000 1.838870 
# 
# From -- ./inp_files/9130.got.cif
#   From: 2010.03.12/outbox.cif.g09.slc.cpg/sg178_5_cif.got.tgz:9130.got - 2010.04.02 07:02:38.
