data_PCOD8325744
_publ_section_title
;
Structure prediction by ZEFSAII (Michael W. Deem and Ramdas Pophale) SiO2 
 PCOD8325744
Probable space group: P 6 2 2
;
_chemical_formula_sum "Si O2"
_cell_formula_units_Z 40
_cell_length_a 18.501691
_cell_length_b 18.501691
_cell_length_c 7.616440
_cell_angle_alpha 90.000000
_cell_angle_beta 90.000000
_cell_angle_gamma 120.000000
_cell_volume 2257.904160
_symmetry_space_group_name_H-M "P 6 2 2"
_symmetry_group_IT_number 177
_symmetry_cell_setting 'hexagonal'
loop_
_space_group_symop_operation_xyz
x,y,z
x-y,x,z
-y,x-y,z
-x,-y,z
-x+y,-x,z
y,-x+y,z
x-y,-y,-z
-x,-x+y,-z
y,x,-z
-y,-x,-z
-x+y,y,-z
x,x-y,-z
loop_
_atom_site_type_symbol
_atom_site_label
_atom_site_fract_x
_atom_site_fract_y
_atom_site_fract_z
Si Si1 0.969766 0.564534 0.807192
Si Si2 0.266940 0.784699 0.811346
Si Si3 0.333334 0.666668 0.707879
Si Si4 0.685695 0.000000 0.500000
Si Si5 0.818944 0.181057 0.500000
O O1 0.869733 0.514730 0.797584
O O2 0.000000 0.500000 0.755887
O O3 0.009065 0.640219 0.670948
O O4 0.000000 0.602365 0.000000
O O5 0.280500 0.706981 0.779970
O O6 0.202196 0.782263 0.669962
O O7 0.224698 0.775303 0.000000
O O8 0.333334 0.666667 0.500000
O O9 0.696379 0.918898 0.487222
#
# Coordination Sequence:
#
# PCOD8325744 Si02
#       5
#    12  12   4   6   6
#     4  10  22  34  55  76 106 139 184 220 265 312
#     4  11  23  37  54  77 108 146 183 228 264 310
#     4  12  25  35  52  76 113 145 190 221 271 298
#     4  10  21  38  56  79 104 138 170 222 268 323
#     4  10  22  38  60  79 108 136 179 218 270 328
#
# _framework density 17.715544999999999
#
# number of rings (size 3 to 8) (size 9 to 14) (size 15 to 20)
#    0.000    1.500    1.500    3.150   12.600    0.000 
#    0.000    0.000    0.000    0.300    0.000    0.000 
#    0.000    0.000    0.000    9.600    0.000    0.000 
#
# Total GULP energy -496219.180171 kJ/mol
# GULP energy per Si atom -12405.479504 kJ/mol
# Density = 1.767522 g / cm^3
# Si number density = 17.715545 Si / 1000 Ang^3
#
#
#
# Elastic Constant Matrix: (Units=GPa)
#
#
# Indices 1 2 3 4 5 6 
#
# 1 89.4349 53.2291 31.7555 0.0000 -0.0001 0.0007
# 2 53.2291 89.4353 31.7553 0.0000 0.0002 -0.0003
# 3 31.7555 31.7553 122.7374 0.0000 0.0001 0.0000
# 4 0.0000 0.0000 0.0000 19.8120 0.0000 -0.0002
# 5 -0.0001 0.0002 0.0001 0.0000 19.8123 0.0000
# 6 0.0007 -0.0003 0.0000 -0.0002 0.0000 18.1023
#
#
#
# Elastic Compliance Matrix: (Units=1/GPa)
#
#
# Indices 1 2 3 4 5 6 
#
# 1 0.017771 -0.009849 -0.002050 0.000000 0.000000 -0.000001
# 2 -0.009849 0.017771 -0.002050 0.000000 0.000000 0.000001
# 3 -0.002050 -0.002050 0.009208 0.000000 0.000000 0.000000
# 4 0.000000 0.000000 0.000000 0.050474 0.000000 0.000000
# 5 0.000000 0.000000 0.000000 0.000000 0.050474 0.000000
# 6 -0.000001 0.000001 0.000000 0.000000 0.000000 0.055242
#
#
# Mechanical properties :
#
#
# Convention : Reuss Voigt Hill
#
# Bulk Modulus (GPa) = 59.33509 59.45417 59.39463
# Shear Modulus (GPa) = 21.32619 23.86983 22.59801
#
# Velocity S-wave (km/s) = 3.47336 3.67467 3.57543
# Velocity P-wave (km/s) = 7.04639 7.18593 7.11650
#
# Compressibility (1/GPa) = 0.01685343
#
# Stress axis : x y z
#
# Youngs Moduli (GPa) = 56.27182 56.27217 108.60060
#
# Poissons Ratio (x) = 0.55422 0.22259
# Poissons Ratio (y) = 0.55422 0.22259
# Poissons Ratio (z) = 0.11534 0.11533
#
# Static dielectric constant tensor:
#      x y z
#    x 3.187370 0.000000 0.000000 
#    y 0.000000 3.187380 0.000000 
#    z 0.000000 0.000000 3.565110 
# 
# 
# High freq. dielectric constant tensor:
#      x y z
#    x 1.669240 0.000000 0.000000 
#    y 0.000000 1.669240 0.000000 
#    z 0.000000 0.000000 1.710070 
# 
# From -- ./inp_files/1066.got.cif
#   From: 2010.03.12/outbox.cif.g09.slc.cpg/sg177_1_cif.got.tgz:1066.got - 2010.04.02 07:00:27.
