data_PCOD8325703
_publ_section_title
;
Structure prediction by ZEFSAII (Michael W. Deem and Ramdas Pophale) SiO2 
 PCOD8325703
Probable space group: P 63/M
;
_chemical_formula_sum "Si O2"
_cell_formula_units_Z 96
_cell_length_a 18.160431
_cell_length_b 18.160431
_cell_length_c 17.441926
_cell_angle_alpha 90.000000
_cell_angle_beta 90.000000
_cell_angle_gamma 120.000000
_cell_volume 4981.697746
_symmetry_space_group_name_H-M "P 63/M"
_symmetry_group_IT_number 176
_symmetry_cell_setting 'hexagonal'
loop_
_space_group_symop_operation_xyz
x,y,z
x-y,x,1/2+z
-y,x-y,z
-x,-y,1/2+z
-x+y,-x,z
y,-x+y,1/2+z
-x,-y,-z
-x+y,-x,1/2-z
y,-x+y,-z
x,y,1/2-z
x-y,x,-z
-y,x-y,1/2-z
loop_
_atom_site_type_symbol
_atom_site_label
_atom_site_fract_x
_atom_site_fract_y
_atom_site_fract_z
Si Si1 0.960997 0.193125 0.576363
Si Si2 0.286619 0.407215 0.161789
Si Si3 0.132321 0.277215 0.662729
Si Si4 0.025968 0.232861 0.408326
Si Si5 0.411891 0.287365 0.661799
Si Si6 0.525528 0.476307 0.840768
Si Si7 0.528563 0.761414 0.841217
Si Si8 0.425702 0.567951 0.658550
O O1 0.929796 0.253293 0.612109
O O2 0.893892 0.093771 0.592334
O O3 0.050108 0.216573 0.613403
O O4 0.972515 0.209629 0.486224
O O5 0.292200 0.383309 0.250000
O O6 0.225264 0.447370 0.154683
O O7 0.378345 0.474836 0.128318
O O8 0.105519 0.278713 0.750000
O O9 0.190638 0.233554 0.659270
O O10 0.181686 0.373815 0.629302
O O11 0.075275 0.333188 0.394823
O O12 0.385081 0.290727 0.750000
O O13 0.483947 0.379034 0.632403
O O14 0.526243 0.481500 0.750000
O O15 0.472698 0.518963 0.873848
O O16 0.528723 0.763778 0.750000
O O17 0.477018 0.664782 0.871956
O O18 0.480849 0.810135 0.873254
O O19 0.424777 0.568150 0.750000
#
# Coordination Sequence:
#
# PCOD8325703 Si02
#       8
#    12  12  12  12  12  12  12  12
#     4  11  22  39  58  80 111 148 187 233 294 349
#     4   9  18  33  55  81 110 145 187 234 282 335
#     4  11  22  37  59  86 111 147 196 238 280 344
#     4  11  22  39  58  80 111 148 187 233 294 349
#     4   9  18  33  55  81 110 145 187 234 282 335
#     4   9  16  29  49  78 111 141 180 232 279 321
#     4   9  17  28  47  79 114 149 186 225 278 339
#     4   9  15  24  41  69 109 145 172 215 273 328
#
# _framework density 19.270538999999999
#
# number of rings (size 3 to 8) (size 9 to 14) (size 15 to 20)
#    0.000    2.250    1.250    2.500    0.000    6.500 
#    1.500    1.250    0.000    0.000    0.000    0.000 
#    0.000    0.000    0.000    0.000    0.000    0.000 
#
# Total GULP energy -1190353.840717 kJ/mol
# GULP energy per Si atom -12399.519174 kJ/mol
# Density = 1.922668 g / cm^3
# Si number density = 19.270539 Si / 1000 Ang^3
#
#
#
# Elastic Constant Matrix: (Units=GPa)
#
#
# Indices 1 2 3 4 5 6 
#
# 1 137.0569 75.8111 18.2230 0.0000 0.0000 0.0000
# 2 75.8111 137.0569 18.2230 0.0000 0.0000 0.0000
# 3 18.2230 18.2230 28.7301 0.0000 0.0000 0.0000
# 4 0.0000 0.0000 0.0000 12.0735 0.0000 0.0000
# 5 0.0000 0.0000 0.0000 0.0000 12.0735 0.0000
# 6 0.0000 0.0000 0.0000 0.0000 0.0000 30.6229
#
#
#
# Elastic Compliance Matrix: (Units=1/GPa)
#
#
# Indices 1 2 3 4 5 6 
#
# 1 0.010799 -0.005529 -0.003343 0.000000 0.000000 0.000000
# 2 -0.005529 0.010799 -0.003343 0.000000 0.000000 0.000000
# 3 -0.003343 -0.003343 0.039047 0.000000 0.000000 0.000000
# 4 0.000000 0.000000 0.000000 0.082826 0.000000 0.000000
# 5 0.000000 0.000000 0.000000 0.000000 0.082826 0.000000
# 6 0.000000 0.000000 0.000000 0.000000 0.000000 0.032655
#
#
# Mechanical properties :
#
#
# Convention : Reuss Voigt Hill
#
# Bulk Modulus (GPa) = 27.61180 58.59536 43.10358
# Shear Modulus (GPa) = 16.92322 23.65978 20.29150
#
# Velocity S-wave (km/s) = 2.96664 3.50776 3.24849
# Velocity P-wave (km/s) = 5.10825 6.84679 6.04040
#
# Compressibility (1/GPa) = 0.03621640
#
# Stress axis : x y z
#
# Youngs Moduli (GPa) = 92.60235 92.60235 25.61010
#
# Poissons Ratio (x) = 0.51198 0.08561
# Poissons Ratio (y) = 0.51198 0.08561
# Poissons Ratio (z) = 0.30954 0.30954
#
# Static dielectric constant tensor:
#      x y z
#    x 3.697740 0.000000 0.000000 
#    y 0.000000 3.697740 0.000000 
#    z 0.000000 0.000000 3.091720 
# 
# 
# High freq. dielectric constant tensor:
#      x y z
#    x 1.757420 0.000000 0.000000 
#    y 0.000000 1.757420 0.000000 
#    z 0.000000 0.000000 1.705290 
# 
# From -- ./inp_files/3886.got.cif
#   From: 2010.06.25/outbox.cif.g09.slc.cpg/sg176_2_cif.got.tgz:3886.got - 2010.06.28 12:15:01.
