data_PCOD8325164
_publ_section_title
;
Structure prediction by ZEFSAII (Michael W. Deem and Ramdas Pophale) SiO2 
 PCOD8325164
Probable space group: P 6/M
;
_chemical_formula_sum "Si O2"
_cell_formula_units_Z 78
_cell_length_a 24.078925
_cell_length_b 24.078925
_cell_length_c 8.319362
_cell_angle_alpha 90.000000
_cell_angle_beta 90.000000
_cell_angle_gamma 120.000000
_cell_volume 4177.292073
_symmetry_space_group_name_H-M "P 6/M"
_symmetry_group_IT_number 175
_symmetry_cell_setting 'hexagonal'
loop_
_space_group_symop_operation_xyz
x,y,z
x-y,x,z
-y,x-y,z
-x,-y,z
-x+y,-x,z
y,-x+y,z
-x,-y,-z
-x+y,-x,-z
y,-x+y,-z
x,y,-z
x-y,x,-z
-y,x-y,-z
loop_
_atom_site_type_symbol
_atom_site_label
_atom_site_fract_x
_atom_site_fract_y
_atom_site_fract_z
Si Si1 0.627996 0.146991 0.317020
Si Si2 0.044919 0.680234 0.185763
Si Si3 0.377665 0.287272 0.311053
Si Si4 0.832987 0.210787 0.319661
Si Si5 0.503990 0.939688 0.811475
Si Si6 0.721578 0.470655 0.321618
Si Si7 0.734786 0.328676 0.000000
O O1 0.610360 0.125411 0.500000
O O2 0.661560 0.108966 0.238072
O O3 0.560925 0.126323 0.228304
O O4 0.674910 0.223143 0.302741
O O5 0.103463 0.751852 0.212504
O O6 0.061283 0.627452 0.260305
O O7 0.982178 0.674441 0.270336
O O8 0.028971 0.667660 0.000000
O O9 0.387168 0.284042 0.500000
O O10 0.354496 0.214868 0.247043
O O11 0.855254 0.207294 0.500000
O O12 0.794299 0.248405 0.317414
O O13 0.500000 0.000000 0.738467
O O14 0.512632 0.946607 0.000000
O O15 0.688173 0.445251 0.500000
O O16 0.674412 0.442812 0.166804
O O17 0.732503 0.394375 0.000000
#
# Coordination Sequence:
#
# PCOD8325164 Si02
#       7
#    12  12  12  12  12  12   6
#     4   9  18  32  52  73  91 125 169 210 266 321
#     4  11  22  33  50  80 109 136 173 216 265 323
#     4   9  18  35  55  73 101 134 171 213 260 321
#     4   9  20  38  57  77 101 137 177 216 268 322
#     4  10  20  32  44  70 106 132 160 207 266 318
#     4   9  20  39  57  74  96 127 171 221 271 328
#     4  10  24  38  52  74  91 125 173 214 276 334
#
# _framework density 18.672383
#
# number of rings (size 3 to 8) (size 9 to 14) (size 15 to 20)
#    0.154    2.308    1.538    2.308    2.154    4.000 
#    2.769    3.077    0.000    0.000    0.000    0.000 
#    0.000    0.000    0.000    0.462    0.000    8.923 
#
# Total GULP energy -966672.864695 kJ/mol
# GULP energy per Si atom -12393.241855 kJ/mol
# Density = 1.862988 g / cm^3
# Si number density = 18.672383 Si / 1000 Ang^3
#
#
#
# Elastic Constant Matrix: (Units=GPa)
#
#
# Indices 1 2 3 4 5 6 
#
# 1 77.6105 30.1259 15.8199 0.0000 0.0000 0.0000
# 2 30.1259 77.6105 15.8199 0.0000 0.0000 0.0000
# 3 15.8199 15.8199 63.6891 0.0000 0.0000 0.0000
# 4 0.0000 0.0000 0.0000 13.9528 0.0000 0.0000
# 5 0.0000 0.0000 0.0000 0.0000 13.9528 0.0000
# 6 0.0000 0.0000 0.0000 0.0000 0.0000 23.7423
#
#
#
# Elastic Compliance Matrix: (Units=1/GPa)
#
#
# Indices 1 2 3 4 5 6 
#
# 1 0.015536 -0.005524 -0.002487 0.000000 0.000000 0.000000
# 2 -0.005524 0.015536 -0.002487 0.000000 0.000000 0.000000
# 3 -0.002487 -0.002487 0.016937 0.000000 0.000000 0.000000
# 4 0.000000 0.000000 0.000000 0.071670 0.000000 0.000000
# 5 0.000000 0.000000 0.000000 0.000000 0.071670 0.000000
# 6 0.000000 0.000000 0.000000 0.000000 0.000000 0.042119
#
#
# Mechanical properties :
#
#
# Convention : Reuss Voigt Hill
#
# Bulk Modulus (GPa) = 37.01862 38.04905 37.53384
# Shear Modulus (GPa) = 18.97770 20.80588 19.89179
#
# Velocity S-wave (km/s) = 3.19149 3.34167 3.26744
# Velocity P-wave (km/s) = 5.78352 5.94226 5.86343
#
# Compressibility (1/GPa) = 0.02701343
#
# Stress axis : x y z
#
# Youngs Moduli (GPa) = 64.36712 64.36712 59.04315
#
# Poissons Ratio (x) = 0.35554 0.14684
# Poissons Ratio (y) = 0.35554 0.14684
# Poissons Ratio (z) = 0.16008 0.16008
#
# Static dielectric constant tensor:
#      x y z
#    x 3.270370 0.000000 0.000000 
#    y 0.000000 3.270370 0.000000 
#    z 0.000000 0.000000 3.379060 
# 
# 
# High freq. dielectric constant tensor:
#      x y z
#    x 1.693190 0.000000 0.000000 
#    y 0.000000 1.693190 0.000000 
#    z 0.000000 0.000000 1.721890 
# 
# From -- ./inp_files/1308.got.cif
#   From: 2010.03.12/outbox.cif.g09.slc.cpg/sg175_1_cif.got.tgz:1308.got - 2010.04.02 06:55:29.
