data_PCOD8325329
_publ_section_title
;
Structure prediction by ZEFSAII (Michael W. Deem and Ramdas Pophale) SiO2 
 PCOD8325329
Probable space group: P 6/M
;
_chemical_formula_sum "Si O2"
_cell_formula_units_Z 76
_cell_length_a 16.619470
_cell_length_b 16.619470
_cell_length_c 13.828409
_cell_angle_alpha 90.000000
_cell_angle_beta 90.000000
_cell_angle_gamma 120.000000
_cell_volume 3307.784346
_symmetry_space_group_name_H-M "P 6/M"
_symmetry_group_IT_number 175
_symmetry_cell_setting 'hexagonal'
loop_
_space_group_symop_operation_xyz
x,y,z
x-y,x,z
-y,x-y,z
-x,-y,z
-x+y,-x,z
y,-x+y,z
-x,-y,-z
-x+y,-x,-z
y,-x+y,-z
x,y,-z
x-y,x,-z
-y,x-y,-z
loop_
_atom_site_type_symbol
_atom_site_label
_atom_site_fract_x
_atom_site_fract_y
_atom_site_fract_z
Si Si1 0.852778 0.331577 0.804645
Si Si2 0.816562 0.010487 0.287913
Si Si3 0.297451 0.467897 0.605237
Si Si4 0.516346 0.662416 0.797424
Si Si5 0.289735 0.910698 0.607355
Si Si6 0.699974 0.703214 0.890827
Si Si7 0.666668 0.333334 0.387777
O O1 0.899998 0.341853 0.695820
O O2 0.859650 0.427815 0.834328
O O3 0.745901 0.251085 0.802046
O O4 0.908346 0.302900 0.877549
O O5 0.743504 0.017189 0.360502
O O6 0.784210 0.009814 0.177969
O O7 0.917777 0.097793 0.307698
O O8 0.346417 0.479133 0.500000
O O9 0.190557 0.389761 0.596300
O O10 0.309551 0.565281 0.645900
O O11 0.546246 0.646739 0.689308
O O12 0.597977 0.686708 0.872638
O O13 0.338296 0.941009 0.500000
O O14 0.730615 0.737452 0.000000
O O15 0.666667 0.333334 0.500000
#
# Coordination Sequence:
#
# PCOD8325329 Si02
#       7
#    12  12  12  12  12  12   4
#     4  11  21  37  62  94 130 169 217 268 320 375
#     4  11  24  44  70  98 124 155 202 263 327 388
#     4   9  16  28  50  84 126 169 210 252 298 350
#     4  10  22  38  61  94 129 170 219 269 319 374
#     4   9  19  36  58  89 131 173 208 243 292 358
#     4  11  25  46  67  87 120 165 208 257 329 410
#     4   9  15  24  48  87 130 179 229 270 303 336
#
# _framework density 22.976106999999999
#
# number of rings (size 3 to 8) (size 9 to 14) (size 15 to 20)
#    0.000    1.895    0.000    5.684    0.000    6.316 
#    0.000    4.737    0.000    8.526    0.000    0.000 
#    0.000    0.000    0.000    0.000    0.000    0.000 
#
# Total GULP energy -941685.374838 kJ/mol
# GULP energy per Si atom -12390.597037 kJ/mol
# Density = 2.292381 g / cm^3
# Si number density = 22.976107 Si / 1000 Ang^3
#
#
#
# Elastic Constant Matrix: (Units=GPa)
#
#
# Indices 1 2 3 4 5 6 
#
# 1 84.2724 10.3955 -10.3850 0.0000 0.0000 -0.0004
# 2 10.3955 84.2707 -10.3853 0.0000 0.0000 -0.0003
# 3 -10.3850 -10.3853 88.8251 0.0000 0.0000 0.0000
# 4 0.0000 0.0000 0.0000 20.0947 -0.0001 0.0000
# 5 0.0000 0.0000 0.0000 -0.0001 20.0950 0.0000
# 6 -0.0004 -0.0003 0.0000 0.0000 0.0000 36.9379
#
#
#
# Elastic Compliance Matrix: (Units=1/GPa)
#
#
# Indices 1 2 3 4 5 6 
#
# 1 0.012189 -0.001347 0.001268 0.000000 0.000000 0.000000
# 2 -0.001347 0.012189 0.001268 0.000000 0.000000 0.000000
# 3 0.001268 0.001268 0.011554 0.000000 0.000000 0.000000
# 4 0.000000 0.000000 0.000000 0.049764 0.000000 0.000000
# 5 0.000000 0.000000 0.000000 0.000000 0.049764 0.000000
# 6 0.000000 0.000000 0.000000 0.000000 0.000000 0.027072
#
#
# Mechanical properties :
#
#
# Convention : Reuss Voigt Hill
#
# Bulk Modulus (GPa) = 26.10451 26.29095 26.19773
# Shear Modulus (GPa) = 28.91406 33.27506 31.09456
#
# Velocity S-wave (km/s) = 3.55130 3.80971 3.68277
# Velocity P-wave (km/s) = 5.31054 5.55153 5.43237
#
# Compressibility (1/GPa) = 0.03830756
#
# Stress axis : x y z
#
# Youngs Moduli (GPa) = 82.04334 82.04154 86.54656
#
# Poissons Ratio (x) = 0.11054 -0.10970
# Poissons Ratio (y) = 0.11054 -0.10971
# Poissons Ratio (z) = -0.10399 -0.10399
#
# Static dielectric constant tensor:
#      x y z
#    x 3.884220 0.000010 0.000000 
#    y 0.000010 3.884230 0.000000 
#    z 0.000000 0.000000 4.169030 
# 
# 
# High freq. dielectric constant tensor:
#      x y z
#    x 1.900640 0.000000 0.000000 
#    y 0.000000 1.900640 0.000000 
#    z 0.000000 0.000000 1.897870 
# 
# From -- ./inp_files/2561.got.cif
#   From: 2010.03.12/outbox.cif.g09.slc.cpg/sg175_2_cif.got.tgz:2561.got - 2010.04.02 06:55:29.
