data_PCOD8325227
_publ_section_title
;
Structure prediction by ZEFSAII (Michael W. Deem and Ramdas Pophale) SiO2 
 PCOD8325227
Probable space group: P 6/M
;
_chemical_formula_sum "Si O2"
_cell_formula_units_Z 84
_cell_length_a 20.512679
_cell_length_b 20.512679
_cell_length_c 13.744348
_cell_angle_alpha 90.000000
_cell_angle_beta 90.000000
_cell_angle_gamma 120.000000
_cell_volume 5008.406173
_symmetry_space_group_name_H-M "P 6/M"
_symmetry_group_IT_number 175
_symmetry_cell_setting 'hexagonal'
loop_
_space_group_symop_operation_xyz
x,y,z
x-y,x,z
-y,x-y,z
-x,-y,z
-x+y,-x,z
y,-x+y,z
-x,-y,-z
-x+y,-x,-z
y,-x+y,-z
x,y,-z
x-y,x,-z
-y,x-y,-z
loop_
_atom_site_type_symbol
_atom_site_label
_atom_site_fract_x
_atom_site_fract_y
_atom_site_fract_z
Si Si1 0.818122 0.334730 0.112217
Si Si2 0.331065 0.815851 0.887807
Si Si3 0.087769 0.920092 0.615353
Si Si4 0.170259 0.830441 0.615903
Si Si5 0.327597 0.415844 0.279154
Si Si6 0.419287 0.328378 0.280062
Si Si7 0.543293 0.089092 0.392644
O O1 0.733004 0.269649 0.133718
O O2 0.825075 0.413875 0.141328
O O3 0.877008 0.319922 0.172063
O O4 0.839259 0.334739 0.000000
O O5 0.314037 0.873106 0.827280
O O6 0.330547 0.836835 0.000000
O O7 0.083776 0.923047 0.500000
O O8 0.133596 0.879951 0.647106
O O9 0.003955 0.874643 0.659382
O O10 0.170237 0.819308 0.500000
O O11 0.120406 0.751307 0.667749
O O12 0.254247 0.874884 0.655413
O O13 0.366685 0.365180 0.271355
O O14 0.374795 0.490911 0.342095
O O15 0.498290 0.380923 0.332693
O O16 0.563919 0.125044 0.500000
O O17 0.500000 0.000000 0.399324
#
# Coordination Sequence:
#
# PCOD8325227 Si02
#       7
#    12  12  12  12  12  12  12
#     4  10  20  36  58  81 105 134 171 216 268 322
#     4  10  20  36  58  81 105 134 171 216 268 322
#     4   9  17  30  49  73 100 132 172 219 269 319
#     4  11  22  35  51  73 106 147 186 220 262 315
#     4  11  21  34  53  77 104 138 178 220 264 314
#     4  11  21  34  53  77 104 138 178 220 264 314
#     4   9  18  32  49  70  99 134 171 209 248 293
#
# _framework density 16.771802999999998
#
# number of rings (size 3 to 8) (size 9 to 14) (size 15 to 20)
#    0.000    1.857    2.857    2.143    0.000    5.143 
#    0.000    1.429    0.000    0.000    0.000    4.000 
#    0.000    0.000    0.000    0.000    0.000   10.143 
#
# Total GULP energy -1041618.926154 kJ/mol
# GULP energy per Si atom -12400.225311 kJ/mol
# Density = 1.673363 g / cm^3
# Si number density = 16.771803 Si / 1000 Ang^3
#
#
#
# Elastic Constant Matrix: (Units=GPa)
#
#
# Indices 1 2 3 4 5 6 
#
# 1 74.5675 11.2367 24.4110 0.0000 0.0000 0.0000
# 2 11.2367 74.5675 24.4110 0.0000 0.0000 0.0000
# 3 24.4110 24.4110 76.4763 0.0000 0.0000 0.0000
# 4 0.0000 0.0000 0.0000 19.9050 0.0000 0.0000
# 5 0.0000 0.0000 0.0000 0.0000 19.9050 0.0000
# 6 0.0000 0.0000 0.0000 0.0000 0.0000 31.6654
#
#
#
# Elastic Compliance Matrix: (Units=1/GPa)
#
#
# Indices 1 2 3 4 5 6 
#
# 1 0.015016 -0.000775 -0.004546 0.000000 0.000000 0.000000
# 2 -0.000775 0.015016 -0.004546 0.000000 0.000000 0.000000
# 3 -0.004546 -0.004546 0.015978 0.000000 0.000000 0.000000
# 4 0.000000 0.000000 0.000000 0.050239 0.000000 0.000000
# 5 0.000000 0.000000 0.000000 0.000000 0.050239 0.000000
# 6 0.000000 0.000000 0.000000 0.000000 0.000000 0.031580
#
#
# Mechanical properties :
#
#
# Convention : Reuss Voigt Hill
#
# Bulk Modulus (GPa) = 38.05603 38.41429 38.23516
# Shear Modulus (GPa) = 24.20635 25.33189 24.76912
#
# Velocity S-wave (km/s) = 3.80317 3.89058 3.84713
# Velocity P-wave (km/s) = 6.48268 6.56780 6.52538
#
# Compressibility (1/GPa) = 0.02627705
#
# Stress axis : x y z
#
# Youngs Moduli (GPa) = 66.59783 66.59783 62.58660
#
# Poissons Ratio (x) = 0.05159 0.28450
# Poissons Ratio (y) = 0.05159 0.28450
# Poissons Ratio (z) = 0.30273 0.30273
#
# Static dielectric constant tensor:
#      x y z
#    x 3.178180 0.000000 0.000000 
#    y 0.000000 3.178180 0.000000 
#    z 0.000000 0.000000 3.121650 
# 
# 
# High freq. dielectric constant tensor:
#      x y z
#    x 1.649320 0.000000 0.000000 
#    y 0.000000 1.649320 0.000000 
#    z 0.000000 0.000000 1.633860 
# 
# From -- ./inp_files/2004.got.cif
#   From: 2010.03.12/outbox.cif.g09.slc.cpg/sg175_2_cif.got.tgz:2004.got - 2010.04.02 06:55:29.
