data_PCOD8325880
_publ_section_title
;
Structure prediction by ZEFSAII (Michael W. Deem and Ramdas Pophale) SiO2 
 PCOD8325880
Probable space group: P 61 2 2
;
_chemical_formula_sum "Si O2"
_cell_formula_units_Z 84
_cell_length_a 17.672639
_cell_length_b 17.672639
_cell_length_c 14.211951
_cell_angle_alpha 90.000000
_cell_angle_beta 90.000000
_cell_angle_gamma 120.000000
_cell_volume 3844.033338
_symmetry_space_group_name_H-M "P 61 2 2"
_symmetry_group_IT_number 178
_symmetry_cell_setting 'hexagonal'
loop_
_space_group_symop_operation_xyz
x,y,z
x-y,x,1/6+z
-y,x-y,1/3+z
-x,-y,1/2+z
-x+y,-x,2/3+z
y,-x+y,5/6+z
x-y,-y,-z
-x,-x+y,2/3-z
y,x,1/3-z
-y,-x,5/6-z
-x+y,y,1/2-z
x,x-y,1/6-z
loop_
_atom_site_type_symbol
_atom_site_label
_atom_site_fract_x
_atom_site_fract_y
_atom_site_fract_z
Si Si1 0.940293 0.217450 0.612253
Si Si2 0.289431 0.818400 0.748790
Si Si3 0.214717 0.967606 0.102448
Si Si4 0.107073 0.369660 0.690799
Si Si5 0.435628 0.916236 0.440176
Si Si6 0.614839 0.399123 0.764795
Si Si7 0.567465 0.885638 0.347991
O O1 0.906464 0.286497 0.602137
O O2 0.864978 0.122913 0.646342
O O3 0.960249 0.188108 0.511754
O O4 0.026190 0.269411 0.678814
O O5 0.336172 0.801466 0.662626
O O6 0.334288 0.826745 0.849346
O O7 0.193631 0.734575 0.753625
O O8 0.303215 0.961938 0.109652
O O9 0.203866 0.000000 0.000000
O O10 0.183203 0.366406 0.750000
O O11 0.074723 0.427875 0.744641
O O12 0.141003 0.417000 0.589883
O O13 0.404712 0.827793 0.498303
O O14 0.492880 0.913469 0.351521
O O15 0.500114 0.000000 0.500000
O O16 0.680320 0.360640 0.750000
#
# Coordination Sequence:
#
# PCOD8325880 Si02
#       7
#    12  12  12  12  12  12  12
#     4  10  23  42  67  97 132 172 221 277 341 417
#     4  10  22  40  60  90 130 167 224 275 337 404
#     4  10  21  39  69 101 131 166 213 279 349 421
#     4  11  25  44  66  92 131 184 239 283 338 416
#     4  12  25  39  63  96 132 177 231 290 354 403
#     4  11  23  39  60  89 127 177 221 285 345 396
#     4  10  22  40  61  91 127 174 224 282 338 405
#
# _framework density 21.852046999999999
#
# number of rings (size 3 to 8) (size 9 to 14) (size 15 to 20)
#    0.000    1.429    1.429    3.000    6.000    4.571 
#    0.000    0.000    0.000    3.429    0.000    0.000 
#    0.000    0.000    0.000    0.000    0.000    0.000 
#
# Total GULP energy -1040944.477874 kJ/mol
# GULP energy per Si atom -12392.196165 kJ/mol
# Density = 2.180231 g / cm^3
# Si number density = 21.852047 Si / 1000 Ang^3
#
#
#
# Elastic Constant Matrix: (Units=GPa)
#
#
# Indices 1 2 3 4 5 6 
#
# 1 92.1734 32.8352 33.6509 0.0000 0.0000 0.0000
# 2 32.8352 92.1734 33.6509 0.0000 0.0000 0.0000
# 3 33.6509 33.6509 92.5764 0.0000 0.0000 0.0000
# 4 0.0000 0.0000 0.0000 32.2786 0.0000 0.0000
# 5 0.0000 0.0000 0.0000 0.0000 32.2786 0.0000
# 6 0.0000 0.0000 0.0000 0.0000 0.0000 29.6691
#
#
#
# Elastic Compliance Matrix: (Units=1/GPa)
#
#
# Indices 1 2 3 4 5 6 
#
# 1 0.013399 -0.003453 -0.003615 0.000000 0.000000 0.000000
# 2 -0.003453 0.013399 -0.003615 0.000000 0.000000 0.000000
# 3 -0.003615 -0.003615 0.013430 0.000000 0.000000 0.000000
# 4 0.000000 0.000000 0.000000 0.030980 0.000000 0.000000
# 5 0.000000 0.000000 0.000000 0.000000 0.030980 0.000000
# 6 0.000000 0.000000 0.000000 0.000000 0.000000 0.033705
#
#
# Mechanical properties :
#
#
# Convention : Reuss Voigt Hill
#
# Bulk Modulus (GPa) = 53.02005 53.02193 53.02099
# Shear Modulus (GPa) = 30.57196 30.63104 30.60150
#
# Velocity S-wave (km/s) = 3.74444 3.74805 3.74625
# Velocity P-wave (km/s) = 6.55822 6.56104 6.55963
#
# Compressibility (1/GPa) = 0.01886079
#
# Stress axis : x y z
#
# Youngs Moduli (GPa) = 74.63149 74.63149 74.45953
#
# Poissons Ratio (x) = 0.25773 0.26919
# Poissons Ratio (y) = 0.25773 0.26919
# Poissons Ratio (z) = 0.26981 0.26981
#
# Static dielectric constant tensor:
#      x y z
#    x 4.000400 0.000000 0.000000 
#    y 0.000000 4.000400 0.000000 
#    z 0.000000 0.000000 3.985320 
# 
# 
# High freq. dielectric constant tensor:
#      x y z
#    x 1.854580 0.000000 0.000000 
#    y 0.000000 1.854580 0.000000 
#    z 0.000000 0.000000 1.856450 
# 
# From -- ./inp_files/6025.got.cif
#   From: 2010.03.12/outbox.cif.g09.slc.cpg/sg178_4_cif.got.tgz:6025.got - 2010.04.02 07:02:38.
