data_PCOD8325124
_publ_section_title
;
Structure prediction by ZEFSAII (Michael W. Deem and Ramdas Pophale) SiO2 
 PCOD8325124
Probable space group: P 6/M
;
_chemical_formula_sum "Si O2"
_cell_formula_units_Z 66
_cell_length_a 21.976085
_cell_length_b 21.976085
_cell_length_c 7.867075
_cell_angle_alpha 90.000000
_cell_angle_beta 90.000000
_cell_angle_gamma 120.000000
_cell_volume 3290.368771
_symmetry_space_group_name_H-M "P 6/M"
_symmetry_group_IT_number 175
_symmetry_cell_setting 'hexagonal'
loop_
_space_group_symop_operation_xyz
x,y,z
x-y,x,z
-y,x-y,z
-x,-y,z
-x+y,-x,z
y,-x+y,z
-x,-y,-z
-x+y,-x,-z
y,-x+y,-z
x,y,-z
x-y,x,-z
-y,x-y,-z
loop_
_atom_site_type_symbol
_atom_site_label
_atom_site_fract_x
_atom_site_fract_y
_atom_site_fract_z
Si Si1 0.793047 0.470921 0.192520
Si Si2 0.741395 0.612758 0.303174
Si Si3 0.622888 0.746578 0.810969
Si Si4 0.997130 0.144746 0.000000
Si Si5 0.541468 0.195377 0.690687
Si Si6 0.758396 0.758818 0.691639
O O1 0.859116 0.545654 0.256653
O O2 0.722619 0.449884 0.297197
O O3 0.812720 0.409874 0.195016
O O4 0.777467 0.482897 0.000000
O O5 0.761523 0.611304 0.500000
O O6 0.802870 0.621331 0.181410
O O7 0.672418 0.537693 0.258961
O O8 0.730476 0.677803 0.263151
O O9 0.686780 0.761234 0.688652
O O10 0.638766 0.729160 0.000000
O O11 0.067283 0.138549 0.000000
O O12 0.996321 0.185350 0.170843
O O13 0.559163 0.184729 0.500000
O O14 0.791338 0.778785 0.500000
#
# Coordination Sequence:
#
# PCOD8325124 Si02
#       6
#    12  12  12   6  12  12
#     4  10  20  33  50  77 113 152 198 252 309 359
#     4   9  20  36  56  83 113 150 198 248 297 351
#     4  10  20  35  57  84 114 151 197 248 298 353
#     4  12  27  46  70 100 131 162 196 234 284 346
#     4  10  19  33  52  76 109 153 203 251 304 361
#     4  11  23  41  66  94 125 160 199 243 292 350
#
# _framework density 20.058544000000001
#
# number of rings (size 3 to 8) (size 9 to 14) (size 15 to 20)
#    0.000    1.818    0.909    3.182    1.273    5.091 
#    0.000    0.909    0.000    6.545    0.000    0.000 
#    0.000    0.000    0.000    0.000    0.000    0.000 
#
# Total GULP energy -817982.127213 kJ/mol
# GULP energy per Si atom -12393.668594 kJ/mol
# Density = 2.001289 g / cm^3
# Si number density = 20.058544 Si / 1000 Ang^3
#
#
#
# Elastic Constant Matrix: (Units=GPa)
#
#
# Indices 1 2 3 4 5 6 
#
# 1 96.1784 37.5820 34.1357 0.0000 0.0000 0.0000
# 2 37.5820 96.1784 34.1357 0.0000 0.0000 0.0000
# 3 34.1357 34.1357 75.6387 0.0000 0.0000 0.0000
# 4 0.0000 0.0000 0.0000 21.5484 0.0000 0.0000
# 5 0.0000 0.0000 0.0000 0.0000 21.5484 0.0000
# 6 0.0000 0.0000 0.0000 0.0000 0.0000 29.2982
#
#
#
# Elastic Compliance Matrix: (Units=1/GPa)
#
#
# Indices 1 2 3 4 5 6 
#
# 1 0.013390 -0.003676 -0.004384 0.000000 0.000000 0.000000
# 2 -0.003676 0.013390 -0.004384 0.000000 0.000000 0.000000
# 3 -0.004384 -0.004384 0.017177 0.000000 0.000000 0.000000
# 4 0.000000 0.000000 0.000000 0.046407 0.000000 0.000000
# 5 0.000000 0.000000 0.000000 0.000000 0.046407 0.000000
# 6 0.000000 0.000000 0.000000 0.000000 0.000000 0.034132
#
#
# Mechanical properties :
#
#
# Convention : Reuss Voigt Hill
#
# Bulk Modulus (GPa) = 52.43929 53.30027 52.86978
# Shear Modulus (GPa) = 24.73449 25.28846 25.01148
#
# Velocity S-wave (km/s) = 3.51538 3.55453 3.53501
# Velocity P-wave (km/s) = 6.53277 6.59366 6.56328
#
# Compressibility (1/GPa) = 0.01906967
#
# Stress axis : x y z
#
# Youngs Moduli (GPa) = 74.68427 74.68427 58.21575
#
# Poissons Ratio (x) = 0.27455 0.25520
# Poissons Ratio (y) = 0.27455 0.25520
# Poissons Ratio (z) = 0.32739 0.32739
#
# Static dielectric constant tensor:
#      x y z
#    x 3.613640 0.000000 0.000000 
#    y 0.000000 3.613640 0.000000 
#    z 0.000000 0.000000 3.607570 
# 
# 
# High freq. dielectric constant tensor:
#      x y z
#    x 1.771990 0.000000 0.000000 
#    y 0.000000 1.771990 0.000000 
#    z 0.000000 0.000000 1.790420 
# 
# From -- ./inp_files/972.got.cif
#   From: 2010.03.12/outbox.cif.g09.slc.cpg/sg175_1_cif.got.tgz:972.got - 2010.04.02 06:55:29.
