data_PCOD8325858
_publ_section_title
;
Structure prediction by ZEFSAII (Michael W. Deem and Ramdas Pophale) SiO2 
 PCOD8325858
Probable space group: P 61 2 2
;
_chemical_formula_sum "Si O2"
_cell_formula_units_Z 66
_cell_length_a 20.400044
_cell_length_b 20.400044
_cell_length_c 9.663434
_cell_angle_alpha 90.000000
_cell_angle_beta 90.000000
_cell_angle_gamma 120.000000
_cell_volume 3482.766230
_symmetry_space_group_name_H-M "P 61 2 2"
_symmetry_group_IT_number 178
_symmetry_cell_setting 'hexagonal'
loop_
_space_group_symop_operation_xyz
x,y,z
x-y,x,1/6+z
-y,x-y,1/3+z
-x,-y,1/2+z
-x+y,-x,2/3+z
y,-x+y,5/6+z
x-y,-y,-z
-x,-x+y,2/3-z
y,x,1/3-z
-y,-x,5/6-z
-x+y,y,1/2-z
x,x-y,1/6-z
loop_
_atom_site_type_symbol
_atom_site_label
_atom_site_fract_x
_atom_site_fract_y
_atom_site_fract_z
Si Si1 0.925641 0.851281 0.750000
Si Si2 0.873408 0.644735 0.124684
Si Si3 0.605725 0.092794 0.156506
Si Si4 0.397256 0.478407 0.826169
Si Si5 0.403258 0.238341 0.949773
Si Si6 0.767559 0.745678 0.826317
O O1 0.906219 0.906219 0.666667
O O2 0.857391 0.798510 0.857681
O O3 0.829136 0.658272 0.250000
O O4 0.874372 0.566731 0.146619
O O5 0.834122 0.637682 0.979754
O O6 0.956338 0.718382 0.105119
O O7 0.559761 0.119522 0.250000
O O8 0.691670 0.154578 0.192059
O O9 0.581950 0.006388 0.191368
O O10 0.588489 0.097270 0.996559
O O11 0.445310 0.554691 0.916667
O O12 0.439749 0.219875 0.083334
O O13 0.342264 0.260079 0.000488
O O14 0.760461 0.760461 0.666667
#
# Coordination Sequence:
#
# PCOD8325858 Si02
#       6
#     6  12  12  12  12  12
#     4  10  20  40  56  78 118 168 226 274 326 392
#     4  12  24  39  63  97 133 167 209 273 336 388
#     4  10  22  39  60  90 124 157 205 253 306 375
#     4  10  22  40  62  89 127 163 196 258 320 377
#     4  12  22  37  63  94 124 168 211 260 315 380
#     4  11  21  39  62  88 122 168 221 274 329 388
#
# _framework density 18.950455000000002
#
# number of rings (size 3 to 8) (size 9 to 14) (size 15 to 20)
#    0.000    1.091    6.364    1.091    2.545    0.727 
#    1.636    0.000    0.000    2.182    0.000    0.000 
#    0.000    0.000    0.000    0.000    0.000    0.000 
#
# Total GULP energy -818119.945146 kJ/mol
# GULP energy per Si atom -12395.756745 kJ/mol
# Density = 1.890732 g / cm^3
# Si number density = 18.950455 Si / 1000 Ang^3
#
#
#
# Elastic Constant Matrix: (Units=GPa)
#
#
# Indices 1 2 3 4 5 6 
#
# 1 92.7957 35.5307 35.4180 0.0000 0.0000 0.0000
# 2 35.5307 92.7957 35.4180 0.0000 0.0000 0.0000
# 3 35.4180 35.4180 101.4628 0.0000 0.0000 0.0000
# 4 0.0000 0.0000 0.0000 25.8976 0.0000 0.0000
# 5 0.0000 0.0000 0.0000 0.0000 25.8976 0.0000
# 6 0.0000 0.0000 0.0000 0.0000 0.0000 28.6325
#
#
#
# Elastic Compliance Matrix: (Units=1/GPa)
#
#
# Indices 1 2 3 4 5 6 
#
# 1 0.013558 -0.003905 -0.003369 0.000000 0.000000 0.000000
# 2 -0.003905 0.013558 -0.003369 0.000000 0.000000 0.000000
# 3 -0.003369 -0.003369 0.012208 0.000000 0.000000 0.000000
# 4 0.000000 0.000000 0.000000 0.038614 0.000000 0.000000
# 5 0.000000 0.000000 0.000000 0.000000 0.038614 0.000000
# 6 0.000000 0.000000 0.000000 0.000000 0.000000 0.034925
#
#
# Mechanical properties :
#
#
# Convention : Reuss Voigt Hill
#
# Bulk Modulus (GPa) = 55.44619 55.53197 55.48908
# Shear Modulus (GPa) = 27.96798 28.13136 28.04967
#
# Velocity S-wave (km/s) = 3.84584 3.85706 3.85146
# Velocity P-wave (km/s) = 7.00305 7.01450 7.00878
#
# Compressibility (1/GPa) = 0.01803550
#
# Stress axis : x y z
#
# Youngs Moduli (GPa) = 73.75926 73.75926 81.91215
#
# Poissons Ratio (x) = 0.28803 0.27600
# Poissons Ratio (y) = 0.28803 0.27600
# Poissons Ratio (z) = 0.24853 0.24853
#
# Static dielectric constant tensor:
#      x y z
#    x 3.552750 0.000000 0.000000 
#    y 0.000000 3.552750 0.000000 
#    z 0.000000 0.000000 4.228290 
# 
# 
# High freq. dielectric constant tensor:
#      x y z
#    x 1.730340 0.000000 0.000000 
#    y 0.000000 1.730340 0.000000 
#    z 0.000000 0.000000 1.739010 
# 
# From -- ./inp_files/3257.got.cif
#   From: 2010.03.12/outbox.cif.g09.slc.cpg/sg178_2_cif.got.tgz:3257.got - 2010.04.02 07:02:38.
