data_PCOD8325462
_publ_section_title
;
Structure prediction by ZEFSAII (Michael W. Deem and Ramdas Pophale) SiO2 
 PCOD8325462
Probable space group: P 63/M
;
_chemical_formula_sum "Si O2"
_cell_formula_units_Z 72
_cell_length_a 23.550433
_cell_length_b 23.550433
_cell_length_c 9.186647
_cell_angle_alpha 90.000000
_cell_angle_beta 90.000000
_cell_angle_gamma 120.000000
_cell_volume 4412.507469
_symmetry_space_group_name_H-M "P 63/M"
_symmetry_group_IT_number 176
_symmetry_cell_setting 'hexagonal'
loop_
_space_group_symop_operation_xyz
x,y,z
x-y,x,1/2+z
-y,x-y,z
-x,-y,1/2+z
-x+y,-x,z
y,-x+y,1/2+z
-x,-y,-z
-x+y,-x,1/2-z
y,-x+y,-z
x,y,1/2-z
x-y,x,-z
-y,x-y,1/2-z
loop_
_atom_site_type_symbol
_atom_site_label
_atom_site_fract_x
_atom_site_fract_y
_atom_site_fract_z
Si Si1 0.926104 0.407245 0.919430
Si Si2 0.742738 0.603449 0.578323
Si Si3 0.738006 0.935255 0.919009
Si Si4 0.064105 0.254487 0.915341
Si Si5 0.742456 0.147700 0.080397
Si Si6 0.924365 0.517850 0.420903
O O1 0.922846 0.419364 0.750000
O O2 0.881657 0.331503 0.960624
O O3 0.000833 0.432186 0.968061
O O4 0.897728 0.447697 0.003010
O O5 0.753990 0.614244 0.750000
O O6 0.758276 0.671769 0.507425
O O7 0.788069 0.576517 0.513435
O O8 0.723379 0.939200 0.750000
O O9 0.763435 0.884096 0.943467
O O10 0.794369 0.005235 0.975742
O O11 0.038311 0.238280 0.750000
O O12 0.091564 0.330807 0.949053
O O13 0.752939 0.167345 0.250000
O O14 0.668323 0.120396 0.028180
O O15 0.918843 0.506471 0.250000
#
# Coordination Sequence:
#
# PCOD8325462 Si02
#       6
#    12  12  12  12  12  12
#     4   9  18  31  46  67  94 121 151 187 227 272
#     4  10  19  31  48  69  95 126 155 188 232 276
#     4  10  20  32  48  71  96 123 156 192 229 273
#     4   9  18  32  48  68  96 124 150 187 232 274
#     4   9  18  32  48  69  97 124 153 191 232 275
#     4   9  17  30  48  68  92 122 151 185 230 273
#
# _framework density 16.317252
#
# number of rings (size 3 to 8) (size 9 to 14) (size 15 to 20)
#    0.000    2.667    0.000    3.000    0.000    8.000 
#    0.000    3.333    0.000    1.000    0.000    0.000 
#    0.000    0.000    0.000    0.000    0.000    0.000 
#
# Total GULP energy -892923.700230 kJ/mol
# GULP energy per Si atom -12401.718059 kJ/mol
# Density = 1.628011 g / cm^3
# Si number density = 16.317252 Si / 1000 Ang^3
#
#
#
# Elastic Constant Matrix: (Units=GPa)
#
#
# Indices 1 2 3 4 5 6 
#
# 1 112.0254 64.8109 58.2505 0.0000 0.0000 0.0000
# 2 64.8109 112.0254 58.2505 0.0000 0.0000 0.0000
# 3 58.2505 58.2505 75.1665 0.0000 0.0000 0.0000
# 4 0.0000 0.0000 0.0000 30.7717 0.0000 0.0000
# 5 0.0000 0.0000 0.0000 0.0000 30.7717 0.0000
# 6 0.0000 0.0000 0.0000 0.0000 0.0000 23.6072
#
#
#
# Elastic Compliance Matrix: (Units=1/GPa)
#
#
# Indices 1 2 3 4 5 6 
#
# 1 0.016367 -0.004813 -0.008953 0.000000 0.000000 0.000000
# 2 -0.004813 0.016367 -0.008953 0.000000 0.000000 0.000000
# 3 -0.008953 -0.008953 0.027181 0.000000 0.000000 0.000000
# 4 0.000000 0.000000 0.000000 0.032497 0.000000 0.000000
# 5 0.000000 0.000000 0.000000 0.000000 0.032497 0.000000
# 6 0.000000 0.000000 0.000000 0.000000 0.000000 0.042360
#
#
# Mechanical properties :
#
#
# Convention : Reuss Voigt Hill
#
# Bulk Modulus (GPa) = 69.08898 73.53789 71.31343
# Shear Modulus (GPa) = 22.98493 24.89049 23.93771
#
# Velocity S-wave (km/s) = 3.75724 3.90989 3.83432
# Velocity P-wave (km/s) = 7.82659 8.09619 7.96253
#
# Compressibility (1/GPa) = 0.01447409
#
# Stress axis : x y z
#
# Youngs Moduli (GPa) = 61.09949 61.09949 36.79066
#
# Poissons Ratio (x) = 0.29408 0.32940
# Poissons Ratio (y) = 0.29408 0.32940
# Poissons Ratio (z) = 0.54705 0.54705
#
# Static dielectric constant tensor:
#      x y z
#    x 3.018210 0.000000 0.000000 
#    y 0.000000 3.018210 0.000000 
#    z 0.000000 0.000000 3.083030 
# 
# 
# High freq. dielectric constant tensor:
#      x y z
#    x 1.617150 0.000000 0.000000 
#    y 0.000000 1.617150 0.000000 
#    z 0.000000 0.000000 1.633050 
# 
# From -- ./inp_files/1162.got.cif
#   From: 2010.06.25/outbox.cif.g09.slc.cpg/sg176_1_cif.got.tgz:1162.got - 2010.06.28 12:15:01.
