data_PCOD8325099
_publ_section_title
;
Structure prediction by ZEFSAII (Michael W. Deem and Ramdas Pophale) SiO2 
 PCOD8325099
Probable space group: P 6/M
;
_chemical_formula_sum "Si O2"
_cell_formula_units_Z 34
_cell_length_a 13.498173
_cell_length_b 13.498173
_cell_length_c 12.441689
_cell_angle_alpha 90.000000
_cell_angle_beta 90.000000
_cell_angle_gamma 120.000000
_cell_volume 1963.179240
_symmetry_space_group_name_H-M "P 6/M"
_symmetry_group_IT_number 175
_symmetry_cell_setting 'hexagonal'
loop_
_space_group_symop_operation_xyz
x,y,z
x-y,x,z
-y,x-y,z
-x,-y,z
-x+y,-x,z
y,-x+y,z
-x,-y,-z
-x+y,-x,-z
y,-x+y,-z
x,y,-z
x-y,x,-z
-y,x-y,-z
loop_
_atom_site_type_symbol
_atom_site_label
_atom_site_fract_x
_atom_site_fract_y
_atom_site_fract_z
Si Si1 0.666667 0.333334 0.372328
Si Si2 0.372432 0.907825 0.372941
Si Si3 0.208960 0.955054 0.767228
Si Si4 0.248538 0.204397 0.000000
O O1 0.666667 0.333334 0.500000
O O2 0.561538 0.346249 0.329113
O O3 0.356120 0.906448 0.500000
O O4 0.284869 0.940566 0.321886
O O5 0.500000 0.000000 0.338249
O O6 0.077564 0.858674 0.751419
O O7 0.257102 0.944494 0.886132
O O8 0.134083 0.207501 0.000000
#
# Coordination Sequence:
#
# PCOD8325099 Si02
#       4
#     4  12  12   6
#     4   9  18  33  51  70  95 130 168 201 238 287
#     4  10  20  34  52  73  97 128 166 205 244 289
#     4  10  19  32  51  75 102 130 161 199 243 291
#     4   8  15  28  47  70  96 128 163 196 234 284
#
# _framework density 17.318846000000001
#
# number of rings (size 3 to 8) (size 9 to 14) (size 15 to 20)
#    0.000    2.471    0.000    2.647    0.000    7.059 
#    0.000    0.882    0.000    4.235    0.000    0.000 
#    0.000    0.000    0.000    0.000    0.000    0.000 
#
# Total GULP energy -421287.516111 kJ/mol
# GULP energy per Si atom -12390.809297 kJ/mol
# Density = 1.727943 g / cm^3
# Si number density = 17.318846 Si / 1000 Ang^3
#
#
#
# Elastic Constant Matrix: (Units=GPa)
#
#
# Indices 1 2 3 4 5 6 
#
# 1 119.5940 50.8865 45.6271 0.0000 0.0000 0.0001
# 2 50.8865 119.5938 45.6269 0.0000 0.0000 0.0009
# 3 45.6271 45.6269 50.7594 0.0000 0.0000 0.0000
# 4 0.0000 0.0000 0.0000 20.7253 -0.0002 0.0000
# 5 0.0000 0.0000 0.0000 -0.0002 20.7253 0.0000
# 6 0.0001 0.0009 0.0000 0.0000 0.0000 34.3536
#
#
#
# Elastic Compliance Matrix: (Units=1/GPa)
#
#
# Indices 1 2 3 4 5 6 
#
# 1 0.012930 -0.001625 -0.010162 0.000000 0.000000 0.000000
# 2 -0.001625 0.012930 -0.010162 0.000000 0.000000 0.000000
# 3 -0.010162 -0.010162 0.037970 0.000000 0.000000 0.000000
# 4 0.000000 0.000000 0.000000 0.048250 0.000001 0.000000
# 5 0.000000 0.000000 0.000000 0.000001 0.048250 0.000000
# 6 0.000000 0.000000 0.000000 0.000000 0.000000 0.029109
#
#
# Mechanical properties :
#
#
# Convention : Reuss Voigt Hill
#
# Bulk Modulus (GPa) = 50.17069 63.80314 56.98691
# Shear Modulus (GPa) = 20.83490 25.01461 22.92475
#
# Velocity S-wave (km/s) = 3.47222 3.80459 3.64220
# Velocity P-wave (km/s) = 6.71616 7.49801 7.11783
#
# Compressibility (1/GPa) = 0.01993196
#
# Stress axis : x y z
#
# Youngs Moduli (GPa) = 77.33981 77.33997 26.33636
#
# Poissons Ratio (x) = 0.12564 0.26764
# Poissons Ratio (y) = 0.12564 0.26764
# Poissons Ratio (z) = 0.78595 0.78595
#
# Static dielectric constant tensor:
#      x y z
#    x 3.212810 0.000000 0.000000 
#    y 0.000000 3.212820 0.000000 
#    z 0.000000 0.000000 3.554260 
# 
# 
# High freq. dielectric constant tensor:
#      x y z
#    x 1.666300 0.000000 0.000000 
#    y 0.000000 1.666300 0.000000 
#    z 0.000000 0.000000 1.664120 
# 
# From -- ./inp_files/2205.got.cif
#   From: 2010.03.12/outbox.cif.g09.slc.cpg/sg175_2_cif.got.tgz:2205.got - 2010.04.02 06:55:29.
