data_PCOD8325208
_publ_section_title
;
Structure prediction by ZEFSAII (Michael W. Deem and Ramdas Pophale) SiO2 
 PCOD8325208
Probable space group: P 6/M
;
_chemical_formula_sum "Si O2"
_cell_formula_units_Z 60
_cell_length_a 17.533531
_cell_length_b 17.533531
_cell_length_c 12.143990
_cell_angle_alpha 90.000000
_cell_angle_beta 90.000000
_cell_angle_gamma 120.000000
_cell_volume 3233.186850
_symmetry_space_group_name_H-M "P 6/M"
_symmetry_group_IT_number 175
_symmetry_cell_setting 'hexagonal'
loop_
_space_group_symop_operation_xyz
x,y,z
x-y,x,z
-y,x-y,z
-x,-y,z
-x+y,-x,z
y,-x+y,z
-x,-y,-z
-x+y,-x,-z
y,-x+y,-z
x,y,-z
x-y,x,-z
-y,x-y,-z
loop_
_atom_site_type_symbol
_atom_site_label
_atom_site_fract_x
_atom_site_fract_y
_atom_site_fract_z
Si Si1 0.821294 0.984898 0.630853
Si Si2 0.314434 0.835427 0.760517
Si Si3 0.844636 0.347888 0.000000
Si Si4 0.683904 0.170987 0.000000
Si Si5 0.343459 0.999456 0.369776
Si Si6 0.348149 0.495620 0.238815
O O1 0.827259 0.902350 0.678658
O O2 0.827213 0.987187 0.500000
O O3 0.729184 0.975440 0.668889
O O4 0.315160 0.902789 0.672586
O O5 0.235961 0.739689 0.725528
O O6 0.404826 0.833081 0.758653
O O7 0.296703 0.862293 0.883934
O O8 0.884581 0.336780 0.884471
O O9 0.740276 0.277459 0.000000
O O10 0.862907 0.445223 0.000000
O O11 0.350834 0.998660 0.500000
O O12 0.438037 0.069741 0.322673
#
# Coordination Sequence:
#
# PCOD8325208 Si02
#       6
#    12  12   6   6  12  12
#     4   9  17  31  52  75  97 124 162 207 252 297
#     4  10  20  35  55  77 102 133 171 214 260 311
#     4   8  15  29  51  77 100 124 160 211 266 311
#     4   8  15  29  51  77 100 124 160 211 266 311
#     4  11  23  36  49  71 107 145 174 206 252 301
#     4  10  20  35  55  77 102 133 171 214 260 311
#
# _framework density 18.557541000000001
#
# number of rings (size 3 to 8) (size 9 to 14) (size 15 to 20)
#    0.000    2.400    0.000    2.600    0.000    8.800 
#    0.000    3.000    0.000    2.400    0.000    0.000 
#    0.000    0.000    0.000   15.200    0.000    4.800 
#
# Total GULP energy -743456.672664 kJ/mol
# GULP energy per Si atom -12390.944544 kJ/mol
# Density = 1.851530 g / cm^3
# Si number density = 18.557541 Si / 1000 Ang^3
#
#
#
# Elastic Constant Matrix: (Units=GPa)
#
#
# Indices 1 2 3 4 5 6 
#
# 1 57.9856 -5.6643 27.2221 0.0000 0.0000 0.0000
# 2 -5.6643 57.9856 27.2221 0.0000 0.0000 0.0000
# 3 27.2221 27.2221 89.0865 0.0000 0.0000 0.0000
# 4 0.0000 0.0000 0.0000 23.6845 0.0000 0.0000
# 5 0.0000 0.0000 0.0000 0.0000 23.6845 0.0000
# 6 0.0000 0.0000 0.0000 0.0000 0.0000 31.8250
#
#
#
# Elastic Compliance Matrix: (Units=1/GPa)
#
#
# Indices 1 2 3 4 5 6 
#
# 1 0.021867 0.006156 -0.008563 0.000000 0.000000 0.000000
# 2 0.006156 0.021867 -0.008563 0.000000 0.000000 0.000000
# 3 -0.008563 -0.008563 0.016458 0.000000 0.000000 0.000000
# 4 0.000000 0.000000 0.000000 0.042222 0.000000 0.000000
# 5 0.000000 0.000000 0.000000 0.000000 0.042222 0.000000
# 6 0.000000 0.000000 0.000000 0.000000 0.000000 0.031422
#
#
# Mechanical properties :
#
#
# Convention : Reuss Voigt Hill
#
# Bulk Modulus (GPa) = 26.14208 33.62414 29.88311
# Shear Modulus (GPa) = 23.72499 26.25732 24.99116
#
# Velocity S-wave (km/s) = 3.57943 3.76561 3.67370
# Velocity P-wave (km/s) = 5.58576 6.08808 5.84232
#
# Compressibility (1/GPa) = 0.03825250
#
# Stress axis : x y z
#
# Youngs Moduli (GPa) = 45.73091 45.73091 60.75988
#
# Poissons Ratio (x) = -0.28152 0.52029
# Poissons Ratio (y) = -0.28152 0.52029
# Poissons Ratio (z) = 0.39159 0.39159
#
# Static dielectric constant tensor:
#      x y z
#    x 3.372460 0.000000 0.000000 
#    y 0.000000 3.372460 0.000000 
#    z 0.000000 0.000000 3.538080 
# 
# 
# High freq. dielectric constant tensor:
#      x y z
#    x 1.713720 0.000000 0.000000 
#    y 0.000000 1.713720 0.000000 
#    z 0.000000 0.000000 1.707050 
# 
# From -- ./inp_files/1841.got.cif
#   From: 2010.03.12/outbox.cif.g09.slc.cpg/sg175_1_cif.got.tgz:1841.got - 2010.04.02 06:55:29.
