data_PCOD8325444
_publ_section_title
;
Structure prediction by ZEFSAII (Michael W. Deem and Ramdas Pophale) SiO2 
 PCOD8325444
Probable space group: P 63/M
;
_chemical_formula_sum "Si O2"
_cell_formula_units_Z 42
_cell_length_a 11.743329
_cell_length_b 11.743329
_cell_length_c 16.816795
_cell_angle_alpha 90.000000
_cell_angle_beta 90.000000
_cell_angle_gamma 120.000000
_cell_volume 2008.428235
_symmetry_space_group_name_H-M "P 63/M"
_symmetry_group_IT_number 176
_symmetry_cell_setting 'hexagonal'
loop_
_space_group_symop_operation_xyz
x,y,z
x-y,x,1/2+z
-y,x-y,z
-x,-y,1/2+z
-x+y,-x,z
y,-x+y,1/2+z
-x,-y,-z
-x+y,-x,1/2-z
y,-x+y,-z
x,y,1/2-z
x-y,x,-z
-y,x-y,1/2-z
loop_
_atom_site_type_symbol
_atom_site_label
_atom_site_fract_x
_atom_site_fract_y
_atom_site_fract_z
Si Si1 0.288385 0.895026 0.040508
Si Si2 0.485250 0.809868 0.250000
Si Si3 0.841558 0.871048 0.160633
Si Si4 0.921488 0.367817 0.915162
O O1 0.204676 0.737347 0.033555
O O2 0.428727 0.940672 0.080773
O O3 0.214286 0.952418 0.092979
O O4 0.316583 0.952681 0.950648
O O5 0.340655 0.798794 0.250000
O O6 0.574391 0.891155 0.324570
O O7 0.782600 0.824032 0.250000
O O8 0.886296 0.026239 0.150402
#
# Coordination Sequence:
#
# PCOD8325444 Si02
#       4
#    12   6  12  12
#     4  11  23  40  62  97 137 176 226 277 345 401
#     4  10  18  40  68  90 126 170 232 288 330 402
#     4   8  19  39  64  99 134 172 221 282 348 405
#     4  11  24  38  63  98 133 179 222 283 336 406
#
# _framework density 20.911873
#
# number of rings (size 3 to 8) (size 9 to 14) (size 15 to 20)
#    0.857    1.143    2.857    0.571    8.000    0.000 
#    0.000    1.429    0.000    0.000    0.000    0.000 
#    0.000    0.000    0.000    0.000    0.000    0.000 
#
# Total GULP energy -520319.537148 kJ/mol
# GULP energy per Si atom -12388.560408 kJ/mol
# Density = 2.086428 g / cm^3
# Si number density = 20.911873 Si / 1000 Ang^3
#
#
#
# Elastic Constant Matrix: (Units=GPa)
#
#
# Indices 1 2 3 4 5 6 
#
# 1 86.0150 36.4404 58.9104 0.0000 0.0000 0.0000
# 2 36.4404 86.0150 58.9104 0.0000 0.0000 0.0000
# 3 58.9104 58.9104 137.1421 0.0000 0.0000 0.0000
# 4 0.0000 0.0000 0.0000 33.1187 0.0000 0.0000
# 5 0.0000 0.0000 0.0000 0.0000 33.1187 0.0000
# 6 0.0000 0.0000 0.0000 0.0000 0.0000 24.7873
#
#
#
# Elastic Compliance Matrix: (Units=1/GPa)
#
#
# Indices 1 2 3 4 5 6 
#
# 1 0.017045 -0.003126 -0.005979 0.000000 0.000000 0.000000
# 2 -0.003126 0.017045 -0.005979 0.000000 0.000000 0.000000
# 3 -0.005979 -0.005979 0.012428 0.000000 0.000000 0.000000
# 4 0.000000 0.000000 0.000000 0.030194 0.000000 0.000000
# 5 0.000000 0.000000 0.000000 0.000000 0.030194 0.000000
# 6 0.000000 0.000000 0.000000 0.000000 0.000000 0.040343
#
#
# Mechanical properties :
#
#
# Convention : Reuss Voigt Hill
#
# Bulk Modulus (GPa) = 61.16103 68.63274 64.89688
# Shear Modulus (GPa) = 27.34185 28.53230 27.93708
#
# Velocity S-wave (km/s) = 3.61983 3.69780 3.65902
# Velocity P-wave (km/s) = 6.83970 7.15002 6.99658
#
# Compressibility (1/GPa) = 0.01635028
#
# Stress axis : x y z
#
# Youngs Moduli (GPa) = 58.66724 58.66724 80.46118
#
# Poissons Ratio (x) = 0.18341 0.48108
# Poissons Ratio (y) = 0.18341 0.48108
# Poissons Ratio (z) = 0.35077 0.35077
#
# Static dielectric constant tensor:
#      x y z
#    x 3.715690 0.000000 0.000000 
#    y 0.000000 3.715690 0.000000 
#    z 0.000000 0.000000 3.761670 
# 
# 
# High freq. dielectric constant tensor:
#      x y z
#    x 1.809140 0.000000 0.000000 
#    y 0.000000 1.809140 0.000000 
#    z 0.000000 0.000000 1.814740 
# 
# From -- ./inp_files/3175.got.cif
#   From: 2010.06.25/outbox.cif.g09.slc.cpg/sg176_2_cif.got.tgz:3175.got - 2010.06.28 12:15:01.
