data_PCOD8325075
_publ_section_title
;
Structure prediction by ZEFSAII (Michael W. Deem and Ramdas Pophale) SiO2 
 PCOD8325075
Probable space group: P 6/M
;
_chemical_formula_sum "Si O2"
_cell_formula_units_Z 72
_cell_length_a 23.142096
_cell_length_b 23.142096
_cell_length_c 8.764226
_cell_angle_alpha 90.000000
_cell_angle_beta 90.000000
_cell_angle_gamma 120.000000
_cell_volume 4064.897336
_symmetry_space_group_name_H-M "P 6/M"
_symmetry_group_IT_number 175
_symmetry_cell_setting 'hexagonal'
loop_
_space_group_symop_operation_xyz
x,y,z
x-y,x,z
-y,x-y,z
-x,-y,z
-x+y,-x,z
y,-x+y,z
-x,-y,-z
-x+y,-x,-z
y,-x+y,-z
x,y,-z
x-y,x,-z
-y,x-y,-z
loop_
_atom_site_type_symbol
_atom_site_label
_atom_site_fract_x
_atom_site_fract_y
_atom_site_fract_z
Si Si1 0.602080 0.868249 0.667503
Si Si2 0.333136 0.790791 0.179015
Si Si3 0.544145 0.208426 0.680848
Si Si4 0.802364 0.064499 0.680711
Si Si5 0.135473 0.409217 0.332309
Si Si6 0.265261 0.074650 0.178282
O O1 0.620014 0.902956 0.500000
O O2 0.529334 0.853822 0.723282
O O3 0.595052 0.796639 0.652650
O O4 0.660943 0.913874 0.784192
O O5 0.404095 0.810706 0.250221
O O6 0.277488 0.721208 0.248944
O O7 0.319923 0.851906 0.215836
O O8 0.334616 0.782106 0.000000
O O9 0.552699 0.218223 0.500000
O O10 0.804433 0.055669 0.500000
O O11 0.741926 0.078321 0.725439
O O12 0.873380 0.124659 0.732625
O O13 0.790046 0.998592 0.767783
O O14 0.117473 0.425416 0.500000
O O15 0.259065 0.083029 0.000000
#
# Coordination Sequence:
#
# PCOD8325075 Si02
#       6
#    12  12  12  12  12  12
#     4   8  16  31  49  68  92 128 169 205 245 297
#     4  11  20  28  42  66  95 124 161 212 267 311
#     4  10  19  31  45  61  89 129 171 210 252 308
#     4  10  20  36  57  79 106 139 171 198 231 285
#     4   8  16  31  49  68  92 127 168 204 241 291
#     4  11  21  33  54  84 112 133 160 203 248 282
#
# _framework density 17.712624000000002
#
# number of rings (size 3 to 8) (size 9 to 14) (size 15 to 20)
#    0.000    2.333    0.000    6.333    0.000    7.333 
#    0.000    0.000    0.000    1.333    0.000    9.333 
#    0.000    0.000    0.000    0.000    0.000    0.000 
#
# Total GULP energy -892483.674285 kJ/mol
# GULP energy per Si atom -12395.606587 kJ/mol
# Density = 1.767231 g / cm^3
# Si number density = 17.712624 Si / 1000 Ang^3
#
#
#
# Elastic Constant Matrix: (Units=GPa)
#
#
# Indices 1 2 3 4 5 6 
#
# 1 72.5727 30.3931 24.0846 0.0000 0.0000 0.0000
# 2 30.3931 72.5727 24.0846 0.0000 0.0000 0.0000
# 3 24.0846 24.0846 87.1380 0.0000 0.0000 0.0000
# 4 0.0000 0.0000 0.0000 15.4303 0.0000 0.0000
# 5 0.0000 0.0000 0.0000 0.0000 15.4303 0.0000
# 6 0.0000 0.0000 0.0000 0.0000 0.0000 21.0898
#
#
#
# Elastic Compliance Matrix: (Units=1/GPa)
#
#
# Indices 1 2 3 4 5 6 
#
# 1 0.017431 -0.006277 -0.003083 0.000000 0.000000 0.000000
# 2 -0.006277 0.017431 -0.003083 0.000000 0.000000 0.000000
# 3 -0.003083 -0.003083 0.013180 0.000000 0.000000 0.000000
# 4 0.000000 0.000000 0.000000 0.064808 0.000000 0.000000
# 5 0.000000 0.000000 0.000000 0.000000 0.064808 0.000000
# 6 0.000000 0.000000 0.000000 0.000000 0.000000 0.047416
#
#
# Mechanical properties :
#
#
# Convention : Reuss Voigt Hill
#
# Bulk Modulus (GPa) = 43.18378 43.26752 43.22565
# Shear Modulus (GPa) = 19.40399 20.63815 20.02107
#
# Velocity S-wave (km/s) = 3.31341 3.41716 3.36568
# Velocity P-wave (km/s) = 6.25071 6.32849 6.28972
#
# Compressibility (1/GPa) = 0.02315685
#
# Stress axis : x y z
#
# Youngs Moduli (GPa) = 57.36840 57.36840 75.87084
#
# Poissons Ratio (x) = 0.36010 0.23391
# Poissons Ratio (y) = 0.36010 0.23391
# Poissons Ratio (z) = 0.17687 0.17687
#
# Static dielectric constant tensor:
#      x y z
#    x 3.319960 0.000000 0.000000 
#    y 0.000000 3.319960 0.000000 
#    z 0.000000 0.000000 3.285790 
# 
# 
# High freq. dielectric constant tensor:
#      x y z
#    x 1.664640 0.000000 0.000000 
#    y 0.000000 1.664640 0.000000 
#    z 0.000000 0.000000 1.690500 
# 
# From -- ./inp_files/1231.got.cif
#   From: 2010.03.12/outbox.cif.g09.slc.cpg/sg175_1_cif.got.tgz:1231.got - 2010.04.02 06:55:29.
