data_PCOD8325504
_publ_section_title
;
Structure prediction by ZEFSAII (Michael W. Deem and Ramdas Pophale) SiO2 
 PCOD8325504
Probable space group: P 63/M
;
_chemical_formula_sum "Si O2"
_cell_formula_units_Z 60
_cell_length_a 15.005351
_cell_length_b 15.005351
_cell_length_c 13.889994
_cell_angle_alpha 90.000000
_cell_angle_beta 90.000000
_cell_angle_gamma 120.000000
_cell_volume 2708.476098
_symmetry_space_group_name_H-M "P 63/M"
_symmetry_group_IT_number 176
_symmetry_cell_setting 'hexagonal'
loop_
_space_group_symop_operation_xyz
x,y,z
x-y,x,1/2+z
-y,x-y,z
-x,-y,1/2+z
-x+y,-x,z
y,-x+y,1/2+z
-x,-y,-z
-x+y,-x,1/2-z
y,-x+y,-z
x,y,1/2-z
x-y,x,-z
-y,x-y,1/2-z
loop_
_atom_site_type_symbol
_atom_site_label
_atom_site_fract_x
_atom_site_fract_y
_atom_site_fract_z
Si Si1 0.484659 0.876770 0.859551
Si Si2 0.180709 0.452964 0.554258
Si Si3 0.175745 0.945605 0.635326
Si Si4 0.951185 0.796410 0.857085
Si Si5 0.336377 0.906650 0.143456
O O1 0.498325 0.850843 0.750000
O O2 0.365956 0.836986 0.878520
O O3 0.528388 0.822326 0.928902
O O4 0.548968 0.999425 0.876892
O O5 0.093642 0.336227 0.577806
O O6 0.175866 0.480915 0.442021
O O7 0.186770 0.933243 0.750000
O O8 0.058266 0.882413 0.596959
O O9 0.216374 0.062206 0.597848
O O10 0.950414 0.835375 0.750000
O O11 0.952995 0.691721 0.858259
O O12 0.330885 0.857689 0.250000
#
# Coordination Sequence:
#
# PCOD8325504 Si02
#       5
#    12  12  12  12  12
#     4  11  23  43  68  99 132 166 217 290 342 381
#     4  12  24  40  70  98 129 173 230 273 338 401
#     4  10  19  34  61  98 136 175 224 274 332 405
#     4   9  18  34  57  91 136 179 213 268 333 394
#     4  10  23  43  61  87 135 176 213 272 336 394
#
# _framework density 22.152678999999999
#
# number of rings (size 3 to 8) (size 9 to 14) (size 15 to 20)
#    0.000    1.600    2.000    3.200    2.800    1.600 
#    0.000    1.000    0.000    2.400    0.000    0.000 
#    0.000    0.000    0.000    0.000    0.000    0.000 
#
# Total GULP energy -743846.986056 kJ/mol
# GULP energy per Si atom -12397.449768 kJ/mol
# Density = 2.210226 g / cm^3
# Si number density = 22.152679 Si / 1000 Ang^3
#
#
#
# Elastic Constant Matrix: (Units=GPa)
#
#
# Indices 1 2 3 4 5 6 
#
# 1 70.3469 13.8240 22.4280 0.0000 0.0000 0.0000
# 2 13.8240 70.3469 22.4280 0.0000 0.0000 0.0000
# 3 22.4280 22.4280 142.7099 0.0000 0.0000 0.0000
# 4 0.0000 0.0000 0.0000 -1.9403 0.0000 0.0000
# 5 0.0000 0.0000 0.0000 0.0000 -1.9403 0.0000
# 6 0.0000 0.0000 0.0000 0.0000 0.0000 28.2615
#
#
#
# Elastic Compliance Matrix: (Units=1/GPa)
#
#
# Indices 1 2 3 4 5 6 
#
# 1 0.015329 -0.002363 -0.002038 0.000000 0.000000 0.000000
# 2 -0.002363 0.015329 -0.002038 0.000000 0.000000 0.000000
# 3 -0.002038 -0.002038 0.007648 0.000000 0.000000 0.000000
# 4 0.000000 0.000000 0.000000 -0.515386 0.000000 0.000000
# 5 0.000000 0.000000 0.000000 0.000000 -0.515386 0.000000
# 6 0.000000 0.000000 0.000000 0.000000 0.000000 0.035384
#
#
# Mechanical properties :
#
#
# Convention : Reuss Voigt Hill
#
# Bulk Modulus (GPa) = 39.32415 44.52932 41.92674
# Shear Modulus (GPa) = -5.34343 19.85775 7.25716
#
# Velocity S-wave (km/s) = -1.55478 2.99725 1.81193
# Velocity P-wave (km/s) = 3.81666 5.66769 4.83165
#
# Compressibility (1/GPa) = 0.02542966
#
# Stress axis : x y z
#
# Youngs Moduli (GPa) = 65.23475 65.23475 130.75760
#
# Poissons Ratio (x) = 0.15413 0.26646
# Poissons Ratio (y) = 0.15413 0.26646
# Poissons Ratio (z) = 0.13294 0.13294
#
# Static dielectric constant tensor:
#      x y z
#    x 3.849530 0.000000 0.000000 
#    y 0.000000 3.849530 0.000000 
#    z 0.000000 0.000000 4.268340 
# 
# 
# High freq. dielectric constant tensor:
#      x y z
#    x 1.859850 0.000000 0.000000 
#    y 0.000000 1.859850 0.000000 
#    z 0.000000 0.000000 1.882240 
# 
# From -- ./inp_files/2628.got.cif
#   From: 2010.06.25/outbox.cif.g09.slc.cpg/sg176_2_cif.got.tgz:2628.got - 2010.06.28 12:15:01.
