data_PCOD8325974
_publ_section_title
;
Structure prediction by ZEFSAII (Michael W. Deem and Ramdas Pophale) SiO2 
 PCOD8325974
Probable space group: P 61 2 2
;
_chemical_formula_sum "Si O2"
_cell_formula_units_Z 36
_cell_length_a 7.821897
_cell_length_b 7.821897
_cell_length_c 31.229876
_cell_angle_alpha 90.000000
_cell_angle_beta 90.000000
_cell_angle_gamma 120.000000
_cell_volume 1654.722138
_symmetry_space_group_name_H-M "P 61 2 2"
_symmetry_group_IT_number 178
_symmetry_cell_setting 'hexagonal'
loop_
_space_group_symop_operation_xyz
x,y,z
x-y,x,1/6+z
-y,x-y,1/3+z
-x,-y,1/2+z
-x+y,-x,2/3+z
y,-x+y,5/6+z
x-y,-y,-z
-x,-x+y,2/3-z
y,x,1/3-z
-y,-x,5/6-z
-x+y,y,1/2-z
x,x-y,1/6-z
loop_
_atom_site_type_symbol
_atom_site_label
_atom_site_fract_x
_atom_site_fract_y
_atom_site_fract_z
Si Si1 0.613833 0.606530 0.877676
Si Si2 0.615491 0.623807 0.295527
Si Si3 0.901537 0.454616 0.877397
O O1 0.457352 0.542649 0.916667
O O2 0.528828 0.479929 0.834796
O O3 0.779470 0.557506 0.893311
O O4 0.698137 0.838704 0.867822
O O5 0.501244 0.553594 0.249910
O O6 0.784836 0.565534 0.297026
O O7 0.000000 0.557754 0.833334
#
# Coordination Sequence:
#
# PCOD8325974 Si02
#       3
#    12  12  12
#     4  12  22  42  69 100 135 189 234 292 365 422
#     4  11  23  41  68  97 137 183 232 292 356 421
#     4  11  24  43  65 103 141 179 238 297 355 433
#
# _framework density 21.755921000000001
#
# number of rings (size 3 to 8) (size 9 to 14) (size 15 to 20)
#    0.000    0.667    6.667    2.000    0.000    1.333 
#    0.000    3.333    0.000    0.000    0.000    0.000 
#    0.000    0.000    0.000    0.000    0.000    0.000 
#
# Total GULP energy -446173.850038 kJ/mol
# GULP energy per Si atom -12393.718057 kJ/mol
# Density = 2.170640 g / cm^3
# Si number density = 21.755921 Si / 1000 Ang^3
#
#
#
# Elastic Constant Matrix: (Units=GPa)
#
#
# Indices 1 2 3 4 5 6 
#
# 1 119.4966 49.7248 12.7875 0.0000 0.0000 0.0000
# 2 49.7248 119.4966 12.7875 0.0000 0.0000 0.0000
# 3 12.7875 12.7875 146.0222 0.0000 0.0000 0.0000
# 4 0.0000 0.0000 0.0000 36.0926 0.0000 0.0000
# 5 0.0000 0.0000 0.0000 0.0000 36.0926 0.0000
# 6 0.0000 0.0000 0.0000 0.0000 0.0000 34.8859
#
#
#
# Elastic Compliance Matrix: (Units=1/GPa)
#
#
# Indices 1 2 3 4 5 6 
#
# 1 0.010161 -0.004172 -0.000524 0.000000 0.000000 0.000000
# 2 -0.004172 0.010161 -0.000524 0.000000 0.000000 0.000000
# 3 -0.000524 -0.000524 0.006940 0.000000 0.000000 0.000000
# 4 0.000000 0.000000 0.000000 0.027707 0.000000 0.000000
# 5 0.000000 0.000000 0.000000 0.000000 0.027707 0.000000
# 6 0.000000 0.000000 0.000000 0.000000 0.000000 0.028665
#
#
# Mechanical properties :
#
#
# Convention : Reuss Voigt Hill
#
# Bulk Modulus (GPa) = 59.45403 59.51277 59.48340
# Shear Modulus (GPa) = 39.25041 42.06193 40.65617
#
# Velocity S-wave (km/s) = 4.25211 4.40176 4.32758
# Velocity P-wave (km/s) = 7.17595 7.29713 7.23680
#
# Compressibility (1/GPa) = 0.01681972
#
# Stress axis : x y z
#
# Youngs Moduli (GPa) = 98.41981 98.41981 144.08956
#
# Poissons Ratio (x) = 0.41060 0.07557
# Poissons Ratio (y) = 0.41060 0.07557
# Poissons Ratio (z) = 0.05162 0.05162
#
# Static dielectric constant tensor:
#      x y z
#    x 3.841350 0.000000 0.000000 
#    y 0.000000 3.841350 0.000000 
#    z 0.000000 0.000000 4.533270 
# 
# 
# High freq. dielectric constant tensor:
#      x y z
#    x 1.841630 0.000000 0.000000 
#    y 0.000000 1.841630 0.000000 
#    z 0.000000 0.000000 1.888510 
# 
# From -- ./inp_files/8548.got.cif
#   From: 2010.03.12/outbox.cif.g09.slc.cpg/sg178_5_cif.got.tgz:8548.got - 2010.04.02 07:02:38.
