data_PCOD8325065
_publ_section_title
;
Structure prediction by ZEFSAII (Michael W. Deem and Ramdas Pophale) SiO2 
 PCOD8325065
Probable space group: P 6/M
;
_chemical_formula_sum "Si O2"
_cell_formula_units_Z 60
_cell_length_a 18.336278
_cell_length_b 18.336278
_cell_length_c 12.860122
_cell_angle_alpha 90.000000
_cell_angle_beta 90.000000
_cell_angle_gamma 120.000000
_cell_volume 3744.536686
_symmetry_space_group_name_H-M "P 6/M"
_symmetry_group_IT_number 175
_symmetry_cell_setting 'hexagonal'
loop_
_space_group_symop_operation_xyz
x,y,z
x-y,x,z
-y,x-y,z
-x,-y,z
-x+y,-x,z
y,-x+y,z
-x,-y,-z
-x+y,-x,-z
y,-x+y,-z
x,y,-z
x-y,x,-z
-y,x-y,-z
loop_
_atom_site_type_symbol
_atom_site_label
_atom_site_fract_x
_atom_site_fract_y
_atom_site_fract_z
Si Si1 0.744217 0.672905 0.882117
Si Si2 0.833909 0.345882 0.121275
Si Si3 0.119178 0.923569 0.620420
Si Si4 0.100897 0.318260 0.793129
Si Si5 0.172898 0.495224 0.876793
O O1 0.680959 0.580368 0.831976
O O2 0.742299 0.746279 0.819458
O O3 0.839187 0.690337 0.877534
O O4 0.718838 0.675776 0.000000
O O5 0.849106 0.434685 0.164928
O O6 0.738678 0.272195 0.141957
O O7 0.850822 0.357312 0.000000
O O8 0.134093 0.913859 0.500000
O O9 0.172188 0.887281 0.681469
O O10 0.020557 0.869566 0.649218
O O11 0.120670 0.414670 0.801504
O O12 0.150723 0.472978 0.000000
#
# Coordination Sequence:
#
# PCOD8325065 Si02
#       5
#    12  12  12  12  12
#     4  10  19  30  43  64  96 131 161 185 219 277
#     4   8  15  26  41  62  92 128 162 194 222 251
#     4  10  20  36  56  74  89 112 152 205 251 286
#     4  11  19  30  46  67  94 124 154 187 238 283
#     4   9  16  27  44  68  97 129 164 195 225 267
#
# _framework density 16.023344000000002
#
# number of rings (size 3 to 8) (size 9 to 14) (size 15 to 20)
#    0.000    2.400    2.000    3.600    0.000    3.200 
#    0.000    3.000    0.000    0.000    0.000   11.200 
#    0.000    0.000    0.000    0.000    0.000    0.000 
#
# Total GULP energy -743407.233089 kJ/mol
# GULP energy per Si atom -12390.120551 kJ/mol
# Density = 1.598687 g / cm^3
# Si number density = 16.023344 Si / 1000 Ang^3
#
#
#
# Elastic Constant Matrix: (Units=GPa)
#
#
# Indices 1 2 3 4 5 6 
#
# 1 92.2798 41.9280 26.7452 0.0000 0.0000 0.0000
# 2 41.9280 92.2798 26.7452 0.0000 0.0000 0.0000
# 3 26.7452 26.7452 47.7952 0.0000 0.0000 0.0000
# 4 0.0000 0.0000 0.0000 18.2981 0.0000 0.0000
# 5 0.0000 0.0000 0.0000 0.0000 18.2981 0.0000
# 6 0.0000 0.0000 0.0000 0.0000 0.0000 25.1759
#
#
#
# Elastic Compliance Matrix: (Units=1/GPa)
#
#
# Indices 1 2 3 4 5 6 
#
# 1 0.014725 -0.005135 -0.005366 0.000000 0.000000 0.000000
# 2 -0.005135 0.014725 -0.005366 0.000000 0.000000 0.000000
# 3 -0.005366 -0.005366 0.026928 0.000000 0.000000 0.000000
# 4 0.000000 0.000000 0.000000 0.054650 0.000000 0.000000
# 5 0.000000 0.000000 0.000000 0.000000 0.054650 0.000000
# 6 0.000000 0.000000 0.000000 0.000000 0.000000 0.039721
#
#
# Mechanical properties :
#
#
# Convention : Reuss Voigt Hill
#
# Bulk Modulus (GPa) = 40.57957 47.02128 43.80043
# Shear Modulus (GPa) = 20.37904 21.48351 20.93128
#
# Velocity S-wave (km/s) = 3.57015 3.66562 3.61820
# Velocity P-wave (km/s) = 6.50960 6.87931 6.69700
#
# Compressibility (1/GPa) = 0.02464294
#
# Stress axis : x y z
#
# Youngs Moduli (GPa) = 67.91114 67.91114 37.13558
#
# Poissons Ratio (x) = 0.34874 0.19928
# Poissons Ratio (y) = 0.34874 0.19928
# Poissons Ratio (z) = 0.36443 0.36443
#
# Static dielectric constant tensor:
#      x y z
#    x 3.224550 0.000000 0.000000 
#    y 0.000000 3.224550 0.000000 
#    z 0.000000 0.000000 2.631640 
# 
# 
# High freq. dielectric constant tensor:
#      x y z
#    x 1.624760 0.000000 0.000000 
#    y 0.000000 1.624760 0.000000 
#    z 0.000000 0.000000 1.554020 
# 
# From -- ./inp_files/1802.got.cif
#   From: 2010.03.12/outbox.cif.g09.slc.cpg/sg175_1_cif.got.tgz:1802.got - 2010.04.02 06:55:29.
