data_PCOD8325107
_publ_section_title
;
Structure prediction by ZEFSAII (Michael W. Deem and Ramdas Pophale) SiO2 
 PCOD8325107
Probable space group: P 6/M
;
_chemical_formula_sum "Si O2"
_cell_formula_units_Z 72
_cell_length_a 22.531099
_cell_length_b 22.531099
_cell_length_c 9.079196
_cell_angle_alpha 90.000000
_cell_angle_beta 90.000000
_cell_angle_gamma 120.000000
_cell_volume 3991.561040
_symmetry_space_group_name_H-M "P 6/M"
_symmetry_group_IT_number 175
_symmetry_cell_setting 'hexagonal'
loop_
_space_group_symop_operation_xyz
x,y,z
x-y,x,z
-y,x-y,z
-x,-y,z
-x+y,-x,z
y,-x+y,z
-x,-y,-z
-x+y,-x,-z
y,-x+y,-z
x,y,-z
x-y,x,-z
-y,x-y,-z
loop_
_atom_site_type_symbol
_atom_site_label
_atom_site_fract_x
_atom_site_fract_y
_atom_site_fract_z
Si Si1 0.609423 0.873039 0.669875
Si Si2 0.003762 0.866627 0.824526
Si Si3 0.245875 0.855806 0.167436
Si Si4 0.662277 0.452918 0.327139
Si Si5 0.787191 0.454375 0.171317
Si Si6 0.727764 0.995950 0.171333
O O1 0.627501 0.885559 0.500000
O O2 0.625251 0.815023 0.723268
O O3 0.530575 0.850401 0.701506
O O4 0.657533 0.942434 0.753611
O O5 0.935100 0.864689 0.765062
O O6 0.005776 0.799918 0.765180
O O7 0.002044 0.865899 0.000000
O O8 0.309876 0.843867 0.192020
O O9 0.267839 0.932714 0.205705
O O10 0.218564 0.837000 0.000000
O O11 0.662677 0.437876 0.500000
O O12 0.715797 0.437153 0.245216
O O13 0.588074 0.404737 0.255895
O O14 0.774371 0.433749 0.000000
O O15 0.721648 0.979013 0.000000
#
# Coordination Sequence:
#
# PCOD8325107 Si02
#       6
#    12  12  12  12  12  12
#     4  10  21  35  52  75 102 133 169 210 254 302
#     4   9  16  26  44  72 103 131 160 198 245 295
#     4   9  19  35  54  76 102 133 169 211 256 300
#     4  10  20  34  51  73 103 136 167 203 254 309
#     4  10  19  32  52  77 102 130 168 211 254 301
#     4  10  19  33  53  74  99 134 173 211 253 302
#
# _framework density 18.038055
#
# number of rings (size 3 to 8) (size 9 to 14) (size 15 to 20)
#    0.000    2.333    0.000    3.000    0.000    6.667 
#    0.000    0.833    0.000    5.000    0.000    0.000 
#    0.000    2.667    0.000    0.000    0.000    0.000 
#
# Total GULP energy -892902.322119 kJ/mol
# GULP energy per Si atom -12401.421141 kJ/mol
# Density = 1.799700 g / cm^3
# Si number density = 18.038055 Si / 1000 Ang^3
#
#
#
# Elastic Constant Matrix: (Units=GPa)
#
#
# Indices 1 2 3 4 5 6 
#
# 1 109.9300 61.2112 42.5057 0.0000 0.0000 0.0000
# 2 61.2112 109.9300 42.5057 0.0000 0.0000 0.0000
# 3 42.5057 42.5057 62.4971 0.0000 0.0000 0.0000
# 4 0.0000 0.0000 0.0000 22.1523 0.0000 0.0000
# 5 0.0000 0.0000 0.0000 0.0000 22.1523 0.0000
# 6 0.0000 0.0000 0.0000 0.0000 0.0000 24.3594
#
#
#
# Elastic Compliance Matrix: (Units=1/GPa)
#
#
# Indices 1 2 3 4 5 6 
#
# 1 0.014675 -0.005851 -0.006002 0.000000 0.000000 0.000000
# 2 -0.005851 0.014675 -0.006002 0.000000 0.000000 0.000000
# 3 -0.006002 -0.006002 0.024164 0.000000 0.000000 0.000000
# 4 0.000000 0.000000 0.000000 0.045142 0.000000 0.000000
# 5 0.000000 0.000000 0.000000 0.000000 0.045142 0.000000
# 6 0.000000 0.000000 0.000000 0.000000 0.000000 0.041052
#
#
# Mechanical properties :
#
#
# Convention : Reuss Voigt Hill
#
# Bulk Modulus (GPa) = 56.15902 63.86691 60.01297
# Shear Modulus (GPa) = 22.07560 22.80843 22.44201
#
# Velocity S-wave (km/s) = 3.50213 3.55978 3.53108
# Velocity P-wave (km/s) = 6.89597 7.23738 7.06874
#
# Compressibility (1/GPa) = 0.01780658
#
# Stress axis : x y z
#
# Youngs Moduli (GPa) = 68.14243 68.14243 41.38314
#
# Poissons Ratio (x) = 0.39869 0.24837
# Poissons Ratio (y) = 0.39869 0.24837
# Poissons Ratio (z) = 0.40897 0.40897
#
# Static dielectric constant tensor:
#      x y z
#    x 3.378980 0.000000 0.000000 
#    y 0.000000 3.378980 0.000000 
#    z 0.000000 0.000000 3.248280 
# 
# 
# High freq. dielectric constant tensor:
#      x y z
#    x 1.699230 0.000000 0.000000 
#    y 0.000000 1.699230 0.000000 
#    z 0.000000 0.000000 1.685810 
# 
# From -- ./inp_files/1146.got.cif
#   From: 2010.03.12/outbox.cif.g09.slc.cpg/sg175_1_cif.got.tgz:1146.got - 2010.04.02 06:55:29.
