data_PCOD8325954
_publ_section_title
;
Structure prediction by ZEFSAII (Michael W. Deem and Ramdas Pophale) SiO2 
 PCOD8325954
Probable space group: P 61 2 2
;
_chemical_formula_sum "Si O2"
_cell_formula_units_Z 72
_cell_length_a 17.393726
_cell_length_b 17.393726
_cell_length_c 18.176799
_cell_angle_alpha 90.000000
_cell_angle_beta 90.000000
_cell_angle_gamma 120.000000
_cell_volume 4762.481321
_symmetry_space_group_name_H-M "P 61 2 2"
_symmetry_group_IT_number 178
_symmetry_cell_setting 'hexagonal'
loop_
_space_group_symop_operation_xyz
x,y,z
x-y,x,1/6+z
-y,x-y,1/3+z
-x,-y,1/2+z
-x+y,-x,2/3+z
y,-x+y,5/6+z
x-y,-y,-z
-x,-x+y,2/3-z
y,x,1/3-z
-y,-x,5/6-z
-x+y,y,1/2-z
x,x-y,1/6-z
loop_
_atom_site_type_symbol
_atom_site_label
_atom_site_fract_x
_atom_site_fract_y
_atom_site_fract_z
Si Si1 0.980170 0.597956 0.519385
Si Si2 0.175365 0.637476 0.728153
Si Si3 0.421770 0.985698 0.846572
Si Si4 0.288939 0.464164 0.817096
Si Si5 0.646627 0.464349 0.732503
Si Si6 0.205404 0.714028 0.206461
O O1 0.972520 0.609118 0.606938
O O2 0.982082 0.508771 0.506463
O O3 0.893450 0.589182 0.479152
O O4 0.070254 0.679721 0.485475
O O5 0.188007 0.562217 0.687804
O O6 0.183943 0.626380 0.813985
O O7 0.249056 0.733116 0.698893
O O8 0.081319 0.630501 0.713288
O O9 0.365812 0.911699 0.907720
O O10 0.221051 0.442102 0.750000
O O11 0.240950 0.458049 0.893567
O O12 0.747201 0.494401 0.750000
O O13 0.581101 0.375556 0.775534
#
# Coordination Sequence:
#
# PCOD8325954 Si02
#       6
#    12  12  12  12  12  12
#     4   9  19  33  48  66  92 123 157 197 245 289
#     4  11  20  32  49  64  92 127 163 197 241 282
#     4   9  18  33  47  63  92 124 155 196 242 282
#     4  11  20  33  49  68  92 124 164 205 241 289
#     4  11  21  30  45  70  92 119 166 206 232 274
#     4  11  21  32  49  67  92 127 162 202 246 281
#
# _framework density 15.118169999999999
#
# number of rings (size 3 to 8) (size 9 to 14) (size 15 to 20)
#    0.000    1.667    3.333    3.000    0.000    2.000 
#    0.000    0.000    0.000    0.000    0.000    0.000 
#    0.000    0.000    0.000    4.500    0.333    0.000 
#
# Total GULP energy -892801.599559 kJ/mol
# GULP energy per Si atom -12400.022216 kJ/mol
# Density = 1.508376 g / cm^3
# Si number density = 15.118170 Si / 1000 Ang^3
#
#
#
# Elastic Constant Matrix: (Units=GPa)
#
#
# Indices 1 2 3 4 5 6 
#
# 1 79.7630 43.9089 36.3304 0.0000 0.0000 0.0000
# 2 43.9089 79.7630 36.3304 0.0000 0.0000 0.0000
# 3 36.3304 36.3304 77.7821 0.0000 0.0000 0.0000
# 4 0.0000 0.0000 0.0000 27.0617 0.0000 0.0000
# 5 0.0000 0.0000 0.0000 0.0000 27.0617 0.0000
# 6 0.0000 0.0000 0.0000 0.0000 0.0000 17.9270
#
#
#
# Elastic Compliance Matrix: (Units=1/GPa)
#
#
# Indices 1 2 3 4 5 6 
#
# 1 0.019517 -0.008373 -0.005205 0.000000 0.000000 0.000000
# 2 -0.008373 0.019517 -0.005205 0.000000 0.000000 0.000000
# 3 -0.005205 -0.005205 0.017719 0.000000 0.000000 0.000000
# 4 0.000000 0.000000 0.000000 0.036953 0.000000 0.000000
# 5 0.000000 0.000000 0.000000 0.000000 0.036953 0.000000
# 6 0.000000 0.000000 0.000000 0.000000 0.000000 0.055782
#
#
# Mechanical properties :
#
#
# Convention : Reuss Voigt Hill
#
# Bulk Modulus (GPa) = 52.12029 52.27194 52.19611
# Shear Modulus (GPa) = 21.70106 22.45931 22.08018
#
# Velocity S-wave (km/s) = 3.79282 3.85851 3.82580
# Velocity P-wave (km/s) = 7.33012 7.38251 7.35636
#
# Compressibility (1/GPa) = 0.01918639
#
# Stress axis : x y z
#
# Youngs Moduli (GPa) = 51.23618 51.23618 56.43697
#
# Poissons Ratio (x) = 0.42902 0.29376
# Poissons Ratio (y) = 0.42902 0.29376
# Poissons Ratio (z) = 0.26669 0.26669
#
# Static dielectric constant tensor:
#      x y z
#    x 2.903930 0.000000 0.000000 
#    y 0.000000 2.903930 0.000000 
#    z 0.000000 0.000000 3.151740 
# 
# 
# High freq. dielectric constant tensor:
#      x y z
#    x 1.552110 0.000000 0.000000 
#    y 0.000000 1.552110 0.000000 
#    z 0.000000 0.000000 1.597970 
# 
# From -- ./inp_files/6884.got.cif
#   From: 2010.03.12/outbox.cif.g09.slc.cpg/sg178_4_cif.got.tgz:6884.got - 2010.04.02 07:02:38.
