data_PCOD8325442
_publ_section_title
;
Structure prediction by ZEFSAII (Michael W. Deem and Ramdas Pophale) SiO2 
 PCOD8325442
Probable space group: P 63/M
;
_chemical_formula_sum "Si O2"
_cell_formula_units_Z 52
_cell_length_a 11.483693
_cell_length_b 11.483693
_cell_length_c 21.380622
_cell_angle_alpha 90.000000
_cell_angle_beta 90.000000
_cell_angle_gamma 120.000000
_cell_volume 2441.822632
_symmetry_space_group_name_H-M "P 63/M"
_symmetry_group_IT_number 176
_symmetry_cell_setting 'hexagonal'
loop_
_space_group_symop_operation_xyz
x,y,z
x-y,x,1/2+z
-y,x-y,z
-x,-y,1/2+z
-x+y,-x,z
y,-x+y,1/2+z
-x,-y,-z
-x+y,-x,1/2-z
y,-x+y,-z
x,y,1/2-z
x-y,x,-z
-y,x-y,1/2-z
loop_
_atom_site_type_symbol
_atom_site_label
_atom_site_fract_x
_atom_site_fract_y
_atom_site_fract_z
Si Si1 0.691873 0.861292 0.640000
Si Si2 0.909713 0.569283 0.819776
Si Si3 0.787347 0.707126 0.495797
Si Si4 0.000000 0.000000 0.173900
Si Si5 0.594539 0.923750 0.124551
O O1 0.635350 0.862362 0.570489
O O2 0.638474 0.704629 0.656324
O O3 0.637739 0.939022 0.683103
O O4 0.852185 0.934787 0.645275
O O5 0.869369 0.511291 0.750000
O O6 0.899721 0.452726 0.864064
O O7 0.806995 0.614278 0.844892
O O8 0.764458 0.828980 0.477732
O O9 0.685242 0.611237 0.549282
O O10 0.000000 0.000000 0.250000
#
# Coordination Sequence:
#
# PCOD8325442 Si02
#       5
#    12  12  12   4  12
#     4  11  22  41  67 103 129 172 218 279 337 386
#     4  12  25  43  66  94 133 176 224 275 331 401
#     4  10  18  37  67 100 136 164 213 274 331 395
#     4  12  21  36  70 107 139 168 223 284 331 396
#     4  11  25  43  68  98 130 177 223 272 335 396
#
# _framework density 21.295570000000001
#
# number of rings (size 3 to 8) (size 9 to 14) (size 15 to 20)
#    0.000    0.923    4.615    3.462    0.000    3.692 
#    1.385    0.000    0.000    0.000    0.000    0.000 
#    0.000    0.000    0.000    0.000    0.000    0.000 
#
# Total GULP energy -644514.292676 kJ/mol
# GULP energy per Si atom -12394.505628 kJ/mol
# Density = 2.124710 g / cm^3
# Si number density = 21.295570 Si / 1000 Ang^3
#
#
#
# Elastic Constant Matrix: (Units=GPa)
#
#
# Indices 1 2 3 4 5 6 
#
# 1 71.7898 37.0842 23.9871 0.0000 0.0000 0.0000
# 2 37.0842 71.7898 23.9871 0.0000 0.0000 0.0000
# 3 23.9871 23.9871 102.9803 0.0000 0.0000 0.0000
# 4 0.0000 0.0000 0.0000 20.1568 0.0000 0.0000
# 5 0.0000 0.0000 0.0000 0.0000 20.1568 0.0000
# 6 0.0000 0.0000 0.0000 0.0000 0.0000 17.3528
#
#
#
# Elastic Compliance Matrix: (Units=1/GPa)
#
#
# Indices 1 2 3 4 5 6 
#
# 1 0.019525 -0.009289 -0.002384 0.000000 0.000000 0.000000
# 2 -0.009289 0.019525 -0.002384 0.000000 0.000000 0.000000
# 3 -0.002384 -0.002384 0.010821 0.000000 0.000000 0.000000
# 4 0.000000 0.000000 0.000000 0.049611 0.000000 0.000000
# 5 0.000000 0.000000 0.000000 0.000000 0.049611 0.000000
# 6 0.000000 0.000000 0.000000 0.000000 0.000000 0.057628
#
#
# Mechanical properties :
#
#
# Convention : Reuss Voigt Hill
#
# Bulk Modulus (GPa) = 45.96504 46.29741 46.13122
# Shear Modulus (GPa) = 20.65373 22.30005 21.47689
#
# Velocity S-wave (km/s) = 3.11764 3.23951 3.17916
# Velocity P-wave (km/s) = 5.88139 5.98165 5.93173
#
# Compressibility (1/GPa) = 0.02175566
#
# Stress axis : x y z
#
# Youngs Moduli (GPa) = 51.21731 51.21731 92.41063
#
# Poissons Ratio (x) = 0.47577 0.22032
# Poissons Ratio (y) = 0.47577 0.22032
# Poissons Ratio (z) = 0.12211 0.12211
#
# Static dielectric constant tensor:
#      x y z
#    x 3.739780 0.000000 0.000000 
#    y 0.000000 3.739780 0.000000 
#    z 0.000000 0.000000 3.954660 
# 
# 
# High freq. dielectric constant tensor:
#      x y z
#    x 1.821090 0.000000 0.000000 
#    y 0.000000 1.821090 0.000000 
#    z 0.000000 0.000000 1.844350 
# 
# From -- ./inp_files/3696.got.cif
#   From: 2010.06.25/outbox.cif.g09.slc.cpg/sg176_2_cif.got.tgz:3696.got - 2010.06.28 12:15:01.
