data_PCOD8325473
_publ_section_title
;
Structure prediction by ZEFSAII (Michael W. Deem and Ramdas Pophale) SiO2 
 PCOD8325473
Probable space group: P 63/M
;
_chemical_formula_sum "Si O2"
_cell_formula_units_Z 72
_cell_length_a 22.569752
_cell_length_b 22.569752
_cell_length_c 9.273602
_cell_angle_alpha 90.000000
_cell_angle_beta 90.000000
_cell_angle_gamma 120.000000
_cell_volume 4091.029949
_symmetry_space_group_name_H-M "P 63/M"
_symmetry_group_IT_number 176
_symmetry_cell_setting 'hexagonal'
loop_
_space_group_symop_operation_xyz
x,y,z
x-y,x,1/2+z
-y,x-y,z
-x,-y,1/2+z
-x+y,-x,z
y,-x+y,1/2+z
-x,-y,-z
-x+y,-x,1/2-z
y,-x+y,-z
x,y,1/2-z
x-y,x,-z
-y,x-y,1/2-z
loop_
_atom_site_type_symbol
_atom_site_label
_atom_site_fract_x
_atom_site_fract_y
_atom_site_fract_z
Si Si1 0.592370 0.918249 0.915016
Si Si2 0.266186 0.069116 0.415234
Si Si3 0.936622 0.729319 0.082318
Si Si4 0.678112 0.073317 0.917829
Si Si5 0.200731 0.534565 0.079317
Si Si6 0.666996 0.468637 0.921680
O O1 0.569196 0.898519 0.750000
O O2 0.655158 0.906137 0.952752
O O3 0.614775 0.997347 0.945671
O O4 0.530139 0.871616 0.018170
O O5 0.251995 0.043924 0.250000
O O6 0.250498 0.129447 0.444538
O O7 0.215989 0.006191 0.516010
O O8 0.947282 0.721337 0.250000
O O9 0.913510 0.657643 0.006138
O O10 0.698679 0.083242 0.750000
O O11 0.657707 0.128577 0.971209
O O12 0.205769 0.538560 0.250000
O O13 0.263493 0.526662 0.019059
O O14 0.206169 0.603952 0.019884
O O15 0.666708 0.472778 0.750000
#
# Coordination Sequence:
#
# PCOD8325473 Si02
#       6
#    12  12  12  12  12  12
#     4   9  18  32  48  68  97 128 155 192 246 295
#     4   9  19  34  50  72 104 134 158 196 248 289
#     4  10  19  31  51  77 100 127 166 203 236 285
#     4   9  18  33  50  69  99 133 158 193 251 299
#     4   9  18  32  50  71  94 124 161 201 244 286
#     4  10  19  32  51  71  92 122 164 205 237 284
#
# _framework density 17.59948
#
# number of rings (size 3 to 8) (size 9 to 14) (size 15 to 20)
#    0.000    2.667    0.000    2.833    0.000    6.000 
#    0.000    1.667    0.000    0.333    0.000    0.000 
#    0.000    0.000    0.000    0.000    0.000    0.000 
#
# Total GULP energy -892850.945515 kJ/mol
# GULP energy per Si atom -12400.707577 kJ/mol
# Density = 1.755942 g / cm^3
# Si number density = 17.599480 Si / 1000 Ang^3
#
#
#
# Elastic Constant Matrix: (Units=GPa)
#
#
# Indices 1 2 3 4 5 6 
#
# 1 121.6781 72.8774 47.8017 0.0000 0.0000 0.0000
# 2 72.8774 121.6781 47.8017 0.0000 0.0000 0.0000
# 3 47.8017 47.8017 57.1041 0.0000 0.0000 0.0000
# 4 0.0000 0.0000 0.0000 22.3143 0.0000 0.0000
# 5 0.0000 0.0000 0.0000 0.0000 22.3143 0.0000
# 6 0.0000 0.0000 0.0000 0.0000 0.0000 24.4003
#
#
#
# Elastic Compliance Matrix: (Units=1/GPa)
#
#
# Indices 1 2 3 4 5 6 
#
# 1 0.014612 -0.005880 -0.007309 0.000000 0.000000 0.000000
# 2 -0.005880 0.014612 -0.007309 0.000000 0.000000 0.000000
# 3 -0.007309 -0.007309 0.029749 0.000000 0.000000 0.000000
# 4 0.000000 0.000000 0.000000 0.044814 0.000000 0.000000
# 5 0.000000 0.000000 0.000000 0.000000 0.044814 0.000000
# 6 0.000000 0.000000 0.000000 0.000000 0.000000 0.040983
#
#
# Mechanical properties :
#
#
# Convention : Reuss Voigt Hill
#
# Bulk Modulus (GPa) = 55.63189 70.82466 63.22827
# Shear Modulus (GPa) = 21.13520 22.60443 21.86981
#
# Velocity S-wave (km/s) = 3.46916 3.58771 3.52893
# Velocity P-wave (km/s) = 6.90835 7.58235 7.25319
#
# Compressibility (1/GPa) = 0.01797530
#
# Stress axis : x y z
#
# Youngs Moduli (GPa) = 68.43893 68.43893 33.61468
#
# Poissons Ratio (x) = 0.40242 0.24570
# Poissons Ratio (y) = 0.40242 0.24570
# Poissons Ratio (z) = 0.50023 0.50023
#
# Static dielectric constant tensor:
#      x y z
#    x 3.328810 0.000000 0.000000 
#    y 0.000000 3.328810 0.000000 
#    z 0.000000 0.000000 3.085590 
# 
# 
# High freq. dielectric constant tensor:
#      x y z
#    x 1.680610 0.000000 0.000000 
#    y 0.000000 1.680610 0.000000 
#    z 0.000000 0.000000 1.662380 
# 
# From -- ./inp_files/1200.got.cif
#   From: 2010.06.25/outbox.cif.g09.slc.cpg/sg176_1_cif.got.tgz:1200.got - 2010.06.28 12:15:01.
