data_PCOD8325427
_publ_section_title
;
Structure prediction by ZEFSAII (Michael W. Deem and Ramdas Pophale) SiO2 
 PCOD8325427
Probable space group: P 63/M
;
_chemical_formula_sum "Si O2"
_cell_formula_units_Z 60
_cell_length_a 12.828176
_cell_length_b 12.828176
_cell_length_c 23.105627
_cell_angle_alpha 90.000000
_cell_angle_beta 90.000000
_cell_angle_gamma 120.000000
_cell_volume 3292.897477
_symmetry_space_group_name_H-M "P 63/M"
_symmetry_group_IT_number 176
_symmetry_cell_setting 'hexagonal'
loop_
_space_group_symop_operation_xyz
x,y,z
x-y,x,1/2+z
-y,x-y,z
-x,-y,1/2+z
-x+y,-x,z
y,-x+y,1/2+z
-x,-y,-z
-x+y,-x,1/2-z
y,-x+y,-z
x,y,1/2-z
x-y,x,-z
-y,x-y,1/2-z
loop_
_atom_site_type_symbol
_atom_site_label
_atom_site_fract_x
_atom_site_fract_y
_atom_site_fract_z
Si Si1 0.194987 0.285501 0.184906
Si Si2 0.765245 0.127141 0.121768
Si Si3 0.943618 0.731359 0.999654
Si Si4 0.342168 0.324165 0.878689
Si Si5 0.008185 0.544724 0.315866
O O1 0.162323 0.236832 0.250000
O O2 0.230867 0.198816 0.149468
O O3 0.080819 0.283025 0.157419
O O4 0.312787 0.421562 0.183704
O O5 0.646204 0.112634 0.154156
O O6 0.874722 0.261218 0.130437
O O7 0.736893 0.095164 0.054091
O O8 0.945892 0.653029 0.945588
O O9 0.848143 0.775446 0.989560
O O10 0.473950 0.416291 0.854016
O O11 0.979871 0.494565 0.250000
#
# Coordination Sequence:
#
# PCOD8325427 Si02
#       5
#    12  12  12  12  12
#     4   9  19  37  53  78 113 141 186 234 272 333
#     4   9  20  37  53  83 113 142 187 233 274 330
#     4  10  18  32  56  83 116 151 185 228 276 336
#     4  11  20  35  60  80 110 154 181 226 291 326
#     4   9  20  37  53  78 112 141 186 235 272 334
#
# _framework density 18.221035000000001
#
# number of rings (size 3 to 8) (size 9 to 14) (size 15 to 20)
#    1.200    1.200    2.000    0.800    0.000    4.000 
#    3.600    0.000    0.000    0.000    0.000    0.000 
#    0.000    0.000    0.000    0.000    0.000    0.000 
#
# Total GULP energy -743420.276350 kJ/mol
# GULP energy per Si atom -12390.337939 kJ/mol
# Density = 1.817956 g / cm^3
# Si number density = 18.221035 Si / 1000 Ang^3
#
#
#
# Elastic Constant Matrix: (Units=GPa)
#
#
# Indices 1 2 3 4 5 6 
#
# 1 47.5916 2.9334 30.7653 0.0000 0.0000 0.0000
# 2 2.9334 47.5916 30.7653 0.0000 0.0000 0.0000
# 3 30.7653 30.7653 131.4039 0.0000 0.0000 0.0000
# 4 0.0000 0.0000 0.0000 23.2912 0.0000 0.0000
# 5 0.0000 0.0000 0.0000 0.0000 23.2912 0.0000
# 6 0.0000 0.0000 0.0000 0.0000 0.0000 22.3291
#
#
#
# Elastic Compliance Matrix: (Units=1/GPa)
#
#
# Indices 1 2 3 4 5 6 
#
# 1 0.025039 0.002647 -0.006482 0.000000 0.000000 0.000000
# 2 0.002647 0.025039 -0.006482 0.000000 0.000000 0.000000
# 3 -0.006482 -0.006482 0.010645 0.000000 0.000000 0.000000
# 4 0.000000 0.000000 0.000000 0.042935 0.000000 0.000000
# 5 0.000000 0.000000 0.000000 0.000000 0.042935 0.000000
# 6 0.000000 0.000000 0.000000 0.000000 0.000000 0.044785
#
#
# Mechanical properties :
#
#
# Convention : Reuss Voigt Hill
#
# Bulk Modulus (GPa) = 24.94421 39.50167 32.22294
# Shear Modulus (GPa) = 22.18517 24.59049 23.38783
#
# Velocity S-wave (km/s) = 3.49314 3.67763 3.58657
# Velocity P-wave (km/s) = 5.47621 6.30551 5.90544
#
# Compressibility (1/GPa) = 0.04008947
#
# Stress axis : x y z
#
# Youngs Moduli (GPa) = 39.93723 39.93723 93.93720
#
# Poissons Ratio (x) = -0.10571 0.60891
# Poissons Ratio (y) = -0.10571 0.60891
# Poissons Ratio (z) = 0.25888 0.25888
#
# Static dielectric constant tensor:
#      x y z
#    x 3.007980 0.000000 0.000000 
#    y 0.000000 3.007980 0.000000 
#    z 0.000000 0.000000 3.556730 
# 
# 
# High freq. dielectric constant tensor:
#      x y z
#    x 1.678080 0.000000 0.000000 
#    y 0.000000 1.678080 0.000000 
#    z 0.000000 0.000000 1.728690 
# 
# From -- ./inp_files/3750.got.cif
#   From: 2010.06.25/outbox.cif.g09.slc.cpg/sg176_2_cif.got.tgz:3750.got - 2010.06.28 12:15:01.
