data_PCOD8325611
_publ_section_title
;
Structure prediction by ZEFSAII (Michael W. Deem and Ramdas Pophale) SiO2 
 PCOD8325611
Probable space group: P 63/M
;
_chemical_formula_sum "Si O2"
_cell_formula_units_Z 68
_cell_length_a 12.308674
_cell_length_b 12.308674
_cell_length_c 27.618964
_cell_angle_alpha 90.000000
_cell_angle_beta 90.000000
_cell_angle_gamma 120.000000
_cell_volume 3623.769409
_symmetry_space_group_name_H-M "P 63/M"
_symmetry_group_IT_number 176
_symmetry_cell_setting 'hexagonal'
loop_
_space_group_symop_operation_xyz
x,y,z
x-y,x,1/2+z
-y,x-y,z
-x,-y,1/2+z
-x+y,-x,z
y,-x+y,1/2+z
-x,-y,-z
-x+y,-x,1/2-z
y,-x+y,-z
x,y,1/2-z
x-y,x,-z
-y,x-y,1/2-z
loop_
_atom_site_type_symbol
_atom_site_label
_atom_site_fract_x
_atom_site_fract_y
_atom_site_fract_z
Si Si1 0.110669 0.391294 0.619512
Si Si2 0.183143 0.912598 0.519124
Si Si3 0.926441 0.387472 0.124292
Si Si4 0.333334 0.666667 0.069521
Si Si5 0.333334 0.666667 0.181548
Si Si6 0.915725 0.527150 0.534783
Si Si7 0.943525 0.406738 0.695584
O O1 0.065997 0.288932 0.575989
O O2 0.130818 0.527208 0.603279
O O3 0.246205 0.420914 0.639100
O O4 0.003182 0.338434 0.662198
O O5 0.258739 0.852131 0.494559
O O6 0.038317 0.819279 0.510192
O O7 0.011310 0.384680 0.080580
O O8 0.008413 0.454831 0.172429
O O9 0.333334 0.666667 0.125553
O O10 0.416855 0.808867 0.052461
O O11 0.458680 0.792159 0.198901
O O12 0.000000 0.500000 0.500000
O O13 0.996424 0.419811 0.750000
#
# Coordination Sequence:
#
# PCOD8325611 Si02
#       7
#    12  12  12   4   4  12  12
#     4  10  22  40  59  91 125 159 204 258 308 373
#     4  12  25  40  59  84 122 167 213 254 313 378
#     4  10  21  37  58  87 122 156 199 251 309 367
#     4  12  24  34  61  90 129 162 205 262 315 379
#     4  12  22  43  63  96 132 156 204 259 328 394
#     4  12  22  37  57  89 119 164 204 253 309 373
#     4  10  23  40  65  91 121 163 202 260 326 378
#
# _framework density 18.764991999999999
#
# number of rings (size 3 to 8) (size 9 to 14) (size 15 to 20)
#    1.059    0.000    5.294    2.118    2.471    0.706 
#    0.000    0.000    0.000    0.000    0.000    0.000 
#    0.000    0.000    0.000    0.000    0.000    0.000 
#
# Total GULP energy -842416.047587 kJ/mol
# GULP energy per Si atom -12388.471288 kJ/mol
# Density = 1.872228 g / cm^3
# Si number density = 18.764992 Si / 1000 Ang^3
#
#
#
# Elastic Constant Matrix: (Units=GPa)
#
#
# Indices 1 2 3 4 5 6 
#
# 1 81.8671 20.6193 37.8567 0.0000 0.0000 0.0000
# 2 20.6193 81.8680 37.8567 0.0000 0.0000 0.0003
# 3 37.8567 37.8567 147.4699 0.0000 0.0000 0.0000
# 4 0.0000 0.0000 0.0000 20.7673 0.0002 0.0000
# 5 0.0000 0.0000 0.0000 0.0002 20.7671 0.0000
# 6 0.0000 0.0003 0.0000 0.0000 0.0000 30.6238
#
#
#
# Elastic Compliance Matrix: (Units=1/GPa)
#
#
# Indices 1 2 3 4 5 6 
#
# 1 0.014184 -0.002143 -0.003091 0.000000 0.000000 0.000000
# 2 -0.002143 0.014184 -0.003091 0.000000 0.000000 0.000000
# 3 -0.003091 -0.003091 0.008368 0.000000 0.000000 0.000000
# 4 0.000000 0.000000 0.000000 0.048153 0.000000 0.000000
# 5 0.000000 0.000000 0.000000 0.000000 0.048153 0.000000
# 6 0.000000 0.000000 0.000000 0.000000 0.000000 0.032654
#
#
# Mechanical properties :
#
#
# Convention : Reuss Voigt Hill
#
# Bulk Modulus (GPa) = 49.78648 55.98561 52.88604
# Shear Modulus (GPa) = 26.44924 28.75645 27.60285
#
# Velocity S-wave (km/s) = 3.75840 3.91890 3.83949
# Velocity P-wave (km/s) = 6.73968 7.09767 6.92099
#
# Compressibility (1/GPa) = 0.02008577
#
# Stress axis : x y z
#
# Youngs Moduli (GPa) = 70.50198 70.50273 119.50279
#
# Poissons Ratio (x) = 0.15109 0.36938
# Poissons Ratio (y) = 0.15109 0.36938
# Poissons Ratio (z) = 0.21792 0.21792
#
# Static dielectric constant tensor:
#      x y z
#    x 3.384730 0.000000 0.000000 
#    y 0.000000 3.384720 0.000000 
#    z 0.000000 0.000000 3.339830 
# 
# 
# High freq. dielectric constant tensor:
#      x y z
#    x 1.716090 0.000000 0.000000 
#    y 0.000000 1.716090 0.000000 
#    z 0.000000 0.000000 1.727940 
# 
# From -- ./inp_files/4497.got.cif
#   From: 2010.06.25/outbox.cif.g09.slc.cpg/sg176_3_cif.got.tgz:4497.got - 2010.06.28 12:15:01.
