data_PCOD8325793
_publ_section_title
;
Structure prediction by ZEFSAII (Michael W. Deem and Ramdas Pophale) SiO2 
 PCOD8325793
Probable space group: P 61 2 2
;
_chemical_formula_sum "Si O2"
_cell_formula_units_Z 66
_cell_length_a 29.970569
_cell_length_b 29.970569
_cell_length_c 5.134981
_cell_angle_alpha 90.000000
_cell_angle_beta 90.000000
_cell_angle_gamma 120.000000
_cell_volume 3994.472625
_symmetry_space_group_name_H-M "P 61 2 2"
_symmetry_group_IT_number 178
_symmetry_cell_setting 'hexagonal'
loop_
_space_group_symop_operation_xyz
x,y,z
x-y,x,1/6+z
-y,x-y,1/3+z
-x,-y,1/2+z
-x+y,-x,2/3+z
y,-x+y,5/6+z
x-y,-y,-z
-x,-x+y,2/3-z
y,x,1/3-z
-y,-x,5/6-z
-x+y,y,1/2-z
x,x-y,1/6-z
loop_
_atom_site_type_symbol
_atom_site_label
_atom_site_fract_x
_atom_site_fract_y
_atom_site_fract_z
Si Si1 0.194954 0.627071 0.324929
Si Si2 0.583434 0.945251 0.566581
Si Si3 0.694774 0.305227 0.916667
Si Si4 0.943499 0.257691 0.376305
Si Si5 0.122178 0.772827 0.366199
Si Si6 0.333761 0.882955 0.448301
O O1 0.189795 0.594898 0.583334
O O2 0.252338 0.675004 0.258314
O O3 0.165010 0.657984 0.357306
O O4 0.175086 0.587543 0.083334
O O5 0.640055 0.954217 0.610447
O O6 0.553694 0.904861 0.339437
O O7 0.587888 0.000000 0.500000
O O8 0.553909 0.924804 0.839170
O O9 0.645193 0.290385 0.750000
O O10 0.908579 0.221976 0.616836
O O11 0.000000 0.262778 0.333334
O O12 0.913152 0.235470 0.112142
O O13 0.175764 0.824237 0.416667
O O14 0.133835 0.725855 0.331678
#
# Coordination Sequence:
#
# PCOD8325793 Si02
#       6
#    12  12   6  12  12  12
#     4  11  23  37  56  73  96 122 145 189 219 278
#     4   9  17  32  53  73  94 123 160 191 220 273
#     4  10  20  38  56  74  92 116 158 174 220 268
#     4   9  17  30  47  68  95 131 167 194 231 288
#     4  10  19  30  47  73 102 124 154 203 252 287
#     4  10  20  33  51  75  97 124 152 187 240 284
#
# _framework density 16.522832999999999
#
# number of rings (size 3 to 8) (size 9 to 14) (size 15 to 20)
#    0.000    2.182    0.909    2.727    1.273    4.364 
#    0.000    0.000    0.000   10.909    0.000    0.000 
#    0.000    0.000    0.000    0.000    0.000    0.000 
#
# Total GULP energy -817871.505299 kJ/mol
# GULP energy per Si atom -12391.992505 kJ/mol
# Density = 1.648523 g / cm^3
# Si number density = 16.522833 Si / 1000 Ang^3
#
#
#
# Elastic Constant Matrix: (Units=GPa)
#
#
# Indices 1 2 3 4 5 6 
#
# 1 77.7296 51.9816 26.1847 0.0000 0.0000 0.0000
# 2 51.9816 77.7296 26.1847 0.0000 0.0000 0.0000
# 3 26.1847 26.1847 100.0384 0.0000 0.0000 0.0000
# 4 0.0000 0.0000 0.0000 17.1920 0.0000 0.0000
# 5 0.0000 0.0000 0.0000 0.0000 17.1920 0.0000
# 6 0.0000 0.0000 0.0000 0.0000 0.0000 12.8740
#
#
#
# Elastic Compliance Matrix: (Units=1/GPa)
#
#
# Indices 1 2 3 4 5 6 
#
# 1 0.023729 -0.015109 -0.002256 0.000000 0.000000 0.000000
# 2 -0.015109 0.023729 -0.002256 0.000000 0.000000 0.000000
# 3 -0.002256 -0.002256 0.011177 0.000000 0.000000 0.000000
# 4 0.000000 0.000000 0.000000 0.058167 0.000000 0.000000
# 5 0.000000 0.000000 0.000000 0.000000 0.058167 0.000000
# 6 0.000000 0.000000 0.000000 0.000000 0.000000 0.077676
#
#
# Mechanical properties :
#
#
# Convention : Reuss Voigt Hill
#
# Bulk Modulus (GPa) = 51.56573 51.57775 51.57174
# Shear Modulus (GPa) = 16.75875 19.52806 18.14341
#
# Velocity S-wave (km/s) = 3.18823 3.44158 3.31733
# Velocity P-wave (km/s) = 6.69549 6.86123 6.77887
#
# Compressibility (1/GPa) = 0.01939272
#
# Stress axis : x y z
#
# Youngs Moduli (GPa) = 42.14225 42.14225 89.46667
#
# Poissons Ratio (x) = 0.63672 0.20187
# Poissons Ratio (y) = 0.63672 0.20187
# Poissons Ratio (z) = 0.09509 0.09509
#
# Static dielectric constant tensor:
#      x y z
#    x 3.115050 0.000000 0.000000 
#    y 0.000000 3.115050 0.000000 
#    z 0.000000 0.000000 3.327880 
# 
# 
# High freq. dielectric constant tensor:
#      x y z
#    x 1.610560 0.000000 0.000000 
#    y 0.000000 1.610560 0.000000 
#    z 0.000000 0.000000 1.656370 
# 
# From -- ./inp_files/1582.got.cif
#   From: 2010.03.12/outbox.cif.g09.slc.cpg/sg178_1_cif.got.tgz:1582.got - 2010.04.02 07:02:38.
