data_PCOD8325914
_publ_section_title
;
Structure prediction by ZEFSAII (Michael W. Deem and Ramdas Pophale) SiO2 
 PCOD8325914
Probable space group: P 61 2 2
;
_chemical_formula_sum "Si O2"
_cell_formula_units_Z 48
_cell_length_a 18.767975
_cell_length_b 18.767975
_cell_length_c 7.656709
_cell_angle_alpha 90.000000
_cell_angle_beta 90.000000
_cell_angle_gamma 120.000000
_cell_volume 2335.649151
_symmetry_space_group_name_H-M "P 61 2 2"
_symmetry_group_IT_number 178
_symmetry_cell_setting 'hexagonal'
loop_
_space_group_symop_operation_xyz
x,y,z
x-y,x,1/6+z
-y,x-y,1/3+z
-x,-y,1/2+z
-x+y,-x,2/3+z
y,-x+y,5/6+z
x-y,-y,-z
-x,-x+y,2/3-z
y,x,1/3-z
-y,-x,5/6-z
-x+y,y,1/2-z
x,x-y,1/6-z
loop_
_atom_site_type_symbol
_atom_site_label
_atom_site_fract_x
_atom_site_fract_y
_atom_site_fract_z
Si Si1 0.000000 0.398142 0.333334
Si Si2 0.674395 0.731324 0.945537
Si Si3 0.682144 0.810268 0.398471
Si Si4 0.704298 0.536812 0.129357
Si Si5 0.100654 0.550327 0.083334
O O1 0.938689 0.315060 0.229962
O O2 0.955088 0.421767 0.480079
O O3 0.753885 0.722022 0.978534
O O4 0.709360 0.828743 0.916811
O O5 0.608095 0.695342 0.102643
O O6 0.709792 0.854896 0.583334
O O7 0.582352 0.755260 0.379384
O O8 0.750725 0.501449 0.250000
O O9 0.617333 0.461884 0.064358
#
# Coordination Sequence:
#
# PCOD8325914 Si02
#       5
#     6  12  12  12   6
#     4  12  22  34  62  92 128 154 212 264 334 380
#     4  11  21  37  58  94 124 166 209 266 324 378
#     4  11  19  36  57  88 124 160 208 258 318 381
#     4  10  23  38  61  92 125 163 212 268 327 389
#     4  12  22  38  60  96 126 160 212 270 332 396
#
# _framework density 20.551033
#
# number of rings (size 3 to 8) (size 9 to 14) (size 15 to 20)
#    0.000    1.000    5.000    2.250    0.000    0.000 
#    0.000    0.000    0.000    0.000   97.500   29.750 
#    0.000    0.000    0.000    0.000    0.000    0.000 
#
# Total GULP energy -594700.499375 kJ/mol
# GULP energy per Si atom -12389.593737 kJ/mol
# Density = 2.050426 g / cm^3
# Si number density = 20.551033 Si / 1000 Ang^3
#
#
#
# Elastic Constant Matrix: (Units=GPa)
#
#
# Indices 1 2 3 4 5 6 
#
# 1 109.6654 59.5144 44.4352 0.0000 0.0000 0.0000
# 2 59.5144 109.6654 44.4352 0.0000 0.0000 0.0000
# 3 44.4352 44.4352 102.7734 0.0000 0.0000 0.0000
# 4 0.0000 0.0000 0.0000 35.2342 0.0000 0.0000
# 5 0.0000 0.0000 0.0000 0.0000 35.2342 0.0000
# 6 0.0000 0.0000 0.0000 0.0000 0.0000 25.0755
#
#
#
# Elastic Compliance Matrix: (Units=1/GPa)
#
#
# Indices 1 2 3 4 5 6 
#
# 1 0.013794 -0.006146 -0.003307 0.000000 0.000000 0.000000
# 2 -0.006146 0.013794 -0.003307 0.000000 0.000000 0.000000
# 3 -0.003307 -0.003307 0.012589 0.000000 0.000000 0.000000
# 4 0.000000 0.000000 0.000000 0.028382 0.000000 0.000000
# 5 0.000000 0.000000 0.000000 0.000000 0.028382 0.000000
# 6 0.000000 0.000000 0.000000 0.000000 0.000000 0.039880
#
#
# Mechanical properties :
#
#
# Convention : Reuss Voigt Hill
#
# Bulk Modulus (GPa) = 68.21918 68.76375 68.49146
# Shear Modulus (GPa) = 29.89994 30.69006 30.29500
#
# Velocity S-wave (km/s) = 3.81847 3.86859 3.84361
# Velocity P-wave (km/s) = 7.26003 7.31350 7.28681
#
# Compressibility (1/GPa) = 0.01465864
#
# Stress axis : x y z
#
# Youngs Moduli (GPa) = 72.49621 72.49621 79.43153
#
# Poissons Ratio (x) = 0.44556 0.26265
# Poissons Ratio (y) = 0.44556 0.26265
# Poissons Ratio (z) = 0.23972 0.23972
#
# Static dielectric constant tensor:
#      x y z
#    x 3.700070 0.000000 0.000000 
#    y 0.000000 3.700070 0.000000 
#    z 0.000000 0.000000 4.030490 
# 
# 
# High freq. dielectric constant tensor:
#      x y z
#    x 1.782970 0.000000 0.000000 
#    y 0.000000 1.782970 0.000000 
#    z 0.000000 0.000000 1.832480 
# 
# From -- ./inp_files/2649.got.cif
#   From: 2010.03.12/outbox.cif.g09.slc.cpg/sg178_2_cif.got.tgz:2649.got - 2010.04.02 07:02:38.
