data_PCOD8325806
_publ_section_title
;
Structure prediction by ZEFSAII (Michael W. Deem and Ramdas Pophale) SiO2 
 PCOD8325806
Probable space group: P 61 2 2
;
_chemical_formula_sum "Si O2"
_cell_formula_units_Z 42
_cell_length_a 23.484521
_cell_length_b 23.484521
_cell_length_c 5.022235
_cell_angle_alpha 90.000000
_cell_angle_beta 90.000000
_cell_angle_gamma 120.000000
_cell_volume 2398.783623
_symmetry_space_group_name_H-M "P 61 2 2"
_symmetry_group_IT_number 178
_symmetry_cell_setting 'hexagonal'
loop_
_space_group_symop_operation_xyz
x,y,z
x-y,x,1/6+z
-y,x-y,1/3+z
-x,-y,1/2+z
-x+y,-x,2/3+z
y,-x+y,5/6+z
x-y,-y,-z
-x,-x+y,2/3-z
y,x,1/3-z
-y,-x,5/6-z
-x+y,y,1/2-z
x,x-y,1/6-z
loop_
_atom_site_type_symbol
_atom_site_label
_atom_site_fract_x
_atom_site_fract_y
_atom_site_fract_z
Si Si1 0.599985 0.647122 0.418749
Si Si2 0.794257 0.666103 0.004051
Si Si3 0.201704 0.000000 0.500000
Si Si4 0.477803 0.522198 0.416667
Si Si5 0.871974 0.000000 0.500000
O O1 0.637855 0.637855 0.666667
O O2 0.610673 0.720216 0.402935
O O3 0.519532 0.601529 0.450809
O O4 0.629633 0.629633 0.166667
O O5 0.820965 0.641930 0.250000
O O6 0.791060 0.730206 0.078994
O O7 0.840812 0.681624 0.750000
O O8 0.177265 0.024351 0.750706
O O9 0.488315 0.488315 0.666667
O O10 0.882326 0.941163 0.583334
#
# Coordination Sequence:
#
# PCOD8325806 Si02
#       5
#    12  12   6   6   6
#     4  10  19  35  54  80 109 142 172 212 258 312
#     4  12  24  36  54  79 108 144 179 222 272 329
#     4  12  24  41  54  74  99 136 174 214 282 350
#     4   8  16  30  54  78 106 136 166 198 248 308
#     4  12  26  43  58  72  89 118 174 240 290 340
#
# _framework density 17.508873000000001
#
# number of rings (size 3 to 8) (size 9 to 14) (size 15 to 20)
#    0.000    1.143    1.429    6.857    2.000    1.143 
#    0.000    0.000    0.000    0.000    0.000    0.000 
#    4.286    0.000    0.000    0.000    0.000    0.000 
#
# Total GULP energy -520574.605483 kJ/mol
# GULP energy per Si atom -12394.633464 kJ/mol
# Density = 1.746902 g / cm^3
# Si number density = 17.508873 Si / 1000 Ang^3
#
#
#
# Elastic Constant Matrix: (Units=GPa)
#
#
# Indices 1 2 3 4 5 6 
#
# 1 202.5510 -17.1839 38.9069 0.0000 0.0000 0.0000
# 2 -17.1839 202.5510 38.9069 0.0000 0.0000 0.0000
# 3 38.9069 38.9069 128.8044 0.0000 0.0000 0.0000
# 4 0.0000 0.0000 0.0000 24.3339 0.0000 0.0000
# 5 0.0000 0.0000 0.0000 0.0000 24.3339 0.0000
# 6 0.0000 0.0000 0.0000 0.0000 0.0000 109.8675
#
#
#
# Elastic Compliance Matrix: (Units=1/GPa)
#
#
# Indices 1 2 3 4 5 6 
#
# 1 0.005365 0.000814 -0.001866 0.000000 0.000000 0.000000
# 2 0.000814 0.005365 -0.001866 0.000000 0.000000 0.000000
# 3 -0.001866 -0.001866 0.008891 0.000000 0.000000 0.000000
# 4 0.000000 0.000000 0.000000 0.041095 0.000000 0.000000
# 5 0.000000 0.000000 0.000000 0.000000 0.041095 0.000000
# 6 0.000000 0.000000 0.000000 0.000000 0.000000 0.009102
#
#
# Mechanical properties :
#
#
# Convention : Reuss Voigt Hill
#
# Bulk Modulus (GPa) = 72.55519 72.79627 72.67573
# Shear Modulus (GPa) = 41.20535 63.25884 52.23210
#
# Velocity S-wave (km/s) = 4.85645 6.01731 5.46777
# Velocity P-wave (km/s) = 8.54259 9.48390 9.02553
#
# Compressibility (1/GPa) = 0.01378261
#
# Stress axis : x y z
#
# Youngs Moduli (GPa) = 186.41030 186.41030 112.47196
#
# Poissons Ratio (x) = -0.15166 0.20989
# Poissons Ratio (y) = -0.15166 0.20989
# Poissons Ratio (z) = 0.34787 0.34787
#
# Static dielectric constant tensor:
#      x y z
#    x 3.412080 0.000000 0.000000 
#    y 0.000000 3.412080 0.000000 
#    z 0.000000 0.000000 3.426850 
# 
# 
# High freq. dielectric constant tensor:
#      x y z
#    x 1.657950 0.000000 0.000000 
#    y 0.000000 1.657950 0.000000 
#    z 0.000000 0.000000 1.710190 
# 
# From -- ./inp_files/832.got.cif
#   From: 2010.03.12/outbox.cif.g09.slc.cpg/sg178_1_cif.got.tgz:832.got - 2010.04.02 07:02:38.
