data_PCOD8325590
_publ_section_title
;
Structure prediction by ZEFSAII (Michael W. Deem and Ramdas Pophale) SiO2 
 PCOD8325590
Probable space group: P 63/M
;
_chemical_formula_sum "Si O2"
_cell_formula_units_Z 30
_cell_length_a 11.636837
_cell_length_b 11.636837
_cell_length_c 13.772995
_cell_angle_alpha 90.000000
_cell_angle_beta 90.000000
_cell_angle_gamma 120.000000
_cell_volume 1615.209736
_symmetry_space_group_name_H-M "P 63/M"
_symmetry_group_IT_number 176
_symmetry_cell_setting 'hexagonal'
loop_
_space_group_symop_operation_xyz
x,y,z
x-y,x,1/2+z
-y,x-y,z
-x,-y,1/2+z
-x+y,-x,z
y,-x+y,1/2+z
-x,-y,-z
-x+y,-x,1/2-z
y,-x+y,-z
x,y,1/2-z
x-y,x,-z
-y,x-y,1/2-z
loop_
_atom_site_type_symbol
_atom_site_label
_atom_site_fract_x
_atom_site_fract_y
_atom_site_fract_z
Si Si1 0.823739 0.775929 0.750000
Si Si2 0.000000 0.000000 0.114540
Si Si3 0.458245 0.333365 0.750000
Si Si4 0.666667 0.333334 0.885155
Si Si5 0.890660 0.509496 0.250000
Si Si6 0.333335 0.666668 0.885570
O O1 0.870984 0.867820 0.845878
O O2 0.893108 0.686790 0.750000
O O3 0.666619 0.683932 0.750000
O O4 0.000000 0.000000 0.000000
O O5 0.536475 0.333482 0.846606
O O6 0.440060 0.460303 0.750000
O O7 0.666668 0.333334 0.999879
O O8 0.798856 0.462276 0.345910
#
# Coordination Sequence:
#
# PCOD8325590 Si02
#       6
#     6   4   6   4   6   4
#     4  10  21  42  63  81 122 162 191 245 298 345
#     4  10  26  40  61  92 115 157 209 241 286 353
#     4  10  20  40  64  82 124 156 194 240 298 352
#     4  10  20  40  55  98 112 154 203 235 292 350
#     4  10  21  42  59  85 122 160 185 245 302 343
#     4  10  26  34  61  92 121 145 200 244 292 350
#
# _framework density 18.573439
#
# number of rings (size 3 to 8) (size 9 to 14) (size 15 to 20)
#    0.000    2.400    4.000    0.000   11.200    4.800 
#    0.000    0.000    0.000    0.000    0.000    0.000 
#    0.000    0.000    0.000    0.000    0.000    0.000 
#
# Total GULP energy -372007.911130 kJ/mol
# GULP energy per Si atom -12400.263704 kJ/mol
# Density = 1.853117 g / cm^3
# Si number density = 18.573439 Si / 1000 Ang^3
#
#
#
# Elastic Constant Matrix: (Units=GPa)
#
#
# Indices 1 2 3 4 5 6 
#
# 1 105.0737 35.9879 37.2393 0.0000 0.0000 -0.0001
# 2 35.9879 105.0717 37.2389 0.0000 0.0000 -0.0002
# 3 37.2393 37.2389 193.5293 0.0000 0.0000 -0.0001
# 4 0.0000 0.0000 0.0000 10.1344 -0.0001 0.0000
# 5 0.0000 0.0000 0.0000 -0.0001 10.1343 0.0000
# 6 -0.0001 -0.0002 -0.0001 0.0000 0.0000 34.5422
#
#
#
# Elastic Compliance Matrix: (Units=1/GPa)
#
#
# Indices 1 2 3 4 5 6 
#
# 1 0.011183 -0.003292 -0.001518 0.000000 0.000000 0.000000
# 2 -0.003292 0.011183 -0.001518 0.000000 0.000000 0.000000
# 3 -0.001518 -0.001518 0.005752 0.000000 0.000000 0.000000
# 4 0.000000 0.000000 0.000000 0.098674 0.000001 0.000000
# 5 0.000000 0.000000 0.000000 0.000001 0.098675 0.000000
# 6 0.000000 0.000000 0.000000 0.000000 0.000000 0.028950
#
#
# Mechanical properties :
#
#
# Convention : Reuss Voigt Hill
#
# Bulk Modulus (GPa) = 64.68424 69.40075 67.04250
# Shear Modulus (GPa) = 18.36703 30.50941 24.43822
#
# Velocity S-wave (km/s) = 3.14807 4.05734 3.63128
# Velocity P-wave (km/s) = 6.93654 7.70689 7.33184
#
# Compressibility (1/GPa) = 0.01545972
#
# Stress axis : x y z
#
# Youngs Moduli (GPa) = 89.42314 89.42144 173.86753
#
# Poissons Ratio (x) = 0.29438 0.26399
# Poissons Ratio (y) = 0.29439 0.26399
# Poissons Ratio (z) = 0.13578 0.13577
#
# Static dielectric constant tensor:
#      x y z
#    x 3.484510 0.000010 0.000000 
#    y 0.000010 3.484510 0.000000 
#    z 0.000000 0.000000 3.144840 
# 
# 
# High freq. dielectric constant tensor:
#      x y z
#    x 1.732620 0.000000 0.000000 
#    y 0.000000 1.732620 0.000000 
#    z 0.000000 0.000000 1.698270 
# 
# From -- ./inp_files/2308.got.cif
#   From: 2010.06.25/outbox.cif.g09.slc.cpg/sg176_2_cif.got.tgz:2308.got - 2010.06.28 12:15:01.
