data_PCOD8325352
_publ_section_title
;
Structure prediction by ZEFSAII (Michael W. Deem and Ramdas Pophale) SiO2 
 PCOD8325352
Probable space group: P 6/M
;
_chemical_formula_sum "Si O2"
_cell_formula_units_Z 42
_cell_length_a 11.233674
_cell_length_b 11.233674
_cell_length_c 17.957881
_cell_angle_alpha 90.000000
_cell_angle_beta 90.000000
_cell_angle_gamma 120.000000
_cell_volume 1962.588972
_symmetry_space_group_name_H-M "P 6/M"
_symmetry_group_IT_number 175
_symmetry_cell_setting 'hexagonal'
loop_
_space_group_symop_operation_xyz
x,y,z
x-y,x,z
-y,x-y,z
-x,-y,z
-x+y,-x,z
y,-x+y,z
-x,-y,-z
-x+y,-x,-z
y,-x+y,-z
x,y,-z
x-y,x,-z
-y,x-y,-z
loop_
_atom_site_type_symbol
_atom_site_label
_atom_site_fract_x
_atom_site_fract_y
_atom_site_fract_z
Si Si1 0.694225 0.196663 0.360167
Si Si2 0.098024 0.314204 0.778010
Si Si3 0.501811 0.706939 0.916506
Si Si4 0.685808 0.777023 0.500000
O O1 0.813182 0.358234 0.364843
O O2 0.701059 0.133538 0.281872
O O3 0.708099 0.112757 0.427471
O O4 0.193948 0.249284 0.766010
O O5 0.114049 0.377621 0.859832
O O6 0.446624 0.815802 0.905241
O O7 0.560891 0.721017 0.000000
O O8 0.810735 0.749354 0.500000
#
# Coordination Sequence:
#
# PCOD8325352 Si02
#       4
#    12  12  12   6
#     4  10  24  44  64  98 118 152 205 261 315 347
#     4  12  25  40  60  87 125 167 203 244 297 368
#     4   8  18  39  63  93 119 148 200 258 314 356
#     4  12  25  42  66  94 131 170 200 236 288 364
#
# _framework density 21.400303000000001
#
# number of rings (size 3 to 8) (size 9 to 14) (size 15 to 20)
#    1.143    0.571    0.000    4.714    0.000   10.286 
#    0.000    5.714    0.000    1.714    0.000    0.000 
#    0.000    0.000    0.000    0.000    0.000    0.000 
#
# Total GULP energy -520749.597501 kJ/mol
# GULP energy per Si atom -12398.799941 kJ/mol
# Density = 2.135160 g / cm^3
# Si number density = 21.400303 Si / 1000 Ang^3
#
#
#
# Elastic Constant Matrix: (Units=GPa)
#
#
# Indices 1 2 3 4 5 6 
#
# 1 95.8805 -52.4897 17.5939 0.0000 0.0000 0.0000
# 2 -52.4897 95.8805 17.5939 0.0000 0.0000 0.0000
# 3 17.5939 17.5939 127.9564 0.0000 0.0000 0.0000
# 4 0.0000 0.0000 0.0000 0.5042 0.0000 0.0000
# 5 0.0000 0.0000 0.0000 0.0000 0.5042 0.0000
# 6 0.0000 0.0000 0.0000 0.0000 0.0000 74.1851
#
#
#
# Elastic Compliance Matrix: (Units=1/GPa)
#
#
# Indices 1 2 3 4 5 6 
#
# 1 0.016339 0.009599 -0.003567 0.000000 0.000000 0.000000
# 2 0.009599 0.016339 -0.003567 0.000000 0.000000 0.000000
# 3 -0.003567 -0.003567 0.008796 0.000000 0.000000 0.000000
# 4 0.000000 0.000000 0.000000 1.983485 0.000000 0.000000
# 5 0.000000 0.000000 0.000000 0.000000 1.983485 0.000000
# 6 0.000000 0.000000 0.000000 0.000000 0.000000 0.013480
#
#
# Mechanical properties :
#
#
# Convention : Reuss Voigt Hill
#
# Bulk Modulus (GPa) = 21.54844 31.67928 26.61386
# Shear Modulus (GPa) = 1.23994 37.50665 19.37330
#
# Velocity S-wave (km/s) = 0.76201 4.19098 3.01205
# Velocity P-wave (km/s) = 3.29625 6.18501 4.95579
#
# Compressibility (1/GPa) = 0.04640707
#
# Stress axis : x y z
#
# Youngs Moduli (GPa) = 61.20228 61.20228 113.68865
#
# Poissons Ratio (x) = -0.58750 0.40547
# Poissons Ratio (y) = -0.58750 0.40547
# Poissons Ratio (z) = 0.21828 0.21828
#
# Static dielectric constant tensor:
#      x y z
#    x 3.696720 0.000000 0.000000 
#    y 0.000000 3.696720 0.000000 
#    z 0.000000 0.000000 3.886120 
# 
# 
# High freq. dielectric constant tensor:
#      x y z
#    x 1.831510 0.000000 0.000000 
#    y 0.000000 1.831510 0.000000 
#    z 0.000000 0.000000 1.851630 
# 
# From -- ./inp_files/2749.got.cif
#   From: 2010.03.12/outbox.cif.g09.slc.cpg/sg175_2_cif.got.tgz:2749.got - 2010.04.02 06:55:29.
