data_PCOD8325503
_publ_section_title
;
Structure prediction by ZEFSAII (Michael W. Deem and Ramdas Pophale) SiO2 
 PCOD8325503
Probable space group: P 63/M
;
_chemical_formula_sum "Si O2"
_cell_formula_units_Z 48
_cell_length_a 17.769725
_cell_length_b 17.769725
_cell_length_c 8.694062
_cell_angle_alpha 90.000000
_cell_angle_beta 90.000000
_cell_angle_gamma 120.000000
_cell_volume 2377.468537
_symmetry_space_group_name_H-M "P 63/M"
_symmetry_group_IT_number 176
_symmetry_cell_setting 'hexagonal'
loop_
_space_group_symop_operation_xyz
x,y,z
x-y,x,1/2+z
-y,x-y,z
-x,-y,1/2+z
-x+y,-x,z
y,-x+y,1/2+z
-x,-y,-z
-x+y,-x,1/2-z
y,-x+y,-z
x,y,1/2-z
x-y,x,-z
-y,x-y,1/2-z
loop_
_atom_site_type_symbol
_atom_site_label
_atom_site_fract_x
_atom_site_fract_y
_atom_site_fract_z
Si Si1 0.172169 0.681557 0.932174
Si Si2 0.664123 0.993218 0.429538
Si Si3 0.495020 0.651734 0.566769
Si Si4 0.168498 0.150839 0.428041
O O1 0.175963 0.680730 0.750000
O O2 0.158453 0.590683 0.998456
O O3 0.262079 0.759736 0.998392
O O4 0.094766 0.697120 0.981529
O O5 0.643229 0.976690 0.250000
O O6 0.647954 0.069219 0.492758
O O7 0.762731 0.020833 0.466026
O O8 0.494968 0.653921 0.750000
O O9 0.163683 0.124550 0.250000
O O10 0.088417 0.164892 0.464919
#
# Coordination Sequence:
#
# PCOD8325503 Si02
#       4
#    12  12  12  12
#     4  10  19  34  57  80 105 141 183 223 267 322
#     4  10  21  36  53  78 112 143 175 221 271 319
#     4   9  18  33  54  80 107 137 177 223 267 315
#     4  11  23  39  59  82 111 145 182 225 273 326
#
# _framework density 20.189541999999999
#
# number of rings (size 3 to 8) (size 9 to 14) (size 15 to 20)
#    0.000    2.000    0.000    3.750    0.000    6.000 
#    0.000    2.500    0.000    0.000    0.000    0.000 
#    0.000    0.000    0.000    0.000    0.000    0.000 
#
# Total GULP energy -595401.410213 kJ/mol
# GULP energy per Si atom -12404.196046 kJ/mol
# Density = 2.014359 g / cm^3
# Si number density = 20.189542 Si / 1000 Ang^3
#
#
#
# Elastic Constant Matrix: (Units=GPa)
#
#
# Indices 1 2 3 4 5 6 
#
# 1 84.8283 2.8324 14.2295 0.0000 0.0000 0.0000
# 2 2.8324 84.8283 14.2295 0.0000 0.0000 0.0000
# 3 14.2295 14.2295 14.5361 0.0000 0.0000 0.0000
# 4 0.0000 0.0000 0.0000 21.3052 0.0000 0.0000
# 5 0.0000 0.0000 0.0000 0.0000 21.3052 0.0000
# 6 0.0000 0.0000 0.0000 0.0000 0.0000 40.9979
#
#
#
# Elastic Compliance Matrix: (Units=1/GPa)
#
#
# Indices 1 2 3 4 5 6 
#
# 1 0.014459 0.002263 -0.016369 0.000000 0.000000 0.000000
# 2 0.002263 0.014459 -0.016369 0.000000 0.000000 0.000000
# 3 -0.016369 -0.016369 0.100842 0.000000 0.000000 0.000000
# 4 0.000000 0.000000 0.000000 0.046937 0.000000 0.000000
# 5 0.000000 0.000000 0.000000 0.000000 0.046937 0.000000
# 6 0.000000 0.000000 0.000000 0.000000 0.000000 0.024391
#
#
# Mechanical properties :
#
#
# Convention : Reuss Voigt Hill
#
# Bulk Modulus (GPa) = 14.53300 27.41952 20.97626
# Shear Modulus (GPa) = 15.06427 26.91509 20.98968
#
# Velocity S-wave (km/s) = 2.73452 3.65515 3.22783
# Velocity P-wave (km/s) = 4.14537 5.60572 4.92992
#
# Compressibility (1/GPa) = 0.06880891
#
# Stress axis : x y z
#
# Youngs Moduli (GPa) = 69.16203 69.16202 9.91653
#
# Poissons Ratio (x) = -0.15652 0.16233
# Poissons Ratio (y) = -0.15652 0.16233
# Poissons Ratio (z) = 1.13212 1.13212
#
# Static dielectric constant tensor:
#      x y z
#    x 3.851630 0.000000 0.000000 
#    y 0.000000 3.851630 0.000000 
#    z 0.000000 0.000000 3.269540 
# 
# 
# High freq. dielectric constant tensor:
#      x y z
#    x 1.805730 0.000000 0.000000 
#    y 0.000000 1.805730 0.000000 
#    z 0.000000 0.000000 1.751270 
# 
# From -- ./inp_files/560.got.cif
#   From: 2010.06.25/outbox.cif.g09.slc.cpg/sg176_1_cif.got.tgz:560.got - 2010.06.28 12:15:01.
