data_PCOD8325631
_publ_section_title
;
Structure prediction by ZEFSAII (Michael W. Deem and Ramdas Pophale) SiO2 
 PCOD8325631
Probable space group: P 63/M
;
_chemical_formula_sum "Si O2"
_cell_formula_units_Z 64
_cell_length_a 13.870450
_cell_length_b 13.870450
_cell_length_c 17.925476
_cell_angle_alpha 90.000000
_cell_angle_beta 90.000000
_cell_angle_gamma 120.000000
_cell_volume 2986.636930
_symmetry_space_group_name_H-M "P 63/M"
_symmetry_group_IT_number 176
_symmetry_cell_setting 'hexagonal'
loop_
_space_group_symop_operation_xyz
x,y,z
x-y,x,1/2+z
-y,x-y,z
-x,-y,1/2+z
-x+y,-x,z
y,-x+y,1/2+z
-x,-y,-z
-x+y,-x,1/2-z
y,-x+y,-z
x,y,1/2-z
x-y,x,-z
-y,x-y,1/2-z
loop_
_atom_site_type_symbol
_atom_site_label
_atom_site_fract_x
_atom_site_fract_y
_atom_site_fract_z
Si Si1 0.085327 0.361265 0.420523
Si Si2 0.000000 0.000000 0.413908
Si Si3 0.594665 0.828846 0.547354
Si Si4 0.217597 0.075458 0.832606
Si Si5 0.485720 0.912944 0.438796
Si Si6 0.605884 0.682782 0.835899
O O1 0.120768 0.331669 0.500185
O O2 0.142500 0.330740 0.353806
O O3 0.134726 0.494544 0.409574
O O4 0.951192 0.288545 0.417564
O O5 0.055106 0.125729 0.387366
O O6 0.000000 0.000000 0.500000
O O7 0.505906 0.822729 0.484248
O O8 0.545411 0.738799 0.616186
O O9 0.182944 0.088660 0.750000
O O10 0.229333 0.966464 0.837916
O O11 0.500000 0.000000 0.500000
O O12 0.569425 0.978048 0.370997
O O13 0.561621 0.660922 0.750000
#
# Coordination Sequence:
#
# PCOD8325631 Si02
#       6
#    12   4  12  12  12  12
#     4  11  22  38  67  94 122 172 225 267 332 396
#     4  12  28  35  64 102 139 188 220 261 319 428
#     4  11  20  38  64  93 127 161 218 267 326 405
#     4  11  24  41  61  95 139 174 217 276 333 396
#     4  10  21  40  64  93 122 168 224 265 325 400
#     4  11  23  41  66  96 134 175 214 280 344 395
#
# _framework density 21.428784
#
# number of rings (size 3 to 8) (size 9 to 14) (size 15 to 20)
#    0.000    1.125    5.625    1.688    5.250    3.000 
#    1.125    2.812    0.000    0.000    0.000    0.000 
#    0.000    0.000    0.000    0.000    0.000    0.000 
#
# Total GULP energy -792892.169832 kJ/mol
# GULP energy per Si atom -12388.940154 kJ/mol
# Density = 2.138001 g / cm^3
# Si number density = 21.428784 Si / 1000 Ang^3
#
#
#
# Elastic Constant Matrix: (Units=GPa)
#
#
# Indices 1 2 3 4 5 6 
#
# 1 84.2529 27.4986 46.3980 0.0000 0.0000 0.0000
# 2 27.4986 84.2529 46.3980 0.0000 0.0000 0.0000
# 3 46.3980 46.3980 168.1936 0.0000 0.0000 0.0000
# 4 0.0000 0.0000 0.0000 24.0766 0.0000 0.0000
# 5 0.0000 0.0000 0.0000 0.0000 24.0766 0.0000
# 6 0.0000 0.0000 0.0000 0.0000 0.0000 28.3771
#
#
#
# Elastic Compliance Matrix: (Units=1/GPa)
#
#
# Indices 1 2 3 4 5 6 
#
# 1 0.014614 -0.003006 -0.003202 0.000000 0.000000 0.000000
# 2 -0.003006 0.014614 -0.003202 0.000000 0.000000 0.000000
# 3 -0.003202 -0.003202 0.007712 0.000000 0.000000 0.000000
# 4 0.000000 0.000000 0.000000 0.041534 0.000000 0.000000
# 5 0.000000 0.000000 0.000000 0.000000 0.041534 0.000000
# 6 0.000000 0.000000 0.000000 0.000000 0.000000 0.035240
#
#
# Mechanical properties :
#
#
# Convention : Reuss Voigt Hill
#
# Bulk Modulus (GPa) = 55.19146 64.14316 59.66731
# Shear Modulus (GPa) = 27.76125 29.73305 28.74715
#
# Velocity S-wave (km/s) = 3.60323 3.72900 3.66665
# Velocity P-wave (km/s) = 6.56678 6.96697 6.76984
#
# Compressibility (1/GPa) = 0.01811875
#
# Stress axis : x y z
#
# Youngs Moduli (GPa) = 68.42962 68.42962 129.66573
#
# Poissons Ratio (x) = 0.20572 0.41519
# Poissons Ratio (y) = 0.20572 0.41519
# Poissons Ratio (z) = 0.21911 0.21911
#
# Static dielectric constant tensor:
#      x y z
#    x 0.373830 0.000000 0.000000 
#    y 0.000000 0.373830 0.000000 
#    z 0.000000 0.000000 3.951580 
# 
# 
# High freq. dielectric constant tensor:
#      x y z
#    x 1.830010 0.000000 0.000000 
#    y 0.000000 1.830010 0.000000 
#    z 0.000000 0.000000 1.837970 
# 
# From -- ./inp_files/3335.got.cif
#   From: 2010.06.25/outbox.cif.g09.slc.cpg/sg176_2_cif.got.tgz:3335.got - 2010.06.28 12:15:01.
