data_PCOD8325713
_publ_section_title
;
Structure prediction by ZEFSAII (Michael W. Deem and Ramdas Pophale) SiO2 
 PCOD8325713
Probable space group: P 63/M
;
_chemical_formula_sum "Si O2"
_cell_formula_units_Z 30
_cell_length_a 13.996675
_cell_length_b 13.996675
_cell_length_c 9.118481
_cell_angle_alpha 90.000000
_cell_angle_beta 90.000000
_cell_angle_gamma 120.000000
_cell_volume 1547.044785
_symmetry_space_group_name_H-M "P 63/M"
_symmetry_group_IT_number 176
_symmetry_cell_setting 'hexagonal'
loop_
_space_group_symop_operation_xyz
x,y,z
x-y,x,1/2+z
-y,x-y,z
-x,-y,1/2+z
-x+y,-x,z
y,-x+y,1/2+z
-x,-y,-z
-x+y,-x,1/2-z
y,-x+y,-z
x,y,1/2-z
x-y,x,-z
-y,x-y,1/2-z
loop_
_atom_site_type_symbol
_atom_site_label
_atom_site_fract_x
_atom_site_fract_y
_atom_site_fract_z
Si Si1 0.919701 0.858887 0.250000
Si Si2 0.646609 0.833000 0.911973
Si Si3 0.396303 0.401666 0.076891
O O1 0.877325 0.780758 0.394477
O O2 0.874416 0.945469 0.250000
O O3 0.593851 0.825036 0.750000
O O4 0.609628 0.711512 0.971812
O O5 0.600480 0.886176 0.025721
O O6 0.405826 0.418050 0.250000
O O7 0.500000 0.500000 0.000000
#
# Coordination Sequence:
#
# PCOD8325713 Si02
#       3
#     6  12  12
#     4   8  18  36  64 102 140 172 194 240 322 412
#     4   9  22  38  64  94 129 167 212 257 320 390
#     4  11  24  42  65  91 126 170 219 274 320 381
#
# _framework density 19.391812000000002
#
# number of rings (size 3 to 8) (size 9 to 14) (size 15 to 20)
#    1.600    0.800    0.000    1.200    5.600    3.200 
#    2.400    2.000    0.000    0.000    0.000    0.000 
#    0.000    0.000    0.000    0.000    0.000    0.000 
#
# Total GULP energy -371769.138501 kJ/mol
# GULP energy per Si atom -12392.304617 kJ/mol
# Density = 1.934767 g / cm^3
# Si number density = 19.391812 Si / 1000 Ang^3
#
#
#
# Elastic Constant Matrix: (Units=GPa)
#
#
# Indices 1 2 3 4 5 6 
#
# 1 136.4549 80.6061 57.9637 0.0000 0.0000 0.0000
# 2 80.6061 136.4549 57.9637 0.0000 0.0000 0.0000
# 3 57.9637 57.9637 79.8019 0.0000 0.0000 0.0000
# 4 0.0000 0.0000 0.0000 37.4625 0.0000 0.0000
# 5 0.0000 0.0000 0.0000 0.0000 37.4625 0.0000
# 6 0.0000 0.0000 0.0000 0.0000 0.0000 27.9244
#
#
#
# Elastic Compliance Matrix: (Units=1/GPa)
#
#
# Indices 1 2 3 4 5 6 
#
# 1 0.012716 -0.005189 -0.005467 0.000000 0.000000 0.000000
# 2 -0.005189 0.012716 -0.005467 0.000000 0.000000 0.000000
# 3 -0.005467 -0.005467 0.020473 0.000000 0.000000 0.000000
# 4 0.000000 0.000000 0.000000 0.026693 0.000000 0.000000
# 5 0.000000 0.000000 0.000000 0.000000 0.026693 0.000000
# 6 0.000000 0.000000 0.000000 0.000000 0.000000 0.035811
#
#
# Mechanical properties :
#
#
# Convention : Reuss Voigt Hill
#
# Bulk Modulus (GPa) = 73.21524 82.86430 78.03977
# Shear Modulus (GPa) = 29.08618 30.98174 30.03396
#
# Velocity S-wave (km/s) = 3.87708 4.00142 3.93974
# Velocity P-wave (km/s) = 7.60790 8.01080 7.81194
#
# Compressibility (1/GPa) = 0.01365836
#
# Stress axis : x y z
#
# Youngs Moduli (GPa) = 78.64002 78.64002 48.84474
#
# Poissons Ratio (x) = 0.40809 0.26704
# Poissons Ratio (y) = 0.40809 0.26704
# Poissons Ratio (z) = 0.42993 0.42993
#
# Static dielectric constant tensor:
#      x y z
#    x 3.412400 0.000000 0.000000 
#    y 0.000000 3.412400 0.000000 
#    z 0.000000 0.000000 3.254450 
# 
# 
# High freq. dielectric constant tensor:
#      x y z
#    x 1.745170 0.000000 0.000000 
#    y 0.000000 1.745170 0.000000 
#    z 0.000000 0.000000 1.749440 
# 
# From -- ./inp_files/325.got.cif
#   From: 2010.06.25/outbox.cif.g09.slc.cpg/sg176_1_cif.got.tgz:325.got - 2010.06.28 12:15:01.
