data_PCOD8325174
_publ_section_title
;
Structure prediction by ZEFSAII (Michael W. Deem and Ramdas Pophale) SiO2 
 PCOD8325174
Probable space group: P 6/M
;
_chemical_formula_sum "Si O2"
_cell_formula_units_Z 72
_cell_length_a 22.807368
_cell_length_b 22.807368
_cell_length_c 9.870318
_cell_angle_alpha 90.000000
_cell_angle_beta 90.000000
_cell_angle_gamma 120.000000
_cell_volume 4446.436727
_symmetry_space_group_name_H-M "P 6/M"
_symmetry_group_IT_number 175
_symmetry_cell_setting 'hexagonal'
loop_
_space_group_symop_operation_xyz
x,y,z
x-y,x,z
-y,x-y,z
-x,-y,z
-x+y,-x,z
y,-x+y,z
-x,-y,-z
-x+y,-x,-z
y,-x+y,-z
x,y,-z
x-y,x,-z
-y,x-y,-z
loop_
_atom_site_type_symbol
_atom_site_label
_atom_site_fract_x
_atom_site_fract_y
_atom_site_fract_z
Si Si1 0.714021 0.857638 0.657802
Si Si2 0.484127 0.397770 0.847903
Si Si3 0.925895 0.392490 0.152225
Si Si4 0.088925 0.931420 0.843570
Si Si5 0.361277 0.063695 0.345973
Si Si6 0.706339 0.094654 0.346267
O O1 0.734550 0.861090 0.500000
O O2 0.777381 0.871911 0.749038
O O3 0.690880 0.911521 0.694562
O O4 0.650637 0.784720 0.693764
O O5 0.437767 0.431582 0.839797
O O6 0.560686 0.454400 0.806013
O O7 0.454830 0.333791 0.747253
O O8 0.483670 0.371945 0.000000
O O9 0.900425 0.329082 0.253466
O O10 0.903471 0.364584 0.000000
O O11 0.009716 0.892176 0.809809
O O12 0.101979 0.921107 0.000000
O O13 0.386034 0.083845 0.500000
O O14 0.320570 0.984034 0.323273
O O15 0.695222 0.109656 0.500000
#
# Coordination Sequence:
#
# PCOD8325174 Si02
#       6
#    12  12  12  12  12  12
#     4  10  20  33  47  65  92 122 152 188 232 284
#     4   8  14  25  41  61  85 111 137 166 201 243
#     4   8  14  25  41  61  85 111 137 166 201 243
#     4  10  21  36  52  68  86 112 152 204 258 306
#     4   9  17  28  42  61  86 116 147 179 217 262
#     4   9  17  28  42  61  86 116 147 179 217 262
#
# _framework density 16.192741999999999
#
# number of rings (size 3 to 8) (size 9 to 14) (size 15 to 20)
#    0.000    3.000    0.000    2.167    0.000    4.667 
#    0.000    6.667    0.000    1.000    0.000    0.000 
#    1.667    0.000    1.000    0.000    1.333    0.000 
#
# Total GULP energy -892579.460952 kJ/mol
# GULP energy per Si atom -12396.936958 kJ/mol
# Density = 1.615589 g / cm^3
# Si number density = 16.192742 Si / 1000 Ang^3
#
#
#
# Elastic Constant Matrix: (Units=GPa)
#
#
# Indices 1 2 3 4 5 6 
#
# 1 37.0285 8.5506 27.9263 0.0000 0.0000 0.0000
# 2 8.5506 37.0285 27.9263 0.0000 0.0000 0.0000
# 3 27.9263 27.9263 68.6332 0.0000 0.0000 0.0000
# 4 0.0000 0.0000 0.0000 26.0448 0.0000 0.0000
# 5 0.0000 0.0000 0.0000 0.0000 26.0448 0.0000
# 6 0.0000 0.0000 0.0000 0.0000 0.0000 14.2389
#
#
#
# Elastic Compliance Matrix: (Units=1/GPa)
#
#
# Indices 1 2 3 4 5 6 
#
# 1 0.039436 0.004321 -0.017805 0.000000 0.000000 0.000000
# 2 0.004321 0.039436 -0.017805 0.000000 0.000000 0.000000
# 3 -0.017805 -0.017805 0.029059 0.000000 0.000000 0.000000
# 4 0.000000 0.000000 0.000000 0.038395 0.000000 0.000000
# 5 0.000000 0.000000 0.000000 0.000000 0.038395 0.000000
# 6 0.000000 0.000000 0.000000 0.000000 0.000000 0.070230
#
#
# Mechanical properties :
#
#
# Convention : Reuss Voigt Hill
#
# Bulk Modulus (GPa) = 22.04770 30.16627 26.10698
# Shear Modulus (GPa) = 15.03093 18.48483 16.75788
#
# Velocity S-wave (km/s) = 3.05003 3.38235 3.22048
# Velocity P-wave (km/s) = 5.10381 5.82440 5.47597
#
# Compressibility (1/GPa) = 0.04535621
#
# Stress axis : x y z
#
# Youngs Moduli (GPa) = 25.35730 25.35730 34.41234
#
# Poissons Ratio (x) = -0.10958 0.61270
# Poissons Ratio (y) = -0.10958 0.61270
# Poissons Ratio (z) = 0.45148 0.45148
#
# Static dielectric constant tensor:
#      x y z
#    x 3.008980 0.000000 0.000000 
#    y 0.000000 3.008980 0.000000 
#    z 0.000000 0.000000 3.230980 
# 
# 
# High freq. dielectric constant tensor:
#      x y z
#    x 1.601190 0.000000 0.000000 
#    y 0.000000 1.601190 0.000000 
#    z 0.000000 0.000000 1.627100 
# 
# From -- ./inp_files/1219.got.cif
#   From: 2010.03.12/outbox.cif.g09.slc.cpg/sg175_1_cif.got.tgz:1219.got - 2010.04.02 06:55:29.
