data_PCOD8325732
_publ_section_title
;
Structure prediction by ZEFSAII (Michael W. Deem and Ramdas Pophale) SiO2 
 PCOD8325732
Probable space group: P 6 2 2
;
_chemical_formula_sum "Si O2"
_cell_formula_units_Z 96
_cell_length_a 17.982797
_cell_length_b 17.982797
_cell_length_c 24.380239
_cell_angle_alpha 90.000000
_cell_angle_beta 90.000000
_cell_angle_gamma 120.000000
_cell_volume 6827.835887
_symmetry_space_group_name_H-M "P 6 2 2"
_symmetry_group_IT_number 177
_symmetry_cell_setting 'hexagonal'
loop_
_space_group_symop_operation_xyz
x,y,z
x-y,x,z
-y,x-y,z
-x,-y,z
-x+y,-x,z
y,-x+y,z
x-y,-y,-z
-x,-x+y,-z
y,x,-z
-y,-x,-z
-x+y,y,-z
x,x-y,-z
loop_
_atom_site_type_symbol
_atom_site_label
_atom_site_fract_x
_atom_site_fract_y
_atom_site_fract_z
Si Si1 0.334881 0.834396 1.000000
Si Si2 0.506841 0.669351 0.616579
Si Si3 0.330649 0.493159 0.616579
Si Si4 0.000000 0.411695 0.314536
Si Si5 0.335204 0.492584 0.880542
Si Si6 0.364374 0.459741 0.500000
Si Si7 0.507416 0.842620 0.119458
Si Si8 0.411411 0.000000 0.809173
O O1 0.349106 0.884489 0.057752
O O2 0.238359 0.761641 0.000000
O O3 0.396704 0.793407 0.000000
O O4 0.349106 0.884489 0.942248
O O5 0.412791 0.587209 0.621253
O O6 0.502604 0.751302 0.638113
O O7 0.574764 0.659198 0.654121
O O8 0.540368 0.686390 0.554040
O O9 0.340802 0.425236 0.654120
O O10 0.313610 0.459633 0.554040
O O11 0.000000 0.500000 0.314822
O O12 0.000000 0.380535 0.252731
O O13 0.244319 0.488638 0.873964
O O14 0.410471 0.589529 0.867378
O O15 0.338963 0.424829 0.839133
O O16 0.376687 0.376687 0.500000
O O17 0.457164 0.542837 0.500000
O O18 0.575171 0.914135 0.160867
O O19 0.500000 0.000000 0.811290
#
# Coordination Sequence:
#
# PCOD8325732 Si02
#       8
#    12  12  12  12  12  12  12  12
#     4   8  13  21  35  55  76  97 123 159 202 241
#     4  10  18  28  43  61  80 103 134 168 198 232
#     4  10  18  28  43  61  80 103 134 168 198 232
#     4   9  18  31  41  51  75 106 132 163 205 240
#     4   9  16  26  40  57  77 101 130 164 201 239
#     4   9  15  26  42  59  80 106 129 154 197 243
#     4   9  16  26  40  57  77 101 130 164 201 239
#     4   9  18  29  39  53  73 100 134 168 198 232
#
# _framework density 14.060091
#
# number of rings (size 3 to 8) (size 9 to 14) (size 15 to 20)
#    0.000    2.875    1.250    1.000    0.000    3.500 
#    0.000    3.750    0.000    3.000    0.000    0.000 
#    0.000    0.000    0.000    0.750    0.000    4.875 
#
# Total GULP energy -1189427.185743 kJ/mol
# GULP energy per Si atom -12389.866518 kJ/mol
# Density = 1.402809 g / cm^3
# Si number density = 14.060091 Si / 1000 Ang^3
#
#
#
# Elastic Constant Matrix: (Units=GPa)
#
#
# Indices 1 2 3 4 5 6 
#
# 1 62.4541 31.7140 40.1253 0.0000 0.0000 0.0000
# 2 31.7140 62.4541 40.1253 0.0000 0.0000 0.0000
# 3 40.1253 40.1253 124.7844 0.0000 0.0000 0.0000
# 4 0.0000 0.0000 0.0000 12.2316 0.0000 0.0000
# 5 0.0000 0.0000 0.0000 0.0000 12.2316 0.0000
# 6 0.0000 0.0000 0.0000 0.0000 0.0000 15.3700
#
#
#
# Elastic Compliance Matrix: (Units=1/GPa)
#
#
# Indices 1 2 3 4 5 6 
#
# 1 0.023579 -0.008952 -0.004704 0.000000 0.000000 0.000000
# 2 -0.008952 0.023579 -0.004704 0.000000 0.000000 0.000000
# 3 -0.004704 -0.004704 0.011039 0.000000 0.000000 0.000000
# 4 0.000000 0.000000 0.000000 0.081755 0.000000 0.000000
# 5 0.000000 0.000000 0.000000 0.000000 0.081755 0.000000
# 6 0.000000 0.000000 0.000000 0.000000 0.000000 0.065062
#
#
# Mechanical properties :
#
#
# Convention : Reuss Voigt Hill
#
# Bulk Modulus (GPa) = 46.55547 52.62461 49.59004
# Shear Modulus (GPa) = 15.12184 17.14851 16.13517
#
# Velocity S-wave (km/s) = 3.28306 3.49615 3.39128
# Velocity P-wave (km/s) = 6.89601 7.33533 7.11906
#
# Compressibility (1/GPa) = 0.02147975
#
# Stress axis : x y z
#
# Youngs Moduli (GPa) = 42.41005 42.41005 90.58939
#
# Poissons Ratio (x) = 0.37963 0.42610
# Poissons Ratio (y) = 0.37963 0.42610
# Poissons Ratio (z) = 0.19948 0.19948
#
# Static dielectric constant tensor:
#      x y z
#    x 2.481420 0.000000 0.000000 
#    y 0.000000 2.481420 0.000000 
#    z 0.000000 0.000000 3.129150 
# 
# 
# High freq. dielectric constant tensor:
#      x y z
#    x 1.498870 0.000000 0.000000 
#    y 0.000000 1.498870 0.000000 
#    z 0.000000 0.000000 1.554140 
# 
# From -- ./inp_files/3210.got.cif
#   From: 2010.03.12/outbox.cif.g09.slc.cpg/sg177_2_cif.got.tgz:3210.got - 2010.04.02 07:00:27.
