data_PCOD8325255
_publ_section_title
;
Structure prediction by ZEFSAII (Michael W. Deem and Ramdas Pophale) SiO2 
 PCOD8325255
Probable space group: P 6/M
;
_chemical_formula_sum "Si O2"
_cell_formula_units_Z 60
_cell_length_a 17.655365
_cell_length_b 17.655365
_cell_length_c 13.976092
_cell_angle_alpha 90.000000
_cell_angle_beta 90.000000
_cell_angle_gamma 120.000000
_cell_volume 3772.852123
_symmetry_space_group_name_H-M "P 6/M"
_symmetry_group_IT_number 175
_symmetry_cell_setting 'hexagonal'
loop_
_space_group_symop_operation_xyz
x,y,z
x-y,x,z
-y,x-y,z
-x,-y,z
-x+y,-x,z
y,-x+y,z
-x,-y,-z
-x+y,-x,-z
y,-x+y,-z
x,y,-z
x-y,x,-z
-y,x-y,-z
loop_
_atom_site_type_symbol
_atom_site_label
_atom_site_fract_x
_atom_site_fract_y
_atom_site_fract_z
Si Si1 0.006446 0.660844 0.610812
Si Si2 0.835698 0.822935 0.386091
Si Si3 0.815818 0.501561 0.389629
Si Si4 0.350910 0.510574 0.698291
Si Si5 0.771651 0.351430 0.894730
O O1 0.033896 0.667378 0.500000
O O2 0.064613 0.632161 0.671518
O O3 0.020567 0.753117 0.648883
O O4 0.906987 0.588662 0.627134
O O5 0.923824 0.828700 0.345725
O O6 0.836235 0.826539 0.500000
O O7 0.788080 0.490283 0.500000
O O8 0.746410 0.513648 0.328811
O O9 0.819369 0.416999 0.357350
O O10 0.363962 0.523669 0.812645
O O11 0.743201 0.425754 0.884569
O O12 0.813892 0.358675 0.000000
#
# Coordination Sequence:
#
# PCOD8325255 Si02
#       5
#    12  12  12  12  12
#     4  10  21  32  42  63 101 134 153 187 244 287
#     4   9  16  28  45  64  86 120 164 201 228 264
#     4  11  21  31  45  68  95 127 164 197 225 269
#     4  12  19  32  49  68  89 123 163 196 230 279
#     4   8  15  31  51  71  89 109 151 204 247 279
#
# _framework density 15.903088
#
# number of rings (size 3 to 8) (size 9 to 14) (size 15 to 20)
#    0.400    1.600    2.000    4.200    0.000    5.600 
#    0.000    0.000    0.000    3.600    0.000    0.000 
#    0.000    0.000    0.000    0.400    0.000    7.400 
#
# Total GULP energy -743887.311077 kJ/mol
# GULP energy per Si atom -12398.121851 kJ/mol
# Density = 1.586689 g / cm^3
# Si number density = 15.903088 Si / 1000 Ang^3
#
#
#
# Elastic Constant Matrix: (Units=GPa)
#
#
# Indices 1 2 3 4 5 6 
#
# 1 43.7991 5.1432 16.6877 0.0000 0.0000 0.0000
# 2 5.1432 43.7991 16.6877 0.0000 0.0000 0.0000
# 3 16.6877 16.6877 34.9624 0.0000 0.0000 0.0000
# 4 0.0000 0.0000 0.0000 11.6260 0.0000 0.0000
# 5 0.0000 0.0000 0.0000 0.0000 11.6260 0.0000
# 6 0.0000 0.0000 0.0000 0.0000 0.0000 19.3280
#
#
#
# Elastic Compliance Matrix: (Units=1/GPa)
#
#
# Indices 1 2 3 4 5 6 
#
# 1 0.028081 0.002211 -0.014458 0.000000 0.000000 0.000000
# 2 0.002211 0.028081 -0.014458 0.000000 0.000000 0.000000
# 3 -0.014458 -0.014458 0.042404 0.000000 0.000000 0.000000
# 4 0.000000 0.000000 0.000000 0.086014 0.000000 0.000000
# 5 0.000000 0.000000 0.000000 0.000000 0.086014 0.000000
# 6 0.000000 0.000000 0.000000 0.000000 0.000000 0.051739
#
#
# Mechanical properties :
#
#
# Convention : Reuss Voigt Hill
#
# Bulk Modulus (GPa) = 22.14626 22.17752 22.16189
# Shear Modulus (GPa) = 12.79444 14.11880 13.45662
#
# Velocity S-wave (km/s) = 2.83949 2.98283 2.91205
# Velocity P-wave (km/s) = 4.97054 5.08318 5.02718
#
# Compressibility (1/GPa) = 0.04515436
#
# Stress axis : x y z
#
# Youngs Moduli (GPa) = 35.61177 35.61177 23.58251
#
# Poissons Ratio (x) = -0.07875 0.34097
# Poissons Ratio (y) = -0.07875 0.34097
# Poissons Ratio (z) = 0.51489 0.51489
#
# Static dielectric constant tensor:
#      x y z
#    x 3.029490 0.000000 0.000000 
#    y 0.000000 3.029490 0.000000 
#    z 0.000000 0.000000 2.779690 
# 
# 
# High freq. dielectric constant tensor:
#      x y z
#    x 1.609830 0.000000 0.000000 
#    y 0.000000 1.609830 0.000000 
#    z 0.000000 0.000000 1.570130 
# 
# From -- ./inp_files/2443.got.cif
#   From: 2010.03.12/outbox.cif.g09.slc.cpg/sg175_2_cif.got.tgz:2443.got - 2010.04.02 06:55:29.
