data_PCOD8325614
_publ_section_title
;
Structure prediction by ZEFSAII (Michael W. Deem and Ramdas Pophale) SiO2 
 PCOD8325614
Probable space group: P 63/M
;
_chemical_formula_sum "Si O2"
_cell_formula_units_Z 78
_cell_length_a 23.624895
_cell_length_b 23.624895
_cell_length_c 8.477859
_cell_angle_alpha 90.000000
_cell_angle_beta 90.000000
_cell_angle_gamma 120.000000
_cell_volume 4097.855074
_symmetry_space_group_name_H-M "P 63/M"
_symmetry_group_IT_number 176
_symmetry_cell_setting 'hexagonal'
loop_
_space_group_symop_operation_xyz
x,y,z
x-y,x,1/2+z
-y,x-y,z
-x,-y,1/2+z
-x+y,-x,z
y,-x+y,1/2+z
-x,-y,-z
-x+y,-x,1/2-z
y,-x+y,-z
x,y,1/2-z
x-y,x,-z
-y,x-y,1/2-z
loop_
_atom_site_type_symbol
_atom_site_label
_atom_site_fract_x
_atom_site_fract_y
_atom_site_fract_z
Si Si1 0.101041 0.400720 0.932530
Si Si2 0.352334 0.606941 0.750000
Si Si3 0.217308 0.956581 0.065543
Si Si4 0.187521 0.773396 0.430254
Si Si5 0.817909 0.359611 0.927770
Si Si6 0.501298 0.561683 0.074127
Si Si7 0.269239 0.095444 0.934614
O O1 0.090335 0.388877 0.750000
O O2 0.053847 0.330093 0.008209
O O3 0.177246 0.429357 0.973268
O O4 0.080493 0.453400 0.978897
O O5 0.405506 0.684154 0.750000
O O6 0.362637 0.582175 0.582051
O O7 0.216079 0.950205 0.250000
O O8 0.146867 0.899104 0.002260
O O9 0.226600 0.026203 0.018384
O O10 0.205624 0.795443 0.250000
O O11 0.167767 0.699016 0.459129
O O12 0.125174 0.779749 0.480233
O O13 0.784233 0.349784 0.750000
O O14 0.883935 0.426732 0.924408
O O15 0.529759 0.572760 0.250000
O O16 0.500000 0.500000 0.000000
O O17 0.257324 0.082705 0.750000
#
# Coordination Sequence:
#
# PCOD8325614 Si02
#       7
#    12   6  12  12  12  12  12
#     4  11  23  37  60  86 117 156 198 244 298 358
#     4  10  26  42  62  92 120 150 208 254 298 372
#     4  10  21  38  59  89 122 156 195 241 292 347
#     4   9  20  39  60  85 116 155 198 249 303 356
#     4  10  24  42  63  86 121 160 198 252 315 362
#     4  11  25  42  60  87 117 156 199 246 306 365
#     4   9  19  36  59  86 122 154 192 243 292 347
#
# _framework density 19.034348999999999
#
# number of rings (size 3 to 8) (size 9 to 14) (size 15 to 20)
#    0.154    1.846    0.000    3.231    7.538    3.692 
#    0.000    0.000    0.000    0.308    0.000    0.000 
#    0.000    0.000    0.000    0.000    0.000    0.000 
#
# Total GULP energy -966660.534935 kJ/mol
# GULP energy per Si atom -12393.083781 kJ/mol
# Density = 1.899103 g / cm^3
# Si number density = 19.034349 Si / 1000 Ang^3
#
#
#
# Elastic Constant Matrix: (Units=GPa)
#
#
# Indices 1 2 3 4 5 6 
#
# 1 98.4793 46.2783 21.7713 0.0000 0.0000 0.0000
# 2 46.2783 98.4793 21.7713 0.0000 0.0000 0.0000
# 3 21.7713 21.7713 75.7368 0.0000 0.0000 0.0000
# 4 0.0000 0.0000 0.0000 26.2283 0.0000 0.0000
# 5 0.0000 0.0000 0.0000 0.0000 26.2283 0.0000
# 6 0.0000 0.0000 0.0000 0.0000 0.0000 26.1005
#
#
#
# Elastic Compliance Matrix: (Units=1/GPa)
#
#
# Indices 1 2 3 4 5 6 
#
# 1 0.013359 -0.005797 -0.002174 0.000000 0.000000 0.000000
# 2 -0.005797 0.013359 -0.002174 0.000000 0.000000 0.000000
# 3 -0.002174 -0.002174 0.014453 0.000000 0.000000 0.000000
# 4 0.000000 0.000000 0.000000 0.038127 0.000000 0.000000
# 5 0.000000 0.000000 0.000000 0.000000 0.038127 0.000000
# 6 0.000000 0.000000 0.000000 0.000000 0.000000 0.038313
#
#
# Mechanical properties :
#
#
# Convention : Reuss Voigt Hill
#
# Bulk Modulus (GPa) = 47.88757 50.25968 49.07362
# Shear Modulus (GPa) = 27.32394 27.90303 27.61349
#
# Velocity S-wave (km/s) = 3.79292 3.83290 3.81296
# Velocity P-wave (km/s) = 6.66294 6.78603 6.72477
#
# Compressibility (1/GPa) = 0.02088224
#
# Stress axis : x y z
#
# Youngs Moduli (GPa) = 74.85395 74.85395 69.18802
#
# Poissons Ratio (x) = 0.43396 0.15040
# Poissons Ratio (y) = 0.43396 0.15040
# Poissons Ratio (z) = 0.16271 0.16271
#
# Static dielectric constant tensor:
#      x y z
#    x 3.514620 0.000000 0.000000 
#    y 0.000000 3.514620 0.000000 
#    z 0.000000 0.000000 3.735730 
# 
# 
# High freq. dielectric constant tensor:
#      x y z
#    x 1.735060 0.000000 0.000000 
#    y 0.000000 1.735060 0.000000 
#    z 0.000000 0.000000 1.754510 
# 
# From -- ./inp_files/1326.got.cif
#   From: 2010.06.25/outbox.cif.g09.slc.cpg/sg176_1_cif.got.tgz:1326.got - 2010.06.28 12:15:01.
