data_PCOD8325595
_publ_section_title
;
Structure prediction by ZEFSAII (Michael W. Deem and Ramdas Pophale) SiO2 
 PCOD8325595
Probable space group: P 63/M
;
_chemical_formula_sum "Si O2"
_cell_formula_units_Z 42
_cell_length_a 8.725121
_cell_length_b 8.725121
_cell_length_c 31.669356
_cell_angle_alpha 90.000000
_cell_angle_beta 90.000000
_cell_angle_gamma 120.000000
_cell_volume 2087.914838
_symmetry_space_group_name_H-M "P 63/M"
_symmetry_group_IT_number 176
_symmetry_cell_setting 'hexagonal'
loop_
_space_group_symop_operation_xyz
x,y,z
x-y,x,1/2+z
-y,x-y,z
-x,-y,1/2+z
-x+y,-x,z
y,-x+y,1/2+z
-x,-y,-z
-x+y,-x,1/2-z
y,-x+y,-z
x,y,1/2-z
x-y,x,-z
-y,x-y,1/2-z
loop_
_atom_site_type_symbol
_atom_site_label
_atom_site_fract_x
_atom_site_fract_y
_atom_site_fract_z
Si Si1 0.190200 0.198400 0.750000
Si Si2 0.575942 0.108748 0.042169
Si Si3 0.675029 0.997602 0.658735
Si Si4 0.644719 0.997786 0.127296
O O1 0.286314 0.300276 0.708180
O O2 0.992561 0.171419 0.750000
O O3 0.786119 0.252632 0.043934
O O4 0.553801 0.981006 0.081290
O O5 0.500000 0.000000 0.000000
O O6 0.845503 0.152663 0.635052
O O7 0.629253 0.817501 0.634592
O O8 0.509126 0.028535 0.659091
#
# Coordination Sequence:
#
# PCOD8325595 Si02
#       4
#     6  12  12  12
#     4  10  20  42  66 100 134 178 224 278 346 396
#     4  10  23  41  65  98 136 172 227 283 345 418
#     4  12  24  42  72  95 140 177 230 285 339 417
#     4  12  24  45  66 105 132 188 227 282 351 415
#
# _framework density 20.115760999999999
#
# number of rings (size 3 to 8) (size 9 to 14) (size 15 to 20)
#    0.857    0.000    5.714    1.714    4.000    2.286 
#    0.000    0.000    0.000    2.286    0.000    0.000 
#    0.000    0.000    0.000    0.000    0.000    0.000 
#
# Total GULP energy -520420.587783 kJ/mol
# GULP energy per Si atom -12390.966376 kJ/mol
# Density = 2.006998 g / cm^3
# Si number density = 20.115761 Si / 1000 Ang^3
#
#
#
# Elastic Constant Matrix: (Units=GPa)
#
#
# Indices 1 2 3 4 5 6 
#
# 1 82.5410 9.1742 43.0112 0.0000 0.0000 0.0000
# 2 9.1742 82.5410 43.0112 0.0000 0.0000 0.0000
# 3 43.0112 43.0112 189.2266 0.0000 0.0000 0.0000
# 4 0.0000 0.0000 0.0000 32.1496 0.0000 0.0000
# 5 0.0000 0.0000 0.0000 0.0000 32.1496 0.0000
# 6 0.0000 0.0000 0.0000 0.0000 0.0000 36.6834
#
#
#
# Elastic Compliance Matrix: (Units=1/GPa)
#
#
# Indices 1 2 3 4 5 6 
#
# 1 0.013744 0.000114 -0.003150 0.000000 0.000000 0.000000
# 2 0.000114 0.013744 -0.003150 0.000000 0.000000 0.000000
# 3 -0.003150 -0.003150 0.006717 0.000000 0.000000 0.000000
# 4 0.000000 0.000000 0.000000 0.031105 0.000000 0.000000
# 5 0.000000 0.000000 0.000000 0.000000 0.031105 0.000000
# 6 0.000000 0.000000 0.000000 0.000000 0.000000 0.027260
#
#
# Mechanical properties :
#
#
# Convention : Reuss Voigt Hill
#
# Bulk Modulus (GPa) = 45.80321 60.52239 53.16280
# Shear Modulus (GPa) = 34.88620 37.47067 36.17843
#
# Velocity S-wave (km/s) = 4.16898 4.32064 4.24549
# Velocity P-wave (km/s) = 6.78182 7.41910 7.10760
#
# Compressibility (1/GPa) = 0.02183253
#
# Stress axis : x y z
#
# Youngs Moduli (GPa) = 72.75954 72.75954 148.88518
#
# Poissons Ratio (x) = -0.00828 0.46896
# Poissons Ratio (y) = -0.00828 0.46896
# Poissons Ratio (z) = 0.22918 0.22918
#
# Static dielectric constant tensor:
#      x y z
#    x 3.600430 0.000000 0.000000 
#    y 0.000000 3.600430 0.000000 
#    z 0.000000 0.000000 3.630800 
# 
# 
# High freq. dielectric constant tensor:
#      x y z
#    x 1.781740 0.000000 0.000000 
#    y 0.000000 1.781740 0.000000 
#    z 0.000000 0.000000 1.795600 
# 
# From -- ./inp_files/4405.got.cif
#   From: 2010.06.25/outbox.cif.g09.slc.cpg/sg176_3_cif.got.tgz:4405.got - 2010.06.28 12:15:01.
