data_PCOD8325921
_publ_section_title
;
Structure prediction by ZEFSAII (Michael W. Deem and Ramdas Pophale) SiO2 
 PCOD8325921
Probable space group: P 61 2 2
;
_chemical_formula_sum "Si O2"
_cell_formula_units_Z 54
_cell_length_a 12.466818
_cell_length_b 12.466818
_cell_length_c 18.526628
_cell_angle_alpha 90.000000
_cell_angle_beta 90.000000
_cell_angle_gamma 120.000000
_cell_volume 2493.665815
_symmetry_space_group_name_H-M "P 61 2 2"
_symmetry_group_IT_number 178
_symmetry_cell_setting 'hexagonal'
loop_
_space_group_symop_operation_xyz
x,y,z
x-y,x,1/6+z
-y,x-y,1/3+z
-x,-y,1/2+z
-x+y,-x,2/3+z
y,-x+y,5/6+z
x-y,-y,-z
-x,-x+y,2/3-z
y,x,1/3-z
-y,-x,5/6-z
-x+y,y,1/2-z
x,x-y,1/6-z
loop_
_atom_site_type_symbol
_atom_site_label
_atom_site_fract_x
_atom_site_fract_y
_atom_site_fract_z
Si Si1 0.000000 0.947471 0.833334
Si Si2 0.724211 0.991939 0.678301
Si Si3 0.820396 0.413189 0.280510
Si Si4 0.574287 0.832076 0.798833
Si Si5 0.912851 0.435105 0.433057
O O1 0.122499 0.935868 0.837778
O O2 0.004199 0.008398 0.750000
O O3 0.667770 0.956952 0.757769
O O4 0.613807 0.935665 0.619071
O O5 0.798806 0.140925 0.683214
O O6 0.729231 0.458461 0.250000
O O7 0.780974 0.275853 0.257937
O O8 0.818909 0.402703 0.366815
O O9 0.955799 0.511668 0.251496
O O10 0.469263 0.849495 0.836614
#
# Coordination Sequence:
#
# PCOD8325921 Si02
#       5
#     6  12  12  12  12
#     4  12  26  46  74 110 146 186 242 300 372 430
#     4  11  24  41  71 100 139 178 233 299 358 422
#     4  10  23  41  65  96 131 181 231 293 357 422
#     4  11  24  41  65 101 133 180 232 289 356 427
#     4  10  24  42  65  95 137 181 234 288 358 437
#
# _framework density 21.654866999999999
#
# number of rings (size 3 to 8) (size 9 to 14) (size 15 to 20)
#    0.000    1.333    2.222    2.000    6.222    2.667 
#    0.000    3.333    0.000    0.000    0.000    0.000 
#    0.000    0.000    0.000    0.000    0.000    0.000 
#
# Total GULP energy -669062.484366 kJ/mol
# GULP energy per Si atom -12390.046007 kJ/mol
# Density = 2.160558 g / cm^3
# Si number density = 21.654867 Si / 1000 Ang^3
#
#
#
# Elastic Constant Matrix: (Units=GPa)
#
#
# Indices 1 2 3 4 5 6 
#
# 1 103.1134 43.4370 39.6699 0.0000 0.0000 0.0000
# 2 43.4370 103.1134 39.6699 0.0000 0.0000 0.0000
# 3 39.6699 39.6699 127.2023 0.0000 0.0000 0.0000
# 4 0.0000 0.0000 0.0000 38.7320 0.0000 0.0000
# 5 0.0000 0.0000 0.0000 0.0000 38.7320 0.0000
# 6 0.0000 0.0000 0.0000 0.0000 0.0000 29.8382
#
#
#
# Elastic Compliance Matrix: (Units=1/GPa)
#
#
# Indices 1 2 3 4 5 6 
#
# 1 0.012483 -0.004274 -0.002560 0.000000 0.000000 0.000000
# 2 -0.004274 0.012483 -0.002560 0.000000 0.000000 0.000000
# 3 -0.002560 -0.002560 0.009458 0.000000 0.000000 0.000000
# 4 0.000000 0.000000 0.000000 0.025818 0.000000 0.000000
# 5 0.000000 0.000000 0.000000 0.000000 0.025818 0.000000
# 6 0.000000 0.000000 0.000000 0.000000 0.000000 0.033514
#
#
# Mechanical properties :
#
#
# Convention : Reuss Voigt Hill
#
# Bulk Modulus (GPa) = 63.95262 64.33141 64.14202
# Shear Modulus (GPa) = 34.82453 35.50393 35.16423
#
# Velocity S-wave (km/s) = 4.01454 4.05351 4.03407
# Velocity P-wave (km/s) = 7.14741 7.18888 7.16818
#
# Compressibility (1/GPa) = 0.01563658
#
# Stress axis : x y z
#
# Youngs Moduli (GPa) = 80.10658 80.10658 105.72581
#
# Poissons Ratio (x) = 0.34235 0.27069
# Poissons Ratio (y) = 0.34235 0.27069
# Poissons Ratio (z) = 0.20510 0.20510
#
# Static dielectric constant tensor:
#      x y z
#    x 4.000770 0.000000 0.000000 
#    y 0.000000 4.000770 0.000000 
#    z 0.000000 0.000000 4.605780 
# 
# 
# High freq. dielectric constant tensor:
#      x y z
#    x 1.846900 0.000000 0.000000 
#    y 0.000000 1.846900 0.000000 
#    z 0.000000 0.000000 1.856930 
# 
# From -- ./inp_files/7411.got.cif
#   From: 2010.03.12/outbox.cif.g09.slc.cpg/sg178_4_cif.got.tgz:7411.got - 2010.04.02 07:02:38.
