data_PCOD8325979
_publ_section_title
;
Structure prediction by ZEFSAII (Michael W. Deem and Ramdas Pophale) SiO2 
 PCOD8325979
Probable space group: P 61 2 2
;
_chemical_formula_sum "Si O2"
_cell_formula_units_Z 60
_cell_length_a 14.997356
_cell_length_b 14.997356
_cell_length_c 14.338162
_cell_angle_alpha 90.000000
_cell_angle_beta 90.000000
_cell_angle_gamma 120.000000
_cell_volume 2792.887974
_symmetry_space_group_name_H-M "P 61 2 2"
_symmetry_group_IT_number 178
_symmetry_cell_setting 'hexagonal'
loop_
_space_group_symop_operation_xyz
x,y,z
x-y,x,1/6+z
-y,x-y,1/3+z
-x,-y,1/2+z
-x+y,-x,2/3+z
y,-x+y,5/6+z
x-y,-y,-z
-x,-x+y,2/3-z
y,x,1/3-z
-y,-x,5/6-z
-x+y,y,1/2-z
x,x-y,1/6-z
loop_
_atom_site_type_symbol
_atom_site_label
_atom_site_fract_x
_atom_site_fract_y
_atom_site_fract_z
Si Si1 0.262873 0.737128 0.416667
Si Si2 0.631593 0.865607 0.415813
Si Si3 0.635094 0.188238 0.472037
Si Si4 0.471842 0.367547 0.845663
Si Si5 0.547246 0.889065 0.232482
Si Si6 0.854517 0.000000 0.500000
O O1 0.217249 0.615020 0.402562
O O2 0.205945 0.749407 0.508243
O O3 0.568785 0.876605 0.503872
O O4 0.576530 0.746910 0.385366
O O5 0.617867 0.920628 0.325436
O O6 0.750102 0.914868 0.448022
O O7 0.709110 0.290891 0.416667
O O8 0.526547 0.129069 0.420238
O O9 0.557538 0.442463 0.916667
O O10 0.380798 0.392665 0.834031
O O11 0.430933 0.861866 0.250000
O O12 0.942263 0.057738 0.416667
#
# Coordination Sequence:
#
# PCOD8325979 Si02
#       6
#     6  12  12  12  12   6
#     4  12  22  38  58  92 136 202 236 272 350 440
#     4  12  24  44  71 107 145 193 258 311 381 468
#     4  12  22  36  63  97 140 191 235 289 355 444
#     4  11  24  41  63  98 143 185 232 294 366 439
#     4  11  24  40  59  93 144 186 235 294 352 441
#     4  12  30  54  90 116 144 194 272 360 424 468
#
# _framework density 21.483138
#
# number of rings (size 3 to 8) (size 9 to 14) (size 15 to 20)
#    0.000    0.400    6.000    3.600    5.600    0.800 
#    0.000    0.000    8.800    0.000    0.000    0.000 
#    0.000    0.000    0.000    0.000    0.000    0.000 
#
# Total GULP energy -743349.406457 kJ/mol
# GULP energy per Si atom -12389.156774 kJ/mol
# Density = 2.143424 g / cm^3
# Si number density = 21.483138 Si / 1000 Ang^3
#
#
#
# Elastic Constant Matrix: (Units=GPa)
#
#
# Indices 1 2 3 4 5 6 
#
# 1 91.7683 42.4277 40.4480 0.0000 0.0000 0.0000
# 2 42.4277 91.7683 40.4480 0.0000 0.0000 0.0000
# 3 40.4480 40.4480 108.4660 0.0000 0.0000 0.0000
# 4 0.0000 0.0000 0.0000 38.2427 0.0000 0.0000
# 5 0.0000 0.0000 0.0000 0.0000 38.2427 0.0000
# 6 0.0000 0.0000 0.0000 0.0000 0.0000 24.6703
#
#
#
# Elastic Compliance Matrix: (Units=1/GPa)
#
#
# Indices 1 2 3 4 5 6 
#
# 1 0.014940 -0.005327 -0.003585 0.000000 0.000000 0.000000
# 2 -0.005327 0.014940 -0.003585 0.000000 0.000000 0.000000
# 3 -0.003585 -0.003585 0.011893 0.000000 0.000000 0.000000
# 4 0.000000 0.000000 0.000000 0.026149 0.000000 0.000000
# 5 0.000000 0.000000 0.000000 0.000000 0.026149 0.000000
# 6 0.000000 0.000000 0.000000 0.000000 0.000000 0.040535
#
#
# Mechanical properties :
#
#
# Convention : Reuss Voigt Hill
#
# Bulk Modulus (GPa) = 59.59574 59.84998 59.72286
# Shear Modulus (GPa) = 30.26789 31.47640 30.87215
#
# Velocity S-wave (km/s) = 3.75762 3.83190 3.79494
# Velocity P-wave (km/s) = 6.82841 6.89184 6.86020
#
# Compressibility (1/GPa) = 0.01677972
#
# Stress axis : x y z
#
# Youngs Moduli (GPa) = 66.93451 66.93451 84.08311
#
# Poissons Ratio (x) = 0.35658 0.30141
# Poissons Ratio (y) = 0.35658 0.30141
# Poissons Ratio (z) = 0.23994 0.23994
#
# Static dielectric constant tensor:
#      x y z
#    x 3.922520 0.000000 0.000000 
#    y 0.000000 3.922520 0.000000 
#    z 0.000000 0.000000 4.164420 
# 
# 
# High freq. dielectric constant tensor:
#      x y z
#    x 1.829840 0.000000 0.000000 
#    y 0.000000 1.829840 0.000000 
#    z 0.000000 0.000000 1.858710 
# 
# From -- ./inp_files/5749.got.cif
#   From: 2010.03.12/outbox.cif.g09.slc.cpg/sg178_3_cif.got.tgz:5749.got - 2010.04.02 07:02:38.
