data_PCOD8325290
_publ_section_title
;
Structure prediction by ZEFSAII (Michael W. Deem and Ramdas Pophale) SiO2 
 PCOD8325290
Probable space group: P 6/M
;
_chemical_formula_sum "Si O2"
_cell_formula_units_Z 48
_cell_length_a 13.376876
_cell_length_b 13.376876
_cell_length_c 13.498802
_cell_angle_alpha 90.000000
_cell_angle_beta 90.000000
_cell_angle_gamma 120.000000
_cell_volume 2091.872745
_symmetry_space_group_name_H-M "P 6/M"
_symmetry_group_IT_number 175
_symmetry_cell_setting 'hexagonal'
loop_
_space_group_symop_operation_xyz
x,y,z
x-y,x,z
-y,x-y,z
-x,-y,z
-x+y,-x,z
y,-x+y,z
-x,-y,-z
-x+y,-x,-z
y,-x+y,-z
x,y,-z
x-y,x,-z
-y,x-y,-z
loop_
_atom_site_type_symbol
_atom_site_label
_atom_site_fract_x
_atom_site_fract_y
_atom_site_fract_z
Si Si1 0.416522 0.868560 0.302315
Si Si2 0.593515 0.823803 0.387701
Si Si3 0.261248 0.064901 0.792312
Si Si4 0.494581 0.115022 0.107202
O O1 0.474234 0.827872 0.386287
O O2 0.298701 0.858411 0.338802
O O3 0.414260 0.808940 0.195633
O O4 0.500000 0.000000 0.277744
O O5 0.636879 0.833238 0.500000
O O6 0.695729 0.922823 0.322593
O O7 0.218192 0.155821 0.812529
O O8 0.366594 0.089454 0.863837
O O9 0.500000 0.000000 0.091511
O O10 0.526027 0.180259 0.000000
#
# Coordination Sequence:
#
# PCOD8325290 Si02
#       4
#    12  12  12  12
#     4  10  21  38  59  89 125 158 203 263 327 394
#     4  11  22  37  61  92 127 171 222 278 341 404
#     4  11  24  41  62  92 133 182 235 285 335 398
#     4   9  19  39  66  92 121 159 206 268 340 405
#
# _framework density 22.945947
#
# number of rings (size 3 to 8) (size 9 to 14) (size 15 to 20)
#    0.000    1.750    0.000    6.000    0.000    6.000 
#    0.000    7.500    0.000    4.000    0.000    0.000 
#    0.000    0.000    0.000    0.000    0.000    0.000 
#
# Total GULP energy -594649.872905 kJ/mol
# GULP energy per Si atom -12388.539019 kJ/mol
# Density = 2.289372 g / cm^3
# Si number density = 22.945947 Si / 1000 Ang^3
#
#
#
# Elastic Constant Matrix: (Units=GPa)
#
#
# Indices 1 2 3 4 5 6 
#
# 1 87.1490 17.4275 23.0198 0.0000 0.0000 0.0000
# 2 17.4275 87.1490 23.0198 0.0000 0.0000 0.0000
# 3 23.0198 23.0198 169.2124 0.0000 0.0000 0.0000
# 4 0.0000 0.0000 0.0000 19.5158 0.0000 0.0000
# 5 0.0000 0.0000 0.0000 0.0000 19.5158 0.0000
# 6 0.0000 0.0000 0.0000 0.0000 0.0000 34.8607
#
#
#
# Elastic Compliance Matrix: (Units=1/GPa)
#
#
# Indices 1 2 3 4 5 6 
#
# 1 0.012257 -0.002086 -0.001384 0.000000 0.000000 0.000000
# 2 -0.002086 0.012257 -0.001384 0.000000 0.000000 0.000000
# 3 -0.001384 -0.001384 0.006286 0.000000 0.000000 0.000000
# 4 0.000000 0.000000 0.000000 0.051240 0.000000 0.000000
# 5 0.000000 0.000000 0.000000 0.000000 0.051240 0.000000
# 6 0.000000 0.000000 0.000000 0.000000 0.000000 0.028686
#
#
# Mechanical properties :
#
#
# Convention : Reuss Voigt Hill
#
# Bulk Modulus (GPa) = 47.40602 52.27163 49.83883
# Shear Modulus (GPa) = 27.97910 33.44801 30.71355
#
# Velocity S-wave (km/s) = 3.49570 3.82211 3.66254
# Velocity P-wave (km/s) = 6.08260 6.50445 6.29705
#
# Compressibility (1/GPa) = 0.02109437
#
# Stress axis : x y z
#
# Youngs Moduli (GPa) = 81.58481 81.58481 159.07796
#
# Poissons Ratio (x) = 0.17015 0.22012
# Poissons Ratio (y) = 0.17015 0.22012
# Poissons Ratio (z) = 0.11289 0.11289
#
# Static dielectric constant tensor:
#      x y z
#    x 4.367510 0.000000 0.000000 
#    y 0.000000 4.367510 0.000000 
#    z 0.000000 0.000000 4.357200 
# 
# 
# High freq. dielectric constant tensor:
#      x y z
#    x 1.897650 0.000000 0.000000 
#    y 0.000000 1.897650 0.000000 
#    z 0.000000 0.000000 1.909550 
# 
# From -- ./inp_files/2252.got.cif
#   From: 2010.03.12/outbox.cif.g09.slc.cpg/sg175_2_cif.got.tgz:2252.got - 2010.04.02 06:55:29.
