data_PCOD8325558
_publ_section_title
;
Structure prediction by ZEFSAII (Michael W. Deem and Ramdas Pophale) SiO2 
 PCOD8325558
Probable space group: P 63/M
;
_chemical_formula_sum "Si O2"
_cell_formula_units_Z 48
_cell_length_a 17.910771
_cell_length_b 17.910771
_cell_length_c 9.083155
_cell_angle_alpha 90.000000
_cell_angle_beta 90.000000
_cell_angle_gamma 120.000000
_cell_volume 2523.457062
_symmetry_space_group_name_H-M "P 63/M"
_symmetry_group_IT_number 176
_symmetry_cell_setting 'hexagonal'
loop_
_space_group_symop_operation_xyz
x,y,z
x-y,x,1/2+z
-y,x-y,z
-x,-y,1/2+z
-x+y,-x,z
y,-x+y,1/2+z
-x,-y,-z
-x+y,-x,1/2-z
y,-x+y,-z
x,y,1/2-z
x-y,x,-z
-y,x-y,1/2-z
loop_
_atom_site_type_symbol
_atom_site_label
_atom_site_fract_x
_atom_site_fract_y
_atom_site_fract_z
Si Si1 0.106170 0.489682 0.578868
Si Si2 0.183045 0.104249 0.076886
Si Si3 0.536066 0.907759 0.078533
Si Si4 0.194973 0.382500 0.920294
O O1 0.117666 0.511939 0.750000
O O2 0.138725 0.579455 0.493058
O O3 0.161539 0.446537 0.528222
O O4 0.007986 0.422936 0.538519
O O5 0.159797 0.093514 0.250000
O O6 0.284799 0.163771 0.050793
O O7 0.138657 0.150551 0.995014
O O8 0.524532 0.889436 0.250000
O O9 0.595887 0.873130 0.016082
O O10 0.221663 0.396535 0.750000
#
# Coordination Sequence:
#
# PCOD8325558 Si02
#       4
#    12  12  12  12
#     4   9  19  37  57  78 108 145 182 220 274 336
#     4  11  23  39  59  85 118 155 196 240 287 338
#     4  10  20  35  57  83 110 140 180 231 277 325
#     4  10  21  37  58  83 111 148 189 229 278 341
#
# _framework density 19.021525
#
# number of rings (size 3 to 8) (size 9 to 14) (size 15 to 20)
#    0.000    2.000    0.000    3.250    0.000    6.000 
#    1.500    0.000    0.000    0.000    0.000    0.000 
#    0.000    0.000    0.000    0.000    0.000    0.000 
#
# Total GULP energy -595358.848601 kJ/mol
# GULP energy per Si atom -12403.309346 kJ/mol
# Density = 1.897823 g / cm^3
# Si number density = 19.021525 Si / 1000 Ang^3
#
#
#
# Elastic Constant Matrix: (Units=GPa)
#
#
# Indices 1 2 3 4 5 6 
#
# 1 54.6738 10.5249 26.6534 0.0000 0.0000 0.0000
# 2 10.5249 54.6738 26.6534 0.0000 0.0000 0.0000
# 3 26.6534 26.6534 62.4752 0.0000 0.0000 0.0000
# 4 0.0000 0.0000 0.0000 30.8656 0.0000 0.0000
# 5 0.0000 0.0000 0.0000 0.0000 30.8656 0.0000
# 6 0.0000 0.0000 0.0000 0.0000 0.0000 22.0745
#
#
#
# Elastic Compliance Matrix: (Units=1/GPa)
#
#
# Indices 1 2 3 4 5 6 
#
# 1 0.023102 0.000451 -0.010048 0.000000 0.000000 0.000000
# 2 0.000451 0.023102 -0.010048 0.000000 0.000000 0.000000
# 3 -0.010048 -0.010048 0.024580 0.000000 0.000000 0.000000
# 4 0.000000 0.000000 0.000000 0.032398 0.000000 0.000000
# 5 0.000000 0.000000 0.000000 0.000000 0.032398 0.000000
# 6 0.000000 0.000000 0.000000 0.000000 0.000000 0.045301
#
#
# Mechanical properties :
#
#
# Convention : Reuss Voigt Hill
#
# Bulk Modulus (GPa) = 31.75293 33.27627 32.51460
# Shear Modulus (GPa) = 21.67590 23.96055 22.81822
#
# Velocity S-wave (km/s) = 3.37938 3.55301 3.46728
# Velocity P-wave (km/s) = 5.65299 5.86207 5.75848
#
# Compressibility (1/GPa) = 0.03149316
#
# Stress axis : x y z
#
# Youngs Moduli (GPa) = 43.28633 43.28633 40.68325
#
# Poissons Ratio (x) = -0.01954 0.40880
# Poissons Ratio (y) = -0.01954 0.40880
# Poissons Ratio (z) = 0.43496 0.43496
#
# Static dielectric constant tensor:
#      x y z
#    x 3.593980 0.000000 0.000000 
#    y 0.000000 3.593980 0.000000 
#    z 0.000000 0.000000 3.561520 
# 
# 
# High freq. dielectric constant tensor:
#      x y z
#    x 1.743500 0.000000 0.000000 
#    y 0.000000 1.743500 0.000000 
#    z 0.000000 0.000000 1.743980 
# 
# From -- ./inp_files/557.got.cif
#   From: 2010.06.25/outbox.cif.g09.slc.cpg/sg176_1_cif.got.tgz:557.got - 2010.06.28 12:15:01.
