data_PCOD8325794
_publ_section_title
;
Structure prediction by ZEFSAII (Michael W. Deem and Ramdas Pophale) SiO2 
 PCOD8325794
Probable space group: P 61 2 2
;
_chemical_formula_sum "Si O2"
_cell_formula_units_Z 90
_cell_length_a 24.366346
_cell_length_b 24.366346
_cell_length_c 9.537771
_cell_angle_alpha 90.000000
_cell_angle_beta 90.000000
_cell_angle_gamma 120.000000
_cell_volume 4904.088922
_symmetry_space_group_name_H-M "P 61 2 2"
_symmetry_group_IT_number 178
_symmetry_cell_setting 'hexagonal'
loop_
_space_group_symop_operation_xyz
x,y,z
x-y,x,1/6+z
-y,x-y,1/3+z
-x,-y,1/2+z
-x+y,-x,2/3+z
y,-x+y,5/6+z
x-y,-y,-z
-x,-x+y,2/3-z
y,x,1/3-z
-y,-x,5/6-z
-x+y,y,1/2-z
x,x-y,1/6-z
loop_
_atom_site_type_symbol
_atom_site_label
_atom_site_fract_x
_atom_site_fract_y
_atom_site_fract_z
Si Si1 0.628737 0.074624 0.015163
Si Si2 0.506068 0.450544 0.266373
Si Si3 0.230586 0.356779 0.158424
Si Si4 0.000000 0.101170 0.333334
Si Si5 0.368186 0.316840 0.939985
Si Si6 0.579670 0.905039 0.276499
Si Si7 0.755763 0.968613 0.857801
Si Si8 0.148046 0.226864 0.009345
O O1 0.660641 0.090458 0.169936
O O2 0.571536 0.089554 0.990693
O O3 0.679311 0.111139 0.889656
O O4 0.601020 0.000000 0.000000
O O5 0.454372 0.454372 0.166667
O O6 0.513629 0.486372 0.416667
O O7 0.483429 0.378026 0.308131
O O8 0.188678 0.377357 0.250000
O O9 0.296583 0.379914 0.241057
O O10 0.256094 0.395728 0.011576
O O11 0.191922 0.282698 0.118396
O O12 0.947121 0.111062 0.262002
O O13 0.038076 0.076152 0.250000
O O14 0.311261 0.251014 0.883254
O O15 0.347949 0.368962 0.959394
O O16 0.764507 0.908301 0.889393
O O17 0.811218 0.026082 0.771555
O O18 0.751107 0.000000 0.000000
#
# Coordination Sequence:
#
# PCOD8325794 Si02
#       8
#    12  12  12   6  12  12  12  12
#     4   8  17  32  48  75 107 138 171 210 243 294
#     4   9  16  28  47  73 107 140 176 205 237 281
#     4  12  23  35  50  77 101 135 180 224 266 325
#     4  12  24  44  62  76  92 122 156 228 304 366
#     4  11  20  33  55  77 106 136 179 218 263 317
#     4  10  19  31  51  75 103 143 178 211 253 306
#     4  12  24  40  58  79 104 134 174 231 291 356
#     4  12  24  41  59  76 101 128 180 227 287 361
#
# _framework density 18.352032000000001
#
# number of rings (size 3 to 8) (size 9 to 14) (size 15 to 20)
#    0.000    1.333    4.000    4.800    0.000    0.000 
#    1.200    0.667    0.000    0.000    0.000    0.000 
#    0.000    0.000    0.000   14.400    0.000    1.600 
#
# Total GULP energy -1114938.038775 kJ/mol
# GULP energy per Si atom -12388.200431 kJ/mol
# Density = 1.831026 g / cm^3
# Si number density = 18.352032 Si / 1000 Ang^3
#
#
#
# Elastic Constant Matrix: (Units=GPa)
#
#
# Indices 1 2 3 4 5 6 
#
# 1 99.8111 -19.6490 19.2842 0.0000 0.0000 0.0000
# 2 -19.6490 99.8111 19.2842 0.0000 0.0000 0.0000
# 3 19.2842 19.2842 67.9249 0.0000 0.0000 0.0000
# 4 0.0000 0.0000 0.0000 24.1888 0.0000 0.0000
# 5 0.0000 0.0000 0.0000 0.0000 24.1888 0.0000
# 6 0.0000 0.0000 0.0000 0.0000 0.0000 59.7301
#
#
#
# Elastic Compliance Matrix: (Units=1/GPa)
#
#
# Indices 1 2 3 4 5 6 
#
# 1 0.011410 0.003039 -0.004102 0.000000 0.000000 0.000000
# 2 0.003039 0.011410 -0.004102 0.000000 0.000000 0.000000
# 3 -0.004102 -0.004102 0.017051 0.000000 0.000000 0.000000
# 4 0.000000 0.000000 0.000000 0.041341 0.000000 0.000000
# 5 0.000000 0.000000 0.000000 0.000000 0.041341 0.000000
# 6 0.000000 0.000000 0.000000 0.000000 0.000000 0.016742
#
#
# Mechanical properties :
#
#
# Convention : Reuss Voigt Hill
#
# Bulk Modulus (GPa) = 33.85231 33.93178 33.89205
# Shear Modulus (GPa) = 31.35336 38.19672 34.77504
#
# Velocity S-wave (km/s) = 4.13781 4.56711 4.35775
# Velocity P-wave (km/s) = 6.42766 6.80742 6.62026
#
# Compressibility (1/GPa) = 0.02954008
#
# Stress axis : x y z
#
# Youngs Moduli (GPa) = 87.64512 87.64512 58.64665
#
# Poissons Ratio (x) = -0.26632 0.24057
# Poissons Ratio (y) = -0.26632 0.24057
# Poissons Ratio (z) = 0.35952 0.35952
#
# Static dielectric constant tensor:
#      x y z
#    x 3.296760 0.000000 0.000000 
#    y 0.000000 3.296760 0.000000 
#    z 0.000000 0.000000 4.229220 
# 
# 
# High freq. dielectric constant tensor:
#      x y z
#    x 1.680040 0.000000 0.000000 
#    y 0.000000 1.680040 0.000000 
#    z 0.000000 0.000000 1.732940 
# 
# From -- ./inp_files/3629.got.cif
#   From: 2010.03.12/outbox.cif.g09.slc.cpg/sg178_2_cif.got.tgz:3629.got - 2010.04.02 07:02:38.
