data_PCOD8325040
_publ_section_title
;
Structure prediction by ZEFSAII (Michael W. Deem and Ramdas Pophale) SiO2 
 PCOD8325040
Probable space group: P 6/M
;
_chemical_formula_sum "Si O2"
_cell_formula_units_Z 78
_cell_length_a 23.899254
_cell_length_b 23.899254
_cell_length_c 7.982367
_cell_angle_alpha 90.000000
_cell_angle_beta 90.000000
_cell_angle_gamma 120.000000
_cell_volume 3948.489730
_symmetry_space_group_name_H-M "P 6/M"
_symmetry_group_IT_number 175
_symmetry_cell_setting 'hexagonal'
loop_
_space_group_symop_operation_xyz
x,y,z
x-y,x,z
-y,x-y,z
-x,-y,z
-x+y,-x,z
y,-x+y,z
-x,-y,-z
-x+y,-x,-z
y,-x+y,-z
x,y,-z
x-y,x,-z
-y,x-y,-z
loop_
_atom_site_type_symbol
_atom_site_label
_atom_site_fract_x
_atom_site_fract_y
_atom_site_fract_z
Si Si1 0.095405 0.693769 0.691674
Si Si2 0.938388 0.202157 0.698128
Si Si3 0.561288 0.562368 0.807732
Si Si4 0.243592 0.749448 0.687426
Si Si5 0.081583 0.272508 0.301630
Si Si6 0.716679 0.302127 0.000000
Si Si7 0.412046 0.300797 0.804592
O O1 0.073919 0.676652 0.500000
O O2 0.068512 0.738272 0.769905
O O3 0.067930 0.626215 0.789088
O O4 0.171439 0.734549 0.713667
O O5 0.930524 0.201288 0.500000
O O6 0.880701 0.133431 0.767264
O O7 0.009478 0.214942 0.749253
O O8 0.500000 0.500000 0.721083
O O9 0.576129 0.631019 0.730791
O O10 0.543737 0.562035 0.000000
O O11 0.253226 0.728689 0.500000
O O12 0.257734 0.711308 0.828883
O O13 0.288526 0.825874 0.704268
O O14 0.087196 0.282415 0.500000
O O15 0.094049 0.338809 0.221196
O O16 0.740094 0.378511 0.000000
O O17 0.428672 0.304808 0.000000
#
# Coordination Sequence:
#
# PCOD8325040 Si02
#       7
#    12  12  12  12  12   6  12
#     4  10  20  35  58  89 115 150 199 243 301 368
#     4   9  17  30  54  82 114 151 194 245 301 364
#     4  10  23  39  54  81 120 160 194 239 300 370
#     4  11  23  41  67  94 120 157 206 255 309 370
#     4  10  18  33  55  82 115 155 200 248 303 365
#     4  10  26  48  66  86 116 157 202 262 313 372
#     4  11  21  35  57  87 120 156 200 244 304 370
#
# _framework density 19.754389
#
# number of rings (size 3 to 8) (size 9 to 14) (size 15 to 20)
#    0.154    1.692    3.846    0.462    1.077    2.769 
#    0.000    2.308    0.000    0.308    0.000    2.154 
#    0.000    0.000    0.000    1.385    0.000    1.538 
#
# Total GULP energy -966890.168982 kJ/mol
# GULP energy per Si atom -12396.027807 kJ/mol
# Density = 1.970943 g / cm^3
# Si number density = 19.754389 Si / 1000 Ang^3
#
#
#
# Elastic Constant Matrix: (Units=GPa)
#
#
# Indices 1 2 3 4 5 6 
#
# 1 109.6552 35.1699 20.8339 0.0000 0.0000 0.0000
# 2 35.1699 109.6552 20.8339 0.0000 0.0000 0.0000
# 3 20.8339 20.8339 62.1540 0.0000 0.0000 0.0000
# 4 0.0000 0.0000 0.0000 19.1720 0.0000 0.0000
# 5 0.0000 0.0000 0.0000 0.0000 19.1720 0.0000
# 6 0.0000 0.0000 0.0000 0.0000 0.0000 37.2426
#
#
#
# Elastic Compliance Matrix: (Units=1/GPa)
#
#
# Indices 1 2 3 4 5 6 
#
# 1 0.010534 -0.002892 -0.002562 0.000000 0.000000 0.000000
# 2 -0.002892 0.010534 -0.002562 0.000000 0.000000 0.000000
# 3 -0.002562 -0.002562 0.017806 0.000000 0.000000 0.000000
# 4 0.000000 0.000000 0.000000 0.052159 0.000000 0.000000
# 5 0.000000 0.000000 0.000000 0.000000 0.052159 0.000000
# 6 0.000000 0.000000 0.000000 0.000000 0.000000 0.026851
#
#
# Mechanical properties :
#
#
# Convention : Reuss Voigt Hill
#
# Bulk Modulus (GPa) = 43.77541 48.34890 46.06216
# Shear Modulus (GPa) = 25.81477 28.75912 27.28694
#
# Velocity S-wave (km/s) = 3.61887 3.81968 3.72063
# Velocity P-wave (km/s) = 6.29838 6.63185 6.46726
#
# Compressibility (1/GPa) = 0.02284388
#
# Stress axis : x y z
#
# Youngs Moduli (GPa) = 94.93371 94.93371 56.15982
#
# Poissons Ratio (x) = 0.27453 0.14386
# Poissons Ratio (y) = 0.27453 0.14386
# Poissons Ratio (z) = 0.24318 0.24318
#
# Static dielectric constant tensor:
#      x y z
#    x 3.730160 0.000000 0.000000 
#    y 0.000000 3.730160 0.000000 
#    z 0.000000 0.000000 3.408690 
# 
# 
# High freq. dielectric constant tensor:
#      x y z
#    x 1.766090 0.000000 0.000000 
#    y 0.000000 1.766090 0.000000 
#    z 0.000000 0.000000 1.753210 
# 
# From -- ./inp_files/1345.got.cif
#   From: 2010.03.12/outbox.cif.g09.slc.cpg/sg175_1_cif.got.tgz:1345.got - 2010.04.02 06:55:29.
