data_PCOD8326223
_publ_section_title
;
Structure prediction by ZEFSAII (Michael W. Deem and Ramdas Pophale) SiO2 
 PCOD8326223
Probable space group: P 62 2 2
;
_chemical_formula_sum "Si O2"
_cell_formula_units_Z 51
_cell_length_a 14.716845
_cell_length_b 14.716845
_cell_length_c 14.910720
_cell_angle_alpha 90.000000
_cell_angle_beta 90.000000
_cell_angle_gamma 120.000000
_cell_volume 2796.782402
_symmetry_space_group_name_H-M "P 62 2 2"
_symmetry_group_IT_number 180
_symmetry_cell_setting 'hexagonal'
loop_
_space_group_symop_operation_xyz
x,y,z
x-y,x,1/3+z
-y,x-y,2/3+z
-x,-y,z
-x+y,-x,1/3+z
y,-x+y,2/3+z
x-y,-y,-z
-x,-x+y,1/3-z
y,x,2/3-z
-y,-x,2/3-z
-x+y,y,-z
x,x-y,1/3-z
loop_
_atom_site_type_symbol
_atom_site_label
_atom_site_fract_x
_atom_site_fract_y
_atom_site_fract_z
Si Si1 0.034037 0.413851 0.931982
Si Si2 0.500000 0.000000 0.000000
Si Si3 0.913787 0.284625 0.101413
Si Si4 0.799462 0.399731 0.166667
Si Si5 0.706441 0.067749 0.080302
Si Si6 0.270563 0.541126 0.000000
O O1 0.015262 0.339270 0.845549
O O2 0.155079 0.469125 0.960418
O O3 0.000000 0.500000 0.912286
O O4 0.960744 0.334566 0.006680
O O5 0.524663 0.919935 0.943681
O O6 0.875976 0.353535 0.154991
O O7 0.816246 0.172015 0.083685
O O8 0.000000 0.280160 0.166667
O O9 0.728181 0.345382 0.254282
O O10 0.718937 0.000000 0.000000
#
# Coordination Sequence:
#
# PCOD8326223 Si02
#       6
#    12   3  12   6  12   6
#     4  12  20  38  60  87 126 172 211 263 317 378
#     4   8  20  42  56  80 138 158 200 262 320 396
#     4  12  22  37  64  91 124 168 217 266 319 391
#     4  12  23  40  60  94 132 166 218 260 323 382
#     4  10  22  41  58  86 129 171 210 265 323 395
#     4  12  24  39  62  92 134 172 216 265 316 382
#
# _framework density 18.235242
#
# number of rings (size 3 to 8) (size 9 to 14) (size 15 to 20)
#    0.706    0.000    8.235    0.353    0.000    1.882 
#    4.235    0.000    0.000    0.000    0.000   15.647 
#    0.000    0.000    0.000    0.000    0.000    0.000 
#
# Total GULP energy -631933.297397 kJ/mol
# GULP energy per Si atom -12390.848969 kJ/mol
# Density = 1.819374 g / cm^3
# Si number density = 18.235242 Si / 1000 Ang^3
#
#
#
# Elastic Constant Matrix: (Units=GPa)
#
#
# Indices 1 2 3 4 5 6 
#
# 1 90.1537 56.8187 44.2608 0.0000 0.0000 0.0000
# 2 56.8187 90.1537 44.2608 0.0000 0.0000 0.0000
# 3 44.2608 44.2608 155.3965 0.0000 0.0000 0.0000
# 4 0.0000 0.0000 0.0000 15.9594 0.0000 0.0000
# 5 0.0000 0.0000 0.0000 0.0000 15.9594 0.0000
# 6 0.0000 0.0000 0.0000 0.0000 0.0000 16.6675
#
#
#
# Elastic Compliance Matrix: (Units=1/GPa)
#
#
# Indices 1 2 3 4 5 6 
#
# 1 0.019106 -0.010893 -0.002339 0.000000 0.000000 0.000000
# 2 -0.010893 0.019106 -0.002339 0.000000 0.000000 0.000000
# 3 -0.002339 -0.002339 0.007768 0.000000 0.000000 0.000000
# 4 0.000000 0.000000 0.000000 0.062659 0.000000 0.000000
# 5 0.000000 0.000000 0.000000 0.000000 0.062659 0.000000
# 6 0.000000 0.000000 0.000000 0.000000 0.000000 0.059997
#
#
# Mechanical properties :
#
#
# Convention : Reuss Voigt Hill
#
# Bulk Modulus (GPa) = 67.40102 69.59829 68.49965
# Shear Modulus (GPa) = 18.69986 22.40819 20.55402
#
# Velocity S-wave (km/s) = 3.20578 3.50928 3.36096
# Velocity P-wave (km/s) = 7.12355 7.39391 7.25999
#
# Compressibility (1/GPa) = 0.01483657
#
# Stress axis : x y z
#
# Youngs Moduli (GPa) = 52.34044 52.34044 128.73813
#
# Poissons Ratio (x) = 0.57013 0.30115
# Poissons Ratio (y) = 0.57013 0.30115
# Poissons Ratio (z) = 0.12244 0.12244
#
# Static dielectric constant tensor:
#      x y z
#    x 3.083900 0.000000 0.000000 
#    y 0.000000 3.083900 0.000000 
#    z 0.000000 0.000000 3.872620 
# 
# 
# High freq. dielectric constant tensor:
#      x y z
#    x 1.681940 0.000000 0.000000 
#    y 0.000000 1.681940 0.000000 
#    z 0.000000 0.000000 1.740690 
# 
# From -- ./inp_files/6027.got.cif
#   From: 2010.03.12/outbox.cif.g09.slc.cpg/sg180_4_cif.got.tgz:6027.got - 2010.04.01 11:35:50.
