data_PCOD8326318
_publ_section_title
;
Structure prediction by ZEFSAII (Michael W. Deem and Ramdas Pophale) SiO2 
 PCOD8326318
Probable space group: P 64 2 2
;
_chemical_formula_sum "Si O2"
_cell_formula_units_Z 72
_cell_length_a 16.651292
_cell_length_b 16.651292
_cell_length_c 17.228729
_cell_angle_alpha 90.000000
_cell_angle_beta 90.000000
_cell_angle_gamma 120.000000
_cell_volume 4136.944980
_symmetry_space_group_name_H-M "P 64 2 2"
_symmetry_group_IT_number 181
_symmetry_cell_setting 'hexagonal'
loop_
_space_group_symop_operation_xyz
x,y,z
x-y,x,2/3+z
-y,x-y,1/3+z
-x,-y,z
-x+y,-x,2/3+z
y,-x+y,1/3+z
x-y,-y,-z
-x,-x+y,2/3-z
y,x,1/3-z
-y,-x,1/3-z
-x+y,y,-z
x,x-y,2/3-z
loop_
_atom_site_type_symbol
_atom_site_label
_atom_site_fract_x
_atom_site_fract_y
_atom_site_fract_z
Si Si1 0.584075 0.877866 0.808810
Si Si2 0.460488 0.356395 0.318767
Si Si3 0.639504 0.528213 0.311780
Si Si4 0.893770 0.640540 0.834947
Si Si5 0.904461 0.293280 0.517419
Si Si6 0.548850 0.109307 0.086836
O O1 0.626243 0.813122 0.833334
O O2 0.553754 0.848914 0.719956
O O3 0.492981 0.853251 0.859508
O O4 0.663661 0.984978 0.819134
O O5 0.572009 0.416726 0.306070
O O6 0.424452 0.427852 0.326261
O O7 0.414805 0.288135 0.247720
O O8 0.434274 0.299727 0.398638
O O9 0.696626 0.567967 0.233687
O O10 0.816839 0.672988 0.829486
O O11 0.000000 0.727026 0.833334
O O12 0.867009 0.341446 0.457215
O O13 0.500000 0.000000 0.082217
O O14 0.576283 0.152565 0.000000
#
# Coordination Sequence:
#
# PCOD8326318 Si02
#       6
#    12  12  12  12  12  12
#     4  10  20  34  53  75 101 133 169 209 252 299
#     4   9  16  32  53  70  95 130 164 200 250 301
#     4   9  17  31  51  74  96 125 163 206 250 297
#     4  10  20  31  51  78 102 134 174 210 242 293
#     4  10  19  34  54  73 101 136 170 206 251 300
#     4   9  18  33  53  72  93 128 167 205 251 302
#
# _framework density 17.404146999999998
#
# number of rings (size 3 to 8) (size 9 to 14) (size 15 to 20)
#    0.000    2.500    1.667    1.000    2.333    2.000 
#    0.000    1.667    0.000    0.500    0.000    0.000 
#    0.000    8.000    0.000    0.000    0.000    0.667 
#
# Total GULP energy -892176.943716 kJ/mol
# GULP energy per Si atom -12391.346440 kJ/mol
# Density = 1.736453 g / cm^3
# Si number density = 17.404147 Si / 1000 Ang^3
#
#
#
# Elastic Constant Matrix: (Units=GPa)
#
#
# Indices 1 2 3 4 5 6 
#
# 1 82.9112 46.9388 27.8640 0.0000 0.0000 0.0000
# 2 46.9388 82.9112 27.8640 0.0000 0.0000 0.0000
# 3 27.8640 27.8640 125.9379 0.0000 0.0000 0.0000
# 4 0.0000 0.0000 0.0000 17.6529 0.0000 0.0000
# 5 0.0000 0.0000 0.0000 0.0000 17.6529 0.0000
# 6 0.0000 0.0000 0.0000 0.0000 0.0000 17.9862
#
#
#
# Elastic Compliance Matrix: (Units=1/GPa)
#
#
# Indices 1 2 3 4 5 6 
#
# 1 0.018154 -0.009645 -0.001883 0.000000 0.000000 0.000000
# 2 -0.009645 0.018154 -0.001883 0.000000 0.000000 0.000000
# 3 -0.001883 -0.001883 0.008774 0.000000 0.000000 0.000000
# 4 0.000000 0.000000 0.000000 0.056648 0.000000 0.000000
# 5 0.000000 0.000000 0.000000 0.000000 0.056648 0.000000
# 6 0.000000 0.000000 0.000000 0.000000 0.000000 0.055598
#
#
# Mechanical properties :
#
#
# Convention : Reuss Voigt Hill
#
# Bulk Modulus (GPa) = 54.76094 55.23264 54.99679
# Shear Modulus (GPa) = 20.25246 23.26463 21.75854
#
# Velocity S-wave (km/s) = 3.41494 3.66010 3.53964
# Velocity P-wave (km/s) = 6.86161 7.04741 6.95513
#
# Compressibility (1/GPa) = 0.01826119
#
# Stress axis : x y z
#
# Youngs Moduli (GPa) = 55.08383 55.08383 113.97946
#
# Poissons Ratio (x) = 0.53128 0.21459
# Poissons Ratio (y) = 0.53128 0.21459
# Poissons Ratio (z) = 0.10370 0.10370
#
# Static dielectric constant tensor:
#      x y z
#    x 3.038620 0.000000 0.000000 
#    y 0.000000 3.038620 0.000000 
#    z 0.000000 0.000000 3.656860 
# 
# 
# High freq. dielectric constant tensor:
#      x y z
#    x 1.644780 0.000000 0.000000 
#    y 0.000000 1.644780 0.000000 
#    z 0.000000 0.000000 1.694730 
# 
# From -- ./inp_files/7893.got.cif
#   From: 2010.03.12/outbox.cif.g09.slc.cpg/sg181_4_cif.got.tgz:7893.got - 2010.04.01 11:42:41.
