data_PCOD8326942
_publ_section_title
;
Structure prediction by ZEFSAII (Michael W. Deem and Ramdas Pophale) SiO2 
 PCOD8326942
Probable space group: P -6 M 2
;
_chemical_formula_sum "Si O2"
_cell_formula_units_Z 84
_cell_length_a 17.426005
_cell_length_b 17.426005
_cell_length_c 20.502486
_cell_angle_alpha 90.000000
_cell_angle_beta 90.000000
_cell_angle_gamma 120.000000
_cell_volume 5391.788205
_symmetry_space_group_name_H-M "P -6 M 2"
_symmetry_group_IT_number 187
_symmetry_cell_setting 'hexagonal'
loop_
_space_group_symop_operation_xyz
x,y,z
-x+y,-x,-z
-y,x-y,z
x,y,-z
-x+y,-x,z
-y,x-y,-z
-y,-x,-z
-x+y,y,-z
x,x-y,-z
-x+y,y,z
x,x-y,z
-y,-x,z
loop_
_atom_site_type_symbol
_atom_site_label
_atom_site_fract_x
_atom_site_fract_y
_atom_site_fract_z
Si Si1 0.492519 0.333625 0.224748
Si Si2 0.333676 0.835684 0.922491
Si Si3 0.940086 0.239938 0.191731
Si Si4 0.492810 0.159119 0.620504
Si Si5 0.181752 0.999345 0.311303
Si Si6 0.239948 0.299758 0.925879
Si Si7 0.305020 0.243485 0.572797
O O1 0.509580 0.254790 0.201343
O O2 0.573457 0.426544 0.199130
O O3 0.400705 0.321572 0.195706
O O4 0.485417 0.332560 0.302119
O O5 0.429824 0.859647 0.894460
O O6 0.260041 0.739960 0.894830
O O7 0.308807 0.909347 0.901884
O O8 0.332407 0.830503 0.000000
O O9 0.847646 0.152355 0.200335
O O10 0.002943 0.242057 0.250142
O O11 0.981692 0.236539 0.122462
O O12 0.574304 0.148608 0.595023
O O13 0.508476 0.254238 0.596892
O O14 0.402619 0.078788 0.590709
O O15 0.085410 0.914591 0.308381
O O16 0.170844 0.085422 0.309971
O O17 0.230932 0.994780 0.376853
O O18 0.140043 0.280086 0.920739
O O19 0.259667 0.283294 0.000000
O O20 0.278684 0.257359 0.500000
O O21 0.309746 0.154873 0.578278
#
# Coordination Sequence:
#
# PCOD8326942 Si02
#       7
#    12  12  12  12  12  12  12
#     4   9  16  27  44  66  91 119 151 184 215 250
#     4   8  13  22  38  60  85 111 137 164 197 242
#     4  10  19  31  47  66  87 112 144 182 223 265
#     4   9  15  25  41  63  91 123 156 185 214 253
#     4  10  19  32  48  65  83 108 144 184 224 267
#     4   9  18  31  45  63  87 113 141 176 219 265
#     4   9  17  29  43  61  89 119 144 177 220 257
#
# _framework density 15.579247000000001
#
# number of rings (size 3 to 8) (size 9 to 14) (size 15 to 20)
#    0.000    2.857    1.429    1.857    0.000    3.143 
#    0.000    0.000    0.000    2.000    0.000    0.000 
#    0.000    1.143    0.000    2.000    0.000    3.714 
#
# Total GULP energy -1041175.137484 kJ/mol
# GULP energy per Si atom -12394.942113 kJ/mol
# Density = 1.554379 g / cm^3
# Si number density = 15.579247 Si / 1000 Ang^3
#
#
#
# Elastic Constant Matrix: (Units=GPa)
#
#
# Indices 1 2 3 4 5 6 
#
# 1 64.1912 28.3343 31.5489 0.0000 -0.0001 0.0000
# 2 28.3343 64.1912 31.5489 0.0000 0.0001 0.0000
# 3 31.5489 31.5489 75.7676 0.0000 0.0000 0.0000
# 4 0.0000 0.0000 0.0000 16.7474 0.0000 0.0001
# 5 -0.0001 0.0001 0.0000 0.0000 16.7474 0.0000
# 6 0.0000 0.0000 0.0000 0.0001 0.0000 17.9284
#
#
#
# Elastic Compliance Matrix: (Units=1/GPa)
#
#
# Indices 1 2 3 4 5 6 
#
# 1 0.021491 -0.006397 -0.006285 0.000000 0.000000 0.000000
# 2 -0.006397 0.021491 -0.006285 0.000000 0.000000 0.000000
# 3 -0.006285 -0.006285 0.018432 0.000000 0.000000 0.000000
# 4 0.000000 0.000000 0.000000 0.059711 0.000000 0.000000
# 5 0.000000 0.000000 0.000000 0.000000 0.059711 0.000000
# 6 0.000000 0.000000 0.000000 0.000000 0.000000 0.055777
#
#
# Mechanical properties :
#
#
# Convention : Reuss Voigt Hill
#
# Bulk Modulus (GPa) = 42.58910 43.00158 42.79534
# Shear Modulus (GPa) = 17.70694 17.79916 17.75305
#
# Velocity S-wave (km/s) = 3.37497 3.38374 3.37936
# Velocity P-wave (km/s) = 6.52561 6.55195 6.53879
#
# Compressibility (1/GPa) = 0.02348018
#
# Stress axis : x y z
#
# Youngs Moduli (GPa) = 46.53056 46.53056 54.25283
#
# Poissons Ratio (x) = 0.29768 0.34098
# Poissons Ratio (y) = 0.29768 0.34098
# Poissons Ratio (z) = 0.29244 0.29244
#
# Static dielectric constant tensor:
#      x y z
#    x 2.959420 0.000000 0.000000 
#    y 0.000000 2.959420 0.000000 
#    z 0.000000 0.000000 2.820740 
# 
# 
# High freq. dielectric constant tensor:
#      x y z
#    x 1.583600 0.000000 0.000000 
#    y 0.000000 1.583600 0.000000 
#    z 0.000000 0.000000 1.579280 
# 
# From -- ./inp_files/3642.got.cif
#   From: 2010.03.12/outbox.cif.g09.slc.cpg/sg187_2_cif.got.tgz:3642.got - 2010.04.01 11:58:23.
