data_PCOD8326604
_publ_section_title
;
Structure prediction by ZEFSAII (Michael W. Deem and Ramdas Pophale) SiO2 
 PCOD8326604
Probable space group: P 6 C C
;
_chemical_formula_sum "Si O2"
_cell_formula_units_Z 66
_cell_length_a 17.902961
_cell_length_b 17.902961
_cell_length_c 9.278421
_cell_angle_alpha 90.000000
_cell_angle_beta 90.000000
_cell_angle_gamma 120.000000
_cell_volume 2575.457794
_symmetry_space_group_name_H-M "P 6 C C"
_symmetry_group_IT_number 184
_symmetry_cell_setting 'hexagonal'
loop_
_space_group_symop_operation_xyz
x,y,z
x-y,x,z
-y,x-y,z
-x,-y,z
-x+y,-x,z
y,-x+y,z
-x+y,y,1/2+z
x,x-y,1/2+z
-y,-x,1/2+z
y,x,1/2+z
x-y,-y,1/2+z
-x,-x+y,1/2+z
loop_
_atom_site_type_symbol
_atom_site_label
_atom_site_fract_x
_atom_site_fract_y
_atom_site_fract_z
Si Si1 0.063298 0.628705 0.275840
Si Si2 0.500000 0.500000 0.522107
Si Si3 0.751410 0.708069 0.863624
Si Si4 0.439767 0.693166 0.161831
Si Si5 0.027163 0.839868 0.592598
Si Si6 0.223947 0.778217 0.900131
O O1 0.064149 0.576327 0.416652
O O2 0.149319 0.721151 0.279052
O O3 0.057099 0.582225 0.124271
O O4 0.983248 0.645402 0.284817
O O5 0.821296 0.776253 0.753565
O O6 0.781195 0.644026 0.933587
O O7 0.740863 0.766143 0.987752
O O8 0.403718 0.761252 0.150867
O O9 0.513482 0.719343 0.042439
O O10 0.482116 0.692851 0.316543
O O11 0.936129 0.834326 0.559887
#
# Coordination Sequence:
#
# PCOD8326604 Si02
#       6
#    12   6  12  12  12  12
#     4  11  26  45  69 105 142 193 248 305 389 443
#     4  10  26  44  68  96 144 186 250 310 352 470
#     4  12  29  46  73 114 153 197 248 321 386 465
#     4  10  26  47  72 112 149 203 264 310 380 465
#     4  12  26  50  80 112 156 196 258 312 393 475
#     4  12  27  45  79 105 153 200 252 320 389 447
#
# _framework density 25.626512000000002
#
# number of rings (size 3 to 8) (size 9 to 14) (size 15 to 20)
#    0.364    0.364    0.000    5.636   15.273    2.909 
#    0.000    1.818    0.000    0.000    0.000    0.000 
#    0.000    0.000    0.000    0.000    0.000    0.000 
#
# Total GULP energy -818317.484841 kJ/mol
# GULP energy per Si atom -12398.749770 kJ/mol
# Density = 2.556818 g / cm^3
# Si number density = 25.626512 Si / 1000 Ang^3
#
#
#
# Elastic Constant Matrix: (Units=GPa)
#
#
# Indices 1 2 3 4 5 6 
#
# 1 92.9403 4.8708 3.1974 0.0000 0.0000 0.0000
# 2 4.8708 92.9403 3.1974 0.0000 0.0000 0.0000
# 3 3.1974 3.1974 105.2634 0.0000 0.0000 0.0000
# 4 0.0000 0.0000 0.0000 31.9392 0.0000 0.0000
# 5 0.0000 0.0000 0.0000 0.0000 31.9392 0.0000
# 6 0.0000 0.0000 0.0000 0.0000 0.0000 44.0348
#
#
#
# Elastic Compliance Matrix: (Units=1/GPa)
#
#
# Indices 1 2 3 4 5 6 
#
# 1 0.010799 -0.000555 -0.000311 0.000000 0.000000 0.000000
# 2 -0.000555 0.010799 -0.000311 0.000000 0.000000 0.000000
# 3 -0.000311 -0.000311 0.009519 0.000000 0.000000 0.000000
# 4 0.000000 0.000000 0.000000 0.031309 0.000000 0.000000
# 5 0.000000 0.000000 0.000000 0.000000 0.031309 0.000000
# 6 0.000000 0.000000 0.000000 0.000000 0.000000 0.022709
#
#
# Mechanical properties :
#
#
# Convention : Reuss Voigt Hill
#
# Bulk Modulus (GPa) = 34.76752 34.85280 34.81016
# Shear Modulus (GPa) = 38.94426 40.24120 39.59273
#
# Velocity S-wave (km/s) = 3.90254 3.96699 3.93490
# Velocity P-wave (km/s) = 5.82262 5.88324 5.85301
#
# Compressibility (1/GPa) = 0.02876247
#
# Stress axis : x y z
#
# Youngs Moduli (GPa) = 92.59773 92.59773 105.05433
#
# Poissons Ratio (x) = 0.05142 0.03269
# Poissons Ratio (y) = 0.05142 0.03269
# Poissons Ratio (z) = 0.02881 0.02881
#
# Static dielectric constant tensor:
#      x y z
#    x 4.523460 0.000000 0.000000 
#    y 0.000000 4.523460 0.000000 
#    z 0.000000 0.000000 4.447130 
# 
# 
# High freq. dielectric constant tensor:
#      x y z
#    x 2.025060 0.000000 0.000000 
#    y 0.000000 2.025060 0.000000 
#    z 0.000000 0.000000 2.026430 
# 
# From -- ./inp_files/313.got.cif
#   From: 2010.03.12/outbox.cif.g09.slc.cpg/sg184_cif.got.tgz:313.got - 2010.04.01 11:54:36.
