data_PCOD8326951
_publ_section_title
;
Structure prediction by ZEFSAII (Michael W. Deem and Ramdas Pophale) SiO2 
 PCOD8326951
Probable space group: P -6 M 2
;
_chemical_formula_sum "Si O2"
_cell_formula_units_Z 96
_cell_length_a 16.770675
_cell_length_b 16.770675
_cell_length_c 22.901061
_cell_angle_alpha 90.000000
_cell_angle_beta 90.000000
_cell_angle_gamma 120.000000
_cell_volume 5578.113167
_symmetry_space_group_name_H-M "P -6 M 2"
_symmetry_group_IT_number 187
_symmetry_cell_setting 'hexagonal'
loop_
_space_group_symop_operation_xyz
x,y,z
-x+y,-x,-z
-y,x-y,z
x,y,-z
-x+y,-x,z
-y,x-y,-z
-y,-x,-z
-x+y,y,-z
x,x-y,-z
-x+y,y,z
x,x-y,z
-y,-x,z
loop_
_atom_site_type_symbol
_atom_site_label
_atom_site_fract_x
_atom_site_fract_y
_atom_site_fract_z
Si Si1 0.999835 0.820548 0.143118
Si Si2 0.334764 0.366062 0.668136
Si Si3 0.913538 0.269310 0.065729
Si Si4 0.999922 0.815553 0.274952
Si Si5 0.963479 0.389422 0.830038
Si Si6 0.852093 0.333128 0.279243
Si Si7 0.148429 0.666827 0.567670
Si Si8 0.519284 0.853168 0.226355
O O1 0.929866 0.859732 0.141281
O O2 0.973300 0.742678 0.095295
O O3 0.997714 0.781842 0.208125
O O4 0.099485 0.900516 0.125134
O O5 0.245570 0.268256 0.682290
O O6 0.426857 0.358450 0.672748
O O7 0.327321 0.395461 0.602644
O O8 0.339862 0.446383 0.709273
O O9 0.806233 0.193768 0.065363
O O10 0.928534 0.355358 0.104521
O O11 0.948754 0.302312 0.000000
O O12 0.077871 0.922130 0.280521
O O13 0.902596 0.805192 0.292994
O O14 0.963792 0.481896 0.817363
O O15 0.892232 0.318481 0.782188
O O16 0.068486 0.412405 0.819807
O O17 0.825507 0.412754 0.276373
O O18 0.761838 0.238163 0.295946
O O19 0.125086 0.667283 0.500000
O O20 0.150445 0.575223 0.584941
O O21 0.247416 0.752584 0.583712
O O22 0.413560 0.827119 0.218755
O O23 0.527531 0.763766 0.214298
#
# Coordination Sequence:
#
# PCOD8326951 Si02
#       8
#    12  12  12  12  12  12  12  12
#     4   9  17  29  45  66  92 122 154 187 225 270
#     4  11  20  31  48  75 103 129 161 199 244 289
#     4  10  20  32  46  65  89 118 152 189 232 282
#     4  10  19  31  49  72  99 130 163 200 243 293
#     4   9  19  33  49  69  91 118 154 195 237 284
#     4  10  19  32  51  74 100 128 159 197 243 295
#     4  10  20  34  52  74 102 136 172 207 241 280
#     4  10  19  31  48  71  99 126 153 189 237 293
#
# _framework density 17.210121000000001
#
# number of rings (size 3 to 8) (size 9 to 14) (size 15 to 20)
#    0.000    2.125    0.000    5.875    0.000    4.500 
#    0.000    1.250    0.000    2.500    0.000    0.000 
#    0.000    3.000    0.000    0.000    0.000    0.000 
#
# Total GULP energy -1190328.848167 kJ/mol
# GULP energy per Si atom -12399.258835 kJ/mol
# Density = 1.717095 g / cm^3
# Si number density = 17.210121 Si / 1000 Ang^3
#
#
#
# Elastic Constant Matrix: (Units=GPa)
#
#
# Indices 1 2 3 4 5 6 
#
# 1 80.6118 26.7940 37.1599 0.0000 0.0003 0.0000
# 2 26.7940 80.6118 37.1599 0.0000 -0.0003 0.0000
# 3 37.1599 37.1599 91.9173 0.0000 0.0000 0.0000
# 4 0.0000 0.0000 0.0000 21.5654 0.0000 -0.0003
# 5 0.0003 -0.0003 0.0000 0.0000 21.5654 0.0000
# 6 0.0000 0.0000 0.0000 -0.0003 0.0000 26.9089
#
#
#
# Elastic Compliance Matrix: (Units=1/GPa)
#
#
# Indices 1 2 3 4 5 6 
#
# 1 0.015754 -0.002827 -0.005226 0.000000 0.000000 0.000000
# 2 -0.002827 0.015754 -0.005226 0.000000 0.000000 0.000000
# 3 -0.005226 -0.005226 0.015105 0.000000 0.000000 0.000000
# 4 0.000000 0.000000 0.000000 0.046371 0.000000 0.000000
# 5 0.000000 0.000000 0.000000 0.000000 0.046371 0.000000
# 6 0.000000 0.000000 0.000000 0.000000 0.000000 0.037162
#
#
# Mechanical properties :
#
#
# Convention : Reuss Voigt Hill
#
# Bulk Modulus (GPa) = 49.86464 50.59652 50.23058
# Shear Modulus (GPa) = 23.83686 24.14308 23.98997
#
# Velocity S-wave (km/s) = 3.72566 3.74952 3.73761
# Velocity P-wave (km/s) = 6.89524 6.94322 6.91927
#
# Compressibility (1/GPa) = 0.02005429
#
# Stress axis : x y z
#
# Youngs Moduli (GPa) = 63.47644 63.47644 66.20436
#
# Poissons Ratio (x) = 0.17947 0.34598
# Poissons Ratio (y) = 0.17947 0.34598
# Poissons Ratio (z) = 0.33172 0.33172
#
# Static dielectric constant tensor:
#      x y z
#    x 3.212530 0.000000 0.000000 
#    y 0.000000 3.212530 0.000000 
#    z 0.000000 0.000000 3.031090 
# 
# 
# High freq. dielectric constant tensor:
#      x y z
#    x 1.669730 0.000000 0.000000 
#    y 0.000000 1.669730 0.000000 
#    z 0.000000 0.000000 1.630760 
# 
# From -- ./inp_files/3741.got.cif
#   From: 2010.03.12/outbox.cif.g09.slc.cpg/sg187_2_cif.got.tgz:3741.got - 2010.04.01 11:58:23.
