data_PCOD8326534
_publ_section_title
;
Structure prediction by ZEFSAII (Michael W. Deem and Ramdas Pophale) SiO2 
 PCOD8326534
Probable space group: P 6 M M
;
_chemical_formula_sum "Si O2"
_cell_formula_units_Z 96
_cell_length_a 18.034208
_cell_length_b 18.034208
_cell_length_c 20.537552
_cell_angle_alpha 90.000000
_cell_angle_beta 90.000000
_cell_angle_gamma 120.000000
_cell_volume 5784.601641
_symmetry_space_group_name_H-M "P 6 M M"
_symmetry_group_IT_number 183
_symmetry_cell_setting 'hexagonal'
loop_
_space_group_symop_operation_xyz
x,y,z
x-y,x,z
-y,x-y,z
-x,-y,z
-x+y,-x,z
y,-x+y,z
-x+y,y,z
x,x-y,z
-y,-x,z
y,x,z
x-y,-y,z
-x,-x+y,z
loop_
_atom_site_type_symbol
_atom_site_label
_atom_site_fract_x
_atom_site_fract_y
_atom_site_fract_z
Si Si1 0.330693 0.833411 0.615210
Si Si2 0.094923 0.459782 0.256252
Si Si3 0.164566 0.668919 0.118659
Si Si4 0.531608 0.633366 0.891617
Si Si5 0.503865 0.669046 0.393599
Si Si6 0.096189 0.363239 0.505374
Si Si7 0.905741 0.365146 0.750423
Si Si8 0.901898 0.264916 0.008891
O O1 0.427294 0.854587 0.603984
O O2 0.265558 0.734443 0.597477
O O3 0.312886 0.894210 0.569252
O O4 0.311824 0.847467 0.689775
O O5 0.088567 0.544284 0.256730
O O6 0.145170 0.459292 0.192028
O O7 0.143995 0.457952 0.320767
O O8 0.000000 0.377309 0.255596
O O9 0.146711 0.573356 0.108111
O O10 0.263515 0.736486 0.103204
O O11 0.102572 0.683543 0.071138
O O12 0.430483 0.569518 0.906969
O O13 0.577340 0.577340 0.889301
O O14 0.544820 0.678886 0.820541
O O15 0.574213 0.705197 0.946630
O O16 0.469852 0.734926 0.407361
O O17 0.426894 0.573107 0.404210
O O18 0.579392 0.686159 0.442621
O O19 0.165417 0.330833 0.505042
O O20 0.000000 0.281605 0.504809
O O21 0.914396 0.457198 0.752181
O O22 0.000000 0.376891 0.740595
O O23 0.837519 0.162482 0.016761
O O24 0.000000 0.285704 0.001384
#
# Coordination Sequence:
#
# PCOD8326534 Si02
#       8
#    12  12  12  12  12  12  12  12
#     4  10  19  29  42  62  91 126 161 193 222 252
#     4   9  17  28  42  60  84 119 162 200 227 253
#     4  10  19  30  45  66  93 123 153 184 219 261
#     4   8  14  26  44  65  88 114 145 180 219 263
#     4  10  19  30  45  66  94 127 161 194 225 257
#     4  10  21  35  51  70  90 114 144 182 227 273
#     4   8  14  25  41  60  83 114 152 190 223 256
#     4  10  20  32  47  66  87 113 145 184 227 270
#
# _framework density 16.595783999999998
#
# number of rings (size 3 to 8) (size 9 to 14) (size 15 to 20)
#    0.000    2.625    0.000    3.375    0.000    3.750 
#    0.000    2.500    0.000    0.500    0.000    0.000 
#    0.000    0.000    0.000    0.000    0.000   42.250 
#
# Total GULP energy -1189891.022990 kJ/mol
# GULP energy per Si atom -12394.698156 kJ/mol
# Density = 1.655801 g / cm^3
# Si number density = 16.595784 Si / 1000 Ang^3
#
#
#
# Elastic Constant Matrix: (Units=GPa)
#
#
# Indices 1 2 3 4 5 6 
#
# 1 70.5079 41.3975 28.0629 0.0000 0.0000 0.0000
# 2 41.3975 70.5079 28.0629 0.0000 0.0000 0.0000
# 3 28.0629 28.0629 113.4617 0.0000 0.0000 0.0000
# 4 0.0000 0.0000 0.0000 18.4461 0.0000 0.0000
# 5 0.0000 0.0000 0.0000 0.0000 18.4461 0.0000
# 6 0.0000 0.0000 0.0000 0.0000 0.0000 14.5552
#
#
#
# Elastic Compliance Matrix: (Units=1/GPa)
#
#
# Indices 1 2 3 4 5 6 
#
# 1 0.022277 -0.012075 -0.002523 0.000000 0.000000 0.000000
# 2 -0.012075 0.022277 -0.002523 0.000000 0.000000 0.000000
# 3 -0.002523 -0.002523 0.010062 0.000000 0.000000 0.000000
# 4 0.000000 0.000000 0.000000 0.054212 0.000000 0.000000
# 5 0.000000 0.000000 0.000000 0.000000 0.054212 0.000000
# 6 0.000000 0.000000 0.000000 0.000000 0.000000 0.068704
#
#
# Mechanical properties :
#
#
# Convention : Reuss Voigt Hill
#
# Bulk Modulus (GPa) = 49.08667 49.94711 49.51689
# Shear Modulus (GPa) = 18.33000 20.75311 19.54155
#
# Velocity S-wave (km/s) = 3.32700 3.54008 3.43520
# Velocity P-wave (km/s) = 6.66338 6.84625 6.75544
#
# Compressibility (1/GPa) = 0.02037213
#
# Stress axis : x y z
#
# Youngs Moduli (GPa) = 44.88978 44.88978 99.38687
#
# Poissons Ratio (x) = 0.54205 0.25077
# Poissons Ratio (y) = 0.54205 0.25077
# Poissons Ratio (z) = 0.11327 0.11327
#
# Static dielectric constant tensor:
#      x y z
#    x 2.841190 0.000000 0.000000 
#    y 0.000000 2.841190 0.000000 
#    z 0.000000 0.000000 3.582300 
# 
# 
# High freq. dielectric constant tensor:
#      x y z
#    x 1.605750 0.000000 0.000000 
#    y 0.000000 1.605750 0.000000 
#    z 0.000000 0.000000 1.663700 
# 
# From -- ./inp_files/3122.got.cif
#   From: 2010.03.12/outbox.cif.g09.slc.cpg/sg183_2_cif.got.tgz:3122.got - 2010.04.01 11:53:02.
