data_PCOD8326914
_publ_section_title
;
Structure prediction by ZEFSAII (Michael W. Deem and Ramdas Pophale) SiO2 
 PCOD8326914
Probable space group: P -6 M 2
;
_chemical_formula_sum "Si O2"
_cell_formula_units_Z 84
_cell_length_a 18.501671
_cell_length_b 18.501671
_cell_length_c 15.241176
_cell_angle_alpha 90.000000
_cell_angle_beta 90.000000
_cell_angle_gamma 120.000000
_cell_volume 4518.257913
_symmetry_space_group_name_H-M "P -6 M 2"
_symmetry_group_IT_number 187
_symmetry_cell_setting 'hexagonal'
loop_
_space_group_symop_operation_xyz
x,y,z
-x+y,-x,-z
-y,x-y,z
x,y,-z
-x+y,-x,z
-y,x-y,-z
-y,-x,-z
-x+y,y,-z
x,x-y,-z
-x+y,y,z
x,x-y,z
-y,-x,z
loop_
_atom_site_type_symbol
_atom_site_label
_atom_site_fract_x
_atom_site_fract_y
_atom_site_fract_z
Si Si1 0.346756 0.257988 0.099091
Si Si2 0.035936 0.703629 0.402186
Si Si3 0.161606 0.000217 0.132535
Si Si4 0.334132 0.827491 0.603977
Si Si5 0.830293 0.331252 0.213494
Si Si6 0.478018 0.118287 0.595077
Si Si7 0.000075 0.840562 0.663365
O O1 0.339068 0.169534 0.116580
O O2 0.253258 0.242926 0.114726
O O3 0.417462 0.322799 0.167146
O O4 0.375885 0.290568 0.000000
O O5 0.061452 0.741260 0.500000
O O6 0.111186 0.696492 0.356496
O O7 0.957729 0.613338 0.404113
O O8 0.012751 0.762087 0.347691
O O9 0.156066 0.078033 0.089511
O O10 0.145790 0.001250 0.234495
O O11 0.088299 0.911702 0.093220
O O12 0.342609 0.841248 0.500000
O O13 0.423313 0.846625 0.643257
O O14 0.267075 0.732926 0.628455
O O15 0.843006 0.421503 0.189135
O O16 0.740784 0.259217 0.177060
O O17 0.826389 0.316844 0.318960
O O18 0.492146 0.166060 0.500000
O O19 0.541197 0.082394 0.601038
O O20 0.912339 0.824677 0.621652
O O21 0.076656 0.923345 0.620048
#
# Coordination Sequence:
#
# PCOD8326914 Si02
#       7
#    12  12  12  12  12  12  12
#     4   9  18  32  49  71 100 131 162 199 243 289
#     4  10  19  30  45  64  87 118 158 201 245 299
#     4   9  17  30  49  72  98 128 161 196 237 290
#     4   9  16  26  41  61  85 112 143 183 233 290
#     4  10  20  34  52  73  98 130 169 211 254 300
#     4   9  18  32  49  70  96 125 158 201 254 304
#     4  10  20  33  47  63  86 119 160 205 250 293
#
# _framework density 18.591235999999999
#
# number of rings (size 3 to 8) (size 9 to 14) (size 15 to 20)
#    0.000    2.571    0.000    2.286    0.000    7.143 
#    0.000    1.429    0.000    3.429    0.000    0.000 
#    0.000    0.000    0.000    0.429    0.000    1.857 
#
# Total GULP energy -1040679.782435 kJ/mol
# GULP energy per Si atom -12389.045029 kJ/mol
# Density = 1.854892 g / cm^3
# Si number density = 18.591236 Si / 1000 Ang^3
#
#
#
# Elastic Constant Matrix: (Units=GPa)
#
#
# Indices 1 2 3 4 5 6 
#
# 1 114.1599 66.9072 26.4599 0.0000 -0.0001 0.0000
# 2 66.9072 114.1599 26.4599 0.0000 0.0001 0.0000
# 3 26.4599 26.4599 57.5516 0.0000 0.0000 0.0000
# 4 0.0000 0.0000 0.0000 6.5913 0.0000 0.0001
# 5 -0.0001 0.0001 0.0000 0.0000 6.5913 0.0000
# 6 0.0000 0.0000 0.0000 0.0001 0.0000 23.6264
#
#
#
# Elastic Compliance Matrix: (Units=1/GPa)
#
#
# Indices 1 2 3 4 5 6 
#
# 1 0.013771 -0.007391 -0.002933 0.000000 0.000000 0.000000
# 2 -0.007391 0.013771 -0.002933 0.000000 0.000000 0.000000
# 3 -0.002933 -0.002933 0.020073 0.000000 0.000000 0.000000
# 4 0.000000 0.000000 0.000000 0.151714 0.000000 -0.000001
# 5 0.000000 0.000000 0.000000 0.000000 0.151714 0.000000
# 6 0.000000 0.000000 0.000000 -0.000001 0.000000 0.042326
#
#
# Mechanical properties :
#
#
# Convention : Reuss Voigt Hill
#
# Bulk Modulus (GPa) = 47.39359 58.39175 52.89267
# Shear Modulus (GPa) = 11.71180 18.43143 15.07162
#
# Velocity S-wave (km/s) = 2.51263 3.15207 2.85034
# Velocity P-wave (km/s) = 5.82800 6.68759 6.27253
#
# Compressibility (1/GPa) = 0.02109990
#
# Stress axis : x y z
#
# Youngs Moduli (GPa) = 72.61390 72.61390 49.81828
#
# Poissons Ratio (x) = 0.53671 0.14613
# Poissons Ratio (y) = 0.53671 0.14613
# Poissons Ratio (z) = 0.21300 0.21300
#
# Static dielectric constant tensor:
#      x y z
#    x 3.533810 0.000000 0.000000 
#    y 0.000000 3.533810 0.000000 
#    z 0.000000 0.000000 3.397500 
# 
# 
# High freq. dielectric constant tensor:
#      x y z
#    x 1.716090 0.000000 0.000000 
#    y 0.000000 1.716090 0.000000 
#    z 0.000000 0.000000 1.687070 
# 
# From -- ./inp_files/2633.got.cif
#   From: 2010.03.12/outbox.cif.g09.slc.cpg/sg187_2_cif.got.tgz:2633.got - 2010.04.01 11:58:23.
