data_PCOD8326901
_publ_section_title
;
Structure prediction by ZEFSAII (Michael W. Deem and Ramdas Pophale) SiO2 
 PCOD8326901
Probable space group: P -6 M 2
;
_chemical_formula_sum "Si O2"
_cell_formula_units_Z 30
_cell_length_a 17.549954
_cell_length_b 17.549954
_cell_length_c 7.678592
_cell_angle_alpha 90.000000
_cell_angle_beta 90.000000
_cell_angle_gamma 120.000000
_cell_volume 2048.161455
_symmetry_space_group_name_H-M "P -6 M 2"
_symmetry_group_IT_number 187
_symmetry_cell_setting 'hexagonal'
loop_
_space_group_symop_operation_xyz
x,y,z
-x+y,-x,-z
-y,x-y,z
x,y,-z
-x+y,-x,z
-y,x-y,-z
-y,-x,-z
-x+y,y,-z
x,x-y,-z
-x+y,y,z
x,x-y,z
-y,-x,z
loop_
_atom_site_type_symbol
_atom_site_label
_atom_site_fract_x
_atom_site_fract_y
_atom_site_fract_z
Si Si1 0.757407 0.696274 0.306229
Si Si2 0.497441 0.163794 0.706730
Si Si3 0.819479 0.999101 0.000000
O O1 0.736689 0.718331 0.500000
O O2 0.847636 0.695271 0.311855
O O3 0.682151 0.599098 0.242673
O O4 0.764023 0.769021 0.170963
O O5 0.503740 0.171467 0.500000
O O6 0.572825 0.145650 0.782933
O O7 0.511570 0.255785 0.784204
O O8 0.833828 0.916914 0.000000
O O9 0.914130 0.085871 0.000000
#
# Coordination Sequence:
#
# PCOD8326901 Si02
#       3
#    12  12   6
#     4   8  15  27  40  55  77 102 125 153 192 229
#     4   8  12  19  34  56  81 109 138 161 178 203
#     4  10  19  30  43  56  70  92 126 166 203 238
#
# _framework density 14.647283
#
# number of rings (size 3 to 8) (size 9 to 14) (size 15 to 20)
#    0.000    3.600    0.000    3.000    0.000    2.400 
#    0.000    1.000    0.000    2.400    0.000    2.800 
#    0.000    0.000    0.000    4.800    0.000   31.200 
#
# Total GULP energy -371699.883511 kJ/mol
# GULP energy per Si atom -12389.996117 kJ/mol
# Density = 1.461394 g / cm^3
# Si number density = 14.647283 Si / 1000 Ang^3
#
#
#
# Elastic Constant Matrix: (Units=GPa)
#
#
# Indices 1 2 3 4 5 6 
#
# 1 69.4053 27.9191 32.8751 0.0000 0.0000 0.0000
# 2 27.9191 69.4053 32.8751 0.0000 0.0000 0.0000
# 3 32.8751 32.8751 70.8181 0.0000 0.0000 0.0000
# 4 0.0000 0.0000 0.0000 10.1466 0.0000 0.0000
# 5 0.0000 0.0000 0.0000 0.0000 10.1466 0.0000
# 6 0.0000 0.0000 0.0000 0.0000 0.0000 20.7431
#
#
#
# Elastic Compliance Matrix: (Units=1/GPa)
#
#
# Indices 1 2 3 4 5 6 
#
# 1 0.019537 -0.004567 -0.006949 0.000000 0.000000 0.000000
# 2 -0.004567 0.019537 -0.006949 0.000000 0.000000 0.000000
# 3 -0.006949 -0.006949 0.020573 0.000000 0.000000 0.000000
# 4 0.000000 0.000000 0.000000 0.098555 0.000000 0.000000
# 5 0.000000 0.000000 0.000000 0.000000 0.098555 0.000000
# 6 0.000000 0.000000 0.000000 0.000000 0.000000 0.048209
#
#
# Mechanical properties :
#
#
# Convention : Reuss Voigt Hill
#
# Bulk Modulus (GPa) = 44.02363 44.10751 44.06557
# Shear Modulus (GPa) = 14.30739 15.93786 15.12263
#
# Velocity S-wave (km/s) = 3.12876 3.30223 3.21667
# Velocity P-wave (km/s) = 6.57064 6.68716 6.62916
#
# Compressibility (1/GPa) = 0.02271507
#
# Stress axis : x y z
#
# Youngs Moduli (GPa) = 51.18485 51.18485 48.60836
#
# Poissons Ratio (x) = 0.23378 0.33779
# Poissons Ratio (y) = 0.23378 0.33779
# Poissons Ratio (z) = 0.35569 0.35569
#
# Static dielectric constant tensor:
#      x y z
#    x 2.751160 0.000000 0.000000 
#    y 0.000000 2.751160 0.000000 
#    z 0.000000 0.000000 2.965520 
# 
# 
# High freq. dielectric constant tensor:
#      x y z
#    x 1.524700 0.000000 0.000000 
#    y 0.000000 1.524700 0.000000 
#    z 0.000000 0.000000 1.559640 
# 
# From -- ./inp_files/158.got.cif
#   From: 2010.03.12/outbox.cif.g09.slc.cpg/sg187_1_cif.got.tgz:158.got - 2010.04.01 11:58:23.
