data_PCOD8326175
_publ_section_title
;
Structure prediction by ZEFSAII (Michael W. Deem and Ramdas Pophale) SiO2 
 PCOD8326175
Probable space group: P 62 2 2
;
_chemical_formula_sum "Si O2"
_cell_formula_units_Z 51
_cell_length_a 11.804286
_cell_length_b 11.804286
_cell_length_c 20.118204
_cell_angle_alpha 90.000000
_cell_angle_beta 90.000000
_cell_angle_gamma 120.000000
_cell_volume 2427.723855
_symmetry_space_group_name_H-M "P 62 2 2"
_symmetry_group_IT_number 180
_symmetry_cell_setting 'hexagonal'
loop_
_space_group_symop_operation_xyz
x,y,z
x-y,x,1/3+z
-y,x-y,2/3+z
-x,-y,z
-x+y,-x,1/3+z
y,-x+y,2/3+z
x-y,-y,-z
-x,-x+y,1/3-z
y,x,2/3-z
-y,-x,2/3-z
-x+y,y,-z
x,x-y,1/3-z
loop_
_atom_site_type_symbol
_atom_site_label
_atom_site_fract_x
_atom_site_fract_y
_atom_site_fract_z
Si Si1 0.818955 0.450434 0.594240
Si Si2 0.021036 0.298932 0.505877
Si Si3 0.764245 0.176404 0.571423
Si Si4 0.000000 0.500000 0.166667
Si Si5 0.913591 0.351875 0.959134
O O1 0.868156 0.434078 0.666667
O O2 0.931512 0.578417 0.556747
O O3 0.787049 0.320130 0.555587
O O4 0.683543 0.455728 0.595292
O O5 0.125022 0.250043 0.500000
O O6 0.999627 0.335832 0.431354
O O7 0.885902 0.176949 0.533761
O O8 0.622960 0.081443 0.545178
O O9 0.755795 0.129500 0.648146
O O10 0.000000 0.500000 0.985910
#
# Coordination Sequence:
#
# PCOD8326175 Si02
#       5
#    12  12  12   3  12
#     4   9  20  35  63  94 129 167 212 274 334 393
#     4  10  22  38  66  97 128 175 226 282 340 403
#     4  11  23  41  58  89 134 171 221 272 337 409
#     4  12  28  40  58  88 124 180 218 276 332 392
#     4  10  20  36  57  97 130 171 220 271 346 400
#
# _framework density 21.007332999999999
#
# number of rings (size 3 to 8) (size 9 to 14) (size 15 to 20)
#    0.000    1.882    1.176    2.118    8.235   11.294 
#    0.000    1.765    0.000    0.000    0.000    9.882 
#    0.000    0.000    0.000    0.000    0.000    0.000 
#
# Total GULP energy -631884.116987 kJ/mol
# GULP energy per Si atom -12389.884647 kJ/mol
# Density = 2.095952 g / cm^3
# Si number density = 21.007333 Si / 1000 Ang^3
#
#
#
# Elastic Constant Matrix: (Units=GPa)
#
#
# Indices 1 2 3 4 5 6 
#
# 1 104.9273 49.0800 46.5545 0.0000 0.0000 0.0000
# 2 49.0800 104.9273 46.5545 0.0000 0.0000 0.0000
# 3 46.5545 46.5545 118.9439 0.0000 0.0000 0.0000
# 4 0.0000 0.0000 0.0000 29.8979 0.0000 0.0000
# 5 0.0000 0.0000 0.0000 0.0000 29.8979 0.0000
# 6 0.0000 0.0000 0.0000 0.0000 0.0000 27.9236
#
#
#
# Elastic Compliance Matrix: (Units=1/GPa)
#
#
# Indices 1 2 3 4 5 6 
#
# 1 0.013206 -0.004700 -0.003329 0.000000 0.000000 0.000000
# 2 -0.004700 0.013206 -0.003329 0.000000 0.000000 0.000000
# 3 -0.003329 -0.003329 0.011013 0.000000 0.000000 0.000000
# 4 0.000000 0.000000 0.000000 0.033447 0.000000 0.000000
# 5 0.000000 0.000000 0.000000 0.000000 0.033447 0.000000
# 6 0.000000 0.000000 0.000000 0.000000 0.000000 0.035812
#
#
# Mechanical properties :
#
#
# Convention : Reuss Voigt Hill
#
# Bulk Modulus (GPa) = 67.98804 68.13071 68.05937
# Shear Modulus (GPa) = 29.80600 29.98451 29.89525
#
# Velocity S-wave (km/s) = 3.77083 3.78211 3.77647
# Velocity P-wave (km/s) = 7.16890 7.18155 7.17523
#
# Compressibility (1/GPa) = 0.01470847
#
# Stress axis : x y z
#
# Youngs Moduli (GPa) = 75.72333 75.72333 90.79820
#
# Poissons Ratio (x) = 0.35590 0.30229
# Poissons Ratio (y) = 0.35590 0.30229
# Poissons Ratio (z) = 0.25210 0.25210
#
# Static dielectric constant tensor:
#      x y z
#    x 3.907600 0.000000 0.000000 
#    y 0.000000 3.907600 0.000000 
#    z 0.000000 0.000000 4.064210 
# 
# 
# High freq. dielectric constant tensor:
#      x y z
#    x 1.802170 0.000000 0.000000 
#    y 0.000000 1.802170 0.000000 
#    z 0.000000 0.000000 1.838040 
# 
# From -- ./inp_files/8834.got.cif
#   From: 2010.03.12/outbox.cif.g09.slc.cpg/sg180_5_cif.got.tgz:8834.got - 2010.04.01 11:35:50.
