data_PCOD8326022
_publ_section_title
;
Structure prediction by ZEFSAII (Michael W. Deem and Ramdas Pophale) SiO2 
 PCOD8326022
Probable space group: P 65 2 2
;
_chemical_formula_sum "Si O2"
_cell_formula_units_Z 48
_cell_length_a 15.079294
_cell_length_b 15.079294
_cell_length_c 11.913230
_cell_angle_alpha 90.000000
_cell_angle_beta 90.000000
_cell_angle_gamma 120.000000
_cell_volume 2345.968495
_symmetry_space_group_name_H-M "P 65 2 2"
_symmetry_group_IT_number 179
_symmetry_cell_setting 'hexagonal'
loop_
_space_group_symop_operation_xyz
x,y,z
x-y,x,5/6+z
-y,x-y,2/3+z
-x,-y,1/2+z
-x+y,-x,1/3+z
y,-x+y,1/6+z
x-y,-y,-z
-x,-x+y,1/3-z
y,x,2/3-z
-y,-x,1/6-z
-x+y,y,1/2-z
x,x-y,5/6-z
loop_
_atom_site_type_symbol
_atom_site_label
_atom_site_fract_x
_atom_site_fract_y
_atom_site_fract_z
Si Si1 0.852514 0.862386 0.169084
Si Si2 0.340038 0.444525 0.287951
Si Si3 0.660708 0.242689 0.372568
Si Si4 0.376532 0.145808 0.233521
O O1 0.878570 0.973589 0.214639
O O2 0.907106 0.814211 0.250000
O O3 0.730211 0.794660 0.157130
O O4 0.432852 0.432852 0.333334
O O5 0.378546 0.565117 0.292486
O O6 0.317666 0.403214 0.160197
O O7 0.241343 0.379257 0.367939
O O8 0.617331 0.234662 0.250000
O O9 0.722078 0.361039 0.416667
O O10 0.731448 0.190476 0.368951
#
# Coordination Sequence:
#
# PCOD8326022 Si02
#       4
#    12  12  12  12
#     4  10  22  44  61  88 130 164 217 270 331 392
#     4  10  19  35  60  94 117 159 224 265 318 381
#     4  10  18  38  63  90 130 168 208 266 323 395
#     4  10  20  38  64  88 126 163 213 269 318 398
#
# _framework density 20.460632
#
# number of rings (size 3 to 8) (size 9 to 14) (size 15 to 20)
#    0.000    2.000    5.000    1.500    0.000    0.000 
#   36.000   10.000    0.000    0.000    0.000    0.000 
#    0.000    0.000    0.000    0.000    0.000    0.000 
#
# Total GULP energy -594630.150451 kJ/mol
# GULP energy per Si atom -12388.128134 kJ/mol
# Density = 2.041406 g / cm^3
# Si number density = 20.460632 Si / 1000 Ang^3
#
#
#
# Elastic Constant Matrix: (Units=GPa)
#
#
# Indices 1 2 3 4 5 6 
#
# 1 133.1456 58.0250 51.5193 0.0000 0.0000 0.0000
# 2 58.0250 133.1456 51.5193 0.0000 0.0000 0.0000
# 3 51.5193 51.5193 54.5129 0.0000 0.0000 0.0000
# 4 0.0000 0.0000 0.0000 35.7528 0.0000 0.0000
# 5 0.0000 0.0000 0.0000 0.0000 35.7528 0.0000
# 6 0.0000 0.0000 0.0000 0.0000 0.0000 37.5603
#
#
#
# Elastic Compliance Matrix: (Units=1/GPa)
#
#
# Indices 1 2 3 4 5 6 
#
# 1 0.011987 -0.001325 -0.010077 0.000000 0.000000 0.000000
# 2 -0.001325 0.011987 -0.010077 0.000000 0.000000 0.000000
# 3 -0.010077 -0.010077 0.037391 0.000000 0.000000 0.000000
# 4 0.000000 0.000000 0.000000 0.027970 0.000000 0.000000
# 5 0.000000 0.000000 0.000000 0.000000 0.027970 0.000000
# 6 0.000000 0.000000 0.000000 0.000000 0.000000 0.026624
#
#
# Mechanical properties :
#
#
# Convention : Reuss Voigt Hill
#
# Bulk Modulus (GPa) = 54.32245 71.43679 62.87962
# Shear Modulus (GPa) = 25.90398 32.46253 29.18326
#
# Velocity S-wave (km/s) = 3.56201 3.98752 3.78075
# Velocity P-wave (km/s) = 6.59731 7.49603 7.06098
#
# Compressibility (1/GPa) = 0.01840859
#
# Stress axis : x y z
#
# Youngs Moduli (GPa) = 83.42370 83.42370 26.74465
#
# Poissons Ratio (x) = 0.11053 0.26949
# Poissons Ratio (y) = 0.11053 0.26949
# Poissons Ratio (z) = 0.84062 0.84062
#
# Static dielectric constant tensor:
#      x y z
#    x 3.761350 0.000000 0.000000 
#    y 0.000000 3.761350 0.000000 
#    z 0.000000 0.000000 3.775050 
# 
# 
# High freq. dielectric constant tensor:
#      x y z
#    x 1.785990 0.000000 0.000000 
#    y 0.000000 1.785990 0.000000 
#    z 0.000000 0.000000 1.790120 
# 
# From -- ./inp_files/4224.got.cif
#   From: 2010.03.12/outbox.cif.g09.slc.cpg/sg179_3_cif.got.tgz:4224.got - 2010.04.02 07:08:42.
