data_PCOD8326820
_publ_section_title
;
Structure prediction by ZEFSAII (Michael W. Deem and Ramdas Pophale) SiO2 
 PCOD8326820
Probable space group: P 63 M C
;
_chemical_formula_sum "Si O2"
_cell_formula_units_Z 72
_cell_length_a 25.542461
_cell_length_b 25.542461
_cell_length_c 13.917672
_cell_angle_alpha 90.000000
_cell_angle_beta 90.000000
_cell_angle_gamma 120.000000
_cell_volume 7863.623408
_symmetry_space_group_name_H-M "P 63 M C"
_symmetry_group_IT_number 186
_symmetry_cell_setting 'hexagonal'
loop_
_space_group_symop_operation_xyz
x,y,z
x-y,x,1/2+z
-y,x-y,z
-x,-y,1/2+z
-x+y,-x,z
y,-x+y,1/2+z
-x+y,y,z
x,x-y,z
-y,-x,z
y,x,1/2+z
x-y,-y,1/2+z
-x,-x+y,1/2+z
loop_
_atom_site_type_symbol
_atom_site_label
_atom_site_fract_x
_atom_site_fract_y
_atom_site_fract_z
Si Si1 0.608128 0.516212 0.619710
Si Si2 0.576170 0.027758 0.433450
Si Si3 0.212948 0.667052 0.215265
Si Si4 0.908084 0.516212 0.035157
Si Si5 0.787052 0.454104 0.939601
Si Si6 0.423830 0.972242 0.721417
O O1 0.546659 0.453342 0.627312
O O2 0.619832 0.540638 0.509622
O O3 0.662088 0.505965 0.656183
O O4 0.602199 0.564431 0.687302
O O5 0.512841 0.025682 0.430688
O O6 0.564431 0.962231 0.467566
O O7 0.606327 0.042693 0.327434
O O8 0.225012 0.612506 0.190640
O O9 0.271393 0.728608 0.182864
O O10 0.199076 0.667087 0.327433
O O11 0.906683 0.453342 0.027556
O O12 0.920806 0.540638 0.145245
O O13 0.843877 0.505965 0.998683
O O14 0.728608 0.457215 0.972001
O O15 0.774989 0.387495 0.964226
O O16 0.487159 0.974318 0.724178
#
# Coordination Sequence:
#
# PCOD8326820 Si02
#       6
#    12  12  12  12  12  12
#     4   8  13  19  27  39  51  61  73  90 112 136
#     4   8  12  18  28  40  51  60  70  87 113 141
#     4   9  15  21  28  37  49  64  80  96 113 134
#     4   8  13  19  27  39  51  61  73  90 112 136
#     4   9  15  21  28  37  49  64  80  96 113 134
#     4   8  12  18  28  40  51  60  70  87 113 141
#
# _framework density 9.1560839999999999
#
# number of rings (size 3 to 8) (size 9 to 14) (size 15 to 20)
#    0.000    3.667    0.000    3.333    0.000    5.333 
#    0.000    0.000    0.000    1.000    0.000    0.000 
#    0.000    2.667    0.000    0.000    0.000    0.000 
#
# Total GULP energy -892032.370616 kJ/mol
# GULP energy per Si atom -12389.338481 kJ/mol
# Density = 0.913524 g / cm^3
# Si number density = 9.156084 Si / 1000 Ang^3
#
#
#
# Elastic Constant Matrix: (Units=GPa)
#
#
# Indices 1 2 3 4 5 6 
#
# 1 37.9634 25.5147 27.2404 0.0000 0.0000 0.0000
# 2 25.5147 37.9634 27.2404 0.0000 0.0000 0.0000
# 3 27.2404 27.2404 74.4380 0.0000 0.0000 0.0000
# 4 0.0000 0.0000 0.0000 10.8382 0.0000 0.0000
# 5 0.0000 0.0000 0.0000 0.0000 10.8382 0.0000
# 6 0.0000 0.0000 0.0000 0.0000 0.0000 6.2244
#
#
#
# Elastic Compliance Matrix: (Units=1/GPa)
#
#
# Indices 1 2 3 4 5 6 
#
# 1 0.051648 -0.028681 -0.008405 0.000000 0.000000 0.000000
# 2 -0.028681 0.051648 -0.008405 0.000000 0.000000 0.000000
# 3 -0.008405 -0.008405 0.019585 0.000000 0.000000 0.000000
# 4 0.000000 0.000000 0.000000 0.092266 0.000000 0.000000
# 5 0.000000 0.000000 0.000000 0.000000 0.092266 0.000000
# 6 0.000000 0.000000 0.000000 0.000000 0.000000 0.160659
#
#
# Mechanical properties :
#
#
# Convention : Reuss Voigt Hill
#
# Bulk Modulus (GPa) = 31.34756 34.48398 32.91577
# Shear Modulus (GPa) = 8.77675 10.27146 9.52410
#
# Velocity S-wave (km/s) = 3.09944 3.35299 3.22870
# Velocity P-wave (km/s) = 6.86439 7.26183 7.06591
#
# Compressibility (1/GPa) = 0.03190041
#
# Stress axis : x y z
#
# Youngs Moduli (GPa) = 19.36177 19.36177 51.05856
#
# Poissons Ratio (x) = 0.55532 0.42913
# Poissons Ratio (y) = 0.55532 0.42913
# Poissons Ratio (z) = 0.16273 0.16273
#
# Static dielectric constant tensor:
#      x y z
#    x 1.942810 0.000000 0.000000 
#    y 0.000000 1.942810 0.000000 
#    z 0.000000 0.000000 2.339160 
# 
# 
# High freq. dielectric constant tensor:
#      x y z
#    x 1.307770 0.000000 0.000000 
#    y 0.000000 1.307770 0.000000 
#    z 0.000000 0.000000 1.350820 
# 
# From -- ./inp_files/1949.got.cif
#   From: 2010.03.12/outbox.cif.g09.slc.cpg/sg186_1_cif.got.tgz:1949.got - 2010.04.01 11:56:34.
