data_PCOD8326957
_publ_section_title
;
Structure prediction by ZEFSAII (Michael W. Deem and Ramdas Pophale) SiO2 
 PCOD8326957
Probable space group: P -6 M 2
;
_chemical_formula_sum "Si O2"
_cell_formula_units_Z 66
_cell_length_a 22.334049
_cell_length_b 22.334049
_cell_length_c 7.607657
_cell_angle_alpha 90.000000
_cell_angle_beta 90.000000
_cell_angle_gamma 120.000000
_cell_volume 3286.370206
_symmetry_space_group_name_H-M "P -6 M 2"
_symmetry_group_IT_number 187
_symmetry_cell_setting 'hexagonal'
loop_
_space_group_symop_operation_xyz
x,y,z
-x+y,-x,-z
-y,x-y,z
x,y,-z
-x+y,-x,z
-y,x-y,-z
-y,-x,-z
-x+y,y,-z
x,x-y,-z
-x+y,y,z
x,x-y,z
-y,-x,z
loop_
_atom_site_type_symbol
_atom_site_label
_atom_site_fract_x
_atom_site_fract_y
_atom_site_fract_z
Si Si1 0.799461 0.333788 0.790809
Si Si2 0.864731 0.864349 0.709571
Si Si3 0.018281 0.741751 0.696539
Si Si4 0.332922 0.808162 0.000000
Si Si5 0.139053 0.720298 0.701062
Si Si6 0.381188 0.259912 0.795278
O O1 0.816240 0.408120 0.715011
O O2 0.725019 0.274982 0.718795
O O3 0.858373 0.316550 0.730677
O O4 0.796594 0.333032 0.000000
O O5 0.863893 0.859657 0.500000
O O6 0.928152 0.856303 0.784240
O O7 0.792242 0.803104 0.789423
O O8 0.875125 0.937563 0.772904
O O9 0.045256 0.766774 0.500000
O O10 0.074936 0.726174 0.783317
O O11 0.944779 0.672394 0.687928
O O12 0.330476 0.848100 0.174697
O O13 0.270435 0.729566 0.000000
O O14 0.404047 0.808093 0.000000
O O15 0.125298 0.691423 0.500000
O O16 0.203783 0.796218 0.708595
O O17 0.367545 0.183773 0.753937
O O18 0.371429 0.268699 0.000000
#
# Coordination Sequence:
#
# PCOD8326957 Si02
#       6
#    12  12  12   6  12  12
#     4   8  13  23  41  64  87 113 148 194 247 301
#     4   9  16  26  43  69  99 129 166 216 270 318
#     4  10  19  31  50  72  97 136 179 216 259 318
#     4  10  21  38  62  90 117 146 180 220 270 328
#     4   9  19  36  57  83 115 147 182 227 271 316
#     4   9  18  30  44  66  98 130 165 215 267 315
#
# _framework density 20.082948999999999
#
# number of rings (size 3 to 8) (size 9 to 14) (size 15 to 20)
#    0.000    2.909    0.000    2.636    1.273    5.091 
#    0.000    0.909    0.000    2.727    0.000    0.000 
#    0.000    2.909    0.000    0.000    0.000    0.000 
#
# Total GULP energy -818059.304975 kJ/mol
# GULP energy per Si atom -12394.837954 kJ/mol
# Density = 2.003724 g / cm^3
# Si number density = 20.082949 Si / 1000 Ang^3
#
#
#
# Elastic Constant Matrix: (Units=GPa)
#
#
# Indices 1 2 3 4 5 6 
#
# 1 143.8950 74.0467 26.9083 0.0000 0.0001 0.0000
# 2 74.0467 143.8950 26.9083 0.0000 -0.0001 0.0000
# 3 26.9083 26.9083 50.4223 0.0000 0.0000 0.0000
# 4 0.0000 0.0000 0.0000 15.1472 0.0000 -0.0001
# 5 0.0001 -0.0001 0.0000 0.0000 15.1472 0.0000
# 6 0.0000 0.0000 0.0000 -0.0001 0.0000 34.9242
#
#
#
# Elastic Compliance Matrix: (Units=1/GPa)
#
#
# Indices 1 2 3 4 5 6 
#
# 1 0.009801 -0.004516 -0.002820 0.000000 0.000000 0.000000
# 2 -0.004516 0.009801 -0.002820 0.000000 0.000000 0.000000
# 3 -0.002820 -0.002820 0.022843 0.000000 0.000000 0.000000
# 4 0.000000 0.000000 0.000000 0.066019 0.000000 0.000000
# 5 0.000000 0.000000 0.000000 0.000000 0.066019 0.000000
# 6 0.000000 0.000000 0.000000 0.000000 0.000000 0.028633
#
#
# Mechanical properties :
#
#
# Convention : Reuss Voigt Hill
#
# Bulk Modulus (GPa) = 45.18528 65.99320 55.58924
# Shear Modulus (GPa) = 21.66328 27.06700 24.36514
#
# Velocity S-wave (km/s) = 3.28790 3.67517 3.48692
# Velocity P-wave (km/s) = 6.07963 7.13728 6.62958
#
# Compressibility (1/GPa) = 0.02213110
#
# Stress axis : x y z
#
# Youngs Moduli (GPa) = 102.03292 102.03292 43.77787
#
# Poissons Ratio (x) = 0.46078 0.12347
# Poissons Ratio (y) = 0.46078 0.12347
# Poissons Ratio (z) = 0.28776 0.28776
#
# Static dielectric constant tensor:
#      x y z
#    x 3.719960 0.000000 0.000000 
#    y 0.000000 3.719960 0.000000 
#    z 0.000000 0.000000 3.387570 
# 
# 
# High freq. dielectric constant tensor:
#      x y z
#    x 1.779060 0.000000 0.000000 
#    y 0.000000 1.779060 0.000000 
#    z 0.000000 0.000000 1.756660 
# 
# From -- ./inp_files/757.got.cif
#   From: 2010.03.12/outbox.cif.g09.slc.cpg/sg187_1_cif.got.tgz:757.got - 2010.04.01 11:58:23.
