data_PCOD8326386
_publ_section_title
;
Structure prediction by ZEFSAII (Michael W. Deem and Ramdas Pophale) SiO2 
 PCOD8326386
Probable space group: P 64 2 2
;
_chemical_formula_sum "Si O2"
_cell_formula_units_Z 72
_cell_length_a 14.826214
_cell_length_b 14.826214
_cell_length_c 17.183919
_cell_angle_alpha 90.000000
_cell_angle_beta 90.000000
_cell_angle_gamma 120.000000
_cell_volume 3271.247301
_symmetry_space_group_name_H-M "P 64 2 2"
_symmetry_group_IT_number 181
_symmetry_cell_setting 'hexagonal'
loop_
_space_group_symop_operation_xyz
x,y,z
x-y,x,2/3+z
-y,x-y,1/3+z
-x,-y,z
-x+y,-x,2/3+z
y,-x+y,1/3+z
x-y,-y,-z
-x,-x+y,2/3-z
y,x,1/3-z
-y,-x,1/3-z
-x+y,y,-z
x,x-y,2/3-z
loop_
_atom_site_type_symbol
_atom_site_label
_atom_site_fract_x
_atom_site_fract_y
_atom_site_fract_z
Si Si1 0.158656 0.594540 0.925438
Si Si2 0.086121 0.380271 0.003445
Si Si3 0.615890 0.911664 0.151667
Si Si4 0.395771 0.138083 0.910979
Si Si5 0.773473 0.115418 0.385217
Si Si6 0.757938 0.376054 0.433750
O O1 0.150946 0.575473 0.833334
O O2 0.106078 0.660507 0.951485
O O3 0.280937 0.667161 0.949026
O O4 0.096074 0.485261 0.968527
O O5 0.050927 0.366370 0.093083
O O6 0.199760 0.399519 0.000000
O O7 0.008837 0.271729 0.957010
O O8 0.667582 0.839121 0.129904
O O9 0.493614 0.841235 0.135076
O O10 0.668868 0.014995 0.100167
O O11 0.389429 0.194715 0.833334
O O12 0.513632 0.180610 0.945303
O O13 0.331659 0.155113 0.978521
O O14 0.702424 0.404847 0.500000
#
# Coordination Sequence:
#
# PCOD8326386 Si02
#       6
#    12  12  12  12  12  12
#     4  10  23  41  62  98 141 177 215 263 328 403
#     4  12  25  40  68  94 132 176 221 277 346 408
#     4  11  24  42  65  98 130 179 227 274 336 408
#     4  11  22  40  66  93 132 175 228 271 332 398
#     4  11  25  42  63  96 129 175 223 285 332 395
#     4   9  20  37  61  95 137 171 215 261 314 403
#
# _framework density 22.009951999999998
#
# number of rings (size 3 to 8) (size 9 to 14) (size 15 to 20)
#    0.000    1.333    1.667    4.500    7.000    6.667 
#    0.000    3.333    0.000    2.000    0.000    0.000 
#    0.000    0.000    0.000    0.000    0.000    0.000 
#
# Total GULP energy -892085.273630 kJ/mol
# GULP energy per Si atom -12390.073245 kJ/mol
# Density = 2.195986 g / cm^3
# Si number density = 22.009952 Si / 1000 Ang^3
#
#
#
# Elastic Constant Matrix: (Units=GPa)
#
#
# Indices 1 2 3 4 5 6 
#
# 1 76.4888 37.4029 20.6103 0.0000 0.0000 0.0000
# 2 37.4029 76.4888 20.6103 0.0000 0.0000 0.0000
# 3 20.6103 20.6103 88.5594 0.0000 0.0000 0.0000
# 4 0.0000 0.0000 0.0000 24.0531 0.0000 0.0000
# 5 0.0000 0.0000 0.0000 0.0000 24.0531 0.0000
# 6 0.0000 0.0000 0.0000 0.0000 0.0000 19.5429
#
#
#
# Elastic Compliance Matrix: (Units=1/GPa)
#
#
# Indices 1 2 3 4 5 6 
#
# 1 0.017586 -0.007998 -0.002231 0.000000 0.000000 0.000000
# 2 -0.007998 0.017586 -0.002231 0.000000 0.000000 0.000000
# 3 -0.002231 -0.002231 0.012330 0.000000 0.000000 0.000000
# 4 0.000000 0.000000 0.000000 0.041575 0.000000 0.000000
# 5 0.000000 0.000000 0.000000 0.000000 0.041575 0.000000
# 6 0.000000 0.000000 0.000000 0.000000 0.000000 0.051169
#
#
# Mechanical properties :
#
#
# Convention : Reuss Voigt Hill
#
# Bulk Modulus (GPa) = 44.28558 44.30934 44.29746
# Shear Modulus (GPa) = 23.33495 24.39074 23.86284
#
# Velocity S-wave (km/s) = 3.25960 3.33253 3.29627
# Velocity P-wave (km/s) = 5.85927 5.91463 5.88702
#
# Compressibility (1/GPa) = 0.02258071
#
# Stress axis : x y z
#
# Youngs Moduli (GPa) = 56.86248 56.86248 81.09997
#
# Poissons Ratio (x) = 0.45481 0.18096
# Poissons Ratio (y) = 0.45481 0.18096
# Poissons Ratio (z) = 0.12688 0.12688
#
# Static dielectric constant tensor:
#      x y z
#    x 4.219990 0.000000 0.000000 
#    y 0.000000 4.219990 0.000000 
#    z 0.000000 0.000000 4.412710 
# 
# 
# High freq. dielectric constant tensor:
#      x y z
#    x 1.859520 0.000000 0.000000 
#    y 0.000000 1.859520 0.000000 
#    z 0.000000 0.000000 1.872840 
# 
# From -- ./inp_files/7784.got.cif
#   From: 2010.03.12/outbox.cif.g09.slc.cpg/sg181_4_cif.got.tgz:7784.got - 2010.04.01 11:42:41.
