data_PCOD8326373
_publ_section_title
;
Structure prediction by ZEFSAII (Michael W. Deem and Ramdas Pophale) SiO2 
 PCOD8326373
Probable space group: P 64 2 2
;
_chemical_formula_sum "Si O2"
_cell_formula_units_Z 60
_cell_length_a 17.261758
_cell_length_b 17.261758
_cell_length_c 11.793335
_cell_angle_alpha 90.000000
_cell_angle_beta 90.000000
_cell_angle_gamma 120.000000
_cell_volume 3043.247784
_symmetry_space_group_name_H-M "P 64 2 2"
_symmetry_group_IT_number 181
_symmetry_cell_setting 'hexagonal'
loop_
_space_group_symop_operation_xyz
x,y,z
x-y,x,2/3+z
-y,x-y,1/3+z
-x,-y,z
-x+y,-x,2/3+z
y,-x+y,1/3+z
x-y,-y,-z
-x,-x+y,2/3-z
y,x,1/3-z
-y,-x,1/3-z
-x+y,y,-z
x,x-y,2/3-z
loop_
_atom_site_type_symbol
_atom_site_label
_atom_site_fract_x
_atom_site_fract_y
_atom_site_fract_z
Si Si1 0.906663 0.737711 0.273651
Si Si2 0.103819 0.561979 0.163795
Si Si3 0.826102 0.532685 0.326547
Si Si4 0.399838 0.776000 0.630841
Si Si5 0.861202 0.998026 0.745144
O O1 0.851593 0.631331 0.285805
O O2 0.849678 0.777608 0.334551
O O3 0.000000 0.770562 0.333334
O O4 0.930789 0.771426 0.142996
O O5 0.146981 0.514813 0.233074
O O6 0.131302 0.659360 0.218736
O O7 0.000000 0.500000 0.169883
O O8 0.134658 0.563014 0.035263
O O9 0.720749 0.475430 0.335327
O O10 0.302962 0.697039 0.666667
O O11 0.399421 0.798841 0.500000
O O12 0.886451 0.943226 0.833334
O O13 0.947193 0.052808 0.666667
#
# Coordination Sequence:
#
# PCOD8326373 Si02
#       5
#    12  12  12  12  12
#     4  10  22  37  59  91 125 164 211 270 320 375
#     4  11  23  38  66  97 130 165 217 272 324 388
#     4  11  21  40  67  94 127 169 214 268 326 389
#     4  12  22  43  69  96 127 172 218 259 317 390
#     4  10  22  39  61  88 126 171 224 270 322 385
#
# _framework density 19.715778
#
# number of rings (size 3 to 8) (size 9 to 14) (size 15 to 20)
#    0.000    1.200    4.000    3.600    0.000   14.400 
#    3.600    0.000    4.400    0.000    0.000    0.000 
#    0.000    0.000    0.000    0.000    0.000    0.000 
#
# Total GULP energy -743778.560163 kJ/mol
# GULP energy per Si atom -12396.309336 kJ/mol
# Density = 1.967090 g / cm^3
# Si number density = 19.715778 Si / 1000 Ang^3
#
#
#
# Elastic Constant Matrix: (Units=GPa)
#
#
# Indices 1 2 3 4 5 6 
#
# 1 118.1372 -60.3278 17.6104 0.0000 0.0000 0.0000
# 2 -60.3278 118.1372 17.6104 0.0000 0.0000 0.0000
# 3 17.6104 17.6104 117.8215 0.0000 0.0000 0.0000
# 4 0.0000 0.0000 0.0000 -24.4267 0.0000 0.0000
# 5 0.0000 0.0000 0.0000 0.0000 -24.4267 0.0000
# 6 0.0000 0.0000 0.0000 0.0000 0.0000 89.2325
#
#
#
# Elastic Compliance Matrix: (Units=1/GPa)
#
#
# Indices 1 2 3 4 5 6 
#
# 1 0.012317 0.006714 -0.002845 0.000000 0.000000 0.000000
# 2 0.006714 0.012317 -0.002845 0.000000 0.000000 0.000000
# 3 -0.002845 -0.002845 0.009338 0.000000 0.000000 0.000000
# 4 0.000000 0.000000 0.000000 -0.040939 0.000000 0.000000
# 5 0.000000 0.000000 0.000000 0.000000 -0.040939 0.000000
# 6 0.000000 0.000000 0.000000 0.000000 0.000000 0.011207
#
#
# Mechanical properties :
#
#
# Convention : Reuss Voigt Hill
#
# Bulk Modulus (GPa) = 27.76071 33.76466 30.76268
# Shear Modulus (GPa) = -186.97795 33.35602 -76.81096
#
# Velocity S-wave (km/s) = -9.74898 4.11767 -6.24850
# Velocity P-wave (km/s) = 10.61190 6.30633 6.03501
#
# Compressibility (1/GPa) = 0.03602213
#
# Stress axis : x y z
#
# Youngs Moduli (GPa) = 81.18655 81.18655 107.09226
#
# Poissons Ratio (x) = -0.54508 0.30463
# Poissons Ratio (y) = -0.54508 0.30463
# Poissons Ratio (z) = 0.23094 0.23094
#
# Static dielectric constant tensor:
#      x y z
#    x 3.555920 0.000000 0.000000 
#    y 0.000000 3.555920 0.000000 
#    z 0.000000 0.000000 3.853120 
# 
# 
# High freq. dielectric constant tensor:
#      x y z
#    x 1.761980 0.000000 0.000000 
#    y 0.000000 1.761980 0.000000 
#    z 0.000000 0.000000 1.775480 
# 
# From -- ./inp_files/4865.got.cif
#   From: 2010.03.12/outbox.cif.g09.slc.cpg/sg181_3_cif.got.tgz:4865.got - 2010.04.01 11:42:41.
