data_PCOD8326260
_publ_section_title
;
Structure prediction by ZEFSAII (Michael W. Deem and Ramdas Pophale) SiO2 
 PCOD8326260
Probable space group: P 62 2 2
;
_chemical_formula_sum "Si O2"
_cell_formula_units_Z 36
_cell_length_a 8.716915
_cell_length_b 8.716915
_cell_length_c 25.448618
_cell_angle_alpha 90.000000
_cell_angle_beta 90.000000
_cell_angle_gamma 120.000000
_cell_volume 1674.636130
_symmetry_space_group_name_H-M "P 62 2 2"
_symmetry_group_IT_number 180
_symmetry_cell_setting 'hexagonal'
loop_
_space_group_symop_operation_xyz
x,y,z
x-y,x,1/3+z
-y,x-y,2/3+z
-x,-y,z
-x+y,-x,1/3+z
y,-x+y,2/3+z
x-y,-y,-z
-x,-x+y,1/3-z
y,x,2/3-z
-y,-x,2/3-z
-x+y,y,-z
x,x-y,1/3-z
loop_
_atom_site_type_symbol
_atom_site_label
_atom_site_fract_x
_atom_site_fract_y
_atom_site_fract_z
Si Si1 0.843115 0.033699 0.776115
Si Si2 0.341592 0.828861 0.942353
Si Si3 0.511747 0.172899 0.556597
O O1 0.873723 0.126278 0.833334
O O2 0.834410 0.159426 0.730637
O O3 0.672433 0.841031 0.779007
O O4 0.000000 0.000000 0.759847
O O5 0.293598 0.642335 0.919575
O O6 0.500000 0.000000 0.912045
O O7 0.418187 0.836373 0.000000
O O8 0.590961 0.181922 0.500000
O O9 0.500000 0.000000 0.585275
#
# Coordination Sequence:
#
# PCOD8326260 Si02
#       3
#    12  12  12
#     4  11  22  41  69  99 128 165 215 274 329 385
#     4  11  24  42  61  89 127 170 214 261 318 388
#     4  11  22  39  64  95 127 162 208 265 316 376
#
# _framework density 21.497207
#
# number of rings (size 3 to 8) (size 9 to 14) (size 15 to 20)
#    0.000    1.000    0.000   10.000    0.000    2.667 
#    0.000   10.000    0.000    0.000    0.000    0.000 
#    0.000    0.000    0.000    0.000    0.000    0.000 
#
# Total GULP energy -446116.247955 kJ/mol
# GULP energy per Si atom -12392.117999 kJ/mol
# Density = 2.144828 g / cm^3
# Si number density = 21.497207 Si / 1000 Ang^3
#
#
#
# Elastic Constant Matrix: (Units=GPa)
#
#
# Indices 1 2 3 4 5 6 
#
# 1 207.3315 94.3181 55.1131 0.0000 0.0000 0.0000
# 2 94.3181 207.3315 55.1131 0.0000 0.0000 0.0000
# 3 55.1131 55.1131 71.6800 0.0000 0.0000 0.0000
# 4 0.0000 0.0000 0.0000 28.1431 0.0000 0.0000
# 5 0.0000 0.0000 0.0000 0.0000 28.1431 0.0000
# 6 0.0000 0.0000 0.0000 0.0000 0.0000 56.5067
#
#
#
# Elastic Compliance Matrix: (Units=1/GPa)
#
#
# Indices 1 2 3 4 5 6 
#
# 1 0.006729 -0.002119 -0.003545 0.000000 0.000000 0.000000
# 2 -0.002119 0.006729 -0.003545 0.000000 0.000000 0.000000
# 3 -0.003545 -0.003545 0.019402 0.000000 0.000000 0.000000
# 4 0.000000 0.000000 0.000000 0.035533 0.000000 0.000000
# 5 0.000000 0.000000 0.000000 0.000000 0.035533 0.000000
# 6 0.000000 0.000000 0.000000 0.000000 0.000000 0.017697
#
#
# Mechanical properties :
#
#
# Convention : Reuss Voigt Hill
#
# Bulk Modulus (GPa) = 69.23553 99.49240 84.36397
# Shear Modulus (GPa) = 34.51722 41.34519 37.93120
#
# Velocity S-wave (km/s) = 4.01142 4.39028 4.20512
# Velocity P-wave (km/s) = 7.33021 8.49008 7.93137
#
# Compressibility (1/GPa) = 0.01444345
#
# Stress axis : x y z
#
# Youngs Moduli (GPa) = 148.60012 148.60012 51.54107
#
# Poissons Ratio (x) = 0.31489 0.18271
# Poissons Ratio (y) = 0.31489 0.18271
# Poissons Ratio (z) = 0.52677 0.52677
#
# Static dielectric constant tensor:
#      x y z
#    x -32.148710 0.000000 0.000000 
#    y 0.000000 -32.148710 0.000000 
#    z 0.000000 0.000000 3.487800 
# 
# 
# High freq. dielectric constant tensor:
#      x y z
#    x 1.871470 0.000000 0.000000 
#    y 0.000000 1.871470 0.000000 
#    z 0.000000 0.000000 1.808250 
# 
# From -- ./inp_files/10749.got.cif
#   From: 2010.03.12/outbox.cif.g09.slc.cpg/sg180_6_cif.got.tgz:10749.got - 2010.04.01 11:35:50.
