data_PCOD8326911
_publ_section_title
;
Structure prediction by ZEFSAII (Michael W. Deem and Ramdas Pophale) SiO2 
 PCOD8326911
Probable space group: P -6 M 2
;
_chemical_formula_sum "Si O2"
_cell_formula_units_Z 78
_cell_length_a 23.076730
_cell_length_b 23.076730
_cell_length_c 9.550696
_cell_angle_alpha 90.000000
_cell_angle_beta 90.000000
_cell_angle_gamma 120.000000
_cell_volume 4404.678261
_symmetry_space_group_name_H-M "P -6 M 2"
_symmetry_group_IT_number 187
_symmetry_cell_setting 'hexagonal'
loop_
_space_group_symop_operation_xyz
x,y,z
-x+y,-x,-z
-y,x-y,z
x,y,-z
-x+y,-x,z
-y,x-y,-z
-y,-x,-z
-x+y,y,-z
x,x-y,-z
-x+y,y,z
x,x-y,z
-y,-x,z
loop_
_atom_site_type_symbol
_atom_site_label
_atom_site_fract_x
_atom_site_fract_y
_atom_site_fract_z
Si Si1 0.278999 0.427684 0.254134
Si Si2 0.411598 0.458807 0.152107
Si Si3 0.201029 0.924527 0.337038
Si Si4 0.467815 0.668914 0.500000
Si Si5 0.728081 0.588198 0.160668
Si Si6 0.605553 0.529912 0.660660
Si Si7 0.795634 0.073853 0.663434
O O1 0.215775 0.431549 0.191363
O O2 0.336109 0.445085 0.139946
O O3 0.255213 0.353790 0.311687
O O4 0.316702 0.484227 0.369441
O O5 0.463100 0.536901 0.183997
O O6 0.417734 0.413918 0.273376
O O7 0.428237 0.439454 0.000000
O O8 0.189567 0.924711 0.500000
O O9 0.129598 0.870403 0.267094
O O10 0.224948 0.999416 0.281530
O O11 0.407331 0.592670 0.500000
O O12 0.437754 0.718877 0.500000
O O13 0.782198 0.564395 0.164228
O O14 0.664685 0.532342 0.246267
O O15 0.754135 0.657585 0.240866
O O16 0.710229 0.595445 0.000000
O O17 0.627563 0.550702 0.500000
O O18 0.544939 0.455062 0.671370
O O19 0.776001 0.073034 0.500000
O O20 0.875322 0.124679 0.684308
#
# Coordination Sequence:
#
# PCOD8326911 Si02
#       7
#    12  12  12   6  12  12  12
#     4  10  19  30  46  68  92 123 163 204 253 305
#     4  10  21  35  50  70  97 129 163 204 256 307
#     4   9  16  28  45  67  96 126 157 196 243 294
#     4  10  19  30  44  64  89 118 156 206 258 306
#     4  10  20  33  51  76 105 136 165 198 245 295
#     4  10  21  35  53  77 102 131 167 206 248 293
#     4   9  17  29  48  73  98 128 167 207 246 292
#
# _framework density 17.708445000000001
#
# number of rings (size 3 to 8) (size 9 to 14) (size 15 to 20)
#    0.000    2.308    0.769    2.385    1.077    3.385 
#    0.000    0.000    0.000    2.308    0.000    2.154 
#    0.000    0.000    0.000    0.000    0.000    0.154 
#
# Total GULP energy -966564.727207 kJ/mol
# GULP energy per Si atom -12391.855477 kJ/mol
# Density = 1.766814 g / cm^3
# Si number density = 17.708445 Si / 1000 Ang^3
#
#
#
# Elastic Constant Matrix: (Units=GPa)
#
#
# Indices 1 2 3 4 5 6 
#
# 1 107.9370 54.2091 39.9244 0.0000 0.0001 0.0000
# 2 54.2091 107.9370 39.9244 0.0000 -0.0001 0.0000
# 3 39.9244 39.9244 98.7504 0.0000 0.0000 0.0000
# 4 0.0000 0.0000 0.0000 19.1022 0.0000 -0.0001
# 5 0.0001 -0.0001 0.0000 0.0000 19.1022 0.0000
# 6 0.0000 0.0000 0.0000 -0.0001 0.0000 26.8639
#
#
#
# Elastic Compliance Matrix: (Units=1/GPa)
#
#
# Indices 1 2 3 4 5 6 
#
# 1 0.013156 -0.005456 -0.003113 0.000000 0.000000 0.000000
# 2 -0.005456 0.013156 -0.003113 0.000000 0.000000 0.000000
# 3 -0.003113 -0.003113 0.012644 0.000000 0.000000 0.000000
# 4 0.000000 0.000000 0.000000 0.052350 0.000000 0.000000
# 5 0.000000 0.000000 0.000000 0.000000 0.052350 0.000000
# 6 0.000000 0.000000 0.000000 0.000000 0.000000 0.037225
#
#
# Mechanical properties :
#
#
# Convention : Reuss Voigt Hill
#
# Bulk Modulus (GPa) = 64.13663 64.74890 64.44276
# Shear Modulus (GPa) = 23.87284 25.05146 24.46215
#
# Velocity S-wave (km/s) = 3.67564 3.76528 3.72073
# Velocity P-wave (km/s) = 7.36956 7.45294 7.41137
#
# Compressibility (1/GPa) = 0.01559171
#
# Stress axis : x y z
#
# Youngs Moduli (GPa) = 76.00893 76.00893 79.08971
#
# Poissons Ratio (x) = 0.41470 0.24622
# Poissons Ratio (y) = 0.41470 0.24622
# Poissons Ratio (z) = 0.23663 0.23663
#
# Static dielectric constant tensor:
#      x y z
#    x 3.432930 0.000000 0.000000 
#    y 0.000000 3.432930 0.000000 
#    z 0.000000 0.000000 3.235950 
# 
# 
# High freq. dielectric constant tensor:
#      x y z
#    x 1.677650 0.000000 0.000000 
#    y 0.000000 1.677650 0.000000 
#    z 0.000000 0.000000 1.676590 
# 
# From -- ./inp_files/1148.got.cif
#   From: 2010.03.12/outbox.cif.g09.slc.cpg/sg187_1_cif.got.tgz:1148.got - 2010.04.01 11:58:23.
