data_PCOD8326342
_publ_section_title
;
Structure prediction by ZEFSAII (Michael W. Deem and Ramdas Pophale) SiO2 
 PCOD8326342
Probable space group: P 64 2 2
;
_chemical_formula_sum "Si O2"
_cell_formula_units_Z 84
_cell_length_a 15.320944
_cell_length_b 15.320944
_cell_length_c 21.768615
_cell_angle_alpha 90.000000
_cell_angle_beta 90.000000
_cell_angle_gamma 120.000000
_cell_volume 4425.195688
_symmetry_space_group_name_H-M "P 64 2 2"
_symmetry_group_IT_number 181
_symmetry_cell_setting 'hexagonal'
loop_
_space_group_symop_operation_xyz
x,y,z
x-y,x,2/3+z
-y,x-y,1/3+z
-x,-y,z
-x+y,-x,2/3+z
y,-x+y,1/3+z
x-y,-y,-z
-x,-x+y,2/3-z
y,x,1/3-z
-y,-x,1/3-z
-x+y,y,-z
x,x-y,2/3-z
loop_
_atom_site_type_symbol
_atom_site_label
_atom_site_fract_x
_atom_site_fract_y
_atom_site_fract_z
Si Si1 0.558886 0.374861 0.309827
Si Si2 0.087074 0.251271 0.282350
Si Si3 0.424568 0.030284 0.252124
Si Si4 0.073985 0.115240 0.070606
Si Si5 0.402385 0.295650 0.016710
Si Si6 0.607131 0.672734 0.219406
Si Si7 0.100703 0.807382 0.516988
O O1 0.590652 0.295326 0.333334
O O2 0.489787 0.386704 0.359774
O O3 0.658320 0.481580 0.296224
O O4 0.497533 0.341509 0.245719
O O5 0.134164 0.185715 0.255014
O O6 0.174732 0.350802 0.314949
O O7 0.053476 0.279073 0.218366
O O8 0.000000 0.192888 0.333334
O O9 0.380783 0.083356 0.209912
O O10 0.500000 0.000000 0.216739
O O11 0.329513 0.930718 0.280496
O O12 0.048865 0.188266 0.111299
O O13 0.069266 0.138531 0.000000
O O14 0.000000 0.000000 0.089853
O O15 0.339002 0.330168 0.058879
O O16 0.590955 0.590955 0.166667
O O17 0.666420 0.780614 0.185742
#
# Coordination Sequence:
#
# PCOD8326342 Si02
#       7
#    12  12  12  12  12  12  12
#     4  10  20  35  61  91 123 157 190 240 316 390
#     4  12  24  41  55  84 122 167 212 253 307 374
#     4   9  20  37  60  88 117 155 198 246 304 374
#     4  11  22  38  56  88 126 164 203 258 307 374
#     4  10  21  37  56  87 123 156 194 249 303 378
#     4  11  19  34  56  95 131 152 189 245 329 383
#     4  12  22  36  64  87 124 166 208 260 311 371
#
# _framework density 18.982209999999998
#
# number of rings (size 3 to 8) (size 9 to 14) (size 15 to 20)
#    0.000    1.286    5.714    2.571    2.000    2.286 
#    0.000    0.000    3.143    0.000    0.000    0.000 
#    0.000    0.000    0.000    0.000    0.000    0.000 
#
# Total GULP energy -1040879.255151 kJ/mol
# GULP energy per Si atom -12391.419704 kJ/mol
# Density = 1.893901 g / cm^3
# Si number density = 18.982210 Si / 1000 Ang^3
#
#
#
# Elastic Constant Matrix: (Units=GPa)
#
#
# Indices 1 2 3 4 5 6 
#
# 1 81.8428 57.5462 34.8527 0.0000 0.0000 0.0000
# 2 57.5462 81.8428 34.8527 0.0000 0.0000 0.0000
# 3 34.8527 34.8527 82.0402 0.0000 0.0000 0.0000
# 4 0.0000 0.0000 0.0000 16.5957 0.0000 0.0000
# 5 0.0000 0.0000 0.0000 0.0000 16.5957 0.0000
# 6 0.0000 0.0000 0.0000 0.0000 0.0000 12.1483
#
#
#
# Elastic Compliance Matrix: (Units=1/GPa)
#
#
# Indices 1 2 3 4 5 6 
#
# 1 0.025134 -0.016024 -0.003870 0.000000 0.000000 0.000000
# 2 -0.016024 0.025134 -0.003870 0.000000 0.000000 0.000000
# 3 -0.003870 -0.003870 0.015477 0.000000 0.000000 0.000000
# 4 0.000000 0.000000 0.000000 0.060257 0.000000 0.000000
# 5 0.000000 0.000000 0.000000 0.000000 0.060257 0.000000
# 6 0.000000 0.000000 0.000000 0.000000 0.000000 0.082316
#
#
# Mechanical properties :
#
#
# Convention : Reuss Voigt Hill
#
# Bulk Modulus (GPa) = 54.89553 55.58102 55.23828
# Shear Modulus (GPa) = 15.51955 16.96622 16.24289
#
# Velocity S-wave (km/s) = 2.86244 2.99289 2.92839
# Velocity P-wave (km/s) = 6.31720 6.42552 6.37159
#
# Compressibility (1/GPa) = 0.01821642
#
# Stress axis : x y z
#
# Youngs Moduli (GPa) = 39.78716 39.78716 64.61114
#
# Poissons Ratio (x) = 0.63756 0.25004
# Poissons Ratio (y) = 0.63756 0.25004
# Poissons Ratio (z) = 0.15397 0.15397
#
# Static dielectric constant tensor:
#      x y z
#    x 3.424660 0.000000 0.000000 
#    y 0.000000 3.424660 0.000000 
#    z 0.000000 0.000000 1.621710 
# 
# 
# High freq. dielectric constant tensor:
#      x y z
#    x 1.723630 0.000000 0.000000 
#    y 0.000000 1.723630 0.000000 
#    z 0.000000 0.000000 1.726090 
# 
# From -- ./inp_files/10221.got.cif
#   From: 2010.03.12/outbox.cif.g09.slc.cpg/sg181_6_cif.got.tgz:10221.got - 2010.04.01 11:42:41.
