data_PCOD8326916
_publ_section_title
;
Structure prediction by ZEFSAII (Michael W. Deem and Ramdas Pophale) SiO2 
 PCOD8326916
Probable space group: P -6 M 2
;
_chemical_formula_sum "Si O2"
_cell_formula_units_Z 96
_cell_length_a 17.555993
_cell_length_b 17.555993
_cell_length_c 22.791801
_cell_angle_alpha 90.000000
_cell_angle_beta 90.000000
_cell_angle_gamma 120.000000
_cell_volume 6083.591915
_symmetry_space_group_name_H-M "P -6 M 2"
_symmetry_group_IT_number 187
_symmetry_cell_setting 'hexagonal'
loop_
_space_group_symop_operation_xyz
x,y,z
-x+y,-x,-z
-y,x-y,z
x,y,-z
-x+y,-x,z
-y,x-y,-z
-y,-x,-z
-x+y,y,-z
x,x-y,-z
-x+y,y,z
x,x-y,z
-y,-x,z
loop_
_atom_site_type_symbol
_atom_site_label
_atom_site_fract_x
_atom_site_fract_y
_atom_site_fract_z
Si Si1 0.823856 0.000319 0.933554
Si Si2 0.590683 0.008426 0.242129
Si Si3 0.333410 0.489877 0.676511
Si Si4 0.272178 0.899287 0.566627
Si Si5 0.495257 0.333824 0.335650
Si Si6 0.835872 0.334753 0.933437
Si Si7 0.336775 0.080858 0.149480
Si Si8 0.905049 0.262526 0.566801
O O1 0.815568 0.907784 0.919151
O O2 0.767146 0.014686 0.884088
O O3 0.790130 0.001325 0.000000
O O4 0.925157 0.074844 0.928161
O O5 0.501626 0.003252 0.214840
O O6 0.632776 0.088137 0.286674
O O7 0.668361 0.026410 0.196974
O O8 0.564668 0.917789 0.275189
O O9 0.242007 0.484014 0.693905
O O10 0.409134 0.590867 0.675473
O O11 0.329649 0.451492 0.611518
O O12 0.302545 0.894600 0.500000
O O13 0.169130 0.830871 0.575266
O O14 0.283720 0.994703 0.580365
O O15 0.487514 0.243757 0.312969
O O16 0.596456 0.403545 0.347787
O O17 0.444207 0.321862 0.395958
O O18 0.853860 0.426930 0.906182
O O19 0.731991 0.268010 0.929612
O O20 0.889081 0.299460 0.898975
O O21 0.868958 0.347525 0.000000
O O22 0.333334 0.166667 0.174798
O O23 0.894083 0.283068 0.500000
O O24 0.841301 0.158700 0.581231
#
# Coordination Sequence:
#
# PCOD8326916 Si02
#       8
#    12  12  12  12  12  12  12  12
#     4   9  17  30  49  72  96 120 146 178 221 272
#     4  10  20  33  47  64  88 121 158 191 224 263
#     4  10  20  34  50  69  91 117 147 183 227 276
#     4   9  17  30  49  72  95 118 146 183 230 283
#     4  10  19  31  45  63  88 120 157 194 230 269
#     4   9  16  26  41  62  89 120 151 182 218 261
#     4  10  19  30  45  66  91 119 151 189 225 258
#     4   9  17  29  46  68  93 121 152 188 231 277
#
# _framework density 15.780151
#
# number of rings (size 3 to 8) (size 9 to 14) (size 15 to 20)
#    0.000    2.500    1.250    1.625    0.000    3.500 
#    0.000    1.250    0.000    5.750    0.000    1.750 
#    0.000    0.000    0.000    0.000    0.000    6.625 
#
# Total GULP energy -1189797.352512 kJ/mol
# GULP energy per Si atom -12393.722422 kJ/mol
# Density = 1.574423 g / cm^3
# Si number density = 15.780151 Si / 1000 Ang^3
#
#
#
# Elastic Constant Matrix: (Units=GPa)
#
#
# Indices 1 2 3 4 5 6 
#
# 1 104.3959 58.9117 51.0980 0.0000 0.0000 0.0000
# 2 58.9117 104.3959 51.0980 0.0000 0.0000 0.0000
# 3 51.0980 51.0980 73.3455 0.0000 0.0000 0.0000
# 4 0.0000 0.0000 0.0000 24.9209 0.0000 0.0000
# 5 0.0000 0.0000 0.0000 0.0000 24.9209 0.0000
# 6 0.0000 0.0000 0.0000 0.0000 0.0000 22.7421
#
#
#
# Elastic Compliance Matrix: (Units=1/GPa)
#
#
# Indices 1 2 3 4 5 6 
#
# 1 0.016421 -0.005565 -0.007564 0.000000 0.000000 0.000000
# 2 -0.005565 0.016421 -0.007564 0.000000 0.000000 0.000000
# 3 -0.007564 -0.007564 0.024173 0.000000 0.000000 0.000000
# 4 0.000000 0.000000 0.000000 0.040127 0.000000 0.000000
# 5 0.000000 0.000000 0.000000 0.000000 0.040127 0.000000
# 6 0.000000 0.000000 0.000000 0.000000 0.000000 0.043971
#
#
# Mechanical properties :
#
#
# Convention : Reuss Voigt Hill
#
# Bulk Modulus (GPa) = 63.97202 67.15033 65.56117
# Shear Modulus (GPa) = 21.94582 22.58543 22.26563
#
# Velocity S-wave (km/s) = 3.73329 3.78730 3.76039
# Velocity P-wave (km/s) = 7.69485 7.85945 7.77759
#
# Compressibility (1/GPa) = 0.01563183
#
# Stress axis : x y z
#
# Youngs Moduli (GPa) = 60.89722 60.89722 41.36892
#
# Poissons Ratio (x) = 0.33887 0.31289
# Poissons Ratio (y) = 0.33887 0.31289
# Poissons Ratio (z) = 0.46060 0.46060
#
# Static dielectric constant tensor:
#      x y z
#    x 3.077400 0.000000 0.000000 
#    y 0.000000 3.077400 0.000000 
#    z 0.000000 0.000000 3.005190 
# 
# 
# High freq. dielectric constant tensor:
#      x y z
#    x 1.603140 0.000000 0.000000 
#    y 0.000000 1.603140 0.000000 
#    z 0.000000 0.000000 1.599010 
# 
# From -- ./inp_files/3757.got.cif
#   From: 2010.03.12/outbox.cif.g09.slc.cpg/sg187_2_cif.got.tgz:3757.got - 2010.04.01 11:58:23.
