data_PCOD8326978
_publ_section_title
;
Structure prediction by ZEFSAII (Michael W. Deem and Ramdas Pophale) SiO2 
 PCOD8326978
Probable space group: P -6 M 2
;
_chemical_formula_sum "Si O2"
_cell_formula_units_Z 72
_cell_length_a 22.584270
_cell_length_b 22.584270
_cell_length_c 9.280542
_cell_angle_alpha 90.000000
_cell_angle_beta 90.000000
_cell_angle_gamma 120.000000
_cell_volume 4099.360261
_symmetry_space_group_name_H-M "P -6 M 2"
_symmetry_group_IT_number 187
_symmetry_cell_setting 'hexagonal'
loop_
_space_group_symop_operation_xyz
x,y,z
-x+y,-x,-z
-y,x-y,z
x,y,-z
-x+y,-x,z
-y,x-y,-z
-y,-x,-z
-x+y,y,-z
x,x-y,-z
-x+y,y,z
x,x-y,z
-y,-x,z
loop_
_atom_site_type_symbol
_atom_site_label
_atom_site_fract_x
_atom_site_fract_y
_atom_site_fract_z
Si Si1 0.732189 0.798115 0.167037
Si Si2 0.865108 0.000516 0.330775
Si Si3 0.340858 0.939187 0.170015
Si Si4 0.461834 0.398616 0.665684
Si Si5 0.333169 0.800324 0.828587
Si Si6 0.666869 0.196995 0.166947
O O1 0.717279 0.858640 0.206683
O O2 0.797202 0.806109 0.254257
O O3 0.666032 0.728462 0.212704
O O4 0.748971 0.798739 0.000000
O O5 0.854722 0.001872 0.500000
O O6 0.929153 0.070848 0.276222
O O7 0.878808 0.939404 0.287127
O O8 0.335416 0.869022 0.224728
O O9 0.401121 0.000994 0.252848
O O10 0.355437 0.949058 0.000000
O O11 0.442047 0.378376 0.500000
O O12 0.527434 0.472567 0.682555
O O13 0.475758 0.342111 0.738383
O O14 0.399561 0.799121 0.768849
O O15 0.265244 0.734757 0.766602
O O16 0.331806 0.797645 0.000000
O O17 0.606935 0.213869 0.198700
O O18 0.737552 0.262449 0.213229
O O19 0.667149 0.178518 0.000000
#
# Coordination Sequence:
#
# PCOD8326978 Si02
#       6
#    12  12  12  12  12  12
#     4   9  18  32  49  71  99 127 158 200 245 288
#     4   9  17  30  49  72  97 125 158 197 242 292
#     4  10  19  32  51  72  95 129 169 203 239 286
#     4  10  21  35  50  71 100 131 164 204 245 284
#     4   9  16  26  44  72 102 127 154 195 247 298
#     4   9  17  31  53  79 104 129 159 197 242 292
#
# _framework density 17.563717
#
# number of rings (size 3 to 8) (size 9 to 14) (size 15 to 20)
#    0.000    2.667    0.000    2.000    0.000    7.000 
#    0.000    0.833    0.000    4.500    0.000    0.000 
#    0.000    1.333    0.000    0.000    0.000    0.000 
#
# Total GULP energy -892910.002160 kJ/mol
# GULP energy per Si atom -12401.527808 kJ/mol
# Density = 1.752374 g / cm^3
# Si number density = 17.563717 Si / 1000 Ang^3
#
#
#
# Elastic Constant Matrix: (Units=GPa)
#
#
# Indices 1 2 3 4 5 6 
#
# 1 140.3332 84.4362 49.7609 0.0000 -0.0003 0.0000
# 2 84.4362 140.3332 49.7609 0.0000 0.0003 0.0000
# 3 49.7609 49.7609 48.2276 0.0000 0.0000 0.0000
# 4 0.0000 0.0000 0.0000 20.5646 0.0000 0.0003
# 5 -0.0003 0.0003 0.0000 0.0000 20.5646 0.0000
# 6 0.0000 0.0000 0.0000 0.0003 0.0000 27.9485
#
#
#
# Elastic Compliance Matrix: (Units=1/GPa)
#
#
# Indices 1 2 3 4 5 6 
#
# 1 0.013041 -0.004849 -0.008452 0.000000 0.000000 0.000000
# 2 -0.004849 0.013041 -0.008452 0.000000 0.000000 0.000000
# 3 -0.008452 -0.008452 0.038176 0.000000 0.000000 0.000000
# 4 0.000000 0.000000 0.000000 0.048627 0.000000 -0.000001
# 5 0.000000 0.000000 0.000000 0.000000 0.048627 0.000000
# 6 0.000000 0.000000 0.000000 -0.000001 0.000000 0.035780
#
#
# Mechanical properties :
#
#
# Convention : Reuss Voigt Hill
#
# Bulk Modulus (GPa) = 48.18911 77.42334 62.80622
# Shear Modulus (GPa) = 20.18460 23.47793 21.83127
#
# Velocity S-wave (km/s) = 3.39369 3.66010 3.52941
# Velocity P-wave (km/s) = 6.54618 7.87647 7.24194
#
# Compressibility (1/GPa) = 0.02075158
#
# Stress axis : x y z
#
# Youngs Moduli (GPa) = 76.68366 76.68366 26.19480
#
# Poissons Ratio (x) = 0.37187 0.22139
# Poissons Ratio (y) = 0.37187 0.22139
# Poissons Ratio (z) = 0.64810 0.64810
#
# Static dielectric constant tensor:
#      x y z
#    x 3.348200 0.000000 0.000000 
#    y 0.000000 3.348200 0.000000 
#    z 0.000000 0.000000 3.070850 
# 
# 
# High freq. dielectric constant tensor:
#      x y z
#    x 1.681960 0.000000 0.000000 
#    y 0.000000 1.681960 0.000000 
#    z 0.000000 0.000000 1.655390 
# 
# From -- ./inp_files/963.got.cif
#   From: 2010.03.12/outbox.cif.g09.slc.cpg/sg187_1_cif.got.tgz:963.got - 2010.04.01 11:58:23.
