data_PCOD8326558
_publ_section_title
;
Structure prediction by ZEFSAII (Michael W. Deem and Ramdas Pophale) SiO2 
 PCOD8326558
Probable space group: P 6 C C
;
_chemical_formula_sum "Si O2"
_cell_formula_units_Z 72
_cell_length_a 17.506669
_cell_length_b 17.506669
_cell_length_c 16.427291
_cell_angle_alpha 90.000000
_cell_angle_beta 90.000000
_cell_angle_gamma 120.000000
_cell_volume 4360.172017
_symmetry_space_group_name_H-M "P 6 C C"
_symmetry_group_IT_number 184
_symmetry_cell_setting 'hexagonal'
loop_
_space_group_symop_operation_xyz
x,y,z
x-y,x,z
-y,x-y,z
-x,-y,z
-x+y,-x,z
y,-x+y,z
-x+y,y,1/2+z
x,x-y,1/2+z
-y,-x,1/2+z
y,x,1/2+z
x-y,-y,1/2+z
-x,-x+y,1/2+z
loop_
_atom_site_type_symbol
_atom_site_label
_atom_site_fract_x
_atom_site_fract_y
_atom_site_fract_z
Si Si1 0.901987 0.268686 0.846200
Si Si2 0.812573 0.456593 0.784949
Si Si3 0.366699 0.098013 0.377240
Si Si4 0.490884 0.172844 0.517897
Si Si5 0.490884 0.318039 0.205543
Si Si6 0.456593 0.644020 0.438491
O O1 0.834511 0.165489 0.861720
O O2 0.890997 0.291726 0.753180
O O3 0.883887 0.330162 0.907315
O O4 0.000000 0.286599 0.861720
O O5 0.883887 0.553725 0.816125
O O6 0.857573 0.421377 0.719634
O O7 0.733437 0.461786 0.741736
O O8 0.778581 0.389290 0.861720
O O9 0.400729 0.109003 0.470261
O O10 0.466382 0.170148 0.611720
O O11 0.538213 0.271651 0.481704
O O12 0.563804 0.142427 0.503807
#
# Coordination Sequence:
#
# PCOD8326558 Si02
#       6
#    12  12  12  12  12  12
#     4   9  19  35  51  65  87 120 153 187 239 299
#     4   9  17  28  44  65  96 133 165 188 218 261
#     4   9  19  35  51  65  87 120 153 187 239 299
#     4  10  18  28  44  70  98 130 167 201 223 249
#     4  10  18  28  44  70  98 130 167 201 223 249
#     4   9  17  28  44  65  96 133 165 188 218 261
#
# _framework density 16.513109
#
# number of rings (size 3 to 8) (size 9 to 14) (size 15 to 20)
#    0.000    2.667    0.000    4.667    0.000   10.000 
#    0.000   10.000    0.000    0.333    0.000    0.000 
#    0.000    0.000    0.000   12.000    0.000    0.000 
#
# Total GULP energy -892230.921205 kJ/mol
# GULP energy per Si atom -12392.096128 kJ/mol
# Density = 1.647552 g / cm^3
# Si number density = 16.513109 Si / 1000 Ang^3
#
#
#
# Elastic Constant Matrix: (Units=GPa)
#
#
# Indices 1 2 3 4 5 6 
#
# 1 84.5251 53.9401 39.4122 0.0000 0.0000 0.0000
# 2 53.9401 84.5251 39.4122 0.0000 0.0000 0.0000
# 3 39.4122 39.4122 109.2966 0.0000 0.0000 0.0000
# 4 0.0000 0.0000 0.0000 8.9956 0.0000 0.0000
# 5 0.0000 0.0000 0.0000 0.0000 8.9956 0.0000
# 6 0.0000 0.0000 0.0000 0.0000 0.0000 15.2925
#
#
#
# Elastic Compliance Matrix: (Units=1/GPa)
#
#
# Indices 1 2 3 4 5 6 
#
# 1 0.020892 -0.011804 -0.003277 0.000000 0.000000 0.000000
# 2 -0.011804 0.020892 -0.003277 0.000000 0.000000 0.000000
# 3 -0.003277 -0.003277 0.011513 0.000000 0.000000 0.000000
# 4 0.000000 0.000000 0.000000 0.111165 0.000000 0.000000
# 5 0.000000 0.000000 0.000000 0.000000 0.111165 0.000000
# 6 0.000000 0.000000 0.000000 0.000000 0.000000 0.065392
#
#
# Mechanical properties :
#
#
# Convention : Reuss Voigt Hill
#
# Bulk Modulus (GPa) = 60.31374 60.43067 60.37221
# Shear Modulus (GPa) = 13.04594 16.36223 14.70409
#
# Velocity S-wave (km/s) = 2.81381 3.15121 2.98728
# Velocity P-wave (km/s) = 6.86737 7.06507 6.96692
#
# Compressibility (1/GPa) = 0.01657997
#
# Stress axis : x y z
#
# Youngs Moduli (GPa) = 47.86605 47.86605 86.86034
#
# Poissons Ratio (x) = 0.56502 0.28464
# Poissons Ratio (y) = 0.56502 0.28464
# Poissons Ratio (z) = 0.15685 0.15685
#
# Static dielectric constant tensor:
#      x y z
#    x 2.803730 0.000000 0.000000 
#    y 0.000000 2.803730 0.000000 
#    z 0.000000 0.000000 3.192270 
# 
# 
# High freq. dielectric constant tensor:
#      x y z
#    x 1.600780 0.000000 0.000000 
#    y 0.000000 1.600780 0.000000 
#    z 0.000000 0.000000 1.634370 
# 
# From -- ./inp_files/1118.got.cif
#   From: 2010.03.12/outbox.cif.g09.slc.cpg/sg184_cif.got.tgz:1118.got - 2010.04.01 11:54:36.
