data_PCOD8326485
_publ_section_title
;
Structure prediction by ZEFSAII (Michael W. Deem and Ramdas Pophale) SiO2 
 PCOD8326485
Probable space group: P 63 2 2
;
_chemical_formula_sum "Si O2"
_cell_formula_units_Z 84
_cell_length_a 18.152753
_cell_length_b 18.152753
_cell_length_c 14.657608
_cell_angle_alpha 90.000000
_cell_angle_beta 90.000000
_cell_angle_gamma 120.000000
_cell_volume 4182.912031
_symmetry_space_group_name_H-M "P 63 2 2"
_symmetry_group_IT_number 182
_symmetry_cell_setting 'hexagonal'
loop_
_space_group_symop_operation_xyz
x,y,z
x-y,x,1/2+z
-y,x-y,z
-x,-y,1/2+z
-x+y,-x,z
y,-x+y,1/2+z
x-y,-y,-z
-x,-x+y,-z
y,x,-z
-y,-x,1/2-z
-x+y,y,1/2-z
x,x-y,1/2-z
loop_
_atom_site_type_symbol
_atom_site_label
_atom_site_fract_x
_atom_site_fract_y
_atom_site_fract_z
Si Si1 0.528166 0.756418 0.519683
Si Si2 0.206164 0.871054 0.378637
Si Si3 0.949589 0.663670 0.704003
Si Si4 0.518363 0.540853 0.146820
Si Si5 0.319223 0.189237 0.347108
Si Si6 0.426363 0.864650 0.980340
Si Si7 0.091383 0.188915 0.514186
O O1 0.574018 0.753134 0.427611
O O2 0.599289 0.815149 0.591464
O O3 0.467487 0.795593 0.502596
O O4 0.473309 0.659190 0.553613
O O5 0.281142 0.944659 0.315316
O O6 0.126026 0.804676 0.322126
O O7 0.168240 0.912872 0.445528
O O8 0.937334 0.578573 0.658545
O O9 0.035217 0.735368 0.660842
O O10 0.491485 0.508516 0.250000
O O11 0.564838 0.493888 0.100857
O O12 0.445710 0.531793 0.075991
O O13 0.343585 0.171793 0.250000
O O14 0.233915 0.108278 0.386932
O O15 0.164958 0.164958 0.500000
O O16 0.000000 0.104133 0.500000
#
# Coordination Sequence:
#
# PCOD8326485 Si02
#       7
#    12  12  12  12  12  12  12
#     4  11  23  42  63  92 129 172 215 266 328 393
#     4  10  22  38  68  95 125 166 213 274 321 386
#     4  11  20  40  68  94 125 160 220 262 327 394
#     4  11  24  42  67  95 131 168 217 274 333 394
#     4  11  24  40  65  92 128 165 219 270 328 388
#     4  11  24  42  65  93 131 172 219 269 332 400
#     4  11  22  40  60  89 128 169 213 260 325 388
#
# _framework density 20.081703000000001
#
# number of rings (size 3 to 8) (size 9 to 14) (size 15 to 20)
#    0.000    1.143    4.286    2.143    2.000    0.000 
#   10.286    0.000    0.000    1.714    0.000    0.000 
#    0.000    0.000    0.000    0.000    0.000    0.000 
#
# Total GULP energy -1040919.033427 kJ/mol
# GULP energy per Si atom -12391.893255 kJ/mol
# Density = 2.003600 g / cm^3
# Si number density = 20.081703 Si / 1000 Ang^3
#
#
#
# Elastic Constant Matrix: (Units=GPa)
#
#
# Indices 1 2 3 4 5 6 
#
# 1 115.8721 24.1960 36.5347 0.0000 0.0000 0.0000
# 2 24.1960 115.8721 36.5347 0.0000 0.0000 0.0000
# 3 36.5347 36.5347 119.1966 0.0000 0.0000 0.0000
# 4 0.0000 0.0000 0.0000 54.5552 0.0000 0.0000
# 5 0.0000 0.0000 0.0000 0.0000 54.5552 0.0000
# 6 0.0000 0.0000 0.0000 0.0000 0.0000 45.8380
#
#
#
# Elastic Compliance Matrix: (Units=1/GPa)
#
#
# Indices 1 2 3 4 5 6 
#
# 1 0.009703 -0.001205 -0.002605 0.000000 0.000000 0.000000
# 2 -0.001205 0.009703 -0.002605 0.000000 0.000000 0.000000
# 3 -0.002605 -0.002605 0.009986 0.000000 0.000000 0.000000
# 4 0.000000 0.000000 0.000000 0.018330 0.000000 0.000000
# 5 0.000000 0.000000 0.000000 0.000000 0.018330 0.000000
# 6 0.000000 0.000000 0.000000 0.000000 0.000000 0.021816
#
#
# Mechanical properties :
#
#
# Convention : Reuss Voigt Hill
#
# Bulk Modulus (GPa) = 60.37329 60.60796 60.49062
# Shear Modulus (GPa) = 47.07274 47.90136 47.48705
#
# Velocity S-wave (km/s) = 4.84680 4.88928 4.86809
# Velocity P-wave (km/s) = 7.83907 7.88160 7.86036
#
# Compressibility (1/GPa) = 0.01656362
#
# Stress axis : x y z
#
# Youngs Moduli (GPa) = 103.05989 103.05989 100.13748
#
# Poissons Ratio (x) = 0.12417 0.26084
# Poissons Ratio (y) = 0.12417 0.26084
# Poissons Ratio (z) = 0.26845 0.26845
#
# Static dielectric constant tensor:
#      x y z
#    x 3.254150 0.000000 0.000000 
#    y 0.000000 3.254150 0.000000 
#    z 0.000000 0.000000 3.794980 
# 
# 
# High freq. dielectric constant tensor:
#      x y z
#    x 1.785980 0.000000 0.000000 
#    y 0.000000 1.785980 0.000000 
#    z 0.000000 0.000000 1.789060 
# 
# From -- ./inp_files/3718.got.cif
#   From: 2010.03.12/outbox.cif.g09.slc.cpg/sg182_2_cif.got.tgz:3718.got - 2010.04.01 11:49:36.
