data_PCOD8326147
_publ_section_title
;
Structure prediction by ZEFSAII (Michael W. Deem and Ramdas Pophale) SiO2 
 PCOD8326147
Probable space group: P 62 2 2
;
_chemical_formula_sum "Si O2"
_cell_formula_units_Z 72
_cell_length_a 14.691579
_cell_length_b 14.691579
_cell_length_c 17.865151
_cell_angle_alpha 90.000000
_cell_angle_beta 90.000000
_cell_angle_gamma 120.000000
_cell_volume 3339.444826
_symmetry_space_group_name_H-M "P 62 2 2"
_symmetry_group_IT_number 180
_symmetry_cell_setting 'hexagonal'
loop_
_space_group_symop_operation_xyz
x,y,z
x-y,x,1/3+z
-y,x-y,2/3+z
-x,-y,z
-x+y,-x,1/3+z
y,-x+y,2/3+z
x-y,-y,-z
-x,-x+y,1/3-z
y,x,2/3-z
-y,-x,2/3-z
-x+y,y,-z
x,x-y,1/3-z
loop_
_atom_site_type_symbol
_atom_site_label
_atom_site_fract_x
_atom_site_fract_y
_atom_site_fract_z
Si Si1 0.456490 0.211038 0.291232
Si Si2 0.830009 0.745025 0.883500
Si Si3 0.303179 0.018976 0.701376
Si Si4 0.815617 0.570836 0.793396
Si Si5 0.386638 0.414188 0.419357
Si Si6 0.465025 0.807157 0.731173
O O1 0.474843 0.246748 0.378082
O O2 0.449654 0.298519 0.238855
O O3 0.547201 0.187823 0.267127
O O4 0.349997 0.102777 0.278046
O O5 0.844403 0.844403 0.833334
O O6 0.937617 0.760224 0.916999
O O7 0.778633 0.649470 0.823647
O O8 0.744428 0.715460 0.947930
O O9 0.428548 0.081108 0.716809
O O10 0.769710 0.473772 0.851945
O O11 0.945122 0.638312 0.794577
O O12 0.500000 0.500000 0.452149
O O13 0.396392 0.396392 0.333334
O O14 0.457601 0.728801 0.666667
#
# Coordination Sequence:
#
# PCOD8326147 Si02
#       6
#    12  12  12  12  12  12
#     4  11  23  39  68  94 130 178 219 275 340 402
#     4  10  18  37  64  91 123 172 213 269 343 385
#     4  10  20  39  62  97 134 167 223 275 326 403
#     4  10  21  40  64  89 128 173 215 276 340 391
#     4   9  21  41  62  91 125 165 221 270 321 401
#     4  11  23  40  61  97 140 172 223 282 323 402
#
# _framework density 21.560472000000001
#
# number of rings (size 3 to 8) (size 9 to 14) (size 15 to 20)
#    0.000    1.833    5.000    0.500    4.667    3.333 
#    0.000    6.667    0.000    2.000    0.000    0.000 
#    0.000    0.000    0.000    0.000    0.000    0.000 
#
# Total GULP energy -892039.888707 kJ/mol
# GULP energy per Si atom -12389.442899 kJ/mol
# Density = 2.151140 g / cm^3
# Si number density = 21.560472 Si / 1000 Ang^3
#
#
#
# Elastic Constant Matrix: (Units=GPa)
#
#
# Indices 1 2 3 4 5 6 
#
# 1 122.7455 72.7532 39.9919 0.0000 0.0000 0.0000
# 2 72.7532 122.7455 39.9919 0.0000 0.0000 0.0000
# 3 39.9919 39.9919 70.2024 0.0000 0.0000 0.0000
# 4 0.0000 0.0000 0.0000 21.6324 0.0000 0.0000
# 5 0.0000 0.0000 0.0000 0.0000 21.6324 0.0000
# 6 0.0000 0.0000 0.0000 0.0000 0.0000 24.9962
#
#
#
# Elastic Compliance Matrix: (Units=1/GPa)
#
#
# Indices 1 2 3 4 5 6 
#
# 1 0.013336 -0.006667 -0.003799 0.000000 0.000000 0.000000
# 2 -0.006667 0.013336 -0.003799 0.000000 0.000000 0.000000
# 3 -0.003799 -0.003799 0.018573 0.000000 0.000000 0.000000
# 4 0.000000 0.000000 0.000000 0.046227 0.000000 0.000000
# 5 0.000000 0.000000 0.000000 0.000000 0.046227 0.000000
# 6 0.000000 0.000000 0.000000 0.000000 0.000000 0.040006
#
#
# Mechanical properties :
#
#
# Convention : Reuss Voigt Hill
#
# Bulk Modulus (GPa) = 59.82733 69.01860 64.42297
# Shear Modulus (GPa) = 23.60620 24.51596 24.06108
#
# Velocity S-wave (km/s) = 3.31249 3.37572 3.34425
# Velocity P-wave (km/s) = 6.51452 6.87569 6.69754
#
# Compressibility (1/GPa) = 0.01671477
#
# Stress axis : x y z
#
# Youngs Moduli (GPa) = 74.98323 74.98323 53.84066
#
# Poissons Ratio (x) = 0.49989 0.20456
# Poissons Ratio (y) = 0.49989 0.20456
# Poissons Ratio (z) = 0.28489 0.28489
#
# Static dielectric constant tensor:
#      x y z
#    x 3.889740 0.000000 0.000000 
#    y 0.000000 3.889740 0.000000 
#    z 0.000000 0.000000 4.224400 
# 
# 
# High freq. dielectric constant tensor:
#      x y z
#    x 1.829330 0.000000 0.000000 
#    y 0.000000 1.829330 0.000000 
#    z 0.000000 0.000000 1.873240 
# 
# From -- ./inp_files/7811.got.cif
#   From: 2010.03.12/outbox.cif.g09.slc.cpg/sg180_4_cif.got.tgz:7811.got - 2010.04.01 11:35:50.
