data_PCOD8326600
_publ_section_title
;
Structure prediction by ZEFSAII (Michael W. Deem and Ramdas Pophale) SiO2 
 PCOD8326600
Probable space group: P 6 C C
;
_chemical_formula_sum "Si O2"
_cell_formula_units_Z 84
_cell_length_a 18.602987
_cell_length_b 18.602987
_cell_length_c 12.854090
_cell_angle_alpha 90.000000
_cell_angle_beta 90.000000
_cell_angle_gamma 120.000000
_cell_volume 3852.452860
_symmetry_space_group_name_H-M "P 6 C C"
_symmetry_group_IT_number 184
_symmetry_cell_setting 'hexagonal'
loop_
_space_group_symop_operation_xyz
x,y,z
x-y,x,z
-y,x-y,z
-x,-y,z
-x+y,-x,z
y,-x+y,z
-x+y,y,1/2+z
x,x-y,1/2+z
-y,-x,1/2+z
y,x,1/2+z
x-y,-y,1/2+z
-x,-x+y,1/2+z
loop_
_atom_site_type_symbol
_atom_site_label
_atom_site_fract_x
_atom_site_fract_y
_atom_site_fract_z
Si Si1 0.049088 0.186847 0.844320
Si Si2 0.613740 0.498178 0.744485
Si Si3 0.502549 0.690580 0.038622
Si Si4 0.082094 0.294292 0.651484
Si Si5 0.920592 0.688036 0.020619
Si Si6 0.638421 0.482420 0.976770
Si Si7 0.934365 0.558958 0.677761
O O1 0.111934 0.153849 0.868303
O O2 0.050669 0.215581 0.726550
O O3 0.076317 0.267249 0.913868
O O4 0.674705 0.488998 0.663345
O O5 0.650991 0.518593 0.860150
O O6 0.524634 0.413360 0.746454
O O7 0.606799 0.575087 0.700772
O O8 0.591178 0.703732 0.999720
O O9 0.431957 0.613482 0.975160
O O10 0.494172 0.769714 0.016259
O O11 0.165301 0.307719 0.600853
O O12 0.101243 0.380100 0.708338
O O13 0.012773 0.278759 0.566466
O O14 0.613221 0.534087 0.054973
#
# Coordination Sequence:
#
# PCOD8326600 Si02
#       7
#    12  12  12  12  12  12  12
#     4  12  27  45  72 103 140 188 233 284 362 430
#     4  10  24  43  68 101 143 186 236 295 364 426
#     4  11  25  45  69 103 141 190 244 294 352 438
#     4  12  24  45  70 100 139 179 230 297 344 416
#     4  12  25  45  70 103 140 175 237 294 351 412
#     4  11  25  45  70 101 145 191 240 296 365 422
#     4  10  23  43  66 101 138 181 234 297 356 434
#
# _framework density 21.804290000000002
#
# number of rings (size 3 to 8) (size 9 to 14) (size 15 to 20)
#    0.000    0.857    5.714    0.429    2.000   10.286 
#    0.000    0.000    0.000    0.000    0.000    0.000 
#    0.000    0.000    0.000    0.000    0.000    0.000 
#
# Total GULP energy -1041786.493488 kJ/mol
# GULP energy per Si atom -12402.220161 kJ/mol
# Density = 2.175466 g / cm^3
# Si number density = 21.804290 Si / 1000 Ang^3
#
#
#
# Elastic Constant Matrix: (Units=GPa)
#
#
# Indices 1 2 3 4 5 6 
#
# 1 77.5817 6.1814 22.2711 0.0000 0.0000 0.0000
# 2 6.1814 77.5817 22.2711 0.0000 0.0000 0.0000
# 3 22.2711 22.2711 108.0500 0.0000 0.0000 0.0000
# 4 0.0000 0.0000 0.0000 27.1521 0.0000 0.0000
# 5 0.0000 0.0000 0.0000 0.0000 27.1521 0.0000
# 6 0.0000 0.0000 0.0000 0.0000 0.0000 35.7001
#
#
#
# Elastic Compliance Matrix: (Units=1/GPa)
#
#
# Indices 1 2 3 4 5 6 
#
# 1 0.013707 -0.000299 -0.002764 0.000000 0.000000 0.000000
# 2 -0.000299 0.013707 -0.002764 0.000000 0.000000 0.000000
# 3 -0.002764 -0.002764 0.010394 0.000000 0.000000 0.000000
# 4 0.000000 0.000000 0.000000 0.036830 0.000000 0.000000
# 5 0.000000 0.000000 0.000000 0.000000 0.036830 0.000000
# 6 0.000000 0.000000 0.000000 0.000000 0.000000 0.028011
#
#
# Mechanical properties :
#
#
# Convention : Reuss Voigt Hill
#
# Bulk Modulus (GPa) = 38.23252 40.51785 39.37519
# Shear Modulus (GPa) = 31.27957 32.16685 31.72321
#
# Velocity S-wave (km/s) = 3.79167 3.84507 3.81846
# Velocity P-wave (km/s) = 6.06147 6.19157 6.12687
#
# Compressibility (1/GPa) = 0.02615575
#
# Stress axis : x y z
#
# Youngs Moduli (GPa) = 72.95650 72.95650 96.20696
#
# Poissons Ratio (x) = 0.02180 0.26588
# Poissons Ratio (y) = 0.02180 0.26588
# Poissons Ratio (z) = 0.20163 0.20163
#
# Static dielectric constant tensor:
#      x y z
#    x 4.065460 0.000000 0.000000 
#    y 0.000000 4.065460 0.000000 
#    z 0.000000 0.000000 3.890390 
# 
# 
# High freq. dielectric constant tensor:
#      x y z
#    x 1.866380 0.000000 0.000000 
#    y 0.000000 1.866380 0.000000 
#    z 0.000000 0.000000 1.848050 
# 
# From -- ./inp_files/954.got.cif
#   From: 2010.03.12/outbox.cif.g09.slc.cpg/sg184_cif.got.tgz:954.got - 2010.04.01 11:54:36.
