data_PCOD8326243
_publ_section_title
;
Structure prediction by ZEFSAII (Michael W. Deem and Ramdas Pophale) SiO2 
 PCOD8326243
Probable space group: P 62 2 2
;
_chemical_formula_sum "Si O2"
_cell_formula_units_Z 54
_cell_length_a 11.448380
_cell_length_b 11.448380
_cell_length_c 24.810784
_cell_angle_alpha 90.000000
_cell_angle_beta 90.000000
_cell_angle_gamma 120.000000
_cell_volume 2816.172103
_symmetry_space_group_name_H-M "P 62 2 2"
_symmetry_group_IT_number 180
_symmetry_cell_setting 'hexagonal'
loop_
_space_group_symop_operation_xyz
x,y,z
x-y,x,1/3+z
-y,x-y,2/3+z
-x,-y,z
-x+y,-x,1/3+z
y,-x+y,2/3+z
x-y,-y,-z
-x,-x+y,1/3-z
y,x,2/3-z
-y,-x,2/3-z
-x+y,y,-z
x,x-y,1/3-z
loop_
_atom_site_type_symbol
_atom_site_label
_atom_site_fract_x
_atom_site_fract_y
_atom_site_fract_z
Si Si1 0.826680 0.520475 0.921622
Si Si2 0.633746 0.419754 0.416824
Si Si3 0.500000 0.000000 0.829490
Si Si4 0.235599 0.386130 0.322597
Si Si5 0.039805 0.642118 0.298151
O O1 0.704129 0.372565 0.904632
O O2 0.761538 0.616875 0.925706
O O3 0.942282 0.574269 0.875862
O O4 0.889406 0.523193 0.979869
O O5 0.613971 0.489780 0.469637
O O6 0.738479 0.535100 0.377998
O O7 0.485619 0.332784 0.390532
O O8 0.263650 0.263650 0.333334
O O9 0.080783 0.326931 0.306459
O O10 0.000000 0.500000 0.269677
#
# Coordination Sequence:
#
# PCOD8326243 Si02
#       5
#    12  12   6  12  12
#     4  11  22  36  58  90 118 158 205 254 315 360
#     4  11  19  34  61  86 121 157 208 258 302 363
#     4  12  22  35  52  90 130 158 193 254 322 376
#     4  11  19  35  60  91 120 161 208 258 303 360
#     4  11  19  37  63  86 120 156 206 262 302 360
#
# _framework density 19.174965
#
# number of rings (size 3 to 8) (size 9 to 14) (size 15 to 20)
#    0.000    0.889    7.778    2.667    0.000    0.000 
#    0.000    3.333    0.000    0.000    0.000    0.000 
#    0.000    0.000    0.000    0.000    0.000    0.000 
#
# Total GULP energy -669375.391029 kJ/mol
# GULP energy per Si atom -12395.840575 kJ/mol
# Density = 1.913132 g / cm^3
# Si number density = 19.174965 Si / 1000 Ang^3
#
#
#
# Elastic Constant Matrix: (Units=GPa)
#
#
# Indices 1 2 3 4 5 6 
#
# 1 128.4302 64.3201 36.8432 0.0000 0.0000 0.0000
# 2 64.3201 128.4302 36.8432 0.0000 0.0000 0.0000
# 3 36.8432 36.8432 87.9017 0.0000 0.0000 0.0000
# 4 0.0000 0.0000 0.0000 27.5267 0.0000 0.0000
# 5 0.0000 0.0000 0.0000 0.0000 27.5267 0.0000
# 6 0.0000 0.0000 0.0000 0.0000 0.0000 32.0550
#
#
#
# Elastic Compliance Matrix: (Units=1/GPa)
#
#
# Indices 1 2 3 4 5 6 
#
# 1 0.010888 -0.004710 -0.002589 0.000000 0.000000 0.000000
# 2 -0.004710 0.010888 -0.002589 0.000000 0.000000 0.000000
# 3 -0.002589 -0.002589 0.013547 0.000000 0.000000 0.000000
# 4 0.000000 0.000000 0.000000 0.036328 0.000000 0.000000
# 5 0.000000 0.000000 0.000000 0.000000 0.036328 0.000000
# 6 0.000000 0.000000 0.000000 0.000000 0.000000 0.031196
#
#
# Mechanical properties :
#
#
# Convention : Reuss Voigt Hill
#
# Bulk Modulus (GPa) = 64.32851 68.97502 66.65176
# Shear Modulus (GPa) = 30.46257 31.20541 30.83399
#
# Velocity S-wave (km/s) = 3.99013 4.03849 4.01438
# Velocity P-wave (km/s) = 7.40602 7.60232 7.50481
#
# Compressibility (1/GPa) = 0.01554521
#
# Stress axis : x y z
#
# Youngs Moduli (GPa) = 91.84362 91.84362 73.81692
#
# Poissons Ratio (x) = 0.43259 0.19114
# Poissons Ratio (y) = 0.43259 0.19114
# Poissons Ratio (z) = 0.23782 0.23782
#
# Static dielectric constant tensor:
#      x y z
#    x 3.524990 0.000000 0.000000 
#    y 0.000000 3.524990 0.000000 
#    z 0.000000 0.000000 3.490910 
# 
# 
# High freq. dielectric constant tensor:
#      x y z
#    x 1.735520 0.000000 0.000000 
#    y 0.000000 1.735520 0.000000 
#    z 0.000000 0.000000 1.729930 
# 
# From -- ./inp_files/10054.got.cif
#   From: 2010.03.12/outbox.cif.g09.slc.cpg/sg180_6_cif.got.tgz:10054.got - 2010.04.01 11:35:50.
