data_PCOD8326244
_publ_section_title
;
Structure prediction by ZEFSAII (Michael W. Deem and Ramdas Pophale) SiO2 
 PCOD8326244
Probable space group: P 62 2 2
;
_chemical_formula_sum "Si O2"
_cell_formula_units_Z 72
_cell_length_a 17.397091
_cell_length_b 17.397091
_cell_length_c 17.366590
_cell_angle_alpha 90.000000
_cell_angle_beta 90.000000
_cell_angle_gamma 120.000000
_cell_volume 4551.960171
_symmetry_space_group_name_H-M "P 62 2 2"
_symmetry_group_IT_number 180
_symmetry_cell_setting 'hexagonal'
loop_
_space_group_symop_operation_xyz
x,y,z
x-y,x,1/3+z
-y,x-y,2/3+z
-x,-y,z
-x+y,-x,1/3+z
y,-x+y,2/3+z
x-y,-y,-z
-x,-x+y,1/3-z
y,x,2/3-z
-y,-x,2/3-z
-x+y,y,-z
x,x-y,1/3-z
loop_
_atom_site_type_symbol
_atom_site_label
_atom_site_fract_x
_atom_site_fract_y
_atom_site_fract_z
Si Si1 0.003073 0.415386 0.576266
Si Si2 0.511877 0.175769 0.853313
Si Si3 0.491565 0.660100 0.657942
Si Si4 0.592606 0.588387 0.747466
Si Si5 0.309878 0.504978 0.430898
Si Si6 0.308948 0.800757 0.622108
O O1 0.096030 0.420739 0.553192
O O2 0.000000 0.500000 0.541265
O O3 0.000000 0.415554 0.666667
O O4 0.913120 0.331635 0.543207
O O5 0.530126 0.165014 0.764738
O O6 0.593023 0.185735 0.906770
O O7 0.504389 0.263132 0.872575
O O8 0.526478 0.763239 0.666667
O O9 0.573290 0.650371 0.690943
O O10 0.399282 0.602460 0.703690
O O11 0.500000 0.500000 0.756942
O O12 0.627674 0.627674 0.833334
O O13 0.665528 0.569236 0.707972
O O14 0.257662 0.515324 0.500000
O O15 0.255610 0.491883 0.353041
#
# Coordination Sequence:
#
# PCOD8326244 Si02
#       6
#    12  12  12  12  12  12
#     4   9  18  31  45  61  93 125 152 189 242 289
#     4  11  21  32  48  68  94 125 162 200 241 287
#     4  11  22  33  49  68  90 123 165 203 239 284
#     4   9  20  36  49  64  90 122 156 199 244 282
#     4  11  20  30  46  70  93 124 158 201 238 281
#     4  11  21  32  49  68  94 121 161 203 246 278
#
# _framework density 15.817361999999999
#
# number of rings (size 3 to 8) (size 9 to 14) (size 15 to 20)
#    0.000    1.667    3.333    2.500    2.333    3.333 
#    0.000    0.000    0.000    0.000    0.000    0.000 
#    0.000    0.000    0.000    3.000    3.000    1.000 
#
# Total GULP energy -892200.334094 kJ/mol
# GULP energy per Si atom -12391.671307 kJ/mol
# Density = 1.578136 g / cm^3
# Si number density = 15.817362 Si / 1000 Ang^3
#
#
#
# Elastic Constant Matrix: (Units=GPa)
#
#
# Indices 1 2 3 4 5 6 
#
# 1 82.0013 47.1322 27.2166 0.0000 0.0000 0.0000
# 2 47.1322 82.0013 27.2166 0.0000 0.0000 0.0000
# 3 27.2166 27.2166 71.7725 0.0000 0.0000 0.0000
# 4 0.0000 0.0000 0.0000 21.2225 0.0000 0.0000
# 5 0.0000 0.0000 0.0000 0.0000 21.2225 0.0000
# 6 0.0000 0.0000 0.0000 0.0000 0.0000 17.4346
#
#
#
# Elastic Compliance Matrix: (Units=1/GPa)
#
#
# Indices 1 2 3 4 5 6 
#
# 1 0.018948 -0.009731 -0.003495 0.000000 0.000000 0.000000
# 2 -0.009731 0.018948 -0.003495 0.000000 0.000000 0.000000
# 3 -0.003495 -0.003495 0.016584 0.000000 0.000000 0.000000
# 4 0.000000 0.000000 0.000000 0.047120 0.000000 0.000000
# 5 0.000000 0.000000 0.000000 0.000000 0.047120 0.000000
# 6 0.000000 0.000000 0.000000 0.000000 0.000000 0.057357
#
#
# Mechanical properties :
#
#
# Convention : Reuss Voigt Hill
#
# Bulk Modulus (GPa) = 47.53464 48.76733 48.15099
# Shear Modulus (GPa) = 20.28138 20.92321 20.60229
#
# Velocity S-wave (km/s) = 3.58470 3.64098 3.61295
# Velocity P-wave (km/s) = 6.87393 6.96951 6.92188
#
# Compressibility (1/GPa) = 0.02103729
#
# Stress axis : x y z
#
# Youngs Moduli (GPa) = 52.77607 52.77607 60.29993
#
# Poissons Ratio (x) = 0.51355 0.21076
# Poissons Ratio (y) = 0.51355 0.21076
# Poissons Ratio (z) = 0.18447 0.18447
#
# Static dielectric constant tensor:
#      x y z
#    x 3.111540 0.000000 0.000000 
#    y 0.000000 3.111540 0.000000 
#    z 0.000000 0.000000 3.214840 
# 
# 
# High freq. dielectric constant tensor:
#      x y z
#    x 1.576290 0.000000 0.000000 
#    y 0.000000 1.576290 0.000000 
#    z 0.000000 0.000000 1.622770 
# 
# From -- ./inp_files/7890.got.cif
#   From: 2010.03.12/outbox.cif.g09.slc.cpg/sg180_4_cif.got.tgz:7890.got - 2010.04.01 11:35:50.
