data_PCOD8326856
_publ_section_title
;
Structure prediction by ZEFSAII (Michael W. Deem and Ramdas Pophale) SiO2 
 PCOD8326856
Probable space group: P -6 M 2
;
_chemical_formula_sum "Si O2"
_cell_formula_units_Z 72
_cell_length_a 23.686544
_cell_length_b 23.686544
_cell_length_c 8.972925
_cell_angle_alpha 90.000000
_cell_angle_beta 90.000000
_cell_angle_gamma 120.000000
_cell_volume 4359.815069
_symmetry_space_group_name_H-M "P -6 M 2"
_symmetry_group_IT_number 187
_symmetry_cell_setting 'hexagonal'
loop_
_space_group_symop_operation_xyz
x,y,z
-x+y,-x,-z
-y,x-y,z
x,y,-z
-x+y,-x,z
-y,x-y,-z
-y,-x,-z
-x+y,y,-z
x,x-y,-z
-x+y,y,z
x,x-y,z
-y,-x,z
loop_
_atom_site_type_symbol
_atom_site_label
_atom_site_fract_x
_atom_site_fract_y
_atom_site_fract_z
Si Si1 0.028599 0.185971 0.672753
Si Si2 0.478976 0.521025 0.675386
Si Si3 0.103086 0.336052 0.330317
Si Si4 0.817714 0.635427 0.178435
Si Si5 0.429117 0.326764 0.827009
Si Si6 0.215942 0.107971 0.175743
Si Si7 0.365147 0.410551 0.824479
Si Si8 0.546998 0.453003 0.827623
O O1 0.009246 0.173341 0.500000
O O2 0.083032 0.166064 0.709421
O O3 0.056166 0.261111 0.713949
O O4 0.965990 0.143053 0.771359
O O5 0.473606 0.526395 0.500000
O O6 0.406657 0.480880 0.745410
O O7 0.516892 0.483109 0.716516
O O8 0.089327 0.347845 0.500000
O O9 0.177761 0.355521 0.311037
O O10 0.090534 0.380904 0.218861
O O11 0.853688 0.597920 0.247014
O O12 0.854904 0.709807 0.236997
O O13 0.816505 0.633010 0.000000
O O14 0.390257 0.361891 0.766092
O O15 0.507817 0.374587 0.798763
O O16 0.414099 0.313868 0.000000
O O17 0.217296 0.108648 0.000000
O O18 0.374007 0.420892 0.000000
O O19 0.534258 0.465743 0.000000
#
# Coordination Sequence:
#
# PCOD8326856 Si02
#       8
#    12   6  12   6  12   6  12   6
#     4   9  19  36  53  67  88 123 161 195 242 303
#     4  10  18  28  44  66  91 119 151 185 223 266
#     4   9  18  32  49  69  94 123 156 192 230 280
#     4   9  16  25  39  64  93 119 147 183 237 291
#     4   8  14  24  39  59  86 118 149 183 224 275
#     4  11  21  31  47  71  94 115 151 205 255 299
#     4  10  18  29  45  67  95 124 154 188 230 278
#     4   8  14  26  42  61  84 113 149 187 227 270
#
# _framework density 16.514462999999999
#
# number of rings (size 3 to 8) (size 9 to 14) (size 15 to 20)
#    0.000    2.833    0.000    4.500    0.000    2.667 
#    0.500    1.667    0.000    1.333    0.000    2.333 
#    0.833    0.000    1.500    0.000    1.500    0.000 
#
# Total GULP energy -892332.598274 kJ/mol
# GULP energy per Si atom -12393.508309 kJ/mol
# Density = 1.647688 g / cm^3
# Si number density = 16.514463 Si / 1000 Ang^3
#
#
#
# Elastic Constant Matrix: (Units=GPa)
#
#
# Indices 1 2 3 4 5 6 
#
# 1 103.1177 55.1826 35.2084 0.0000 -0.0001 0.0000
# 2 55.1826 103.1177 35.2084 0.0000 0.0001 0.0000
# 3 35.2084 35.2084 59.6960 0.0000 0.0000 0.0000
# 4 0.0000 0.0000 0.0000 20.9215 0.0000 0.0001
# 5 -0.0001 0.0001 0.0000 0.0000 20.9215 0.0000
# 6 0.0000 0.0000 0.0000 0.0001 0.0000 23.9676
#
#
#
# Elastic Compliance Matrix: (Units=1/GPa)
#
#
# Indices 1 2 3 4 5 6 
#
# 1 0.014713 -0.006149 -0.005051 0.000000 0.000000 0.000000
# 2 -0.006149 0.014713 -0.005051 0.000000 0.000000 0.000000
# 3 -0.005051 -0.005051 0.022710 0.000000 0.000000 0.000000
# 4 0.000000 0.000000 0.000000 0.047798 0.000000 0.000000
# 5 0.000000 0.000000 0.000000 0.000000 0.047798 0.000000
# 6 0.000000 0.000000 0.000000 0.000000 0.000000 0.041723
#
#
# Mechanical properties :
#
#
# Convention : Reuss Voigt Hill
#
# Bulk Modulus (GPa) = 50.93307 57.45893 54.19600
# Shear Modulus (GPa) = 21.88186 22.51756 22.19971
#
# Velocity S-wave (km/s) = 3.64402 3.69657 3.67039
# Velocity P-wave (km/s) = 6.97235 7.28616 7.13098
#
# Compressibility (1/GPa) = 0.01963361
#
# Stress axis : x y z
#
# Youngs Moduli (GPa) = 67.96835 67.96835 44.03417
#
# Poissons Ratio (x) = 0.41792 0.22242
# Poissons Ratio (y) = 0.41792 0.22242
# Poissons Ratio (z) = 0.34331 0.34331
#
# Static dielectric constant tensor:
#      x y z
#    x 3.169250 0.000000 0.000000 
#    y 0.000000 3.169250 0.000000 
#    z 0.000000 0.000000 2.850600 
# 
# 
# High freq. dielectric constant tensor:
#      x y z
#    x 1.624640 0.000000 0.000000 
#    y 0.000000 1.624640 0.000000 
#    z 0.000000 0.000000 1.616470 
# 
# From -- ./inp_files/1119.got.cif
#   From: 2010.03.12/outbox.cif.g09.slc.cpg/sg187_1_cif.got.tgz:1119.got - 2010.04.01 11:58:23.
