data_PCOD8326857
_publ_section_title
;
Structure prediction by ZEFSAII (Michael W. Deem and Ramdas Pophale) SiO2 
 PCOD8326857
Probable space group: P -6 M 2
;
_chemical_formula_sum "Si O2"
_cell_formula_units_Z 60
_cell_length_a 21.282908
_cell_length_b 21.282908
_cell_length_c 9.179254
_cell_angle_alpha 90.000000
_cell_angle_beta 90.000000
_cell_angle_gamma 120.000000
_cell_volume 3600.807915
_symmetry_space_group_name_H-M "P -6 M 2"
_symmetry_group_IT_number 187
_symmetry_cell_setting 'hexagonal'
loop_
_space_group_symop_operation_xyz
x,y,z
-x+y,-x,-z
-y,x-y,z
x,y,-z
-x+y,-x,z
-y,x-y,-z
-y,-x,-z
-x+y,y,-z
x,x-y,-z
-x+y,y,z
x,x-y,z
-y,-x,z
loop_
_atom_site_type_symbol
_atom_site_label
_atom_site_fract_x
_atom_site_fract_y
_atom_site_fract_z
Si Si1 0.157665 0.455786 0.831237
Si Si2 0.784028 0.072257 0.671040
Si Si3 0.152577 0.576289 0.328091
Si Si4 0.496300 0.503700 0.164355
Si Si5 0.143350 0.143885 0.168995
Si Si6 0.991338 0.358802 0.834351
O O1 0.212583 0.425166 0.801575
O O2 0.186907 0.530181 0.739850
O O3 0.075865 0.395580 0.785354
O O4 0.157796 0.475316 0.000000
O O5 0.778478 0.061263 0.500000
O O6 0.847230 0.152771 0.715059
O O7 0.799436 0.012004 0.739889
O O8 0.708184 0.059826 0.731847
O O9 0.164500 0.582250 0.500000
O O10 0.068096 0.534048 0.287590
O O11 0.583522 0.545884 0.182578
O O12 0.478985 0.521015 0.000000
O O13 0.123908 0.061954 0.200565
O O14 0.075810 0.151620 0.221129
O O15 0.160680 0.163499 0.000000
O O16 0.982595 0.330951 0.000000
#
# Coordination Sequence:
#
# PCOD8326857 Si02
#       6
#    12  12   6   6  12  12
#     4   9  18  33  50  66  88 122 162 199 240 288
#     4  10  21  34  46  66  99 132 158 188 230 282
#     4  10  18  28  44  66  92 118 148 192 238 276
#     4   8  16  32  52  72  92 114 144 182 224 274
#     4   9  17  30  48  67  87 117 162 212 254 289
#     4   9  17  31  52  74  94 118 152 194 234 275
#
# _framework density 16.662927
#
# number of rings (size 3 to 8) (size 9 to 14) (size 15 to 20)
#    0.000    2.800    0.000    2.900    0.000    6.800 
#    0.600    2.000    0.000    1.200    0.000    0.000 
#    1.000    0.000    0.600    0.000    0.800    0.000 
#
# Total GULP energy -743715.755732 kJ/mol
# GULP energy per Si atom -12395.262596 kJ/mol
# Density = 1.662500 g / cm^3
# Si number density = 16.662927 Si / 1000 Ang^3
#
#
#
# Elastic Constant Matrix: (Units=GPa)
#
#
# Indices 1 2 3 4 5 6 
#
# 1 88.1852 53.8407 38.1328 0.0000 0.0002 0.0000
# 2 53.8407 88.1852 38.1328 0.0000 -0.0002 0.0000
# 3 38.1328 38.1328 64.7017 0.0000 0.0000 0.0000
# 4 0.0000 0.0000 0.0000 21.3860 0.0000 -0.0002
# 5 0.0002 -0.0002 0.0000 0.0000 21.3860 0.0000
# 6 0.0000 0.0000 0.0000 -0.0002 0.0000 17.1722
#
#
#
# Elastic Compliance Matrix: (Units=1/GPa)
#
#
# Indices 1 2 3 4 5 6 
#
# 1 0.019709 -0.009408 -0.006071 0.000000 0.000000 0.000000
# 2 -0.009408 0.019709 -0.006071 0.000000 0.000000 0.000000
# 3 -0.006071 -0.006071 0.022612 0.000000 0.000000 0.000000
# 4 0.000000 0.000000 0.000000 0.046760 0.000000 0.000001
# 5 0.000000 0.000000 0.000000 0.000000 0.046760 0.000000
# 6 0.000000 0.000000 0.000000 0.000001 0.000000 0.058234
#
#
# Mechanical properties :
#
#
# Convention : Reuss Voigt Hill
#
# Bulk Modulus (GPa) = 52.82756 55.69830 54.26293
# Shear Modulus (GPa) = 18.99753 19.38655 19.19204
#
# Velocity S-wave (km/s) = 3.38021 3.41464 3.39747
# Velocity P-wave (km/s) = 6.85616 7.00324 6.93009
#
# Compressibility (1/GPa) = 0.01892952
#
# Stress axis : x y z
#
# Youngs Moduli (GPa) = 50.73848 50.73848 44.22506
#
# Poissons Ratio (x) = 0.47734 0.26849
# Poissons Ratio (y) = 0.47734 0.26849
# Poissons Ratio (z) = 0.30803 0.30803
#
# Static dielectric constant tensor:
#      x y z
#    x 3.072310 0.000000 0.000000 
#    y 0.000000 3.072310 0.000000 
#    z 0.000000 0.000000 3.034180 
# 
# 
# High freq. dielectric constant tensor:
#      x y z
#    x 1.622620 0.000000 0.000000 
#    y 0.000000 1.622620 0.000000 
#    z 0.000000 0.000000 1.637870 
# 
# From -- ./inp_files/664.got.cif
#   From: 2010.03.12/outbox.cif.g09.slc.cpg/sg187_1_cif.got.tgz:664.got - 2010.04.01 11:58:23.
