data_PCOD8326482
_publ_section_title
;
Structure prediction by ZEFSAII (Michael W. Deem and Ramdas Pophale) SiO2 
 PCOD8326482
Probable space group: P 63 2 2
;
_chemical_formula_sum "Si O2"
_cell_formula_units_Z 42
_cell_length_a 8.760406
_cell_length_b 8.760406
_cell_length_c 31.815905
_cell_angle_alpha 90.000000
_cell_angle_beta 90.000000
_cell_angle_gamma 120.000000
_cell_volume 2114.576400
_symmetry_space_group_name_H-M "P 63 2 2"
_symmetry_group_IT_number 182
_symmetry_cell_setting 'hexagonal'
loop_
_space_group_symop_operation_xyz
x,y,z
x-y,x,1/2+z
-y,x-y,z
-x,-y,1/2+z
-x+y,-x,z
y,-x+y,1/2+z
x-y,-y,-z
-x,-x+y,-z
y,x,-z
-y,-x,1/2-z
-x+y,y,1/2-z
x,x-y,1/2-z
loop_
_atom_site_type_symbol
_atom_site_label
_atom_site_fract_x
_atom_site_fract_y
_atom_site_fract_z
Si Si1 0.220932 0.441864 0.250000
Si Si2 0.660320 0.656759 0.048618
Si Si3 0.986044 0.319192 0.580506
Si Si4 0.152520 0.219207 0.167297
O O1 0.433432 0.566569 0.250000
O O2 0.199467 0.323572 0.210261
O O3 0.817841 0.632483 0.067102
O O4 0.485701 0.524710 0.073938
O O5 0.705215 0.856938 0.052689
O O6 0.613294 0.613294 0.000000
O O7 0.922515 0.262291 0.628481
O O8 0.940679 0.136375 0.164861
#
# Coordination Sequence:
#
# PCOD8326482 Si02
#       4
#     6  12  12  12
#     4  10  24  36  68 106 130 166 222 276 332 416
#     4  12  24  42  64  95 135 178 232 290 346 409
#     4  12  25  43  67  99 133 185 232 287 353 418
#     4  10  21  44  68  96 132 183 221 273 346 413
#
# _framework density 19.862133
#
# number of rings (size 3 to 8) (size 9 to 14) (size 15 to 20)
#    0.857    0.000    2.857    5.143    4.000    0.000 
#    0.000    0.000    0.000    4.571    0.000    0.000 
#    0.000    0.000    0.000    0.000    0.000    0.000 
#
# Total GULP energy -520365.448248 kJ/mol
# GULP energy per Si atom -12389.653530 kJ/mol
# Density = 1.981693 g / cm^3
# Si number density = 19.862133 Si / 1000 Ang^3
#
#
#
# Elastic Constant Matrix: (Units=GPa)
#
#
# Indices 1 2 3 4 5 6 
#
# 1 71.2747 24.3316 57.8307 0.0000 0.0000 0.0000
# 2 24.3316 71.2747 57.8307 0.0000 0.0000 0.0000
# 3 57.8307 57.8307 186.0241 0.0000 0.0000 0.0000
# 4 0.0000 0.0000 0.0000 39.9154 0.0000 0.0000
# 5 0.0000 0.0000 0.0000 0.0000 39.9154 0.0000
# 6 0.0000 0.0000 0.0000 0.0000 0.0000 23.4716
#
#
#
# Elastic Compliance Matrix: (Units=1/GPa)
#
#
# Indices 1 2 3 4 5 6 
#
# 1 0.019033 -0.002269 -0.005212 0.000000 0.000000 0.000000
# 2 -0.002269 0.019033 -0.005212 0.000000 0.000000 0.000000
# 3 -0.005212 -0.005212 0.008616 0.000000 0.000000 0.000000
# 4 0.000000 0.000000 0.000000 0.025053 0.000000 0.000000
# 5 0.000000 0.000000 0.000000 0.000000 0.025053 0.000000
# 6 0.000000 0.000000 0.000000 0.000000 0.000000 0.042605
#
#
# Mechanical properties :
#
#
# Convention : Reuss Voigt Hill
#
# Bulk Modulus (GPa) = 46.95223 67.61771 57.28497
# Shear Modulus (GPa) = 29.09045 33.23252 31.16148
#
# Velocity S-wave (km/s) = 3.83119 4.09486 3.96522
# Velocity P-wave (km/s) = 6.57731 7.51496 7.06172
#
# Compressibility (1/GPa) = 0.02129824
#
# Stress axis : x y z
#
# Youngs Moduli (GPa) = 52.53911 52.53911 116.06245
#
# Poissons Ratio (x) = 0.11921 0.60488
# Poissons Ratio (y) = 0.11921 0.60488
# Poissons Ratio (z) = 0.27382 0.27382
#
# Static dielectric constant tensor:
#      x y z
#    x 3.652620 0.000000 0.000000 
#    y 0.000000 3.652620 0.000000 
#    z 0.000000 0.000000 3.408580 
# 
# 
# High freq. dielectric constant tensor:
#      x y z
#    x 1.775920 0.000000 0.000000 
#    y 0.000000 1.775920 0.000000 
#    z 0.000000 0.000000 1.786290 
# 
# From -- ./inp_files/5673.got.cif
#   From: 2010.03.12/outbox.cif.g09.slc.cpg/sg182_3_cif.got.tgz:5673.got - 2010.04.01 11:49:36.
