data_PCOD8326438
_publ_section_title
;
Structure prediction by ZEFSAII (Michael W. Deem and Ramdas Pophale) SiO2 
 PCOD8326438
Probable space group: P 63 2 2
;
_chemical_formula_sum "Si O2"
_cell_formula_units_Z 72
_cell_length_a 22.511161
_cell_length_b 22.511161
_cell_length_c 9.763450
_cell_angle_alpha 90.000000
_cell_angle_beta 90.000000
_cell_angle_gamma 120.000000
_cell_volume 4284.791821
_symmetry_space_group_name_H-M "P 63 2 2"
_symmetry_group_IT_number 182
_symmetry_cell_setting 'hexagonal'
loop_
_space_group_symop_operation_xyz
x,y,z
x-y,x,1/2+z
-y,x-y,z
-x,-y,1/2+z
-x+y,-x,z
y,-x+y,1/2+z
x-y,-y,-z
-x,-x+y,-z
y,x,-z
-y,-x,1/2-z
-x+y,y,1/2-z
x,x-y,1/2-z
loop_
_atom_site_type_symbol
_atom_site_label
_atom_site_fract_x
_atom_site_fract_y
_atom_site_fract_z
Si Si1 0.876352 0.619383 0.263577
Si Si2 0.380945 0.123937 0.724000
Si Si3 0.080897 0.595482 0.843119
Si Si4 0.076659 0.785218 0.481149
Si Si5 0.716856 0.793936 0.521755
Si Si6 0.595118 0.081360 0.843050
O O1 0.795336 0.590671 0.250000
O O2 0.887269 0.557264 0.222741
O O3 0.902021 0.644472 0.417316
O O4 0.918740 0.687862 0.173114
O O5 0.407724 0.203862 0.750000
O O6 0.347598 0.096488 0.576052
O O7 0.446489 0.114686 0.731612
O O8 0.321676 0.079403 0.831819
O O9 0.105659 0.552830 0.750000
O O10 0.999764 0.561533 0.839196
O O11 0.106473 0.599555 0.999785
O O12 0.125936 0.867452 0.497960
O O13 0.000000 0.770786 0.500000
O O14 0.780114 0.780114 0.500000
O O15 0.553141 0.106282 0.750000
#
# Coordination Sequence:
#
# PCOD8326438 Si02
#       6
#    12  12  12  12  12  12
#     4  10  20  33  51  73  99 134 170 206 249 295
#     4  10  20  33  51  73  99 134 170 206 249 295
#     4  10  20  33  50  73 101 131 161 197 245 298
#     4  10  20  30  47  76 103 127 167 217 255 295
#     4  10  18  32  51  70  97 137 171 203 255 309
#     4  10  20  33  50  73 101 131 161 197 245 298
#
# _framework density 16.803616000000002
#
# number of rings (size 3 to 8) (size 9 to 14) (size 15 to 20)
#    0.000    2.000    1.667    3.000    2.333    0.000 
#    0.000    0.000    0.000    1.000    0.000    0.000 
#    0.000    8.000    0.000    0.000    0.000    1.333 
#
# Total GULP energy -892842.817581 kJ/mol
# GULP energy per Si atom -12400.594689 kJ/mol
# Density = 1.676537 g / cm^3
# Si number density = 16.803616 Si / 1000 Ang^3
#
#
#
# Elastic Constant Matrix: (Units=GPa)
#
#
# Indices 1 2 3 4 5 6 
#
# 1 101.7287 51.5396 22.2999 0.0000 0.0000 0.0000
# 2 51.5396 101.7287 22.2999 0.0000 0.0000 0.0000
# 3 22.2999 22.2999 56.4448 0.0000 0.0000 0.0000
# 4 0.0000 0.0000 0.0000 19.5055 0.0000 0.0000
# 5 0.0000 0.0000 0.0000 0.0000 19.5055 0.0000
# 6 0.0000 0.0000 0.0000 0.0000 0.0000 25.0946
#
#
#
# Elastic Compliance Matrix: (Units=1/GPa)
#
#
# Indices 1 2 3 4 5 6 
#
# 1 0.013648 -0.006276 -0.002913 0.000000 0.000000 0.000000
# 2 -0.006276 0.013648 -0.002913 0.000000 0.000000 0.000000
# 3 -0.002913 -0.002913 0.020018 0.000000 0.000000 0.000000
# 4 0.000000 0.000000 0.000000 0.051268 0.000000 0.000000
# 5 0.000000 0.000000 0.000000 0.000000 0.051268 0.000000
# 6 0.000000 0.000000 0.000000 0.000000 0.000000 0.039849
#
#
# Mechanical properties :
#
#
# Convention : Reuss Voigt Hill
#
# Bulk Modulus (GPa) = 43.26798 50.24234 46.75516
# Shear Modulus (GPa) = 22.56262 23.73862 23.15062
#
# Velocity S-wave (km/s) = 3.66830 3.76268 3.71579
# Velocity P-wave (km/s) = 6.61415 6.98868 6.80399
#
# Compressibility (1/GPa) = 0.02311178
#
# Stress axis : x y z
#
# Youngs Moduli (GPa) = 73.26903 73.26903 49.95564
#
# Poissons Ratio (x) = 0.45986 0.14550
# Poissons Ratio (y) = 0.45986 0.14550
# Poissons Ratio (z) = 0.21340 0.21340
#
# Static dielectric constant tensor:
#      x y z
#    x 3.017140 0.000000 0.000000 
#    y 0.000000 3.017140 0.000000 
#    z 0.000000 0.000000 3.425870 
# 
# 
# High freq. dielectric constant tensor:
#      x y z
#    x 1.627620 0.000000 0.000000 
#    y 0.000000 1.627620 0.000000 
#    z 0.000000 0.000000 1.671430 
# 
# From -- ./inp_files/1892.got.cif
#   From: 2010.03.12/outbox.cif.g09.slc.cpg/sg182_1_cif.got.tgz:1892.got - 2010.04.01 11:49:36.
