data_PCOD8326988
_publ_section_title
;
Structure prediction by ZEFSAII (Michael W. Deem and Ramdas Pophale) SiO2 
 PCOD8326988
Probable space group: P -6 M 2
;
_chemical_formula_sum "Si O2"
_cell_formula_units_Z 66
_cell_length_a 22.247780
_cell_length_b 22.247780
_cell_length_c 7.707466
_cell_angle_alpha 90.000000
_cell_angle_beta 90.000000
_cell_angle_gamma 120.000000
_cell_volume 3303.814173
_symmetry_space_group_name_H-M "P -6 M 2"
_symmetry_group_IT_number 187
_symmetry_cell_setting 'hexagonal'
loop_
_space_group_symop_operation_xyz
x,y,z
-x+y,-x,-z
-y,x-y,z
x,y,-z
-x+y,-x,z
-y,x-y,-z
-y,-x,-z
-x+y,y,-z
x,x-y,-z
-x+y,y,z
x,x-y,z
-y,-x,z
loop_
_atom_site_type_symbol
_atom_site_label
_atom_site_fract_x
_atom_site_fract_y
_atom_site_fract_z
Si Si1 0.719532 0.139295 0.198967
Si Si2 0.467871 0.666150 0.794229
Si Si3 0.667076 0.191360 0.500000
Si Si4 0.739783 0.016921 0.194813
Si Si5 0.618066 0.877308 0.301554
Si Si6 0.000343 0.864208 0.793059
O O1 0.795986 0.204015 0.204986
O O2 0.669426 0.151849 0.325998
O O3 0.725002 0.074566 0.278882
O O4 0.690340 0.126195 0.000000
O O5 0.455435 0.727718 0.726957
O O6 0.406282 0.593719 0.721017
O O7 0.540120 0.676805 0.720498
O O8 0.469590 0.665547 0.000000
O O9 0.729860 0.270141 0.500000
O O10 0.595787 0.191573 0.500000
O O11 0.801888 0.010118 0.285362
O O12 0.669739 0.943270 0.190548
O O13 0.763913 0.042727 0.000000
O O14 0.641397 0.892808 0.500000
O O15 0.621377 0.810689 0.231091
O O16 0.937022 0.874044 0.729590
O O17 0.003935 0.863593 0.000000
O O18 0.071984 0.928017 0.719624
#
# Coordination Sequence:
#
# PCOD8326988 Si02
#       6
#    12  12   6  12  12  12
#     4   9  19  36  58  86 118 149 186 233 278 326
#     4   9  17  31  52  75  97 123 159 205 258 317
#     4  10  21  38  62  90 119 150 184 224 276 336
#     4  10  19  32  53  76 101 140 185 225 269 323
#     4  10  21  34  48  70 102 136 174 222 270 318
#     4   9  16  26  44  73 107 139 173 218 271 322
#
# _framework density 19.97691
#
# number of rings (size 3 to 8) (size 9 to 14) (size 15 to 20)
#    0.000    2.545    0.000    2.091    1.273    6.182 
#    0.000    0.909    0.000    3.273    0.000    0.000 
#    0.000    1.455    0.000    0.000    0.000    0.000 
#
# Total GULP energy -818259.175101 kJ/mol
# GULP energy per Si atom -12397.866289 kJ/mol
# Density = 1.993144 g / cm^3
# Si number density = 19.976910 Si / 1000 Ang^3
#
#
#
# Elastic Constant Matrix: (Units=GPa)
#
#
# Indices 1 2 3 4 5 6 
#
# 1 139.1340 72.5309 28.5184 0.0000 0.0002 0.0000
# 2 72.5309 139.1340 28.5184 0.0000 -0.0002 0.0000
# 3 28.5184 28.5184 52.6054 0.0000 0.0000 0.0000
# 4 0.0000 0.0000 0.0000 11.7298 0.0000 -0.0002
# 5 0.0002 -0.0002 0.0000 0.0000 11.7298 0.0000
# 6 0.0000 0.0000 0.0000 -0.0002 0.0000 33.3015
#
#
#
# Elastic Compliance Matrix: (Units=1/GPa)
#
#
# Indices 1 2 3 4 5 6 
#
# 1 0.010274 -0.004741 -0.002999 0.000000 0.000000 0.000000
# 2 -0.004741 0.010274 -0.002999 0.000000 0.000000 0.000000
# 3 -0.002999 -0.002999 0.022261 0.000000 0.000000 0.000000
# 4 0.000000 0.000000 0.000000 0.085253 0.000000 0.000001
# 5 0.000000 0.000000 0.000000 0.000000 0.085253 0.000000
# 6 0.000000 0.000000 0.000000 0.000001 0.000000 0.030029
#
#
# Mechanical properties :
#
#
# Convention : Reuss Voigt Hill
#
# Bulk Modulus (GPa) = 46.88374 65.55655 56.22014
# Shear Modulus (GPa) = 18.38694 24.77260 21.57977
#
# Velocity S-wave (km/s) = 3.03712 3.52527 3.29026
# Velocity P-wave (km/s) = 5.98487 7.03260 6.52978
#
# Compressibility (1/GPa) = 0.02132936
#
# Stress axis : x y z
#
# Youngs Moduli (GPa) = 97.33781 97.33781 44.92064
#
# Poissons Ratio (x) = 0.46146 0.13473
# Poissons Ratio (y) = 0.46146 0.13473
# Poissons Ratio (z) = 0.29195 0.29195
#
# Static dielectric constant tensor:
#      x y z
#    x 3.618340 0.000000 0.000000 
#    y 0.000000 3.618340 0.000000 
#    z 0.000000 0.000000 3.464380 
# 
# 
# High freq. dielectric constant tensor:
#      x y z
#    x 1.773830 0.000000 0.000000 
#    y 0.000000 1.773830 0.000000 
#    z 0.000000 0.000000 1.761330 
# 
# From -- ./inp_files/755.got.cif
#   From: 2010.03.12/outbox.cif.g09.slc.cpg/sg187_1_cif.got.tgz:755.got - 2010.04.01 11:58:23.
