data_PCOD8326199
_publ_section_title
;
Structure prediction by ZEFSAII (Michael W. Deem and Ramdas Pophale) SiO2 
 PCOD8326199
Probable space group: P 62 2 2
;
_chemical_formula_sum "Si O2"
_cell_formula_units_Z 69
_cell_length_a 15.352917
_cell_length_b 15.352917
_cell_length_c 17.504901
_cell_angle_alpha 90.000000
_cell_angle_beta 90.000000
_cell_angle_gamma 120.000000
_cell_volume 3573.321519
_symmetry_space_group_name_H-M "P 62 2 2"
_symmetry_group_IT_number 180
_symmetry_cell_setting 'hexagonal'
loop_
_space_group_symop_operation_xyz
x,y,z
x-y,x,1/3+z
-y,x-y,2/3+z
-x,-y,z
-x+y,-x,1/3+z
y,-x+y,2/3+z
x-y,-y,-z
-x,-x+y,1/3-z
y,x,2/3-z
-y,-x,2/3-z
-x+y,y,-z
x,x-y,1/3-z
loop_
_atom_site_type_symbol
_atom_site_label
_atom_site_fract_x
_atom_site_fract_y
_atom_site_fract_z
Si Si1 0.609761 0.867360 0.876976
Si Si2 0.000000 0.617796 0.666667
Si Si3 0.500000 0.000000 0.500000
Si Si4 0.319727 0.404716 0.724046
Si Si5 0.828445 0.391540 0.764854
Si Si6 0.444030 0.805081 0.265694
Si Si7 0.293520 0.407681 0.037470
O O1 0.644072 0.784790 0.894669
O O2 0.492289 0.822680 0.894561
O O3 0.635577 0.907636 0.790299
O O4 0.664084 0.959547 0.935873
O O5 0.086083 0.599887 0.706576
O O6 0.478684 0.073125 0.448537
O O7 0.306198 0.462423 0.654119
O O8 0.348698 0.328420 0.685455
O O9 0.853259 0.366483 0.848911
O O10 0.714598 0.314442 0.737699
O O11 0.367535 0.839720 0.296584
O O12 0.190555 0.381109 0.000000
#
# Coordination Sequence:
#
# PCOD8326199 Si02
#       7
#    12   6   3  12  12  12  12
#     4  11  24  36  59  86 117 158 201 247 299 356
#     4  12  21  36  58  84 117 146 193 244 300 362
#     4  12  24  36  60  84 120 158 210 248 292 360
#     4  12  23  38  57  86 115 159 204 249 292 359
#     4  10  21  35  56  84 115 156 193 245 299 351
#     4  10  21  37  56  80 117 156 199 241 293 350
#     4  11  24  41  57  79 121 159 199 248 299 349
#
# _framework density 19.309766
#
# number of rings (size 3 to 8) (size 9 to 14) (size 15 to 20)
#    0.000    1.043    3.478    3.652    2.435    4.174 
#    0.000    0.000    0.000    0.000    0.000    0.609 
#    0.000    2.783    0.000    0.000    0.000    0.000 
#
# Total GULP energy -854910.906890 kJ/mol
# GULP energy per Si atom -12390.013143 kJ/mol
# Density = 1.926582 g / cm^3
# Si number density = 19.309766 Si / 1000 Ang^3
#
#
#
# Elastic Constant Matrix: (Units=GPa)
#
#
# Indices 1 2 3 4 5 6 
#
# 1 68.1219 39.8615 33.1884 0.0000 0.0000 0.0000
# 2 39.8615 68.1219 33.1884 0.0000 0.0000 0.0000
# 3 33.1884 33.1884 125.5023 0.0000 0.0000 0.0000
# 4 0.0000 0.0000 0.0000 31.7827 0.0000 0.0000
# 5 0.0000 0.0000 0.0000 0.0000 31.7827 0.0000
# 6 0.0000 0.0000 0.0000 0.0000 0.0000 14.1302
#
#
#
# Elastic Compliance Matrix: (Units=1/GPa)
#
#
# Indices 1 2 3 4 5 6 
#
# 1 0.023222 -0.012163 -0.002924 0.000000 0.000000 0.000000
# 2 -0.012163 0.023222 -0.002924 0.000000 0.000000 0.000000
# 3 -0.002924 -0.002924 0.009515 0.000000 0.000000 0.000000
# 4 0.000000 0.000000 0.000000 0.031464 0.000000 0.000000
# 5 0.000000 0.000000 0.000000 0.000000 0.031464 0.000000
# 6 0.000000 0.000000 0.000000 0.000000 0.000000 0.070770
#
#
# Mechanical properties :
#
#
# Convention : Reuss Voigt Hill
#
# Bulk Modulus (GPa) = 50.16577 52.69140 51.42859
# Shear Modulus (GPa) = 21.52162 25.90629 23.71396
#
# Velocity S-wave (km/s) = 3.34210 3.66678 3.50820
# Velocity P-wave (km/s) = 6.39756 6.72858 6.56515
#
# Compressibility (1/GPa) = 0.01993391
#
# Stress axis : x y z
#
# Youngs Moduli (GPa) = 43.06316 43.06316 105.10161
#
# Poissons Ratio (x) = 0.52380 0.30735
# Poissons Ratio (y) = 0.52380 0.30735
# Poissons Ratio (z) = 0.12593 0.12593
#
# Static dielectric constant tensor:
#      x y z
#    x 3.512830 0.000000 0.000000 
#    y 0.000000 3.512830 0.000000 
#    z 0.000000 0.000000 4.451330 
# 
# 
# High freq. dielectric constant tensor:
#      x y z
#    x 1.718620 0.000000 0.000000 
#    y 0.000000 1.718620 0.000000 
#    z 0.000000 0.000000 1.795090 
# 
# From -- ./inp_files/7824.got.cif
#   From: 2010.03.12/outbox.cif.g09.slc.cpg/sg180_4_cif.got.tgz:7824.got - 2010.04.01 11:35:50.
