data_PCOD8326343
_publ_section_title
;
Structure prediction by ZEFSAII (Michael W. Deem and Ramdas Pophale) SiO2 
 PCOD8326343
Probable space group: P 64 2 2
;
_chemical_formula_sum "Si O2"
_cell_formula_units_Z 48
_cell_length_a 15.973792
_cell_length_b 15.973792
_cell_length_c 10.876762
_cell_angle_alpha 90.000000
_cell_angle_beta 90.000000
_cell_angle_gamma 120.000000
_cell_volume 2403.512070
_symmetry_space_group_name_H-M "P 64 2 2"
_symmetry_group_IT_number 181
_symmetry_cell_setting 'hexagonal'
loop_
_space_group_symop_operation_xyz
x,y,z
x-y,x,2/3+z
-y,x-y,1/3+z
-x,-y,z
-x+y,-x,2/3+z
y,-x+y,1/3+z
x-y,-y,-z
-x,-x+y,2/3-z
y,x,1/3-z
-y,-x,1/3-z
-x+y,y,-z
x,x-y,2/3-z
loop_
_atom_site_type_symbol
_atom_site_label
_atom_site_fract_x
_atom_site_fract_y
_atom_site_fract_z
Si Si1 0.573254 0.159412 0.784958
Si Si2 0.655133 0.310265 0.000000
Si Si3 0.017688 0.204783 0.562853
Si Si4 0.378289 0.002105 0.144940
Si Si5 0.151242 0.151242 0.166667
O O1 0.603615 0.226574 0.663270
O O2 0.456963 0.101381 0.801114
O O3 0.613380 0.085568 0.787481
O O4 0.627446 0.240529 0.885682
O O5 0.121656 0.243311 0.500000
O O6 0.975499 0.268796 0.507043
O O7 0.022058 0.217198 0.711250
O O8 0.952591 0.093166 0.524569
O O9 0.395845 0.000000 0.000000
#
# Coordination Sequence:
#
# PCOD8326343 Si02
#       5
#    12   6  12  12   6
#     4  10  21  38  57  89 119 157 201 268 311 379
#     4  10  20  35  62  82 120 158 199 244 320 378
#     4  11  23  38  64  88 120 169 207 256 318 379
#     4  11  21  38  61  91 122 155 212 265 316 373
#     4  10  23  42  54  89 130 156 210 261 304 384
#
# _framework density 19.970775
#
# number of rings (size 3 to 8) (size 9 to 14) (size 15 to 20)
#    0.000    1.500    2.500    3.375    3.500    6.000 
#    0.000    2.500    0.000    7.500    0.000    0.000 
#    0.000    0.000    0.000    0.000    0.000    0.000 
#
# Total GULP energy -594919.937608 kJ/mol
# GULP energy per Si atom -12394.165367 kJ/mol
# Density = 1.992532 g / cm^3
# Si number density = 19.970775 Si / 1000 Ang^3
#
#
#
# Elastic Constant Matrix: (Units=GPa)
#
#
# Indices 1 2 3 4 5 6 
#
# 1 117.3204 62.2767 34.3907 0.0000 0.0000 0.0000
# 2 62.2767 117.3204 34.3907 0.0000 0.0000 0.0000
# 3 34.3907 34.3907 69.4066 0.0000 0.0000 0.0000
# 4 0.0000 0.0000 0.0000 30.7253 0.0000 0.0000
# 5 0.0000 0.0000 0.0000 0.0000 30.7253 0.0000
# 6 0.0000 0.0000 0.0000 0.0000 0.0000 27.5219
#
#
#
# Elastic Compliance Matrix: (Units=1/GPa)
#
#
# Indices 1 2 3 4 5 6 
#
# 1 0.012520 -0.005648 -0.003405 0.000000 0.000000 0.000000
# 2 -0.005648 0.012520 -0.003405 0.000000 0.000000 0.000000
# 3 -0.003405 -0.003405 0.017782 0.000000 0.000000 0.000000
# 4 0.000000 0.000000 0.000000 0.032546 0.000000 0.000000
# 5 0.000000 0.000000 0.000000 0.000000 0.032546 0.000000
# 6 0.000000 0.000000 0.000000 0.000000 0.000000 0.036335
#
#
# Mechanical properties :
#
#
# Convention : Reuss Voigt Hill
#
# Bulk Modulus (GPa) = 55.84696 62.90705 59.37700
# Shear Modulus (GPa) = 28.54964 29.32715 28.93839
#
# Velocity S-wave (km/s) = 3.78507 3.83626 3.81075
# Velocity P-wave (km/s) = 6.86494 7.15475 7.01134
#
# Compressibility (1/GPa) = 0.01790608
#
# Stress axis : x y z
#
# Youngs Moduli (GPa) = 79.87399 79.87399 56.23584
#
# Poissons Ratio (x) = 0.45110 0.19149
# Poissons Ratio (y) = 0.45110 0.19149
# Poissons Ratio (z) = 0.27198 0.27198
#
# Static dielectric constant tensor:
#      x y z
#    x 3.857880 0.000000 0.000000 
#    y 0.000000 3.857880 0.000000 
#    z 0.000000 0.000000 3.535800 
# 
# 
# High freq. dielectric constant tensor:
#      x y z
#    x 1.781290 0.000000 0.000000 
#    y 0.000000 1.781290 0.000000 
#    z 0.000000 0.000000 1.771490 
# 
# From -- ./inp_files/4457.got.cif
#   From: 2010.03.12/outbox.cif.g09.slc.cpg/sg181_3_cif.got.tgz:4457.got - 2010.04.01 11:42:41.
