data_PCOD8326775
_publ_section_title
;
Structure prediction by ZEFSAII (Michael W. Deem and Ramdas Pophale) SiO2 
 PCOD8326775
Probable space group: P 63 M C
;
_chemical_formula_sum "Si O2"
_cell_formula_units_Z 72
_cell_length_a 22.336768
_cell_length_b 22.336768
_cell_length_c 9.940503
_cell_angle_alpha 90.000000
_cell_angle_beta 90.000000
_cell_angle_gamma 120.000000
_cell_volume 4295.163094
_symmetry_space_group_name_H-M "P 63 M C"
_symmetry_group_IT_number 186
_symmetry_cell_setting 'hexagonal'
loop_
_space_group_symop_operation_xyz
x,y,z
x-y,x,1/2+z
-y,x-y,z
-x,-y,1/2+z
-x+y,-x,z
y,-x+y,1/2+z
-x+y,y,z
x,x-y,z
-y,-x,z
y,x,1/2+z
x-y,-y,1/2+z
-x,-x+y,1/2+z
loop_
_atom_site_type_symbol
_atom_site_label
_atom_site_fract_x
_atom_site_fract_y
_atom_site_fract_z
Si Si1 0.400959 0.932512 0.688850
Si Si2 0.630877 0.748804 0.375361
Si Si3 0.634160 0.884475 0.685475
Si Si4 0.534946 0.595633 0.382450
Si Si5 0.999381 0.141146 0.513712
Si Si6 0.771673 0.776301 0.263280
O O1 0.447658 0.895315 0.705639
O O2 0.320139 0.882301 0.718836
O O3 0.409786 0.962343 0.537856
O O4 0.426189 0.993585 0.793278
O O5 0.604765 0.802383 0.346715
O O6 0.654670 0.752570 0.529419
O O7 0.564147 0.674934 0.340605
O O8 0.697080 0.768959 0.283390
O O9 0.618487 0.809244 0.726384
O O10 0.698858 0.939608 0.772696
O O11 0.451714 0.548287 0.358715
O O12 0.071325 0.142649 0.537527
O O13 0.990179 0.189819 0.619417
O O14 0.998364 0.171456 0.368628
O O15 0.937498 0.062503 0.524518
#
# Coordination Sequence:
#
# PCOD8326775 Si02
#       6
#    12  12  12  12  12  12
#     4   9  17  30  49  73  98 125 156 192 234 281
#     4  10  19  33  52  74 101 133 164 198 246 298
#     4  10  19  33  52  74 101 133 164 198 246 298
#     4   9  17  30  49  73  98 125 156 192 234 281
#     4  12  25  40  54  68  91 126 170 216 262 308
#     4  12  22  36  52  74  96 126 164 210 258 304
#
# _framework density 16.763041999999999
#
# number of rings (size 3 to 8) (size 9 to 14) (size 15 to 20)
#    0.000    1.667    3.333    3.167    0.000    0.000 
#    0.000    1.667    0.000    0.667    0.000    4.667 
#    0.000    0.000    0.000    0.000    0.000    0.000 
#
# Total GULP energy -892489.844612 kJ/mol
# GULP energy per Si atom -12395.692286 kJ/mol
# Density = 1.672489 g / cm^3
# Si number density = 16.763042 Si / 1000 Ang^3
#
#
#
# Elastic Constant Matrix: (Units=GPa)
#
#
# Indices 1 2 3 4 5 6 
#
# 1 99.7669 48.8259 13.0327 0.0000 0.0000 0.0000
# 2 48.8259 99.7669 13.0327 0.0000 0.0000 0.0000
# 3 13.0327 13.0327 31.2911 0.0000 0.0000 0.0000
# 4 0.0000 0.0000 0.0000 18.5788 0.0000 0.0000
# 5 0.0000 0.0000 0.0000 0.0000 18.5788 0.0000
# 6 0.0000 0.0000 0.0000 0.0000 0.0000 25.4705
#
#
#
# Elastic Compliance Matrix: (Units=1/GPa)
#
#
# Indices 1 2 3 4 5 6 
#
# 1 0.013445 -0.006185 -0.003024 0.000000 0.000000 0.000000
# 2 -0.006185 0.013445 -0.003024 0.000000 0.000000 0.000000
# 3 -0.003024 -0.003024 0.034477 0.000000 0.000000 0.000000
# 4 0.000000 0.000000 0.000000 0.053825 0.000000 0.000000
# 5 0.000000 0.000000 0.000000 0.000000 0.053825 0.000000
# 6 0.000000 0.000000 0.000000 0.000000 0.000000 0.039261
#
#
# Mechanical properties :
#
#
# Convention : Reuss Voigt Hill
#
# Bulk Modulus (GPa) = 27.09894 42.28970 34.69432
# Shear Modulus (GPa) = 20.40443 22.92119 21.66281
#
# Velocity S-wave (km/s) = 3.49266 3.70180 3.59875
# Velocity P-wave (km/s) = 5.69789 6.59953 6.16521
#
# Compressibility (1/GPa) = 0.03690181
#
# Stress axis : x y z
#
# Youngs Moduli (GPa) = 74.37487 74.37487 29.00501
#
# Poissons Ratio (x) = 0.46002 0.08771
# Poissons Ratio (y) = 0.46002 0.08771
# Poissons Ratio (z) = 0.22490 0.22490
#
# Static dielectric constant tensor:
#      x y z
#    x 3.300500 0.000000 0.000000 
#    y 0.000000 3.300500 0.000000 
#    z 0.000000 0.000000 3.187380 
# 
# 
# High freq. dielectric constant tensor:
#      x y z
#    x 1.640920 0.000000 0.000000 
#    y 0.000000 1.640920 0.000000 
#    z 0.000000 0.000000 1.644400 
# 
# From -- ./inp_files/1205.got.cif
#   From: 2010.03.12/outbox.cif.g09.slc.cpg/sg186_1_cif.got.tgz:1205.got - 2010.04.01 11:56:34.
