data_PCOD8326416
_publ_section_title
;
Structure prediction by ZEFSAII (Michael W. Deem and Ramdas Pophale) SiO2 
 PCOD8326416
Probable space group: P 64 2 2
;
_chemical_formula_sum "Si O2"
_cell_formula_units_Z 60
_cell_length_a 14.711497
_cell_length_b 14.711497
_cell_length_c 14.053911
_cell_angle_alpha 90.000000
_cell_angle_beta 90.000000
_cell_angle_gamma 120.000000
_cell_volume 2634.156452
_symmetry_space_group_name_H-M "P 64 2 2"
_symmetry_group_IT_number 181
_symmetry_cell_setting 'hexagonal'
loop_
_space_group_symop_operation_xyz
x,y,z
x-y,x,2/3+z
-y,x-y,1/3+z
-x,-y,z
-x+y,-x,2/3+z
y,-x+y,1/3+z
x-y,-y,-z
-x,-x+y,2/3-z
y,x,1/3-z
-y,-x,1/3-z
-x+y,y,-z
x,x-y,2/3-z
loop_
_atom_site_type_symbol
_atom_site_label
_atom_site_fract_x
_atom_site_fract_y
_atom_site_fract_z
Si Si1 0.834321 0.512482 0.434935
Si Si2 0.905744 0.047042 0.276011
Si Si3 0.412622 0.825244 0.500000
Si Si4 0.678869 0.681610 0.890487
Si Si5 0.000000 0.500000 0.680563
Si Si6 0.820993 0.302313 0.446258
O O1 0.731045 0.462091 0.500000
O O2 0.876064 0.429781 0.443598
O O3 0.805635 0.535735 0.330688
O O4 0.917003 0.627712 0.470561
O O5 0.943966 0.056035 0.166667
O O6 0.000000 0.148369 0.333334
O O7 0.894877 0.947439 0.333334
O O8 0.788960 0.032584 0.279788
O O9 0.458699 0.895305 0.407316
O O10 0.289047 0.751684 0.498090
O O11 0.736505 0.625559 0.839370
O O12 0.585850 0.599361 0.956491
#
# Coordination Sequence:
#
# PCOD8326416 Si02
#       6
#    12  12   6  12   6  12
#     4  11  22  42  67 106 149 187 240 310 370 458
#     4  11  27  52  79 110 145 195 259 326 389 455
#     4  11  26  44  64 102 146 198 236 295 380 460
#     4  12  25  45  75 108 145 194 251 313 383 451
#     4  11  26  46  65 106 156 182 249 314 368 459
#     4  11  24  41  72 102 147 199 244 295 376 464
#
# _framework density 22.77769
#
# number of rings (size 3 to 8) (size 9 to 14) (size 15 to 20)
#    0.000    0.800    3.000    3.600    2.800    6.400 
#    3.600    0.000    0.000    0.000    0.000    0.000 
#    0.000    0.000    0.000    0.000    0.000    0.000 
#
# Total GULP energy -743524.804429 kJ/mol
# GULP energy per Si atom -12392.080074 kJ/mol
# Density = 2.272585 g / cm^3
# Si number density = 22.777690 Si / 1000 Ang^3
#
#
#
# Elastic Constant Matrix: (Units=GPa)
#
#
# Indices 1 2 3 4 5 6 
#
# 1 145.0855 57.1384 63.4840 0.0000 0.0000 0.0000
# 2 57.1384 145.0855 63.4840 0.0000 0.0000 0.0000
# 3 63.4840 63.4840 151.7674 0.0000 0.0000 0.0000
# 4 0.0000 0.0000 0.0000 69.8071 0.0000 0.0000
# 5 0.0000 0.0000 0.0000 0.0000 69.8071 0.0000
# 6 0.0000 0.0000 0.0000 0.0000 0.0000 43.9735
#
#
#
# Elastic Compliance Matrix: (Units=1/GPa)
#
#
# Indices 1 2 3 4 5 6 
#
# 1 0.009038 -0.002332 -0.002805 0.000000 0.000000 0.000000
# 2 -0.002332 0.009038 -0.002805 0.000000 0.000000 0.000000
# 3 -0.002805 -0.002805 0.008936 0.000000 0.000000 0.000000
# 4 0.000000 0.000000 0.000000 0.014325 0.000000 0.000000
# 5 0.000000 0.000000 0.000000 0.000000 0.014325 0.000000
# 6 0.000000 0.000000 0.000000 0.000000 0.000000 0.022741
#
#
# Mechanical properties :
#
#
# Convention : Reuss Voigt Hill
#
# Bulk Modulus (GPa) = 89.86705 90.01682 89.94194
# Shear Modulus (GPa) = 51.02129 53.90632 52.46380
#
# Velocity S-wave (km/s) = 4.73796 4.87008 4.80448
# Velocity P-wave (km/s) = 8.33491 8.43973 8.38748
#
# Compressibility (1/GPa) = 0.01112755
#
# Stress axis : x y z
#
# Youngs Moduli (GPa) = 110.63916 110.63916 111.90839
#
# Poissons Ratio (x) = 0.25802 0.31393
# Poissons Ratio (y) = 0.25802 0.31393
# Poissons Ratio (z) = 0.31037 0.31037
#
# Static dielectric constant tensor:
#      x y z
#    x 4.952690 0.000000 0.000000 
#    y 0.000000 4.952690 0.000000 
#    z 0.000000 0.000000 4.427950 
# 
# 
# High freq. dielectric constant tensor:
#      x y z
#    x 1.902300 0.000000 0.000000 
#    y 0.000000 1.902300 0.000000 
#    z 0.000000 0.000000 1.910160 
# 
# From -- ./inp_files/6194.got.cif
#   From: 2010.03.12/outbox.cif.g09.slc.cpg/sg181_4_cif.got.tgz:6194.got - 2010.04.01 11:42:41.
