data_PCOD8326837
_publ_section_title
;
Structure prediction by ZEFSAII (Michael W. Deem and Ramdas Pophale) SiO2 
 PCOD8326837
Probable space group: P -6 M 2
;
_chemical_formula_sum "Si O2"
_cell_formula_units_Z 44
_cell_length_a 16.303167
_cell_length_b 16.303167
_cell_length_c 14.044737
_cell_angle_alpha 90.000000
_cell_angle_beta 90.000000
_cell_angle_gamma 120.000000
_cell_volume 3232.869673
_symmetry_space_group_name_H-M "P -6 M 2"
_symmetry_group_IT_number 187
_symmetry_cell_setting 'hexagonal'
loop_
_space_group_symop_operation_xyz
x,y,z
-x+y,-x,-z
-y,x-y,z
x,y,-z
-x+y,-x,z
-y,x-y,-z
-y,-x,-z
-x+y,y,-z
x,x-y,-z
-x+y,y,z
x,x-y,z
-y,-x,z
loop_
_atom_site_type_symbol
_atom_site_label
_atom_site_fract_x
_atom_site_fract_y
_atom_site_fract_z
Si Si1 0.667355 0.145911 0.606220
Si Si2 0.714523 0.095783 0.795273
Si Si3 0.188278 0.188431 0.890032
Si Si4 0.560230 0.120460 0.887520
Si Si5 0.666667 0.333333 0.113364
O O1 0.664709 0.105785 0.500000
O O2 0.566005 0.132010 0.635031
O O3 0.742540 0.257461 0.609943
O O4 0.696380 0.090113 0.681563
O O5 0.800529 0.199472 0.826267
O O6 0.617989 0.071216 0.849574
O O7 0.740473 0.016320 0.824129
O O8 0.099696 0.199391 0.859778
O O9 0.160705 0.080352 0.872057
O O10 0.216074 0.216171 0.000000
O O11 0.613609 0.227217 0.846817
O O12 0.557874 0.115747 0.000000
O O13 0.666667 0.333334 0.000000
#
# Coordination Sequence:
#
# PCOD8326837 Si02
#       5
#    12  12  12   6   2
#     4   9  16  25  37  54  79 112 147 174 194 222
#     4  10  18  26  38  57  81 110 139 168 199 236
#     4   9  17  29  44  60  78 102 135 175 213 246
#     4  11  18  24  33  53  85 117 140 156 183 230
#     4   9  18  24  30  45  79 125 145 150 174 222
#
# _framework density 13.610200000000001
#
# number of rings (size 3 to 8) (size 9 to 14) (size 15 to 20)
#    0.000    2.455    2.727    1.364    0.000    3.273 
#    0.000    0.000    0.000    0.818    0.000    0.000 
#    1.364    2.182    1.636    0.000    0.273    0.000 
#
# Total GULP energy -545518.334336 kJ/mol
# GULP energy per Si atom -12398.143962 kJ/mol
# Density = 1.357922 g / cm^3
# Si number density = 13.610200 Si / 1000 Ang^3
#
#
#
# Elastic Constant Matrix: (Units=GPa)
#
#
# Indices 1 2 3 4 5 6 
#
# 1 81.1529 42.2198 45.0873 0.0000 0.0000 0.0000
# 2 42.2198 81.1529 45.0873 0.0000 0.0000 0.0000
# 3 45.0873 45.0873 85.8076 0.0000 0.0000 0.0000
# 4 0.0000 0.0000 0.0000 17.5089 0.0000 0.0000
# 5 0.0000 0.0000 0.0000 0.0000 17.5089 0.0000
# 6 0.0000 0.0000 0.0000 0.0000 0.0000 19.4665
#
#
#
# Elastic Compliance Matrix: (Units=1/GPa)
#
#
# Indices 1 2 3 4 5 6 
#
# 1 0.019422 -0.006263 -0.006915 0.000000 0.000000 0.000000
# 2 -0.006263 0.019422 -0.006915 0.000000 0.000000 0.000000
# 3 -0.006915 -0.006915 0.018920 0.000000 0.000000 0.000000
# 4 0.000000 0.000000 0.000000 0.057114 0.000000 0.000000
# 5 0.000000 0.000000 0.000000 0.000000 0.057114 0.000000
# 6 0.000000 0.000000 0.000000 0.000000 0.000000 0.051370
#
#
# Mechanical properties :
#
#
# Convention : Reuss Voigt Hill
#
# Bulk Modulus (GPa) = 56.87946 56.98914 56.93430
# Shear Modulus (GPa) = 18.55927 18.61148 18.58537
#
# Velocity S-wave (km/s) = 3.69674 3.70194 3.69934
# Velocity P-wave (km/s) = 7.75266 7.76117 7.75691
#
# Compressibility (1/GPa) = 0.01758104
#
# Stress axis : x y z
#
# Youngs Moduli (GPa) = 51.48719 51.48723 52.85273
#
# Poissons Ratio (x) = 0.32245 0.36546
# Poissons Ratio (y) = 0.32245 0.36546
# Poissons Ratio (z) = 0.35601 0.35601
#
# Static dielectric constant tensor:
#      x y z
#    x 2.483420 0.000000 0.000000 
#    y 0.000000 2.483410 0.000000 
#    z 0.000000 0.000000 2.798160 
# 
# 
# High freq. dielectric constant tensor:
#      x y z
#    x 1.487580 0.000000 0.000000 
#    y 0.000000 1.487580 0.000000 
#    z 0.000000 0.000000 1.524800 
# 
# From -- ./inp_files/2273.got.cif
#   From: 2010.03.12/outbox.cif.g09.slc.cpg/sg187_2_cif.got.tgz:2273.got - 2010.04.01 11:58:23.
