data_PCOD8326149
_publ_section_title
;
Structure prediction by ZEFSAII (Michael W. Deem and Ramdas Pophale) SiO2 
 PCOD8326149
Probable space group: P 62 2 2
;
_chemical_formula_sum "Si O2"
_cell_formula_units_Z 33
_cell_length_a 9.031386
_cell_length_b 9.031386
_cell_length_c 24.393327
_cell_angle_alpha 90.000000
_cell_angle_beta 90.000000
_cell_angle_gamma 120.000000
_cell_volume 1723.099983
_symmetry_space_group_name_H-M "P 62 2 2"
_symmetry_group_IT_number 180
_symmetry_cell_setting 'hexagonal'
loop_
_space_group_symop_operation_xyz
x,y,z
x-y,x,1/3+z
-y,x-y,2/3+z
-x,-y,z
-x+y,-x,1/3+z
y,-x+y,2/3+z
x-y,-y,-z
-x,-x+y,1/3-z
y,x,2/3-z
-y,-x,2/3-z
-x+y,y,-z
x,x-y,1/3-z
loop_
_atom_site_type_symbol
_atom_site_label
_atom_site_fract_x
_atom_site_fract_y
_atom_site_fract_z
Si Si1 0.676383 0.959037 0.382760
Si Si2 0.591683 0.336932 0.770148
Si Si3 0.000000 0.000000 0.666667
Si Si4 0.500000 0.000000 0.715949
O O1 0.506278 0.782499 0.401550
O O2 0.652989 0.018770 0.322481
O O3 0.701783 0.100000 0.428008
O O4 0.844232 0.944432 0.376054
O O5 0.636083 0.363918 0.833334
O O6 0.602612 0.171229 0.752038
#
# Coordination Sequence:
#
# PCOD8326149 Si02
#       4
#    12  12   3   6
#     4  10  19  38  63  88 114 165 211 255 316 380
#     4  10  20  39  63  85 121 169 203 251 327 392
#     4  12  20  36  64  96 116 146 232 272 292 370
#     4  10  18  40  61  86 119 164 208 252 308 402
#
# _framework density 19.151529
#
# number of rings (size 3 to 8) (size 9 to 14) (size 15 to 20)
#    0.000    2.182    3.636    5.455    0.000    0.000 
#    6.545    5.455    0.000    0.000    0.000    0.000 
#    0.000    0.000    0.000    0.000    0.000    0.000 
#
# Total GULP energy -409016.075765 kJ/mol
# GULP energy per Si atom -12394.426538 kJ/mol
# Density = 1.910794 g / cm^3
# Si number density = 19.151529 Si / 1000 Ang^3
#
#
#
# Elastic Constant Matrix: (Units=GPa)
#
#
# Indices 1 2 3 4 5 6 
#
# 1 112.3477 44.1472 47.2556 0.0000 0.0000 0.0000
# 2 44.1472 112.3477 47.2556 0.0000 0.0000 0.0000
# 3 47.2556 47.2556 138.9900 0.0000 0.0000 0.0000
# 4 0.0000 0.0000 0.0000 24.4320 0.0000 0.0000
# 5 0.0000 0.0000 0.0000 0.0000 24.4320 0.0000
# 6 0.0000 0.0000 0.0000 0.0000 0.0000 34.1003
#
#
#
# Elastic Compliance Matrix: (Units=1/GPa)
#
#
# Indices 1 2 3 4 5 6 
#
# 1 0.011352 -0.003311 -0.002734 0.000000 0.000000 0.000000
# 2 -0.003311 0.011352 -0.002734 0.000000 0.000000 0.000000
# 3 -0.002734 -0.002734 0.009054 0.000000 0.000000 0.000000
# 4 0.000000 0.000000 0.000000 0.040930 0.000000 0.000000
# 5 0.000000 0.000000 0.000000 0.000000 0.040930 0.000000
# 6 0.000000 0.000000 0.000000 0.000000 0.000000 0.029325
#
#
# Mechanical properties :
#
#
# Convention : Reuss Voigt Hill
#
# Bulk Modulus (GPa) = 70.42112 71.22245 70.82179
# Shear Modulus (GPa) = 30.26029 31.59468 30.92748
#
# Velocity S-wave (km/s) = 3.97929 4.06608 4.02292
# Velocity P-wave (km/s) = 7.61337 7.70154 7.65758
#
# Compressibility (1/GPa) = 0.01420028
#
# Stress axis : x y z
#
# Youngs Moduli (GPa) = 88.09140 88.09140 110.45115
#
# Poissons Ratio (x) = 0.29165 0.30196
# Poissons Ratio (y) = 0.29165 0.30196
# Poissons Ratio (z) = 0.24083 0.24083
#
# Static dielectric constant tensor:
#      x y z
#    x 3.466930 0.000000 0.000000 
#    y 0.000000 3.466930 0.000000 
#    z 0.000000 0.000000 3.333930 
# 
# 
# High freq. dielectric constant tensor:
#      x y z
#    x 1.731190 0.000000 0.000000 
#    y 0.000000 1.731190 0.000000 
#    z 0.000000 0.000000 1.736510 
# 
# From -- ./inp_files/10828.got.cif
#   From: 2010.03.12/outbox.cif.g09.slc.cpg/sg180_6_cif.got.tgz:10828.got - 2010.04.01 11:35:50.
