data_PCOD8326574
_publ_section_title
;
Structure prediction by ZEFSAII (Michael W. Deem and Ramdas Pophale) SiO2 
 PCOD8326574
Probable space group: P 6 C C
;
_chemical_formula_sum "Si O2"
_cell_formula_units_Z 56
_cell_length_a 13.308280
_cell_length_b 13.308280
_cell_length_c 19.160664
_cell_angle_alpha 90.000000
_cell_angle_beta 90.000000
_cell_angle_gamma 120.000000
_cell_volume 2938.901606
_symmetry_space_group_name_H-M "P 6 C C"
_symmetry_group_IT_number 184
_symmetry_cell_setting 'hexagonal'
loop_
_space_group_symop_operation_xyz
x,y,z
x-y,x,z
-y,x-y,z
-x,-y,z
-x+y,-x,z
y,-x+y,z
-x+y,y,1/2+z
x,x-y,1/2+z
-y,-x,1/2+z
y,x,1/2+z
x-y,-y,1/2+z
-x,-x+y,1/2+z
loop_
_atom_site_type_symbol
_atom_site_label
_atom_site_fract_x
_atom_site_fract_y
_atom_site_fract_z
Si Si1 0.333334 0.666667 0.629774
Si Si2 0.543031 0.909381 0.124617
Si Si3 0.985739 0.762822 0.715491
Si Si4 0.366350 0.909381 0.469007
Si Si5 0.762822 0.985739 0.878132
Si Si6 0.666668 0.333334 0.963849
O O1 0.343414 0.786686 0.656800
O O2 0.333334 0.666667 0.546811
O O3 0.500000 0.000000 0.118727
O O4 0.652314 0.970800 0.174936
O O5 0.577898 0.888508 0.046812
O O6 1.000000 0.745374 0.796812
O O7 0.878641 0.778233 0.692945
O O8 0.318486 0.970801 0.418688
O O9 0.343413 0.786686 0.436823
O O10 0.500000 0.000000 0.474897
O O11 0.778234 0.878642 0.900679
#
# Coordination Sequence:
#
# PCOD8326574 Si02
#       6
#     4  12  12  12  12   4
#     4   9  18  33  54  82 113 145 181 224 277 330
#     4  10  20  35  56  81 110 144 182 224 271 325
#     4  10  21  37  56  78 106 141 179 221 270 325
#     4  10  20  35  56  81 110 144 182 224 271 325
#     4  10  21  37  56  78 106 141 179 221 270 325
#     4   9  18  33  54  82 113 145 181 224 277 330
#
# _framework density 19.054739000000001
#
# number of rings (size 3 to 8) (size 9 to 14) (size 15 to 20)
#    0.000    2.143    0.000    3.000    0.000    7.714 
#    0.000    0.000    0.000    7.714    0.000    0.000 
#    0.000    0.000    0.000    0.000    0.000    0.000 
#
# Total GULP energy -694269.429902 kJ/mol
# GULP energy per Si atom -12397.668391 kJ/mol
# Density = 1.901137 g / cm^3
# Si number density = 19.054739 Si / 1000 Ang^3
#
#
#
# Elastic Constant Matrix: (Units=GPa)
#
#
# Indices 1 2 3 4 5 6 
#
# 1 123.2068 41.8294 48.4720 0.0000 0.0001 0.0000
# 2 41.8294 123.2060 48.4720 0.0000 0.0001 -0.0002
# 3 48.4720 48.4720 38.5794 0.0000 0.0001 0.0000
# 4 0.0000 0.0000 0.0000 25.5789 0.0001 0.0000
# 5 0.0001 0.0001 0.0001 0.0001 25.5788 0.0000
# 6 0.0000 -0.0002 0.0000 0.0000 0.0000 40.6881
#
#
#
# Elastic Compliance Matrix: (Units=1/GPa)
#
#
# Indices 1 2 3 4 5 6 
#
# 1 0.017709 0.005421 -0.029061 0.000000 0.000000 0.000000
# 2 0.005421 0.017709 -0.029061 0.000000 0.000000 0.000000
# 3 -0.029061 -0.029061 0.098947 0.000000 0.000000 0.000000
# 4 0.000000 0.000000 0.000000 0.039095 0.000000 0.000000
# 5 0.000000 0.000000 0.000000 0.000000 0.039095 0.000000
# 6 0.000000 0.000000 0.000000 0.000000 0.000000 0.024577
#
#
# Mechanical properties :
#
#
# Convention : Reuss Voigt Hill
#
# Bulk Modulus (GPa) = 34.52767 62.50432 48.51600
# Shear Modulus (GPa) = 14.19686 28.11708 21.15697
#
# Velocity S-wave (km/s) = 2.73253 3.84551 3.33577
# Velocity P-wave (km/s) = 5.30238 7.25197 6.35241
#
# Compressibility (1/GPa) = 0.02896228
#
# Stress axis : x y z
#
# Youngs Moduli (GPa) = 56.46760 56.46690 10.10641
#
# Poissons Ratio (x) = -0.30610 0.29370
# Poissons Ratio (y) = -0.30610 0.29371
# Poissons Ratio (z) = 1.64102 1.64101
#
# Static dielectric constant tensor:
#      x y z
#    x 3.622120 0.000000 0.000000 
#    y 0.000000 3.622140 0.000000 
#    z 0.000000 0.000000 3.347520 
# 
# 
# High freq. dielectric constant tensor:
#      x y z
#    x 1.753560 0.000000 0.000000 
#    y 0.000000 1.753560 0.000000 
#    z 0.000000 0.000000 1.716540 
# 
# From -- ./inp_files/1313.got.cif
#   From: 2010.03.12/outbox.cif.g09.slc.cpg/sg184_cif.got.tgz:1313.got - 2010.04.01 11:54:36.
