data_PCOD8326287
_publ_section_title
;
Structure prediction by ZEFSAII (Michael W. Deem and Ramdas Pophale) SiO2 
 PCOD8326287
Probable space group: P 64 2 2
;
_chemical_formula_sum "Si O2"
_cell_formula_units_Z 63
_cell_length_a 15.007164
_cell_length_b 15.007164
_cell_length_c 19.822822
_cell_angle_alpha 90.000000
_cell_angle_beta 90.000000
_cell_angle_gamma 120.000000
_cell_volume 3866.280598
_symmetry_space_group_name_H-M "P 64 2 2"
_symmetry_group_IT_number 181
_symmetry_cell_setting 'hexagonal'
loop_
_space_group_symop_operation_xyz
x,y,z
x-y,x,2/3+z
-y,x-y,1/3+z
-x,-y,z
-x+y,-x,2/3+z
y,-x+y,1/3+z
x-y,-y,-z
-x,-x+y,2/3-z
y,x,1/3-z
-y,-x,1/3-z
-x+y,y,-z
x,x-y,2/3-z
loop_
_atom_site_type_symbol
_atom_site_label
_atom_site_fract_x
_atom_site_fract_y
_atom_site_fract_z
Si Si1 0.649469 0.646484 0.376460
Si Si2 0.585931 0.160910 0.288767
Si Si3 0.708338 0.059932 0.564168
Si Si4 0.069842 0.874046 0.589784
Si Si5 0.000000 0.000000 0.833334
Si Si6 0.340211 0.767284 0.570867
O O1 0.535371 0.624599 0.391756
O O2 0.652566 0.544462 0.400478
O O3 0.667701 0.657386 0.296202
O O4 0.738643 0.748613 0.413156
O O5 0.618702 0.263533 0.245536
O O6 0.611231 0.189950 0.367762
O O7 0.822224 0.080989 0.552144
O O8 0.722209 0.172052 0.574232
O O9 0.637976 0.000000 0.500000
O O10 0.086935 0.913066 0.666667
O O11 0.011986 0.921037 0.548497
O O12 0.395901 0.791802 0.500000
#
# Coordination Sequence:
#
# PCOD8326287 Si02
#       6
#    12  12  12  12   3  12
#     4   9  17  31  49  68  95 131 158 193 236 304
#     4   9  17  30  47  68 100 130 159 190 240 289
#     4  10  17  29  48  72  97 124 156 195 245 290
#     4  10  20  34  51  70  95 124 160 198 251 288
#     4  12  22  36  52  74  94 128 162 224 238 278
#     4  10  18  28  45  73 102 126 157 198 239 289
#
# _framework density 16.294730000000001
#
# number of rings (size 3 to 8) (size 9 to 14) (size 15 to 20)
#    0.000    2.286    2.857    1.429    0.000    1.905 
#    1.714    0.000    0.000    0.000    0.000    0.000 
#    0.000    3.810    0.000    0.000    0.000    0.000 
#
# Total GULP energy -780661.386551 kJ/mol
# GULP energy per Si atom -12391.450580 kJ/mol
# Density = 1.625764 g / cm^3
# Si number density = 16.294730 Si / 1000 Ang^3
#
#
#
# Elastic Constant Matrix: (Units=GPa)
#
#
# Indices 1 2 3 4 5 6 
#
# 1 88.3988 39.1321 20.5227 0.0000 0.0000 0.0000
# 2 39.1321 88.3988 20.5227 0.0000 0.0000 0.0000
# 3 20.5227 20.5227 47.0757 0.0000 0.0000 0.0000
# 4 0.0000 0.0000 0.0000 18.1156 0.0000 0.0000
# 5 0.0000 0.0000 0.0000 0.0000 18.1156 0.0000
# 6 0.0000 0.0000 0.0000 0.0000 0.0000 24.6334
#
#
#
# Elastic Compliance Matrix: (Units=1/GPa)
#
#
# Indices 1 2 3 4 5 6 
#
# 1 0.014709 -0.005588 -0.003976 0.000000 0.000000 0.000000
# 2 -0.005588 0.014709 -0.003976 0.000000 0.000000 0.000000
# 3 -0.003976 -0.003976 0.024709 0.000000 0.000000 0.000000
# 4 0.000000 0.000000 0.000000 0.055201 0.000000 0.000000
# 5 0.000000 0.000000 0.000000 0.000000 0.055201 0.000000
# 6 0.000000 0.000000 0.000000 0.000000 0.000000 0.040595
#
#
# Mechanical properties :
#
#
# Convention : Reuss Voigt Hill
#
# Bulk Modulus (GPa) = 36.97391 42.69203 39.83297
# Shear Modulus (GPa) = 20.72774 21.75264 21.24019
#
# Velocity S-wave (km/s) = 3.57045 3.65766 3.61432
# Velocity P-wave (km/s) = 6.30377 6.64039 6.47427
#
# Compressibility (1/GPa) = 0.02704610
#
# Stress axis : x y z
#
# Youngs Moduli (GPa) = 67.98405 67.98405 40.47058
#
# Poissons Ratio (x) = 0.37992 0.16092
# Poissons Ratio (y) = 0.37992 0.16092
# Poissons Ratio (z) = 0.27032 0.27032
#
# Static dielectric constant tensor:
#      x y z
#    x 3.003870 0.000000 0.000000 
#    y 0.000000 3.003870 0.000000 
#    z 0.000000 0.000000 2.874710 
# 
# 
# High freq. dielectric constant tensor:
#      x y z
#    x 1.617750 0.000000 0.000000 
#    y 0.000000 1.617750 0.000000 
#    z 0.000000 0.000000 1.610410 
# 
# From -- ./inp_files/7647.got.cif
#   From: 2010.03.12/outbox.cif.g09.slc.cpg/sg181_4_cif.got.tgz:7647.got - 2010.04.01 11:42:41.
