data_PCOD8326097
_publ_section_title
;
Structure prediction by ZEFSAII (Michael W. Deem and Ramdas Pophale) SiO2 
 PCOD8326097
Probable space group: P 65 2 2
;
_chemical_formula_sum "Si O2"
_cell_formula_units_Z 78
_cell_length_a 16.045220
_cell_length_b 16.045220
_cell_length_c 17.202744
_cell_angle_alpha 90.000000
_cell_angle_beta 90.000000
_cell_angle_gamma 120.000000
_cell_volume 3835.479895
_symmetry_space_group_name_H-M "P 65 2 2"
_symmetry_group_IT_number 179
_symmetry_cell_setting 'hexagonal'
loop_
_space_group_symop_operation_xyz
x,y,z
x-y,x,5/6+z
-y,x-y,2/3+z
-x,-y,1/2+z
-x+y,-x,1/3+z
y,-x+y,1/6+z
x-y,-y,-z
-x,-x+y,1/3-z
y,x,2/3-z
-y,-x,1/6-z
-x+y,y,1/2-z
x,x-y,5/6-z
loop_
_atom_site_type_symbol
_atom_site_label
_atom_site_fract_x
_atom_site_fract_y
_atom_site_fract_z
Si Si1 0.687581 0.002263 0.821796
Si Si2 0.458433 0.812459 0.674378
Si Si3 0.130059 0.324095 0.465723
Si Si4 0.368378 0.631623 0.583334
Si Si5 0.770144 0.042089 0.584112
Si Si6 0.023413 0.484512 0.256126
Si Si7 0.451726 0.100210 0.821899
O O1 0.786619 0.084292 0.858425
O O2 0.606698 0.964860 0.888336
O O3 0.648680 0.033674 0.747383
O O4 0.700651 0.914518 0.788512
O O5 0.421581 0.843161 0.750000
O O6 0.562403 0.823671 0.686141
O O7 0.378420 0.704298 0.651525
O O8 0.463857 0.879390 0.603122
O O9 0.047718 0.257306 0.526726
O O10 0.321845 0.526148 0.621857
O O11 0.885712 0.114289 0.583334
O O12 0.721525 0.104233 0.612329
O O13 0.729597 0.000000 0.500000
O O14 0.940222 0.482782 0.309429
O O15 0.000000 0.480585 0.166667
#
# Coordination Sequence:
#
# PCOD8326097 Si02
#       7
#    12  12  12   6  12  12  12
#     4  11  21  42  68  89 125 176 225 273 338 411
#     4  12  24  42  60  91 137 182 228 280 321 391
#     4  11  22  40  69  91 128 181 219 266 349 400
#     4  12  26  38  64  94 130 182 226 268 324 380
#     4  11  23  36  60  98 132 158 209 272 335 403
#     4  12  23  39  63  90 126 181 231 282 323 385
#     4  11  20  38  61  86 129 178 221 251 326 395
#
# _framework density 20.336438000000001
#
# number of rings (size 3 to 8) (size 9 to 14) (size 15 to 20)
#    0.000    0.615    7.692    2.308    0.000    3.077 
#    0.000    0.000    0.000    0.000    0.000   10.769 
#    0.000    0.000    0.000    0.000    0.000    0.000 
#
# Total GULP energy -967287.659435 kJ/mol
# GULP energy per Si atom -12401.123839 kJ/mol
# Density = 2.029015 g / cm^3
# Si number density = 20.336438 Si / 1000 Ang^3
#
#
#
# Elastic Constant Matrix: (Units=GPa)
#
#
# Indices 1 2 3 4 5 6 
#
# 1 78.5411 22.9734 26.4110 0.0000 0.0000 0.0000
# 2 22.9734 78.5411 26.4110 0.0000 0.0000 0.0000
# 3 26.4110 26.4110 82.0741 0.0000 0.0000 0.0000
# 4 0.0000 0.0000 0.0000 28.3842 0.0000 0.0000
# 5 0.0000 0.0000 0.0000 0.0000 28.3842 0.0000
# 6 0.0000 0.0000 0.0000 0.0000 0.0000 27.7839
#
#
#
# Elastic Compliance Matrix: (Units=1/GPa)
#
#
# Indices 1 2 3 4 5 6 
#
# 1 0.014914 -0.003082 -0.003807 0.000000 0.000000 0.000000
# 2 -0.003082 0.014914 -0.003807 0.000000 0.000000 0.000000
# 3 -0.003807 -0.003807 0.014635 0.000000 0.000000 0.000000
# 4 0.000000 0.000000 0.000000 0.035231 0.000000 0.000000
# 5 0.000000 0.000000 0.000000 0.000000 0.035231 0.000000
# 6 0.000000 0.000000 0.000000 0.000000 0.000000 0.035992
#
#
# Mechanical properties :
#
#
# Convention : Reuss Voigt Hill
#
# Bulk Modulus (GPa) = 43.34886 43.41633 43.38259
# Shear Modulus (GPa) = 27.77780 27.80119 27.78949
#
# Velocity S-wave (km/s) = 3.69983 3.70139 3.70061
# Velocity P-wave (km/s) = 6.29395 6.29781 6.29588
#
# Compressibility (1/GPa) = 0.02306866
#
# Stress axis : x y z
#
# Youngs Moduli (GPa) = 67.05100 67.05100 68.33140
#
# Poissons Ratio (x) = 0.20665 0.26017
# Poissons Ratio (y) = 0.20665 0.26017
# Poissons Ratio (z) = 0.25529 0.25529
#
# Static dielectric constant tensor:
#      x y z
#    x 3.662480 0.000000 0.000000 
#    y 0.000000 3.662480 0.000000 
#    z 0.000000 0.000000 3.810470 
# 
# 
# High freq. dielectric constant tensor:
#      x y z
#    x 1.784040 0.000000 0.000000 
#    y 0.000000 1.784040 0.000000 
#    z 0.000000 0.000000 1.793380 
# 
# From -- ./inp_files/6048.got.cif
#   From: 2010.03.12/outbox.cif.g09.slc.cpg/sg179_4_cif.got.tgz:6048.got - 2010.04.02 07:08:42.
