data_PCOD8326956
_publ_section_title
;
Structure prediction by ZEFSAII (Michael W. Deem and Ramdas Pophale) SiO2 
 PCOD8326956
Probable space group: P -6 M 2
;
_chemical_formula_sum "Si O2"
_cell_formula_units_Z 72
_cell_length_a 23.180964
_cell_length_b 23.180964
_cell_length_c 9.004711
_cell_angle_alpha 90.000000
_cell_angle_beta 90.000000
_cell_angle_gamma 120.000000
_cell_volume 4190.476367
_symmetry_space_group_name_H-M "P -6 M 2"
_symmetry_group_IT_number 187
_symmetry_cell_setting 'hexagonal'
loop_
_space_group_symop_operation_xyz
x,y,z
-x+y,-x,-z
-y,x-y,z
x,y,-z
-x+y,-x,z
-y,x-y,-z
-y,-x,-z
-x+y,y,-z
x,x-y,-z
-x+y,y,z
x,x-y,z
-y,-x,z
loop_
_atom_site_type_symbol
_atom_site_label
_atom_site_fract_x
_atom_site_fract_y
_atom_site_fract_z
Si Si1 0.596290 0.063823 0.327588
Si Si2 0.739362 0.997346 0.676825
Si Si3 0.129674 0.999975 0.677156
Si Si4 0.870845 0.613585 0.324850
Si Si5 0.605251 0.736413 0.324080
Si Si6 0.396819 0.471874 0.173880
O O1 0.593073 0.044029 0.500000
O O2 0.545274 0.090548 0.292338
O O3 0.670984 0.121704 0.285208
O O4 0.578224 0.998250 0.235415
O O5 0.739189 0.997512 0.500000
O O6 0.803008 0.994939 0.738978
O O7 0.673304 0.932177 0.734566
O O8 0.743547 0.064576 0.739128
O O9 0.129847 0.000057 0.500000
O O10 0.062462 0.937538 0.738554
O O11 0.134305 0.067153 0.738767
O O12 0.868125 0.621223 0.500000
O O13 0.802674 0.605348 0.254022
O O14 0.599155 0.728750 0.500000
O O15 0.603616 0.801808 0.271496
O O16 0.543139 0.671882 0.250806
O O17 0.452153 0.547848 0.211177
O O18 0.385519 0.459853 0.000000
#
# Coordination Sequence:
#
# PCOD8326956 Si02
#       6
#    12  12  12  12  12  12
#     4   9  16  28  47  69  93 121 156 199 241 281
#     4   9  15  24  37  58  86 116 149 190 235 274
#     4   9  15  21  29  44  72 112 154 191 228 272
#     4   9  15  23  39  64  91 119 154 193 232 279
#     4  10  19  31  49  73  99 126 157 193 233 278
#     4  10  20  33  50  72  97 124 155 193 237 285
#
# _framework density 17.181819000000001
#
# number of rings (size 3 to 8) (size 9 to 14) (size 15 to 20)
#    0.000    2.667    1.667    1.667    0.000    6.000 
#    0.000    0.000    0.000    1.167    0.000    2.333 
#    0.000    0.000    0.000    0.000    0.000    0.667 
#
# Total GULP energy -892564.280680 kJ/mol
# GULP energy per Si atom -12396.726121 kJ/mol
# Density = 1.714271 g / cm^3
# Si number density = 17.181819 Si / 1000 Ang^3
#
#
#
# Elastic Constant Matrix: (Units=GPa)
#
#
# Indices 1 2 3 4 5 6 
#
# 1 146.4596 85.8663 25.2520 0.0000 0.0001 0.0000
# 2 85.8663 146.4596 25.2520 0.0000 -0.0001 0.0000
# 3 25.2520 25.2520 20.2958 0.0000 0.0000 0.0000
# 4 0.0000 0.0000 0.0000 7.6040 0.0000 -0.0001
# 5 0.0001 -0.0001 0.0000 0.0000 7.6040 0.0000
# 6 0.0000 0.0000 0.0000 -0.0001 0.0000 30.2967
#
#
#
# Elastic Compliance Matrix: (Units=1/GPa)
#
#
# Indices 1 2 3 4 5 6 
#
# 1 0.011202 -0.005302 -0.007341 0.000000 0.000000 0.000000
# 2 -0.005302 0.011202 -0.007341 0.000000 0.000000 0.000000
# 3 -0.007341 -0.007341 0.067538 0.000000 0.000000 0.000000
# 4 0.000000 0.000000 0.000000 0.131510 0.000000 0.000000
# 5 0.000000 0.000000 0.000000 0.000000 0.131510 0.000000
# 6 0.000000 0.000000 0.000000 0.000000 0.000000 0.033007
#
#
# Mechanical properties :
#
#
# Convention : Reuss Voigt Hill
#
# Bulk Modulus (GPa) = 20.01004 65.10617 42.55810
# Shear Modulus (GPa) = 11.29703 20.89057 16.09380
#
# Velocity S-wave (km/s) = 2.56696 3.49069 3.06384
# Velocity P-wave (km/s) = 4.52294 7.36351 6.11058
#
# Compressibility (1/GPa) = 0.04997491
#
# Stress axis : x y z
#
# Youngs Moduli (GPa) = 89.27154 89.27154 14.80643
#
# Poissons Ratio (x) = 0.47329 0.10869
# Poissons Ratio (y) = 0.47329 0.10869
# Poissons Ratio (z) = 0.65533 0.65533
#
# Static dielectric constant tensor:
#      x y z
#    x 3.376620 0.000000 0.000000 
#    y 0.000000 3.376620 0.000000 
#    z 0.000000 0.000000 2.690320 
# 
# 
# High freq. dielectric constant tensor:
#      x y z
#    x 1.663610 0.000000 0.000000 
#    y 0.000000 1.663610 0.000000 
#    z 0.000000 0.000000 1.605580 
# 
# From -- ./inp_files/935.got.cif
#   From: 2010.03.12/outbox.cif.g09.slc.cpg/sg187_1_cif.got.tgz:935.got - 2010.04.01 11:58:23.
