data_PCOD8326394
_publ_section_title
;
Structure prediction by ZEFSAII (Michael W. Deem and Ramdas Pophale) SiO2 
 PCOD8326394
Probable space group: P 64 2 2
;
_chemical_formula_sum "Si O2"
_cell_formula_units_Z 48
_cell_length_a 15.079191
_cell_length_b 15.079191
_cell_length_c 11.561132
_cell_angle_alpha 90.000000
_cell_angle_beta 90.000000
_cell_angle_gamma 120.000000
_cell_volume 2276.601805
_symmetry_space_group_name_H-M "P 64 2 2"
_symmetry_group_IT_number 181
_symmetry_cell_setting 'hexagonal'
loop_
_space_group_symop_operation_xyz
x,y,z
x-y,x,2/3+z
-y,x-y,1/3+z
-x,-y,z
-x+y,-x,2/3+z
y,-x+y,1/3+z
x-y,-y,-z
-x,-x+y,2/3-z
y,x,1/3-z
-y,-x,1/3-z
-x+y,y,-z
x,x-y,2/3-z
loop_
_atom_site_type_symbol
_atom_site_label
_atom_site_fract_x
_atom_site_fract_y
_atom_site_fract_z
Si Si1 0.441469 0.883278 0.136587
Si Si2 0.717446 0.497353 0.172285
Si Si3 0.755672 0.693162 0.053484
Si Si4 0.740784 0.608324 0.408979
O O1 0.481251 0.812120 0.195346
O O2 0.328098 0.840337 0.178024
O O3 0.500000 0.000000 0.180861
O O4 0.437382 0.874764 0.000000
O O5 0.609469 0.390532 0.166667
O O6 0.707681 0.573161 0.082604
O O7 0.754020 0.558014 0.292997
O O8 0.758414 0.758414 0.166667
O O9 0.869609 0.739217 0.000000
O O10 0.684375 0.698590 0.954140
O O11 0.835295 0.670589 0.500000
#
# Coordination Sequence:
#
# PCOD8326394 Si02
#       4
#    12  12  12  12
#     4  11  23  37  58  90 131 173 221 263 321 385
#     4  11  25  39  63  94 134 178 220 268 323 393
#     4  10  24  45  68  97 130 172 220 274 340 404
#     4  11  23  42  64  94 131 173 221 273 333 400
#
# _framework density 21.084057000000001
#
# number of rings (size 3 to 8) (size 9 to 14) (size 15 to 20)
#    0.000    1.250    2.500    2.250    7.000    3.500 
#    0.000    0.000    0.000    2.250    0.000    0.000 
#    0.000    0.000    0.000    0.000    0.000    0.000 
#
# Total GULP energy -594633.493341 kJ/mol
# GULP energy per Si atom -12388.197778 kJ/mol
# Density = 2.103607 g / cm^3
# Si number density = 21.084057 Si / 1000 Ang^3
#
#
#
# Elastic Constant Matrix: (Units=GPa)
#
#
# Indices 1 2 3 4 5 6 
#
# 1 135.4934 84.4207 57.0841 0.0000 0.0000 0.0000
# 2 84.4207 135.4934 57.0841 0.0000 0.0000 0.0000
# 3 57.0841 57.0841 105.9927 0.0000 0.0000 0.0000
# 4 0.0000 0.0000 0.0000 45.3881 0.0000 0.0000
# 5 0.0000 0.0000 0.0000 0.0000 45.3881 0.0000
# 6 0.0000 0.0000 0.0000 0.0000 0.0000 25.5363
#
#
#
# Elastic Compliance Matrix: (Units=1/GPa)
#
#
# Indices 1 2 3 4 5 6 
#
# 1 0.012946 -0.006634 -0.003399 0.000000 0.000000 0.000000
# 2 -0.006634 0.012946 -0.003399 0.000000 0.000000 0.000000
# 3 -0.003399 -0.003399 0.013096 0.000000 0.000000 0.000000
# 4 0.000000 0.000000 0.000000 0.022032 0.000000 0.000000
# 5 0.000000 0.000000 0.000000 0.000000 0.022032 0.000000
# 6 0.000000 0.000000 0.000000 0.000000 0.000000 0.039160
#
#
# Mechanical properties :
#
#
# Convention : Reuss Voigt Hill
#
# Bulk Modulus (GPa) = 82.49092 86.01751 84.25421
# Shear Modulus (GPa) = 32.65429 35.15521 33.90475
#
# Velocity S-wave (km/s) = 3.93971 4.08779 4.01443
# Velocity P-wave (km/s) = 7.73982 7.94771 7.84445
#
# Compressibility (1/GPa) = 0.01212255
#
# Stress axis : x y z
#
# Youngs Moduli (GPa) = 77.24386 77.24386 76.35753
#
# Poissons Ratio (x) = 0.51243 0.25957
# Poissons Ratio (y) = 0.51243 0.25957
# Poissons Ratio (z) = 0.26259 0.26259
#
# Static dielectric constant tensor:
#      x y z
#    x 3.861980 0.000000 0.000000 
#    y 0.000000 3.861980 0.000000 
#    z 0.000000 0.000000 2.896050 
# 
# 
# High freq. dielectric constant tensor:
#      x y z
#    x 1.817720 0.000000 0.000000 
#    y 0.000000 1.817720 0.000000 
#    z 0.000000 0.000000 1.846650 
# 
# From -- ./inp_files/4324.got.cif
#   From: 2010.03.12/outbox.cif.g09.slc.cpg/sg181_3_cif.got.tgz:4324.got - 2010.04.01 11:42:41.
