data_PCOD8326578
_publ_section_title
;
Structure prediction by ZEFSAII (Michael W. Deem and Ramdas Pophale) SiO2 
 PCOD8326578
Probable space group: P 6 C C
;
_chemical_formula_sum "Si O2"
_cell_formula_units_Z 72
_cell_length_a 14.298060
_cell_length_b 14.298060
_cell_length_c 18.654308
_cell_angle_alpha 90.000000
_cell_angle_beta 90.000000
_cell_angle_gamma 120.000000
_cell_volume 3302.661054
_symmetry_space_group_name_H-M "P 6 C C"
_symmetry_group_IT_number 184
_symmetry_cell_setting 'hexagonal'
loop_
_space_group_symop_operation_xyz
x,y,z
x-y,x,z
-y,x-y,z
-x,-y,z
-x+y,-x,z
y,-x+y,z
-x+y,y,1/2+z
x,x-y,1/2+z
-y,-x,1/2+z
y,x,1/2+z
x-y,-y,1/2+z
-x,-x+y,1/2+z
loop_
_atom_site_type_symbol
_atom_site_label
_atom_site_fract_x
_atom_site_fract_y
_atom_site_fract_z
Si Si1 0.958471 0.182942 0.927000
Si Si2 0.622511 0.063005 0.741554
Si Si3 0.201854 0.216438 0.758797
Si Si4 0.401387 0.515585 0.402410
Si Si5 0.544527 0.814474 0.965491
Si Si6 0.225697 0.687543 0.121497
O O1 0.925446 0.272687 0.944496
O O2 0.071414 0.207426 0.961433
O O3 0.976366 0.181085 0.842938
O O4 0.671116 0.982451 0.742713
O O5 0.626789 0.112075 0.819602
O O6 0.696632 0.161237 0.688725
O O7 0.500000 0.000000 0.713104
O O8 0.096380 0.214412 0.725629
O O9 0.500000 0.500000 0.429887
O O10 0.445203 0.642403 0.417071
O O11 0.290962 0.444800 0.447351
O O12 0.525479 0.825533 0.048652
O O13 0.218723 0.570288 0.124305
#
# Coordination Sequence:
#
# PCOD8326578 Si02
#       6
#    12  12  12  12  12  12
#     4  10  20  37  63  95 127 165 212 274 336 393
#     4  11  25  40  65 101 137 181 232 281 351 413
#     4  10  21  40  66  97 135 173 227 283 343 408
#     4  11  23  38  63  98 128 167 228 279 336 402
#     4  12  21  41  64  94 132 178 219 278 336 402
#     4  10  24  44  61  92 136 184 229 272 342 415
#
# _framework density 21.800602999999999
#
# number of rings (size 3 to 8) (size 9 to 14) (size 15 to 20)
#    0.333    1.000    1.667    5.667    4.667    2.000 
#    3.000    0.000    0.000    0.000    0.000    2.333 
#    0.000    0.000    0.000    0.000    0.000    0.000 
#
# Total GULP energy -892540.724084 kJ/mol
# GULP energy per Si atom -12396.398946 kJ/mol
# Density = 2.175098 g / cm^3
# Si number density = 21.800603 Si / 1000 Ang^3
#
#
#
# Elastic Constant Matrix: (Units=GPa)
#
#
# Indices 1 2 3 4 5 6 
#
# 1 102.6958 37.5875 29.7670 0.0000 0.0000 0.0000
# 2 37.5875 102.6958 29.7670 0.0000 0.0000 0.0000
# 3 29.7670 29.7670 72.4378 0.0000 0.0000 0.0000
# 4 0.0000 0.0000 0.0000 23.0324 0.0000 0.0000
# 5 0.0000 0.0000 0.0000 0.0000 23.0324 0.0000
# 6 0.0000 0.0000 0.0000 0.0000 0.0000 32.5542
#
#
#
# Elastic Compliance Matrix: (Units=1/GPa)
#
#
# Indices 1 2 3 4 5 6 
#
# 1 0.011997 -0.003362 -0.003548 0.000000 0.000000 0.000000
# 2 -0.003362 0.011997 -0.003548 0.000000 0.000000 0.000000
# 3 -0.003548 -0.003548 0.016721 0.000000 0.000000 0.000000
# 4 0.000000 0.000000 0.000000 0.043417 0.000000 0.000000
# 5 0.000000 0.000000 0.000000 0.000000 0.043417 0.000000
# 6 0.000000 0.000000 0.000000 0.000000 0.000000 0.030718
#
#
# Mechanical properties :
#
#
# Convention : Reuss Voigt Hill
#
# Bulk Modulus (GPa) = 50.51248 52.45248 51.48248
# Shear Modulus (GPa) = 26.91318 27.77098 27.34208
#
# Velocity S-wave (km/s) = 3.51738 3.57299 3.54530
# Velocity P-wave (km/s) = 6.30210 6.41358 6.35809
#
# Compressibility (1/GPa) = 0.01979709
#
# Stress axis : x y z
#
# Youngs Moduli (GPa) = 83.35703 83.35703 59.80519
#
# Poissons Ratio (x) = 0.28028 0.21219
# Poissons Ratio (y) = 0.28028 0.21219
# Poissons Ratio (z) = 0.29576 0.29576
#
# Static dielectric constant tensor:
#      x y z
#    x 4.101990 0.000000 0.000000 
#    y 0.000000 4.101990 0.000000 
#    z 0.000000 0.000000 3.401280 
# 
# 
# High freq. dielectric constant tensor:
#      x y z
#    x 1.866150 0.000000 0.000000 
#    y 0.000000 1.866150 0.000000 
#    z 0.000000 0.000000 1.812010 
# 
# From -- ./inp_files/1089.got.cif
#   From: 2010.03.12/outbox.cif.g09.slc.cpg/sg184_cif.got.tgz:1089.got - 2010.04.01 11:54:36.
