data_PCOD8326409
_publ_section_title
;
Structure prediction by ZEFSAII (Michael W. Deem and Ramdas Pophale) SiO2 
 PCOD8326409
Probable space group: P 64 2 2
;
_chemical_formula_sum "Si O2"
_cell_formula_units_Z 84
_cell_length_a 18.585007
_cell_length_b 18.585007
_cell_length_c 13.145513
_cell_angle_alpha 90.000000
_cell_angle_beta 90.000000
_cell_angle_gamma 120.000000
_cell_volume 3932.182162
_symmetry_space_group_name_H-M "P 64 2 2"
_symmetry_group_IT_number 181
_symmetry_cell_setting 'hexagonal'
loop_
_space_group_symop_operation_xyz
x,y,z
x-y,x,2/3+z
-y,x-y,1/3+z
-x,-y,z
-x+y,-x,2/3+z
y,-x+y,1/3+z
x-y,-y,-z
-x,-x+y,2/3-z
y,x,1/3-z
-y,-x,1/3-z
-x+y,y,-z
x,x-y,2/3-z
loop_
_atom_site_type_symbol
_atom_site_label
_atom_site_fract_x
_atom_site_fract_y
_atom_site_fract_z
Si Si1 0.079812 0.709489 0.762779
Si Si2 0.303031 0.545136 0.612767
Si Si3 0.311639 0.381131 0.585315
Si Si4 0.791660 0.915880 0.437908
Si Si5 0.802098 0.973067 0.893588
Si Si6 0.512481 0.349576 0.099876
Si Si7 0.429329 0.015445 0.717476
O O1 0.098441 0.800894 0.736166
O O2 0.158436 0.716643 0.824204
O O3 0.000000 0.668151 0.833334
O O4 0.064194 0.653016 0.661693
O O5 0.389064 0.610937 0.666667
O O6 0.284572 0.569143 0.500000
O O7 0.297268 0.456136 0.615945
O O8 0.233050 0.541243 0.683970
O O9 0.372579 0.372579 0.666667
O O10 0.223625 0.296325 0.581734
O O11 0.346063 0.398487 0.471646
O O12 0.839431 0.919716 0.333334
O O13 0.775855 0.834506 0.499234
O O14 0.846865 0.000000 0.500000
O O15 0.825050 0.912525 0.833334
O O16 0.851680 0.000000 0.000000
O O17 0.590827 0.409174 0.166667
O O18 0.476088 0.400002 0.042482
O O19 0.500000 0.000000 0.766914
#
# Coordination Sequence:
#
# PCOD8326409 Si02
#       7
#    12  12  12  12  12  12  12
#     4   9  21  37  66 101 135 172 222 283 343 414
#     4  12  27  48  70 100 138 193 237 290 358 430
#     4  11  27  44  70 101 142 189 235 293 356 432
#     4  11  23  43  67  99 139 180 227 288 353 416
#     4  11  25  44  70 102 140 185 242 290 357 430
#     4  11  22  42  69  99 137 179 230 289 351 415
#     4  11  21  39  69 102 138 173 232 284 356 413
#
# _framework density 21.362186000000001
#
# number of rings (size 3 to 8) (size 9 to 14) (size 15 to 20)
#    0.000    1.143    2.857    2.571    6.000    1.429 
#    0.000    2.143    0.000    0.000    0.000    0.000 
#    0.000    0.000    0.000    0.000    0.000    0.000 
#
# Total GULP energy -1041294.341214 kJ/mol
# GULP energy per Si atom -12396.361205 kJ/mol
# Density = 2.131356 g / cm^3
# Si number density = 21.362186 Si / 1000 Ang^3
#
#
#
# Elastic Constant Matrix: (Units=GPa)
#
#
# Indices 1 2 3 4 5 6 
#
# 1 108.0767 48.9404 55.7778 0.0000 0.0000 0.0000
# 2 48.9404 108.0767 55.7778 0.0000 0.0000 0.0000
# 3 55.7778 55.7778 150.2763 0.0000 0.0000 0.0000
# 4 0.0000 0.0000 0.0000 38.5384 0.0000 0.0000
# 5 0.0000 0.0000 0.0000 0.0000 38.5384 0.0000
# 6 0.0000 0.0000 0.0000 0.0000 0.0000 29.5681
#
#
#
# Elastic Compliance Matrix: (Units=1/GPa)
#
#
# Indices 1 2 3 4 5 6 
#
# 1 0.012780 -0.004130 -0.003210 0.000000 0.000000 0.000000
# 2 -0.004130 0.012780 -0.003210 0.000000 0.000000 0.000000
# 3 -0.003210 -0.003210 0.009038 0.000000 0.000000 0.000000
# 4 0.000000 0.000000 0.000000 0.025948 0.000000 0.000000
# 5 0.000000 0.000000 0.000000 0.000000 0.025948 0.000000
# 6 0.000000 0.000000 0.000000 0.000000 0.000000 0.033820
#
#
# Mechanical properties :
#
#
# Convention : Reuss Voigt Hill
#
# Bulk Modulus (GPa) = 74.10105 76.38019 75.24062
# Shear Modulus (GPa) = 34.26661 35.05791 34.66226
#
# Velocity S-wave (km/s) = 4.00944 4.05547 4.03252
# Velocity P-wave (km/s) = 7.49649 7.60010 7.54848
#
# Compressibility (1/GPa) = 0.01349509
#
# Stress axis : x y z
#
# Youngs Moduli (GPa) = 78.24791 78.24791 110.64792
#
# Poissons Ratio (x) = 0.32318 0.35523
# Poissons Ratio (y) = 0.32318 0.35523
# Poissons Ratio (z) = 0.25121 0.25121
#
# Static dielectric constant tensor:
#      x y z
#    x 3.924560 0.000000 0.000000 
#    y 0.000000 3.924560 0.000000 
#    z 0.000000 0.000000 4.301400 
# 
# 
# High freq. dielectric constant tensor:
#      x y z
#    x 1.833980 0.000000 0.000000 
#    y 0.000000 1.833980 0.000000 
#    z 0.000000 0.000000 1.857070 
# 
# From -- ./inp_files/6510.got.cif
#   From: 2010.03.12/outbox.cif.g09.slc.cpg/sg181_4_cif.got.tgz:6510.got - 2010.04.01 11:42:41.
