data_PCOD8326063
_publ_section_title
;
Structure prediction by ZEFSAII (Michael W. Deem and Ramdas Pophale) SiO2 
 PCOD8326063
Probable space group: P 65 2 2
;
_chemical_formula_sum "Si O2"
_cell_formula_units_Z 60
_cell_length_a 18.474839
_cell_length_b 18.474839
_cell_length_c 9.705184
_cell_angle_alpha 90.000000
_cell_angle_beta 90.000000
_cell_angle_gamma 120.000000
_cell_volume 2868.769996
_symmetry_space_group_name_H-M "P 65 2 2"
_symmetry_group_IT_number 179
_symmetry_cell_setting 'hexagonal'
loop_
_space_group_symop_operation_xyz
x,y,z
x-y,x,5/6+z
-y,x-y,2/3+z
-x,-y,1/2+z
-x+y,-x,1/3+z
y,-x+y,1/6+z
x-y,-y,-z
-x,-x+y,1/3-z
y,x,2/3-z
-y,-x,1/6-z
-x+y,y,1/2-z
x,x-y,5/6-z
loop_
_atom_site_type_symbol
_atom_site_label
_atom_site_fract_x
_atom_site_fract_y
_atom_site_fract_z
Si Si1 0.710178 0.770835 0.102287
Si Si2 0.754440 0.245561 0.583334
Si Si3 0.677367 0.586972 0.799193
Si Si4 0.216298 0.617114 0.574528
Si Si5 0.837697 0.918849 0.916667
Si Si6 0.123704 0.776022 0.904205
O O1 0.691404 0.814136 0.233161
O O2 0.746862 0.711064 0.148418
O O3 0.623951 0.716639 0.016530
O O4 0.781620 0.840884 0.011243
O O5 0.671217 0.213033 0.493408
O O6 0.831457 0.266634 0.483100
O O7 0.597891 0.597891 0.833334
O O8 0.646978 0.489719 0.811391
O O9 0.748398 0.639537 0.911621
O O10 0.311129 0.688872 0.583334
O O11 0.187400 0.593700 0.416667
O O12 0.899127 0.899127 0.833334
#
# Coordination Sequence:
#
# PCOD8326063 Si02
#       6
#    12   6  12  12   6  12
#     4  11  19  39  70  98 128 178 230 283 336 421
#     4  12  28  44  63  96 134 184 214 295 350 414
#     4  10  21  39  64  98 129 166 221 283 333 405
#     4  12  24  44  69  94 129 174 233 283 344 410
#     4  12  20  36  67 104 136 180 238 291 350 418
#     4  11  23  40  65  96 135 175 228 273 347 409
#
# _framework density 20.914887
#
# number of rings (size 3 to 8) (size 9 to 14) (size 15 to 20)
#    0.000    0.800    5.000    4.200    0.000    0.800 
#   10.800    1.000    0.000    0.000    0.000    0.000 
#    0.000    0.000    0.000    0.000    0.000    0.000 
#
# Total GULP energy -744079.955486 kJ/mol
# GULP energy per Si atom -12401.332591 kJ/mol
# Density = 2.086728 g / cm^3
# Si number density = 20.914887 Si / 1000 Ang^3
#
#
#
# Elastic Constant Matrix: (Units=GPa)
#
#
# Indices 1 2 3 4 5 6 
#
# 1 137.1258 64.0849 30.8490 0.0000 0.0000 0.0000
# 2 64.0849 137.1258 30.8490 0.0000 0.0000 0.0000
# 3 30.8490 30.8490 52.7781 0.0000 0.0000 0.0000
# 4 0.0000 0.0000 0.0000 33.3749 0.0000 0.0000
# 5 0.0000 0.0000 0.0000 0.0000 33.3749 0.0000
# 6 0.0000 0.0000 0.0000 0.0000 0.0000 36.5205
#
#
#
# Elastic Compliance Matrix: (Units=1/GPa)
#
#
# Indices 1 2 3 4 5 6 
#
# 1 0.009873 -0.003818 -0.003539 0.000000 0.000000 0.000000
# 2 -0.003818 0.009873 -0.003539 0.000000 0.000000 0.000000
# 3 -0.003539 -0.003539 0.023085 0.000000 0.000000 0.000000
# 4 0.000000 0.000000 0.000000 0.029963 0.000000 0.000000
# 5 0.000000 0.000000 0.000000 0.000000 0.029963 0.000000
# 6 0.000000 0.000000 0.000000 0.000000 0.000000 0.027382
#
#
# Mechanical properties :
#
#
# Convention : Reuss Voigt Hill
#
# Bulk Modulus (GPa) = 47.53313 64.28838 55.91076
# Shear Modulus (GPa) = 31.45772 34.07051 32.76412
#
# Velocity S-wave (km/s) = 3.88246 4.04048 3.96225
# Velocity P-wave (km/s) = 6.54784 7.25066 6.90820
#
# Compressibility (1/GPa) = 0.02103796
#
# Stress axis : x y z
#
# Youngs Moduli (GPa) = 101.28568 101.28568 43.31873
#
# Poissons Ratio (x) = 0.38670 0.15332
# Poissons Ratio (y) = 0.38670 0.15332
# Poissons Ratio (z) = 0.35848 0.35848
#
# Static dielectric constant tensor:
#      x y z
#    x 3.866460 0.000000 0.000000 
#    y 0.000000 3.866460 0.000000 
#    z 0.000000 0.000000 15.888240 
# 
# 
# High freq. dielectric constant tensor:
#      x y z
#    x 1.826370 0.000000 0.000000 
#    y 0.000000 1.826370 0.000000 
#    z 0.000000 0.000000 1.805930 
# 
# From -- ./inp_files/4742.got.cif
#   From: 2010.03.12/outbox.cif.g09.slc.cpg/sg179_3_cif.got.tgz:4742.got - 2010.04.02 07:08:42.
