data_PCOD8326087
_publ_section_title
;
Structure prediction by ZEFSAII (Michael W. Deem and Ramdas Pophale) SiO2 
 PCOD8326087
Probable space group: P 65 2 2
;
_chemical_formula_sum "Si O2"
_cell_formula_units_Z 66
_cell_length_a 16.857510
_cell_length_b 16.857510
_cell_length_c 13.911287
_cell_angle_alpha 90.000000
_cell_angle_beta 90.000000
_cell_angle_gamma 120.000000
_cell_volume 3423.614004
_symmetry_space_group_name_H-M "P 65 2 2"
_symmetry_group_IT_number 179
_symmetry_cell_setting 'hexagonal'
loop_
_space_group_symop_operation_xyz
x,y,z
x-y,x,5/6+z
-y,x-y,2/3+z
-x,-y,1/2+z
-x+y,-x,1/3+z
y,-x+y,1/6+z
x-y,-y,-z
-x,-x+y,1/3-z
y,x,2/3-z
-y,-x,1/6-z
-x+y,y,1/2-z
x,x-y,5/6-z
loop_
_atom_site_type_symbol
_atom_site_label
_atom_site_fract_x
_atom_site_fract_y
_atom_site_fract_z
Si Si1 0.750195 0.249806 0.583334
Si Si2 0.654417 0.073322 0.930337
Si Si3 0.791821 0.371104 0.131414
Si Si4 0.963788 0.505490 0.024247
Si Si5 0.277635 0.304045 0.940921
Si Si6 0.354487 0.225443 0.076456
O O1 0.648547 0.212311 0.545686
O O2 0.748211 0.186907 0.671151
O O3 0.703223 0.084863 0.829580
O O4 0.545406 0.034013 0.919508
O O5 0.690917 0.170727 0.984256
O O6 0.663891 0.000000 0.000000
O O7 0.693682 0.306319 0.083334
O O8 0.858747 0.432246 0.046782
O O9 0.982145 0.606440 0.044155
O O10 0.984103 0.492052 0.916667
O O11 0.267623 0.267623 0.833334
O O12 0.192731 0.320079 0.959318
O O13 0.273740 0.228352 0.015592
#
# Coordination Sequence:
#
# PCOD8326087 Si02
#       6
#     6  12  12  12  12  12
#     4  12  24  36  56  90 126 168 216 266 320 376
#     4  10  24  42  60  86 123 176 216 261 321 386
#     4  11  26  36  53  86 128 171 220 267 314 380
#     4  11  21  39  61  80 122 171 211 258 318 376
#     4  12  22  41  63  95 126 164 213 272 331 390
#     4  12  24  40  67  93 124 166 221 270 329 401
#
# _framework density 19.277873
#
# number of rings (size 3 to 8) (size 9 to 14) (size 15 to 20)
#    0.000    0.727    5.455    2.727    6.364    0.000 
#    0.000    0.000    0.000    0.000    0.000    6.364 
#    0.000    0.000    0.000    0.000    0.000    0.000 
#
# Total GULP energy -818334.475843 kJ/mol
# GULP energy per Si atom -12399.007210 kJ/mol
# Density = 1.923400 g / cm^3
# Si number density = 19.277873 Si / 1000 Ang^3
#
#
#
# Elastic Constant Matrix: (Units=GPa)
#
#
# Indices 1 2 3 4 5 6 
#
# 1 73.1016 40.5394 30.5670 0.0000 0.0000 0.0000
# 2 40.5394 73.1016 30.5670 0.0000 0.0000 0.0000
# 3 30.5670 30.5670 116.7034 0.0000 0.0000 0.0000
# 4 0.0000 0.0000 0.0000 25.1045 0.0000 0.0000
# 5 0.0000 0.0000 0.0000 0.0000 25.1045 0.0000
# 6 0.0000 0.0000 0.0000 0.0000 0.0000 16.2811
#
#
#
# Elastic Compliance Matrix: (Units=1/GPa)
#
#
# Indices 1 2 3 4 5 6 
#
# 1 0.020477 -0.010234 -0.002683 0.000000 0.000000 0.000000
# 2 -0.010234 0.020477 -0.002683 0.000000 0.000000 0.000000
# 3 -0.002683 -0.002683 0.009974 0.000000 0.000000 0.000000
# 4 0.000000 0.000000 0.000000 0.039834 0.000000 0.000000
# 5 0.000000 0.000000 0.000000 0.000000 0.039834 0.000000
# 6 0.000000 0.000000 0.000000 0.000000 0.000000 0.061421
#
#
# Mechanical properties :
#
#
# Convention : Reuss Voigt Hill
#
# Bulk Modulus (GPa) = 50.68789 51.80596 51.24693
# Shear Modulus (GPa) = 21.75897 24.04690 22.90294
#
# Velocity S-wave (km/s) = 3.36326 3.53566 3.45054
# Velocity P-wave (km/s) = 6.43680 6.60299 6.52043
#
# Compressibility (1/GPa) = 0.01972858
#
# Stress axis : x y z
#
# Youngs Moduli (GPa) = 48.83613 48.83613 100.25963
#
# Poissons Ratio (x) = 0.49978 0.26898
# Poissons Ratio (y) = 0.49978 0.26898
# Poissons Ratio (z) = 0.13102 0.13102
#
# Static dielectric constant tensor:
#      x y z
#    x 3.546130 0.000000 0.000000 
#    y 0.000000 3.546130 0.000000 
#    z 0.000000 0.000000 3.695260 
# 
# 
# High freq. dielectric constant tensor:
#      x y z
#    x 1.730700 0.000000 0.000000 
#    y 0.000000 1.730700 0.000000 
#    z 0.000000 0.000000 1.769730 
# 
# From -- ./inp_files/6015.got.cif
#   From: 2010.03.12/outbox.cif.g09.slc.cpg/sg179_4_cif.got.tgz:6015.got - 2010.04.02 07:08:42.
