data_PCOD8326849
_publ_section_title
;
Structure prediction by ZEFSAII (Michael W. Deem and Ramdas Pophale) SiO2 
 PCOD8326849
Probable space group: P -6 M 2
;
_chemical_formula_sum "Si O2"
_cell_formula_units_Z 66
_cell_length_a 17.338140
_cell_length_b 17.338140
_cell_length_c 17.667309
_cell_angle_alpha 90.000000
_cell_angle_beta 90.000000
_cell_angle_gamma 120.000000
_cell_volume 4599.451539
_symmetry_space_group_name_H-M "P -6 M 2"
_symmetry_group_IT_number 187
_symmetry_cell_setting 'hexagonal'
loop_
_space_group_symop_operation_xyz
x,y,z
-x+y,-x,-z
-y,x-y,z
x,y,-z
-x+y,-x,z
-y,x-y,-z
-y,-x,-z
-x+y,y,-z
x,x-y,-z
-x+y,y,z
x,x-y,z
-y,-x,z
loop_
_atom_site_type_symbol
_atom_site_label
_atom_site_fract_x
_atom_site_fract_y
_atom_site_fract_z
Si Si1 0.093507 0.730912 0.139813
Si Si2 0.510951 0.666710 0.414052
Si Si3 0.394344 0.966550 0.278058
Si Si4 0.844217 0.332712 0.220552
Si Si5 0.906029 0.638092 0.914144
Si Si6 0.508560 0.668403 0.000000
O O1 0.164503 0.835498 0.145691
O O2 0.088947 0.684308 0.219092
O O3 0.118475 0.683473 0.075020
O O4 0.998020 0.719009 0.117886
O O5 0.543502 0.670179 0.500000
O O6 0.520657 0.760328 0.389619
O O7 0.407665 0.592336 0.405126
O O8 0.572700 0.643814 0.361299
O O9 0.475305 0.950609 0.256192
O O10 0.429540 0.072555 0.276495
O O11 0.817185 0.408593 0.220779
O O12 0.759732 0.240269 0.248201
O O13 0.873636 0.324629 0.135475
O O14 0.836677 0.673354 0.908368
O O15 0.915881 0.613018 0.000000
O O16 0.432308 0.567693 0.000000
O O17 0.468101 0.734051 0.000000
#
# Coordination Sequence:
#
# PCOD8326849 Si02
#       6
#    12  12  12  12  12   6
#     4  10  18  28  42  59  77 104 140 169 196 236
#     4   9  16  26  41  61  85 111 137 165 198 236
#     4   9  17  28  41  60  83 108 136 168 204 240
#     4   9  17  28  42  59  79 104 135 169 207 248
#     4   9  17  29  41  56  77 101 129 168 214 251
#     4  10  19  28  37  52  76 106 136 164 191 218
#
# _framework density 14.349537
#
# number of rings (size 3 to 8) (size 9 to 14) (size 15 to 20)
#    0.000    2.727    0.909    1.545    0.000    1.818 
#    0.000    0.000    0.000    7.818    0.000    0.000 
#    0.000    1.455    0.000    0.000    0.000    5.636 
#
# Total GULP energy -818214.921746 kJ/mol
# GULP energy per Si atom -12397.195784 kJ/mol
# Density = 1.431688 g / cm^3
# Si number density = 14.349537 Si / 1000 Ang^3
#
#
#
# Elastic Constant Matrix: (Units=GPa)
#
#
# Indices 1 2 3 4 5 6 
#
# 1 85.0273 47.5286 44.6506 0.0000 -0.0002 0.0000
# 2 47.5286 85.0273 44.6506 0.0000 0.0002 0.0000
# 3 44.6506 44.6506 88.7773 0.0000 0.0000 0.0000
# 4 0.0000 0.0000 0.0000 19.1932 0.0000 0.0002
# 5 -0.0002 0.0002 0.0000 0.0000 19.1932 0.0000
# 6 0.0000 0.0000 0.0000 0.0002 0.0000 18.7494
#
#
#
# Elastic Compliance Matrix: (Units=1/GPa)
#
#
# Indices 1 2 3 4 5 6 
#
# 1 0.019039 -0.007629 -0.005739 0.000000 0.000000 0.000000
# 2 -0.007629 0.019039 -0.005739 0.000000 0.000000 0.000000
# 3 -0.005739 -0.005739 0.017037 0.000000 0.000000 0.000000
# 4 0.000000 0.000000 0.000000 0.052102 0.000000 0.000000
# 5 0.000000 0.000000 0.000000 0.000000 0.052102 0.000000
# 6 0.000000 0.000000 0.000000 0.000000 0.000000 0.053335
#
#
# Mechanical properties :
#
#
# Convention : Reuss Voigt Hill
#
# Bulk Modulus (GPa) = 59.16445 59.16574 59.16510
# Shear Modulus (GPa) = 19.49324 19.56064 19.52694
#
# Velocity S-wave (km/s) = 3.68972 3.69610 3.69291
# Velocity P-wave (km/s) = 7.71184 7.71597 7.71391
#
# Compressibility (1/GPa) = 0.01690204
#
# Stress axis : x y z
#
# Youngs Moduli (GPa) = 52.52425 52.52425 58.69675
#
# Poissons Ratio (x) = 0.40069 0.33684
# Poissons Ratio (y) = 0.40069 0.33684
# Poissons Ratio (z) = 0.30142 0.30142
#
# Static dielectric constant tensor:
#      x y z
#    x 2.790000 0.000000 0.000000 
#    y 0.000000 2.790000 0.000000 
#    z 0.000000 0.000000 2.805060 
# 
# 
# High freq. dielectric constant tensor:
#      x y z
#    x 1.538610 0.000000 0.000000 
#    y 0.000000 1.538610 0.000000 
#    z 0.000000 0.000000 1.540260 
# 
# From -- ./inp_files/2439.got.cif
#   From: 2010.03.12/outbox.cif.g09.slc.cpg/sg187_2_cif.got.tgz:2439.got - 2010.04.01 11:58:23.
