data_PCOD8326971
_publ_section_title
;
Structure prediction by ZEFSAII (Michael W. Deem and Ramdas Pophale) SiO2 
 PCOD8326971
Probable space group: P -6 M 2
;
_chemical_formula_sum "Si O2"
_cell_formula_units_Z 78
_cell_length_a 22.677955
_cell_length_b 22.677955
_cell_length_c 9.858575
_cell_angle_alpha 90.000000
_cell_angle_beta 90.000000
_cell_angle_gamma 120.000000
_cell_volume 4390.889974
_symmetry_space_group_name_H-M "P -6 M 2"
_symmetry_group_IT_number 187
_symmetry_cell_setting 'hexagonal'
loop_
_space_group_symop_operation_xyz
x,y,z
-x+y,-x,-z
-y,x-y,z
x,y,-z
-x+y,-x,z
-y,x-y,-z
-y,-x,-z
-x+y,y,-z
x,x-y,-z
-x+y,y,z
x,x-y,z
-y,-x,z
loop_
_atom_site_type_symbol
_atom_site_label
_atom_site_fract_x
_atom_site_fract_y
_atom_site_fract_z
Si Si1 0.542015 0.589810 0.352081
Si Si2 0.470590 0.668743 0.000000
Si Si3 0.417099 0.140513 0.652001
Si Si4 0.731516 0.797790 0.845376
Si Si5 0.605314 0.531672 0.844673
Si Si6 0.144903 0.722363 0.763740
Si Si7 0.938107 0.197153 0.342991
O O1 0.563786 0.575555 0.500000
O O2 0.461684 0.538317 0.328516
O O3 0.584448 0.580935 0.232089
O O4 0.559412 0.667775 0.355158
O O5 0.518788 0.682120 0.872795
O O6 0.408419 0.591582 0.000000
O O7 0.441325 0.720663 0.000000
O O8 0.433752 0.125757 0.500000
O O9 0.435313 0.217657 0.661773
O O10 0.463421 0.132590 0.765244
O O11 0.338251 0.089731 0.685167
O O12 0.748186 0.874093 0.814656
O O13 0.651690 0.745566 0.823507
O O14 0.779995 0.784124 0.748384
O O15 0.749311 0.790396 0.000000
O O16 0.545987 0.454014 0.838015
O O17 0.624084 0.556421 0.000000
O O18 0.212630 0.787371 0.705876
O O19 0.958997 0.200845 0.500000
O O20 0.879763 0.120238 0.305858
#
# Coordination Sequence:
#
# PCOD8326971 Si02
#       7
#    12   6  12  12  12  12  12
#     4  10  21  35  50  70  97 131 170 214 265 316
#     4  10  19  32  50  72  99 136 180 226 272 318
#     4   9  18  33  53  77 105 136 167 205 254 303
#     4  10  20  34  51  75 108 139 168 206 255 306
#     4  10  21  34  50  75 104 134 170 211 255 303
#     4  10  20  33  50  73 101 134 172 216 266 316
#     4   9  19  35  54  78 106 133 167 210 252 301
#
# _framework density 17.764052
#
# number of rings (size 3 to 8) (size 9 to 14) (size 15 to 20)
#    0.000    2.308    0.769    2.846    1.077    5.846 
#    0.000    3.077    0.000    0.923    0.000    0.000 
#    0.000    0.000    0.000    0.000    0.000    0.000 
#
# Total GULP energy -966917.413716 kJ/mol
# GULP energy per Si atom -12396.377099 kJ/mol
# Density = 1.772362 g / cm^3
# Si number density = 17.764052 Si / 1000 Ang^3
#
#
#
# Elastic Constant Matrix: (Units=GPa)
#
#
# Indices 1 2 3 4 5 6 
#
# 1 97.4264 47.3020 59.0490 0.0000 0.0002 0.0000
# 2 47.3020 97.4264 59.0490 0.0000 -0.0002 0.0000
# 3 59.0490 59.0490 125.2328 0.0000 0.0000 0.0000
# 4 0.0000 0.0000 0.0000 24.0880 0.0000 -0.0002
# 5 0.0002 -0.0002 0.0000 0.0000 24.0880 0.0000
# 6 0.0000 0.0000 0.0000 -0.0002 0.0000 25.0622
#
#
#
# Elastic Compliance Matrix: (Units=1/GPa)
#
#
# Indices 1 2 3 4 5 6 
#
# 1 0.015590 -0.004360 -0.005295 0.000000 0.000000 0.000000
# 2 -0.004360 0.015590 -0.005295 0.000000 0.000000 0.000000
# 3 -0.005295 -0.005295 0.012979 0.000000 0.000000 0.000000
# 4 0.000000 0.000000 0.000000 0.041514 0.000000 0.000000
# 5 0.000000 0.000000 0.000000 0.000000 0.041514 0.000000
# 6 0.000000 0.000000 0.000000 0.000000 0.000000 0.039901
#
#
# Mechanical properties :
#
#
# Convention : Reuss Voigt Hill
#
# Bulk Modulus (GPa) = 70.13407 72.32064 71.22736
# Shear Modulus (GPa) = 24.78401 24.96004 24.87202
#
# Velocity S-wave (km/s) = 3.73926 3.75252 3.74589
# Velocity P-wave (km/s) = 7.62951 7.71851 7.67413
#
# Compressibility (1/GPa) = 0.01425841
#
# Stress axis : x y z
#
# Youngs Moduli (GPa) = 64.14200 64.14200 77.04894
#
# Poissons Ratio (x) = 0.27966 0.40800
# Poissons Ratio (y) = 0.27966 0.40800
# Poissons Ratio (z) = 0.33965 0.33965
#
# Static dielectric constant tensor:
#      x y z
#    x 3.214870 0.000000 0.000000 
#    y 0.000000 3.214870 0.000000 
#    z 0.000000 0.000000 3.307360 
# 
# 
# High freq. dielectric constant tensor:
#      x y z
#    x 1.677650 0.000000 0.000000 
#    y 0.000000 1.677650 0.000000 
#    z 0.000000 0.000000 1.690800 
# 
# From -- ./inp_files/1138.got.cif
#   From: 2010.03.12/outbox.cif.g09.slc.cpg/sg187_1_cif.got.tgz:1138.got - 2010.04.01 11:58:23.
