data_PCOD8326033
_publ_section_title
;
Structure prediction by ZEFSAII (Michael W. Deem and Ramdas Pophale) SiO2 
 PCOD8326033
Probable space group: P 65 2 2
;
_chemical_formula_sum "Si O2"
_cell_formula_units_Z 36
_cell_length_a 16.917755
_cell_length_b 16.917755
_cell_length_c 7.406462
_cell_angle_alpha 90.000000
_cell_angle_beta 90.000000
_cell_angle_gamma 120.000000
_cell_volume 1835.806458
_symmetry_space_group_name_H-M "P 65 2 2"
_symmetry_group_IT_number 179
_symmetry_cell_setting 'hexagonal'
loop_
_space_group_symop_operation_xyz
x,y,z
x-y,x,5/6+z
-y,x-y,2/3+z
-x,-y,1/2+z
-x+y,-x,1/3+z
y,-x+y,1/6+z
x-y,-y,-z
-x,-x+y,1/3-z
y,x,2/3-z
-y,-x,1/6-z
-x+y,y,1/2-z
x,x-y,5/6-z
loop_
_atom_site_type_symbol
_atom_site_label
_atom_site_fract_x
_atom_site_fract_y
_atom_site_fract_z
Si Si1 0.633563 0.267126 0.750000
Si Si2 0.272070 0.853406 0.227299
Si Si3 0.769925 0.230076 0.083334
Si Si4 0.138075 0.569038 0.416667
Si Si5 0.415987 0.000000 0.000000
O O1 0.664217 0.335784 0.583334
O O2 0.676033 0.203041 0.735606
O O3 0.235406 0.843705 0.433449
O O4 0.189785 0.810216 0.083334
O O5 0.341005 0.956899 0.161380
O O6 0.672291 0.196972 0.178784
O O7 0.078504 0.510260 0.585513
#
# Coordination Sequence:
#
# PCOD8326033 Si02
#       5
#     6  12   6   6   6
#     4  10  20  30  52  76 108 142 190 256 316 370
#     4  11  23  39  56  84 114 154 209 264 327 382
#     4  12  25  38  57  88 116 158 214 272 329 370
#     4  12  25  38  63  88 124 166 218 280 331 390
#     4  12  24  44  60  86 122 170 218 276 340 400
#
# _framework density 19.609909999999999
#
# number of rings (size 3 to 8) (size 9 to 14) (size 15 to 20)
#    0.000    0.667    3.333    6.000    7.000    2.667 
#    0.000    0.000    0.000    0.000    0.000    0.000 
#    0.000    0.000    0.000    0.000    6.333    0.000 
#
# Total GULP energy -446055.182092 kJ/mol
# GULP energy per Si atom -12390.421725 kJ/mol
# Density = 1.956528 g / cm^3
# Si number density = 19.609910 Si / 1000 Ang^3
#
#
#
# Elastic Constant Matrix: (Units=GPa)
#
#
# Indices 1 2 3 4 5 6 
#
# 1 55.2251 33.8517 34.2321 0.0000 0.0000 0.0000
# 2 33.8517 55.2251 34.2321 0.0000 0.0000 0.0000
# 3 34.2321 34.2321 160.5226 0.0000 0.0000 0.0000
# 4 0.0000 0.0000 0.0000 34.8365 0.0000 0.0000
# 5 0.0000 0.0000 0.0000 0.0000 34.8365 0.0000
# 6 0.0000 0.0000 0.0000 0.0000 0.0000 10.6867
#
#
#
# Elastic Compliance Matrix: (Units=1/GPa)
#
#
# Indices 1 2 3 4 5 6 
#
# 1 0.030107 -0.016680 -0.002863 0.000000 0.000000 0.000000
# 2 -0.016680 0.030107 -0.002863 0.000000 0.000000 0.000000
# 3 -0.002863 -0.002863 0.007451 0.000000 0.000000 0.000000
# 4 0.000000 0.000000 0.000000 0.028706 0.000000 0.000000
# 5 0.000000 0.000000 0.000000 0.000000 0.028706 0.000000
# 6 0.000000 0.000000 0.000000 0.000000 0.000000 0.093574
#
#
# Mechanical properties :
#
#
# Convention : Reuss Voigt Hill
#
# Bulk Modulus (GPa) = 43.76081 52.84498 48.30290
# Shear Modulus (GPa) = 18.44468 27.31573 22.88020
#
# Velocity S-wave (km/s) = 3.07021 3.73628 3.41950
# Velocity P-wave (km/s) = 5.91036 6.75423 6.34634
#
# Compressibility (1/GPa) = 0.02285149
#
# Stress axis : x y z
#
# Youngs Moduli (GPa) = 33.21480 33.21480 134.21183
#
# Poissons Ratio (x) = 0.55402 0.38430
# Poissons Ratio (y) = 0.55402 0.38430
# Poissons Ratio (z) = 0.09511 0.09511
#
# Static dielectric constant tensor:
#      x y z
#    x 3.440810 0.000000 0.000000 
#    y 0.000000 3.440810 0.000000 
#    z 0.000000 0.000000 4.306980 
# 
# 
# High freq. dielectric constant tensor:
#      x y z
#    x 1.718140 0.000000 0.000000 
#    y 0.000000 1.718140 0.000000 
#    z 0.000000 0.000000 1.806020 
# 
# From -- ./inp_files/2378.got.cif
#   From: 2010.03.12/outbox.cif.g09.slc.cpg/sg179_2_cif.got.tgz:2378.got - 2010.04.02 07:08:42.
