data_PCOD8326372
_publ_section_title
;
Structure prediction by ZEFSAII (Michael W. Deem and Ramdas Pophale) SiO2 
 PCOD8326372
Probable space group: P 64 2 2
;
_chemical_formula_sum "Si O2"
_cell_formula_units_Z 63
_cell_length_a 13.668349
_cell_length_b 13.668349
_cell_length_c 16.821613
_cell_angle_alpha 90.000000
_cell_angle_beta 90.000000
_cell_angle_gamma 120.000000
_cell_volume 2721.638173
_symmetry_space_group_name_H-M "P 64 2 2"
_symmetry_group_IT_number 181
_symmetry_cell_setting 'hexagonal'
loop_
_space_group_symop_operation_xyz
x,y,z
x-y,x,2/3+z
-y,x-y,1/3+z
-x,-y,z
-x+y,-x,2/3+z
y,-x+y,1/3+z
x-y,-y,-z
-x,-x+y,2/3-z
y,x,1/3-z
-y,-x,1/3-z
-x+y,y,-z
x,x-y,2/3-z
loop_
_atom_site_type_symbol
_atom_site_label
_atom_site_fract_x
_atom_site_fract_y
_atom_site_fract_z
Si Si1 0.303591 0.362633 0.586843
Si Si2 0.161270 0.376130 0.184414
Si Si3 0.295686 0.408910 0.048290
Si Si4 0.500000 0.000000 0.500000
Si Si5 0.571319 0.392970 0.857268
Si Si6 0.281753 0.876966 0.321626
O O1 0.374836 0.374836 0.666667
O O2 0.282920 0.247322 0.544678
O O3 0.378950 0.471427 0.533769
O O4 0.180932 0.349061 0.601807
O O5 0.202033 0.325953 0.113391
O O6 0.155116 0.482242 0.149505
O O7 0.253695 0.421749 0.255301
O O8 0.402573 0.487061 0.104982
O O9 0.234552 0.469103 0.000000
O O10 0.322414 0.334456 0.987454
O O11 0.613343 0.306672 0.833334
O O12 0.525081 0.371923 0.948791
#
# Coordination Sequence:
#
# PCOD8326372 Si02
#       6
#    12  12  12   3  12  12
#     4   9  20  38  66  96 134 176 233 301 356 417
#     4  11  22  39  65  99 137 186 237 292 355 428
#     4  12  27  45  72 101 142 197 238 290 370 442
#     4  12  28  52  72 112 154 188 258 308 360 462
#     4  10  22  36  60  96 138 184 234 285 361 432
#     4  10  22  44  65  98 137 179 234 298 353 432
#
# _framework density 23.147822000000001
#
# number of rings (size 3 to 8) (size 9 to 14) (size 15 to 20)
#    0.000    1.524    1.905    1.714    4.000    9.143 
#    0.000    0.000    0.000    5.143   14.857    0.000 
#    0.000    0.000    0.000    0.000    0.000    0.000 
#
# Total GULP energy -780527.621211 kJ/mol
# GULP energy per Si atom -12389.327321 kJ/mol
# Density = 2.309514 g / cm^3
# Si number density = 23.147822 Si / 1000 Ang^3
#
#
#
# Elastic Constant Matrix: (Units=GPa)
#
#
# Indices 1 2 3 4 5 6 
#
# 1 82.9572 38.6902 24.6112 0.0000 0.0000 0.0000
# 2 38.6902 82.9572 24.6112 0.0000 0.0000 0.0000
# 3 24.6112 24.6112 98.2180 0.0000 0.0000 0.0000
# 4 0.0000 0.0000 0.0000 28.9729 0.0000 0.0000
# 5 0.0000 0.0000 0.0000 0.0000 28.9729 0.0000
# 6 0.0000 0.0000 0.0000 0.0000 0.0000 22.1335
#
#
#
# Elastic Compliance Matrix: (Units=1/GPa)
#
#
# Indices 1 2 3 4 5 6 
#
# 1 0.015869 -0.006721 -0.002292 0.000000 0.000000 0.000000
# 2 -0.006721 0.015869 -0.002292 0.000000 0.000000 0.000000
# 3 -0.002292 -0.002292 0.011330 0.000000 0.000000 0.000000
# 4 0.000000 0.000000 0.000000 0.034515 0.000000 0.000000
# 5 0.000000 0.000000 0.000000 0.000000 0.034515 0.000000
# 6 0.000000 0.000000 0.000000 0.000000 0.000000 0.045180
#
#
# Mechanical properties :
#
#
# Convention : Reuss Voigt Hill
#
# Bulk Modulus (GPa) = 48.88277 48.88418 48.88347
# Shear Modulus (GPa) = 26.77962 27.76385 27.27173
#
# Velocity S-wave (km/s) = 3.40501 3.46701 3.43615
# Velocity P-wave (km/s) = 6.05163 6.09844 6.07508
#
# Compressibility (1/GPa) = 0.02045711
#
# Stress axis : x y z
#
# Youngs Moduli (GPa) = 63.01559 63.01559 88.25952
#
# Poissons Ratio (x) = 0.42353 0.20232
# Poissons Ratio (y) = 0.42353 0.20232
# Poissons Ratio (z) = 0.14445 0.14445
#
# Static dielectric constant tensor:
#      x y z
#    x 4.230970 0.000000 0.000000 
#    y 0.000000 4.230970 0.000000 
#    z 0.000000 0.000000 4.886620 
# 
# 
# High freq. dielectric constant tensor:
#      x y z
#    x 1.892020 0.000000 0.000000 
#    y 0.000000 1.892020 0.000000 
#    z 0.000000 0.000000 1.954130 
# 
# From -- ./inp_files/7662.got.cif
#   From: 2010.03.12/outbox.cif.g09.slc.cpg/sg181_4_cif.got.tgz:7662.got - 2010.04.01 11:42:41.
