data_PCOD8326493
_publ_section_title
;
Structure prediction by ZEFSAII (Michael W. Deem and Ramdas Pophale) SiO2 
 PCOD8326493
Probable space group: P 63 2 2
;
_chemical_formula_sum "Si O2"
_cell_formula_units_Z 60
_cell_length_a 27.720632
_cell_length_b 27.720632
_cell_length_c 4.928933
_cell_angle_alpha 90.000000
_cell_angle_beta 90.000000
_cell_angle_gamma 120.000000
_cell_volume 3280.120522
_symmetry_space_group_name_H-M "P 63 2 2"
_symmetry_group_IT_number 182
_symmetry_cell_setting 'hexagonal'
loop_
_space_group_symop_operation_xyz
x,y,z
x-y,x,1/2+z
-y,x-y,z
-x,-y,1/2+z
-x+y,-x,z
y,-x+y,1/2+z
x-y,-y,-z
-x,-x+y,-z
y,x,-z
-y,-x,1/2-z
-x+y,y,1/2-z
x,x-y,1/2-z
loop_
_atom_site_type_symbol
_atom_site_label
_atom_site_fract_x
_atom_site_fract_y
_atom_site_fract_z
Si Si1 0.486850 0.294819 0.147685
Si Si2 0.280490 0.948050 0.168042
Si Si3 0.125427 0.768314 0.829124
Si Si4 0.367300 0.524922 0.331210
Si Si5 0.966006 0.566396 0.751398
O O1 0.506999 0.253500 0.250000
O O2 0.421056 0.262482 0.081404
O O3 0.510795 0.347389 0.355946
O O4 0.513117 0.314955 0.852974
O O5 0.240784 0.921488 0.439282
O O6 0.342234 0.967215 0.265574
O O7 0.260705 0.899447 0.954175
O O8 0.280821 0.000000 0.000000
O O9 0.166521 0.833480 0.750000
O O10 0.412658 0.587343 0.250000
O O11 0.390478 0.485419 0.235144
O O12 0.000000 0.563299 0.500000
O O13 0.000000 0.562221 0.000000
#
# Coordination Sequence:
#
# PCOD8326493 Si02
#       5
#    12  12  12  12  12
#     4  11  22  40  60  78 100 125 161 211 266 306
#     4  11  20  33  52  77 110 143 168 208 269 316
#     4  11  20  34  55  79 101 132 181 221 251 302
#     4  12  24  39  58  81 104 130 170 203 249 318
#     4  11  21  34  52  73 108 142 167 195 238 306
#
# _framework density 18.292012
#
# number of rings (size 3 to 8) (size 9 to 14) (size 15 to 20)
#    0.000    0.800    4.000    6.000    0.000    4.000 
#    0.000    0.000    0.000    8.000    0.000    0.000 
#    0.000    0.000    0.000    0.000    0.000    0.000 
#
# Total GULP energy -743375.931282 kJ/mol
# GULP energy per Si atom -12389.598855 kJ/mol
# Density = 1.825038 g / cm^3
# Si number density = 18.292012 Si / 1000 Ang^3
#
#
#
# Elastic Constant Matrix: (Units=GPa)
#
#
# Indices 1 2 3 4 5 6 
#
# 1 50.3552 23.1242 15.9244 0.0000 0.0000 0.0000
# 2 23.1242 50.3552 15.9244 0.0000 0.0000 0.0000
# 3 15.9244 15.9244 106.6347 0.0000 0.0000 0.0000
# 4 0.0000 0.0000 0.0000 20.0074 0.0000 0.0000
# 5 0.0000 0.0000 0.0000 0.0000 20.0074 0.0000
# 6 0.0000 0.0000 0.0000 0.0000 0.0000 13.6155
#
#
#
# Elastic Compliance Matrix: (Units=1/GPa)
#
#
# Indices 1 2 3 4 5 6 
#
# 1 0.025637 -0.011086 -0.002173 0.000000 0.000000 0.000000
# 2 -0.011086 0.025637 -0.002173 0.000000 0.000000 0.000000
# 3 -0.002173 -0.002173 0.010027 0.000000 0.000000 0.000000
# 4 0.000000 0.000000 0.000000 0.049982 0.000000 0.000000
# 5 0.000000 0.000000 0.000000 0.000000 0.049982 0.000000
# 6 0.000000 0.000000 0.000000 0.000000 0.000000 0.073446
#
#
# Mechanical properties :
#
#
# Convention : Reuss Voigt Hill
#
# Bulk Modulus (GPa) = 32.85470 35.25457 34.05464
# Shear Modulus (GPa) = 18.13442 20.88420 19.50931
#
# Velocity S-wave (km/s) = 3.15204 3.38259 3.26935
# Velocity P-wave (km/s) = 5.58994 5.87970 5.73665
#
# Compressibility (1/GPa) = 0.03043704
#
# Stress axis : x y z
#
# Youngs Moduli (GPa) = 39.00620 39.00620 99.73242
#
# Poissons Ratio (x) = 0.43242 0.21672
# Poissons Ratio (y) = 0.43242 0.21672
# Poissons Ratio (z) = 0.08476 0.08476
#
# Static dielectric constant tensor:
#      x y z
#    x 3.317240 0.000000 0.000000 
#    y 0.000000 3.317240 0.000000 
#    z 0.000000 0.000000 3.414430 
# 
# 
# High freq. dielectric constant tensor:
#      x y z
#    x 1.674360 0.000000 0.000000 
#    y 0.000000 1.674360 0.000000 
#    z 0.000000 0.000000 1.741540 
# 
# From -- ./inp_files/713.got.cif
#   From: 2010.03.12/outbox.cif.g09.slc.cpg/sg182_1_cif.got.tgz:713.got - 2010.04.01 11:49:36.
