data_PCOD8326883
_publ_section_title
;
Structure prediction by ZEFSAII (Michael W. Deem and Ramdas Pophale) SiO2 
 PCOD8326883
Probable space group: P -6 M 2
;
_chemical_formula_sum "Si O2"
_cell_formula_units_Z 68
_cell_length_a 22.035173
_cell_length_b 22.035173
_cell_length_c 9.559950
_cell_angle_alpha 90.000000
_cell_angle_beta 90.000000
_cell_angle_gamma 120.000000
_cell_volume 4019.936396
_symmetry_space_group_name_H-M "P -6 M 2"
_symmetry_group_IT_number 187
_symmetry_cell_setting 'hexagonal'
loop_
_space_group_symop_operation_xyz
x,y,z
-x+y,-x,-z
-y,x-y,z
x,y,-z
-x+y,-x,z
-y,x-y,-z
-y,-x,-z
-x+y,y,-z
x,x-y,-z
-x+y,y,z
x,x-y,z
-y,-x,z
loop_
_atom_site_type_symbol
_atom_site_label
_atom_site_fract_x
_atom_site_fract_y
_atom_site_fract_z
Si Si1 0.250932 0.057052 0.163780
Si Si2 0.564639 0.649998 0.334588
Si Si3 0.725502 0.137889 0.844723
Si Si4 0.405974 0.594027 0.668028
Si Si5 0.333334 0.666667 0.171700
Si Si6 0.217154 0.924784 0.337731
Si Si7 0.462075 0.063968 0.656166
O O1 0.223417 0.111709 0.200739
O O2 0.332214 0.093968 0.203408
O O3 0.213381 0.986167 0.253603
O O4 0.238386 0.038191 0.000000
O O5 0.561914 0.646549 0.500000
O O6 0.488052 0.634515 0.286260
O O7 0.630256 0.723804 0.282794
O O8 0.576829 0.588566 0.274687
O O9 0.780091 0.219910 0.839432
O O10 0.663691 0.124965 0.742482
O O11 0.694987 0.114911 0.000000
O O12 0.397611 0.602389 0.500000
O O13 0.372139 0.627862 0.765121
O O14 0.333334 0.666667 0.000000
O O15 0.230844 0.946917 0.500000
O O16 0.143443 0.856558 0.313388
O O17 0.435781 0.065151 0.500000
O O18 0.540699 0.081397 0.656131
#
# Coordination Sequence:
#
# PCOD8326883 Si02
#       7
#    12  12  12   6   2  12  12
#     4   9  18  33  52  74 101 133 168 205 243 294
#     4   9  17  31  52  78 103 129 170 218 259 310
#     4   9  18  32  49  71 101 135 171 207 244 297
#     4  10  20  38  62  76  92 140 194 224 264 332
#     4  12  28  44  52  72 106 134 184 252 292 320
#     4  10  20  32  50  78 110 138 167 210 259 307
#     4  10  18  30  50  78 107 133 165 212 263 309
#
# _framework density 16.915690000000001
#
# number of rings (size 3 to 8) (size 9 to 14) (size 15 to 20)
#    0.000    2.471    2.647    1.324    1.235    1.412 
#    0.000    3.529    0.000    0.706    0.000    0.000 
#    0.000    0.000    0.000    0.000    0.000    0.000 
#
# Total GULP energy -842789.574502 kJ/mol
# GULP energy per Si atom -12393.964331 kJ/mol
# Density = 1.687719 g / cm^3
# Si number density = 16.915690 Si / 1000 Ang^3
#
#
#
# Elastic Constant Matrix: (Units=GPa)
#
#
# Indices 1 2 3 4 5 6 
#
# 1 101.8387 48.4335 47.7258 0.0000 0.0004 0.0000
# 2 48.4335 101.8387 47.7258 0.0000 -0.0003 0.0000
# 3 47.7258 47.7258 62.9308 0.0000 0.0000 0.0000
# 4 0.0000 0.0000 0.0000 23.6357 0.0000 -0.0004
# 5 0.0004 -0.0003 0.0000 0.0000 23.6357 0.0000
# 6 0.0000 0.0000 0.0000 -0.0004 0.0000 26.7026
#
#
#
# Elastic Compliance Matrix: (Units=1/GPa)
#
#
# Indices 1 2 3 4 5 6 
#
# 1 0.015782 -0.002942 -0.009737 0.000000 0.000000 0.000000
# 2 -0.002942 0.015782 -0.009737 0.000000 0.000000 0.000000
# 3 -0.009737 -0.009737 0.030660 0.000000 0.000000 0.000000
# 4 0.000000 0.000000 0.000000 0.042309 0.000000 0.000001
# 5 0.000000 0.000000 0.000000 0.000000 0.042309 0.000000
# 6 0.000000 0.000000 0.000000 0.000001 0.000000 0.037450
#
#
# Mechanical properties :
#
#
# Convention : Reuss Voigt Hill
#
# Bulk Modulus (GPa) = 57.50571 61.59761 59.55166
# Shear Modulus (GPa) = 21.28355 22.97635 22.12995
#
# Velocity S-wave (km/s) = 3.55098 3.68949 3.62090
# Velocity P-wave (km/s) = 7.13315 7.39211 7.26379
#
# Compressibility (1/GPa) = 0.01738958
#
# Stress axis : x y z
#
# Youngs Moduli (GPa) = 63.36229 63.36226 32.61576
#
# Poissons Ratio (x) = 0.18644 0.31760
# Poissons Ratio (y) = 0.18644 0.31760
# Poissons Ratio (z) = 0.61699 0.61699
#
# Static dielectric constant tensor:
#      x y z
#    x 3.174290 0.000000 0.000000 
#    y 0.000000 3.174290 0.000000 
#    z 0.000000 0.000000 3.007170 
# 
# 
# High freq. dielectric constant tensor:
#      x y z
#    x 1.646720 0.000000 0.000000 
#    y 0.000000 1.646720 0.000000 
#    z 0.000000 0.000000 1.629950 
# 
# From -- ./inp_files/795.got.cif
#   From: 2010.03.12/outbox.cif.g09.slc.cpg/sg187_1_cif.got.tgz:795.got - 2010.04.01 11:58:23.
