data_PCOD8326771
_publ_section_title
;
Structure prediction by ZEFSAII (Michael W. Deem and Ramdas Pophale) SiO2 
 PCOD8326771
Probable space group: P 63 M C
;
_chemical_formula_sum "Si O2"
_cell_formula_units_Z 84
_cell_length_a 17.053311
_cell_length_b 17.053311
_cell_length_c 19.374078
_cell_angle_alpha 90.000000
_cell_angle_beta 90.000000
_cell_angle_gamma 120.000000
_cell_volume 4879.430092
_symmetry_space_group_name_H-M "P 63 M C"
_symmetry_group_IT_number 186
_symmetry_cell_setting 'hexagonal'
loop_
_space_group_symop_operation_xyz
x,y,z
x-y,x,1/2+z
-y,x-y,z
-x,-y,1/2+z
-x+y,-x,z
y,-x+y,1/2+z
-x+y,y,z
x,x-y,z
-y,-x,z
y,x,1/2+z
x-y,-y,1/2+z
-x,-x+y,1/2+z
loop_
_atom_site_type_symbol
_atom_site_label
_atom_site_fract_x
_atom_site_fract_y
_atom_site_fract_z
Si Si1 0.424900 0.027501 0.493050
Si Si2 0.154436 0.488316 0.865900
Si Si3 0.000646 0.822296 0.687957
Si Si4 0.730773 0.092801 0.621644
Si Si5 0.332436 0.848833 0.252240
Si Si6 0.940098 0.233203 0.324531
Si Si7 0.280370 0.380439 0.393504
O O1 0.505604 0.011208 0.514714
O O2 0.458519 0.112768 0.442242
O O3 0.388412 0.046395 0.562632
O O4 0.348728 0.934847 0.457610
O O5 0.260385 0.520769 0.869601
O O6 0.142814 0.571407 0.838264
O O7 0.100120 0.401762 0.815632
O O8 0.920124 0.840248 0.711197
O O9 0.966508 0.746552 0.628931
O O10 0.030277 0.784045 0.751479
O O11 0.084753 0.915248 0.659717
O O12 0.804761 0.195240 0.600704
O O13 0.683948 0.094141 0.693624
O O14 0.428946 0.857892 0.240022
O O15 0.256256 0.743745 0.248700
O O16 0.330073 0.889386 0.326498
O O17 0.861395 0.138606 0.356991
O O18 0.025613 0.276186 0.376080
O O19 0.193353 0.386705 0.415288
#
# Coordination Sequence:
#
# PCOD8326771 Si02
#       7
#    12  12  12  12  12  12  12
#     4  10  20  33  49  74 102 135 173 208 251 310
#     4   9  17  29  46  69  99 134 172 209 248 294
#     4  10  19  33  52  74  99 128 165 208 257 309
#     4  10  20  34  52  74 103 135 167 209 260 309
#     4  10  19  32  51  76 104 134 167 208 257 310
#     4   9  17  30  48  72 101 130 164 209 256 306
#     4  10  19  33  53  75 102 136 172 215 262 306
#
# _framework density 17.215125
#
# number of rings (size 3 to 8) (size 9 to 14) (size 15 to 20)
#    0.000    2.286    1.429    2.143    0.000    1.714 
#    0.000    0.000    0.000    5.143    0.000    1.000 
#    0.000    1.143    0.000    0.000    0.000    0.000 
#
# Total GULP energy -1041425.162486 kJ/mol
# GULP energy per Si atom -12397.918601 kJ/mol
# Density = 1.717594 g / cm^3
# Si number density = 17.215125 Si / 1000 Ang^3
#
#
#
# Elastic Constant Matrix: (Units=GPa)
#
#
# Indices 1 2 3 4 5 6 
#
# 1 115.0288 61.1826 48.4618 0.0000 0.0000 0.0000
# 2 61.1826 115.0288 48.4618 0.0000 0.0000 0.0000
# 3 48.4618 48.4618 80.0515 0.0000 0.0000 0.0000
# 4 0.0000 0.0000 0.0000 23.1245 0.0000 0.0000
# 5 0.0000 0.0000 0.0000 0.0000 23.1245 0.0000
# 6 0.0000 0.0000 0.0000 0.0000 0.0000 26.9231
#
#
#
# Elastic Compliance Matrix: (Units=1/GPa)
#
#
# Indices 1 2 3 4 5 6 
#
# 1 0.013540 -0.005032 -0.005151 0.000000 0.000000 0.000000
# 2 -0.005032 0.013540 -0.005151 0.000000 0.000000 0.000000
# 3 -0.005151 -0.005151 0.018728 0.000000 0.000000 0.000000
# 4 0.000000 0.000000 0.000000 0.043244 0.000000 0.000000
# 5 0.000000 0.000000 0.000000 0.000000 0.043244 0.000000
# 6 0.000000 0.000000 0.000000 0.000000 0.000000 0.037143
#
#
# Mechanical properties :
#
#
# Convention : Reuss Voigt Hill
#
# Bulk Modulus (GPa) = 66.04252 69.59126 67.81689
# Shear Modulus (GPa) = 24.37217 24.76794 24.57006
#
# Velocity S-wave (km/s) = 3.76672 3.79718 3.78198
# Velocity P-wave (km/s) = 7.57390 7.72897 7.65183
#
# Compressibility (1/GPa) = 0.01514176
#
# Stress axis : x y z
#
# Youngs Moduli (GPa) = 73.85662 73.85662 53.39552
#
# Poissons Ratio (x) = 0.37162 0.27502
# Poissons Ratio (y) = 0.37162 0.27502
# Poissons Ratio (z) = 0.38041 0.38041
#
# Static dielectric constant tensor:
#      x y z
#    x 3.382050 0.000000 0.000000 
#    y 0.000000 3.382050 0.000000 
#    z 0.000000 0.000000 2.888760 
# 
# 
# High freq. dielectric constant tensor:
#      x y z
#    x 1.672970 0.000000 0.000000 
#    y 0.000000 1.672970 0.000000 
#    z 0.000000 0.000000 1.633290 
# 
# From -- ./inp_files/2555.got.cif
#   From: 2010.03.12/outbox.cif.g09.slc.cpg/sg186_2_cif.got.tgz:2555.got - 2010.04.01 11:56:34.
