data_PCOD8326910
_publ_section_title
;
Structure prediction by ZEFSAII (Michael W. Deem and Ramdas Pophale) SiO2 
 PCOD8326910
Probable space group: P -6 M 2
;
_chemical_formula_sum "Si O2"
_cell_formula_units_Z 60
_cell_length_a 18.290107
_cell_length_b 18.290107
_cell_length_c 12.398268
_cell_angle_alpha 90.000000
_cell_angle_beta 90.000000
_cell_angle_gamma 120.000000
_cell_volume 3591.899228
_symmetry_space_group_name_H-M "P -6 M 2"
_symmetry_group_IT_number 187
_symmetry_cell_setting 'hexagonal'
loop_
_space_group_symop_operation_xyz
x,y,z
-x+y,-x,-z
-y,x-y,z
x,y,-z
-x+y,-x,z
-y,x-y,-z
-y,-x,-z
-x+y,y,-z
x,x-y,-z
-x+y,y,z
x,x-y,z
-y,-x,z
loop_
_atom_site_type_symbol
_atom_site_label
_atom_site_fract_x
_atom_site_fract_y
_atom_site_fract_z
Si Si1 0.496594 0.666652 0.233828
Si Si2 0.228851 0.940808 0.000000
Si Si3 0.102128 0.469809 0.000000
Si Si4 0.828420 0.828606 0.203680
Si Si5 0.763730 0.073371 0.623174
Si Si6 0.575888 0.987655 0.376665
O O1 0.515373 0.757687 0.271688
O O2 0.402152 0.597849 0.268441
O O3 0.562319 0.648749 0.296335
O O4 0.506378 0.666172 0.105495
O O5 0.217539 0.985800 0.896719
O O6 0.159615 0.840386 0.000000
O O7 0.325223 0.957389 0.000000
O O8 0.055711 0.527856 0.000000
O O9 0.919014 0.838028 0.181237
O O10 0.782757 0.771851 0.307575
O O11 0.841645 0.920823 0.223560
O O12 0.772906 0.052365 0.500000
O O13 0.829534 0.170467 0.652308
O O14 0.671330 0.061793 0.644588
O O15 0.563828 0.955143 0.500000
O O16 0.510356 0.020711 0.350255
#
# Coordination Sequence:
#
# PCOD8326910 Si02
#       6
#    12   6   6  12  12  12
#     4  10  19  30  44  63  89 121 155 188 221 259
#     4  10  19  31  48  68  90 119 155 193 231 271
#     4  10  20  31  44  64  90 119 151 189 231 271
#     4  10  20  33  49  69  94 124 157 193 233 276
#     4   9  18  32  49  69  92 118 149 186 229 276
#     4   9  18  32  49  68  90 118 151 187 229 274
#
# _framework density 16.704255
#
# number of rings (size 3 to 8) (size 9 to 14) (size 15 to 20)
#    0.000    2.400    0.000    2.800    0.000    3.200 
#    0.000    4.000    0.000    3.000    0.000    2.800 
#    0.000    0.000    0.000    2.400    0.000   24.600 
#
# Total GULP energy -743727.418380 kJ/mol
# GULP energy per Si atom -12395.456973 kJ/mol
# Density = 1.666624 g / cm^3
# Si number density = 16.704255 Si / 1000 Ang^3
#
#
#
# Elastic Constant Matrix: (Units=GPa)
#
#
# Indices 1 2 3 4 5 6 
#
# 1 112.6245 76.3462 47.2936 0.0000 0.0002 0.0000
# 2 76.3462 112.6245 47.2936 0.0000 -0.0002 0.0000
# 3 47.2936 47.2936 76.3691 0.0000 0.0000 0.0000
# 4 0.0000 0.0000 0.0000 21.4876 0.0000 -0.0002
# 5 0.0002 -0.0002 0.0000 0.0000 21.4876 0.0000
# 6 0.0000 0.0000 0.0000 -0.0002 0.0000 18.1392
#
#
#
# Elastic Compliance Matrix: (Units=1/GPa)
#
#
# Indices 1 2 3 4 5 6 
#
# 1 0.017617 -0.009948 -0.004749 0.000000 0.000000 0.000000
# 2 -0.009948 0.017617 -0.004749 0.000000 0.000000 0.000000
# 3 -0.004749 -0.004749 0.018977 0.000000 0.000000 0.000000
# 4 0.000000 0.000000 0.000000 0.046539 0.000000 0.000000
# 5 0.000000 0.000000 0.000000 0.000000 0.046539 0.000000
# 6 0.000000 0.000000 0.000000 0.000000 0.000000 0.055129
#
#
# Mechanical properties :
#
#
# Convention : Reuss Voigt Hill
#
# Bulk Modulus (GPa) = 65.28459 71.49832 68.39145
# Shear Modulus (GPa) = 20.29097 20.93517 20.61307
#
# Velocity S-wave (km/s) = 3.48906 3.54402 3.51665
# Velocity P-wave (km/s) = 7.44304 7.72283 7.58423
#
# Compressibility (1/GPa) = 0.01531755
#
# Stress axis : x y z
#
# Youngs Moduli (GPa) = 56.76388 56.76388 52.69675
#
# Poissons Ratio (x) = 0.56468 0.25027
# Poissons Ratio (y) = 0.56468 0.25027
# Poissons Ratio (z) = 0.26959 0.26959
#
# Static dielectric constant tensor:
#      x y z
#    x 3.161900 0.000000 0.000000 
#    y 0.000000 3.161900 0.000000 
#    z 0.000000 0.000000 3.275990 
# 
# 
# High freq. dielectric constant tensor:
#      x y z
#    x 1.632740 0.000000 0.000000 
#    y 0.000000 1.632740 0.000000 
#    z 0.000000 0.000000 1.655490 
# 
# From -- ./inp_files/1660.got.cif
#   From: 2010.03.12/outbox.cif.g09.slc.cpg/sg187_1_cif.got.tgz:1660.got - 2010.04.01 11:58:23.
