data_PCOD8326444
_publ_section_title
;
Structure prediction by ZEFSAII (Michael W. Deem and Ramdas Pophale) SiO2 
 PCOD8326444
Probable space group: P 63 2 2
;
_chemical_formula_sum "Si O2"
_cell_formula_units_Z 68
_cell_length_a 12.426199
_cell_length_b 12.426199
_cell_length_c 26.858636
_cell_angle_alpha 90.000000
_cell_angle_beta 90.000000
_cell_angle_gamma 120.000000
_cell_volume 3591.626721
_symmetry_space_group_name_H-M "P 63 2 2"
_symmetry_group_IT_number 182
_symmetry_cell_setting 'hexagonal'
loop_
_space_group_symop_operation_xyz
x,y,z
x-y,x,1/2+z
-y,x-y,z
-x,-y,1/2+z
-x+y,-x,z
y,-x+y,1/2+z
x-y,-y,-z
-x,-x+y,-z
y,x,-z
-y,-x,1/2-z
-x+y,y,1/2-z
x,x-y,1/2-z
loop_
_atom_site_type_symbol
_atom_site_label
_atom_site_fract_x
_atom_site_fract_y
_atom_site_fract_z
Si Si1 0.666667 0.333334 0.813254
Si Si2 0.998477 0.744197 0.146980
Si Si3 0.000000 0.000000 0.057547
Si Si4 0.204273 0.997529 0.880251
Si Si5 0.665497 0.544574 0.719805
Si Si6 0.586536 0.919351 0.049143
Si Si7 0.582007 0.917784 0.451393
O O1 0.666668 0.333334 0.750000
O O2 0.541604 0.334636 0.827269
O O3 0.005178 0.666999 0.194258
O O4 0.008939 0.688204 0.094493
O O5 0.864794 0.735727 0.151969
O O6 0.112294 0.885514 0.153281
O O7 0.981353 0.112381 0.074761
O O8 0.000000 0.000000 0.000000
O O9 0.331224 0.015256 0.903421
O O10 0.536005 0.463996 0.750000
O O11 0.793435 0.586869 0.750000
O O12 0.452432 0.901564 0.061116
O O13 0.568979 0.784456 0.039845
O O14 0.646005 0.000000 0.000000
O O15 0.641342 0.000000 0.500000
#
# Coordination Sequence:
#
# PCOD8326444 Si02
#       7
#     4  12   4  12  12  12  12
#     4   6  12  27  48  78 105 126 165 213 261 309
#     4  10  19  34  53  75 109 142 179 221 266 330
#     4   9  15  27  48  72 100 143 196 228 249 309
#     4   9  19  30  47  75 104 141 178 220 273 318
#     4   8  16  31  53  80 107 136 173 221 274 324
#     4  10  21  33  50  77 106 145 188 228 273 325
#     4  10  19  32  48  71 107 143 184 231 272 317
#
# _framework density 18.932924
#
# number of rings (size 3 to 8) (size 9 to 14) (size 15 to 20)
#    0.000    3.176    0.000    2.471    0.000   10.588 
#    0.000    0.882    0.000    1.059    0.000    0.000 
#    0.000    5.647    0.000    0.529    0.000    0.000 
#
# Total GULP energy -842626.310002 kJ/mol
# GULP energy per Si atom -12391.563382 kJ/mol
# Density = 1.888983 g / cm^3
# Si number density = 18.932924 Si / 1000 Ang^3
#
#
#
# Elastic Constant Matrix: (Units=GPa)
#
#
# Indices 1 2 3 4 5 6 
#
# 1 115.0612 55.3388 37.8695 0.0000 0.0000 0.0000
# 2 55.3388 115.0614 37.8695 0.0000 0.0000 0.0000
# 3 37.8695 37.8695 58.9071 0.0000 0.0000 0.0000
# 4 0.0000 0.0000 0.0000 25.3560 0.0000 0.0000
# 5 0.0000 0.0000 0.0000 0.0000 25.3560 0.0000
# 6 0.0000 0.0000 0.0000 0.0000 0.0000 29.8612
#
#
#
# Elastic Compliance Matrix: (Units=1/GPa)
#
#
# Indices 1 2 3 4 5 6 
#
# 1 0.012480 -0.004264 -0.005282 0.000000 0.000000 0.000000
# 2 -0.004264 0.012480 -0.005282 0.000000 0.000000 0.000000
# 3 -0.005282 -0.005282 0.023767 0.000000 0.000000 0.000000
# 4 0.000000 0.000000 0.000000 0.039438 0.000000 0.000000
# 5 0.000000 0.000000 0.000000 0.000000 0.039438 0.000000
# 6 0.000000 0.000000 0.000000 0.000000 0.000000 0.033488
#
#
# Mechanical properties :
#
#
# Convention : Reuss Voigt Hill
#
# Bulk Modulus (GPa) = 52.43360 61.24280 56.83820
# Shear Modulus (GPa) = 25.36711 26.64475 26.00593
#
# Velocity S-wave (km/s) = 3.66436 3.75550 3.71021
# Velocity P-wave (km/s) = 6.75706 7.15699 6.95990
#
# Compressibility (1/GPa) = 0.01907174
#
# Stress axis : x y z
#
# Youngs Moduli (GPa) = 80.12690 80.12710 42.07499
#
# Poissons Ratio (x) = 0.34166 0.22224
# Poissons Ratio (y) = 0.34166 0.22224
# Poissons Ratio (z) = 0.42323 0.42323
#
# Static dielectric constant tensor:
#      x y z
#    x 3.624340 0.000000 0.000000 
#    y 0.000000 3.624340 0.000000 
#    z 0.000000 0.000000 3.130290 
# 
# 
# High freq. dielectric constant tensor:
#      x y z
#    x 1.732060 0.000000 0.000000 
#    y 0.000000 1.732060 0.000000 
#    z 0.000000 0.000000 1.708390 
# 
# From -- ./inp_files/5768.got.cif
#   From: 2010.03.12/outbox.cif.g09.slc.cpg/sg182_3_cif.got.tgz:5768.got - 2010.04.01 11:49:36.
