data_PCOD8326647
_publ_section_title
;
Structure prediction by ZEFSAII (Michael W. Deem and Ramdas Pophale) SiO2 
 PCOD8326647
Probable space group: P 63 C M
;
_chemical_formula_sum "Si O2"
_cell_formula_units_Z 60
_cell_length_a 14.586660
_cell_length_b 14.586660
_cell_length_c 14.177851
_cell_angle_alpha 90.000000
_cell_angle_beta 90.000000
_cell_angle_gamma 120.000000
_cell_volume 2612.478709
_symmetry_space_group_name_H-M "P 63 C M"
_symmetry_group_IT_number 185
_symmetry_cell_setting 'hexagonal'
loop_
_space_group_symop_operation_xyz
x,y,z
x-y,x,1/2+z
-y,x-y,z
-x,-y,1/2+z
-x+y,-x,z
y,-x+y,1/2+z
-x+y,y,1/2+z
x,x-y,1/2+z
-y,-x,1/2+z
y,x,z
x-y,-y,z
-x,-x+y,z
loop_
_atom_site_type_symbol
_atom_site_label
_atom_site_fract_x
_atom_site_fract_y
_atom_site_fract_z
Si Si1 0.879729 0.760902 0.398890
Si Si2 0.555463 0.874939 0.951643
Si Si3 0.595063 0.473124 0.254276
Si Si4 0.532482 0.803145 0.147796
Si Si5 0.883764 0.766471 0.676935
O O1 0.841755 0.841755 0.435453
O O2 0.803482 0.643180 0.436582
O O3 0.868851 0.751406 0.287615
O O4 0.000000 0.803462 0.432802
O O5 0.477193 0.841265 0.861069
O O6 0.609042 0.000000 0.967802
O O7 0.488327 0.813688 0.045218
O O8 0.564235 0.564235 0.241246
O O9 0.682840 0.489130 0.177626
O O10 0.496144 0.358046 0.230144
O O11 0.658022 0.862161 0.131563
O O12 0.857589 0.857589 0.650058
O O13 0.000000 0.801440 0.636062
#
# Coordination Sequence:
#
# PCOD8326647 Si02
#       5
#    12  12  12  12  12
#     4   9  17  32  57  93 136 180 218 262 321 394
#     4  10  22  42  65  95 135 173 222 281 332 397
#     4  11  25  46  68  96 135 174 219 282 343 394
#     4  12  24  43  70  96 126 178 228 279 336 401
#     4  10  19  35  62  98 138 177 216 262 324 400
#
# _framework density 22.966692999999999
#
# number of rings (size 3 to 8) (size 9 to 14) (size 15 to 20)
#    0.000    1.600    2.000    3.200    0.000    4.800 
#    0.000    0.000    0.000    2.400    0.000    0.000 
#    0.000    0.000    0.000    0.000    0.000    0.000 
#
# Total GULP energy -743881.370823 kJ/mol
# GULP energy per Si atom -12398.022847 kJ/mol
# Density = 2.291442 g / cm^3
# Si number density = 22.966693 Si / 1000 Ang^3
#
#
#
# Elastic Constant Matrix: (Units=GPa)
#
#
# Indices 1 2 3 4 5 6 
#
# 1 94.5935 29.3705 57.8033 0.0000 0.0000 0.0000
# 2 29.3705 94.5935 57.8033 0.0000 0.0000 0.0000
# 3 57.8033 57.8033 151.5622 0.0000 0.0000 0.0000
# 4 0.0000 0.0000 0.0000 3.5228 0.0000 0.0000
# 5 0.0000 0.0000 0.0000 0.0000 3.5228 0.0000
# 6 0.0000 0.0000 0.0000 0.0000 0.0000 32.6115
#
#
#
# Elastic Compliance Matrix: (Units=1/GPa)
#
#
# Indices 1 2 3 4 5 6 
#
# 1 0.013926 -0.001406 -0.004775 0.000000 0.000000 0.000000
# 2 -0.001406 0.013926 -0.004775 0.000000 0.000000 0.000000
# 3 -0.004775 -0.004775 0.010240 0.000000 0.000000 0.000000
# 4 0.000000 0.000000 0.000000 0.283867 0.000000 0.000000
# 5 0.000000 0.000000 0.000000 0.000000 0.283867 0.000000
# 6 0.000000 0.000000 0.000000 0.000000 0.000000 0.030664
#
#
# Mechanical properties :
#
#
# Convention : Reuss Voigt Hill
#
# Bulk Modulus (GPa) = 61.80372 70.07816 65.94094
# Shear Modulus (GPa) = 7.53245 20.98287 14.25766
#
# Velocity S-wave (km/s) = 1.81297 3.02590 2.49428
# Velocity P-wave (km/s) = 5.59920 6.54120 6.08844
#
# Compressibility (1/GPa) = 0.01618026
#
# Stress axis : x y z
#
# Youngs Moduli (GPa) = 71.80861 71.80861 97.65587
#
# Poissons Ratio (x) = 0.10097 0.46629
# Poissons Ratio (y) = 0.10097 0.46629
# Poissons Ratio (z) = 0.34287 0.34287
#
# Static dielectric constant tensor:
#      x y z
#    x 4.107020 0.000000 0.000000 
#    y 0.000000 4.107020 0.000000 
#    z 0.000000 0.000000 4.286980 
# 
# 
# High freq. dielectric constant tensor:
#      x y z
#    x 1.896480 0.000000 0.000000 
#    y 0.000000 1.896480 0.000000 
#    z 0.000000 0.000000 1.916520 
# 
# From -- ./inp_files/1343.got.cif
#   From: 2010.03.12/outbox.cif.g09.slc.cpg/sg185_cif.got.tgz:1343.got - 2010.04.01 11:55:19.
