data_PCOD8326954
_publ_section_title
;
Structure prediction by ZEFSAII (Michael W. Deem and Ramdas Pophale) SiO2 
 PCOD8326954
Probable space group: P -6 M 2
;
_chemical_formula_sum "Si O2"
_cell_formula_units_Z 60
_cell_length_a 21.298150
_cell_length_b 21.298150
_cell_length_c 9.096654
_cell_angle_alpha 90.000000
_cell_angle_beta 90.000000
_cell_angle_gamma 120.000000
_cell_volume 3573.518796
_symmetry_space_group_name_H-M "P -6 M 2"
_symmetry_group_IT_number 187
_symmetry_cell_setting 'hexagonal'
loop_
_space_group_symop_operation_xyz
x,y,z
-x+y,-x,-z
-y,x-y,z
x,y,-z
-x+y,-x,z
-y,x-y,-z
-y,-x,-z
-x+y,y,-z
x,x-y,-z
-x+y,y,z
x,x-y,z
-y,-x,z
loop_
_atom_site_type_symbol
_atom_site_label
_atom_site_fract_x
_atom_site_fract_y
_atom_site_fract_z
Si Si1 0.110113 0.366560 0.170669
Si Si2 0.837712 0.675423 0.834624
Si Si3 0.631297 0.122334 0.670282
Si Si4 0.333697 0.805187 0.825231
Si Si5 0.962173 0.674020 0.673575
Si Si6 0.751809 0.248191 0.836107
O O1 0.174607 0.349213 0.197127
O O2 0.134774 0.448172 0.223790
O O3 0.042562 0.314413 0.270206
O O4 0.087314 0.355783 0.000000
O O5 0.912301 0.702115 0.747707
O O6 0.794802 0.589604 0.838989
O O7 0.853786 0.707572 0.000000
O O8 0.650036 0.140126 0.500000
O O9 0.545602 0.091203 0.701557
O O10 0.654352 0.063671 0.720693
O O11 0.675983 0.198659 0.754293
O O12 0.412350 0.824699 0.761806
O O13 0.273446 0.726555 0.764459
O O14 0.333113 0.801826 0.000000
O O15 0.959051 0.681314 0.500000
O O16 0.735496 0.264504 0.000000
#
# Coordination Sequence:
#
# PCOD8326954 Si02
#       6
#    12   6  12  12  12   6
#     4   9  18  31  45  65  96 129 158 192 238 289
#     4   9  17  31  51  71  91 115 143 179 227 277
#     4   9  18  32  47  63  87 122 160 194 235 288
#     4   8  13  22  38  60  86 119 162 210 253 289
#     4  10  19  31  49  71  94 120 154 195 232 273
#     4   9  17  29  45  65  87 111 145 193 239 273
#
# _framework density 16.790172999999999
#
# number of rings (size 3 to 8) (size 9 to 14) (size 15 to 20)
#    0.000    3.000    0.000    2.600    0.000    5.600 
#    0.600    0.000    0.000    0.000    0.000    0.000 
#    1.000    1.600    1.800    0.000    1.800    0.000 
#
# Total GULP energy -743728.145474 kJ/mol
# GULP energy per Si atom -12395.469091 kJ/mol
# Density = 1.675196 g / cm^3
# Si number density = 16.790173 Si / 1000 Ang^3
#
#
#
# Elastic Constant Matrix: (Units=GPa)
#
#
# Indices 1 2 3 4 5 6 
#
# 1 87.6259 52.7306 39.6790 0.0000 -0.0001 0.0000
# 2 52.7306 87.6259 39.6790 0.0000 0.0001 0.0000
# 3 39.6790 39.6790 69.8428 0.0000 0.0000 0.0000
# 4 0.0000 0.0000 0.0000 20.3031 0.0000 0.0001
# 5 -0.0001 0.0001 0.0000 0.0000 20.3031 0.0000
# 6 0.0000 0.0000 0.0000 0.0001 0.0000 17.4477
#
#
#
# Elastic Compliance Matrix: (Units=1/GPa)
#
#
# Indices 1 2 3 4 5 6 
#
# 1 0.019577 -0.009080 -0.005963 0.000000 0.000000 0.000000
# 2 -0.009080 0.019577 -0.005963 0.000000 0.000000 0.000000
# 3 -0.005963 -0.005963 0.021093 0.000000 0.000000 0.000000
# 4 0.000000 0.000000 0.000000 0.049254 0.000000 0.000000
# 5 0.000000 0.000000 0.000000 0.000000 0.049254 0.000000
# 6 0.000000 0.000000 0.000000 0.000000 0.000000 0.057314
#
#
# Mechanical properties :
#
#
# Convention : Reuss Voigt Hill
#
# Bulk Modulus (GPa) = 54.84433 56.58578 55.71505
# Shear Modulus (GPa) = 18.92796 19.14450 19.03623
#
# Velocity S-wave (km/s) = 3.36121 3.38038 3.37081
# Velocity P-wave (km/s) = 6.91369 7.00077 6.95737
#
# Compressibility (1/GPa) = 0.01823343
#
# Stress axis : x y z
#
# Youngs Moduli (GPa) = 51.08115 51.08115 47.40815
#
# Poissons Ratio (x) = 0.46384 0.28270
# Poissons Ratio (y) = 0.46384 0.28270
# Poissons Ratio (z) = 0.30460 0.30460
#
# Static dielectric constant tensor:
#      x y z
#    x 3.067330 0.000000 0.000000 
#    y 0.000000 3.067330 0.000000 
#    z 0.000000 0.000000 3.032260 
# 
# 
# High freq. dielectric constant tensor:
#      x y z
#    x 1.628580 0.000000 0.000000 
#    y 0.000000 1.628580 0.000000 
#    z 0.000000 0.000000 1.633270 
# 
# From -- ./inp_files/662.got.cif
#   From: 2010.03.12/outbox.cif.g09.slc.cpg/sg187_1_cif.got.tgz:662.got - 2010.04.01 11:58:23.
