data_PCOD8326770
_publ_section_title
;
Structure prediction by ZEFSAII (Michael W. Deem and Ramdas Pophale) SiO2 
 PCOD8326770
Probable space group: P 63 M C
;
_chemical_formula_sum "Si O2"
_cell_formula_units_Z 96
_cell_length_a 23.839727
_cell_length_b 23.839727
_cell_length_c 10.494771
_cell_angle_alpha 90.000000
_cell_angle_beta 90.000000
_cell_angle_gamma 120.000000
_cell_volume 5165.426114
_symmetry_space_group_name_H-M "P 63 M C"
_symmetry_group_IT_number 186
_symmetry_cell_setting 'hexagonal'
loop_
_space_group_symop_operation_xyz
x,y,z
x-y,x,1/2+z
-y,x-y,z
-x,-y,1/2+z
-x+y,-x,z
y,-x+y,1/2+z
-x+y,y,z
x,x-y,z
-y,-x,z
y,x,1/2+z
x-y,-y,1/2+z
-x,-x+y,1/2+z
loop_
_atom_site_type_symbol
_atom_site_label
_atom_site_fract_x
_atom_site_fract_y
_atom_site_fract_z
Si Si1 0.305564 0.386681 0.479170
Si Si2 0.935681 0.194071 0.298149
Si Si3 0.498562 0.620907 0.867559
Si Si4 0.567281 0.559802 0.567821
Si Si5 0.794022 0.333379 0.594299
Si Si6 0.023848 0.271534 0.067082
Si Si7 0.596935 0.859024 0.726894
Si Si8 0.404375 0.096429 0.694144
O O1 0.381331 0.437962 0.506262
O O2 0.290515 0.314862 0.502819
O O3 0.259983 0.399039 0.574151
O O4 0.284991 0.392267 0.338717
O O5 0.880471 0.119530 0.267068
O O6 0.958023 0.197373 0.447135
O O7 0.906232 0.241422 0.292924
O O8 0.992171 0.220518 0.187459
O O9 0.440737 0.559264 0.796105
O O10 0.548607 0.664222 0.761787
O O11 0.532838 0.597532 0.966585
O O12 0.469701 0.659621 0.943835
O O13 0.496709 0.503292 0.614495
O O14 0.619378 0.585913 0.684004
O O15 0.806684 0.403342 0.647674
O O16 0.719241 0.280760 0.616236
O O17 0.838577 0.308196 0.657683
O O18 0.084725 0.340149 0.115978
O O19 0.571466 0.785733 0.771936
#
# Coordination Sequence:
#
# PCOD8326770 Si02
#       8
#    12  12  12  12  12  12  12  12
#     4  10  20  31  48  71  98 138 171 216 276 330
#     4  10  20  35  57  83 115 160 196 229 281 331
#     4   9  18  32  49  71  93 120 165 221 288 353
#     4   9  19  30  45  69  95 119 156 211 271 346
#     4  10  20  34  52  72  97 132 184 250 310 363
#     4  10  19  35  55  82 116 150 192 239 274 339
#     4  10  20  33  49  70 100 134 179 225 267 330
#     4  10  19  32  51  72 101 137 180 227 290 348
#
# _framework density 18.585108000000002
#
# number of rings (size 3 to 8) (size 9 to 14) (size 15 to 20)
#    0.000    2.250    1.250    3.875    3.500    3.500 
#    0.000    0.625    0.000    0.250    0.000    0.000 
#    0.000    0.000    0.000    3.750    0.000    0.000 
#
# Total GULP energy -1189295.063767 kJ/mol
# GULP energy per Si atom -12388.490248 kJ/mol
# Density = 1.854281 g / cm^3
# Si number density = 18.585108 Si / 1000 Ang^3
#
#
#
# Elastic Constant Matrix: (Units=GPa)
#
#
# Indices 1 2 3 4 5 6 
#
# 1 54.6204 22.6909 22.8393 0.0000 0.0000 0.0000
# 2 22.6909 54.6204 22.8393 0.0000 0.0000 0.0000
# 3 22.8393 22.8393 109.4370 0.0000 0.0000 0.0000
# 4 0.0000 0.0000 0.0000 17.8321 0.0000 0.0000
# 5 0.0000 0.0000 0.0000 0.0000 17.8321 0.0000
# 6 0.0000 0.0000 0.0000 0.0000 0.0000 15.9647
#
#
#
# Elastic Compliance Matrix: (Units=1/GPa)
#
#
# Indices 1 2 3 4 5 6 
#
# 1 0.023036 -0.008283 -0.003079 0.000000 0.000000 0.000000
# 2 -0.008283 0.023036 -0.003079 0.000000 0.000000 0.000000
# 3 -0.003079 -0.003079 0.010423 0.000000 0.000000 0.000000
# 4 0.000000 0.000000 0.000000 0.056079 0.000000 0.000000
# 5 0.000000 0.000000 0.000000 0.000000 0.056079 0.000000
# 6 0.000000 0.000000 0.000000 0.000000 0.000000 0.062638
#
#
# Mechanical properties :
#
#
# Convention : Reuss Voigt Hill
#
# Bulk Modulus (GPa) = 36.21306 39.49075 37.85190
# Shear Modulus (GPa) = 18.56133 20.34637 19.45385
#
# Velocity S-wave (km/s) = 3.16368 3.31232 3.23885
# Velocity P-wave (km/s) = 5.73345 5.99361 5.86497
#
# Compressibility (1/GPa) = 0.02761435
#
# Stress axis : x y z
#
# Youngs Moduli (GPa) = 43.40939 43.40939 95.94272
#
# Poissons Ratio (x) = 0.35954 0.29542
# Poissons Ratio (y) = 0.35954 0.29542
# Poissons Ratio (z) = 0.13366 0.13366
#
# Static dielectric constant tensor:
#      x y z
#    x 3.297930 0.000000 0.000000 
#    y 0.000000 3.297930 0.000000 
#    z 0.000000 0.000000 3.451170 
# 
# 
# High freq. dielectric constant tensor:
#      x y z
#    x 1.695870 0.000000 0.000000 
#    y 0.000000 1.695870 0.000000 
#    z 0.000000 0.000000 1.717810 
# 
# From -- ./inp_files/2056.got.cif
#   From: 2010.03.12/outbox.cif.g09.slc.cpg/sg186_2_cif.got.tgz:2056.got - 2010.04.01 11:56:34.
