data_PCOD8326707
_publ_section_title
;
Structure prediction by ZEFSAII (Michael W. Deem and Ramdas Pophale) SiO2 
 PCOD8326707
Probable space group: P 63 M C
;
_chemical_formula_sum "Si O2"
_cell_formula_units_Z 84
_cell_length_a 23.147054
_cell_length_b 23.147054
_cell_length_c 10.767780
_cell_angle_alpha 90.000000
_cell_angle_beta 90.000000
_cell_angle_gamma 120.000000
_cell_volume 4996.297097
_symmetry_space_group_name_H-M "P 63 M C"
_symmetry_group_IT_number 186
_symmetry_cell_setting 'hexagonal'
loop_
_space_group_symop_operation_xyz
x,y,z
x-y,x,1/2+z
-y,x-y,z
-x,-y,1/2+z
-x+y,-x,z
y,-x+y,1/2+z
-x+y,y,z
x,x-y,z
-y,-x,z
y,x,1/2+z
x-y,-y,1/2+z
-x,-x+y,1/2+z
loop_
_atom_site_type_symbol
_atom_site_label
_atom_site_fract_x
_atom_site_fract_y
_atom_site_fract_z
Si Si1 0.736427 0.744870 0.533640
Si Si2 0.608553 0.086397 0.028746
Si Si3 0.379019 0.309899 0.378593
Si Si4 0.928882 0.528673 0.558406
Si Si5 0.868558 0.607574 0.142453
Si Si6 0.074275 0.674643 0.288726
Si Si7 0.934012 0.734361 0.779277
O O1 0.719721 0.670456 0.496620
O O2 0.668076 0.744205 0.561310
O O3 0.766623 0.790582 0.408325
O O4 0.783412 0.765689 0.656510
O O5 0.557614 0.115227 0.021838
O O6 0.666145 0.125213 0.131108
O O7 0.567041 0.008734 0.059871
O O8 0.651542 0.101290 0.903794
O O9 0.453245 0.356965 0.432302
O O10 0.374973 0.252114 0.289873
O O11 0.359388 0.353590 0.289738
O O12 0.899016 0.449508 0.563831
O O13 0.900796 0.551446 0.672090
O O14 0.796691 0.593383 0.098229
O O15 0.100268 0.753858 0.284072
O O16 0.877059 0.754118 0.768468
#
# Coordination Sequence:
#
# PCOD8326707 Si02
#       7
#    12  12  12  12  12  12  12
#     4  11  19  37  50  74 112 138 183 221 263 324
#     4  10  19  29  45  68  94 126 170 222 261 306
#     4  10  17  31  44  66 102 131 165 219 256 312
#     4  10  17  27  46  65  92 133 164 206 268 312
#     4  12  21  32  51  73 100 143 182 217 272 330
#     4  10  16  30  44  67 101 126 169 207 254 310
#     4  11  21  34  56  77 106 153 184 214 268 328
#
# _framework density 16.812450999999999
#
# number of rings (size 3 to 8) (size 9 to 14) (size 15 to 20)
#    0.000    1.429   10.000    0.857    0.000    1.714 
#    0.000    0.000    0.000    0.286    0.000    0.000 
#    0.000    0.000    0.000   16.857    0.000    0.286 
#
# Total GULP energy -1040681.795587 kJ/mol
# GULP energy per Si atom -12389.068995 kJ/mol
# Density = 1.677418 g / cm^3
# Si number density = 16.812451 Si / 1000 Ang^3
#
#
#
# Elastic Constant Matrix: (Units=GPa)
#
#
# Indices 1 2 3 4 5 6 
#
# 1 48.2322 23.5380 28.9206 0.0000 0.0000 0.0000
# 2 23.5380 48.2322 28.9206 0.0000 0.0000 0.0000
# 3 28.9206 28.9206 98.3024 0.0000 0.0000 0.0000
# 4 0.0000 0.0000 0.0000 15.8236 0.0000 0.0000
# 5 0.0000 0.0000 0.0000 0.0000 15.8236 0.0000
# 6 0.0000 0.0000 0.0000 0.0000 0.0000 12.3471
#
#
#
# Elastic Compliance Matrix: (Units=1/GPa)
#
#
# Indices 1 2 3 4 5 6 
#
# 1 0.029380 -0.011116 -0.005373 0.000000 0.000000 0.000000
# 2 -0.011116 0.029380 -0.005373 0.000000 0.000000 0.000000
# 3 -0.005373 -0.005373 0.013334 0.000000 0.000000 0.000000
# 4 0.000000 0.000000 0.000000 0.063197 0.000000 0.000000
# 5 0.000000 0.000000 0.000000 0.000000 0.063197 0.000000
# 6 0.000000 0.000000 0.000000 0.000000 0.000000 0.080991
#
#
# Mechanical properties :
#
#
# Convention : Reuss Voigt Hill
#
# Bulk Modulus (GPa) = 35.24982 39.72506 37.48744
# Shear Modulus (GPa) = 15.03045 16.35804 15.69425
#
# Velocity S-wave (km/s) = 2.99324 3.12263 3.05862
# Velocity P-wave (km/s) = 5.74090 6.05647 5.90079
#
# Compressibility (1/GPa) = 0.02836894
#
# Stress axis : x y z
#
# Youngs Moduli (GPa) = 34.03728 34.03728 74.99459
#
# Poissons Ratio (x) = 0.37835 0.40296
# Poissons Ratio (y) = 0.37835 0.40296
# Poissons Ratio (z) = 0.18289 0.18289
#
# Static dielectric constant tensor:
#      x y z
#    x 2.827460 0.000000 0.000000 
#    y 0.000000 2.827460 0.000000 
#    z 0.000000 0.000000 3.444370 
# 
# 
# High freq. dielectric constant tensor:
#      x y z
#    x 1.596830 0.000000 0.000000 
#    y 0.000000 1.596830 0.000000 
#    z 0.000000 0.000000 1.676670 
# 
# From -- ./inp_files/2001.got.cif
#   From: 2010.03.12/outbox.cif.g09.slc.cpg/sg186_2_cif.got.tgz:2001.got - 2010.04.01 11:56:34.
