data_PCOD8326162
_publ_section_title
;
Structure prediction by ZEFSAII (Michael W. Deem and Ramdas Pophale) SiO2 
 PCOD8326162
Probable space group: P 62 2 2
;
_chemical_formula_sum "Si O2"
_cell_formula_units_Z 66
_cell_length_a 12.005976
_cell_length_b 12.005976
_cell_length_c 24.923664
_cell_angle_alpha 90.000000
_cell_angle_beta 90.000000
_cell_angle_gamma 120.000000
_cell_volume 3111.268280
_symmetry_space_group_name_H-M "P 62 2 2"
_symmetry_group_IT_number 180
_symmetry_cell_setting 'hexagonal'
loop_
_space_group_symop_operation_xyz
x,y,z
x-y,x,1/3+z
-y,x-y,2/3+z
-x,-y,z
-x+y,-x,1/3+z
y,-x+y,2/3+z
x-y,-y,-z
-x,-x+y,1/3-z
y,x,2/3-z
-y,-x,2/3-z
-x+y,y,-z
x,x-y,1/3-z
loop_
_atom_site_type_symbol
_atom_site_label
_atom_site_fract_x
_atom_site_fract_y
_atom_site_fract_z
Si Si1 0.000000 0.500000 0.374154
Si Si2 0.333683 0.062057 0.631658
Si Si3 0.333210 0.207067 0.358073
Si Si4 0.497325 0.125564 0.882329
Si Si5 0.433303 0.701340 0.048071
Si Si6 0.304105 0.441410 0.852107
O O1 0.007938 0.607623 0.335806
O O2 0.135788 0.555421 0.406136
O O3 0.290123 0.145062 0.666667
O O4 0.428637 0.143101 0.583028
O O5 0.207257 0.930808 0.612341
O O6 0.212723 0.212723 0.333334
O O7 0.404381 0.323031 0.399944
O O8 0.430386 0.234030 0.309219
O O9 0.637439 0.240129 0.901131
O O10 0.437239 0.177339 0.837743
O O11 0.500000 0.000000 0.860121
O O12 0.326248 0.652496 0.000000
O O13 0.322128 0.322128 0.833334
O O14 0.427560 0.572441 0.833334
#
# Coordination Sequence:
#
# PCOD8326162 Si02
#       6
#     6  12  12  12  12  12
#     4  10  20  36  59  90 136 160 217 280 332 386
#     4  11  24  40  63  99 132 173 228 282 345 415
#     4  10  19  37  64 100 126 165 225 284 334 409
#     4  11  21  39  67  98 133 175 226 280 344 411
#     4   9  19  30  58  95 126 165 207 271 334 392
#     4  11  24  42  67  97 141 187 226 280 361 426
#
# _framework density 21.213215000000002
#
# number of rings (size 3 to 8) (size 9 to 14) (size 15 to 20)
#    0.000    1.636    3.636    1.636    7.636    0.364 
#    1.636    0.000    0.000    0.000    0.000    0.000 
#    0.000    0.000    0.000    0.000    0.000    0.000 
#
# Total GULP energy -817979.108774 kJ/mol
# GULP energy per Si atom -12393.622860 kJ/mol
# Density = 2.116493 g / cm^3
# Si number density = 21.213215 Si / 1000 Ang^3
#
#
#
# Elastic Constant Matrix: (Units=GPa)
#
#
# Indices 1 2 3 4 5 6 
#
# 1 123.5381 55.2845 29.0864 0.0000 0.0000 0.0000
# 2 55.2845 123.5381 29.0864 0.0000 0.0000 0.0000
# 3 29.0864 29.0864 56.1065 0.0000 0.0000 0.0000
# 4 0.0000 0.0000 0.0000 23.2788 0.0000 0.0000
# 5 0.0000 0.0000 0.0000 0.0000 23.2788 0.0000
# 6 0.0000 0.0000 0.0000 0.0000 0.0000 34.1268
#
#
#
# Elastic Compliance Matrix: (Units=1/GPa)
#
#
# Indices 1 2 3 4 5 6 
#
# 1 0.010689 -0.003962 -0.003487 0.000000 0.000000 0.000000
# 2 -0.003962 0.010689 -0.003487 0.000000 0.000000 0.000000
# 3 -0.003487 -0.003487 0.021439 0.000000 0.000000 0.000000
# 4 0.000000 0.000000 0.000000 0.042958 0.000000 0.000000
# 5 0.000000 0.000000 0.000000 0.000000 0.042958 0.000000
# 6 0.000000 0.000000 0.000000 0.000000 0.000000 0.029302
#
#
# Mechanical properties :
#
#
# Convention : Reuss Voigt Hill
#
# Bulk Modulus (GPa) = 47.74786 58.89970 53.32378
# Shear Modulus (GPa) = 26.75392 28.78524 27.76958
#
# Velocity S-wave (km/s) = 3.55518 3.68767 3.62203
# Velocity P-wave (km/s) = 6.27772 6.77922 6.53328
#
# Compressibility (1/GPa) = 0.02094335
#
# Stress axis : x y z
#
# Youngs Moduli (GPa) = 93.55511 93.55511 46.64435
#
# Poissons Ratio (x) = 0.37070 0.16266
# Poissons Ratio (y) = 0.37070 0.16266
# Poissons Ratio (z) = 0.32624 0.32624
#
# Static dielectric constant tensor:
#      x y z
#    x 3.982890 0.000000 0.000000 
#    y 0.000000 3.982890 0.000000 
#    z 0.000000 0.000000 3.510230 
# 
# 
# High freq. dielectric constant tensor:
#      x y z
#    x 1.831060 0.000000 0.000000 
#    y 0.000000 1.831060 0.000000 
#    z 0.000000 0.000000 1.806210 
# 
# From -- ./inp_files/12269.got.cif
#   From: 2010.03.12/outbox.cif.g09.slc.cpg/sg180_7_cif.got.tgz:12269.got - 2010.04.01 11:35:50.
