data_PCOD8326341
_publ_section_title
;
Structure prediction by ZEFSAII (Michael W. Deem and Ramdas Pophale) SiO2 
 PCOD8326341
Probable space group: P 64 2 2
;
_chemical_formula_sum "Si O2"
_cell_formula_units_Z 51
_cell_length_a 10.198139
_cell_length_b 10.198139
_cell_length_c 29.571663
_cell_angle_alpha 90.000000
_cell_angle_beta 90.000000
_cell_angle_gamma 120.000000
_cell_volume 2663.472605
_symmetry_space_group_name_H-M "P 64 2 2"
_symmetry_group_IT_number 181
_symmetry_cell_setting 'hexagonal'
loop_
_space_group_symop_operation_xyz
x,y,z
x-y,x,2/3+z
-y,x-y,1/3+z
-x,-y,z
-x+y,-x,2/3+z
y,-x+y,1/3+z
x-y,-y,-z
-x,-x+y,2/3-z
y,x,1/3-z
-y,-x,1/3-z
-x+y,y,-z
x,x-y,2/3-z
loop_
_atom_site_type_symbol
_atom_site_label
_atom_site_fract_x
_atom_site_fract_y
_atom_site_fract_z
Si Si1 0.326368 0.663184 0.333334
Si Si2 0.500000 0.000000 0.364240
Si Si3 0.758648 0.379324 0.833334
Si Si4 0.933884 0.738208 0.737844
Si Si5 0.000000 0.000000 0.000000
Si Si6 0.278382 0.000000 0.500000
Si Si7 0.161673 0.537219 0.245945
O O1 0.426622 0.845793 0.335426
O O2 0.218060 0.637332 0.290952
O O3 0.375048 0.008734 0.395159
O O4 0.855376 0.557717 0.842031
O O5 0.656483 0.292354 0.876442
O O6 0.987519 0.807041 0.788508
O O7 0.756531 0.628338 0.740329
O O8 0.969999 0.861453 0.699103
O O9 0.000000 0.500000 0.227044
#
# Coordination Sequence:
#
# PCOD8326341 Si02
#       7
#     6   6   6  12   3   6  12
#     4  10  20  34  60  84 118 154 210 246 299 361
#     4  10  20  37  58  92 110 162 210 251 292 366
#     4   9  18  36  60  86 110 145 210 254 272 357
#     4  10  22  37  62  84 120 154 199 247 301 360
#     4  12  26  38  54  98 132 144 188 266 314 362
#     4   9  16  37  64  82 104 156 202 238 294 356
#     4  10  21  37  58  84 117 164 195 240 308 367
#
# _framework density 19.147936000000001
#
# number of rings (size 3 to 8) (size 9 to 14) (size 15 to 20)
#    0.000    2.118    0.000    5.294    6.588    0.471 
#    2.118    4.706    0.000    0.000    0.000    0.000 
#    0.000    0.000    0.000    0.000    0.000    0.000 
#
# Total GULP energy -631857.046364 kJ/mol
# GULP energy per Si atom -12389.353850 kJ/mol
# Density = 1.910435 g / cm^3
# Si number density = 19.147936 Si / 1000 Ang^3
#
#
#
# Elastic Constant Matrix: (Units=GPa)
#
#
# Indices 1 2 3 4 5 6 
#
# 1 78.0733 35.8184 57.7888 0.0000 0.0000 0.0000
# 2 35.8184 78.0733 57.7888 0.0000 0.0000 0.0000
# 3 57.7888 57.7888 174.4370 0.0000 0.0000 0.0000
# 4 0.0000 0.0000 0.0000 21.0021 0.0000 0.0000
# 5 0.0000 0.0000 0.0000 0.0000 21.0021 0.0000
# 6 0.0000 0.0000 0.0000 0.0000 0.0000 21.1275
#
#
#
# Elastic Compliance Matrix: (Units=1/GPa)
#
#
# Indices 1 2 3 4 5 6 
#
# 1 0.018447 -0.005219 -0.004382 0.000000 0.000000 0.000000
# 2 -0.005219 0.018447 -0.004382 0.000000 0.000000 0.000000
# 3 -0.004382 -0.004382 0.008636 0.000000 0.000000 0.000000
# 4 0.000000 0.000000 0.000000 0.047614 0.000000 0.000000
# 5 0.000000 0.000000 0.000000 0.000000 0.047614 0.000000
# 6 0.000000 0.000000 0.000000 0.000000 0.000000 0.047332
#
#
# Mechanical properties :
#
#
# Convention : Reuss Voigt Hill
#
# Bulk Modulus (GPa) = 56.93971 70.37508 63.65740
# Shear Modulus (GPa) = 22.53161 24.57216 23.55189
#
# Velocity S-wave (km/s) = 3.43405 3.58618 3.51093
# Velocity P-wave (km/s) = 6.74721 7.34715 7.05356
#
# Compressibility (1/GPa) = 0.01756243
#
# Stress axis : x y z
#
# Youngs Moduli (GPa) = 54.21081 54.21081 115.79275
#
# Poissons Ratio (x) = 0.28295 0.50740
# Poissons Ratio (y) = 0.28295 0.50740
# Poissons Ratio (z) = 0.23755 0.23755
#
# Static dielectric constant tensor:
#      x y z
#    x 3.532210 0.000000 0.000000 
#    y 0.000000 3.532210 0.000000 
#    z 0.000000 0.000000 3.849450 
# 
# 
# High freq. dielectric constant tensor:
#      x y z
#    x 1.732910 0.000000 0.000000 
#    y 0.000000 1.732910 0.000000 
#    z 0.000000 0.000000 1.758200 
# 
# From -- ./inp_files/12134.got.cif
#   From: 2010.03.12/outbox.cif.g09.slc.cpg/sg181_7_cif.got.tgz:12134.got - 2010.04.01 11:42:41.
