data_PCOD8326121
_publ_section_title
;
Structure prediction by ZEFSAII (Michael W. Deem and Ramdas Pophale) SiO2 
 PCOD8326121
Probable space group: P 62 2 2
;
_chemical_formula_sum "Si O2"
_cell_formula_units_Z 60
_cell_length_a 12.530458
_cell_length_b 12.530458
_cell_length_c 26.613347
_cell_angle_alpha 90.000000
_cell_angle_beta 90.000000
_cell_angle_gamma 120.000000
_cell_volume 3618.795308
_symmetry_space_group_name_H-M "P 62 2 2"
_symmetry_group_IT_number 180
_symmetry_cell_setting 'hexagonal'
loop_
_space_group_symop_operation_xyz
x,y,z
x-y,x,1/3+z
-y,x-y,2/3+z
-x,-y,z
-x+y,-x,1/3+z
y,-x+y,2/3+z
x-y,-y,-z
-x,-x+y,1/3-z
y,x,2/3-z
-y,-x,2/3-z
-x+y,y,-z
x,x-y,1/3-z
loop_
_atom_site_type_symbol
_atom_site_label
_atom_site_fract_x
_atom_site_fract_y
_atom_site_fract_z
Si Si1 0.268622 0.748860 0.529617
Si Si2 0.699748 0.312367 0.945690
Si Si3 0.243721 0.821323 0.237270
Si Si4 0.617229 0.635668 0.925460
Si Si5 0.596650 0.643753 0.038408
O O1 0.396893 0.793786 0.500000
O O2 0.238394 0.637040 0.568168
O O3 0.163703 0.704469 0.486551
O O4 0.274771 0.862764 0.559469
O O5 0.748923 0.457807 0.939514
O O6 0.811761 0.283528 0.941804
O O7 0.635631 0.271261 0.000000
O O8 0.095967 0.740239 0.236467
O O9 0.288770 0.957824 0.259075
O O10 0.500000 0.500000 0.923790
O O11 0.644949 0.686488 0.982210
O O12 0.500000 0.500000 0.040247
#
# Coordination Sequence:
#
# PCOD8326121 Si02
#       5
#    12  12  12  12  12
#     4  10  18  23  36  54  77 105 149 190 220 261
#     4  10  15  26  37  50  71 105 149 186 218 264
#     4  10  18  23  32  54  79 105 141 182 229 275
#     4  11  15  23  36  50  74 110 140 180 221 270
#     4   9  17  25  35  49  75 108 140 180 224 271
#
# _framework density 16.580102
#
# number of rings (size 3 to 8) (size 9 to 14) (size 15 to 20)
#    0.000    2.000    6.000    3.600    0.000    0.000 
#    0.000    0.000    0.000    0.000    0.000    0.000 
#    0.000   42.400    0.000    0.000    0.000  270.000 
#
# Total GULP energy -743702.173702 kJ/mol
# GULP energy per Si atom -12395.036228 kJ/mol
# Density = 1.654236 g / cm^3
# Si number density = 16.580102 Si / 1000 Ang^3
#
#
#
# Elastic Constant Matrix: (Units=GPa)
#
#
# Indices 1 2 3 4 5 6 
#
# 1 52.2944 23.6808 39.7512 0.0000 0.0000 0.0000
# 2 23.6808 52.2944 39.7512 0.0000 0.0000 0.0000
# 3 39.7512 39.7512 146.2003 0.0000 0.0000 0.0000
# 4 0.0000 0.0000 0.0000 14.1055 0.0000 0.0000
# 5 0.0000 0.0000 0.0000 0.0000 14.1055 0.0000
# 6 0.0000 0.0000 0.0000 0.0000 0.0000 14.3068
#
#
#
# Elastic Compliance Matrix: (Units=1/GPa)
#
#
# Indices 1 2 3 4 5 6 
#
# 1 0.026672 -0.008276 -0.005002 0.000000 0.000000 0.000000
# 2 -0.008276 0.026672 -0.005002 0.000000 0.000000 0.000000
# 3 -0.005002 -0.005002 0.009560 0.000000 0.000000 0.000000
# 4 0.000000 0.000000 0.000000 0.070894 0.000000 0.000000
# 5 0.000000 0.000000 0.000000 0.000000 0.070894 0.000000
# 6 0.000000 0.000000 0.000000 0.000000 0.000000 0.069897
#
#
# Mechanical properties :
#
#
# Convention : Reuss Voigt Hill
#
# Bulk Modulus (GPa) = 37.95789 50.79507 44.37648
# Shear Modulus (GPa) = 15.62834 18.34393 16.98614
#
# Velocity S-wave (km/s) = 3.07350 3.32984 3.20424
# Velocity P-wave (km/s) = 5.96142 6.74437 6.36494
#
# Compressibility (1/GPa) = 0.02634499
#
# Stress axis : x y z
#
# Youngs Moduli (GPa) = 37.49194 37.49194 104.60351
#
# Poissons Ratio (x) = 0.31029 0.52321
# Poissons Ratio (y) = 0.31029 0.52321
# Poissons Ratio (z) = 0.18753 0.18753
#
# Static dielectric constant tensor:
#      x y z
#    x 2.870660 0.000000 0.000000 
#    y 0.000000 2.870660 0.000000 
#    z 0.000000 0.000000 3.470830 
# 
# 
# High freq. dielectric constant tensor:
#      x y z
#    x 1.581200 0.000000 0.000000 
#    y 0.000000 1.581200 0.000000 
#    z 0.000000 0.000000 1.661830 
# 
# From -- ./inp_files/11228.got.cif
#   From: 2010.03.12/outbox.cif.g09.slc.cpg/sg180_6_cif.got.tgz:11228.got - 2010.04.01 11:35:50.
