data_PCOD8326203
_publ_section_title
;
Structure prediction by ZEFSAII (Michael W. Deem and Ramdas Pophale) SiO2 
 PCOD8326203
Probable space group: P 62 2 2
;
_chemical_formula_sum "Si O2"
_cell_formula_units_Z 84
_cell_length_a 14.244418
_cell_length_b 14.244418
_cell_length_c 25.133177
_cell_angle_alpha 90.000000
_cell_angle_beta 90.000000
_cell_angle_gamma 120.000000
_cell_volume 4416.390230
_symmetry_space_group_name_H-M "P 62 2 2"
_symmetry_group_IT_number 180
_symmetry_cell_setting 'hexagonal'
loop_
_space_group_symop_operation_xyz
x,y,z
x-y,x,1/3+z
-y,x-y,2/3+z
-x,-y,z
-x+y,-x,1/3+z
y,-x+y,2/3+z
x-y,-y,-z
-x,-x+y,1/3-z
y,x,2/3-z
-y,-x,2/3-z
-x+y,y,-z
x,x-y,1/3-z
loop_
_atom_site_type_symbol
_atom_site_label
_atom_site_fract_x
_atom_site_fract_y
_atom_site_fract_z
Si Si1 0.404149 0.745289 0.224770
Si Si2 0.884293 0.752266 0.189512
Si Si3 0.000000 0.500000 0.534424
Si Si4 0.222266 0.111133 0.166667
Si Si5 0.309354 0.897971 0.205577
Si Si6 0.882792 0.690160 0.695541
Si Si7 0.179305 0.547804 0.722209
Si Si8 0.645850 0.897615 0.260100
O O1 0.422063 0.711032 0.166667
O O2 0.334712 0.805750 0.224110
O O3 0.334887 0.636795 0.260815
O O4 0.516816 0.824989 0.253716
O O5 0.856311 0.840124 0.167520
O O6 0.799453 0.637301 0.162887
O O7 0.881303 0.756513 0.254076
O O8 0.000000 0.779164 0.166667
O O9 0.010293 0.597210 0.498293
O O10 0.106843 0.538164 0.568951
O O11 0.297607 0.145120 0.218806
O O12 0.308103 0.972620 0.253823
O O13 0.848117 0.574717 0.722183
O O14 0.793850 0.677412 0.652996
O O15 0.000000 0.745058 0.666667
O O16 0.145688 0.572844 0.666667
#
# Coordination Sequence:
#
# PCOD8326203 Si02
#       8
#    12  12   6   6  12  12  12  12
#     4  12  20  36  59  93 133 171 206 255 316 398
#     4  11  24  44  66  90 124 174 219 269 311 383
#     4  12  19  36  58  98 126 166 205 262 326 390
#     4  10  21  38  64  98 120 164 205 258 336 386
#     4  11  23  39  65  90 127 172 225 255 314 393
#     4  12  23  40  63 100 130 161 207 267 340 387
#     4  12  24  32  57  99 138 156 196 268 341 397
#     4  11  21  35  61  94 131 164 203 261 330 394
#
# _framework density 19.020057999999999
#
# number of rings (size 3 to 8) (size 9 to 14) (size 15 to 20)
#    0.000    0.571    7.857    1.286    2.000    0.000 
#    0.000    4.286    0.000    3.000    0.000    0.000 
#    0.000    0.000    0.000    0.000    0.000    0.000 
#
# Total GULP energy -1041391.214556 kJ/mol
# GULP energy per Si atom -12397.514459 kJ/mol
# Density = 1.897677 g / cm^3
# Si number density = 19.020058 Si / 1000 Ang^3
#
#
#
# Elastic Constant Matrix: (Units=GPa)
#
#
# Indices 1 2 3 4 5 6 
#
# 1 102.7438 40.1896 50.2550 0.0000 0.0000 0.0000
# 2 40.1896 102.7438 50.2550 0.0000 0.0000 0.0000
# 3 50.2550 50.2550 111.3258 0.0000 0.0000 0.0000
# 4 0.0000 0.0000 0.0000 25.3376 0.0000 0.0000
# 5 0.0000 0.0000 0.0000 0.0000 25.3376 0.0000
# 6 0.0000 0.0000 0.0000 0.0000 0.0000 31.2771
#
#
#
# Elastic Compliance Matrix: (Units=1/GPa)
#
#
# Indices 1 2 3 4 5 6 
#
# 1 0.013118 -0.002868 -0.004627 0.000000 0.000000 0.000000
# 2 -0.002868 0.013118 -0.004627 0.000000 0.000000 0.000000
# 3 -0.004627 -0.004627 0.013160 0.000000 0.000000 0.000000
# 4 0.000000 0.000000 0.000000 0.039467 0.000000 0.000000
# 5 0.000000 0.000000 0.000000 0.000000 0.039467 0.000000
# 6 0.000000 0.000000 0.000000 0.000000 0.000000 0.031972
#
#
# Mechanical properties :
#
#
# Convention : Reuss Voigt Hill
#
# Bulk Modulus (GPa) = 65.99850 66.46805 66.23327
# Shear Modulus (GPa) = 27.84001 28.13139 27.98570
#
# Velocity S-wave (km/s) = 3.83001 3.85000 3.84002
# Velocity P-wave (km/s) = 7.37112 7.40172 7.38644
#
# Compressibility (1/GPa) = 0.01515186
#
# Stress axis : x y z
#
# Youngs Moduli (GPa) = 76.23073 76.23073 75.98685
#
# Poissons Ratio (x) = 0.21864 0.35160
# Poissons Ratio (y) = 0.21864 0.35160
# Poissons Ratio (z) = 0.35273 0.35273
#
# Static dielectric constant tensor:
#      x y z
#    x 8.376300 0.000000 0.000000 
#    y 0.000000 8.376300 0.000000 
#    z 0.000000 0.000000 3.683750 
# 
# 
# High freq. dielectric constant tensor:
#      x y z
#    x 1.727920 0.000000 0.000000 
#    y 0.000000 1.727920 0.000000 
#    z 0.000000 0.000000 1.743390 
# 
# From -- ./inp_files/10297.got.cif
#   From: 2010.03.12/outbox.cif.g09.slc.cpg/sg180_6_cif.got.tgz:10297.got - 2010.04.01 11:35:50.
