data_PCOD8326277
_publ_section_title
;
Structure prediction by ZEFSAII (Michael W. Deem and Ramdas Pophale) SiO2 
 PCOD8326277
Probable space group: P 62 2 2
;
_chemical_formula_sum "Si O2"
_cell_formula_units_Z 51
_cell_length_a 12.824901
_cell_length_b 12.824901
_cell_length_c 15.704831
_cell_angle_alpha 90.000000
_cell_angle_beta 90.000000
_cell_angle_gamma 120.000000
_cell_volume 2237.030687
_symmetry_space_group_name_H-M "P 62 2 2"
_symmetry_group_IT_number 180
_symmetry_cell_setting 'hexagonal'
loop_
_space_group_symop_operation_xyz
x,y,z
x-y,x,1/3+z
-y,x-y,2/3+z
-x,-y,z
-x+y,-x,1/3+z
y,-x+y,2/3+z
x-y,-y,-z
-x,-x+y,1/3-z
y,x,2/3-z
-y,-x,2/3-z
-x+y,y,-z
x,x-y,1/3-z
loop_
_atom_site_type_symbol
_atom_site_label
_atom_site_fract_x
_atom_site_fract_y
_atom_site_fract_z
Si Si1 0.414246 0.669786 0.074518
Si Si2 0.801710 0.786406 0.054295
Si Si3 0.137542 0.366482 0.683343
Si Si4 0.000000 0.000000 0.166667
Si Si5 0.922607 0.365246 0.487031
O O1 0.371566 0.685783 0.166667
O O2 0.550492 0.774445 0.058023
O O3 0.388293 0.533423 0.075113
O O4 0.342215 0.684430 0.000000
O O5 0.750663 0.846617 0.987021
O O6 0.692587 0.690834 0.113942
O O7 0.910991 0.886848 0.109238
O O8 0.860536 0.721072 0.000000
O O9 0.165541 0.434749 0.774767
O O10 0.000000 0.328930 0.666667
O O11 0.000000 0.500000 0.528317
#
# Coordination Sequence:
#
# PCOD8326277 Si02
#       5
#    12  12  12   3  12
#     4  12  25  45  70 104 147 192 253 318 387 476
#     4  12  25  46  73 108 154 202 260 329 402 487
#     4  12  26  42  73 109 143 198 255 323 400 477
#     4  12  26  48  76 110 158 200 270 342 406 482
#     4  12  25  46  73 106 152 197 255 322 400 482
#
# _framework density 22.798076999999999
#
# number of rings (size 3 to 8) (size 9 to 14) (size 15 to 20)
#    0.000    0.000    4.706    6.706    1.647    0.000 
#    0.000    0.000    0.000    0.706    0.000    0.000 
#    0.000    0.000    0.000    0.000    0.000    0.000 
#
# Total GULP energy -631899.168998 kJ/mol
# GULP energy per Si atom -12390.179784 kJ/mol
# Density = 2.274619 g / cm^3
# Si number density = 22.798077 Si / 1000 Ang^3
#
#
#
# Elastic Constant Matrix: (Units=GPa)
#
#
# Indices 1 2 3 4 5 6 
#
# 1 138.5282 64.6712 55.3256 0.0000 0.0000 0.0000
# 2 64.6712 138.5282 55.3256 0.0000 0.0000 0.0000
# 3 55.3256 55.3256 113.8899 0.0000 0.0000 0.0000
# 4 0.0000 0.0000 0.0000 41.6398 0.0000 0.0000
# 5 0.0000 0.0000 0.0000 0.0000 41.6398 0.0000
# 6 0.0000 0.0000 0.0000 0.0000 0.0000 36.9285
#
#
#
# Elastic Compliance Matrix: (Units=1/GPa)
#
#
# Indices 1 2 3 4 5 6 
#
# 1 0.010116 -0.003424 -0.003251 0.000000 0.000000 0.000000
# 2 -0.003424 0.010116 -0.003251 0.000000 0.000000 0.000000
# 3 -0.003251 -0.003251 0.011939 0.000000 0.000000 0.000000
# 4 0.000000 0.000000 0.000000 0.024015 0.000000 0.000000
# 5 0.000000 0.000000 0.000000 0.000000 0.024015 0.000000
# 6 0.000000 0.000000 0.000000 0.000000 0.000000 0.027079
#
#
# Mechanical properties :
#
#
# Convention : Reuss Voigt Hill
#
# Bulk Modulus (GPa) = 81.17503 82.39903 81.78703
# Shear Modulus (GPa) = 38.09910 38.41653 38.25782
#
# Velocity S-wave (km/s) = 4.09241 4.10942 4.10093
# Velocity P-wave (km/s) = 7.61668 7.66407 7.64041
#
# Compressibility (1/GPa) = 0.01231906
#
# Stress axis : x y z
#
# Youngs Moduli (GPa) = 98.85809 98.85809 83.76255
#
# Poissons Ratio (x) = 0.33851 0.27227
# Poissons Ratio (y) = 0.33851 0.27227
# Poissons Ratio (z) = 0.32134 0.32134
#
# Static dielectric constant tensor:
#      x y z
#    x 4.340220 0.000000 0.000000 
#    y 0.000000 4.340220 0.000000 
#    z 0.000000 0.000000 4.779730 
# 
# 
# High freq. dielectric constant tensor:
#      x y z
#    x 1.906790 0.000000 0.000000 
#    y 0.000000 1.906790 0.000000 
#    z 0.000000 0.000000 1.894500 
# 
# From -- ./inp_files/5944.got.cif
#   From: 2010.03.12/outbox.cif.g09.slc.cpg/sg180_3_cif.got.tgz:5944.got - 2010.04.01 11:35:50.
