data_PCOD8326474
_publ_section_title
;
Structure prediction by ZEFSAII (Michael W. Deem and Ramdas Pophale) SiO2 
 PCOD8326474
Probable space group: P 63 2 2
;
_chemical_formula_sum "Si O2"
_cell_formula_units_Z 36
_cell_length_a 15.280749
_cell_length_b 15.280749
_cell_length_c 8.702771
_cell_angle_alpha 90.000000
_cell_angle_beta 90.000000
_cell_angle_gamma 120.000000
_cell_volume 1759.857372
_symmetry_space_group_name_H-M "P 63 2 2"
_symmetry_group_IT_number 182
_symmetry_cell_setting 'hexagonal'
loop_
_space_group_symop_operation_xyz
x,y,z
x-y,x,1/2+z
-y,x-y,z
-x,-y,1/2+z
-x+y,-x,z
y,-x+y,1/2+z
x-y,-y,-z
-x,-x+y,-z
y,x,-z
-y,-x,1/2-z
-x+y,y,1/2-z
x,x-y,1/2-z
loop_
_atom_site_type_symbol
_atom_site_label
_atom_site_fract_x
_atom_site_fract_y
_atom_site_fract_z
Si Si1 0.553878 0.446226 0.430206
Si Si2 0.782825 0.217368 0.068472
Si Si3 0.891553 0.782124 0.931966
O O1 0.479438 0.479438 0.500000
O O2 0.547657 0.452344 0.250000
O O3 0.515926 0.331359 0.478313
O O4 0.667780 0.518815 0.488272
O O5 0.794005 0.205996 0.250000
O O6 0.854284 0.186598 0.978066
O O7 0.896612 0.793223 0.750000
O O8 0.857082 0.857082 0.000000
O O9 0.000000 0.810811 0.000000
#
# Coordination Sequence:
#
# PCOD8326474 Si02
#       3
#    12  12  12
#     4  10  21  37  59  85 117 154 195 240 289 343
#     4  10  21  39  61  88 121 160 200 242 294 352
#     4  12  25  42  63  89 120 156 197 246 299 357
#
# _framework density 20.456204
#
# number of rings (size 3 to 8) (size 9 to 14) (size 15 to 20)
#    0.000    1.333    0.000    6.000    0.000   10.667 
#    0.000    0.000    0.000    4.000    0.000    0.000 
#    0.000    0.000    0.000    0.000    0.000    0.000 
#
# Total GULP energy -446620.635198 kJ/mol
# GULP energy per Si atom -12406.128756 kJ/mol
# Density = 2.040964 g / cm^3
# Si number density = 20.456204 Si / 1000 Ang^3
#
#
#
# Elastic Constant Matrix: (Units=GPa)
#
#
# Indices 1 2 3 4 5 6 
#
# 1 103.8108 20.7684 39.3328 0.0000 0.0000 0.0000
# 2 20.7684 103.8108 39.3328 0.0000 0.0000 0.0000
# 3 39.3328 39.3328 88.9026 0.0000 0.0000 0.0000
# 4 0.0000 0.0000 0.0000 28.0833 0.0000 0.0000
# 5 0.0000 0.0000 0.0000 0.0000 28.0833 0.0000
# 6 0.0000 0.0000 0.0000 0.0000 0.0000 41.5212
#
#
#
# Elastic Compliance Matrix: (Units=1/GPa)
#
#
# Indices 1 2 3 4 5 6 
#
# 1 0.011590 -0.000452 -0.004928 0.000000 0.000000 0.000000
# 2 -0.000452 0.011590 -0.004928 0.000000 0.000000 0.000000
# 3 -0.004928 -0.004928 0.015609 0.000000 0.000000 0.000000
# 4 0.000000 0.000000 0.000000 0.035608 0.000000 0.000000
# 5 0.000000 0.000000 0.000000 0.000000 0.035608 0.000000
# 6 0.000000 0.000000 0.000000 0.000000 0.000000 0.024084
#
#
# Mechanical properties :
#
#
# Convention : Reuss Voigt Hill
#
# Bulk Modulus (GPa) = 55.02309 55.04357 55.03333
# Shear Modulus (GPa) = 31.10144 32.67693 31.88919
#
# Velocity S-wave (km/s) = 3.90345 4.00110 3.95257
# Velocity P-wave (km/s) = 6.87548 6.95064 6.91317
#
# Compressibility (1/GPa) = 0.01817419
#
# Stress axis : x y z
#
# Youngs Moduli (GPa) = 86.27783 86.27783 64.06589
#
# Poissons Ratio (x) = 0.03896 0.31573
# Poissons Ratio (y) = 0.03896 0.31573
# Poissons Ratio (z) = 0.42519 0.42519
#
# Static dielectric constant tensor:
#      x y z
#    x 3.831770 0.000000 0.000000 
#    y 0.000000 3.831770 0.000000 
#    z 0.000000 0.000000 3.652640 
# 
# 
# High freq. dielectric constant tensor:
#      x y z
#    x 1.815910 0.000000 0.000000 
#    y 0.000000 1.815910 0.000000 
#    z 0.000000 0.000000 1.790410 
# 
# From -- ./inp_files/1163.got.cif
#   From: 2010.03.12/outbox.cif.g09.slc.cpg/sg182_1_cif.got.tgz:1163.got - 2010.04.01 11:49:36.
