data_PCOD8326601
_publ_section_title
;
Structure prediction by ZEFSAII (Michael W. Deem and Ramdas Pophale) SiO2 
 PCOD8326601
Probable space group: P 6 C C
;
_chemical_formula_sum "Si O2"
_cell_formula_units_Z 84
_cell_length_a 17.341493
_cell_length_b 17.341493
_cell_length_c 15.407226
_cell_angle_alpha 90.000000
_cell_angle_beta 90.000000
_cell_angle_gamma 120.000000
_cell_volume 4012.620195
_symmetry_space_group_name_H-M "P 6 C C"
_symmetry_group_IT_number 184
_symmetry_cell_setting 'hexagonal'
loop_
_space_group_symop_operation_xyz
x,y,z
x-y,x,z
-y,x-y,z
-x,-y,z
-x+y,-x,z
y,-x+y,z
-x+y,y,1/2+z
x,x-y,1/2+z
-y,-x,1/2+z
y,x,1/2+z
x-y,-y,1/2+z
-x,-x+y,1/2+z
loop_
_atom_site_type_symbol
_atom_site_label
_atom_site_fract_x
_atom_site_fract_y
_atom_site_fract_z
Si Si1 0.058103 0.297372 0.177830
Si Si2 0.671069 0.236576 0.341437
Si Si3 0.838899 0.031910 0.005000
Si Si4 0.243891 0.810323 0.730437
Si Si5 0.559736 0.956895 0.132637
Si Si6 0.963802 0.269807 0.345547
Si Si7 0.058516 0.603313 0.930279
O O1 0.029083 0.227921 0.100480
O O2 0.165132 0.353999 0.175571
O O3 0.021050 0.364752 0.169635
O O4 0.014698 0.246300 0.269323
O O5 0.756404 0.338000 0.346678
O O6 0.706224 0.211198 0.253781
O O7 0.650541 0.165094 0.416320
O O8 0.939223 0.105922 0.991724
O O9 0.786155 0.051556 0.931811
O O10 0.335619 0.858034 0.674119
O O11 0.254516 0.867567 0.817088
O O12 0.500000 0.000000 0.160075
O O13 0.569086 0.953513 0.030337
O O14 0.027614 0.372163 0.368368
O O15 0.000000 0.500000 0.903296
#
# Coordination Sequence:
#
# PCOD8326601 Si02
#       7
#    12  12  12  12  12  12  12
#     4  11  23  43  67 100 130 173 227 276 328 407
#     4  10  24  41  63 100 135 179 223 278 343 404
#     4  12  26  45  69  99 134 169 215 280 345 410
#     4  11  23  40  67  95 136 175 225 274 341 391
#     4  10  24  41  65  95 130 177 223 280 329 403
#     4  11  23  41  71  97 129 179 225 275 324 415
#     4  11  22  45  65  96 130 181 231 275 336 398
#
# _framework density 20.933952000000001
#
# number of rings (size 3 to 8) (size 9 to 14) (size 15 to 20)
#    0.286    0.857    2.857    3.571    2.000    2.286 
#    5.143    0.000    0.000    1.714    0.000    0.000 
#    0.000    0.000    0.000    0.000    0.000    0.000 
#
# Total GULP energy -1040763.404900 kJ/mol
# GULP energy per Si atom -12390.040535 kJ/mol
# Density = 2.088631 g / cm^3
# Si number density = 20.933952 Si / 1000 Ang^3
#
#
#
# Elastic Constant Matrix: (Units=GPa)
#
#
# Indices 1 2 3 4 5 6 
#
# 1 102.1789 13.9836 26.8730 0.0000 0.0000 0.0000
# 2 13.9836 102.1789 26.8730 0.0000 0.0000 0.0000
# 3 26.8730 26.8730 97.2555 0.0000 0.0000 0.0000
# 4 0.0000 0.0000 0.0000 15.4035 0.0000 0.0000
# 5 0.0000 0.0000 0.0000 0.0000 15.4035 0.0000
# 6 0.0000 0.0000 0.0000 0.0000 0.0000 44.0977
#
#
#
# Elastic Compliance Matrix: (Units=1/GPa)
#
#
# Indices 1 2 3 4 5 6 
#
# 1 0.010604 -0.000734 -0.002727 0.000000 0.000000 0.000000
# 2 -0.000734 0.010604 -0.002727 0.000000 0.000000 0.000000
# 3 -0.002727 -0.002727 0.011789 0.000000 0.000000 0.000000
# 4 0.000000 0.000000 0.000000 0.064920 0.000000 0.000000
# 5 0.000000 0.000000 0.000000 0.000000 0.064920 0.000000
# 6 0.000000 0.000000 0.000000 0.000000 0.000000 0.022677
#
#
# Mechanical properties :
#
#
# Convention : Reuss Voigt Hill
#
# Bulk Modulus (GPa) = 48.49421 48.56361 48.52891
# Shear Modulus (GPa) = 24.41801 30.57319 27.49560
#
# Velocity S-wave (km/s) = 3.41901 3.82574 3.62808
# Velocity P-wave (km/s) = 6.22911 6.53941 6.38615
#
# Compressibility (1/GPa) = 0.02062102
#
# Stress axis : x y z
#
# Youngs Moduli (GPa) = 94.29960 94.29960 84.82187
#
# Poissons Ratio (x) = 0.06921 0.23134
# Poissons Ratio (y) = 0.06921 0.23134
# Poissons Ratio (z) = 0.25719 0.25719
#
# Static dielectric constant tensor:
#      x y z
#    x 3.928790 0.000000 0.000000 
#    y 0.000000 3.928790 0.000000 
#    z 0.000000 0.000000 3.860660 
# 
# 
# High freq. dielectric constant tensor:
#      x y z
#    x 1.826390 0.000000 0.000000 
#    y 0.000000 1.826390 0.000000 
#    z 0.000000 0.000000 1.817060 
# 
# From -- ./inp_files/946.got.cif
#   From: 2010.03.12/outbox.cif.g09.slc.cpg/sg184_cif.got.tgz:946.got - 2010.04.01 11:54:36.
