data_PCOD8326032
_publ_section_title
;
Structure prediction by ZEFSAII (Michael W. Deem and Ramdas Pophale) SiO2 
 PCOD8326032
Probable space group: P 65 2 2
;
_chemical_formula_sum "Si O2"
_cell_formula_units_Z 48
_cell_length_a 18.345847
_cell_length_b 18.345847
_cell_length_c 12.435774
_cell_angle_alpha 90.000000
_cell_angle_beta 90.000000
_cell_angle_gamma 120.000000
_cell_volume 3624.757750
_symmetry_space_group_name_H-M "P 65 2 2"
_symmetry_group_IT_number 179
_symmetry_cell_setting 'hexagonal'
loop_
_space_group_symop_operation_xyz
x,y,z
x-y,x,5/6+z
-y,x-y,2/3+z
-x,-y,1/2+z
-x+y,-x,1/3+z
y,-x+y,1/6+z
x-y,-y,-z
-x,-x+y,1/3-z
y,x,2/3-z
-y,-x,1/6-z
-x+y,y,1/2-z
x,x-y,5/6-z
loop_
_atom_site_type_symbol
_atom_site_label
_atom_site_fract_x
_atom_site_fract_y
_atom_site_fract_z
Si Si1 0.258902 0.738167 0.372123
Si Si2 0.475751 0.390958 0.160541
Si Si3 0.457325 0.074497 0.207097
Si Si4 0.477908 0.477908 0.833334
Si Si5 0.626504 0.313252 0.416667
O O1 0.298293 0.834947 0.335828
O O2 0.159648 0.706141 0.387495
O O3 0.272424 0.684299 0.279262
O O4 0.303816 0.735489 0.481872
O O5 0.554056 0.445945 0.083334
O O6 0.391235 0.387562 0.112157
O O7 0.501102 0.435420 0.276020
O O8 0.548734 0.097468 0.250000
O O9 0.448839 0.048087 0.082573
#
# Coordination Sequence:
#
# PCOD8326032 Si02
#       5
#    12  12  12   6   6
#     4  11  18  30  39  58  79 100 136 175 200 238
#     4   9  18  27  39  55  73 102 130 161 203 239
#     4   9  17  29  38  55  74 100 130 164 200 240
#     4   8  16  30  40  50  80 102 124 162 202 232
#     4  10  20  24  40  60  76  98 134 174 206 222
#
# _framework density 13.242265
#
# number of rings (size 3 to 8) (size 9 to 14) (size 15 to 20)
#    0.000    3.000    3.750    1.500    3.500    0.000 
#    0.000    0.000    0.000    0.000    0.000    0.000 
#    0.000    0.000    0.000    0.000    0.000   12.500 
#
# Total GULP energy -594831.265377 kJ/mol
# GULP energy per Si atom -12392.318029 kJ/mol
# Density = 1.321212 g / cm^3
# Si number density = 13.242265 Si / 1000 Ang^3
#
#
#
# Elastic Constant Matrix: (Units=GPa)
#
#
# Indices 1 2 3 4 5 6 
#
# 1 90.2699 33.6920 25.0894 0.0000 0.0000 0.0000
# 2 33.6920 90.2699 25.0894 0.0000 0.0000 0.0000
# 3 25.0894 25.0894 77.6301 0.0000 0.0000 0.0000
# 4 0.0000 0.0000 0.0000 8.6768 0.0000 0.0000
# 5 0.0000 0.0000 0.0000 0.0000 8.6768 0.0000
# 6 0.0000 0.0000 0.0000 0.0000 0.0000 28.2890
#
#
#
# Elastic Compliance Matrix: (Units=1/GPa)
#
#
# Indices 1 2 3 4 5 6 
#
# 1 0.013478 -0.004197 -0.003000 0.000000 0.000000 0.000000
# 2 -0.004197 0.013478 -0.003000 0.000000 0.000000 0.000000
# 3 -0.003000 -0.003000 0.014821 0.000000 0.000000 0.000000
# 4 0.000000 0.000000 0.000000 0.115250 0.000000 0.000000
# 5 0.000000 0.000000 0.000000 0.000000 0.115250 0.000000
# 6 0.000000 0.000000 0.000000 0.000000 0.000000 0.035349
#
#
# Mechanical properties :
#
#
# Convention : Reuss Voigt Hill
#
# Bulk Modulus (GPa) = 46.76288 47.32350 47.04319
# Shear Modulus (GPa) = 14.91887 20.74845 17.83366
#
# Velocity S-wave (km/s) = 3.36014 3.96262 3.67375
# Velocity P-wave (km/s) = 7.10240 7.53331 7.32103
#
# Compressibility (1/GPa) = 0.02138448
#
# Stress axis : x y z
#
# Youngs Moduli (GPa) = 74.19510 74.19510 67.47409
#
# Poissons Ratio (x) = 0.31138 0.20240
# Poissons Ratio (y) = 0.31138 0.20240
# Poissons Ratio (z) = 0.22256 0.22256
#
# Static dielectric constant tensor:
#      x y z
#    x 2.490550 0.000000 0.000000 
#    y 0.000000 2.490550 0.000000 
#    z 0.000000 0.000000 2.470280 
# 
# 
# High freq. dielectric constant tensor:
#      x y z
#    x 1.467680 0.000000 0.000000 
#    y 0.000000 1.467680 0.000000 
#    z 0.000000 0.000000 1.523700 
# 
# From -- ./inp_files/4455.got.cif
#   From: 2010.03.12/outbox.cif.g09.slc.cpg/sg179_3_cif.got.tgz:4455.got - 2010.04.02 07:08:42.
