data_PCOD8326197
_publ_section_title
;
Structure prediction by ZEFSAII (Michael W. Deem and Ramdas Pophale) SiO2 
 PCOD8326197
Probable space group: P 62 2 2
;
_chemical_formula_sum "Si O2"
_cell_formula_units_Z 42
_cell_length_a 9.637736
_cell_length_b 9.637736
_cell_length_c 27.000456
_cell_angle_alpha 90.000000
_cell_angle_beta 90.000000
_cell_angle_gamma 120.000000
_cell_volume 2171.959797
_symmetry_space_group_name_H-M "P 62 2 2"
_symmetry_group_IT_number 180
_symmetry_cell_setting 'hexagonal'
loop_
_space_group_symop_operation_xyz
x,y,z
x-y,x,1/3+z
-y,x-y,2/3+z
-x,-y,z
-x+y,-x,1/3+z
y,-x+y,2/3+z
x-y,-y,-z
-x,-x+y,1/3-z
y,x,2/3-z
-y,-x,2/3-z
-x+y,y,-z
x,x-y,1/3-z
loop_
_atom_site_type_symbol
_atom_site_label
_atom_site_fract_x
_atom_site_fract_y
_atom_site_fract_z
Si Si1 0.376077 0.201252 0.816246
Si Si2 0.476486 0.653311 0.714682
Si Si3 0.840692 0.159309 0.833334
Si Si4 0.401132 0.582173 0.437175
O O1 0.336498 0.336498 0.833334
O O2 0.417300 0.231639 0.758715
O O3 0.524855 0.215519 0.846989
O O4 0.226496 0.026792 0.824641
O O5 0.500000 0.500000 0.707235
O O6 0.532259 0.766130 0.666667
O O7 0.291696 0.599244 0.726117
O O8 0.794194 0.227664 0.785093
O O9 0.500000 0.500000 0.417989
#
# Coordination Sequence:
#
# PCOD8326197 Si02
#       4
#    12  12   6  12
#     4  11  21  40  65  91 122 165 218 257 313 376
#     4  12  26  40  63  92 130 168 207 267 323 381
#     4  10  21  34  65  94 120 152 206 278 299 368
#     4  10  21  38  64  92 120 164 212 258 307 376
#
# _framework density 19.337374000000001
#
# number of rings (size 3 to 8) (size 9 to 14) (size 15 to 20)
#    0.000    1.143    5.714    0.429    4.000    0.571 
#    0.000    0.000    0.000    3.429    0.000    0.000 
#    0.000    0.000    0.000    0.000    0.000    0.000 
#
# Total GULP energy -520727.615303 kJ/mol
# GULP energy per Si atom -12398.276555 kJ/mol
# Density = 1.929336 g / cm^3
# Si number density = 19.337374 Si / 1000 Ang^3
#
#
#
# Elastic Constant Matrix: (Units=GPa)
#
#
# Indices 1 2 3 4 5 6 
#
# 1 85.6683 33.5174 35.8783 0.0000 0.0000 0.0000
# 2 33.5174 85.6683 35.8783 0.0000 0.0000 0.0000
# 3 35.8783 35.8783 115.0214 0.0000 0.0000 0.0000
# 4 0.0000 0.0000 0.0000 18.2102 0.0000 0.0000
# 5 0.0000 0.0000 0.0000 0.0000 18.2102 0.0000
# 6 0.0000 0.0000 0.0000 0.0000 0.0000 26.0754
#
#
#
# Elastic Compliance Matrix: (Units=1/GPa)
#
#
# Indices 1 2 3 4 5 6 
#
# 1 0.014753 -0.004422 -0.003222 0.000000 0.000000 0.000000
# 2 -0.004422 0.014753 -0.003222 0.000000 0.000000 0.000000
# 3 -0.003222 -0.003222 0.010704 0.000000 0.000000 0.000000
# 4 0.000000 0.000000 0.000000 0.054914 0.000000 0.000000
# 5 0.000000 0.000000 0.000000 0.000000 0.054914 0.000000
# 6 0.000000 0.000000 0.000000 0.000000 0.000000 0.038350
#
#
# Mechanical properties :
#
#
# Convention : Reuss Voigt Hill
#
# Bulk Modulus (GPa) = 54.12530 55.21178 54.66854
# Shear Modulus (GPa) = 23.11804 24.57141 23.84473
#
# Velocity S-wave (km/s) = 3.46137 3.56851 3.51535
# Velocity P-wave (km/s) = 6.63517 6.75225 6.69397
#
# Compressibility (1/GPa) = 0.01847565
#
# Stress axis : x y z
#
# Youngs Moduli (GPa) = 67.78418 67.78418 93.42060
#
# Poissons Ratio (x) = 0.29977 0.30103
# Poissons Ratio (y) = 0.29977 0.30103
# Poissons Ratio (z) = 0.21842 0.21842
#
# Static dielectric constant tensor:
#      x y z
#    x 3.709750 0.000000 0.000000 
#    y 0.000000 3.709750 0.000000 
#    z 0.000000 0.000000 3.238080 
# 
# 
# High freq. dielectric constant tensor:
#      x y z
#    x 1.765180 0.000000 0.000000 
#    y 0.000000 1.765180 0.000000 
#    z 0.000000 0.000000 1.725310 
# 
# From -- ./inp_files/12008.got.cif
#   From: 2010.03.12/outbox.cif.g09.slc.cpg/sg180_7_cif.got.tgz:12008.got - 2010.04.01 11:35:50.
