data_PCOD8326721
_publ_section_title
;
Structure prediction by ZEFSAII (Michael W. Deem and Ramdas Pophale) SiO2 
 PCOD8326721
Probable space group: P 63 M C
;
_chemical_formula_sum "Si O2"
_cell_formula_units_Z 96
_cell_length_a 16.880816
_cell_length_b 16.880816
_cell_length_c 25.531429
_cell_angle_alpha 90.000000
_cell_angle_beta 90.000000
_cell_angle_gamma 120.000000
_cell_volume 6300.755497
_symmetry_space_group_name_H-M "P 63 M C"
_symmetry_group_IT_number 186
_symmetry_cell_setting 'hexagonal'
loop_
_space_group_symop_operation_xyz
x,y,z
x-y,x,1/2+z
-y,x-y,z
-x,-y,1/2+z
-x+y,-x,z
y,-x+y,1/2+z
-x+y,y,z
x,x-y,z
-y,-x,z
y,x,1/2+z
x-y,-y,1/2+z
-x,-x+y,1/2+z
loop_
_atom_site_type_symbol
_atom_site_label
_atom_site_fract_x
_atom_site_fract_y
_atom_site_fract_z
Si Si1 0.148070 0.481043 0.479990
Si Si2 0.242425 0.943916 0.429260
Si Si3 0.437607 0.053690 0.088209
Si Si4 0.948351 0.713354 0.222071
Si Si5 0.181648 0.002796 0.522763
Si Si6 0.999537 0.812205 0.329731
Si Si7 0.693824 0.934969 0.120875
Si Si8 0.847027 0.513224 0.194775
O O1 0.253384 0.506767 0.479923
O O2 0.143113 0.571557 0.468482
O O3 0.090183 0.406571 0.434897
O O4 0.103447 0.434404 0.535400
O O5 0.141736 0.858265 0.431225
O O6 0.253054 0.996196 0.374778
O O7 0.253017 0.008982 0.478381
O O8 0.509289 0.018578 0.082609
O O9 0.465626 0.128823 0.133599
O O10 0.342541 0.962419 0.101816
O O11 0.864133 0.728265 0.206978
O O12 0.911703 0.604761 0.227847
O O13 0.995079 0.762208 0.275822
O O14 0.024557 0.758764 0.177567
O O15 0.150194 0.075097 0.507474
O O16 0.224072 0.022534 0.580061
O O17 0.096714 0.903287 0.524575
O O18 0.087080 0.912921 0.329805
O O19 0.910979 0.821958 0.338815
O O20 0.649159 0.824580 0.122951
O O21 0.740907 0.481813 0.202171
O O22 0.863385 0.431693 0.214617
#
# Coordination Sequence:
#
# PCOD8326721 Si02
#       8
#    12  12  12  12  12  12  12  12
#     4  10  18  29  45  66  90 116 143 173 213 264
#     4   9  18  30  44  61  85 113 141 179 222 258
#     4   9  17  28  43  63  90 117 143 177 216 261
#     4   9  18  30  44  63  90 121 151 186 227 263
#     4  10  18  27  40  60  87 117 147 177 214 260
#     4  10  19  32  48  65  85 114 154 194 226 259
#     4  10  18  28  44  65  89 119 150 179 218 268
#     4   9  16  26  42  65  91 119 147 177 215 263
#
# _framework density 15.236269
#
# number of rings (size 3 to 8) (size 9 to 14) (size 15 to 20)
#    0.000    2.500    1.250    2.000    0.000    1.000 
#    0.000    3.125    0.000    4.250    0.000    0.000 
#    0.000    0.000    0.000    1.000    0.000    0.000 
#
# Total GULP energy -1190044.487358 kJ/mol
# GULP energy per Si atom -12396.296743 kJ/mol
# Density = 1.520159 g / cm^3
# Si number density = 15.236269 Si / 1000 Ang^3
#
#
#
# Elastic Constant Matrix: (Units=GPa)
#
#
# Indices 1 2 3 4 5 6 
#
# 1 83.1982 40.1679 43.5465 0.0000 0.0000 0.0000
# 2 40.1679 83.1982 43.5465 0.0000 0.0000 0.0000
# 3 43.5465 43.5465 90.3856 0.0000 0.0000 0.0000
# 4 0.0000 0.0000 0.0000 20.6854 0.0000 0.0000
# 5 0.0000 0.0000 0.0000 0.0000 20.6854 0.0000
# 6 0.0000 0.0000 0.0000 0.0000 0.0000 21.5152
#
#
#
# Elastic Compliance Matrix: (Units=1/GPa)
#
#
# Indices 1 2 3 4 5 6 
#
# 1 0.017762 -0.005478 -0.005918 0.000000 0.000000 0.000000
# 2 -0.005478 0.017762 -0.005918 0.000000 0.000000 0.000000
# 3 -0.005918 -0.005918 0.016766 0.000000 0.000000 0.000000
# 4 0.000000 0.000000 0.000000 0.048343 0.000000 0.000000
# 5 0.000000 0.000000 0.000000 0.000000 0.048343 0.000000
# 6 0.000000 0.000000 0.000000 0.000000 0.000000 0.046479
#
#
# Mechanical properties :
#
#
# Convention : Reuss Voigt Hill
#
# Bulk Modulus (GPa) = 56.62059 56.81150 56.71605
# Shear Modulus (GPa) = 21.18906 21.21195 21.20050
#
# Velocity S-wave (km/s) = 3.73325 3.73527 3.73426
# Velocity P-wave (km/s) = 7.47163 7.48137 7.47650
#
# Compressibility (1/GPa) = 0.01766142
#
# Stress axis : x y z
#
# Youngs Moduli (GPa) = 56.30070 56.30070 59.64300
#
# Poissons Ratio (x) = 0.30840 0.35299
# Poissons Ratio (y) = 0.30840 0.35299
# Poissons Ratio (z) = 0.33320 0.33320
#
# Static dielectric constant tensor:
#      x y z
#    x 2.915650 0.000000 0.000000 
#    y 0.000000 2.915650 0.000000 
#    z 0.000000 0.000000 2.958730 
# 
# 
# High freq. dielectric constant tensor:
#      x y z
#    x 1.574550 0.000000 0.000000 
#    y 0.000000 1.574550 0.000000 
#    z 0.000000 0.000000 1.577040 
# 
# From -- ./inp_files/3904.got.cif
#   From: 2010.03.12/outbox.cif.g09.slc.cpg/sg186_2_cif.got.tgz:3904.got - 2010.04.01 11:56:34.
