data_PCOD8326711
_publ_section_title
;
Structure prediction by ZEFSAII (Michael W. Deem and Ramdas Pophale) SiO2 
 PCOD8326711
Probable space group: P 63 M C
;
_chemical_formula_sum "Si O2"
_cell_formula_units_Z 72
_cell_length_a 24.405463
_cell_length_b 24.405463
_cell_length_c 8.265772
_cell_angle_alpha 90.000000
_cell_angle_beta 90.000000
_cell_angle_gamma 120.000000
_cell_volume 4263.714885
_symmetry_space_group_name_H-M "P 63 M C"
_symmetry_group_IT_number 186
_symmetry_cell_setting 'hexagonal'
loop_
_space_group_symop_operation_xyz
x,y,z
x-y,x,1/2+z
-y,x-y,z
-x,-y,1/2+z
-x+y,-x,z
y,-x+y,1/2+z
-x+y,y,z
x,x-y,z
-y,-x,z
y,x,1/2+z
x-y,-y,1/2+z
-x,-x+y,1/2+z
loop_
_atom_site_type_symbol
_atom_site_label
_atom_site_fract_x
_atom_site_fract_y
_atom_site_fract_z
Si Si1 0.634012 0.930265 0.978320
Si Si2 0.938436 0.750934 0.651735
Si Si3 0.598795 0.736845 0.669159
Si Si4 0.382285 0.975975 0.268331
Si Si5 0.483025 0.087329 0.061066
Si Si6 0.929094 0.732972 0.029598
O O1 0.594165 0.870004 0.862016
O O2 0.652213 0.994079 0.875922
O O3 0.694782 0.926336 0.030677
O O4 0.594211 0.927811 0.135695
O O5 0.886394 0.772787 0.616638
O O6 0.934274 0.730470 0.836999
O O7 0.010242 0.804463 0.608520
O O8 0.591746 0.795873 0.622485
O O9 0.539029 0.677861 0.584599
O O10 0.666478 0.747314 0.602452
O O11 0.404997 0.937284 0.377835
O O12 0.444995 0.030962 0.186930
O O13 0.558088 0.116176 0.090113
O O14 0.870416 0.740831 0.082546
#
# Coordination Sequence:
#
# PCOD8326711 Si02
#       6
#    12  12  12  12  12  12
#     4  10  17  28  45  67  96 126 153 188 228 274
#     4  11  20  30  47  70  94 122 157 194 238 286
#     4  10  20  33  49  69  95 126 160 196 232 274
#     4   9  18  29  45  70  99 126 155 185 224 279
#     4  10  18  30  48  70  98 127 154 187 229 277
#     4  10  21  34  48  68  94 123 157 198 239 282
#
# _framework density 16.886682
#
# number of rings (size 3 to 8) (size 9 to 14) (size 15 to 20)
#    0.000    2.000    0.000    7.000    0.000    2.000 
#    0.000    1.667    0.000    0.667    0.000    0.000 
#    0.000    1.333    0.000    0.000    0.000    0.000 
#
# Total GULP energy -892399.247668 kJ/mol
# GULP energy per Si atom -12394.433995 kJ/mol
# Density = 1.684825 g / cm^3
# Si number density = 16.886682 Si / 1000 Ang^3
#
#
#
# Elastic Constant Matrix: (Units=GPa)
#
#
# Indices 1 2 3 4 5 6 
#
# 1 94.5689 45.5545 31.4185 0.0000 0.0000 0.0000
# 2 45.5545 94.5689 31.4185 0.0000 0.0000 0.0000
# 3 31.4185 31.4185 93.9217 0.0000 0.0000 0.0000
# 4 0.0000 0.0000 0.0000 17.2475 0.0000 0.0000
# 5 0.0000 0.0000 0.0000 0.0000 17.2475 0.0000
# 6 0.0000 0.0000 0.0000 0.0000 0.0000 24.5072
#
#
#
# Elastic Compliance Matrix: (Units=1/GPa)
#
#
# Indices 1 2 3 4 5 6 
#
# 1 0.014399 -0.006003 -0.002809 0.000000 0.000000 0.000000
# 2 -0.006003 0.014399 -0.002809 0.000000 0.000000 0.000000
# 3 -0.002809 -0.002809 0.012526 0.000000 0.000000 0.000000
# 4 0.000000 0.000000 0.000000 0.057980 0.000000 0.000000
# 5 0.000000 0.000000 0.000000 0.000000 0.057980 0.000000
# 6 0.000000 0.000000 0.000000 0.000000 0.000000 0.040804
#
#
# Mechanical properties :
#
#
# Convention : Reuss Voigt Hill
#
# Bulk Modulus (GPa) = 55.29798 55.53805 55.41802
# Shear Modulus (GPa) = 21.99189 23.44495 22.71842
#
# Velocity S-wave (km/s) = 3.61268 3.73012 3.67187
# Velocity P-wave (km/s) = 7.08658 7.17718 7.13202
#
# Compressibility (1/GPa) = 0.01808384
#
# Stress axis : x y z
#
# Youngs Moduli (GPa) = 69.44866 69.44866 79.83231
#
# Poissons Ratio (x) = 0.41690 0.22422
# Poissons Ratio (y) = 0.41690 0.22422
# Poissons Ratio (z) = 0.19506 0.19506
#
# Static dielectric constant tensor:
#      x y z
#    x 3.032900 0.000000 0.000000 
#    y 0.000000 3.032900 0.000000 
#    z 0.000000 0.000000 3.451280 
# 
# 
# High freq. dielectric constant tensor:
#      x y z
#    x 1.620250 0.000000 0.000000 
#    y 0.000000 1.620250 0.000000 
#    z 0.000000 0.000000 1.674930 
# 
# From -- ./inp_files/1214.got.cif
#   From: 2010.03.12/outbox.cif.g09.slc.cpg/sg186_1_cif.got.tgz:1214.got - 2010.04.01 11:56:34.
