data_PCOD8326080
_publ_section_title
;
Structure prediction by ZEFSAII (Michael W. Deem and Ramdas Pophale) SiO2 
 PCOD8326080
Probable space group: P 65 2 2
;
_chemical_formula_sum "Si O2"
_cell_formula_units_Z 48
_cell_length_a 14.810888
_cell_length_b 14.810888
_cell_length_c 10.107302
_cell_angle_alpha 90.000000
_cell_angle_beta 90.000000
_cell_angle_gamma 120.000000
_cell_volume 1920.118667
_symmetry_space_group_name_H-M "P 65 2 2"
_symmetry_group_IT_number 179
_symmetry_cell_setting 'hexagonal'
loop_
_space_group_symop_operation_xyz
x,y,z
x-y,x,5/6+z
-y,x-y,2/3+z
-x,-y,1/2+z
-x+y,-x,1/3+z
y,-x+y,1/6+z
x-y,-y,-z
-x,-x+y,1/3-z
y,x,2/3-z
-y,-x,1/6-z
-x+y,y,1/2-z
x,x-y,5/6-z
loop_
_atom_site_type_symbol
_atom_site_label
_atom_site_fract_x
_atom_site_fract_y
_atom_site_fract_z
Si Si1 0.630629 0.369372 0.083334
Si Si2 0.868286 0.131715 0.583334
Si Si3 0.657080 0.000000 0.000000
Si Si4 0.353931 0.000000 0.000000
Si Si5 0.816870 0.974595 0.156508
Si Si6 0.580239 0.153078 0.473157
O O1 0.750436 0.404552 0.046407
O O2 0.614235 0.426680 0.207607
O O3 0.924999 0.256664 0.573806
O O4 0.897505 0.095950 0.446205
O O5 0.731090 0.017728 0.872342
O O6 0.647084 0.101820 0.034245
O O7 0.458286 0.071473 0.083021
O O8 0.831699 0.918138 0.026132
#
# Coordination Sequence:
#
# PCOD8326080 Si02
#       6
#     6   6   6   6  12  12
#     4  10  22  46  78 101 155 198 252 310 380 456
#     4  12  24  46  80 103 143 196 252 314 374 462
#     4  11  28  48  71 112 154 194 251 310 392 445
#     4  11  24  46  69 114 140 190 259 304 380 447
#     4  12  27  51  74 106 144 196 249 319 381 467
#     4  10  25  45  71 111 148 198 248 314 374 463
#
# _framework density 24.998456999999998
#
# number of rings (size 3 to 8) (size 9 to 14) (size 15 to 20)
#    0.000    1.000    2.500    2.250   10.500    0.000 
#   18.000    0.000    0.000    0.000    0.000    0.000 
#    0.000    0.000    0.000    0.000    0.000    0.000 
#
# Total GULP energy -594647.301171 kJ/mol
# GULP energy per Si atom -12388.485441 kJ/mol
# Density = 2.494156 g / cm^3
# Si number density = 24.998457 Si / 1000 Ang^3
#
#
#
# Elastic Constant Matrix: (Units=GPa)
#
#
# Indices 1 2 3 4 5 6 
#
# 1 165.3436 83.1636 35.2162 0.0000 0.0000 0.0000
# 2 83.1636 165.3436 35.2162 0.0000 0.0000 0.0000
# 3 35.2162 35.2162 125.3666 0.0000 0.0000 0.0000
# 4 0.0000 0.0000 0.0000 28.0848 0.0000 0.0000
# 5 0.0000 0.0000 0.0000 0.0000 28.0848 0.0000
# 6 0.0000 0.0000 0.0000 0.0000 0.0000 41.0900
#
#
#
# Elastic Compliance Matrix: (Units=1/GPa)
#
#
# Indices 1 2 3 4 5 6 
#
# 1 0.008270 -0.003898 -0.001228 0.000000 0.000000 0.000000
# 2 -0.003898 0.008270 -0.001228 0.000000 0.000000 0.000000
# 3 -0.001228 -0.001228 0.008667 0.000000 0.000000 0.000000
# 4 0.000000 0.000000 0.000000 0.035606 0.000000 0.000000
# 5 0.000000 0.000000 0.000000 0.000000 0.035606 0.000000
# 6 0.000000 0.000000 0.000000 0.000000 0.000000 0.024337
#
#
# Mechanical properties :
#
#
# Convention : Reuss Voigt Hill
#
# Bulk Modulus (GPa) = 80.01143 84.80509 82.40826
# Shear Modulus (GPa) = 36.32884 39.61579 37.97231
#
# Velocity S-wave (km/s) = 3.81628 3.98518 3.90165
# Velocity P-wave (km/s) = 7.17598 7.42788 7.30301
#
# Compressibility (1/GPa) = 0.01249821
#
# Stress axis : x y z
#
# Youngs Moduli (GPa) = 120.91516 120.91516 115.38558
#
# Poissons Ratio (x) = 0.47135 0.14171
# Poissons Ratio (y) = 0.47135 0.14171
# Poissons Ratio (z) = 0.14850 0.14850
#
# Static dielectric constant tensor:
#      x y z
#    x 4.728850 0.000000 0.000000 
#    y 0.000000 4.728850 0.000000 
#    z 0.000000 0.000000 4.608940 
# 
# 
# High freq. dielectric constant tensor:
#      x y z
#    x 2.013230 0.000000 0.000000 
#    y 0.000000 2.013230 0.000000 
#    z 0.000000 0.000000 1.986760 
# 
# From -- ./inp_files/4380.got.cif
#   From: 2010.03.12/outbox.cif.g09.slc.cpg/sg179_3_cif.got.tgz:4380.got - 2010.04.02 07:08:42.
