data_PCOD8326648
_publ_section_title
;
Structure prediction by ZEFSAII (Michael W. Deem and Ramdas Pophale) SiO2 
 PCOD8326648
Probable space group: P 63 C M
;
_chemical_formula_sum "Si O2"
_cell_formula_units_Z 72
_cell_length_a 14.245959
_cell_length_b 14.245959
_cell_length_c 20.356649
_cell_angle_alpha 90.000000
_cell_angle_beta 90.000000
_cell_angle_gamma 120.000000
_cell_volume 3577.834935
_symmetry_space_group_name_H-M "P 63 C M"
_symmetry_group_IT_number 185
_symmetry_cell_setting 'hexagonal'
loop_
_space_group_symop_operation_xyz
x,y,z
x-y,x,1/2+z
-y,x-y,z
-x,-y,1/2+z
-x+y,-x,z
y,-x+y,1/2+z
-x+y,y,1/2+z
x,x-y,1/2+z
-y,-x,1/2+z
y,x,z
x-y,-y,z
-x,-x+y,z
loop_
_atom_site_type_symbol
_atom_site_label
_atom_site_fract_x
_atom_site_fract_y
_atom_site_fract_z
Si Si1 0.214121 0.663893 0.711380
Si Si2 0.338330 0.124465 0.276620
Si Si3 0.745317 0.873049 0.910732
Si Si4 0.195378 0.413881 0.528524
Si Si5 0.873612 0.121417 0.143742
Si Si6 0.580633 0.123773 0.570297
O O1 0.226699 0.558635 0.723590
O O2 0.137966 0.680556 0.762981
O O3 0.177692 0.652101 0.635838
O O4 0.324478 0.176218 0.343641
O O5 0.305864 0.170629 0.213875
O O6 0.253482 0.000000 0.284121
O O7 0.806421 0.806421 0.928685
O O8 0.835640 0.000000 0.905522
O O9 0.657175 0.860203 0.964413
O O10 0.142136 0.336413 0.590152
O O11 0.177183 0.516213 0.537689
O O12 0.324873 0.463190 0.520383
O O13 0.000000 0.205494 0.133682
O O14 0.852603 0.000000 0.137982
O O15 0.495609 0.000000 0.585310
#
# Coordination Sequence:
#
# PCOD8326648 Si02
#       6
#    12  12  12  12  12  12
#     4  10  19  37  61  90 121 159 207 257 313 373
#     4  10  21  39  62  89 126 167 210 260 319 389
#     4  11  24  44  66  93 130 173 218 267 329 398
#     4  12  24  41  62  94 123 165 216 270 323 393
#     4  11  21  36  60  92 126 159 202 259 320 384
#     4  12  21  37  63  90 125 167 208 261 322 379
#
# _framework density 20.123902000000001
#
# number of rings (size 3 to 8) (size 9 to 14) (size 15 to 20)
#    0.333    0.667    3.333    4.667    0.000    0.000 
#    3.000    5.833    0.000    0.000    0.000    0.000 
#    0.000    0.000    0.000    0.000    0.000    0.000 
#
# Total GULP energy -892243.466341 kJ/mol
# GULP energy per Si atom -12392.270366 kJ/mol
# Density = 2.007810 g / cm^3
# Si number density = 20.123902 Si / 1000 Ang^3
#
#
#
# Elastic Constant Matrix: (Units=GPa)
#
#
# Indices 1 2 3 4 5 6 
#
# 1 86.4984 11.0306 43.0240 0.0000 0.0000 0.0000
# 2 11.0306 86.4984 43.0240 0.0000 0.0000 0.0000
# 3 43.0240 43.0240 116.5013 0.0000 0.0000 0.0000
# 4 0.0000 0.0000 0.0000 26.9707 0.0000 0.0000
# 5 0.0000 0.0000 0.0000 0.0000 26.9707 0.0000
# 6 0.0000 0.0000 0.0000 0.0000 0.0000 37.7339
#
#
#
# Elastic Compliance Matrix: (Units=1/GPa)
#
#
# Indices 1 2 3 4 5 6 
#
# 1 0.014230 0.000979 -0.005617 0.000000 0.000000 0.000000
# 2 0.000979 0.014230 -0.005617 0.000000 0.000000 0.000000
# 3 -0.005617 -0.005617 0.012732 0.000000 0.000000 0.000000
# 4 0.000000 0.000000 0.000000 0.037077 0.000000 0.000000
# 5 0.000000 0.000000 0.000000 0.000000 0.037077 0.000000
# 6 0.000000 0.000000 0.000000 0.000000 0.000000 0.026501
#
#
# Mechanical properties :
#
#
# Convention : Reuss Voigt Hill
#
# Bulk Modulus (GPa) = 48.34852 53.73949 51.04401
# Shear Modulus (GPa) = 29.54206 31.16302 30.35254
#
# Velocity S-wave (km/s) = 3.83562 3.93944 3.88788
# Velocity P-wave (km/s) = 6.61011 6.88873 6.75085
#
# Compressibility (1/GPa) = 0.02068316
#
# Stress axis : x y z
#
# Youngs Moduli (GPa) = 70.27536 70.27536 78.54201
#
# Poissons Ratio (x) = -0.06880 0.44114
# Poissons Ratio (y) = -0.06880 0.44114
# Poissons Ratio (z) = 0.39471 0.39471
#
# Static dielectric constant tensor:
#      x y z
#    x 3.638020 0.000000 0.000000 
#    y 0.000000 3.638020 0.000000 
#    z 0.000000 0.000000 3.776790 
# 
# 
# High freq. dielectric constant tensor:
#      x y z
#    x 1.788670 0.000000 0.000000 
#    y 0.000000 1.788670 0.000000 
#    z 0.000000 0.000000 1.768470 
# 
# From -- ./inp_files/1715.got.cif
#   From: 2010.03.12/outbox.cif.g09.slc.cpg/sg185_cif.got.tgz:1715.got - 2010.04.01 11:55:19.
