data_PCOD8326051
_publ_section_title
;
Structure prediction by ZEFSAII (Michael W. Deem and Ramdas Pophale) SiO2 
 PCOD8326051
Probable space group: P 65 2 2
;
_chemical_formula_sum "Si O2"
_cell_formula_units_Z 84
_cell_length_a 14.581153
_cell_length_b 14.581153
_cell_length_c 21.809362
_cell_angle_alpha 90.000000
_cell_angle_beta 90.000000
_cell_angle_gamma 120.000000
_cell_volume 4015.663627
_symmetry_space_group_name_H-M "P 65 2 2"
_symmetry_group_IT_number 179
_symmetry_cell_setting 'hexagonal'
loop_
_space_group_symop_operation_xyz
x,y,z
x-y,x,5/6+z
-y,x-y,2/3+z
-x,-y,1/2+z
-x+y,-x,1/3+z
y,-x+y,1/6+z
x-y,-y,-z
-x,-x+y,1/3-z
y,x,2/3-z
-y,-x,1/6-z
-x+y,y,1/2-z
x,x-y,5/6-z
loop_
_atom_site_type_symbol
_atom_site_label
_atom_site_fract_x
_atom_site_fract_y
_atom_site_fract_z
Si Si1 0.731319 0.634300 0.129467
Si Si2 0.892331 0.165293 0.890989
Si Si3 0.723893 0.528598 0.003280
Si Si4 0.517753 0.821897 0.470114
Si Si5 0.822056 0.937707 0.850509
Si Si6 0.403583 0.603085 0.925364
Si Si7 0.496214 0.037088 0.878356
O O1 0.770921 0.757823 0.128827
O O2 0.724110 0.595302 0.060875
O O3 0.815286 0.618775 0.170539
O O4 0.611371 0.571419 0.154876
O O5 0.820078 0.216045 0.874528
O O6 0.859739 0.060744 0.851950
O O7 0.881298 0.147038 0.964361
O O8 0.740331 0.432550 0.025816
O O9 0.617437 0.490830 0.964672
O O10 0.464369 0.732184 0.416667
O O11 0.438468 0.796965 0.525140
O O12 0.548562 0.935463 0.440143
O O13 0.921251 0.921251 0.833334
O O14 0.772552 0.886276 0.916667
O O15 0.462044 0.731022 0.916667
O O16 0.483266 0.562589 0.947242
#
# Coordination Sequence:
#
# PCOD8326051 Si02
#       7
#    12  12  12  12  12  12  12
#     4  10  20  39  66  96 122 163 213 266 325 397
#     4  11  19  38  64  94 121 164 221 257 323 389
#     4  11  22  40  67  93 125 171 216 272 323 397
#     4   9  20  39  63  88 125 164 207 268 337 381
#     4   9  20  38  59  86 129 167 200 262 320 382
#     4  11  22  41  63  91 131 173 218 270 328 393
#     4  11  22  41  63  95 133 166 217 270 335 397
#
# _framework density 20.918087
#
# number of rings (size 3 to 8) (size 9 to 14) (size 15 to 20)
#    0.000    1.714    2.857    3.429    0.000    0.000 
#    2.571   15.714    0.000    0.000    0.000    0.000 
#    0.000    0.000    0.000    0.000    0.000    0.000 
#
# Total GULP energy -1041172.684946 kJ/mol
# GULP energy per Si atom -12394.912916 kJ/mol
# Density = 2.087048 g / cm^3
# Si number density = 20.918087 Si / 1000 Ang^3
#
#
#
# Elastic Constant Matrix: (Units=GPa)
#
#
# Indices 1 2 3 4 5 6 
#
# 1 85.7132 32.9513 29.8793 0.0000 0.0000 0.0000
# 2 32.9513 85.7132 29.8793 0.0000 0.0000 0.0000
# 3 29.8793 29.8793 108.7411 0.0000 0.0000 0.0000
# 4 0.0000 0.0000 0.0000 18.3767 0.0000 0.0000
# 5 0.0000 0.0000 0.0000 0.0000 18.3767 0.0000
# 6 0.0000 0.0000 0.0000 0.0000 0.0000 26.3809
#
#
#
# Elastic Compliance Matrix: (Units=1/GPa)
#
#
# Indices 1 2 3 4 5 6 
#
# 1 0.014367 -0.004586 -0.002687 0.000000 0.000000 0.000000
# 2 -0.004586 0.014367 -0.002687 0.000000 0.000000 0.000000
# 3 -0.002687 -0.002687 0.010673 0.000000 0.000000 0.000000
# 4 0.000000 0.000000 0.000000 0.054417 0.000000 0.000000
# 5 0.000000 0.000000 0.000000 0.000000 0.054417 0.000000
# 6 0.000000 0.000000 0.000000 0.000000 0.000000 0.037906
#
#
# Mechanical properties :
#
#
# Convention : Reuss Voigt Hill
#
# Bulk Modulus (GPa) = 51.32336 51.73188 51.52762
# Shear Modulus (GPa) = 23.52242 25.12405 24.32323
#
# Velocity S-wave (km/s) = 3.35700 3.46940 3.41366
# Velocity P-wave (km/s) = 6.29401 6.39010 6.34224
#
# Compressibility (1/GPa) = 0.01948430
#
# Stress axis : x y z
#
# Youngs Moduli (GPa) = 69.60499 69.60499 93.69409
#
# Poissons Ratio (x) = 0.31923 0.25180
# Poissons Ratio (y) = 0.31923 0.25180
# Poissons Ratio (z) = 0.18706 0.18706
#
# Static dielectric constant tensor:
#      x y z
#    x 3.684330 0.000000 0.000000 
#    y 0.000000 3.684330 0.000000 
#    z 0.000000 0.000000 4.013900 
# 
# 
# High freq. dielectric constant tensor:
#      x y z
#    x 1.803490 0.000000 0.000000 
#    y 0.000000 1.803490 0.000000 
#    z 0.000000 0.000000 1.835480 
# 
# From -- ./inp_files/8365.got.cif
#   From: 2010.03.12/outbox.cif.g09.slc.cpg/sg179_5_cif.got.tgz:8365.got - 2010.04.02 07:08:42.
