data_PCOD8326089
_publ_section_title
;
Structure prediction by ZEFSAII (Michael W. Deem and Ramdas Pophale) SiO2 
 PCOD8326089
Probable space group: P 65 2 2
;
_chemical_formula_sum "Si O2"
_cell_formula_units_Z 36
_cell_length_a 7.332339
_cell_length_b 7.332339
_cell_length_c 35.043573
_cell_angle_alpha 90.000000
_cell_angle_beta 90.000000
_cell_angle_gamma 120.000000
_cell_volume 1631.639021
_symmetry_space_group_name_H-M "P 65 2 2"
_symmetry_group_IT_number 179
_symmetry_cell_setting 'hexagonal'
loop_
_space_group_symop_operation_xyz
x,y,z
x-y,x,5/6+z
-y,x-y,2/3+z
-x,-y,1/2+z
-x+y,-x,1/3+z
y,-x+y,1/6+z
x-y,-y,-z
-x,-x+y,1/3-z
y,x,2/3-z
-y,-x,1/6-z
-x+y,y,1/2-z
x,x-y,5/6-z
loop_
_atom_site_type_symbol
_atom_site_label
_atom_site_fract_x
_atom_site_fract_y
_atom_site_fract_z
Si Si1 0.469585 0.999807 0.120498
Si Si2 0.775476 0.785203 0.654399
Si Si3 0.111817 0.585711 0.706523
O O1 0.681576 0.049437 0.142252
O O2 0.512628 0.046878 0.075217
O O3 0.311200 0.755009 0.125403
O O4 0.378236 0.140690 0.137525
O O5 0.813115 0.646733 0.622876
O O6 0.000000 0.986067 0.666667
O O7 0.000000 0.492425 0.666667
#
# Coordination Sequence:
#
# PCOD8326089 Si02
#       3
#    12  12  12
#     4  11  23  45  69 101 139 179 229 284 342 417
#     4  11  24  44  71  99 135 178 233 278 347 403
#     4  10  24  43  67 103 135 179 230 279 347 407
#
# _framework density 22.063704000000001
#
# number of rings (size 3 to 8) (size 9 to 14) (size 15 to 20)
#    0.000    1.333    3.333    1.000    0.000   13.333 
#    0.000    0.000    0.000    0.000    0.000    0.000 
#    0.000    0.000    0.000    0.000    0.000    0.000 
#
# Total GULP energy -446365.542578 kJ/mol
# GULP energy per Si atom -12399.042849 kJ/mol
# Density = 2.201349 g / cm^3
# Si number density = 22.063704 Si / 1000 Ang^3
#
#
#
# Elastic Constant Matrix: (Units=GPa)
#
#
# Indices 1 2 3 4 5 6 
#
# 1 87.1851 34.2075 58.9284 0.0000 0.0000 0.0000
# 2 34.2075 87.1851 58.9284 0.0000 0.0000 0.0000
# 3 58.9284 58.9284 177.1572 0.0000 0.0000 0.0000
# 4 0.0000 0.0000 0.0000 24.8639 0.0000 0.0000
# 5 0.0000 0.0000 0.0000 0.0000 24.8639 0.0000
# 6 0.0000 0.0000 0.0000 0.0000 0.0000 26.4888
#
#
#
# Elastic Compliance Matrix: (Units=1/GPa)
#
#
# Indices 1 2 3 4 5 6 
#
# 1 0.015521 -0.003354 -0.004047 0.000000 0.000000 0.000000
# 2 -0.003354 0.015521 -0.004047 0.000000 0.000000 0.000000
# 3 -0.004047 -0.004047 0.008337 0.000000 0.000000 0.000000
# 4 0.000000 0.000000 0.000000 0.040219 0.000000 0.000000
# 5 0.000000 0.000000 0.000000 0.000000 0.040219 0.000000
# 6 0.000000 0.000000 0.000000 0.000000 0.000000 0.037752
#
#
# Mechanical properties :
#
#
# Convention : Reuss Voigt Hill
#
# Bulk Modulus (GPa) = 60.67027 72.85065 66.76046
# Shear Modulus (GPa) = 26.88731 28.54087 27.71409
#
# Velocity S-wave (km/s) = 3.49466 3.60052 3.54799
# Velocity P-wave (km/s) = 6.62126 7.09753 6.86353
#
# Compressibility (1/GPa) = 0.01648254
#
# Stress axis : x y z
#
# Youngs Moduli (GPa) = 64.42701 64.42701 119.94527
#
# Poissons Ratio (x) = 0.21612 0.48544
# Poissons Ratio (y) = 0.21612 0.48544
# Poissons Ratio (z) = 0.26075 0.26075
#
# Static dielectric constant tensor:
#      x y z
#    x 4.110940 0.000000 0.000000 
#    y 0.000000 4.110940 0.000000 
#    z 0.000000 0.000000 3.800360 
# 
# 
# High freq. dielectric constant tensor:
#      x y z
#    x 1.874960 0.000000 0.000000 
#    y 0.000000 1.874960 0.000000 
#    z 0.000000 0.000000 1.871720 
# 
# From -- ./inp_files/8564.got.cif
#   From: 2010.03.12/outbox.cif.g09.slc.cpg/sg179_5_cif.got.tgz:8564.got - 2010.04.02 07:08:42.
