data_PCOD8326472
_publ_section_title
;
Structure prediction by ZEFSAII (Michael W. Deem and Ramdas Pophale) SiO2 
 PCOD8326472
Probable space group: P 63 2 2
;
_chemical_formula_sum "Si O2"
_cell_formula_units_Z 70
_cell_length_a 14.610644
_cell_length_b 14.610644
_cell_length_c 17.645149
_cell_angle_alpha 90.000000
_cell_angle_beta 90.000000
_cell_angle_gamma 120.000000
_cell_volume 3262.080541
_symmetry_space_group_name_H-M "P 63 2 2"
_symmetry_group_IT_number 182
_symmetry_cell_setting 'hexagonal'
loop_
_space_group_symop_operation_xyz
x,y,z
x-y,x,1/2+z
-y,x-y,z
-x,-y,1/2+z
-x+y,-x,z
y,-x+y,1/2+z
x-y,-y,-z
-x,-x+y,-z
y,x,-z
-y,-x,1/2-z
-x+y,y,1/2-z
x,x-y,1/2-z
loop_
_atom_site_type_symbol
_atom_site_label
_atom_site_fract_x
_atom_site_fract_y
_atom_site_fract_z
Si Si1 0.189726 0.766066 0.452391
Si Si2 0.780164 0.217255 0.119932
Si Si3 0.428678 0.910989 0.440282
Si Si4 0.143197 0.286393 0.750000
Si Si5 0.666668 0.333334 0.159338
Si Si6 0.534927 0.573021 0.817431
Si Si7 0.232548 0.305662 0.307922
O O1 0.201824 0.817111 0.536611
O O2 0.309743 0.819041 0.423841
O O3 0.139957 0.640730 0.462145
O O4 0.117345 0.792218 0.395533
O O5 0.774355 0.135721 0.184507
O O6 0.679056 0.235261 0.126792
O O7 0.880816 0.331248 0.132383
O O8 0.440936 0.000000 0.500000
O O9 0.465308 0.975404 0.362980
O O10 0.188384 0.217905 0.708302
O O11 0.666668 0.333334 0.250000
O O12 0.451569 0.548431 0.750000
O O13 0.650343 0.603988 0.786382
O O14 0.161431 0.322862 0.250000
#
# Coordination Sequence:
#
# PCOD8326472 Si02
#       7
#    12  12  12   6   4  12  12
#     4  11  23  39  64  91 136 176 226 274 335 415
#     4  11  22  36  58  93 132 176 212 267 333 401
#     4  11  22  39  61  93 131 176 223 274 330 399
#     4  10  24  40  64  86 124 158 220 280 342 398
#     4  12  21  33  57  96 145 185 220 261 324 414
#     4  10  21  36  60  86 129 167 207 265 320 382
#     4  10  23  43  64  90 121 164 219 276 337 401
#
# _framework density 21.458697000000001
#
# number of rings (size 3 to 8) (size 9 to 14) (size 15 to 20)
#    0.000    1.371    2.571    2.914    2.400    1.371 
#    0.514    0.000    0.000    5.486    0.000    0.000 
#    0.000    0.000    0.000    0.000    0.000    0.000 
#
# Total GULP energy -867246.434538 kJ/mol
# GULP energy per Si atom -12389.234779 kJ/mol
# Density = 2.140986 g / cm^3
# Si number density = 21.458697 Si / 1000 Ang^3
#
#
#
# Elastic Constant Matrix: (Units=GPa)
#
#
# Indices 1 2 3 4 5 6 
#
# 1 71.0648 13.6002 35.3110 0.0000 0.0001 0.0001
# 2 13.6002 71.0652 35.3112 0.0000 0.0000 0.0001
# 3 35.3110 35.3112 137.2898 0.0001 0.0001 0.0001
# 4 0.0000 0.0000 0.0001 35.0356 0.0001 0.0000
# 5 0.0001 0.0000 0.0001 0.0001 35.0355 0.0000
# 6 0.0001 0.0001 0.0001 0.0000 0.0000 28.7324
#
#
#
# Elastic Compliance Matrix: (Units=1/GPa)
#
#
# Indices 1 2 3 4 5 6 
#
# 1 0.016220 -0.001182 -0.003868 0.000000 0.000000 0.000000
# 2 -0.001182 0.016220 -0.003868 0.000000 0.000000 0.000000
# 3 -0.003868 -0.003868 0.009273 0.000000 0.000000 0.000000
# 4 0.000000 0.000000 0.000000 0.028542 0.000000 0.000000
# 5 0.000000 0.000000 0.000000 0.000000 0.028542 0.000000
# 6 0.000000 0.000000 0.000000 0.000000 0.000000 0.034804
#
#
# Mechanical properties :
#
#
# Convention : Reuss Voigt Hill
#
# Bulk Modulus (GPa) = 41.88028 49.76272 45.82150
# Shear Modulus (GPa) = 31.36847 32.77387 32.07117
#
# Velocity S-wave (km/s) = 3.82751 3.91231 3.87014
# Velocity P-wave (km/s) = 6.25237 6.60670 6.43198
#
# Compressibility (1/GPa) = 0.02387759
#
# Stress axis : x y z
#
# Youngs Moduli (GPa) = 61.65348 61.65373 107.83557
#
# Poissons Ratio (x) = 0.07289 0.41707
# Poissons Ratio (y) = 0.07289 0.41707
# Poissons Ratio (z) = 0.23845 0.23845
#
# Static dielectric constant tensor:
#      x y z
#    x 3.897630 0.000000 0.000000 
#    y 0.000000 3.897630 0.000000 
#    z 0.000000 0.000000 4.079090 
# 
# 
# High freq. dielectric constant tensor:
#      x y z
#    x 1.825910 0.000000 0.000000 
#    y 0.000000 1.825910 0.000000 
#    z 0.000000 0.000000 1.853290 
# 
# From -- ./inp_files/4386.got.cif
#   From: 2010.03.12/outbox.cif.g09.slc.cpg/sg182_3_cif.got.tgz:4386.got - 2010.04.01 11:49:36.
