data_PCOD8326380
_publ_section_title
;
Structure prediction by ZEFSAII (Michael W. Deem and Ramdas Pophale) SiO2 
 PCOD8326380
Probable space group: P 64 2 2
;
_chemical_formula_sum "Si O2"
_cell_formula_units_Z 54
_cell_length_a 11.850100
_cell_length_b 11.850100
_cell_length_c 20.049212
_cell_angle_alpha 90.000000
_cell_angle_beta 90.000000
_cell_angle_gamma 120.000000
_cell_volume 2438.214840
_symmetry_space_group_name_H-M "P 64 2 2"
_symmetry_group_IT_number 181
_symmetry_cell_setting 'hexagonal'
loop_
_space_group_symop_operation_xyz
x,y,z
x-y,x,2/3+z
-y,x-y,1/3+z
-x,-y,z
-x+y,-x,2/3+z
y,-x+y,1/3+z
x-y,-y,-z
-x,-x+y,2/3-z
y,x,1/3-z
-y,-x,1/3-z
-x+y,y,-z
x,x-y,2/3-z
loop_
_atom_site_type_symbol
_atom_site_label
_atom_site_fract_x
_atom_site_fract_y
_atom_site_fract_z
Si Si1 0.943714 0.135580 0.973745
Si Si2 0.467320 0.196626 0.190833
Si Si3 0.760318 0.000000 0.500000
Si Si4 0.948424 0.594487 0.607576
Si Si5 0.281632 0.666540 0.258289
O O1 0.955054 0.137382 0.894056
O O2 0.940397 0.262491 0.998361
O O3 0.073215 0.146429 0.000000
O O4 0.819656 0.000000 0.000000
O O5 0.382663 0.263760 0.178794
O O6 0.567004 0.290794 0.247498
O O7 0.549269 0.192617 0.126086
O O8 0.370352 0.048467 0.215252
O O9 0.802137 0.519178 0.576915
O O10 0.000000 0.500000 0.636175
O O11 0.235688 0.617844 0.333334
#
# Coordination Sequence:
#
# PCOD8326380 Si02
#       5
#    12  12   6  12  12
#     4  11  25  47  70 106 147 188 238 304 366 435
#     4  10  23  42  68 105 134 186 239 290 370 424
#     4  12  24  44  74 104 138 182 243 301 350 454
#     4  10  22  44  72  96 146 190 234 300 372 434
#     4  10  22  42  69 100 139 185 239 299 358 434
#
# _framework density 22.147351
#
# number of rings (size 3 to 8) (size 9 to 14) (size 15 to 20)
#    0.000    1.556    2.222    1.333    6.222    3.556 
#   20.000    0.000    0.000    0.000    0.000    0.000 
#    0.000    0.000    0.000    0.000    0.000    0.000 
#
# Total GULP energy -669062.348106 kJ/mol
# GULP energy per Si atom -12390.043483 kJ/mol
# Density = 2.209694 g / cm^3
# Si number density = 22.147351 Si / 1000 Ang^3
#
#
#
# Elastic Constant Matrix: (Units=GPa)
#
#
# Indices 1 2 3 4 5 6 
#
# 1 116.5940 42.3861 48.6937 0.0000 0.0000 0.0000
# 2 42.3861 116.5940 48.6937 0.0000 0.0000 0.0000
# 3 48.6937 48.6937 150.0258 0.0000 0.0000 0.0000
# 4 0.0000 0.0000 0.0000 35.5089 0.0000 0.0000
# 5 0.0000 0.0000 0.0000 0.0000 35.5089 0.0000
# 6 0.0000 0.0000 0.0000 0.0000 0.0000 37.1039
#
#
#
# Elastic Compliance Matrix: (Units=1/GPa)
#
#
# Indices 1 2 3 4 5 6 
#
# 1 0.010663 -0.002812 -0.002548 0.000000 0.000000 0.000000
# 2 -0.002812 0.010663 -0.002548 0.000000 0.000000 0.000000
# 3 -0.002548 -0.002548 0.008320 0.000000 0.000000 0.000000
# 4 0.000000 0.000000 0.000000 0.028162 0.000000 0.000000
# 5 0.000000 0.000000 0.000000 0.000000 0.028162 0.000000
# 6 0.000000 0.000000 0.000000 0.000000 0.000000 0.026951
#
#
# Mechanical properties :
#
#
# Convention : Reuss Voigt Hill
#
# Bulk Modulus (GPa) = 72.31207 73.64009 72.97608
# Shear Modulus (GPa) = 37.49568 37.85370 37.67469
#
# Velocity S-wave (km/s) = 4.11908 4.13870 4.12890
# Velocity P-wave (km/s) = 7.43934 7.49405 7.46674
#
# Compressibility (1/GPa) = 0.01382895
#
# Stress axis : x y z
#
# Youngs Moduli (GPa) = 93.77899 93.77899 120.19718
#
# Poissons Ratio (x) = 0.26373 0.30629
# Poissons Ratio (y) = 0.26373 0.30629
# Poissons Ratio (z) = 0.23897 0.23897
#
# Static dielectric constant tensor:
#      x y z
#    x 4.268700 0.000000 0.000000 
#    y 0.000000 4.268700 0.000000 
#    z 0.000000 0.000000 2.660310 
# 
# 
# High freq. dielectric constant tensor:
#      x y z
#    x 1.869130 0.000000 0.000000 
#    y 0.000000 1.869130 0.000000 
#    z 0.000000 0.000000 1.868440 
# 
# From -- ./inp_files/8777.got.cif
#   From: 2010.03.12/outbox.cif.g09.slc.cpg/sg181_5_cif.got.tgz:8777.got - 2010.04.01 11:42:41.
