data_PCOD8326152
_publ_section_title
;
Structure prediction by ZEFSAII (Michael W. Deem and Ramdas Pophale) SiO2 
 PCOD8326152
Probable space group: P 62 2 2
;
_chemical_formula_sum "Si O2"
_cell_formula_units_Z 48
_cell_length_a 25.354873
_cell_length_b 25.354873
_cell_length_c 5.091960
_cell_angle_alpha 90.000000
_cell_angle_beta 90.000000
_cell_angle_gamma 120.000000
_cell_volume 2834.904897
_symmetry_space_group_name_H-M "P 62 2 2"
_symmetry_group_IT_number 180
_symmetry_cell_setting 'hexagonal'
loop_
_space_group_symop_operation_xyz
x,y,z
x-y,x,1/3+z
-y,x-y,2/3+z
-x,-y,z
-x+y,-x,1/3+z
y,-x+y,2/3+z
x-y,-y,-z
-x,-x+y,1/3-z
y,x,2/3-z
-y,-x,2/3-z
-x+y,y,-z
x,x-y,1/3-z
loop_
_atom_site_type_symbol
_atom_site_label
_atom_site_fract_x
_atom_site_fract_y
_atom_site_fract_z
Si Si1 0.660056 0.587919 0.338239
Si Si2 0.522698 0.594730 0.826341
Si Si3 0.960535 0.805219 0.914142
Si Si4 0.329033 0.129903 0.910347
O O1 0.635032 0.635032 0.333334
O O2 0.641888 0.547702 0.600628
O O3 0.732056 0.623953 0.314294
O O4 0.632935 0.539420 0.105437
O O5 0.553531 0.553531 0.833334
O O6 0.449554 0.550447 0.833334
O O7 0.927731 0.734942 0.834055
O O8 0.000000 0.845626 0.666667
O O9 0.913711 0.827421 0.000000
O O10 0.000000 0.810401 0.166667
O O11 0.354133 0.177067 0.666667
O O12 0.318138 0.159069 0.166667
#
# Coordination Sequence:
#
# PCOD8326152 Si02
#       4
#    12  12  12  12
#     4  10  19  30  48  69  95 132 166 196 231 278
#     4   9  17  29  45  68  96 127 162 194 223 259
#     4  11  22  37  56  76  97 124 161 207 257 313
#     4  11  22  35  50  73 102 132 166 204 247 294
#
# _framework density 16.931784
#
# number of rings (size 3 to 8) (size 9 to 14) (size 15 to 20)
#    0.000    1.750    0.000    6.750    0.000    6.000 
#    0.000    0.000    0.000    3.750    0.000    0.000 
#    0.000    0.000    0.000   94.500    0.000    0.000 
#
# Total GULP energy -595255.926196 kJ/mol
# GULP energy per Si atom -12401.165129 kJ/mol
# Density = 1.689325 g / cm^3
# Si number density = 16.931784 Si / 1000 Ang^3
#
#
#
# Elastic Constant Matrix: (Units=GPa)
#
#
# Indices 1 2 3 4 5 6 
#
# 1 86.7679 61.4988 52.2664 0.0000 0.0000 0.0000
# 2 61.4988 86.7679 52.2664 0.0000 0.0000 0.0000
# 3 52.2664 52.2664 145.6784 0.0000 0.0000 0.0000
# 4 0.0000 0.0000 0.0000 22.3371 0.0000 0.0000
# 5 0.0000 0.0000 0.0000 0.0000 22.3371 0.0000
# 6 0.0000 0.0000 0.0000 0.0000 0.0000 12.6346
#
#
#
# Elastic Compliance Matrix: (Units=1/GPa)
#
#
# Indices 1 2 3 4 5 6 
#
# 1 0.024301 -0.015273 -0.003239 0.000000 0.000000 0.000000
# 2 -0.015273 0.024301 -0.003239 0.000000 0.000000 0.000000
# 3 -0.003239 -0.003239 0.009189 0.000000 0.000000 0.000000
# 4 0.000000 0.000000 0.000000 0.044769 0.000000 0.000000
# 5 0.000000 0.000000 0.000000 0.000000 0.044769 0.000000
# 6 0.000000 0.000000 0.000000 0.000000 0.000000 0.079148
#
#
# Mechanical properties :
#
#
# Convention : Reuss Voigt Hill
#
# Bulk Modulus (GPa) = 69.98549 72.36417 71.17483
# Shear Modulus (GPa) = 18.19894 21.67394 19.93644
#
# Velocity S-wave (km/s) = 3.28203 3.58169 3.43513
# Velocity P-wave (km/s) = 7.46899 7.74184 7.60664
#
# Compressibility (1/GPa) = 0.01428868
#
# Stress axis : x y z
#
# Youngs Moduli (GPa) = 41.15031 41.15031 108.82891
#
# Poissons Ratio (x) = 0.62848 0.35252
# Poissons Ratio (y) = 0.62848 0.35252
# Poissons Ratio (z) = 0.13329 0.13329
#
# Static dielectric constant tensor:
#      x y z
#    x 3.043230 0.000000 0.000000 
#    y 0.000000 3.043230 0.000000 
#    z 0.000000 0.000000 3.282690 
# 
# 
# High freq. dielectric constant tensor:
#      x y z
#    x 1.629440 0.000000 0.000000 
#    y 0.000000 1.629440 0.000000 
#    z 0.000000 0.000000 1.683730 
# 
# From -- ./inp_files/1103.got.cif
#   From: 2010.03.12/outbox.cif.g09.slc.cpg/sg180_1_cif.got.tgz:1103.got - 2010.04.01 11:35:50.
