data_PCOD8326069
_publ_section_title
;
Structure prediction by ZEFSAII (Michael W. Deem and Ramdas Pophale) SiO2 
 PCOD8326069
Probable space group: P 65 2 2
;
_chemical_formula_sum "Si O2"
_cell_formula_units_Z 66
_cell_length_a 17.652187
_cell_length_b 17.652187
_cell_length_c 14.314198
_cell_angle_alpha 90.000000
_cell_angle_beta 90.000000
_cell_angle_gamma 120.000000
_cell_volume 3862.733010
_symmetry_space_group_name_H-M "P 65 2 2"
_symmetry_group_IT_number 179
_symmetry_cell_setting 'hexagonal'
loop_
_space_group_symop_operation_xyz
x,y,z
x-y,x,5/6+z
-y,x-y,2/3+z
-x,-y,1/2+z
-x+y,-x,1/3+z
y,-x+y,1/6+z
x-y,-y,-z
-x,-x+y,1/3-z
y,x,2/3-z
-y,-x,1/6-z
-x+y,y,1/2-z
x,x-y,5/6-z
loop_
_atom_site_type_symbol
_atom_site_label
_atom_site_fract_x
_atom_site_fract_y
_atom_site_fract_z
Si Si1 0.250889 0.722152 0.215149
Si Si2 0.742902 0.536837 0.584588
Si Si3 0.122037 0.624333 0.073417
Si Si4 0.980248 0.402080 0.901647
Si Si5 0.709923 0.419846 0.750000
Si Si6 0.926391 0.570820 0.591064
O O1 0.249844 0.731656 0.325198
O O2 0.159290 0.694466 0.159759
O O3 0.335220 0.807938 0.177030
O O4 0.261918 0.639296 0.191691
O O5 0.695883 0.593308 0.564872
O O6 0.693744 0.477411 0.673979
O O7 0.846989 0.591403 0.606004
O O8 0.108211 0.531491 0.107958
O O9 0.031511 0.611637 0.030592
O O10 0.952727 0.476364 0.916667
O O11 0.039663 0.402577 0.986134
O O12 0.000000 0.628159 0.666667
#
# Coordination Sequence:
#
# PCOD8326069 Si02
#       6
#    12  12  12  12   6  12
#     4  11  22  34  54  78 105 139 186 239 272 317
#     4  12  23  37  52  78 105 142 184 231 276 324
#     4  10  22  37  52  76 105 140 181 229 282 318
#     4  10  22  36  53  76 106 141 183 224 274 333
#     4  12  22  30  52  80 100 136 190 234 272 312
#     4  11  22  37  52  73 107 144 182 229 273 320
#
# _framework density 17.086348000000001
#
# number of rings (size 3 to 8) (size 9 to 14) (size 15 to 20)
#    0.000    1.091    3.636    3.818    8.909    0.000 
#    0.000    0.000    0.000    0.000    0.000    0.000 
#    0.000    0.000    0.000   13.091    0.000    0.000 
#
# Total GULP energy -817986.129193 kJ/mol
# GULP energy per Si atom -12393.729230 kJ/mol
# Density = 1.704746 g / cm^3
# Si number density = 17.086348 Si / 1000 Ang^3
#
#
#
# Elastic Constant Matrix: (Units=GPa)
#
#
# Indices 1 2 3 4 5 6 
#
# 1 88.2907 39.1713 19.4640 0.0000 0.0000 0.0000
# 2 39.1713 88.2907 19.4640 0.0000 0.0000 0.0000
# 3 19.4640 19.4640 76.6370 0.0000 0.0000 0.0000
# 4 0.0000 0.0000 0.0000 25.2629 0.0000 0.0000
# 5 0.0000 0.0000 0.0000 0.0000 25.2629 0.0000
# 6 0.0000 0.0000 0.0000 0.0000 0.0000 24.5597
#
#
#
# Elastic Compliance Matrix: (Units=1/GPa)
#
#
# Indices 1 2 3 4 5 6 
#
# 1 0.014432 -0.005927 -0.002160 0.000000 0.000000 0.000000
# 2 -0.005927 0.014432 -0.002160 0.000000 0.000000 0.000000
# 3 -0.002160 -0.002160 0.014146 0.000000 0.000000 0.000000
# 4 0.000000 0.000000 0.000000 0.039584 0.000000 0.000000
# 5 0.000000 0.000000 0.000000 0.000000 0.039584 0.000000
# 6 0.000000 0.000000 0.000000 0.000000 0.000000 0.040717
#
#
# Mechanical properties :
#
#
# Convention : Reuss Voigt Hill
#
# Bulk Modulus (GPa) = 44.41347 45.49074 44.95211
# Shear Modulus (GPa) = 26.19268 26.69172 26.44220
#
# Velocity S-wave (km/s) = 3.91955 3.95671 3.93818
# Velocity P-wave (km/s) = 6.82157 6.89608 6.85893
#
# Compressibility (1/GPa) = 0.02251569
#
# Stress axis : x y z
#
# Youngs Moduli (GPa) = 69.29108 69.29108 70.69257
#
# Poissons Ratio (x) = 0.41067 0.15270
# Poissons Ratio (y) = 0.41067 0.15270
# Poissons Ratio (z) = 0.14968 0.14968
#
# Static dielectric constant tensor:
#      x y z
#    x 3.077910 0.000000 0.000000 
#    y 0.000000 3.077910 0.000000 
#    z 0.000000 0.000000 3.391830 
# 
# 
# High freq. dielectric constant tensor:
#      x y z
#    x 1.622790 0.000000 0.000000 
#    y 0.000000 1.622790 0.000000 
#    z 0.000000 0.000000 1.689360 
# 
# From -- ./inp_files/6007.got.cif
#   From: 2010.03.12/outbox.cif.g09.slc.cpg/sg179_4_cif.got.tgz:6007.got - 2010.04.02 07:08:42.
