data_PCOD8326228
_publ_section_title
;
Structure prediction by ZEFSAII (Michael W. Deem and Ramdas Pophale) SiO2 
 PCOD8326228
Probable space group: P 62 2 2
;
_chemical_formula_sum "Si O2"
_cell_formula_units_Z 51
_cell_length_a 12.204657
_cell_length_b 12.204657
_cell_length_c 20.259280
_cell_angle_alpha 90.000000
_cell_angle_beta 90.000000
_cell_angle_gamma 120.000000
_cell_volume 2613.399451
_symmetry_space_group_name_H-M "P 62 2 2"
_symmetry_group_IT_number 180
_symmetry_cell_setting 'hexagonal'
loop_
_space_group_symop_operation_xyz
x,y,z
x-y,x,1/3+z
-y,x-y,2/3+z
-x,-y,z
-x+y,-x,1/3+z
y,-x+y,2/3+z
x-y,-y,-z
-x,-x+y,1/3-z
y,x,2/3-z
-y,-x,2/3-z
-x+y,y,-z
x,x-y,1/3-z
loop_
_atom_site_type_symbol
_atom_site_label
_atom_site_fract_x
_atom_site_fract_y
_atom_site_fract_z
Si Si1 0.890494 0.535933 0.762036
Si Si2 0.000000 0.000000 0.500000
Si Si3 0.913611 0.114123 0.606326
Si Si4 0.509376 0.876471 0.751286
Si Si5 0.654530 0.309060 0.000000
Si Si6 0.287788 0.143894 0.666667
O O1 0.923942 0.675693 0.741197
O O2 0.847551 0.507598 0.837884
O O3 0.772018 0.457857 0.715857
O O4 0.000000 0.500000 0.747347
O O5 0.878716 0.905908 0.458801
O O6 0.000000 0.125390 0.666667
O O7 0.783250 0.986461 0.624470
O O8 0.387830 0.771072 0.714340
O O9 0.633206 0.884246 0.720265
O O10 0.500000 0.000000 0.739755
#
# Coordination Sequence:
#
# PCOD8326228 Si02
#       6
#    12   3  12  12   6   6
#     4  11  24  41  63  94 125 170 218 270 332 395
#     4  12  22  40  60  98 130 172 210 278 332 402
#     4  12  23  40  63  92 132 165 217 264 332 391
#     4  10  23  40  63  92 125 169 218 268 328 395
#     4  11  21  42  62  86 127 161 214 266 322 389
#     4  11  21  42  64  94 131 173 216 276 332 397
#
# _framework density 19.514811999999999
#
# number of rings (size 3 to 8) (size 9 to 14) (size 15 to 20)
#    0.000    0.941    2.353    5.294    0.000    0.000 
#    4.235    0.000    0.000    4.235    0.000    0.000 
#    0.000    0.000    0.000    0.000    0.000    0.000 
#
# Total GULP energy -631987.582222 kJ/mol
# GULP energy per Si atom -12391.913377 kJ/mol
# Density = 1.947040 g / cm^3
# Si number density = 19.514812 Si / 1000 Ang^3
#
#
#
# Elastic Constant Matrix: (Units=GPa)
#
#
# Indices 1 2 3 4 5 6 
#
# 1 123.0674 67.6979 58.5964 0.0000 0.0000 0.0000
# 2 67.6979 123.0674 58.5964 0.0000 0.0000 0.0000
# 3 58.5964 58.5964 131.8663 0.0000 0.0000 0.0000
# 4 0.0000 0.0000 0.0000 13.1372 0.0000 0.0000
# 5 0.0000 0.0000 0.0000 0.0000 13.1372 0.0000
# 6 0.0000 0.0000 0.0000 0.0000 0.0000 27.6847
#
#
#
# Elastic Compliance Matrix: (Units=1/GPa)
#
#
# Indices 1 2 3 4 5 6 
#
# 1 0.012635 -0.005425 -0.003204 0.000000 0.000000 0.000000
# 2 -0.005425 0.012635 -0.003204 0.000000 0.000000 0.000000
# 3 -0.003204 -0.003204 0.010431 0.000000 0.000000 0.000000
# 4 0.000000 0.000000 0.000000 0.076120 0.000000 0.000000
# 5 0.000000 0.000000 0.000000 0.000000 0.076120 0.000000
# 6 0.000000 0.000000 0.000000 0.000000 0.000000 0.036121
#
#
# Mechanical properties :
#
#
# Convention : Reuss Voigt Hill
#
# Bulk Modulus (GPa) = 83.08688 83.08697 83.08692
# Shear Modulus (GPa) = 19.86178 23.66588 21.76383
#
# Velocity S-wave (km/s) = 3.19373 3.48618 3.34315
# Velocity P-wave (km/s) = 7.50124 7.67290 7.58756
#
# Compressibility (1/GPa) = 0.01203560
#
# Stress axis : x y z
#
# Youngs Moduli (GPa) = 79.14259 79.14259 95.86884
#
# Poissons Ratio (x) = 0.42935 0.30716
# Poissons Ratio (y) = 0.42935 0.30716
# Poissons Ratio (z) = 0.25357 0.25357
#
# Static dielectric constant tensor:
#      x y z
#    x 3.799390 0.000000 0.000000 
#    y 0.000000 3.799390 0.000000 
#    z 0.000000 0.000000 3.835020 
# 
# 
# High freq. dielectric constant tensor:
#      x y z
#    x 1.769310 0.000000 0.000000 
#    y 0.000000 1.769310 0.000000 
#    z 0.000000 0.000000 1.787700 
# 
# From -- ./inp_files/8925.got.cif
#   From: 2010.03.12/outbox.cif.g09.slc.cpg/sg180_5_cif.got.tgz:8925.got - 2010.04.01 11:35:50.
