data_PCOD8326569
_publ_section_title
;
Structure prediction by ZEFSAII (Michael W. Deem and Ramdas Pophale) SiO2 
 PCOD8326569
Probable space group: P 6 C C
;
_chemical_formula_sum "Si O2"
_cell_formula_units_Z 72
_cell_length_a 23.768576
_cell_length_b 23.768576
_cell_length_c 8.617115
_cell_angle_alpha 90.000000
_cell_angle_beta 90.000000
_cell_angle_gamma 120.000000
_cell_volume 4215.982966
_symmetry_space_group_name_H-M "P 6 C C"
_symmetry_group_IT_number 184
_symmetry_cell_setting 'hexagonal'
loop_
_space_group_symop_operation_xyz
x,y,z
x-y,x,z
-y,x-y,z
-x,-y,z
-x+y,-x,z
y,-x+y,z
-x+y,y,1/2+z
x,x-y,1/2+z
-y,-x,1/2+z
y,x,1/2+z
x-y,-y,1/2+z
-x,-x+y,1/2+z
loop_
_atom_site_type_symbol
_atom_site_label
_atom_site_fract_x
_atom_site_fract_y
_atom_site_fract_z
Si Si1 0.399917 0.140992 0.905020
Si Si2 0.069822 0.260409 0.538311
Si Si3 0.260409 0.190587 0.906379
Si Si4 0.523540 0.930203 0.540806
Si Si5 0.741075 0.600083 0.539671
Si Si6 0.930203 0.523540 0.403884
O O1 0.387676 0.140551 0.722345
O O2 0.453546 0.121079 0.945605
O O3 0.332616 0.089513 0.984159
O O4 0.425829 0.212915 0.972345
O O5 0.069242 0.257817 0.722345
O O6 0.119989 0.239978 0.472345
O O7 1.000000 0.209432 0.472345
O O8 0.332616 0.243103 0.960531
O O9 0.546454 0.878921 0.499085
O O10 0.451619 0.903238 0.472345
O O11 0.520839 0.939033 0.722345
O O12 0.574475 0.000000 0.472345
#
# Coordination Sequence:
#
# PCOD8326569 Si02
#       6
#    12  12  12  12  12  12
#     4  10  20  33  50  74 100 130 164 201 245 293
#     4  11  21  34  52  75 102 133 166 203 245 291
#     4  11  21  34  52  75 102 133 166 203 245 291
#     4  10  20  32  49  72  98 128 162 198 242 289
#     4  10  20  33  50  74 100 130 164 201 245 293
#     4  10  20  32  49  72  98 128 162 198 242 289
#
# _framework density 17.077867000000001
#
# number of rings (size 3 to 8) (size 9 to 14) (size 15 to 20)
#    0.000    1.667    0.000    9.000    0.000    8.000 
#    0.000    0.000    0.000    1.000    0.000    2.333 
#    0.000    0.000    0.000    0.000    0.000    0.000 
#
# Total GULP energy -893010.713579 kJ/mol
# GULP energy per Si atom -12402.926577 kJ/mol
# Density = 1.703900 g / cm^3
# Si number density = 17.077867 Si / 1000 Ang^3
#
#
#
# Elastic Constant Matrix: (Units=GPa)
#
#
# Indices 1 2 3 4 5 6 
#
# 1 131.0815 79.1706 67.7833 0.0000 0.0000 0.0000
# 2 79.1706 131.0815 67.7833 0.0000 0.0000 0.0000
# 3 67.7833 67.7833 146.5885 0.0000 0.0000 0.0000
# 4 0.0000 0.0000 0.0000 28.5784 0.0000 0.0000
# 5 0.0000 0.0000 0.0000 0.0000 28.5784 0.0000
# 6 0.0000 0.0000 0.0000 0.0000 0.0000 25.9555
#
#
#
# Elastic Compliance Matrix: (Units=1/GPa)
#
#
# Indices 1 2 3 4 5 6 
#
# 1 0.013020 -0.006244 -0.003134 0.000000 0.000000 0.000000
# 2 -0.006244 0.013020 -0.003134 0.000000 0.000000 0.000000
# 3 -0.003134 -0.003134 0.009720 0.000000 0.000000 0.000000
# 4 0.000000 0.000000 0.000000 0.034991 0.000000 0.000000
# 5 0.000000 0.000000 0.000000 0.000000 0.034991 0.000000
# 6 0.000000 0.000000 0.000000 0.000000 0.000000 0.038528
#
#
# Mechanical properties :
#
#
# Convention : Reuss Voigt Hill
#
# Bulk Modulus (GPa) = 93.11998 93.13621 93.12810
# Shear Modulus (GPa) = 28.92321 29.55675 29.23998
#
# Velocity S-wave (km/s) = 4.11981 4.16469 4.14231
# Velocity P-wave (km/s) = 8.79065 8.81934 8.80501
#
# Compressibility (1/GPa) = 0.01073883
#
# Stress axis : x y z
#
# Youngs Moduli (GPa) = 76.80371 76.80371 102.88313
#
# Poissons Ratio (x) = 0.47953 0.32239
# Poissons Ratio (y) = 0.47953 0.32239
# Poissons Ratio (z) = 0.24067 0.24067
#
# Static dielectric constant tensor:
#      x y z
#    x 3.184230 0.000000 0.000000 
#    y 0.000000 3.184230 0.000000 
#    z 0.000000 0.000000 3.402250 
# 
# 
# High freq. dielectric constant tensor:
#      x y z
#    x 1.650360 0.000000 0.000000 
#    y 0.000000 1.650360 0.000000 
#    z 0.000000 0.000000 1.685020 
# 
# From -- ./inp_files/361.got.cif
#   From: 2010.03.12/outbox.cif.g09.slc.cpg/sg184_cif.got.tgz:361.got - 2010.04.01 11:54:36.
