data_PCOD8326794
_publ_section_title
;
Structure prediction by ZEFSAII (Michael W. Deem and Ramdas Pophale) SiO2 
 PCOD8326794
Probable space group: P 63 M C
;
_chemical_formula_sum "Si O2"
_cell_formula_units_Z 60
_cell_length_a 20.821177
_cell_length_b 20.821177
_cell_length_c 8.709682
_cell_angle_alpha 90.000000
_cell_angle_beta 90.000000
_cell_angle_gamma 120.000000
_cell_volume 3269.967849
_symmetry_space_group_name_H-M "P 63 M C"
_symmetry_group_IT_number 186
_symmetry_cell_setting 'hexagonal'
loop_
_space_group_symop_operation_xyz
x,y,z
x-y,x,1/2+z
-y,x-y,z
-x,-y,1/2+z
-x+y,-x,z
y,-x+y,1/2+z
-x+y,y,z
x,x-y,z
-y,-x,z
y,x,1/2+z
x-y,-y,1/2+z
-x,-x+y,1/2+z
loop_
_atom_site_type_symbol
_atom_site_label
_atom_site_fract_x
_atom_site_fract_y
_atom_site_fract_z
Si Si1 0.082180 0.541090 0.273250
Si Si2 0.082180 0.541090 0.912845
Si Si3 0.295292 0.220794 0.769380
Si Si4 0.074499 0.295292 0.916717
Si Si5 0.700221 0.152798 0.272607
Si Si6 0.299779 0.452575 0.413491
O O1 0.130868 0.626138 0.321988
O O2 1.000000 0.500000 0.343047
O O3 0.071604 0.535802 0.093048
O O4 0.130868 0.504731 0.864110
O O5 0.269718 0.134859 0.785650
O O6 0.309923 0.246659 0.593048
O O7 0.229683 0.229684 0.843047
O O8 0.368752 0.271951 0.865705
O O9 0.134859 0.269718 0.900448
O O10 0.096803 0.368753 0.820393
O O11 0.762837 0.237163 0.314154
O O12 0.682520 0.143974 0.093049
O O13 0.237161 0.474323 0.371943
#
# Coordination Sequence:
#
# PCOD8326794 Si02
#       6
#     6   6  12  12  12  12
#     4  12  24  38  58  82 112 146 186 232 278 330
#     4  12  24  38  58  82 112 146 186 232 278 330
#     4  10  20  34  54  80 109 140 175 217 264 316
#     4  10  20  34  54  80 109 140 175 217 264 316
#     4  10  21  38  58  80 108 142 181 225 273 325
#     4  10  21  38  58  80 108 142 181 225 273 325
#
# _framework density 18.348804999999999
#
# number of rings (size 3 to 8) (size 9 to 14) (size 15 to 20)
#    0.000    1.600    0.000    5.400    0.000    4.800 
#    1.200    0.000    0.000    0.400    0.000    0.000 
#    0.000    0.000    0.000    0.000    0.000    0.000 
#
# Total GULP energy -744214.578153 kJ/mol
# GULP energy per Si atom -12403.576303 kJ/mol
# Density = 1.830704 g / cm^3
# Si number density = 18.348805 Si / 1000 Ang^3
#
#
#
# Elastic Constant Matrix: (Units=GPa)
#
#
# Indices 1 2 3 4 5 6 
#
# 1 104.2392 73.8396 59.8608 0.0000 0.0000 0.0000
# 2 73.8396 104.2392 59.8608 0.0000 0.0000 0.0000
# 3 59.8608 59.8608 126.5052 0.0000 0.0000 0.0000
# 4 0.0000 0.0000 0.0000 32.9695 0.0000 0.0000
# 5 0.0000 0.0000 0.0000 0.0000 32.9695 0.0000
# 6 0.0000 0.0000 0.0000 0.0000 0.0000 15.1998
#
#
#
# Elastic Compliance Matrix: (Units=1/GPa)
#
#
# Indices 1 2 3 4 5 6 
#
# 1 0.020565 -0.012330 -0.003897 0.000000 0.000000 0.000000
# 2 -0.012330 0.020565 -0.003897 0.000000 0.000000 0.000000
# 3 -0.003897 -0.003897 0.011593 0.000000 0.000000 0.000000
# 4 0.000000 0.000000 0.000000 0.030331 0.000000 0.000000
# 5 0.000000 0.000000 0.000000 0.000000 0.030331 0.000000
# 6 0.000000 0.000000 0.000000 0.000000 0.000000 0.065790
#
#
# Mechanical properties :
#
#
# Convention : Reuss Voigt Hill
#
# Bulk Modulus (GPa) = 80.15436 80.23400 80.19418
# Shear Modulus (GPa) = 22.36321 25.65592 24.00956
#
# Velocity S-wave (km/s) = 3.49489 3.74335 3.62126
# Velocity P-wave (km/s) = 7.75011 7.90605 7.82847
#
# Compressibility (1/GPa) = 0.01247593
#
# Stress axis : x y z
#
# Youngs Moduli (GPa) = 48.62577 48.62577 86.26101
#
# Poissons Ratio (x) = 0.59955 0.33615
# Poissons Ratio (y) = 0.59955 0.33615
# Poissons Ratio (z) = 0.18949 0.18949
#
# Static dielectric constant tensor:
#      x y z
#    x 3.435300 0.000000 0.000000 
#    y 0.000000 3.435300 0.000000 
#    z 0.000000 0.000000 3.574330 
# 
# 
# High freq. dielectric constant tensor:
#      x y z
#    x 1.708420 0.000000 0.000000 
#    y 0.000000 1.708420 0.000000 
#    z 0.000000 0.000000 1.733020 
# 
# From -- ./inp_files/999.got.cif
#   From: 2010.03.12/outbox.cif.g09.slc.cpg/sg186_1_cif.got.tgz:999.got - 2010.04.01 11:56:34.
