data_PCOD8326108
_publ_section_title
;
Structure prediction by ZEFSAII (Michael W. Deem and Ramdas Pophale) SiO2 
 PCOD8326108
Probable space group: P 65 2 2
;
_chemical_formula_sum "Si O2"
_cell_formula_units_Z 48
_cell_length_a 16.244445
_cell_length_b 16.244445
_cell_length_c 9.930108
_cell_angle_alpha 90.000000
_cell_angle_beta 90.000000
_cell_angle_gamma 120.000000
_cell_volume 2269.312784
_symmetry_space_group_name_H-M "P 65 2 2"
_symmetry_group_IT_number 179
_symmetry_cell_setting 'hexagonal'
loop_
_space_group_symop_operation_xyz
x,y,z
x-y,x,5/6+z
-y,x-y,2/3+z
-x,-y,1/2+z
-x+y,-x,1/3+z
y,-x+y,1/6+z
x-y,-y,-z
-x,-x+y,1/3-z
y,x,2/3-z
-y,-x,1/6-z
-x+y,y,1/2-z
x,x-y,5/6-z
loop_
_atom_site_type_symbol
_atom_site_label
_atom_site_fract_x
_atom_site_fract_y
_atom_site_fract_z
Si Si1 0.535869 0.185542 0.489318
Si Si2 0.265647 0.734354 0.083334
Si Si3 0.612498 0.828864 0.185777
Si Si4 0.670485 0.991057 0.659329
Si Si5 0.946507 0.473254 0.916667
O O1 0.567451 0.283726 0.416667
O O2 0.620142 0.211094 0.595869
O O3 0.434617 0.144033 0.563431
O O4 0.528332 0.111927 0.378860
O O5 0.223670 0.754626 0.216357
O O6 0.661162 0.769986 0.127372
O O7 0.686883 0.924240 0.265733
O O8 0.582775 0.007146 0.702400
O O9 0.684948 0.000000 0.500000
#
# Coordination Sequence:
#
# PCOD8326108 Si02
#       5
#    12   6  12  12   6
#     4  12  22  40  59  93 134 182 228 268 325 395
#     4  12  21  38  60  94 128 180 226 272 323 398
#     4  12  25  42  67  93 136 180 227 289 347 407
#     4  12  25  44  64  96 131 178 226 285 345 407
#     4  12  25  40  60  94 138 176 228 262 335 404
#
# _framework density 21.151779000000001
#
# number of rings (size 3 to 8) (size 9 to 14) (size 15 to 20)
#    0.000    0.000    7.500    3.000    7.000    0.000 
#    0.000    0.000    0.000    0.000    0.000    0.000 
#   45.000    0.000    0.000    0.000    0.000    0.000 
#
# Total GULP energy -595209.973514 kJ/mol
# GULP energy per Si atom -12400.207782 kJ/mol
# Density = 2.110364 g / cm^3
# Si number density = 21.151779 Si / 1000 Ang^3
#
#
#
# Elastic Constant Matrix: (Units=GPa)
#
#
# Indices 1 2 3 4 5 6 
#
# 1 104.4251 33.0673 27.6327 0.0000 0.0000 0.0000
# 2 33.0673 104.4251 27.6327 0.0000 0.0000 0.0000
# 3 27.6327 27.6327 76.9527 0.0000 0.0000 0.0000
# 4 0.0000 0.0000 0.0000 27.5836 0.0000 0.0000
# 5 0.0000 0.0000 0.0000 0.0000 27.5836 0.0000
# 6 0.0000 0.0000 0.0000 0.0000 0.0000 35.6789
#
#
#
# Elastic Compliance Matrix: (Units=1/GPa)
#
#
# Indices 1 2 3 4 5 6 
#
# 1 0.011257 -0.002757 -0.003052 0.000000 0.000000 0.000000
# 2 -0.002757 0.011257 -0.003052 0.000000 0.000000 0.000000
# 3 -0.003052 -0.003052 0.015187 0.000000 0.000000 0.000000
# 4 0.000000 0.000000 0.000000 0.036253 0.000000 0.000000
# 5 0.000000 0.000000 0.000000 0.000000 0.036253 0.000000
# 6 0.000000 0.000000 0.000000 0.000000 0.000000 0.028028
#
#
# Mechanical properties :
#
#
# Convention : Reuss Voigt Hill
#
# Bulk Modulus (GPa) = 50.05488 51.38535 50.72011
# Shear Modulus (GPa) = 30.74695 31.33389 31.04042
#
# Velocity S-wave (km/s) = 3.81679 3.85305 3.83496
# Velocity P-wave (km/s) = 6.56809 6.64387 6.60609
#
# Compressibility (1/GPa) = 0.01997807
#
# Stress axis : x y z
#
# Youngs Moduli (GPa) = 88.83412 88.83412 65.84567
#
# Poissons Ratio (x) = 0.24491 0.20098
# Poissons Ratio (y) = 0.24491 0.20098
# Poissons Ratio (z) = 0.27114 0.27114
#
# Static dielectric constant tensor:
#      x y z
#    x 3.775470 0.000000 0.000000 
#    y 0.000000 3.775470 0.000000 
#    z 0.000000 0.000000 3.978620 
# 
# 
# High freq. dielectric constant tensor:
#      x y z
#    x 1.807290 0.000000 0.000000 
#    y 0.000000 1.807290 0.000000 
#    z 0.000000 0.000000 1.843460 
# 
# From -- ./inp_files/2888.got.cif
#   From: 2010.03.12/outbox.cif.g09.slc.cpg/sg179_2_cif.got.tgz:2888.got - 2010.04.02 07:08:42.
