data_PCOD8326621
_publ_section_title
;
Structure prediction by ZEFSAII (Michael W. Deem and Ramdas Pophale) SiO2 
 PCOD8326621
Probable space group: P 63 C M
;
_chemical_formula_sum "Si O2"
_cell_formula_units_Z 54
_cell_length_a 29.080032
_cell_length_b 29.080032
_cell_length_c 5.241984
_cell_angle_alpha 90.000000
_cell_angle_beta 90.000000
_cell_angle_gamma 120.000000
_cell_volume 3838.982063
_symmetry_space_group_name_H-M "P 63 C M"
_symmetry_group_IT_number 185
_symmetry_cell_setting 'hexagonal'
loop_
_space_group_symop_operation_xyz
x,y,z
x-y,x,1/2+z
-y,x-y,z
-x,-y,1/2+z
-x+y,-x,z
y,-x+y,1/2+z
-x+y,y,1/2+z
x,x-y,1/2+z
-y,-x,1/2+z
y,x,z
x-y,-y,z
-x,-x+y,z
loop_
_atom_site_type_symbol
_atom_site_label
_atom_site_fract_x
_atom_site_fract_y
_atom_site_fract_z
Si Si1 0.058735 0.411326 0.505910
Si Si2 0.000000 0.470010 0.480270
Si Si3 0.178520 0.062211 0.006239
Si Si4 0.304039 0.936246 0.005953
Si Si5 0.696177 0.820623 0.002388
O O1 0.087327 0.406630 0.251953
O O2 0.000000 0.359437 0.505757
O O3 0.052757 0.464153 0.502726
O O4 0.087063 0.407512 0.762582
O O5 0.000000 0.507259 0.702608
O O6 0.159773 0.083858 0.769188
O O7 0.241165 0.086434 0.001452
O O8 0.152434 0.000000 0.978601
O O9 0.335474 0.000000 0.006536
O O10 0.241931 0.914261 0.002370
O O11 0.677045 0.838471 0.752197
#
# Coordination Sequence:
#
# PCOD8326621 Si02
#       5
#    12   6  12  12  12
#     4   8  17  25  38  59  74 104 139 155 209 241
#     4  10  16  26  40  58  86 106 136 178 206 236
#     4  10  20  34  50  67  83 100 125 154 202 264
#     4  10  16  29  42  55  80 103 133 172 199 259
#     4  10  20  30  43  63  81 103 132 165 212 251
#
# _framework density 14.066229999999999
#
# number of rings (size 3 to 8) (size 9 to 14) (size 15 to 20)
#    0.667    1.778    0.000    4.000    0.000    0.000 
#    0.000    6.667    0.000    4.444    0.000    0.000 
#    0.000    0.000    0.000    0.000    0.000    0.000 
#
# Total GULP energy -669176.945325 kJ/mol
# GULP energy per Si atom -12392.165654 kJ/mol
# Density = 1.403421 g / cm^3
# Si number density = 14.066230 Si / 1000 Ang^3
#
#
#
# Elastic Constant Matrix: (Units=GPa)
#
#
# Indices 1 2 3 4 5 6 
#
# 1 45.1469 3.4178 30.5967 0.0000 0.0000 0.0000
# 2 3.4178 45.1469 30.5967 0.0000 0.0000 0.0000
# 3 30.5967 30.5967 117.5119 0.0000 0.0000 0.0000
# 4 0.0000 0.0000 0.0000 16.8641 0.0000 0.0000
# 5 0.0000 0.0000 0.0000 0.0000 16.8641 0.0000
# 6 0.0000 0.0000 0.0000 0.0000 0.0000 20.8646
#
#
#
# Elastic Compliance Matrix: (Units=1/GPa)
#
#
# Indices 1 2 3 4 5 6 
#
# 1 0.027305 0.003341 -0.007979 0.000000 0.000000 0.000000
# 2 0.003341 0.027305 -0.007979 0.000000 0.000000 0.000000
# 3 -0.007979 -0.007979 0.012665 0.000000 0.000000 0.000000
# 4 0.000000 0.000000 0.000000 0.059298 0.000000 0.000000
# 5 0.000000 0.000000 0.000000 0.000000 0.059298 0.000000
# 6 0.000000 0.000000 0.000000 0.000000 0.000000 0.047928
#
#
# Mechanical properties :
#
#
# Convention : Reuss Voigt Hill
#
# Bulk Modulus (GPa) = 23.78765 37.44755 30.61760
# Shear Modulus (GPa) = 18.31194 20.46483 19.38838
#
# Velocity S-wave (km/s) = 3.61201 3.81844 3.71666
# Velocity P-wave (km/s) = 5.86032 6.79123 6.34288
#
# Compressibility (1/GPa) = 0.04203862
#
# Stress axis : x y z
#
# Youngs Moduli (GPa) = 36.62388 36.62388 78.95880
#
# Poissons Ratio (x) = -0.12234 0.63002
# Poissons Ratio (y) = -0.12234 0.63002
# Poissons Ratio (z) = 0.29223 0.29223
#
# Static dielectric constant tensor:
#      x y z
#    x 2.467270 0.000000 0.000000 
#    y 0.000000 2.467270 0.000000 
#    z 0.000000 0.000000 3.362310 
# 
# 
# High freq. dielectric constant tensor:
#      x y z
#    x 1.500730 0.000000 0.000000 
#    y 0.000000 1.500730 0.000000 
#    z 0.000000 0.000000 1.568660 
# 
# From -- ./inp_files/122.got.cif
#   From: 2010.03.12/outbox.cif.g09.slc.cpg/sg185_cif.got.tgz:122.got - 2010.04.01 11:55:19.
