data_PCOD8326753
_publ_section_title
;
Structure prediction by ZEFSAII (Michael W. Deem and Ramdas Pophale) SiO2 
 PCOD8326753
Probable space group: P 63 M C
;
_chemical_formula_sum "Si O2"
_cell_formula_units_Z 96
_cell_length_a 17.250396
_cell_length_b 17.250396
_cell_length_c 22.689026
_cell_angle_alpha 90.000000
_cell_angle_beta 90.000000
_cell_angle_gamma 120.000000
_cell_volume 5847.155220
_symmetry_space_group_name_H-M "P 63 M C"
_symmetry_group_IT_number 186
_symmetry_cell_setting 'hexagonal'
loop_
_space_group_symop_operation_xyz
x,y,z
x-y,x,1/2+z
-y,x-y,z
-x,-y,1/2+z
-x+y,-x,z
y,-x+y,1/2+z
-x+y,y,z
x,x-y,z
-y,-x,z
y,x,1/2+z
x-y,-y,1/2+z
-x,-x+y,1/2+z
loop_
_atom_site_type_symbol
_atom_site_label
_atom_site_fract_x
_atom_site_fract_y
_atom_site_fract_z
Si Si1 0.604387 0.031405 0.885500
Si Si2 0.506976 0.840108 0.846629
Si Si3 0.817672 0.817300 0.700865
Si Si4 0.763110 0.056785 0.815929
Si Si5 0.911508 0.267067 0.991679
Si Si6 0.176600 0.177140 0.425104
Si Si7 0.333244 0.846081 0.712836
Si Si8 0.658938 0.920547 0.621928
O O1 0.531146 0.062292 0.873488
O O2 0.673319 0.061146 0.830356
O O3 0.653572 0.072142 0.947302
O O4 0.555292 0.923625 0.890595
O O5 0.400296 0.800591 0.845873
O O6 0.526520 0.763260 0.869000
O O7 0.544513 0.872196 0.780426
O O8 0.822718 0.911359 0.714655
O O9 0.763770 0.746957 0.752644
O O10 0.760884 0.770970 0.641936
O O11 0.917600 0.835199 0.693206
O O12 0.842518 0.157483 0.823262
O O13 0.773684 0.993606 0.863681
O O14 0.806339 0.193662 0.988533
O O15 0.969838 0.221080 0.975596
O O16 0.943923 0.307212 0.057375
O O17 0.071196 0.142391 0.419200
O O18 0.190188 0.095094 0.442206
O O19 0.425212 0.850423 0.697920
O O20 0.253928 0.746073 0.699964
O O21 0.328301 0.918522 0.670595
O O22 0.647330 0.823665 0.617323
#
# Coordination Sequence:
#
# PCOD8326753 Si02
#       8
#    12  12  12  12  12  12  12  12
#     4  10  19  30  47  68  87 113 152 191 226 273
#     4   9  17  28  43  66  93 115 133 161 208 263
#     4  10  19  31  48  70  97 129 164 197 228 269
#     4   9  18  31  46  66  94 122 145 181 236 282
#     4   9  19  34  46  59  86 122 154 189 236 273
#     4   9  16  26  42  63  86 114 149 187 226 271
#     4   9  16  27  45  68  92 115 140 172 214 269
#     4   9  18  31  45  62  88 122 155 188 229 272
#
# _framework density 16.418240000000001
#
# number of rings (size 3 to 8) (size 9 to 14) (size 15 to 20)
#    0.000    2.750    0.000    2.750    0.000    5.500 
#    0.000    1.250    0.000    3.500    0.000    0.000 
#    0.000    0.000    0.000    2.625    0.000    0.000 
#
# Total GULP energy -1189978.165753 kJ/mol
# GULP energy per Si atom -12395.605893 kJ/mol
# Density = 1.638087 g / cm^3
# Si number density = 16.418240 Si / 1000 Ang^3
#
#
#
# Elastic Constant Matrix: (Units=GPa)
#
#
# Indices 1 2 3 4 5 6 
#
# 1 79.6245 35.5214 30.2936 0.0000 0.0000 0.0000
# 2 35.5214 79.6245 30.2936 0.0000 0.0000 0.0000
# 3 30.2936 30.2936 77.1214 0.0000 0.0000 0.0000
# 4 0.0000 0.0000 0.0000 17.4884 0.0000 0.0000
# 5 0.0000 0.0000 0.0000 0.0000 17.4884 0.0000
# 6 0.0000 0.0000 0.0000 0.0000 0.0000 22.0516
#
#
#
# Elastic Compliance Matrix: (Units=1/GPa)
#
#
# Indices 1 2 3 4 5 6 
#
# 1 0.016811 -0.005863 -0.004300 0.000000 0.000000 0.000000
# 2 -0.005863 0.016811 -0.004300 0.000000 0.000000 0.000000
# 3 -0.004300 -0.004300 0.016345 0.000000 0.000000 0.000000
# 4 0.000000 0.000000 0.000000 0.057181 0.000000 0.000000
# 5 0.000000 0.000000 0.000000 0.000000 0.057181 0.000000
# 6 0.000000 0.000000 0.000000 0.000000 0.000000 0.045348
#
#
# Mechanical properties :
#
#
# Convention : Reuss Voigt Hill
#
# Bulk Modulus (GPa) = 47.53126 47.62087 47.57607
# Shear Modulus (GPa) = 20.35696 20.75646 20.55671
#
# Velocity S-wave (km/s) = 3.52504 3.55946 3.54229
# Velocity P-wave (km/s) = 6.75137 6.77944 6.76542
#
# Compressibility (1/GPa) = 0.02103879
#
# Stress axis : x y z
#
# Youngs Moduli (GPa) = 59.48592 59.48592 61.18151
#
# Poissons Ratio (x) = 0.34879 0.26309
# Poissons Ratio (y) = 0.34879 0.26309
# Poissons Ratio (z) = 0.25580 0.25580
#
# Static dielectric constant tensor:
#      x y z
#    x 3.014660 0.000000 0.000000 
#    y 0.000000 3.014660 0.000000 
#    z 0.000000 0.000000 3.160480 
# 
# 
# High freq. dielectric constant tensor:
#      x y z
#    x 1.620960 0.000000 0.000000 
#    y 0.000000 1.620960 0.000000 
#    z 0.000000 0.000000 1.620180 
# 
# From -- ./inp_files/3586.got.cif
#   From: 2010.03.12/outbox.cif.g09.slc.cpg/sg186_2_cif.got.tgz:3586.got - 2010.04.01 11:56:34.
