data_PCOD8326780
_publ_section_title
;
Structure prediction by ZEFSAII (Michael W. Deem and Ramdas Pophale) SiO2 
 PCOD8326780
Probable space group: P 63 M C
;
_chemical_formula_sum "Si O2"
_cell_formula_units_Z 84
_cell_length_a 23.411258
_cell_length_b 23.411258
_cell_length_c 10.171410
_cell_angle_alpha 90.000000
_cell_angle_beta 90.000000
_cell_angle_gamma 120.000000
_cell_volume 4827.933667
_symmetry_space_group_name_H-M "P 63 M C"
_symmetry_group_IT_number 186
_symmetry_cell_setting 'hexagonal'
loop_
_space_group_symop_operation_xyz
x,y,z
x-y,x,1/2+z
-y,x-y,z
-x,-y,1/2+z
-x+y,-x,z
y,-x+y,1/2+z
-x+y,y,z
x,x-y,z
-y,-x,z
y,x,1/2+z
x-y,-y,1/2+z
-x,-x+y,1/2+z
loop_
_atom_site_type_symbol
_atom_site_label
_atom_site_fract_x
_atom_site_fract_y
_atom_site_fract_z
Si Si1 0.591810 0.054085 0.024950
Si Si2 0.057459 0.463979 0.821470
Si Si3 0.734138 0.139147 0.948076
Si Si4 0.644559 0.758559 0.175560
Si Si5 0.937543 0.190220 0.998505
Si Si6 0.740645 0.761731 0.767505
Si Si7 0.604389 0.736646 0.882334
O O1 0.537526 0.075052 0.990823
O O2 0.582715 0.027608 0.174362
O O3 0.663682 0.118523 0.010559
O O4 0.584928 0.997840 0.924453
O O5 0.079688 0.539844 0.853478
O O6 0.121275 0.455048 0.834360
O O7 0.787861 0.212140 0.999484
O O8 0.728793 0.139464 0.789600
O O9 0.756381 0.086728 0.991134
O O10 0.677657 0.838829 0.176480
O O11 0.696602 0.735228 0.204452
O O12 0.610826 0.730079 0.037265
O O13 0.880831 0.119170 0.950623
O O14 0.956621 0.185115 0.149148
O O15 0.998495 0.212785 0.896856
O O16 0.670037 0.751365 0.805758
O O17 0.587341 0.793671 0.848058
#
# Coordination Sequence:
#
# PCOD8326780 Si02
#       7
#    12  12  12  12  12  12  12
#     4  10  21  35  52  75 101 134 177 217 262 315
#     4  10  22  36  52  74 104 137 172 220 268 314
#     4   9  18  32  50  70  99 132 169 211 257 312
#     4   9  19  33  48  74 106 141 176 208 257 316
#     4  10  20  31  47  72  99 137 174 203 250 311
#     4  11  18  32  49  70 102 141 172 211 251 309
#     4  11  22  33  52  79 106 140 180 220 265 319
#
# _framework density 17.398748000000001
#
# number of rings (size 3 to 8) (size 9 to 14) (size 15 to 20)
#    0.000    2.000    1.429    4.286    4.000    1.714 
#    0.000    0.000    0.000    0.571    0.000    0.000 
#    0.000    0.000    0.000   73.714    0.000    1.429 
#
# Total GULP energy -1041272.066222 kJ/mol
# GULP energy per Si atom -12396.096026 kJ/mol
# Density = 1.735915 g / cm^3
# Si number density = 17.398748 Si / 1000 Ang^3
#
#
#
# Elastic Constant Matrix: (Units=GPa)
#
#
# Indices 1 2 3 4 5 6 
#
# 1 80.2413 37.6530 30.1631 0.0000 0.0000 0.0000
# 2 37.6530 80.2413 30.1631 0.0000 0.0000 0.0000
# 3 30.1631 30.1631 121.6481 0.0000 0.0000 0.0000
# 4 0.0000 0.0000 0.0000 20.9013 0.0000 0.0000
# 5 0.0000 0.0000 0.0000 0.0000 20.9013 0.0000
# 6 0.0000 0.0000 0.0000 0.0000 0.0000 21.2941
#
#
#
# Elastic Compliance Matrix: (Units=1/GPa)
#
#
# Indices 1 2 3 4 5 6 
#
# 1 0.016598 -0.006883 -0.002409 0.000000 0.000000 0.000000
# 2 -0.006883 0.016598 -0.002409 0.000000 0.000000 0.000000
# 3 -0.002409 -0.002409 0.009415 0.000000 0.000000 0.000000
# 4 0.000000 0.000000 0.000000 0.047844 0.000000 0.000000
# 5 0.000000 0.000000 0.000000 0.000000 0.047844 0.000000
# 6 0.000000 0.000000 0.000000 0.000000 0.000000 0.046961
#
#
# Mechanical properties :
#
#
# Convention : Reuss Voigt Hill
#
# Bulk Modulus (GPa) = 52.05825 53.12101 52.58963
# Shear Modulus (GPa) = 23.24892 24.89611 24.07252
#
# Velocity S-wave (km/s) = 3.65943 3.78685 3.72368
# Velocity P-wave (km/s) = 6.91671 7.05110 6.98423
#
# Compressibility (1/GPa) = 0.01920925
#
# Stress axis : x y z
#
# Youngs Moduli (GPa) = 60.24928 60.24928 106.21370
#
# Poissons Ratio (x) = 0.41469 0.25585
# Poissons Ratio (y) = 0.41469 0.25585
# Poissons Ratio (z) = 0.14513 0.14513
#
# Static dielectric constant tensor:
#      x y z
#    x 3.077210 0.000000 0.000000 
#    y 0.000000 3.077210 0.000000 
#    z 0.000000 0.000000 3.701800 
# 
# 
# High freq. dielectric constant tensor:
#      x y z
#    x 1.639260 0.000000 0.000000 
#    y 0.000000 1.639260 0.000000 
#    z 0.000000 0.000000 1.704310 
# 
# From -- ./inp_files/2021.got.cif
#   From: 2010.03.12/outbox.cif.g09.slc.cpg/sg186_2_cif.got.tgz:2021.got - 2010.04.01 11:56:34.
