data_PCOD8326624
_publ_section_title
;
Structure prediction by ZEFSAII (Michael W. Deem and Ramdas Pophale) SiO2 
 PCOD8326624
Probable space group: P 63 C M
;
_chemical_formula_sum "Si O2"
_cell_formula_units_Z 84
_cell_length_a 13.569628
_cell_length_b 13.569628
_cell_length_c 31.739081
_cell_angle_alpha 90.000000
_cell_angle_beta 90.000000
_cell_angle_gamma 120.000000
_cell_volume 5061.285820
_symmetry_space_group_name_H-M "P 63 C M"
_symmetry_group_IT_number 185
_symmetry_cell_setting 'hexagonal'
loop_
_space_group_symop_operation_xyz
x,y,z
x-y,x,1/2+z
-y,x-y,z
-x,-y,1/2+z
-x+y,-x,z
y,-x+y,1/2+z
-x+y,y,1/2+z
x,x-y,1/2+z
-y,-x,1/2+z
y,x,z
x-y,-y,z
-x,-x+y,z
loop_
_atom_site_type_symbol
_atom_site_label
_atom_site_fract_x
_atom_site_fract_y
_atom_site_fract_z
Si Si1 0.869570 0.331111 0.815980
Si Si2 0.330016 0.459384 0.135990
Si Si3 0.129368 0.459384 0.454702
Si Si4 0.332395 0.463243 0.414526
Si Si5 0.536757 0.667605 0.176166
Si Si6 0.331111 0.869570 0.274712
Si Si7 0.327435 0.537349 0.045346
O O1 0.845064 0.327558 0.865220
O O2 0.792451 0.207550 0.795346
O O3 0.837159 0.418580 0.795346
O O4 0.000000 0.367941 0.806604
O O5 0.369884 0.369884 0.148358
O O6 0.416050 0.583129 0.154856
O O7 0.206334 0.414149 0.156200
O O8 0.324624 0.466117 0.085742
O O9 0.207815 0.414149 0.434492
O O10 0.167079 0.583129 0.435836
O O11 0.141493 0.466118 0.504950
O O12 0.000000 0.369884 0.442334
O O13 0.372370 0.372370 0.424193
O O14 0.627630 0.627630 0.166500
O O15 0.517505 0.672441 0.225472
O O16 0.367941 0.000000 0.284088
O O17 0.442943 0.661549 0.045346
#
# Coordination Sequence:
#
# PCOD8326624 Si02
#       7
#    12  12  12  12  12  12  12
#     4  10  20  33  50  73  99 131 166 205 252 298
#     4  11  20  33  52  73 102 135 166 199 244 296
#     4  11  20  33  52  73 102 135 166 199 244 296
#     4  10  20  33  50  73 101 131 167 207 247 293
#     4  10  20  33  50  73 101 131 167 207 247 293
#     4  10  20  33  50  73  99 131 166 205 252 298
#     4  10  17  32  52  70 107 132 158 200 242 288
#
# _framework density 16.596572999999999
#
# number of rings (size 3 to 8) (size 9 to 14) (size 15 to 20)
#    0.286    1.429    2.857    3.000    0.000    3.429 
#    0.000    0.714    0.000    0.857    0.000    0.000 
#    0.000    0.000    0.000    0.000    0.000    0.000 
#
# Total GULP energy -1041884.538092 kJ/mol
# GULP energy per Si atom -12403.387358 kJ/mol
# Density = 1.655880 g / cm^3
# Si number density = 16.596573 Si / 1000 Ang^3
#
#
#
# Elastic Constant Matrix: (Units=GPa)
#
#
# Indices 1 2 3 4 5 6 
#
# 1 92.3354 48.2961 49.0766 0.0000 0.0000 0.0000
# 2 48.2961 92.3354 49.0766 0.0000 0.0000 0.0000
# 3 49.0766 49.0766 120.6313 0.0000 0.0000 0.0000
# 4 0.0000 0.0000 0.0000 22.0383 0.0000 0.0000
# 5 0.0000 0.0000 0.0000 0.0000 22.0383 0.0000
# 6 0.0000 0.0000 0.0000 0.0000 0.0000 22.0196
#
#
#
# Elastic Compliance Matrix: (Units=1/GPa)
#
#
# Indices 1 2 3 4 5 6 
#
# 1 0.016319 -0.006388 -0.004040 0.000000 0.000000 0.000000
# 2 -0.006388 0.016319 -0.004040 0.000000 0.000000 0.000000
# 3 -0.004040 -0.004040 0.011577 0.000000 0.000000 0.000000
# 4 0.000000 0.000000 0.000000 0.045376 0.000000 0.000000
# 5 0.000000 0.000000 0.000000 0.000000 0.045376 0.000000
# 6 0.000000 0.000000 0.000000 0.000000 0.000000 0.045414
#
#
# Mechanical properties :
#
#
# Convention : Reuss Voigt Hill
#
# Bulk Modulus (GPa) = 65.45441 66.46673 65.96057
# Shear Modulus (GPa) = 23.31991 23.80941 23.56466
#
# Velocity S-wave (km/s) = 3.75254 3.79172 3.77218
# Velocity P-wave (km/s) = 7.63541 7.70097 7.66826
#
# Compressibility (1/GPa) = 0.01527781
#
# Stress axis : x y z
#
# Youngs Moduli (GPa) = 61.27912 61.27912 86.37850
#
# Poissons Ratio (x) = 0.39147 0.34897
# Poissons Ratio (y) = 0.39147 0.34897
# Poissons Ratio (z) = 0.24757 0.24757
#
# Static dielectric constant tensor:
#      x y z
#    x 2.965870 0.000000 0.000000 
#    y 0.000000 2.965870 0.000000 
#    z 0.000000 0.000000 3.212090 
# 
# 
# High freq. dielectric constant tensor:
#      x y z
#    x 1.619880 0.000000 0.000000 
#    y 0.000000 1.619880 0.000000 
#    z 0.000000 0.000000 1.661070 
# 
# From -- ./inp_files/2152.got.cif
#   From: 2010.03.12/outbox.cif.g09.slc.cpg/sg185_cif.got.tgz:2152.got - 2010.04.01 11:55:19.
