data_PCOD8326263
_publ_section_title
;
Structure prediction by ZEFSAII (Michael W. Deem and Ramdas Pophale) SiO2 
 PCOD8326263
Probable space group: P 62 2 2
;
_chemical_formula_sum "Si O2"
_cell_formula_units_Z 33
_cell_length_a 10.021403
_cell_length_b 10.021403
_cell_length_c 19.188926
_cell_angle_alpha 90.000000
_cell_angle_beta 90.000000
_cell_angle_gamma 120.000000
_cell_volume 1668.930894
_symmetry_space_group_name_H-M "P 62 2 2"
_symmetry_group_IT_number 180
_symmetry_cell_setting 'hexagonal'
loop_
_space_group_symop_operation_xyz
x,y,z
x-y,x,1/3+z
-y,x-y,2/3+z
-x,-y,z
-x+y,-x,1/3+z
y,-x+y,2/3+z
x-y,-y,-z
-x,-x+y,1/3-z
y,x,2/3-z
-y,-x,2/3-z
-x+y,y,-z
x,x-y,1/3-z
loop_
_atom_site_type_symbol
_atom_site_label
_atom_site_fract_x
_atom_site_fract_y
_atom_site_fract_z
Si Si1 0.763527 0.234890 0.478215
Si Si2 0.500000 0.000000 0.713909
Si Si3 0.000000 0.000000 0.000000
Si Si4 0.746682 0.682999 0.728386
O O1 0.642573 0.285146 0.500000
O O2 0.826309 0.207388 0.551555
O O3 0.890006 0.365356 0.431230
O O4 0.687625 0.081559 0.432215
O O5 0.339943 0.907309 0.669746
O O6 0.851170 0.887258 0.955269
#
# Coordination Sequence:
#
# PCOD8326263 Si02
#       4
#    12   6   3  12
#     4  11  23  41  69  97 135 183 238 283 351 432
#     4  12  22  43  70  99 134 192 224 294 358 414
#     4  12  24  42  72 102 142 182 228 304 356 420
#     4  11  23  43  67  99 136 181 230 286 357 424
#
# _framework density 19.773136000000001
#
# number of rings (size 3 to 8) (size 9 to 14) (size 15 to 20)
#    0.000    0.727    7.273    1.091    0.000    5.818 
#    0.000    0.000    0.000    0.000    0.000    0.000 
#    0.000    0.000    0.000    0.000    0.000    0.000 
#
# Total GULP energy -408912.279460 kJ/mol
# GULP energy per Si atom -12391.281196 kJ/mol
# Density = 1.972813 g / cm^3
# Si number density = 19.773136 Si / 1000 Ang^3
#
#
#
# Elastic Constant Matrix: (Units=GPa)
#
#
# Indices 1 2 3 4 5 6 
#
# 1 87.3442 25.9523 67.9968 0.0000 0.0000 0.0000
# 2 25.9523 87.3442 67.9968 0.0000 0.0000 0.0000
# 3 67.9968 67.9968 156.7651 0.0000 0.0000 0.0000
# 4 0.0000 0.0000 0.0000 -137.7682 0.0000 0.0000
# 5 0.0000 0.0000 0.0000 0.0000 -137.7682 0.0000
# 6 0.0000 0.0000 0.0000 0.0000 0.0000 30.6960
#
#
#
# Elastic Compliance Matrix: (Units=1/GPa)
#
#
# Indices 1 2 3 4 5 6 
#
# 1 0.017351 0.001062 -0.007987 0.000000 0.000000 0.000000
# 2 0.001062 0.017351 -0.007987 0.000000 0.000000 0.000000
# 3 -0.007987 -0.007987 0.013307 0.000000 0.000000 0.000000
# 4 0.000000 0.000000 0.000000 -0.007259 0.000000 0.000000
# 5 0.000000 0.000000 0.000000 0.000000 -0.007259 0.000000
# 6 0.000000 0.000000 0.000000 0.000000 0.000000 0.032578
#
#
# Mechanical properties :
#
#
# Convention : Reuss Voigt Hill
#
# Bulk Modulus (GPa) = 54.98467 72.81611 63.90039
# Shear Modulus (GPa) = 49.04157 -37.66759 5.68699
#
# Velocity S-wave (km/s) = 4.98558 -4.36935 1.69775
# Velocity P-wave (km/s) = 7.81085 3.38389 6.01914
#
# Compressibility (1/GPa) = 0.01818689
#
# Stress axis : x y z
#
# Youngs Moduli (GPa) = 57.63381 57.63381 75.14625
#
# Poissons Ratio (x) = -0.06121 0.60017
# Poissons Ratio (y) = -0.06121 0.60017
# Poissons Ratio (z) = 0.46030 0.46030
#
# Static dielectric constant tensor:
#      x y z
#    x 46.644810 0.000000 0.000000 
#    y 0.000000 46.644810 0.000000 
#    z 0.000000 0.000000 4.149050 
# 
# 
# High freq. dielectric constant tensor:
#      x y z
#    x 1.762130 0.000000 0.000000 
#    y 0.000000 1.762130 0.000000 
#    z 0.000000 0.000000 1.792950 
# 
# From -- ./inp_files/6915.got.cif
#   From: 2010.03.12/outbox.cif.g09.slc.cpg/sg180_4_cif.got.tgz:6915.got - 2010.04.01 11:35:50.
