data_PCOD8326138
_publ_section_title
;
Structure prediction by ZEFSAII (Michael W. Deem and Ramdas Pophale) SiO2 
 PCOD8326138
Probable space group: P 62 2 2
;
_chemical_formula_sum "Si O2"
_cell_formula_units_Z 60
_cell_length_a 17.901217
_cell_length_b 17.901217
_cell_length_c 12.527055
_cell_angle_alpha 90.000000
_cell_angle_beta 90.000000
_cell_angle_gamma 120.000000
_cell_volume 3476.519984
_symmetry_space_group_name_H-M "P 62 2 2"
_symmetry_group_IT_number 180
_symmetry_cell_setting 'hexagonal'
loop_
_space_group_symop_operation_xyz
x,y,z
x-y,x,1/3+z
-y,x-y,2/3+z
-x,-y,z
-x+y,-x,1/3+z
y,-x+y,2/3+z
x-y,-y,-z
-x,-x+y,1/3-z
y,x,2/3-z
-y,-x,2/3-z
-x+y,y,-z
x,x-y,1/3-z
loop_
_atom_site_type_symbol
_atom_site_label
_atom_site_fract_x
_atom_site_fract_y
_atom_site_fract_z
Si Si1 0.093348 0.749914 0.295375
Si Si2 0.467929 0.101972 0.208316
Si Si3 0.725066 0.623264 0.335981
Si Si4 0.102203 0.351548 0.285989
Si Si5 0.468294 0.367882 0.534778
O O1 0.151001 0.849000 0.333334
O O2 0.107828 0.737339 0.172495
O O3 0.123964 0.692578 0.361361
O O4 0.994097 0.723052 0.318874
O O5 0.439960 0.124620 0.320255
O O6 0.571916 0.144291 0.208693
O O7 0.427730 0.001087 0.192937
O O8 0.433447 0.134400 0.110001
O O9 0.691589 0.691589 0.333334
O O10 0.829203 0.677132 0.323014
O O11 0.688743 0.555623 0.238742
#
# Coordination Sequence:
#
# PCOD8326138 Si02
#       5
#    12  12  12  12  12
#     4  10  19  34  53  74 105 140 180 221 259 305
#     4   9  18  30  48  77 100 122 164 210 255 312
#     4  10  18  31  52  77 105 136 171 216 265 309
#     4  10  20  32  52  79 103 138 179 220 261 305
#     4   9  17  31  51  72  98 130 161 205 260 308
#
# _framework density 17.258638000000001
#
# number of rings (size 3 to 8) (size 9 to 14) (size 15 to 20)
#    0.000    2.400    2.000    1.200    0.000    3.200 
#    0.000    4.000    0.000    5.400    0.000    2.800 
#    0.000    0.000    0.000    0.000    0.000    0.000 
#
# Total GULP energy -743720.654628 kJ/mol
# GULP energy per Si atom -12395.344244 kJ/mol
# Density = 1.721936 g / cm^3
# Si number density = 17.258638 Si / 1000 Ang^3
#
#
#
# Elastic Constant Matrix: (Units=GPa)
#
#
# Indices 1 2 3 4 5 6 
#
# 1 95.0905 53.6819 48.7449 0.0000 0.0000 0.0000
# 2 53.6819 95.0905 48.7449 0.0000 0.0000 0.0000
# 3 48.7449 48.7449 128.7205 0.0000 0.0000 0.0000
# 4 0.0000 0.0000 0.0000 22.5940 0.0000 0.0000
# 5 0.0000 0.0000 0.0000 0.0000 22.5940 0.0000
# 6 0.0000 0.0000 0.0000 0.0000 0.0000 20.7043
#
#
#
# Elastic Compliance Matrix: (Units=1/GPa)
#
#
# Indices 1 2 3 4 5 6 
#
# 1 0.016545 -0.007605 -0.003386 0.000000 0.000000 0.000000
# 2 -0.007605 0.016545 -0.003386 0.000000 0.000000 0.000000
# 3 -0.003386 -0.003386 0.010333 0.000000 0.000000 0.000000
# 4 0.000000 0.000000 0.000000 0.044260 0.000000 0.000000
# 5 0.000000 0.000000 0.000000 0.000000 0.044260 0.000000
# 6 0.000000 0.000000 0.000000 0.000000 0.000000 0.048299
#
#
# Mechanical properties :
#
#
# Convention : Reuss Voigt Hill
#
# Bulk Modulus (GPa) = 68.16108 69.02719 68.59413
# Shear Modulus (GPa) = 23.37730 24.36046 23.86888
#
# Velocity S-wave (km/s) = 3.68438 3.76106 3.72292
# Velocity P-wave (km/s) = 7.59468 7.67746 7.63618
#
# Compressibility (1/GPa) = 0.01467113
#
# Stress axis : x y z
#
# Youngs Moduli (GPa) = 60.44164 60.44164 96.77829
#
# Poissons Ratio (x) = 0.45964 0.32765
# Poissons Ratio (y) = 0.45964 0.32765
# Poissons Ratio (z) = 0.20463 0.20463
#
# Static dielectric constant tensor:
#      x y z
#    x 3.212040 0.000000 0.000000 
#    y 0.000000 3.212040 0.000000 
#    z 0.000000 0.000000 3.392450 
# 
# 
# High freq. dielectric constant tensor:
#      x y z
#    x 1.642970 0.000000 0.000000 
#    y 0.000000 1.642970 0.000000 
#    z 0.000000 0.000000 1.686530 
# 
# From -- ./inp_files/4804.got.cif
#   From: 2010.03.12/outbox.cif.g09.slc.cpg/sg180_3_cif.got.tgz:4804.got - 2010.04.01 11:35:50.
