data_PCOD8326102
_publ_section_title
;
Structure prediction by ZEFSAII (Michael W. Deem and Ramdas Pophale) SiO2 
 PCOD8326102
Probable space group: P 65 2 2
;
_chemical_formula_sum "Si O2"
_cell_formula_units_Z 78
_cell_length_a 16.994197
_cell_length_b 16.994197
_cell_length_c 13.566272
_cell_angle_alpha 90.000000
_cell_angle_beta 90.000000
_cell_angle_gamma 120.000000
_cell_volume 3393.067104
_symmetry_space_group_name_H-M "P 65 2 2"
_symmetry_group_IT_number 179
_symmetry_cell_setting 'hexagonal'
loop_
_space_group_symop_operation_xyz
x,y,z
x-y,x,5/6+z
-y,x-y,2/3+z
-x,-y,1/2+z
-x+y,-x,1/3+z
y,-x+y,1/6+z
x-y,-y,-z
-x,-x+y,1/3-z
y,x,2/3-z
-y,-x,1/6-z
-x+y,y,1/2-z
x,x-y,5/6-z
loop_
_atom_site_type_symbol
_atom_site_label
_atom_site_fract_x
_atom_site_fract_y
_atom_site_fract_z
Si Si1 0.714087 0.008606 0.883632
Si Si2 0.485715 0.831249 0.621616
Si Si3 0.117778 0.321657 0.447677
Si Si4 0.363386 0.636615 0.583334
Si Si5 0.772082 0.053376 0.597090
Si Si6 0.009489 0.468841 0.282631
Si Si7 0.484058 0.137219 0.889133
O O1 0.805250 0.102241 0.856924
O O2 0.697413 0.913941 0.834238
O O3 0.629021 0.016286 0.840742
O O4 0.713651 0.000000 0.000000
O O5 0.576162 0.851787 0.682336
O O6 0.401225 0.730561 0.643277
O O7 0.442568 0.893392 0.653566
O O8 0.508736 0.850195 0.506102
O O9 0.024656 0.243563 0.494497
O O10 0.333438 0.557821 0.664363
O O11 0.880261 0.119740 0.583334
O O12 0.731025 0.113981 0.640528
O O13 0.717542 0.000000 0.500000
O O14 0.000000 0.456307 0.166667
O O15 0.940865 0.500025 0.320647
#
# Coordination Sequence:
#
# PCOD8326102 Si02
#       7
#    12  12  12   6  12  12  12
#     4  11  26  49  73 105 144 196 256 319 387 471
#     4  11  23  44  63 106 146 200 250 311 362 452
#     4  12  25  44  78 107 143 195 256 307 395 465
#     4  12  26  38  66 102 160 202 254 296 384 440
#     4  12  23  41  72 108 147 180 237 309 378 454
#     4   9  20  42  65  91 139 189 243 296 358 428
#     4  11  22  40  67  97 149 201 241 306 364 444
#
# _framework density 22.988050000000001
#
# number of rings (size 3 to 8) (size 9 to 14) (size 15 to 20)
#    0.000    0.923    3.077    4.154    4.308    0.615 
#   13.846    0.000    0.000    9.231    0.000    0.000 
#    0.000    0.000    0.000    0.000    0.000    0.000 
#
# Total GULP energy -966446.224307 kJ/mol
# GULP energy per Si atom -12390.336209 kJ/mol
# Density = 2.293573 g / cm^3
# Si number density = 22.988050 Si / 1000 Ang^3
#
#
#
# Elastic Constant Matrix: (Units=GPa)
#
#
# Indices 1 2 3 4 5 6 
#
# 1 161.4178 82.3272 21.3065 0.0000 0.0000 0.0000
# 2 82.3272 161.4178 21.3065 0.0000 0.0000 0.0000
# 3 21.3065 21.3065 80.4626 0.0000 0.0000 0.0000
# 4 0.0000 0.0000 0.0000 24.5444 0.0000 0.0000
# 5 0.0000 0.0000 0.0000 0.0000 24.5444 0.0000
# 6 0.0000 0.0000 0.0000 0.0000 0.0000 39.5453
#
#
#
# Elastic Compliance Matrix: (Units=1/GPa)
#
#
# Indices 1 2 3 4 5 6 
#
# 1 0.008473 -0.004171 -0.001139 0.000000 0.000000 0.000000
# 2 -0.004171 0.008473 -0.001139 0.000000 0.000000 0.000000
# 3 -0.001139 -0.001139 0.013031 0.000000 0.000000 0.000000
# 4 0.000000 0.000000 0.000000 0.040743 0.000000 0.000000
# 5 0.000000 0.000000 0.000000 0.000000 0.040743 0.000000
# 6 0.000000 0.000000 0.000000 0.000000 0.000000 0.025287
#
#
# Mechanical properties :
#
#
# Convention : Reuss Voigt Hill
#
# Bulk Modulus (GPa) = 58.55300 72.57538 65.56419
# Shear Modulus (GPa) = 32.18731 36.28401 34.23566
#
# Velocity S-wave (km/s) = 3.74595 3.97720 3.86331
# Velocity P-wave (km/s) = 6.65101 7.26156 6.96298
#
# Compressibility (1/GPa) = 0.01707854
#
# Stress axis : x y z
#
# Youngs Moduli (GPa) = 118.02526 118.02526 76.73766
#
# Poissons Ratio (x) = 0.49228 0.08741
# Poissons Ratio (y) = 0.49228 0.08741
# Poissons Ratio (z) = 0.13444 0.13444
#
# Static dielectric constant tensor:
#      x y z
#    x 4.435600 0.000000 0.000000 
#    y 0.000000 4.435600 0.000000 
#    z 0.000000 0.000000 4.629370 
# 
# 
# High freq. dielectric constant tensor:
#      x y z
#    x 1.902760 0.000000 0.000000 
#    y 0.000000 1.902760 0.000000 
#    z 0.000000 0.000000 1.922750 
# 
# From -- ./inp_files/6047.got.cif
#   From: 2010.03.12/outbox.cif.g09.slc.cpg/sg179_4_cif.got.tgz:6047.got - 2010.04.02 07:08:42.
