data_PCOD8326716
_publ_section_title
;
Structure prediction by ZEFSAII (Michael W. Deem and Ramdas Pophale) SiO2 
 PCOD8326716
Probable space group: P 63 M C
;
_chemical_formula_sum "Si O2"
_cell_formula_units_Z 72
_cell_length_a 21.949707
_cell_length_b 21.949707
_cell_length_c 9.919567
_cell_angle_alpha 90.000000
_cell_angle_beta 90.000000
_cell_angle_gamma 120.000000
_cell_volume 4138.860622
_symmetry_space_group_name_H-M "P 63 M C"
_symmetry_group_IT_number 186
_symmetry_cell_setting 'hexagonal'
loop_
_space_group_symop_operation_xyz
x,y,z
x-y,x,1/2+z
-y,x-y,z
-x,-y,1/2+z
-x+y,-x,z
y,-x+y,1/2+z
-x+y,y,z
x,x-y,z
-y,-x,z
y,x,1/2+z
x-y,-y,1/2+z
-x,-x+y,1/2+z
loop_
_atom_site_type_symbol
_atom_site_label
_atom_site_fract_x
_atom_site_fract_y
_atom_site_fract_z
Si Si1 0.937636 0.195185 0.252270
Si Si2 0.235169 0.964692 0.470612
Si Si3 0.418537 0.137337 0.303484
Si Si4 0.586205 0.862650 0.340656
Si Si5 0.056411 0.389540 0.062409
Si Si6 0.910840 0.527183 0.065722
O O1 0.876352 0.123649 0.316213
O O2 0.916730 0.256038 0.254601
O O3 0.006777 0.218104 0.342456
O O4 0.947544 0.181830 0.095280
O O5 0.237828 0.896399 0.424536
O O6 0.308632 0.027000 0.526675
O O7 0.433468 0.216734 0.315039
O O8 0.434729 0.112471 0.445904
O O9 0.468906 0.132264 0.193161
O O10 0.561516 0.780758 0.314506
O O11 0.593969 0.902992 0.202641
O O12 0.530366 0.871529 0.430677
O O13 0.993204 0.406444 0.069123
O O14 0.905929 0.452965 0.068745
#
# Coordination Sequence:
#
# PCOD8326716 Si02
#       6
#    12  12  12  12  12  12
#     4  10  18  30  48  71 106 145 176 213 257 312
#     4  10  17  31  45  73 105 140 181 204 256 312
#     4  10  19  33  52  73  99 136 178 216 262 321
#     4  11  20  33  53  77 105 140 176 217 273 326
#     4  10  19  32  50  75 106 132 174 218 259 313
#     4  11  22  35  53  77 107 141 177 222 275 334
#
# _framework density 17.396091999999999
#
# number of rings (size 3 to 8) (size 9 to 14) (size 15 to 20)
#    0.000    1.667    5.000    3.500    0.000    3.333 
#    0.000    0.000    0.000    2.667    0.000    0.000 
#    0.000    0.000    0.000   19.000    0.000    0.333 
#
# Total GULP energy -892617.727869 kJ/mol
# GULP energy per Si atom -12397.468443 kJ/mol
# Density = 1.735650 g / cm^3
# Si number density = 17.396092 Si / 1000 Ang^3
#
#
#
# Elastic Constant Matrix: (Units=GPa)
#
#
# Indices 1 2 3 4 5 6 
#
# 1 68.4357 41.2578 33.0368 0.0000 0.0000 0.0000
# 2 41.2578 68.4357 33.0368 0.0000 0.0000 0.0000
# 3 33.0368 33.0368 124.1219 0.0000 0.0000 0.0000
# 4 0.0000 0.0000 0.0000 19.3125 0.0000 0.0000
# 5 0.0000 0.0000 0.0000 0.0000 19.3125 0.0000
# 6 0.0000 0.0000 0.0000 0.0000 0.0000 13.5890
#
#
#
# Elastic Compliance Matrix: (Units=1/GPa)
#
#
# Indices 1 2 3 4 5 6 
#
# 1 0.023826 -0.012969 -0.002890 0.000000 0.000000 0.000000
# 2 -0.012969 0.023826 -0.002890 0.000000 0.000000 0.000000
# 3 -0.002890 -0.002890 0.009595 0.000000 0.000000 0.000000
# 4 0.000000 0.000000 0.000000 0.051780 0.000000 0.000000
# 5 0.000000 0.000000 0.000000 0.000000 0.051780 0.000000
# 6 0.000000 0.000000 0.000000 0.000000 0.000000 0.073589
#
#
# Mechanical properties :
#
#
# Convention : Reuss Voigt Hill
#
# Bulk Modulus (GPa) = 50.63335 52.85069 51.74202
# Shear Modulus (GPa) = 17.95494 20.68694 19.32094
#
# Velocity S-wave (km/s) = 3.21616 3.45218 3.33625
# Velocity P-wave (km/s) = 6.55446 6.80711 6.68198
#
# Compressibility (1/GPa) = 0.01974983
#
# Stress axis : x y z
#
# Youngs Moduli (GPa) = 41.97145 41.97145 104.22230
#
# Poissons Ratio (x) = 0.54432 0.30117
# Poissons Ratio (y) = 0.54432 0.30117
# Poissons Ratio (z) = 0.12129 0.12129
#
# Static dielectric constant tensor:
#      x y z
#    x 2.999600 0.000000 0.000000 
#    y 0.000000 2.999600 0.000000 
#    z 0.000000 0.000000 3.606450 
# 
# 
# High freq. dielectric constant tensor:
#      x y z
#    x 1.634970 0.000000 0.000000 
#    y 0.000000 1.634970 0.000000 
#    z 0.000000 0.000000 1.699060 
# 
# From -- ./inp_files/1229.got.cif
#   From: 2010.03.12/outbox.cif.g09.slc.cpg/sg186_1_cif.got.tgz:1229.got - 2010.04.01 11:56:34.
