data_PCOD8326969
_publ_section_title
;
Structure prediction by ZEFSAII (Michael W. Deem and Ramdas Pophale) SiO2 
 PCOD8326969
Probable space group: P -6 M 2
;
_chemical_formula_sum "Si O2"
_cell_formula_units_Z 72
_cell_length_a 22.716725
_cell_length_b 22.716725
_cell_length_c 9.321818
_cell_angle_alpha 90.000000
_cell_angle_beta 90.000000
_cell_angle_gamma 120.000000
_cell_volume 4166.032873
_symmetry_space_group_name_H-M "P -6 M 2"
_symmetry_group_IT_number 187
_symmetry_cell_setting 'hexagonal'
loop_
_space_group_symop_operation_xyz
x,y,z
-x+y,-x,-z
-y,x-y,z
x,y,-z
-x+y,-x,z
-y,x-y,-z
-y,-x,-z
-x+y,y,-z
x,x-y,-z
-x+y,y,z
x,x-y,z
-y,-x,z
loop_
_atom_site_type_symbol
_atom_site_label
_atom_site_fract_x
_atom_site_fract_y
_atom_site_fract_z
Si Si1 0.735674 0.798372 0.162169
Si Si2 0.865599 0.000499 0.331690
Si Si3 0.326701 0.922537 0.170924
Si Si4 0.460625 0.407832 0.829658
Si Si5 0.333398 0.803435 0.666819
Si Si6 0.667628 0.202153 0.170702
O O1 0.731708 0.865854 0.172205
O O2 0.798528 0.805894 0.255473
O O3 0.664863 0.738724 0.223111
O O4 0.747030 0.782124 0.000000
O O5 0.854728 0.001472 0.500000
O O6 0.878561 0.939281 0.288439
O O7 0.930029 0.069972 0.278061
O O8 0.326483 0.858660 0.240915
O O9 0.390044 0.992407 0.229487
O O10 0.327737 0.914484 0.000000
O O11 0.520329 0.479672 0.770977
O O12 0.475222 0.347908 0.777889
O O13 0.460084 0.408982 0.000000
O O14 0.334345 0.821131 0.500000
O O15 0.401982 0.803964 0.711414
O O16 0.270650 0.729351 0.702362
O O17 0.607559 0.215118 0.225135
O O18 0.739627 0.260374 0.235124
O O19 0.669907 0.205368 0.000000
#
# Coordination Sequence:
#
# PCOD8326969 Si02
#       6
#    12  12  12  12  12  12
#     4   9  18  31  45  64  92 122 152 189 230 272
#     4   9  17  30  49  71  93 118 151 192 236 281
#     4  10  19  32  50  70  93 124 160 193 226 270
#     4   8  14  24  38  58  84 113 146 184 223 262
#     4  10  21  36  53  73  97 123 151 187 233 282
#     4   8  12  18  30  50  78 112 148 184 222 264
#
# _framework density 17.282629
#
# number of rings (size 3 to 8) (size 9 to 14) (size 15 to 20)
#    0.000    3.000    0.000    2.500    0.000    5.000 
#    0.000    2.500    0.000    5.000    0.000    0.000 
#    0.000    0.000    0.000    0.500    0.000    5.333 
#
# Total GULP energy -892481.548663 kJ/mol
# GULP energy per Si atom -12395.577065 kJ/mol
# Density = 1.724329 g / cm^3
# Si number density = 17.282629 Si / 1000 Ang^3
#
#
#
# Elastic Constant Matrix: (Units=GPa)
#
#
# Indices 1 2 3 4 5 6 
#
# 1 127.7857 69.5522 39.5372 0.0000 0.0001 0.0000
# 2 69.5522 127.7857 39.5372 0.0000 -0.0001 0.0000
# 3 39.5372 39.5372 28.8815 0.0000 0.0000 0.0000
# 4 0.0000 0.0000 0.0000 20.8130 0.0000 -0.0001
# 5 0.0001 -0.0001 0.0000 0.0000 20.8130 0.0000
# 6 0.0000 0.0000 0.0000 -0.0001 0.0000 29.1167
#
#
#
# Elastic Compliance Matrix: (Units=1/GPa)
#
#
# Indices 1 2 3 4 5 6 
#
# 1 0.014198 -0.002974 -0.015366 0.000000 0.000000 0.000000
# 2 -0.002974 0.014198 -0.015366 0.000000 0.000000 0.000000
# 3 -0.015366 -0.015366 0.076695 0.000000 0.000000 0.000000
# 4 0.000000 0.000000 0.000000 0.048047 0.000000 0.000000
# 5 0.000000 0.000000 0.000000 0.000000 0.048047 0.000000
# 6 0.000000 0.000000 0.000000 0.000000 0.000000 0.034345
#
#
# Mechanical properties :
#
#
# Convention : Reuss Voigt Hill
#
# Bulk Modulus (GPa) = 26.53914 64.63402 45.58658
# Shear Modulus (GPa) = 15.84776 23.20363 19.52569
#
# Velocity S-wave (km/s) = 3.03145 3.66812 3.36488
# Velocity P-wave (km/s) = 5.25758 7.44444 6.44445
#
# Compressibility (1/GPa) = 0.03768019
#
# Stress axis : x y z
#
# Youngs Moduli (GPa) = 70.42999 70.42999 13.03865
#
# Poissons Ratio (x) = 0.20944 0.20035
# Poissons Ratio (y) = 0.20944 0.20035
# Poissons Ratio (z) = 1.08223 1.08223
#
# Static dielectric constant tensor:
#      x y z
#    x 3.434950 0.000000 0.000000 
#    y 0.000000 3.434950 0.000000 
#    z 0.000000 0.000000 2.845400 
# 
# 
# High freq. dielectric constant tensor:
#      x y z
#    x 1.671990 0.000000 0.000000 
#    y 0.000000 1.671990 0.000000 
#    z 0.000000 0.000000 1.622190 
# 
# From -- ./inp_files/966.got.cif
#   From: 2010.03.12/outbox.cif.g09.slc.cpg/sg187_1_cif.got.tgz:966.got - 2010.04.01 11:58:23.
