data_PCOD8326700
_publ_section_title
;
Structure prediction by ZEFSAII (Michael W. Deem and Ramdas Pophale) SiO2 
 PCOD8326700
Probable space group: P 63 C M
;
_chemical_formula_sum "Si O2"
_cell_formula_units_Z 96
_cell_length_a 28.518250
_cell_length_b 28.518250
_cell_length_c 10.110042
_cell_angle_alpha 90.000000
_cell_angle_beta 90.000000
_cell_angle_gamma 120.000000
_cell_volume 7120.808971
_symmetry_space_group_name_H-M "P 63 C M"
_symmetry_group_IT_number 185
_symmetry_cell_setting 'hexagonal'
loop_
_space_group_symop_operation_xyz
x,y,z
x-y,x,1/2+z
-y,x-y,z
-x,-y,1/2+z
-x+y,-x,z
y,-x+y,1/2+z
-x+y,y,1/2+z
x,x-y,1/2+z
-y,-x,1/2+z
y,x,z
x-y,-y,z
-x,-x+y,z
loop_
_atom_site_type_symbol
_atom_site_label
_atom_site_fract_x
_atom_site_fract_y
_atom_site_fract_z
Si Si1 0.315309 0.064220 0.163590
Si Si2 0.610105 0.674546 0.665026
Si Si3 0.610105 0.935559 0.869575
Si Si4 0.935780 0.251089 0.871011
Si Si5 0.936817 0.145414 0.169671
Si Si6 0.430170 0.935582 0.665217
Si Si7 0.208597 0.145414 0.364930
Si Si8 0.505412 0.935582 0.869385
O O1 0.364792 0.089736 0.267972
O O2 0.270193 0.079592 0.204755
O O3 0.288009 0.000000 0.160456
O O4 0.338291 0.087185 0.017301
O O5 0.644870 0.644870 0.667683
O O6 0.611699 0.696898 0.517301
O O7 0.635208 0.724944 0.766630
O O8 0.548265 0.631690 0.705827
O O9 0.548265 0.916575 0.828775
O O10 0.644870 0.000000 0.866918
O O11 0.920408 0.190601 0.829846
O O12 0.000000 0.288009 0.874146
O O13 0.904952 0.095048 0.267301
O O14 0.000000 0.168533 0.194496
O O15 0.922059 0.126885 0.017301
O O16 0.455162 0.910323 0.767301
O O17 0.431947 0.915067 0.517301
O O18 0.464779 0.000000 0.668527
O O19 0.168533 0.168533 0.340105
O O20 0.535221 0.000000 0.866075
#
# Coordination Sequence:
#
# PCOD8326700 Si02
#       8
#    12  12  12  12  12  12  12  12
#     4   8  14  24  36  50  68  87 106 130 160 194
#     4   8  13  20  29  42  60  81 107 138 167 195
#     4   8  13  20  29  42  60  81 107 138 167 195
#     4   8  14  24  36  50  68  87 106 130 160 194
#     4   9  18  31  45  62  81  96 112 135 163 202
#     4   8  13  19  25  35  53  77 106 139 170 197
#     4   9  18  31  45  62  81  96 112 135 163 202
#     4   8  13  19  25  35  53  77 106 139 170 197
#
# _framework density 13.481614
#
# number of rings (size 3 to 8) (size 9 to 14) (size 15 to 20)
#    0.000    3.750    0.000    3.000    0.000    2.500 
#    0.000    7.500    0.000    0.250    0.000    0.000 
#    0.000    0.000    0.000    0.000    0.000    0.000 
#
# Total GULP energy -1189498.776375 kJ/mol
# GULP energy per Si atom -12390.612254 kJ/mol
# Density = 1.345093 g / cm^3
# Si number density = 13.481614 Si / 1000 Ang^3
#
#
#
# Elastic Constant Matrix: (Units=GPa)
#
#
# Indices 1 2 3 4 5 6 
#
# 1 46.3968 24.3008 47.7328 0.0000 0.0000 0.0000
# 2 24.3008 46.3968 47.7328 0.0000 0.0000 0.0000
# 3 47.7328 47.7328 102.9793 0.0000 0.0000 0.0000
# 4 0.0000 0.0000 0.0000 21.3152 0.0000 0.0000
# 5 0.0000 0.0000 0.0000 0.0000 21.3152 0.0000
# 6 0.0000 0.0000 0.0000 0.0000 0.0000 11.0480
#
#
#
# Elastic Compliance Matrix: (Units=1/GPa)
#
#
# Indices 1 2 3 4 5 6 
#
# 1 0.041534 -0.003723 -0.017526 0.000000 0.000000 0.000000
# 2 -0.003723 0.041534 -0.017526 0.000000 0.000000 0.000000
# 3 -0.017526 -0.017526 0.025958 0.000000 0.000000 0.000000
# 4 0.000000 0.000000 0.000000 0.046915 0.000000 0.000000
# 5 0.000000 0.000000 0.000000 0.000000 0.046915 0.000000
# 6 0.000000 0.000000 0.000000 0.000000 0.000000 0.090514
#
#
# Mechanical properties :
#
#
# Convention : Reuss Voigt Hill
#
# Bulk Modulus (GPa) = 31.77079 48.36730 40.06904
# Shear Modulus (GPa) = 13.10921 15.80279 14.45600
#
# Velocity S-wave (km/s) = 3.12168 3.42742 3.27811
# Velocity P-wave (km/s) = 6.05065 7.18452 6.64182
#
# Compressibility (1/GPa) = 0.03147546
#
# Stress axis : x y z
#
# Youngs Moduli (GPa) = 24.07675 24.07675 38.52398
#
# Poissons Ratio (x) = 0.08964 0.67517
# Poissons Ratio (y) = 0.08964 0.67517
# Poissons Ratio (z) = 0.42197 0.42197
#
# Static dielectric constant tensor:
#      x y z
#    x 2.422510 0.000000 0.000000 
#    y 0.000000 2.422510 0.000000 
#    z 0.000000 0.000000 3.030600 
# 
# 
# High freq. dielectric constant tensor:
#      x y z
#    x 1.469310 0.000000 0.000000 
#    y 0.000000 1.469310 0.000000 
#    z 0.000000 0.000000 1.527280 
# 
# From -- ./inp_files/1083.got.cif
#   From: 2010.03.12/outbox.cif.g09.slc.cpg/sg185_cif.got.tgz:1083.got - 2010.04.01 11:55:19.
