data_PCOD8326085
_publ_section_title
;
Structure prediction by ZEFSAII (Michael W. Deem and Ramdas Pophale) SiO2 
 PCOD8326085
Probable space group: P 65 2 2
;
_chemical_formula_sum "Si O2"
_cell_formula_units_Z 48
_cell_length_a 16.663048
_cell_length_b 16.663048
_cell_length_c 9.102764
_cell_angle_alpha 90.000000
_cell_angle_beta 90.000000
_cell_angle_gamma 120.000000
_cell_volume 2188.833897
_symmetry_space_group_name_H-M "P 65 2 2"
_symmetry_group_IT_number 179
_symmetry_cell_setting 'hexagonal'
loop_
_space_group_symop_operation_xyz
x,y,z
x-y,x,5/6+z
-y,x-y,2/3+z
-x,-y,1/2+z
-x+y,-x,1/3+z
y,-x+y,1/6+z
x-y,-y,-z
-x,-x+y,1/3-z
y,x,2/3-z
-y,-x,1/6-z
-x+y,y,1/2-z
x,x-y,5/6-z
loop_
_atom_site_type_symbol
_atom_site_label
_atom_site_fract_x
_atom_site_fract_y
_atom_site_fract_z
Si Si1 0.220775 0.373375 0.088572
Si Si2 0.789786 0.305062 0.436080
Si Si3 0.002111 0.421065 0.490259
Si Si4 0.822820 0.889885 0.198129
O O1 0.180059 0.360117 0.250000
O O2 0.316768 0.373496 0.077341
O O3 0.240941 0.472808 0.028978
O O4 0.146914 0.285689 0.993754
O O5 0.752261 0.247740 0.583334
O O6 0.749468 0.374734 0.416667
O O7 0.899392 0.360094 0.431966
O O8 0.045661 0.522830 0.416667
O O9 0.000000 0.424600 0.666667
O O10 0.872295 0.872626 0.058738
O O11 0.834176 0.834176 0.333334
#
# Coordination Sequence:
#
# PCOD8326085 Si02
#       4
#    12  12  12  12
#     4  12  27  44  71 105 145 187 246 301 363 443
#     4  11  26  46  72 103 143 188 238 302 370 441
#     4  11  25  45  72 101 140 186 239 295 367 438
#     4  10  23  45  70 102 146 195 240 296 359 431
#
# _framework density 21.929483999999999
#
# number of rings (size 3 to 8) (size 9 to 14) (size 15 to 20)
#    0.000    1.000    2.500    2.250   10.500    5.000 
#   13.500    0.000    0.000    0.000    0.000    0.000 
#    0.000    0.000    0.000    0.000    0.000    0.000 
#
# Total GULP energy -595295.724128 kJ/mol
# GULP energy per Si atom -12401.994253 kJ/mol
# Density = 2.187957 g / cm^3
# Si number density = 21.929484 Si / 1000 Ang^3
#
#
#
# Elastic Constant Matrix: (Units=GPa)
#
#
# Indices 1 2 3 4 5 6 
#
# 1 116.2825 25.4612 28.1357 0.0000 0.0000 0.0000
# 2 25.4612 116.2825 28.1357 0.0000 0.0000 0.0000
# 3 28.1357 28.1357 86.9015 0.0000 0.0000 0.0000
# 4 0.0000 0.0000 0.0000 44.5966 0.0000 0.0000
# 5 0.0000 0.0000 0.0000 0.0000 44.5966 0.0000
# 6 0.0000 0.0000 0.0000 0.0000 0.0000 45.4107
#
#
#
# Elastic Compliance Matrix: (Units=1/GPa)
#
#
# Indices 1 2 3 4 5 6 
#
# 1 0.009553 -0.001458 -0.002621 0.000000 0.000000 0.000000
# 2 -0.001458 0.009553 -0.002621 0.000000 0.000000 0.000000
# 3 -0.002621 -0.002621 0.013204 0.000000 0.000000 0.000000
# 4 0.000000 0.000000 0.000000 0.022423 0.000000 0.000000
# 5 0.000000 0.000000 0.000000 0.000000 0.022423 0.000000
# 6 0.000000 0.000000 0.000000 0.000000 0.000000 0.022021
#
#
# Mechanical properties :
#
#
# Convention : Reuss Voigt Hill
#
# Bulk Modulus (GPa) = 52.87830 53.65906 53.26868
# Shear Modulus (GPa) = 42.05870 42.76970 42.41420
#
# Velocity S-wave (km/s) = 4.38414 4.42104 4.40263
# Velocity P-wave (km/s) = 7.05640 7.11216 7.08434
#
# Compressibility (1/GPa) = 0.01891135
#
# Stress axis : x y z
#
# Youngs Moduli (GPa) = 104.67831 104.67831 75.73182
#
# Poissons Ratio (x) = 0.15257 0.19850
# Poissons Ratio (y) = 0.15257 0.19850
# Poissons Ratio (z) = 0.27437 0.27437
#
# Static dielectric constant tensor:
#      x y z
#    x 4.203400 0.000000 0.000000 
#    y 0.000000 4.203400 0.000000 
#    z 0.000000 0.000000 3.963530 
# 
# 
# High freq. dielectric constant tensor:
#      x y z
#    x 1.872050 0.000000 0.000000 
#    y 0.000000 1.872050 0.000000 
#    z 0.000000 0.000000 1.857410 
# 
# From -- ./inp_files/2615.got.cif
#   From: 2010.03.12/outbox.cif.g09.slc.cpg/sg179_2_cif.got.tgz:2615.got - 2010.04.02 07:08:42.
