data_PCOD8326327
_publ_section_title
;
Structure prediction by ZEFSAII (Michael W. Deem and Ramdas Pophale) SiO2 
 PCOD8326327
Probable space group: P 64 2 2
;
_chemical_formula_sum "Si O2"
_cell_formula_units_Z 84
_cell_length_a 17.510868
_cell_length_b 17.510868
_cell_length_c 16.348922
_cell_angle_alpha 90.000000
_cell_angle_beta 90.000000
_cell_angle_gamma 120.000000
_cell_volume 4341.452983
_symmetry_space_group_name_H-M "P 64 2 2"
_symmetry_group_IT_number 181
_symmetry_cell_setting 'hexagonal'
loop_
_space_group_symop_operation_xyz
x,y,z
x-y,x,2/3+z
-y,x-y,1/3+z
-x,-y,z
-x+y,-x,2/3+z
y,-x+y,1/3+z
x-y,-y,-z
-x,-x+y,2/3-z
y,x,1/3-z
-y,-x,1/3-z
-x+y,y,-z
x,x-y,2/3-z
loop_
_atom_site_type_symbol
_atom_site_label
_atom_site_fract_x
_atom_site_fract_y
_atom_site_fract_z
Si Si1 0.516183 0.675268 0.856342
Si Si2 0.487535 0.648043 0.414713
Si Si3 0.666151 0.778525 0.982364
Si Si4 0.339149 0.819958 0.560444
Si Si5 0.672249 0.726488 0.744577
Si Si6 0.310691 0.251135 0.437737
Si Si7 0.667935 0.767539 0.169230
O O1 0.476029 0.738015 0.833334
O O2 0.439096 0.575688 0.868087
O O3 0.575534 0.709420 0.937967
O O4 0.573812 0.675392 0.780100
O O5 0.460149 0.627785 0.319989
O O6 0.473832 0.725691 0.450336
O O7 0.587783 0.671812 0.428245
O O8 0.702628 0.874856 0.943106
O O9 0.737706 0.745731 0.968836
O O10 0.647370 0.784885 0.077296
O O11 0.414198 0.828395 0.500000
O O12 0.315408 0.895777 0.539304
O O13 0.671816 0.671816 0.666667
O O14 0.741253 0.730158 0.810505
O O15 0.304034 0.155821 0.438044
O O16 0.747300 0.747300 0.166667
#
# Coordination Sequence:
#
# PCOD8326327 Si02
#       7
#    12  12  12  12  12  12  12
#     4   9  19  34  57  84 115 155 200 230 285 340
#     4  10  20  36  55  82 119 153 189 251 278 329
#     4  10  20  36  60  83 112 149 186 231 282 352
#     4  10  21  36  56  78 114 158 199 231 289 336
#     4  10  19  37  61  83 111 149 185 232 289 349
#     4  10  21  37  58  84 113 147 191 231 296 339
#     4  11  22  36  57  84 111 144 191 240 281 342
#
# _framework density 19.348362000000002
#
# number of rings (size 3 to 8) (size 9 to 14) (size 15 to 20)
#    0.000    2.000    1.429    3.429    0.000    4.286 
#    0.000    5.714    0.000    1.714    0.000    0.000 
#    0.000    0.000    0.000    0.000    0.000    0.000 
#
# Total GULP energy -1041630.978764 kJ/mol
# GULP energy per Si atom -12400.368795 kJ/mol
# Density = 1.930432 g / cm^3
# Si number density = 19.348362 Si / 1000 Ang^3
#
#
#
# Elastic Constant Matrix: (Units=GPa)
#
#
# Indices 1 2 3 4 5 6 
#
# 1 94.8045 56.2308 19.1385 0.0000 0.0000 0.0000
# 2 56.2308 94.8045 19.1385 0.0000 0.0000 0.0000
# 3 19.1385 19.1385 48.6008 0.0000 0.0000 0.0000
# 4 0.0000 0.0000 0.0000 26.5540 0.0000 0.0000
# 5 0.0000 0.0000 0.0000 0.0000 26.5540 0.0000
# 6 0.0000 0.0000 0.0000 0.0000 0.0000 19.2869
#
#
#
# Elastic Compliance Matrix: (Units=1/GPa)
#
#
# Indices 1 2 3 4 5 6 
#
# 1 0.016640 -0.009285 -0.002896 0.000000 0.000000 0.000000
# 2 -0.009285 0.016640 -0.002896 0.000000 0.000000 0.000000
# 3 -0.002896 -0.002896 0.022857 0.000000 0.000000 0.000000
# 4 0.000000 0.000000 0.000000 0.037659 0.000000 0.000000
# 5 0.000000 0.000000 0.000000 0.000000 0.037659 0.000000
# 6 0.000000 0.000000 0.000000 0.000000 0.000000 0.051849
#
#
# Mechanical properties :
#
#
# Convention : Reuss Voigt Hill
#
# Bulk Modulus (GPa) = 38.48879 47.46945 42.97912
# Shear Modulus (GPa) = 22.51050 24.05909 23.28479
#
# Velocity S-wave (km/s) = 3.41461 3.53011 3.47284
# Velocity P-wave (km/s) = 5.95666 6.41895 6.19212
#
# Compressibility (1/GPa) = 0.02598159
#
# Stress axis : x y z
#
# Youngs Moduli (GPa) = 60.09728 60.09728 43.75052
#
# Poissons Ratio (x) = 0.55799 0.12672
# Poissons Ratio (y) = 0.55799 0.12672
# Poissons Ratio (z) = 0.17406 0.17406
#
# Static dielectric constant tensor:
#      x y z
#    x 3.451390 0.000000 0.000000 
#    y 0.000000 3.451390 0.000000 
#    z 0.000000 0.000000 3.647780 
# 
# 
# High freq. dielectric constant tensor:
#      x y z
#    x 1.742630 0.000000 0.000000 
#    y 0.000000 1.742630 0.000000 
#    z 0.000000 0.000000 1.764190 
# 
# From -- ./inp_files/6478.got.cif
#   From: 2010.03.12/outbox.cif.g09.slc.cpg/sg181_4_cif.got.tgz:6478.got - 2010.04.01 11:42:41.
