data_PCOD8326270
_publ_section_title
;
Structure prediction by ZEFSAII (Michael W. Deem and Ramdas Pophale) SiO2 
 PCOD8326270
Probable space group: P 62 2 2
;
_chemical_formula_sum "Si O2"
_cell_formula_units_Z 51
_cell_length_a 17.541545
_cell_length_b 17.541545
_cell_length_c 8.054585
_cell_angle_alpha 90.000000
_cell_angle_beta 90.000000
_cell_angle_gamma 120.000000
_cell_volume 2146.394192
_symmetry_space_group_name_H-M "P 62 2 2"
_symmetry_group_IT_number 180
_symmetry_cell_setting 'hexagonal'
loop_
_space_group_symop_operation_xyz
x,y,z
x-y,x,1/3+z
-y,x-y,2/3+z
-x,-y,z
-x+y,-x,1/3+z
y,-x+y,2/3+z
x-y,-y,-z
-x,-x+y,1/3-z
y,x,2/3-z
-y,-x,2/3-z
-x+y,y,-z
x,x-y,1/3-z
loop_
_atom_site_type_symbol
_atom_site_label
_atom_site_fract_x
_atom_site_fract_y
_atom_site_fract_z
Si Si1 0.500000 0.000000 0.000000
Si Si2 0.962915 0.751028 0.985881
Si Si3 0.941259 0.882517 0.500000
Si Si4 0.421529 0.578472 0.833334
Si Si5 0.715687 0.252026 0.008609
Si Si6 0.560568 0.660575 0.568849
O O1 0.417269 0.938996 0.107626
O O2 0.000000 0.762489 0.166667
O O3 0.863367 0.726734 0.000000
O O4 0.961091 0.666298 0.905004
O O5 0.019796 0.839995 0.881646
O O6 0.939600 0.939600 0.333334
O O7 0.355666 0.576341 0.696134
O O8 0.517732 0.618331 0.747660
O O9 0.756768 0.243233 0.833334
O O10 0.615295 0.230589 0.000000
O O11 0.728377 0.196493 0.157065
#
# Coordination Sequence:
#
# PCOD8326270 Si02
#       6
#     3  12   6   6  12  12
#     4  12  28  50  68 100 160 220 276 336 424 498
#     4  12  28  52  82 120 160 203 266 345 426 511
#     4  12  28  57  92 129 164 213 275 355 444 540
#     4  12  22  41  76 107 152 205 271 339 392 475
#     4  12  20  41  70 108 155 207 270 334 389 466
#     4  12  28  47  71 115 156 214 274 336 417 490
#
# _framework density 23.760781000000001
#
# number of rings (size 3 to 8) (size 9 to 14) (size 15 to 20)
#    0.000    0.000    7.059    2.118    4.941    1.412 
#    6.353    0.000    0.000    0.000    0.000    0.000 
#    0.000    0.000    0.000    0.000    0.000    0.000 
#
# Total GULP energy -631827.177779 kJ/mol
# GULP energy per Si atom -12388.768192 kJ/mol
# Density = 2.370670 g / cm^3
# Si number density = 23.760781 Si / 1000 Ang^3
#
#
#
# Elastic Constant Matrix: (Units=GPa)
#
#
# Indices 1 2 3 4 5 6 
#
# 1 133.8255 46.3113 52.3963 0.0000 0.0000 0.0000
# 2 46.3113 133.8255 52.3963 0.0000 0.0000 0.0000
# 3 52.3963 52.3963 152.3440 0.0000 0.0000 0.0000
# 4 0.0000 0.0000 0.0000 43.6498 0.0000 0.0000
# 5 0.0000 0.0000 0.0000 0.0000 43.6498 0.0000
# 6 0.0000 0.0000 0.0000 0.0000 0.0000 43.7571
#
#
#
# Elastic Compliance Matrix: (Units=1/GPa)
#
#
# Indices 1 2 3 4 5 6 
#
# 1 0.009183 -0.002243 -0.002387 0.000000 0.000000 0.000000
# 2 -0.002243 0.009183 -0.002387 0.000000 0.000000 0.000000
# 3 -0.002387 -0.002387 0.008206 0.000000 0.000000 0.000000
# 4 0.000000 0.000000 0.000000 0.022910 0.000000 0.000000
# 5 0.000000 0.000000 0.000000 0.000000 0.022910 0.000000
# 6 0.000000 0.000000 0.000000 0.000000 0.000000 0.022853
#
#
# Mechanical properties :
#
#
# Convention : Reuss Voigt Hill
#
# Bulk Modulus (GPa) = 79.75601 80.24474 80.00037
# Shear Modulus (GPa) = 44.06881 44.13739 44.10310
#
# Velocity S-wave (km/s) = 4.31128 4.31463 4.31296
# Velocity P-wave (km/s) = 7.64343 7.65942 7.65143
#
# Compressibility (1/GPa) = 0.01253824
#
# Stress axis : x y z
#
# Youngs Moduli (GPa) = 108.89341 108.89341 121.86300
#
# Poissons Ratio (x) = 0.24429 0.29087
# Poissons Ratio (y) = 0.24429 0.29087
# Poissons Ratio (z) = 0.25991 0.25991
#
# Static dielectric constant tensor:
#      x y z
#    x 4.423640 0.000000 0.000000 
#    y 0.000000 4.423640 0.000000 
#    z 0.000000 0.000000 4.663980 
# 
# 
# High freq. dielectric constant tensor:
#      x y z
#    x 1.938980 0.000000 0.000000 
#    y 0.000000 1.938980 0.000000 
#    z 0.000000 0.000000 1.959430 
# 
# From -- ./inp_files/2827.got.cif
#   From: 2010.03.12/outbox.cif.g09.slc.cpg/sg180_2_cif.got.tgz:2827.got - 2010.04.01 11:35:50.
