data_PCOD8326071
_publ_section_title
;
Structure prediction by ZEFSAII (Michael W. Deem and Ramdas Pophale) SiO2 
 PCOD8326071
Probable space group: P 65 2 2
;
_chemical_formula_sum "Si O2"
_cell_formula_units_Z 36
_cell_length_a 7.380401
_cell_length_b 7.380401
_cell_length_c 35.848075
_cell_angle_alpha 90.000000
_cell_angle_beta 90.000000
_cell_angle_gamma 120.000000
_cell_volume 1691.049768
_symmetry_space_group_name_H-M "P 65 2 2"
_symmetry_group_IT_number 179
_symmetry_cell_setting 'hexagonal'
loop_
_space_group_symop_operation_xyz
x,y,z
x-y,x,5/6+z
-y,x-y,2/3+z
-x,-y,1/2+z
-x+y,-x,1/3+z
y,-x+y,1/6+z
x-y,-y,-z
-x,-x+y,1/3-z
y,x,2/3-z
-y,-x,1/6-z
-x+y,y,1/2-z
x,x-y,5/6-z
loop_
_atom_site_type_symbol
_atom_site_label
_atom_site_fract_x
_atom_site_fract_y
_atom_site_fract_z
Si Si1 0.123047 0.297590 0.539066
Si Si2 0.481951 0.963902 0.750000
Si Si3 0.869102 0.334217 0.295565
Si Si4 0.062187 0.937814 0.583334
O O1 0.274465 0.395723 0.575001
O O2 0.266172 0.361691 0.502566
O O3 0.946699 0.365492 0.537997
O O4 0.024326 0.050392 0.547177
O O5 0.376174 0.809320 0.785661
O O6 0.982410 0.281454 0.262302
#
# Coordination Sequence:
#
# PCOD8326071 Si02
#       4
#    12   6  12   6
#     4  11  21  39  62  88 121 161 205 251 308 365
#     4  10  22  38  60  88 124 158 196 254 304 368
#     4  11  21  39  62  88 121 161 205 251 308 365
#     4  10  24  38  60  90 128 158 200 258 310 364
#
# _framework density 21.288554000000001
#
# number of rings (size 3 to 8) (size 9 to 14) (size 15 to 20)
#    0.000    1.333    3.333    3.000    0.000    0.000 
#    0.000    0.000    0.000    0.000    0.000    0.000 
#    0.000    0.000    0.000    0.000    0.000    0.000 
#
# Total GULP energy -446075.202954 kJ/mol
# GULP energy per Si atom -12390.977860 kJ/mol
# Density = 2.124010 g / cm^3
# Si number density = 21.288554 Si / 1000 Ang^3
#
#
#
# Elastic Constant Matrix: (Units=GPa)
#
#
# Indices 1 2 3 4 5 6 
#
# 1 66.2243 16.7292 7.4620 0.0000 0.0000 0.0000
# 2 16.7292 66.2243 7.4620 0.0000 0.0000 0.0000
# 3 7.4620 7.4620 58.1067 0.0000 0.0000 0.0000
# 4 0.0000 0.0000 0.0000 32.6353 0.0000 0.0000
# 5 0.0000 0.0000 0.0000 0.0000 32.6353 0.0000
# 6 0.0000 0.0000 0.0000 0.0000 0.0000 24.7475
#
#
#
# Elastic Compliance Matrix: (Units=1/GPa)
#
#
# Indices 1 2 3 4 5 6 
#
# 1 0.016272 -0.003932 -0.001585 0.000000 0.000000 0.000000
# 2 -0.003932 0.016272 -0.001585 0.000000 0.000000 0.000000
# 3 -0.001585 -0.001585 0.017617 0.000000 0.000000 0.000000
# 4 0.000000 0.000000 0.000000 0.030642 0.000000 0.000000
# 5 0.000000 0.000000 0.000000 0.000000 0.030642 0.000000
# 6 0.000000 0.000000 0.000000 0.000000 0.000000 0.040408
#
#
# Mechanical properties :
#
#
# Convention : Reuss Voigt Hill
#
# Bulk Modulus (GPa) = 27.81022 28.20688 28.00855
# Shear Modulus (GPa) = 28.08342 28.59710 28.34026
#
# Velocity S-wave (km/s) = 3.63599 3.66909 3.65258
# Velocity P-wave (km/s) = 5.54248 5.58822 5.56540
#
# Compressibility (1/GPa) = 0.03595801
#
# Stress axis : x y z
#
# Youngs Moduli (GPa) = 61.45514 61.45514 56.76420
#
# Poissons Ratio (x) = 0.24164 0.08995
# Poissons Ratio (y) = 0.24164 0.08995
# Poissons Ratio (z) = 0.09739 0.09739
#
# Static dielectric constant tensor:
#      x y z
#    x 3.807270 0.000000 0.000000 
#    y 0.000000 3.807270 0.000000 
#    z 0.000000 0.000000 3.757700 
# 
# 
# High freq. dielectric constant tensor:
#      x y z
#    x 1.831180 0.000000 0.000000 
#    y 0.000000 1.831180 0.000000 
#    z 0.000000 0.000000 1.835120 
# 
# From -- ./inp_files/8642.got.cif
#   From: 2010.03.12/outbox.cif.g09.slc.cpg/sg179_5_cif.got.tgz:8642.got - 2010.04.02 07:08:42.
