data_PCOD8326617
_publ_section_title
;
Structure prediction by ZEFSAII (Michael W. Deem and Ramdas Pophale) SiO2 
 PCOD8326617
Probable space group: P 6 C C
;
_chemical_formula_sum "Si O2"
_cell_formula_units_Z 60
_cell_length_a 15.572320
_cell_length_b 15.572320
_cell_length_c 14.132752
_cell_angle_alpha 90.000000
_cell_angle_beta 90.000000
_cell_angle_gamma 120.000000
_cell_volume 2968.000768
_symmetry_space_group_name_H-M "P 6 C C"
_symmetry_group_IT_number 184
_symmetry_cell_setting 'hexagonal'
loop_
_space_group_symop_operation_xyz
x,y,z
x-y,x,z
-y,x-y,z
-x,-y,z
-x+y,-x,z
y,-x+y,z
-x+y,y,1/2+z
x,x-y,1/2+z
-y,-x,1/2+z
y,x,1/2+z
x-y,-y,1/2+z
-x,-x+y,1/2+z
loop_
_atom_site_type_symbol
_atom_site_label
_atom_site_fract_x
_atom_site_fract_y
_atom_site_fract_z
Si Si1 0.655241 0.907137 0.373800
Si Si2 0.450342 0.684812 0.791937
Si Si3 0.344760 0.092863 0.994565
Si Si4 0.315188 0.765530 0.576428
Si Si5 0.824442 0.777377 0.184182
O O1 0.537601 0.838146 0.360121
O O2 0.698101 0.849051 0.434183
O O3 0.712261 0.941885 0.275403
O O4 0.669421 0.000000 0.434182
O O5 0.421303 0.771169 0.810020
O O6 0.486261 0.691647 0.684182
O O7 0.462400 0.161854 0.008244
O O8 0.287740 0.058115 0.092962
O O9 0.228831 0.650134 0.558345
O O10 0.812979 0.873367 0.184182
#
# Coordination Sequence:
#
# PCOD8326617 Si02
#       5
#    12  12  12  12  12
#     4  12  24  40  69 104 140 178 230 296 353 418
#     4   8  18  40  70  98 136 186 226 276 349 417
#     4  12  24  40  69 104 140 178 230 296 353 418
#     4   8  18  40  70  98 136 186 226 276 349 417
#     4  12  25  46  70  98 138 182 232 301 365 410
#
# _framework density 20.215629
#
# number of rings (size 3 to 8) (size 9 to 14) (size 15 to 20)
#    0.800    0.800    6.000    0.200    0.000    1.600 
#    0.000    4.000    0.000    7.200    0.000    0.000 
#    0.000    0.000    0.000    0.000    0.000    0.000 
#
# Total GULP energy -743700.442726 kJ/mol
# GULP energy per Si atom -12395.007379 kJ/mol
# Density = 2.016962 g / cm^3
# Si number density = 20.215629 Si / 1000 Ang^3
#
#
#
# Elastic Constant Matrix: (Units=GPa)
#
#
# Indices 1 2 3 4 5 6 
#
# 1 116.1397 66.0320 70.0595 0.0000 0.0000 0.0000
# 2 66.0320 116.1397 70.0595 0.0000 0.0000 0.0000
# 3 70.0595 70.0595 141.0672 0.0000 0.0000 0.0000
# 4 0.0000 0.0000 0.0000 38.9505 0.0000 0.0000
# 5 0.0000 0.0000 0.0000 0.0000 38.9505 0.0000
# 6 0.0000 0.0000 0.0000 0.0000 0.0000 25.0538
#
#
#
# Elastic Compliance Matrix: (Units=1/GPa)
#
#
# Indices 1 2 3 4 5 6 
#
# 1 0.014420 -0.005537 -0.004411 0.000000 0.000000 0.000000
# 2 -0.005537 0.014420 -0.004411 0.000000 0.000000 0.000000
# 3 -0.004411 -0.004411 0.011470 0.000000 0.000000 0.000000
# 4 0.000000 0.000000 0.000000 0.025674 0.000000 0.000000
# 5 0.000000 0.000000 0.000000 0.000000 0.025674 0.000000
# 6 0.000000 0.000000 0.000000 0.000000 0.000000 0.039914
#
#
# Mechanical properties :
#
#
# Convention : Reuss Voigt Hill
#
# Bulk Modulus (GPa) = 86.28212 87.29431 86.78821
# Shear Modulus (GPa) = 30.45913 31.73734 31.09823
#
# Velocity S-wave (km/s) = 3.88585 3.96655 3.92641
# Velocity P-wave (km/s) = 7.93137 8.01582 7.97371
#
# Compressibility (1/GPa) = 0.01158989
#
# Stress axis : x y z
#
# Youngs Moduli (GPa) = 69.34963 69.34963 87.18025
#
# Poissons Ratio (x) = 0.38401 0.38458
# Poissons Ratio (y) = 0.38401 0.38458
# Poissons Ratio (z) = 0.30592 0.30592
#
# Static dielectric constant tensor:
#      x y z
#    x 3.509590 0.000000 0.000000 
#    y 0.000000 3.509590 0.000000 
#    z 0.000000 0.000000 3.824370 
# 
# 
# High freq. dielectric constant tensor:
#      x y z
#    x 1.776770 0.000000 0.000000 
#    y 0.000000 1.776770 0.000000 
#    z 0.000000 0.000000 1.813830 
# 
# From -- ./inp_files/827.got.cif
#   From: 2010.03.12/outbox.cif.g09.slc.cpg/sg184_cif.got.tgz:827.got - 2010.04.01 11:54:36.
