data_PCOD8326264
_publ_section_title
;
Structure prediction by ZEFSAII (Michael W. Deem and Ramdas Pophale) SiO2 
 PCOD8326264
Probable space group: P 62 2 2
;
_chemical_formula_sum "Si O2"
_cell_formula_units_Z 69
_cell_length_a 14.809086
_cell_length_b 14.809086
_cell_length_c 16.095130
_cell_angle_alpha 90.000000
_cell_angle_beta 90.000000
_cell_angle_gamma 120.000000
_cell_volume 3056.902808
_symmetry_space_group_name_H-M "P 62 2 2"
_symmetry_group_IT_number 180
_symmetry_cell_setting 'hexagonal'
loop_
_space_group_symop_operation_xyz
x,y,z
x-y,x,1/3+z
-y,x-y,2/3+z
-x,-y,z
-x+y,-x,1/3+z
y,-x+y,2/3+z
x-y,-y,-z
-x,-x+y,1/3-z
y,x,2/3-z
-y,-x,2/3-z
-x+y,y,-z
x,x-y,1/3-z
loop_
_atom_site_type_symbol
_atom_site_label
_atom_site_fract_x
_atom_site_fract_y
_atom_site_fract_z
Si Si1 0.861541 0.861541 0.833334
Si Si2 0.513772 0.353443 0.646051
Si Si3 0.226647 0.210244 0.146557
Si Si4 0.985331 0.707147 0.038030
Si Si5 0.119304 0.441954 0.798038
Si Si6 0.500000 0.500000 0.333334
Si Si7 0.653760 0.507142 0.767162
O O1 0.784738 0.824621 0.754121
O O2 0.971678 0.865773 0.823241
O O3 0.566590 0.283295 0.666667
O O4 0.407734 0.293166 0.700364
O O5 0.490159 0.374334 0.553329
O O6 0.598572 0.467557 0.677717
O O7 0.280868 0.140434 0.166667
O O8 0.265182 0.316095 0.199897
O O9 0.261035 0.241405 0.051848
O O10 0.066369 0.695671 0.097306
O O11 0.073780 0.478241 0.724657
O O12 0.242361 0.497635 0.780888
O O13 0.563063 0.436938 0.833334
#
# Coordination Sequence:
#
# PCOD8326264 Si02
#       7
#     6  12  12  12  12   3  12
#     4  12  21  44  71 106 146 182 243 304 365 432
#     4  11  23  44  69 105 149 183 238 305 372 437
#     4  11  26  46  73 104 145 195 244 304 368 445
#     4  11  24  41  70 106 144 189 233 300 372 441
#     4  11  27  50  69 109 142 195 252 300 375 455
#     4  12  32  48  76  92 152 196 244 308 356 466
#     4  12  24  44  75 111 142 189 243 303 377 456
#
# _framework density 22.571864999999999
#
# number of rings (size 3 to 8) (size 9 to 14) (size 15 to 20)
#    0.000    0.696    3.478    4.435    8.522    1.391 
#    0.000    2.609    0.000    0.000    0.000    0.000 
#    0.000    0.000    0.000    0.000    0.000    0.000 
#
# Total GULP energy -854835.678886 kJ/mol
# GULP energy per Si atom -12388.922882 kJ/mol
# Density = 2.252049 g / cm^3
# Si number density = 22.571865 Si / 1000 Ang^3
#
#
#
# Elastic Constant Matrix: (Units=GPa)
#
#
# Indices 1 2 3 4 5 6 
#
# 1 86.8619 34.1005 44.8229 0.0000 0.0000 0.0000
# 2 34.1005 86.8619 44.8229 0.0000 0.0000 0.0000
# 3 44.8229 44.8229 105.7445 0.0000 0.0000 0.0000
# 4 0.0000 0.0000 0.0000 70.2523 0.0000 0.0000
# 5 0.0000 0.0000 0.0000 0.0000 70.2523 0.0000
# 6 0.0000 0.0000 0.0000 0.0000 0.0000 26.3807
#
#
#
# Elastic Compliance Matrix: (Units=1/GPa)
#
#
# Indices 1 2 3 4 5 6 
#
# 1 0.015503 -0.003450 -0.005109 0.000000 0.000000 0.000000
# 2 -0.003450 0.015503 -0.005109 0.000000 0.000000 0.000000
# 3 -0.005109 -0.005109 0.013788 0.000000 0.000000 0.000000
# 4 0.000000 0.000000 0.000000 0.014234 0.000000 0.000000
# 5 0.000000 0.000000 0.000000 0.000000 0.014234 0.000000
# 6 0.000000 0.000000 0.000000 0.000000 0.000000 0.037906
#
#
# Mechanical properties :
#
#
# Convention : Reuss Voigt Hill
#
# Bulk Modulus (GPa) = 57.27952 58.55118 57.91535
# Shear Modulus (GPa) = 34.64373 43.75853 39.20113
#
# Velocity S-wave (km/s) = 3.92193 4.40777 4.17192
# Velocity P-wave (km/s) = 6.77793 7.20422 6.99432
#
# Compressibility (1/GPa) = 0.01745825
#
# Stress axis : x y z
#
# Youngs Moduli (GPa) = 64.50209 64.50209 72.52606
#
# Poissons Ratio (x) = 0.22252 0.37055
# Poissons Ratio (y) = 0.22252 0.37055
# Poissons Ratio (z) = 0.32956 0.32956
#
# Static dielectric constant tensor:
#      x y z
#    x 4.058930 0.000000 0.000000 
#    y 0.000000 4.058930 0.000000 
#    z 0.000000 0.000000 2.359530 
# 
# 
# High freq. dielectric constant tensor:
#      x y z
#    x 1.893920 0.000000 0.000000 
#    y 0.000000 1.893920 0.000000 
#    z 0.000000 0.000000 1.895200 
# 
# From -- ./inp_files/7837.got.cif
#   From: 2010.03.12/outbox.cif.g09.slc.cpg/sg180_4_cif.got.tgz:7837.got - 2010.04.01 11:35:50.
