data_PCOD8326030
_publ_section_title
;
Structure prediction by ZEFSAII (Michael W. Deem and Ramdas Pophale) SiO2 
 PCOD8326030
Probable space group: P 65 2 2
;
_chemical_formula_sum "Si O2"
_cell_formula_units_Z 54
_cell_length_a 17.357552
_cell_length_b 17.357552
_cell_length_c 13.822022
_cell_angle_alpha 90.000000
_cell_angle_beta 90.000000
_cell_angle_gamma 120.000000
_cell_volume 3606.443739
_symmetry_space_group_name_H-M "P 65 2 2"
_symmetry_group_IT_number 179
_symmetry_cell_setting 'hexagonal'
loop_
_space_group_symop_operation_xyz
x,y,z
x-y,x,5/6+z
-y,x-y,2/3+z
-x,-y,1/2+z
-x+y,-x,1/3+z
y,-x+y,1/6+z
x-y,-y,-z
-x,-x+y,1/3-z
y,x,2/3-z
-y,-x,1/6-z
-x+y,y,1/2-z
x,x-y,5/6-z
loop_
_atom_site_type_symbol
_atom_site_label
_atom_site_fract_x
_atom_site_fract_y
_atom_site_fract_z
Si Si1 0.346522 0.842974 0.814656
Si Si2 0.729271 0.535262 0.852919
Si Si3 0.487729 0.029469 0.851440
Si Si4 0.399753 0.399753 0.333334
Si Si5 0.195457 0.644182 0.135497
O O1 0.409618 0.819235 0.750000
O O2 0.249347 0.805201 0.765774
O O3 0.389402 0.949192 0.825815
O O4 0.332636 0.798501 0.919016
O O5 0.765989 0.531977 0.750000
O O6 0.696464 0.608324 0.851110
O O7 0.647188 0.440452 0.882306
O O8 0.537095 0.074189 0.750000
O O9 0.480946 0.100901 0.919912
O O10 0.537609 0.983713 0.906530
O O11 0.271614 0.728387 0.083334
#
# Coordination Sequence:
#
# PCOD8326030 Si02
#       5
#    12  12  12   6  12
#     4  11  19  34  50  64  86 124 161 194 237 280
#     4  11  20  32  48  66  90 122 159 197 235 278
#     4  10  19  35  48  62  91 126 155 196 244 282
#     4  10  20  34  46  66  92 120 160 198 242 282
#     4  11  23  30  44  70  94 118 156 205 236 276
#
# _framework density 14.973198
#
# number of rings (size 3 to 8) (size 9 to 14) (size 15 to 20)
#    0.000    1.333    6.667    2.000    6.222    0.000 
#    0.000    0.000    0.000    0.000    0.000    0.000 
#    0.000    0.000    0.000    2.000    0.000    0.000 
#
# Total GULP energy -669412.019866 kJ/mol
# GULP energy per Si atom -12396.518886 kJ/mol
# Density = 1.493912 g / cm^3
# Si number density = 14.973198 Si / 1000 Ang^3
#
#
#
# Elastic Constant Matrix: (Units=GPa)
#
#
# Indices 1 2 3 4 5 6 
#
# 1 81.7661 42.4572 31.7912 0.0000 0.0000 0.0000
# 2 42.4572 81.7661 31.7912 0.0000 0.0000 0.0000
# 3 31.7912 31.7912 115.3045 0.0000 0.0000 0.0000
# 4 0.0000 0.0000 0.0000 22.0659 0.0000 0.0000
# 5 0.0000 0.0000 0.0000 0.0000 22.0659 0.0000
# 6 0.0000 0.0000 0.0000 0.0000 0.0000 19.6544
#
#
#
# Elastic Compliance Matrix: (Units=1/GPa)
#
#
# Indices 1 2 3 4 5 6 
#
# 1 0.017406 -0.008033 -0.002584 0.000000 0.000000 0.000000
# 2 -0.008033 0.017406 -0.002584 0.000000 0.000000 0.000000
# 3 -0.002584 -0.002584 0.010098 0.000000 0.000000 0.000000
# 4 0.000000 0.000000 0.000000 0.045319 0.000000 0.000000
# 5 0.000000 0.000000 0.000000 0.000000 0.045319 0.000000
# 6 0.000000 0.000000 0.000000 0.000000 0.000000 0.050879
#
#
# Mechanical properties :
#
#
# Convention : Reuss Voigt Hill
#
# Bulk Modulus (GPa) = 54.03559 54.54623 54.29091
# Shear Modulus (GPa) = 22.83112 24.27703 23.55408
#
# Velocity S-wave (km/s) = 3.90910 4.03099 3.97051
# Velocity P-wave (km/s) = 7.51940 7.62715 7.57347
#
# Compressibility (1/GPa) = 0.01850632
#
# Stress axis : x y z
#
# Youngs Moduli (GPa) = 57.45094 57.45094 99.03247
#
# Poissons Ratio (x) = 0.46153 0.25592
# Poissons Ratio (y) = 0.46153 0.25592
# Poissons Ratio (z) = 0.14846 0.14846
#
# Static dielectric constant tensor:
#      x y z
#    x 2.854690 0.000000 0.000000 
#    y 0.000000 2.854690 0.000000 
#    z 0.000000 0.000000 3.249280 
# 
# 
# High freq. dielectric constant tensor:
#      x y z
#    x 1.538780 0.000000 0.000000 
#    y 0.000000 1.538780 0.000000 
#    z 0.000000 0.000000 1.604820 
# 
# From -- ./inp_files/4527.got.cif
#   From: 2010.03.12/outbox.cif.g09.slc.cpg/sg179_3_cif.got.tgz:4527.got - 2010.04.02 07:08:42.
