data_PCOD8326881
_publ_section_title
;
Structure prediction by ZEFSAII (Michael W. Deem and Ramdas Pophale) SiO2 
 PCOD8326881
Probable space group: P -6 M 2
;
_chemical_formula_sum "Si O2"
_cell_formula_units_Z 60
_cell_length_a 21.469115
_cell_length_b 21.469115
_cell_length_c 8.551224
_cell_angle_alpha 90.000000
_cell_angle_beta 90.000000
_cell_angle_gamma 120.000000
_cell_volume 3413.400119
_symmetry_space_group_name_H-M "P -6 M 2"
_symmetry_group_IT_number 187
_symmetry_cell_setting 'hexagonal'
loop_
_space_group_symop_operation_xyz
x,y,z
-x+y,-x,-z
-y,x-y,z
x,y,-z
-x+y,-x,z
-y,x-y,-z
-y,-x,-z
-x+y,y,-z
x,x-y,-z
-x+y,y,z
x,x-y,z
-y,-x,z
loop_
_atom_site_type_symbol
_atom_site_label
_atom_site_fract_x
_atom_site_fract_y
_atom_site_fract_z
Si Si1 0.577834 0.155668 0.180412
Si Si2 0.443224 0.289712 0.813288
Si Si3 0.142414 0.000525 0.182094
Si Si4 0.501122 0.498879 0.317519
Si Si5 0.009135 0.378647 0.816615
Si Si6 0.707439 0.925191 0.681917
O O1 0.657637 0.183283 0.251127
O O2 0.535152 0.070303 0.203188
O O3 0.587647 0.175294 0.000000
O O4 0.417467 0.208734 0.751289
O O5 0.391300 0.319637 0.755797
O O6 0.443909 0.290399 0.000000
O O7 0.060904 0.939097 0.216584
O O8 0.198585 0.986892 0.277650
O O9 0.151491 0.075746 0.239265
O O10 0.160968 0.002953 0.000000
O O11 0.511075 0.488926 0.500000
O O12 0.544599 0.583581 0.272660
O O13 0.062803 0.349613 0.777177
O O14 0.009583 0.391769 0.000000
O O15 0.693675 0.928033 0.500000
O O16 0.696208 0.848104 0.733444
#
# Coordination Sequence:
#
# PCOD8326881 Si02
#       6
#     6  12  12   6  12  12
#     4   8  14  26  42  60  86 120 158 200 242 284
#     4   8  14  25  41  63  90 118 154 202 247 282
#     4   9  17  30  48  68  91 125 172 221 263 302
#     4  10  18  30  50  72  94 120 152 190 234 282
#     4  10  19  32  51  72  96 126 160 199 242 290
#     4  10  21  35  49  69  99 130 160 200 251 303
#
# _framework density 17.577781000000002
#
# number of rings (size 3 to 8) (size 9 to 14) (size 15 to 20)
#    0.000    2.800    0.000    3.500    0.000    3.200 
#    0.600    2.000    0.000   15.600    0.000    0.000 
#    1.000    0.000    1.800    0.000    1.800    0.000 
#
# Total GULP energy -743419.371693 kJ/mol
# GULP energy per Si atom -12390.322862 kJ/mol
# Density = 1.753777 g / cm^3
# Si number density = 17.577781 Si / 1000 Ang^3
#
#
#
# Elastic Constant Matrix: (Units=GPa)
#
#
# Indices 1 2 3 4 5 6 
#
# 1 87.9265 52.3050 23.8367 0.0000 0.0002 0.0000
# 2 52.3050 87.9265 23.8367 0.0000 -0.0002 0.0000
# 3 23.8367 23.8367 39.5170 0.0000 0.0000 0.0000
# 4 0.0000 0.0000 0.0000 19.7683 0.0000 -0.0002
# 5 0.0002 -0.0002 0.0000 0.0000 19.7683 0.0000
# 6 0.0000 0.0000 0.0000 -0.0002 0.0000 17.8108
#
#
#
# Elastic Compliance Matrix: (Units=1/GPa)
#
#
# Indices 1 2 3 4 5 6 
#
# 1 0.018522 -0.009551 -0.005411 0.000000 0.000000 0.000000
# 2 -0.009551 0.018522 -0.005411 0.000000 0.000000 0.000000
# 3 -0.005411 -0.005411 0.031834 0.000000 0.000000 0.000000
# 4 0.000000 0.000000 0.000000 0.050586 0.000000 0.000001
# 5 0.000000 0.000000 0.000000 0.000000 0.050586 0.000000
# 6 0.000000 0.000000 0.000000 0.000001 0.000000 0.056146
#
#
# Mechanical properties :
#
#
# Convention : Reuss Voigt Hill
#
# Bulk Modulus (GPa) = 35.54870 46.14741 40.84806
# Shear Modulus (GPa) = 18.09506 19.16225 18.62866
#
# Velocity S-wave (km/s) = 3.21195 3.30531 3.25896
# Velocity P-wave (km/s) = 5.83293 6.39351 6.11964
#
# Compressibility (1/GPa) = 0.02813043
#
# Stress axis : x y z
#
# Youngs Moduli (GPa) = 53.99048 53.99048 31.41338
#
# Poissons Ratio (x) = 0.51567 0.16998
# Poissons Ratio (y) = 0.51567 0.16998
# Poissons Ratio (z) = 0.29215 0.29215
#
# Static dielectric constant tensor:
#      x y z
#    x 3.338450 0.000000 0.000000 
#    y 0.000000 3.338450 0.000000 
#    z 0.000000 0.000000 3.011340 
# 
# 
# High freq. dielectric constant tensor:
#      x y z
#    x 1.661950 0.000000 0.000000 
#    y 0.000000 1.661950 0.000000 
#    z 0.000000 0.000000 1.660370 
# 
# From -- ./inp_files/701.got.cif
#   From: 2010.03.12/outbox.cif.g09.slc.cpg/sg187_1_cif.got.tgz:701.got - 2010.04.01 11:58:23.
