data_PCOD8326031
_publ_section_title
;
Structure prediction by ZEFSAII (Michael W. Deem and Ramdas Pophale) SiO2 
 PCOD8326031
Probable space group: P 65 2 2
;
_chemical_formula_sum "Si O2"
_cell_formula_units_Z 84
_cell_length_a 17.525583
_cell_length_b 17.525583
_cell_length_c 15.295392
_cell_angle_alpha 90.000000
_cell_angle_beta 90.000000
_cell_angle_gamma 120.000000
_cell_volume 4068.517529
_symmetry_space_group_name_H-M "P 65 2 2"
_symmetry_group_IT_number 179
_symmetry_cell_setting 'hexagonal'
loop_
_space_group_symop_operation_xyz
x,y,z
x-y,x,5/6+z
-y,x-y,2/3+z
-x,-y,1/2+z
-x+y,-x,1/3+z
y,-x+y,1/6+z
x-y,-y,-z
-x,-x+y,1/3-z
y,x,2/3-z
-y,-x,1/6-z
-x+y,y,1/2-z
x,x-y,5/6-z
loop_
_atom_site_type_symbol
_atom_site_label
_atom_site_fract_x
_atom_site_fract_y
_atom_site_fract_z
Si Si1 0.874029 0.520667 0.884535
Si Si2 0.720601 0.540992 0.941138
Si Si3 0.194222 0.932226 0.425560
Si Si4 0.724374 0.753290 0.077911
Si Si5 0.902377 0.487227 0.692712
Si Si6 0.860690 0.605099 0.366864
Si Si7 0.681292 0.097465 0.514820
O O1 0.905905 0.452953 0.916667
O O2 0.780978 0.496271 0.928690
O O3 0.937823 0.620079 0.916473
O O4 0.869699 0.515260 0.779013
O O5 0.758095 0.633333 0.887267
O O6 0.631826 0.473816 0.891581
O O7 0.701148 0.553943 0.042210
O O8 0.096538 0.854752 0.395020
O O9 0.200005 0.000000 0.500000
O O10 0.243499 0.003748 0.352789
O O11 0.766683 0.706792 0.135435
O O12 0.895722 0.393287 0.706697
O O13 0.000000 0.562193 0.666667
O O14 0.875714 0.557379 0.283611
O O15 0.773895 0.612393 0.362010
O O16 0.665912 0.000000 0.500000
#
# Coordination Sequence:
#
# PCOD8326031 Si02
#       7
#    12  12  12  12  12  12  12
#     4  11  23  38  62  91 127 172 213 260 315 383
#     4  10  21  38  62  89 128 162 212 259 321 394
#     4  10  19  35  58  94 124 158 196 259 323 391
#     4  10  22  35  64  89 123 161 210 256 316 384
#     4  11  22  38  59  94 124 162 212 263 322 373
#     4  10  22  42  60  92 119 165 216 265 319 382
#     4  10  24  40  66  87 124 164 216 272 315 380
#
# _framework density 20.646339999999999
#
# number of rings (size 3 to 8) (size 9 to 14) (size 15 to 20)
#    0.000    1.714    0.000    4.714   10.000    2.857 
#    2.571    0.000    0.000    2.571    0.000    0.000 
#    0.000    0.000    0.000    0.000    0.000    0.000 
#
# Total GULP energy -1040717.308754 kJ/mol
# GULP energy per Si atom -12389.491771 kJ/mol
# Density = 2.059935 g / cm^3
# Si number density = 20.646340 Si / 1000 Ang^3
#
#
#
# Elastic Constant Matrix: (Units=GPa)
#
#
# Indices 1 2 3 4 5 6 
#
# 1 72.9227 28.5220 15.1682 0.0000 0.0000 0.0000
# 2 28.5220 72.9227 15.1682 0.0000 0.0000 0.0000
# 3 15.1682 15.1682 78.2319 0.0000 0.0000 0.0000
# 4 0.0000 0.0000 0.0000 29.5915 0.0000 0.0000
# 5 0.0000 0.0000 0.0000 0.0000 29.5915 0.0000
# 6 0.0000 0.0000 0.0000 0.0000 0.0000 22.2004
#
#
#
# Elastic Compliance Matrix: (Units=1/GPa)
#
#
# Indices 1 2 3 4 5 6 
#
# 1 0.016493 -0.006029 -0.002029 0.000000 0.000000 0.000000
# 2 -0.006029 0.016493 -0.002029 0.000000 0.000000 0.000000
# 3 -0.002029 -0.002029 0.013569 0.000000 0.000000 0.000000
# 4 0.000000 0.000000 0.000000 0.033793 0.000000 0.000000
# 5 0.000000 0.000000 0.000000 0.000000 0.033793 0.000000
# 6 0.000000 0.000000 0.000000 0.000000 0.000000 0.045044
#
#
# Mechanical properties :
#
#
# Convention : Reuss Voigt Hill
#
# Bulk Modulus (GPa) = 37.90422 37.97713 37.94067
# Shear Modulus (GPa) = 26.57391 27.29128 26.93259
#
# Velocity S-wave (km/s) = 3.59151 3.63966 3.61567
# Velocity P-wave (km/s) = 5.96634 6.00807 5.98724
#
# Compressibility (1/GPa) = 0.02638229
#
# Stress axis : x y z
#
# Youngs Moduli (GPa) = 60.63090 60.63090 73.69598
#
# Poissons Ratio (x) = 0.36554 0.14952
# Poissons Ratio (y) = 0.36554 0.14952
# Poissons Ratio (z) = 0.12301 0.12301
#
# Static dielectric constant tensor:
#      x y z
#    x 3.722860 0.000000 0.000000 
#    y 0.000000 3.722860 0.000000 
#    z 0.000000 0.000000 3.813760 
# 
# 
# High freq. dielectric constant tensor:
#      x y z
#    x 1.796210 0.000000 0.000000 
#    y 0.000000 1.796210 0.000000 
#    z 0.000000 0.000000 1.813850 
# 
# From -- ./inp_files/6114.got.cif
#   From: 2010.03.12/outbox.cif.g09.slc.cpg/sg179_4_cif.got.tgz:6114.got - 2010.04.02 07:08:42.
