data_PCOD8326755
_publ_section_title
;
Structure prediction by ZEFSAII (Michael W. Deem and Ramdas Pophale) SiO2 
 PCOD8326755
Probable space group: P 63 M C
;
_chemical_formula_sum "Si O2"
_cell_formula_units_Z 72
_cell_length_a 24.314020
_cell_length_b 24.314020
_cell_length_c 8.986463
_cell_angle_alpha 90.000000
_cell_angle_beta 90.000000
_cell_angle_gamma 120.000000
_cell_volume 4600.795835
_symmetry_space_group_name_H-M "P 63 M C"
_symmetry_group_IT_number 186
_symmetry_cell_setting 'hexagonal'
loop_
_space_group_symop_operation_xyz
x,y,z
x-y,x,1/2+z
-y,x-y,z
-x,-y,1/2+z
-x+y,-x,z
y,-x+y,1/2+z
-x+y,y,z
x,x-y,z
-y,-x,z
y,x,1/2+z
x-y,-y,1/2+z
-x,-x+y,1/2+z
loop_
_atom_site_type_symbol
_atom_site_label
_atom_site_fract_x
_atom_site_fract_y
_atom_site_fract_z
Si Si1 0.276819 0.432137 0.765690
Si Si2 0.717279 0.985099 0.593919
Si Si3 0.742318 0.612023 0.940516
Si Si4 0.795412 0.082340 0.362924
Si Si5 0.043480 0.405472 0.225679
Si Si6 0.597048 0.065779 0.417327
O O1 0.230326 0.460652 0.801518
O O2 0.284986 0.431416 0.587552
O O3 0.244451 0.361473 0.830541
O O4 0.344733 0.473107 0.842982
O O5 0.682573 0.927905 0.475459
O O6 0.748486 0.965281 0.726240
O O7 0.774149 0.046177 0.518171
O O8 0.665964 0.001419 0.660212
O O9 0.808269 0.616538 0.889165
O O10 0.691129 0.583423 0.807292
O O11 0.869738 0.130263 0.375461
O O12 0.999547 0.414961 0.343938
O O13 0.064796 0.456075 0.093099
O O14 0.536265 0.072530 0.390220
#
# Coordination Sequence:
#
# PCOD8326755 Si02
#       6
#    12  12  12  12  12  12
#     4   9  17  33  51  71  95 121 165 212 247 302
#     4  11  16  32  48  65 104 128 163 201 232 279
#     4  10  19  31  52  73  96 132 166 199 248 297
#     4  10  19  30  48  70  96 136 167 194 244 293
#     4  12  19  33  47  70 104 133 168 205 247 296
#     4  12  22  33  49  71  99 138 172 207 256 307
#
# _framework density 15.649466
#
# number of rings (size 3 to 8) (size 9 to 14) (size 15 to 20)
#    0.000    1.333    8.333    2.000    0.000    1.333 
#    0.000    0.833    0.000    0.333    0.000    0.000 
#    0.000    1.333    0.000   19.000    0.000    0.500 
#
# Total GULP energy -892699.791949 kJ/mol
# GULP energy per Si atom -12398.608222 kJ/mol
# Density = 1.561385 g / cm^3
# Si number density = 15.649466 Si / 1000 Ang^3
#
#
#
# Elastic Constant Matrix: (Units=GPa)
#
#
# Indices 1 2 3 4 5 6 
#
# 1 82.0259 52.1449 48.1637 0.0000 0.0000 0.0000
# 2 52.1449 82.0259 48.1637 0.0000 0.0000 0.0000
# 3 48.1637 48.1637 88.3766 0.0000 0.0000 0.0000
# 4 0.0000 0.0000 0.0000 22.6869 0.0000 0.0000
# 5 0.0000 0.0000 0.0000 0.0000 22.6869 0.0000
# 6 0.0000 0.0000 0.0000 0.0000 0.0000 14.9405
#
#
#
# Elastic Compliance Matrix: (Units=1/GPa)
#
#
# Indices 1 2 3 4 5 6 
#
# 1 0.022855 -0.010611 -0.006673 0.000000 0.000000 0.000000
# 2 -0.010611 0.022855 -0.006673 0.000000 0.000000 0.000000
# 3 -0.006673 -0.006673 0.018588 0.000000 0.000000 0.000000
# 4 0.000000 0.000000 0.000000 0.044078 0.000000 0.000000
# 5 0.000000 0.000000 0.000000 0.000000 0.044078 0.000000
# 6 0.000000 0.000000 0.000000 0.000000 0.000000 0.066932
#
#
# Mechanical properties :
#
#
# Convention : Reuss Voigt Hill
#
# Bulk Modulus (GPa) = 61.03089 61.04144 61.03616
# Shear Modulus (GPa) = 18.33103 18.99326 18.66215
#
# Velocity S-wave (km/s) = 3.42621 3.48755 3.45702
# Velocity P-wave (km/s) = 7.39833 7.43690 7.41764
#
# Compressibility (1/GPa) = 0.01638515
#
# Stress axis : x y z
#
# Youngs Moduli (GPa) = 43.75420 43.75420 53.79759
#
# Poissons Ratio (x) = 0.46428 0.35897
# Poissons Ratio (y) = 0.46428 0.35897
# Poissons Ratio (z) = 0.29196 0.29196
#
# Static dielectric constant tensor:
#      x y z
#    x 2.870930 0.000000 0.000000 
#    y 0.000000 2.870930 0.000000 
#    z 0.000000 0.000000 3.201680 
# 
# 
# High freq. dielectric constant tensor:
#      x y z
#    x 1.571930 0.000000 0.000000 
#    y 0.000000 1.571930 0.000000 
#    z 0.000000 0.000000 1.617120 
# 
# From -- ./inp_files/1188.got.cif
#   From: 2010.03.12/outbox.cif.g09.slc.cpg/sg186_1_cif.got.tgz:1188.got - 2010.04.01 11:56:34.
