data_PCOD8326993
_publ_section_title
;
Structure prediction by ZEFSAII (Michael W. Deem and Ramdas Pophale) SiO2 
 PCOD8326993
Probable space group: P -6 M 2
;
_chemical_formula_sum "Si O2"
_cell_formula_units_Z 54
_cell_length_a 17.792508
_cell_length_b 17.792508
_cell_length_c 10.766201
_cell_angle_alpha 90.000000
_cell_angle_beta 90.000000
_cell_angle_gamma 120.000000
_cell_volume 2951.667646
_symmetry_space_group_name_H-M "P -6 M 2"
_symmetry_group_IT_number 187
_symmetry_cell_setting 'hexagonal'
loop_
_space_group_symop_operation_xyz
x,y,z
-x+y,-x,-z
-y,x-y,z
x,y,-z
-x+y,-x,z
-y,x-y,-z
-y,-x,-z
-x+y,y,-z
x,x-y,-z
-x+y,y,z
x,x-y,z
-y,-x,z
loop_
_atom_site_type_symbol
_atom_site_label
_atom_site_fract_x
_atom_site_fract_y
_atom_site_fract_z
Si Si1 0.989514 0.578038 0.140982
Si Si2 0.822745 0.822998 0.000000
Si Si3 0.926356 0.242255 0.500000
Si Si4 0.504535 0.664950 0.263026
Si Si5 0.046355 0.610007 0.500000
Si Si6 0.938094 0.705564 0.771289
O O1 0.964684 0.482342 0.192802
O O2 0.940404 0.616185 0.221416
O O3 0.094218 0.639541 0.147906
O O4 0.959831 0.571894 0.000000
O O5 0.771248 0.773332 0.874448
O O6 0.830465 0.915233 0.000000
O O7 0.918771 0.837542 0.000000
O O8 0.820576 0.179425 0.500000
O O9 0.962398 0.221470 0.371823
O O10 0.957147 0.344160 0.500000
O O11 0.521640 0.760820 0.242712
O O12 0.401594 0.598407 0.276779
O O13 0.555795 0.660918 0.382873
O O14 0.018912 0.509456 0.500000
O O15 0.841141 0.682281 0.804797
#
# Coordination Sequence:
#
# PCOD8326993 Si02
#       6
#    12   6   6  12   6  12
#     4  10  20  34  52  78 108 140 178 223 270 314
#     4  10  21  38  59  82 106 138 178 222 269 322
#     4  10  20  35  54  80 110 139 171 218 274 324
#     4  10  20  33  49  71 103 142 182 222 262 305
#     4  10  19  33  52  74 100 135 179 218 261 312
#     4  10  20  36  57  81 108 139 179 220 268 324
#
# _framework density 18.294744000000001
#
# number of rings (size 3 to 8) (size 9 to 14) (size 15 to 20)
#    0.000    2.000    3.333    0.667    0.000    1.333 
#    0.000    1.667    0.000    2.000    0.000    1.556 
#    0.000    0.000    0.000    0.000    0.000    0.000 
#
# Total GULP energy -669058.169972 kJ/mol
# GULP energy per Si atom -12389.966111 kJ/mol
# Density = 1.825310 g / cm^3
# Si number density = 18.294744 Si / 1000 Ang^3
#
#
#
# Elastic Constant Matrix: (Units=GPa)
#
#
# Indices 1 2 3 4 5 6 
#
# 1 73.6665 39.1068 24.3181 0.0000 0.0000 0.0000
# 2 39.1068 73.6665 24.3181 0.0000 0.0000 0.0000
# 3 24.3181 24.3181 119.8411 0.0000 0.0000 0.0000
# 4 0.0000 0.0000 0.0000 18.7273 0.0000 0.0000
# 5 0.0000 0.0000 0.0000 0.0000 18.7273 0.0000
# 6 0.0000 0.0000 0.0000 0.0000 0.0000 17.2799
#
#
#
# Elastic Compliance Matrix: (Units=1/GPa)
#
#
# Indices 1 2 3 4 5 6 
#
# 1 0.019327 -0.009609 -0.001972 0.000000 0.000000 0.000000
# 2 -0.009609 0.019327 -0.001972 0.000000 0.000000 0.000000
# 3 -0.001972 -0.001972 0.009145 0.000000 0.000000 0.000000
# 4 0.000000 0.000000 0.000000 0.053398 0.000000 0.000000
# 5 0.000000 0.000000 0.000000 0.000000 0.053398 0.000000
# 6 0.000000 0.000000 0.000000 0.000000 0.000000 0.057871
#
#
# Mechanical properties :
#
#
# Convention : Reuss Voigt Hill
#
# Bulk Modulus (GPa) = 48.32662 49.18447 48.75554
# Shear Modulus (GPa) = 20.28663 22.90895 21.59779
#
# Velocity S-wave (km/s) = 3.33359 3.54250 3.43964
# Velocity P-wave (km/s) = 6.42573 6.60873 6.51787
#
# Compressibility (1/GPa) = 0.02069253
#
# Stress axis : x y z
#
# Youngs Moduli (GPa) = 51.74216 51.74216 109.35333
#
# Poissons Ratio (x) = 0.49718 0.21564
# Poissons Ratio (y) = 0.49718 0.21564
# Poissons Ratio (z) = 0.10203 0.10203
#
# Static dielectric constant tensor:
#      x y z
#    x 3.261770 0.000000 0.000000 
#    y 0.000000 3.261770 0.000000 
#    z 0.000000 0.000000 3.775210 
# 
# 
# High freq. dielectric constant tensor:
#      x y z
#    x 1.688160 0.000000 0.000000 
#    y 0.000000 1.688160 0.000000 
#    z 0.000000 0.000000 1.731860 
# 
# From -- ./inp_files/1604.got.cif
#   From: 2010.03.12/outbox.cif.g09.slc.cpg/sg187_1_cif.got.tgz:1604.got - 2010.04.01 11:58:23.
