data_PCOD8326747
_publ_section_title
;
Structure prediction by ZEFSAII (Michael W. Deem and Ramdas Pophale) SiO2 
 PCOD8326747
Probable space group: P 63 M C
;
_chemical_formula_sum "Si O2"
_cell_formula_units_Z 72
_cell_length_a 20.625557
_cell_length_b 20.625557
_cell_length_c 10.349105
_cell_angle_alpha 90.000000
_cell_angle_beta 90.000000
_cell_angle_gamma 120.000000
_cell_volume 3812.806771
_symmetry_space_group_name_H-M "P 63 M C"
_symmetry_group_IT_number 186
_symmetry_cell_setting 'hexagonal'
loop_
_space_group_symop_operation_xyz
x,y,z
x-y,x,1/2+z
-y,x-y,z
-x,-y,1/2+z
-x+y,-x,z
y,-x+y,1/2+z
-x+y,y,z
x,x-y,z
-y,-x,z
y,x,1/2+z
x-y,-y,1/2+z
-x,-x+y,1/2+z
loop_
_atom_site_type_symbol
_atom_site_label
_atom_site_fract_x
_atom_site_fract_y
_atom_site_fract_z
Si Si1 0.185042 0.664399 0.754650
Si Si2 0.926485 0.390484 0.479093
Si Si3 0.455227 0.153610 0.995060
Si Si4 0.711824 0.929137 0.217137
Si Si5 0.713165 0.020009 0.983222
Si Si6 0.695582 0.159829 0.714084
O O1 0.216341 0.608171 0.780299
O O2 0.250984 0.749017 0.764748
O O3 0.123882 0.653995 0.858090
O O4 0.143573 0.644934 0.615344
O O5 0.961470 0.480735 0.462907
O O6 0.873647 0.367804 0.605603
O O7 0.987820 0.364732 0.483667
O O8 0.479219 0.239610 0.989053
O O9 0.365169 0.106231 0.016631
O O10 0.481243 0.137570 0.855978
O O11 0.747145 0.873573 0.223991
O O12 0.731401 0.982045 0.344731
O O13 0.624223 0.877943 0.200284
O O14 0.741118 0.982136 0.089564
O O15 0.750304 0.249697 0.696096
#
# Coordination Sequence:
#
# PCOD8326747 Si02
#       6
#    12  12  12  12  12  12
#     4  10  20  33  47  64  88 121 164 209 250 293
#     4  10  20  30  44  68  94 123 162 206 252 298
#     4   9  18  32  50  70  92 124 161 195 244 303
#     4   9  18  32  51  74  99 132 167 195 236 293
#     4  10  18  33  51  71 102 133 161 201 248 294
#     4   8  15  30  48  63  85 119 158 198 242 297
#
# _framework density 18.883725999999999
#
# number of rings (size 3 to 8) (size 9 to 14) (size 15 to 20)
#    0.000    2.667    0.000    3.167    0.000    2.000 
#    0.000   11.667    0.000    0.333    0.000    0.000 
#    0.000    0.000    0.000   19.000    0.000    0.000 
#
# Total GULP energy -891995.670403 kJ/mol
# GULP energy per Si atom -12388.828756 kJ/mol
# Density = 1.884075 g / cm^3
# Si number density = 18.883726 Si / 1000 Ang^3
#
#
#
# Elastic Constant Matrix: (Units=GPa)
#
#
# Indices 1 2 3 4 5 6 
#
# 1 31.7708 13.8243 29.9321 0.0000 0.0000 0.0000
# 2 13.8243 31.7708 29.9321 0.0000 0.0000 0.0000
# 3 29.9321 29.9321 143.6536 0.0000 0.0000 0.0000
# 4 0.0000 0.0000 0.0000 16.3480 0.0000 0.0000
# 5 0.0000 0.0000 0.0000 0.0000 16.3480 0.0000
# 6 0.0000 0.0000 0.0000 0.0000 0.0000 8.9733
#
#
#
# Elastic Compliance Matrix: (Units=1/GPa)
#
#
# Indices 1 2 3 4 5 6 
#
# 1 0.042956 -0.012765 -0.006291 0.000000 0.000000 0.000000
# 2 -0.012765 0.042956 -0.006291 0.000000 0.000000 0.000000
# 3 -0.006291 -0.006291 0.009583 0.000000 0.000000 0.000000
# 4 0.000000 0.000000 0.000000 0.061170 0.000000 0.000000
# 5 0.000000 0.000000 0.000000 0.000000 0.061170 0.000000
# 6 0.000000 0.000000 0.000000 0.000000 0.000000 0.111442
#
#
# Mechanical properties :
#
#
# Convention : Reuss Voigt Hill
#
# Bulk Modulus (GPa) = 22.32002 39.39693 30.85847
# Shear Modulus (GPa) = 12.66131 17.23430 14.94780
#
# Velocity S-wave (km/s) = 2.59219 3.02429 2.81654
# Velocity P-wave (km/s) = 4.56121 5.75355 5.19172
#
# Compressibility (1/GPa) = 0.04480283
#
# Stress axis : x y z
#
# Youngs Moduli (GPa) = 23.27941 23.27941 104.35415
#
# Poissons Ratio (x) = 0.29715 0.65648
# Poissons Ratio (y) = 0.29715 0.65648
# Poissons Ratio (z) = 0.14645 0.14645
#
# Static dielectric constant tensor:
#      x y z
#    x 3.270020 0.000000 0.000000 
#    y 0.000000 3.270020 0.000000 
#    z 0.000000 0.000000 3.972640 
# 
# 
# High freq. dielectric constant tensor:
#      x y z
#    x 1.699280 0.000000 0.000000 
#    y 0.000000 1.699280 0.000000 
#    z 0.000000 0.000000 1.756350 
# 
# From -- ./inp_files/1220.got.cif
#   From: 2010.03.12/outbox.cif.g09.slc.cpg/sg186_1_cif.got.tgz:1220.got - 2010.04.01 11:56:34.
