data_PCOD8326627
_publ_section_title
;
Structure prediction by ZEFSAII (Michael W. Deem and Ramdas Pophale) SiO2 
 PCOD8326627
Probable space group: P 63 C M
;
_chemical_formula_sum "Si O2"
_cell_formula_units_Z 96
_cell_length_a 23.696551
_cell_length_b 23.696551
_cell_length_c 11.661167
_cell_angle_alpha 90.000000
_cell_angle_beta 90.000000
_cell_angle_gamma 120.000000
_cell_volume 5670.781658
_symmetry_space_group_name_H-M "P 63 C M"
_symmetry_group_IT_number 185
_symmetry_cell_setting 'hexagonal'
loop_
_space_group_symop_operation_xyz
x,y,z
x-y,x,1/2+z
-y,x-y,z
-x,-y,1/2+z
-x+y,-x,z
y,-x+y,1/2+z
-x+y,y,1/2+z
x,x-y,1/2+z
-y,-x,1/2+z
y,x,z
x-y,-y,z
-x,-x+y,z
loop_
_atom_site_type_symbol
_atom_site_label
_atom_site_fract_x
_atom_site_fract_y
_atom_site_fract_z
Si Si1 0.354433 0.427469 0.461390
Si Si2 0.384000 0.462259 0.211203
Si Si3 0.345805 0.213167 0.480017
Si Si4 0.724834 0.925985 0.249493
Si Si5 0.415497 0.926280 0.184863
Si Si6 0.106362 0.376268 0.553791
Si Si7 0.189696 0.265582 0.688605
Si Si8 0.693903 0.621583 0.303109
O O1 0.367964 0.367964 0.445939
O O2 0.357178 0.457824 0.338466
O O3 0.284579 0.399642 0.519872
O O4 0.404958 0.480954 0.548399
O O5 0.418550 0.418550 0.191332
O O6 0.433159 0.539878 0.198843
O O7 0.323366 0.439101 0.124018
O O8 0.328164 0.217689 0.348682
O O9 0.381839 0.172158 0.503408
O O10 0.280056 0.189670 0.553784
O O11 0.687161 0.928322 0.135314
O O12 0.762203 0.884754 0.231238
O O13 0.778040 0.000000 0.282029
O O14 0.346829 0.892929 0.257441
O O15 0.458347 0.000000 0.230854
O O16 0.065823 0.372070 0.440485
O O17 0.213242 0.213242 0.713028
O O18 0.232780 0.335289 0.753676
O O19 0.655827 0.655827 0.248959
#
# Coordination Sequence:
#
# PCOD8326627 Si02
#       8
#    12  12  12  12  12  12  12  12
#     4  10  18  32  51  70  99 140 176 208 251 307
#     4  10  20  32  48  74 108 140 170 204 252 313
#     4  11  20  33  52  73 101 140 180 217 259 321
#     4  11  21  35  52  75 104 141 184 227 279 336
#     4   9  19  31  49  74 103 140 172 201 247 309
#     4  11  22  32  49  75 106 137 173 220 266 315
#     4  10  20  34  51  73 101 136 178 222 272 330
#     4  10  18  31  47  70 102 136 166 205 255 309
#
# _framework density 16.928882999999999
#
# number of rings (size 3 to 8) (size 9 to 14) (size 15 to 20)
#    0.000    1.750    3.750    2.250    1.750    0.000 
#    0.000    0.000    0.000    0.250    0.000    0.000 
#    1.250    3.000    0.000    0.000    0.000    0.000 
#
# Total GULP energy -1189460.854491 kJ/mol
# GULP energy per Si atom -12390.217234 kJ/mol
# Density = 1.689035 g / cm^3
# Si number density = 16.928883 Si / 1000 Ang^3
#
#
#
# Elastic Constant Matrix: (Units=GPa)
#
#
# Indices 1 2 3 4 5 6 
#
# 1 87.9379 42.2549 23.3225 0.0000 0.0000 0.0000
# 2 42.2549 87.9379 23.3225 0.0000 0.0000 0.0000
# 3 23.3225 23.3225 90.6174 0.0000 0.0000 0.0000
# 4 0.0000 0.0000 0.0000 20.4091 0.0000 0.0000
# 5 0.0000 0.0000 0.0000 0.0000 20.4091 0.0000
# 6 0.0000 0.0000 0.0000 0.0000 0.0000 22.8415
#
#
#
# Elastic Compliance Matrix: (Units=1/GPa)
#
#
# Indices 1 2 3 4 5 6 
#
# 1 0.015176 -0.006714 -0.002178 0.000000 0.000000 0.000000
# 2 -0.006714 0.015176 -0.002178 0.000000 0.000000 0.000000
# 3 -0.002178 -0.002178 0.012156 0.000000 0.000000 0.000000
# 4 0.000000 0.000000 0.000000 0.048998 0.000000 0.000000
# 5 0.000000 0.000000 0.000000 0.000000 0.048998 0.000000
# 6 0.000000 0.000000 0.000000 0.000000 0.000000 0.043780
#
#
# Mechanical properties :
#
#
# Convention : Reuss Voigt Hill
#
# Bulk Modulus (GPa) = 49.09680 49.36590 49.23135
# Shear Modulus (GPa) = 23.45083 24.57146 24.01114
#
# Velocity S-wave (km/s) = 3.72594 3.81393 3.77019
# Velocity P-wave (km/s) = 6.89746 6.97272 6.93519
#
# Compressibility (1/GPa) = 0.02036793
#
# Stress axis : x y z
#
# Youngs Moduli (GPa) = 65.89537 65.89537 82.26148
#
# Poissons Ratio (x) = 0.44245 0.17914
# Poissons Ratio (y) = 0.44245 0.17914
# Poissons Ratio (z) = 0.14350 0.14350
#
# Static dielectric constant tensor:
#      x y z
#    x 3.039900 0.000000 0.000000 
#    y 0.000000 3.039900 0.000000 
#    z 0.000000 0.000000 3.284400 
# 
# 
# High freq. dielectric constant tensor:
#      x y z
#    x 1.620820 0.000000 0.000000 
#    y 0.000000 1.620820 0.000000 
#    z 0.000000 0.000000 1.674660 
# 
# From -- ./inp_files/1094.got.cif
#   From: 2010.03.12/outbox.cif.g09.slc.cpg/sg185_cif.got.tgz:1094.got - 2010.04.01 11:55:19.
