data_PCOD8326827
_publ_section_title
;
Structure prediction by ZEFSAII (Michael W. Deem and Ramdas Pophale) SiO2 
 PCOD8326827
Probable space group: P -6 M 2
;
_chemical_formula_sum "Si O2"
_cell_formula_units_Z 72
_cell_length_a 21.649906
_cell_length_b 21.649906
_cell_length_c 13.566342
_cell_angle_alpha 90.000000
_cell_angle_beta 90.000000
_cell_angle_gamma 120.000000
_cell_volume 5506.877592
_symmetry_space_group_name_H-M "P -6 M 2"
_symmetry_group_IT_number 187
_symmetry_cell_setting 'hexagonal'
loop_
_space_group_symop_operation_xyz
x,y,z
-x+y,-x,-z
-y,x-y,z
x,y,-z
-x+y,-x,z
-y,x-y,-z
-y,-x,-z
-x+y,y,-z
x,x-y,-z
-x+y,y,z
x,x-y,z
-y,-x,z
loop_
_atom_site_type_symbol
_atom_site_label
_atom_site_fract_x
_atom_site_fract_y
_atom_site_fract_z
Si Si1 0.998491 0.372102 0.792790
Si Si2 0.498384 0.996768 0.107513
Si Si3 0.597314 0.729894 0.114275
Si Si4 0.708119 0.152610 0.882673
Si Si5 0.054890 0.456308 0.387539
Si Si6 0.582554 0.165108 0.893521
Si Si7 0.332417 0.525756 0.263877
O O1 0.026457 0.451771 0.835596
O O2 0.055982 0.350765 0.832884
O O3 0.002283 0.384471 0.674842
O O4 0.920121 0.311461 0.826425
O O5 0.540430 0.080860 0.095152
O O6 0.480237 0.960474 0.000000
O O7 0.630786 0.815393 0.127759
O O8 0.519792 0.688667 0.163855
O O9 0.589267 0.708927 0.000000
O O10 0.790010 0.209991 0.859802
O O11 0.657653 0.184046 0.841674
O O12 0.694697 0.137333 0.000000
O O13 0.050244 0.431921 0.500000
O O14 0.029768 0.514884 0.376842
O O15 0.135630 0.488390 0.350491
O O16 0.601706 0.203411 0.000000
O O17 0.266635 0.533269 0.304227
O O18 0.397271 0.602730 0.236591
#
# Coordination Sequence:
#
# PCOD8326827 Si02
#       7
#    12   6  12  12  12   6  12
#     4  10  16  26  40  55  71  96 122 152 186 221
#     4   9  14  20  35  57  71  89 120 144 167 211
#     4   9  17  26  35  51  74  98 125 154 186 226
#     4   9  16  25  38  58  81 101 121 144 173 216
#     4   9  17  28  39  52  67  85 120 165 198 220
#     4   7  12  22  32  47  75 101 119 138 162 199
#     4   9  17  27  37  50  68  93 123 159 201 242
#
# _framework density 13.07456
#
# number of rings (size 3 to 8) (size 9 to 14) (size 15 to 20)
#    0.000    3.000    0.833    2.667    1.167    0.667 
#    0.500    0.000    0.000    2.500    0.000    0.000 
#    0.000    0.000    0.000    0.500    0.000    7.500 
#
# Total GULP energy -892011.903343 kJ/mol
# GULP energy per Si atom -12389.054213 kJ/mol
# Density = 1.304480 g / cm^3
# Si number density = 13.074560 Si / 1000 Ang^3
#
#
#
# Elastic Constant Matrix: (Units=GPa)
#
#
# Indices 1 2 3 4 5 6 
#
# 1 65.5946 31.4995 26.6319 0.0000 0.0001 0.0000
# 2 31.4995 65.5946 26.6319 0.0000 -0.0001 0.0000
# 3 26.6319 26.6319 83.6448 0.0000 0.0000 0.0000
# 4 0.0000 0.0000 0.0000 11.8717 0.0000 -0.0001
# 5 0.0001 -0.0001 0.0000 0.0000 11.8717 0.0000
# 6 0.0000 0.0000 0.0000 -0.0001 0.0000 17.0475
#
#
#
# Elastic Compliance Matrix: (Units=1/GPa)
#
#
# Indices 1 2 3 4 5 6 
#
# 1 0.020904 -0.008425 -0.003973 0.000000 0.000000 0.000000
# 2 -0.008425 0.020904 -0.003973 0.000000 0.000000 0.000000
# 3 -0.003973 -0.003973 0.014485 0.000000 0.000000 0.000000
# 4 0.000000 0.000000 0.000000 0.084234 0.000000 0.000000
# 5 0.000000 0.000000 0.000000 0.000000 0.084234 0.000000
# 6 0.000000 0.000000 0.000000 0.000000 0.000000 0.058660
#
#
# Mechanical properties :
#
#
# Convention : Reuss Voigt Hill
#
# Bulk Modulus (GPa) = 42.46206 42.70670 42.58438
# Shear Modulus (GPa) = 15.43136 16.82956 16.13046
#
# Velocity S-wave (km/s) = 3.43922 3.59165 3.51626
# Velocity P-wave (km/s) = 6.95114 7.06645 7.00903
#
# Compressibility (1/GPa) = 0.02355044
#
# Stress axis : x y z
#
# Youngs Moduli (GPa) = 47.83698 47.83698 69.03511
#
# Poissons Ratio (x) = 0.40305 0.27429
# Poissons Ratio (y) = 0.40305 0.27429
# Poissons Ratio (z) = 0.19007 0.19007
#
# Static dielectric constant tensor:
#      x y z
#    x 2.557970 0.000000 0.000000 
#    y 0.000000 2.557970 0.000000 
#    z 0.000000 0.000000 2.548670 
# 
# 
# High freq. dielectric constant tensor:
#      x y z
#    x 1.472050 0.000000 0.000000 
#    y 0.000000 1.472050 0.000000 
#    z 0.000000 0.000000 1.482150 
# 
# From -- ./inp_files/1947.got.cif
#   From: 2010.03.12/outbox.cif.g09.slc.cpg/sg187_1_cif.got.tgz:1947.got - 2010.04.01 11:58:23.
