data_PCOD8326023
_publ_section_title
;
Structure prediction by ZEFSAII (Michael W. Deem and Ramdas Pophale) SiO2 
 PCOD8326023
Probable space group: P 65 2 2
;
_chemical_formula_sum "Si O2"
_cell_formula_units_Z 66
_cell_length_a 21.156925
_cell_length_b 21.156925
_cell_length_c 8.073081
_cell_angle_alpha 90.000000
_cell_angle_beta 90.000000
_cell_angle_gamma 120.000000
_cell_volume 3129.500568
_symmetry_space_group_name_H-M "P 65 2 2"
_symmetry_group_IT_number 179
_symmetry_cell_setting 'hexagonal'
loop_
_space_group_symop_operation_xyz
x,y,z
x-y,x,5/6+z
-y,x-y,2/3+z
-x,-y,1/2+z
-x+y,-x,1/3+z
y,-x+y,1/6+z
x-y,-y,-z
-x,-x+y,1/3-z
y,x,2/3-z
-y,-x,1/6-z
-x+y,y,1/2-z
x,x-y,5/6-z
loop_
_atom_site_type_symbol
_atom_site_label
_atom_site_fract_x
_atom_site_fract_y
_atom_site_fract_z
Si Si1 0.486202 0.063798 0.393450
Si Si2 0.265893 0.223092 0.501677
Si Si3 0.152225 0.076113 0.416667
Si Si4 0.640705 0.359296 0.083334
Si Si5 0.195543 0.804458 0.583334
Si Si6 0.517845 0.832497 0.156570
Si Si7 0.653619 0.631054 0.151734
O O1 0.546229 0.092457 0.250000
O O2 0.505717 0.132358 0.508688
O O3 0.489144 0.000000 0.500000
O O4 0.404839 0.027598 0.319401
O O5 0.234445 0.234445 0.333334
O O6 0.205953 0.139199 0.550967
O O7 0.344532 0.232360 0.470022
O O8 0.277251 0.286113 0.632172
O O9 0.098530 0.098530 0.333334
O O10 0.669177 0.338354 0.250000
O O11 0.553362 0.323540 0.086758
O O12 0.205147 0.765152 0.743540
O O13 0.570293 0.893096 0.289947
O O14 0.620124 0.620124 0.333334
#
# Coordination Sequence:
#
# PCOD8326023 Si02
#       7
#    12  12   6   6   6  12  12
#     4  10  21  36  61  97 136 171 221 285 357 425
#     4  10  18  38  65  96 135 169 217 286 336 403
#     4   9  20  36  67  92 124 184 234 260 314 387
#     4  12  31  56  71  94 142 190 254 302 350 441
#     4  11  19  38  70  94 128 178 234 272 350 416
#     4  11  25  42  71  96 131 188 233 283 355 426
#     4  11  22  38  62 106 146 167 217 291 368 427
#
# _framework density 21.089627
#
# number of rings (size 3 to 8) (size 9 to 14) (size 15 to 20)
#    0.000    1.455    3.636    1.636    7.636    3.636 
#    0.000    0.909    0.000    0.000    0.000    0.000 
#    0.000    0.000    0.000    0.000    0.000    0.000 
#
# Total GULP energy -818185.018279 kJ/mol
# GULP energy per Si atom -12396.742701 kJ/mol
# Density = 2.104163 g / cm^3
# Si number density = 21.089627 Si / 1000 Ang^3
#
#
#
# Elastic Constant Matrix: (Units=GPa)
#
#
# Indices 1 2 3 4 5 6 
#
# 1 112.4926 45.6583 32.2720 0.0000 0.0000 0.0000
# 2 45.6583 112.4926 32.2720 0.0000 0.0000 0.0000
# 3 32.2720 32.2720 102.0743 0.0000 0.0000 0.0000
# 4 0.0000 0.0000 0.0000 46.8832 0.0000 0.0000
# 5 0.0000 0.0000 0.0000 0.0000 46.8832 0.0000
# 6 0.0000 0.0000 0.0000 0.0000 0.0000 33.4171
#
#
#
# Elastic Compliance Matrix: (Units=1/GPa)
#
#
# Indices 1 2 3 4 5 6 
#
# 1 0.011111 -0.003851 -0.002295 0.000000 0.000000 0.000000
# 2 -0.003851 0.011111 -0.002295 0.000000 0.000000 0.000000
# 3 -0.002295 -0.002295 0.011248 0.000000 0.000000 0.000000
# 4 0.000000 0.000000 0.000000 0.021330 0.000000 0.000000
# 5 0.000000 0.000000 0.000000 0.000000 0.021330 0.000000
# 6 0.000000 0.000000 0.000000 0.000000 0.000000 0.029925
#
#
# Mechanical properties :
#
#
# Convention : Reuss Voigt Hill
#
# Bulk Modulus (GPa) = 60.28938 60.82933 60.55936
# Shear Modulus (GPa) = 38.92054 39.89386 39.40720
#
# Velocity S-wave (km/s) = 4.30057 4.35401 4.32737
# Velocity P-wave (km/s) = 7.30131 7.36087 7.33115
#
# Compressibility (1/GPa) = 0.01658667
#
# Stress axis : x y z
#
# Youngs Moduli (GPa) = 90.00011 90.00011 88.90355
#
# Poissons Ratio (x) = 0.34662 0.20406
# Poissons Ratio (y) = 0.34662 0.20406
# Poissons Ratio (z) = 0.20658 0.20658
#
# Static dielectric constant tensor:
#      x y z
#    x 3.752970 0.000000 0.000000 
#    y 0.000000 3.752970 0.000000 
#    z 0.000000 0.000000 3.569720 
# 
# 
# High freq. dielectric constant tensor:
#      x y z
#    x 1.832430 0.000000 0.000000 
#    y 0.000000 1.832430 0.000000 
#    z 0.000000 0.000000 1.796300 
# 
# From -- ./inp_files/3431.got.cif
#   From: 2010.03.12/outbox.cif.g09.slc.cpg/sg179_2_cif.got.tgz:3431.got - 2010.04.02 07:08:42.
