data_PCOD8326656
_publ_section_title
;
Structure prediction by ZEFSAII (Michael W. Deem and Ramdas Pophale) SiO2 
 PCOD8326656
Probable space group: P 63 C M
;
_chemical_formula_sum "Si O2"
_cell_formula_units_Z 96
_cell_length_a 14.684025
_cell_length_b 14.684025
_cell_length_c 27.540284
_cell_angle_alpha 90.000000
_cell_angle_beta 90.000000
_cell_angle_gamma 120.000000
_cell_volume 5142.677338
_symmetry_space_group_name_H-M "P 63 C M"
_symmetry_group_IT_number 185
_symmetry_cell_setting 'hexagonal'
loop_
_space_group_symop_operation_xyz
x,y,z
x-y,x,1/2+z
-y,x-y,z
-x,-y,1/2+z
-x+y,-x,z
y,-x+y,1/2+z
-x+y,y,1/2+z
x,x-y,1/2+z
-y,-x,1/2+z
y,x,z
x-y,-y,z
-x,-x+y,z
loop_
_atom_site_type_symbol
_atom_site_label
_atom_site_fract_x
_atom_site_fract_y
_atom_site_fract_z
Si Si1 0.878003 0.288096 0.306880
Si Si2 0.441917 0.246707 0.176270
Si Si3 0.877302 0.284715 0.568398
Si Si4 0.594718 0.719720 0.414540
Si Si5 0.533771 0.409954 0.720149
Si Si6 0.875177 0.243420 0.992239
Si Si7 0.876638 0.122597 0.237588
Si Si8 0.429956 0.877976 0.489172
O O1 0.825885 0.261915 0.360303
O O2 0.836687 0.350019 0.272395
O O3 0.856158 0.179050 0.282958
O O4 0.000000 0.365866 0.314571
O O5 0.448977 0.282078 0.121400
O O6 0.498764 0.177490 0.178779
O O7 0.501122 0.345985 0.212832
O O8 0.319394 0.179344 0.191043
O O9 0.824417 0.171608 0.541501
O O10 0.852003 0.363103 0.538325
O O11 0.000000 0.324993 0.571151
O O12 0.670947 0.670947 0.414383
O O13 0.657707 0.830034 0.443761
O O14 0.485237 0.645120 0.442107
O O15 0.459035 0.459035 0.714800
O O16 0.000000 0.295283 0.993389
O O17 0.828941 0.323395 0.990916
O O18 0.000000 0.172776 0.226569
O O19 0.827241 0.000000 0.249457
O O20 0.507250 0.000000 0.484031
#
# Coordination Sequence:
#
# PCOD8326656 Si02
#       8
#    12  12  12  12  12  12  12  12
#     4   8  17  34  56  77 106 148 183 221 282 337
#     4  11  22  37  58  83 111 150 195 235 292 354
#     4  10  21  37  56  77 109 148 182 224 285 342
#     4   9  17  36  58  76 109 148 176 221 285 339
#     4  10  21  38  56  81 115 148 188 240 286 341
#     4  10  20  34  55  83 108 137 186 234 273 332
#     4  10  20  36  57  84 115 150 194 240 284 337
#     4   8  17  34  51  73 102 133 175 221 267 320
#
# _framework density 18.66732
#
# number of rings (size 3 to 8) (size 9 to 14) (size 15 to 20)
#    0.000    2.500    0.000    3.750    1.750    1.500 
#   10.500    0.000    0.000    2.000    0.000    0.000 
#    0.000    0.000    0.000    0.000    0.000    0.000 
#
# Total GULP energy -1189919.218303 kJ/mol
# GULP energy per Si atom -12394.991857 kJ/mol
# Density = 1.862483 g / cm^3
# Si number density = 18.667320 Si / 1000 Ang^3
#
#
#
# Elastic Constant Matrix: (Units=GPa)
#
#
# Indices 1 2 3 4 5 6 
#
# 1 93.3105 36.6863 41.1813 0.0000 0.0000 0.0000
# 2 36.6863 93.3105 41.1813 0.0000 0.0000 0.0000
# 3 41.1813 41.1813 124.3871 0.0000 0.0000 0.0000
# 4 0.0000 0.0000 0.0000 18.6175 0.0000 0.0000
# 5 0.0000 0.0000 0.0000 0.0000 18.6175 0.0000
# 6 0.0000 0.0000 0.0000 0.0000 0.0000 28.3121
#
#
#
# Elastic Compliance Matrix: (Units=1/GPa)
#
#
# Indices 1 2 3 4 5 6 
#
# 1 0.013697 -0.003963 -0.003223 0.000000 0.000000 0.000000
# 2 -0.003963 0.013697 -0.003223 0.000000 0.000000 0.000000
# 3 -0.003223 -0.003223 0.010173 0.000000 0.000000 0.000000
# 4 0.000000 0.000000 0.000000 0.053713 0.000000 0.000000
# 5 0.000000 0.000000 0.000000 0.000000 0.053713 0.000000
# 6 0.000000 0.000000 0.000000 0.000000 0.000000 0.035321
#
#
# Mechanical properties :
#
#
# Convention : Reuss Voigt Hill
#
# Bulk Modulus (GPa) = 59.69812 61.01180 60.35496
# Shear Modulus (GPa) = 24.18789 25.90671 25.04730
#
# Velocity S-wave (km/s) = 3.60354 3.72937 3.66700
# Velocity P-wave (km/s) = 7.02591 7.16233 7.09445
#
# Compressibility (1/GPa) = 0.01675095
#
# Stress axis : x y z
#
# Youngs Moduli (GPa) = 73.00691 73.00691 98.29564
#
# Poissons Ratio (x) = 0.28932 0.31679
# Poissons Ratio (y) = 0.28932 0.31679
# Poissons Ratio (z) = 0.23529 0.23529
#
# Static dielectric constant tensor:
#      x y z
#    x 3.455970 0.000000 0.000000 
#    y 0.000000 3.455970 0.000000 
#    z 0.000000 0.000000 3.888070 
# 
# 
# High freq. dielectric constant tensor:
#      x y z
#    x 1.720010 0.000000 0.000000 
#    y 0.000000 1.720010 0.000000 
#    z 0.000000 0.000000 1.723020 
# 
# From -- ./inp_files/2174.got.cif
#   From: 2010.03.12/outbox.cif.g09.slc.cpg/sg185_cif.got.tgz:2174.got - 2010.04.01 11:55:19.
