data_PCOD8326217
_publ_section_title
;
Structure prediction by ZEFSAII (Michael W. Deem and Ramdas Pophale) SiO2 
 PCOD8326217
Probable space group: P 62 2 2
;
_chemical_formula_sum "Si O2"
_cell_formula_units_Z 48
_cell_length_a 18.939704
_cell_length_b 18.939704
_cell_length_c 8.155966
_cell_angle_alpha 90.000000
_cell_angle_beta 90.000000
_cell_angle_gamma 120.000000
_cell_volume 2533.683791
_symmetry_space_group_name_H-M "P 62 2 2"
_symmetry_group_IT_number 180
_symmetry_cell_setting 'hexagonal'
loop_
_space_group_symop_operation_xyz
x,y,z
x-y,x,1/3+z
-y,x-y,2/3+z
-x,-y,z
-x+y,-x,1/3+z
y,-x+y,2/3+z
x-y,-y,-z
-x,-x+y,1/3-z
y,x,2/3-z
-y,-x,2/3-z
-x+y,y,-z
x,x-y,1/3-z
loop_
_atom_site_type_symbol
_atom_site_label
_atom_site_fract_x
_atom_site_fract_y
_atom_site_fract_z
Si Si1 0.135959 0.271917 0.500000
Si Si2 0.194666 0.645979 0.513802
Si Si3 0.224390 0.192248 0.659234
Si Si4 0.384582 0.769164 0.500000
Si Si5 0.914441 0.639859 0.751046
O O1 0.164465 0.208347 0.548775
O O2 0.137454 0.331869 0.640291
O O3 0.170715 0.585358 0.666667
O O4 0.288584 0.714235 0.529050
O O5 0.178211 0.601069 0.334436
O O6 0.137885 0.684597 0.534789
O O7 0.191089 0.095545 0.666667
O O8 0.314949 0.242297 0.589347
O O9 0.231067 0.231067 0.833334
O O10 0.000000 0.660466 0.666667
#
# Coordination Sequence:
#
# PCOD8326217 Si02
#       5
#     6  12  12   6  12
#     4  10  22  41  63  92 128 158 218 244 319 379
#     4  11  21  41  64  92 131 161 210 262 327 366
#     4  11  22  40  64  91 123 161 207 263 306 379
#     4  10  22  35  62 105 118 162 210 262 310 394
#     4  10  24  41  64  92 122 170 209 261 313 382
#
# _framework density 18.944748000000001
#
# number of rings (size 3 to 8) (size 9 to 14) (size 15 to 20)
#    0.000    1.500    5.000    0.000    7.000    0.500 
#    4.500    1.875    0.000    0.000    0.000    0.000 
#    0.000    0.000    0.000    0.000    0.000    0.000 
#
# Total GULP energy -594997.514000 kJ/mol
# GULP energy per Si atom -12395.781542 kJ/mol
# Density = 1.890163 g / cm^3
# Si number density = 18.944748 Si / 1000 Ang^3
#
#
#
# Elastic Constant Matrix: (Units=GPa)
#
#
# Indices 1 2 3 4 5 6 
#
# 1 118.3720 71.0277 66.2478 0.0000 0.0000 0.0000
# 2 71.0277 118.3720 66.2478 0.0000 0.0000 0.0000
# 3 66.2478 66.2478 174.6113 0.0000 0.0000 0.0000
# 4 0.0000 0.0000 0.0000 99.3653 0.0000 0.0000
# 5 0.0000 0.0000 0.0000 0.0000 99.3653 0.0000
# 6 0.0000 0.0000 0.0000 0.0000 0.0000 23.6722
#
#
#
# Elastic Compliance Matrix: (Units=1/GPa)
#
#
# Indices 1 2 3 4 5 6 
#
# 1 0.014155 -0.006967 -0.002727 0.000000 0.000000 0.000000
# 2 -0.006967 0.014155 -0.002727 0.000000 0.000000 0.000000
# 3 -0.002727 -0.002727 0.007796 0.000000 0.000000 0.000000
# 4 0.000000 0.000000 0.000000 0.010064 0.000000 0.000000
# 5 0.000000 0.000000 0.000000 0.000000 0.010064 0.000000
# 6 0.000000 0.000000 0.000000 0.000000 0.000000 0.042244
#
#
# Mechanical properties :
#
#
# Convention : Reuss Voigt Hill
#
# Bulk Modulus (GPa) = 88.78299 90.93355 89.85827
# Shear Modulus (GPa) = 39.34726 58.33602 48.84164
#
# Velocity S-wave (km/s) = 4.56230 5.55514 5.08302
# Velocity P-wave (km/s) = 8.64400 9.44720 9.05451
#
# Compressibility (1/GPa) = 0.01126342
#
# Stress axis : x y z
#
# Youngs Moduli (GPa) = 70.64806 70.64806 128.26729
#
# Poissons Ratio (x) = 0.49222 0.34978
# Poissons Ratio (y) = 0.49222 0.34978
# Poissons Ratio (z) = 0.19265 0.19265
#
# Static dielectric constant tensor:
#      x y z
#    x 3.355510 0.000000 0.000000 
#    y 0.000000 3.355510 0.000000 
#    z 0.000000 0.000000 3.870330 
# 
# 
# High freq. dielectric constant tensor:
#      x y z
#    x 1.726510 0.000000 0.000000 
#    y 0.000000 1.726510 0.000000 
#    z 0.000000 0.000000 1.760870 
# 
# From -- ./inp_files/2711.got.cif
#   From: 2010.03.12/outbox.cif.g09.slc.cpg/sg180_2_cif.got.tgz:2711.got - 2010.04.01 11:35:50.
