data_PCOD8326442
_publ_section_title
;
Structure prediction by ZEFSAII (Michael W. Deem and Ramdas Pophale) SiO2 
 PCOD8326442
Probable space group: P 63 2 2
;
_chemical_formula_sum "Si O2"
_cell_formula_units_Z 96
_cell_length_a 17.885024
_cell_length_b 17.885024
_cell_length_c 20.078473
_cell_angle_alpha 90.000000
_cell_angle_beta 90.000000
_cell_angle_gamma 120.000000
_cell_volume 5562.120165
_symmetry_space_group_name_H-M "P 63 2 2"
_symmetry_group_IT_number 182
_symmetry_cell_setting 'hexagonal'
loop_
_space_group_symop_operation_xyz
x,y,z
x-y,x,1/2+z
-y,x-y,z
-x,-y,1/2+z
-x+y,-x,z
y,-x+y,1/2+z
x-y,-y,-z
-x,-x+y,-z
y,x,-z
-y,-x,1/2-z
-x+y,y,1/2-z
x,x-y,1/2-z
loop_
_atom_site_type_symbol
_atom_site_label
_atom_site_fract_x
_atom_site_fract_y
_atom_site_fract_z
Si Si1 0.167375 0.666741 0.393569
Si Si2 0.265561 0.361643 0.498404
Si Si3 0.333000 0.492379 0.618179
Si Si4 0.613117 0.052247 0.250000
Si Si5 0.866858 0.298333 0.750000
Si Si6 0.500634 0.333259 0.893569
Si Si7 0.507621 0.840621 0.881821
Si Si8 0.361643 0.096082 0.501596
O O1 0.103374 0.692537 0.429358
O O2 0.158091 0.666491 0.314467
O O3 0.145094 0.572547 0.417820
O O4 0.265092 0.734908 0.415472
O O5 0.279530 0.279530 0.500000
O O6 0.314185 0.426106 0.558759
O O7 0.163194 0.326389 0.500821
O O8 0.340634 0.449465 0.685720
O O9 0.257343 0.514686 0.626650
O O10 0.420300 0.579700 0.601343
O O11 0.510688 0.021376 0.250000
O O12 0.659366 0.108831 0.185720
O O13 0.629723 0.970667 0.250000
O O14 0.808231 0.191770 0.750000
O O15 0.841908 0.333509 0.685533
O O16 0.410837 0.307463 0.929358
O O17 0.573894 0.888079 0.941241
O O18 0.279531 0.000000 0.500000
#
# Coordination Sequence:
#
# PCOD8326442 Si02
#       8
#    12  12  12  12  12  12  12  12
#     4  10  19  30  45  66  94 127 161 195 231 274
#     4  10  21  35  51  71  94 122 155 194 239 284
#     4  10  20  33  50  72  99 130 162 195 231 274
#     4  10  19  31  48  68  92 125 163 201 239 279
#     4  10  20  31  44  64  90 123 163 205 243 277
#     4  10  19  30  45  66  94 127 161 195 231 274
#     4  10  20  33  50  72  99 130 162 195 231 274
#     4  10  21  35  51  71  94 122 155 194 239 284
#
# _framework density 17.259605000000001
#
# number of rings (size 3 to 8) (size 9 to 14) (size 15 to 20)
#    0.000    2.000    0.000    4.250    0.000    4.000 
#    0.000    5.000    0.000    0.500    0.000    0.000 
#    0.000    0.000    0.000    3.000    0.000   30.750 
#
# Total GULP energy -1190173.220355 kJ/mol
# GULP energy per Si atom -12397.637712 kJ/mol
# Density = 1.722032 g / cm^3
# Si number density = 17.259605 Si / 1000 Ang^3
#
#
#
# Elastic Constant Matrix: (Units=GPa)
#
#
# Indices 1 2 3 4 5 6 
#
# 1 103.9549 66.9725 34.3194 0.0000 0.0000 0.0000
# 2 66.9725 103.9549 34.3194 0.0000 0.0000 0.0000
# 3 34.3194 34.3194 88.3501 0.0000 0.0000 0.0000
# 4 0.0000 0.0000 0.0000 18.6427 0.0000 0.0000
# 5 0.0000 0.0000 0.0000 0.0000 18.6427 0.0000
# 6 0.0000 0.0000 0.0000 0.0000 0.0000 18.4912
#
#
#
# Elastic Compliance Matrix: (Units=1/GPa)
#
#
# Indices 1 2 3 4 5 6 
#
# 1 0.016986 -0.010054 -0.002693 0.000000 0.000000 0.000000
# 2 -0.010054 0.016986 -0.002693 0.000000 0.000000 0.000000
# 3 -0.002693 -0.002693 0.013410 0.000000 0.000000 0.000000
# 4 0.000000 0.000000 0.000000 0.053640 0.000000 0.000000
# 5 0.000000 0.000000 0.000000 0.000000 0.053640 0.000000
# 6 0.000000 0.000000 0.000000 0.000000 0.000000 0.054080
#
#
# Mechanical properties :
#
#
# Convention : Reuss Voigt Hill
#
# Bulk Modulus (GPa) = 60.59334 63.05360 61.82347
# Shear Modulus (GPa) = 20.39801 21.86524 21.13162
#
# Velocity S-wave (km/s) = 3.44151 3.56314 3.50285
# Velocity P-wave (km/s) = 7.13970 7.31708 7.22893
#
# Compressibility (1/GPa) = 0.01650346
#
# Stress axis : x y z
#
# Youngs Moduli (GPa) = 58.87272 58.87272 74.56851
#
# Poissons Ratio (x) = 0.59191 0.20078
# Poissons Ratio (y) = 0.59191 0.20078
# Poissons Ratio (z) = 0.15852 0.15852
#
# Static dielectric constant tensor:
#      x y z
#    x 3.142750 0.000000 0.000000 
#    y 0.000000 3.142750 0.000000 
#    z 0.000000 0.000000 3.447070 
# 
# 
# High freq. dielectric constant tensor:
#      x y z
#    x 1.644800 0.000000 0.000000 
#    y 0.000000 1.644800 0.000000 
#    z 0.000000 0.000000 1.689830 
# 
# From -- ./inp_files/5033.got.cif
#   From: 2010.03.12/outbox.cif.g09.slc.cpg/sg182_3_cif.got.tgz:5033.got - 2010.04.01 11:49:36.
