data_PCOD8326749
_publ_section_title
;
Structure prediction by ZEFSAII (Michael W. Deem and Ramdas Pophale) SiO2 
 PCOD8326749
Probable space group: P 63 M C
;
_chemical_formula_sum "Si O2"
_cell_formula_units_Z 72
_cell_length_a 17.614940
_cell_length_b 17.614940
_cell_length_c 17.771639
_cell_angle_alpha 90.000000
_cell_angle_beta 90.000000
_cell_angle_gamma 120.000000
_cell_volume 4775.517610
_symmetry_space_group_name_H-M "P 63 M C"
_symmetry_group_IT_number 186
_symmetry_cell_setting 'hexagonal'
loop_
_space_group_symop_operation_xyz
x,y,z
x-y,x,1/2+z
-y,x-y,z
-x,-y,1/2+z
-x+y,-x,z
y,-x+y,1/2+z
-x+y,y,z
x,x-y,z
-y,-x,z
y,x,1/2+z
x-y,-y,1/2+z
-x,-x+y,1/2+z
loop_
_atom_site_type_symbol
_atom_site_label
_atom_site_fract_x
_atom_site_fract_y
_atom_site_fract_z
Si Si1 0.077343 0.747812 0.483900
Si Si2 0.490893 0.332998 0.259968
Si Si3 0.168567 0.001468 0.589120
Si Si4 0.832901 0.001469 0.760099
Si Si5 0.332998 0.490892 0.589253
Si Si6 0.747812 0.670470 0.365320
O O1 0.166153 0.833848 0.451181
O O2 0.034325 0.778085 0.546176
O O3 0.101350 0.682360 0.526524
O O4 0.000000 0.692132 0.424611
O O5 0.518086 0.259043 0.266941
O O6 0.574525 0.425476 0.279068
O O7 0.456930 0.332334 0.174611
O O8 0.418990 0.317639 0.322699
O O9 0.065054 0.934947 0.583719
O O10 0.186730 0.093365 0.553688
O O11 0.200963 0.014818 0.674610
O O12 0.906636 0.093365 0.795531
O O13 0.869889 0.934945 0.765503
O O14 0.743758 0.965680 0.803043
O O15 0.259042 0.518084 0.582280
O O16 0.425476 0.574525 0.570154
O O17 0.833850 0.667699 0.398037
#
# Coordination Sequence:
#
# PCOD8326749 Si02
#       6
#    12  12  12  12  12  12
#     4  10  19  29  41  59  85 114 140 166 199 240
#     4   9  17  30  48  67  84 103 130 166 207 248
#     4   9  16  26  40  57  78 107 144 181 210 235
#     4   9  16  26  40  57  78 107 144 181 210 235
#     4   9  17  30  48  67  84 103 130 166 207 248
#     4  10  19  29  41  59  85 114 140 166 199 240
#
# _framework density 15.0769
#
# number of rings (size 3 to 8) (size 9 to 14) (size 15 to 20)
#    0.000    2.667    0.000    2.667    0.000    7.333 
#    0.000    0.000    0.000    5.333    0.000    0.000 
#    0.000    0.000    0.000    0.000    0.000   17.667 
#
# Total GULP energy -892127.992533 kJ/mol
# GULP energy per Si atom -12390.666563 kJ/mol
# Density = 1.504258 g / cm^3
# Si number density = 15.076900 Si / 1000 Ang^3
#
#
#
# Elastic Constant Matrix: (Units=GPa)
#
#
# Indices 1 2 3 4 5 6 
#
# 1 96.2100 50.5017 51.0360 0.0000 0.0000 0.0000
# 2 50.5017 96.2100 51.0360 0.0000 0.0000 0.0000
# 3 51.0360 51.0360 71.3986 0.0000 0.0000 0.0000
# 4 0.0000 0.0000 0.0000 26.7658 0.0000 0.0000
# 5 0.0000 0.0000 0.0000 0.0000 26.7658 0.0000
# 6 0.0000 0.0000 0.0000 0.0000 0.0000 22.8542
#
#
#
# Elastic Compliance Matrix: (Units=1/GPa)
#
#
# Indices 1 2 3 4 5 6 
#
# 1 0.017719 -0.004159 -0.009692 0.000000 0.000000 0.000000
# 2 -0.004159 0.017719 -0.009692 0.000000 0.000000 0.000000
# 3 -0.009692 -0.009692 0.027862 0.000000 0.000000 0.000000
# 4 0.000000 0.000000 0.000000 0.037361 0.000000 0.000000
# 5 0.000000 0.000000 0.000000 0.000000 0.037361 0.000000
# 6 0.000000 0.000000 0.000000 0.000000 0.000000 0.043756
#
#
# Mechanical properties :
#
#
# Convention : Reuss Voigt Hill
#
# Bulk Modulus (GPa) = 61.68417 63.21844 62.45130
# Shear Modulus (GPa) = 21.34303 22.69348 22.01826
#
# Velocity S-wave (km/s) = 3.76654 3.88388 3.82566
# Velocity P-wave (km/s) = 7.74065 7.88253 7.81191
#
# Compressibility (1/GPa) = 0.01621162
#
# Stress axis : x y z
#
# Youngs Moduli (GPa) = 56.43793 56.43793 35.89116
#
# Poissons Ratio (x) = 0.23474 0.34787
# Poissons Ratio (y) = 0.23474 0.34787
# Poissons Ratio (z) = 0.54701 0.54701
#
# Static dielectric constant tensor:
#      x y z
#    x 2.897160 0.000000 0.000000 
#    y 0.000000 2.897160 0.000000 
#    z 0.000000 0.000000 2.905380 
# 
# 
# High freq. dielectric constant tensor:
#      x y z
#    x 1.571160 0.000000 0.000000 
#    y 0.000000 1.571160 0.000000 
#    z 0.000000 0.000000 1.568120 
# 
# From -- ./inp_files/2968.got.cif
#   From: 2010.03.12/outbox.cif.g09.slc.cpg/sg186_2_cif.got.tgz:2968.got - 2010.04.01 11:56:34.
