data_PCOD8326339
_publ_section_title
;
Structure prediction by ZEFSAII (Michael W. Deem and Ramdas Pophale) SiO2 
 PCOD8326339
Probable space group: P 64 2 2
;
_chemical_formula_sum "Si O2"
_cell_formula_units_Z 48
_cell_length_a 10.947296
_cell_length_b 10.947296
_cell_length_c 23.423308
_cell_angle_alpha 90.000000
_cell_angle_beta 90.000000
_cell_angle_gamma 120.000000
_cell_volume 2431.042676
_symmetry_space_group_name_H-M "P 64 2 2"
_symmetry_group_IT_number 181
_symmetry_cell_setting 'hexagonal'
loop_
_space_group_symop_operation_xyz
x,y,z
x-y,x,2/3+z
-y,x-y,1/3+z
-x,-y,z
-x+y,-x,2/3+z
y,-x+y,1/3+z
x-y,-y,-z
-x,-x+y,2/3-z
y,x,1/3-z
-y,-x,1/3-z
-x+y,y,-z
x,x-y,2/3-z
loop_
_atom_site_type_symbol
_atom_site_label
_atom_site_fract_x
_atom_site_fract_y
_atom_site_fract_z
Si Si1 0.430549 0.587019 0.898650
Si Si2 0.653067 0.826534 0.833334
Si Si3 0.353200 0.362779 0.085365
Si Si4 0.849747 0.217018 0.487703
Si Si5 0.763265 0.526530 0.000000
O O1 0.500000 0.500000 0.923885
O O2 0.552115 0.746865 0.887450
O O3 0.354738 0.516336 0.837744
O O4 0.321824 0.576404 0.947298
O O5 0.749250 0.759478 0.816963
O O6 0.500000 0.500000 0.101770
O O7 0.377081 0.228313 0.093886
O O8 0.228131 0.335608 0.128099
O O9 0.301391 0.375697 0.021671
#
# Coordination Sequence:
#
# PCOD8326339 Si02
#       5
#    12   6  12  12   6
#     4   9  19  34  54  84 114 153 192 240 297 357
#     4  10  20  35  58  87 122 148 200 244 304 356
#     4  10  20  34  59  85 112 147 199 242 293 356
#     4   9  19  34  58  86 111 150 199 249 287 351
#     4  10  20  34  58  82 116 152 192 244 302 348
#
# _framework density 19.744613999999999
#
# number of rings (size 3 to 8) (size 9 to 14) (size 15 to 20)
#    0.000    2.500    0.000    2.250    7.000    2.000 
#    0.000    0.000    0.000   42.000    0.000    0.000 
#    0.000    0.000    0.000    0.000    0.000    0.000 
#
# Total GULP energy -594638.295941 kJ/mol
# GULP energy per Si atom -12388.297832 kJ/mol
# Density = 1.969967 g / cm^3
# Si number density = 19.744614 Si / 1000 Ang^3
#
#
#
# Elastic Constant Matrix: (Units=GPa)
#
#
# Indices 1 2 3 4 5 6 
#
# 1 127.2607 56.1002 44.2595 0.0000 0.0000 0.0000
# 2 56.1002 127.2607 44.2595 0.0000 0.0000 0.0000
# 3 44.2595 44.2595 83.9982 0.0000 0.0000 0.0000
# 4 0.0000 0.0000 0.0000 21.4474 0.0000 0.0000
# 5 0.0000 0.0000 0.0000 0.0000 21.4474 0.0000
# 6 0.0000 0.0000 0.0000 0.0000 0.0000 35.5803
#
#
#
# Elastic Compliance Matrix: (Units=1/GPa)
#
#
# Indices 1 2 3 4 5 6 
#
# 1 0.010683 -0.003369 -0.003854 0.000000 0.000000 0.000000
# 2 -0.003369 0.010683 -0.003854 0.000000 0.000000 0.000000
# 3 -0.003854 -0.003854 0.015966 0.000000 0.000000 0.000000
# 4 0.000000 0.000000 0.000000 0.046626 0.000000 0.000000
# 5 0.000000 0.000000 0.000000 0.000000 0.046626 0.000000
# 6 0.000000 0.000000 0.000000 0.000000 0.000000 0.028105
#
#
# Mechanical properties :
#
#
# Convention : Reuss Voigt Hill
#
# Bulk Modulus (GPa) = 65.88014 69.75089 67.81551
# Shear Modulus (GPa) = 26.89558 28.62172 27.75865
#
# Velocity S-wave (km/s) = 3.69477 3.81149 3.75358
# Velocity P-wave (km/s) = 7.18612 7.40089 7.29429
#
# Compressibility (1/GPa) = 0.01517908
#
# Stress axis : x y z
#
# Youngs Moduli (GPa) = 93.60236 93.60236 62.63159
#
# Poissons Ratio (x) = 0.31537 0.24138
# Poissons Ratio (y) = 0.31537 0.24138
# Poissons Ratio (z) = 0.36074 0.36074
#
# Static dielectric constant tensor:
#      x y z
#    x 3.955370 0.000000 0.000000 
#    y 0.000000 3.955370 0.000000 
#    z 0.000000 0.000000 3.606310 
# 
# 
# High freq. dielectric constant tensor:
#      x y z
#    x 1.768570 0.000000 0.000000 
#    y 0.000000 1.768570 0.000000 
#    z 0.000000 0.000000 1.736330 
# 
# From -- ./inp_files/9923.got.cif
#   From: 2010.03.12/outbox.cif.g09.slc.cpg/sg181_5_cif.got.tgz:9923.got - 2010.04.01 11:42:41.
