data_PCOD8326300
_publ_section_title
;
Structure prediction by ZEFSAII (Michael W. Deem and Ramdas Pophale) SiO2 
 PCOD8326300
Probable space group: P 64 2 2
;
_chemical_formula_sum "Si O2"
_cell_formula_units_Z 84
_cell_length_a 18.245256
_cell_length_b 18.245256
_cell_length_c 13.679849
_cell_angle_alpha 90.000000
_cell_angle_beta 90.000000
_cell_angle_gamma 120.000000
_cell_volume 3943.772533
_symmetry_space_group_name_H-M "P 64 2 2"
_symmetry_group_IT_number 181
_symmetry_cell_setting 'hexagonal'
loop_
_space_group_symop_operation_xyz
x,y,z
x-y,x,2/3+z
-y,x-y,1/3+z
-x,-y,z
-x+y,-x,2/3+z
y,-x+y,1/3+z
x-y,-y,-z
-x,-x+y,2/3-z
y,x,1/3-z
-y,-x,1/3-z
-x+y,y,-z
x,x-y,2/3-z
loop_
_atom_site_type_symbol
_atom_site_label
_atom_site_fract_x
_atom_site_fract_y
_atom_site_fract_z
Si Si1 0.139056 0.830688 0.555703
Si Si2 0.589912 0.047697 0.299688
Si Si3 0.365924 0.803986 0.166689
Si Si4 0.240744 0.337817 0.289798
Si Si5 0.343308 0.902561 0.845185
Si Si6 0.198093 0.958199 0.190606
Si Si7 0.603824 0.879338 0.955569
O O1 0.142093 0.857908 0.666667
O O2 0.215512 0.901364 0.490429
O O3 0.137043 0.741253 0.554351
O O4 0.056157 0.823359 0.501445
O O5 0.621403 0.144909 0.268474
O O6 0.657901 0.049419 0.374112
O O7 0.500000 0.000000 0.356450
O O8 0.572682 0.988478 0.203410
O O9 0.298561 0.701440 0.166667
O O10 0.461608 0.827617 0.138351
O O11 0.330155 0.842083 0.088437
O O12 0.212298 0.257312 0.359978
O O13 0.199670 0.390081 0.335539
O O14 0.326338 0.934413 0.949539
O O15 0.098500 0.901501 0.166667
O O16 0.252491 0.927305 0.127076
#
# Coordination Sequence:
#
# PCOD8326300 Si02
#       7
#    12  12  12  12  12  12  12
#     4  11  24  41  62  90 126 167 219 262 316 396
#     4  10  19  34  56  86 123 169 216 276 330 393
#     4  11  18  32  54  85 126 166 213 269 350 402
#     4  10  19  36  61  87 124 163 201 272 324 387
#     4  10  22  34  55  84 129 166 216 271 319 394
#     4  10  20  38  63  98 127 155 201 265 333 403
#     4  10  18  33  56  92 124 158 208 269 341 393
#
# _framework density 21.299401
#
# number of rings (size 3 to 8) (size 9 to 14) (size 15 to 20)
#    0.000    1.714    4.286    0.857    0.000    8.571 
#    0.000    5.000    0.000    4.286    0.000    5.000 
#    0.000    0.000    0.000    0.000    0.000    0.000 
#
# Total GULP energy -1040740.962365 kJ/mol
# GULP energy per Si atom -12389.773361 kJ/mol
# Density = 2.125092 g / cm^3
# Si number density = 21.299401 Si / 1000 Ang^3
#
#
#
# Elastic Constant Matrix: (Units=GPa)
#
#
# Indices 1 2 3 4 5 6 
#
# 1 98.2032 35.8784 29.9756 0.0000 0.0000 0.0000
# 2 35.8784 98.2032 29.9756 0.0000 0.0000 0.0000
# 3 29.9756 29.9756 105.5206 0.0000 0.0000 0.0000
# 4 0.0000 0.0000 0.0000 14.4658 0.0000 0.0000
# 5 0.0000 0.0000 0.0000 0.0000 14.4658 0.0000
# 6 0.0000 0.0000 0.0000 0.0000 0.0000 31.1624
#
#
#
# Elastic Compliance Matrix: (Units=1/GPa)
#
#
# Indices 1 2 3 4 5 6 
#
# 1 0.012294 -0.003751 -0.002427 0.000000 0.000000 0.000000
# 2 -0.003751 0.012294 -0.002427 0.000000 0.000000 0.000000
# 3 -0.002427 -0.002427 0.010856 0.000000 0.000000 0.000000
# 4 0.000000 0.000000 0.000000 0.069128 0.000000 0.000000
# 5 0.000000 0.000000 0.000000 0.000000 0.069128 0.000000
# 6 0.000000 0.000000 0.000000 0.000000 0.000000 0.032090
#
#
# Mechanical properties :
#
#
# Convention : Reuss Voigt Hill
#
# Bulk Modulus (GPa) = 54.84096 54.84293 54.84194
# Shear Modulus (GPa) = 21.82659 25.75862 23.79261
#
# Velocity S-wave (km/s) = 3.20465 3.48136 3.34586
# Velocity P-wave (km/s) = 6.28463 6.47798 6.38204
#
# Compressibility (1/GPa) = 0.01823455
#
# Stress axis : x y z
#
# Youngs Moduli (GPa) = 81.33960 81.33960 92.11771
#
# Poissons Ratio (x) = 0.30509 0.22356
# Poissons Ratio (y) = 0.30509 0.22356
# Poissons Ratio (z) = 0.19740 0.19740
#
# Static dielectric constant tensor:
#      x y z
#    x 4.012390 0.000000 0.000000 
#    y 0.000000 4.012390 0.000000 
#    z 0.000000 0.000000 3.703450 
# 
# 
# High freq. dielectric constant tensor:
#      x y z
#    x 1.823940 0.000000 0.000000 
#    y 0.000000 1.823940 0.000000 
#    z 0.000000 0.000000 1.817080 
# 
# From -- ./inp_files/6495.got.cif
#   From: 2010.03.12/outbox.cif.g09.slc.cpg/sg181_4_cif.got.tgz:6495.got - 2010.04.01 11:42:41.
