data_PCOD8326068
_publ_section_title
;
Structure prediction by ZEFSAII (Michael W. Deem and Ramdas Pophale) SiO2 
 PCOD8326068
Probable space group: P 65 2 2
;
_chemical_formula_sum "Si O2"
_cell_formula_units_Z 96
_cell_length_a 14.255210
_cell_length_b 14.255210
_cell_length_c 28.018481
_cell_angle_alpha 90.000000
_cell_angle_beta 90.000000
_cell_angle_gamma 120.000000
_cell_volume 4930.857563
_symmetry_space_group_name_H-M "P 65 2 2"
_symmetry_group_IT_number 179
_symmetry_cell_setting 'hexagonal'
loop_
_space_group_symop_operation_xyz
x,y,z
x-y,x,5/6+z
-y,x-y,2/3+z
-x,-y,1/2+z
-x+y,-x,1/3+z
y,-x+y,1/6+z
x-y,-y,-z
-x,-x+y,1/3-z
y,x,2/3-z
-y,-x,1/6-z
-x+y,y,1/2-z
x,x-y,5/6-z
loop_
_atom_site_type_symbol
_atom_site_label
_atom_site_fract_x
_atom_site_fract_y
_atom_site_fract_z
Si Si1 0.707381 0.565651 0.065134
Si Si2 0.429635 0.294561 0.455871
Si Si3 0.647657 0.181258 0.343636
Si Si4 0.784282 0.005064 0.819777
Si Si5 0.355288 0.395015 0.384651
Si Si6 0.816875 0.962563 0.079455
Si Si7 0.638420 0.418750 0.935873
Si Si8 0.421744 0.932993 0.178657
O O1 0.773371 0.502164 0.055654
O O2 0.779522 0.686829 0.046948
O O3 0.592528 0.518414 0.038214
O O4 0.685622 0.562814 0.121578
O O5 0.411383 0.205692 0.416667
O O6 0.546491 0.345109 0.481170
O O7 0.333116 0.242627 0.494764
O O8 0.430805 0.394845 0.427900
O O9 0.718329 0.251434 0.299247
O O10 0.603469 0.055815 0.332011
O O11 0.842407 0.957575 0.785927
O O12 0.859028 0.072498 0.865034
O O13 0.411472 0.411472 0.333334
O O14 0.246072 0.280298 0.385934
O O15 0.335322 0.495069 0.393350
O O16 0.918921 0.081080 0.083334
O O17 0.604547 0.302274 0.916667
O O18 0.531329 0.396469 0.963877
#
# Coordination Sequence:
#
# PCOD8326068 Si02
#       8
#    12  12  12  12  12  12  12  12
#     4  10  23  36  61  89 116 167 205 259 314 381
#     4  11  22  35  60  90 125 167 203 254 319 391
#     4  11  22  39  61  88 128 165 211 260 327 368
#     4  11  22  39  59  92 125 159 214 255 323 391
#     4  11  22  39  59  88 129 164 209 254 326 398
#     4  11  22  38  60  91 129 164 199 262 323 386
#     4  11  26  39  60  96 123 165 220 262 317 389
#     4  10  21  43  58  86 130 158 211 267 311 384
#
# _framework density 19.46923
#
# number of rings (size 3 to 8) (size 9 to 14) (size 15 to 20)
#    0.000    1.250    2.500    5.625   12.250    0.000 
#    0.000    0.000    0.000    0.750    0.000    0.000 
#    0.000    0.000    0.000    0.000    0.000    0.000 
#
# Total GULP energy -1190078.423206 kJ/mol
# GULP energy per Si atom -12396.650242 kJ/mol
# Density = 1.942492 g / cm^3
# Si number density = 19.469230 Si / 1000 Ang^3
#
#
#
# Elastic Constant Matrix: (Units=GPa)
#
#
# Indices 1 2 3 4 5 6 
#
# 1 87.7576 27.6627 43.9322 0.0000 0.0000 0.0000
# 2 27.6627 87.7576 43.9322 0.0000 0.0000 0.0000
# 3 43.9322 43.9322 95.9195 0.0000 0.0000 0.0000
# 4 0.0000 0.0000 0.0000 21.6131 0.0000 0.0000
# 5 0.0000 0.0000 0.0000 0.0000 21.6131 0.0000
# 6 0.0000 0.0000 0.0000 0.0000 0.0000 30.0474
#
#
#
# Elastic Compliance Matrix: (Units=1/GPa)
#
#
# Indices 1 2 3 4 5 6 
#
# 1 0.014971 -0.001669 -0.006092 0.000000 0.000000 0.000000
# 2 -0.001669 0.014971 -0.006092 0.000000 0.000000 0.000000
# 3 -0.006092 -0.006092 0.016006 0.000000 0.000000 0.000000
# 4 0.000000 0.000000 0.000000 0.046268 0.000000 0.000000
# 5 0.000000 0.000000 0.000000 0.000000 0.046268 0.000000
# 6 0.000000 0.000000 0.000000 0.000000 0.000000 0.033281
#
#
# Mechanical properties :
#
#
# Convention : Reuss Voigt Hill
#
# Bulk Modulus (GPa) = 54.82367 55.83212 55.32789
# Shear Modulus (GPa) = 24.32453 25.04857 24.68655
#
# Velocity S-wave (km/s) = 3.53850 3.59077 3.56473
# Velocity P-wave (km/s) = 6.70186 6.77723 6.73965
#
# Compressibility (1/GPa) = 0.01824030
#
# Stress axis : x y z
#
# Youngs Moduli (GPa) = 66.79535 66.79535 62.47586
#
# Poissons Ratio (x) = 0.11150 0.38063
# Poissons Ratio (y) = 0.11150 0.38063
# Poissons Ratio (z) = 0.40694 0.40694
#
# Static dielectric constant tensor:
#      x y z
#    x 3.517410 0.000000 0.000000 
#    y 0.000000 3.517410 0.000000 
#    z 0.000000 0.000000 3.966100 
# 
# 
# High freq. dielectric constant tensor:
#      x y z
#    x 1.742630 0.000000 0.000000 
#    y 0.000000 1.742630 0.000000 
#    z 0.000000 0.000000 1.764050 
# 
# From -- ./inp_files/9047.got.cif
#   From: 2010.03.12/outbox.cif.g09.slc.cpg/sg179_5_cif.got.tgz:9047.got - 2010.04.02 07:08:42.
