data_PCOD8326338
_publ_section_title
;
Structure prediction by ZEFSAII (Michael W. Deem and Ramdas Pophale) SiO2 
 PCOD8326338
Probable space group: P 64 2 2
;
_chemical_formula_sum "Si O2"
_cell_formula_units_Z 39
_cell_length_a 8.904117
_cell_length_b 8.904117
_cell_length_c 32.375215
_cell_angle_alpha 90.000000
_cell_angle_beta 90.000000
_cell_angle_gamma 120.000000
_cell_volume 2222.926017
_symmetry_space_group_name_H-M "P 64 2 2"
_symmetry_group_IT_number 181
_symmetry_cell_setting 'hexagonal'
loop_
_space_group_symop_operation_xyz
x,y,z
x-y,x,2/3+z
-y,x-y,1/3+z
-x,-y,z
-x+y,-x,2/3+z
y,-x+y,1/3+z
x-y,-y,-z
-x,-x+y,2/3-z
y,x,1/3-z
-y,-x,1/3-z
-x+y,y,-z
x,x-y,2/3-z
loop_
_atom_site_type_symbol
_atom_site_label
_atom_site_fract_x
_atom_site_fract_y
_atom_site_fract_z
Si Si1 0.000000 0.000000 0.000000
Si Si2 0.516610 0.680297 0.450191
Si Si3 0.486410 0.165122 0.120941
Si Si4 0.162642 0.169064 0.254212
O O1 0.965659 0.126999 0.970361
O O2 0.500000 0.500000 0.436288
O O3 0.332910 0.666224 0.443511
O O4 0.569656 0.720160 0.498053
O O5 0.660243 0.830565 0.421960
O O6 0.342670 0.175288 0.094683
O O7 0.500000 0.000000 0.107233
O O8 0.000000 0.000000 0.232909
#
# Coordination Sequence:
#
# PCOD8326338 Si02
#       4
#     3  12  12  12
#     4   8  24  40  56  76 110 148 214 234 256 328
#     4  10  20  34  57  92 120 142 179 226 291 352
#     4  10  20  34  58  91 119 144 177 226 291 356
#     4  10  20  38  58  74 118 148 193 235 275 317
#
# _framework density 17.544442
#
# number of rings (size 3 to 8) (size 9 to 14) (size 15 to 20)
#    0.923    1.231    0.000    3.692    0.000    7.385 
#    0.000    3.846    0.000    0.000    0.000    0.000 
#    0.000    0.000    0.000    0.000    0.000    0.000 
#
# Total GULP energy -483463.170091 kJ/mol
# GULP energy per Si atom -12396.491541 kJ/mol
# Density = 1.750451 g / cm^3
# Si number density = 17.544442 Si / 1000 Ang^3
#
#
#
# Elastic Constant Matrix: (Units=GPa)
#
#
# Indices 1 2 3 4 5 6 
#
# 1 143.9444 72.4336 65.8460 0.0000 0.0000 0.0000
# 2 72.4336 143.9444 65.8460 0.0000 0.0000 0.0000
# 3 65.8460 65.8460 93.9088 0.0000 0.0000 0.0000
# 4 0.0000 0.0000 0.0000 9.0381 0.0000 0.0000
# 5 0.0000 0.0000 0.0000 0.0000 9.0381 0.0000
# 6 0.0000 0.0000 0.0000 0.0000 0.0000 35.7554
#
#
#
# Elastic Compliance Matrix: (Units=1/GPa)
#
#
# Indices 1 2 3 4 5 6 
#
# 1 0.011023 -0.002961 -0.005653 0.000000 0.000000 0.000000
# 2 -0.002961 0.011023 -0.005653 0.000000 0.000000 0.000000
# 3 -0.005653 -0.005653 0.018576 0.000000 0.000000 0.000000
# 4 0.000000 0.000000 0.000000 0.110642 0.000000 0.000000
# 5 0.000000 0.000000 0.000000 0.000000 0.110642 0.000000
# 6 0.000000 0.000000 0.000000 0.000000 0.000000 0.027968
#
#
# Mechanical properties :
#
#
# Convention : Reuss Voigt Hill
#
# Bulk Modulus (GPa) = 82.72333 87.78318 85.25326
# Shear Modulus (GPa) = 15.50691 22.61112 19.05902
#
# Velocity S-wave (km/s) = 2.97621 3.59387 3.29952
# Velocity P-wave (km/s) = 7.68528 8.20759 7.95073
#
# Compressibility (1/GPa) = 0.01208849
#
# Stress axis : x y z
#
# Youngs Moduli (GPa) = 90.72002 90.72002 53.83365
#
# Poissons Ratio (x) = 0.26862 0.30431
# Poissons Ratio (y) = 0.26862 0.30431
# Poissons Ratio (z) = 0.51282 0.51282
#
# Static dielectric constant tensor:
#      x y z
#    x 3.261380 0.000000 0.000000 
#    y 0.000000 3.261380 0.000000 
#    z 0.000000 0.000000 3.038660 
# 
# 
# High freq. dielectric constant tensor:
#      x y z
#    x 1.690320 0.000000 0.000000 
#    y 0.000000 1.690320 0.000000 
#    z 0.000000 0.000000 1.649160 
# 
# From -- ./inp_files/11784.got.cif
#   From: 2010.03.12/outbox.cif.g09.slc.cpg/sg181_6_cif.got.tgz:11784.got - 2010.04.01 11:42:41.
