data_PCOD8326841
_publ_section_title
;
Structure prediction by ZEFSAII (Michael W. Deem and Ramdas Pophale) SiO2 
 PCOD8326841
Probable space group: P -6 M 2
;
_chemical_formula_sum "Si O2"
_cell_formula_units_Z 96
_cell_length_a 22.882727
_cell_length_b 22.882727
_cell_length_c 13.638757
_cell_angle_alpha 90.000000
_cell_angle_beta 90.000000
_cell_angle_gamma 120.000000
_cell_volume 6184.733377
_symmetry_space_group_name_H-M "P -6 M 2"
_symmetry_group_IT_number 187
_symmetry_cell_setting 'hexagonal'
loop_
_space_group_symop_operation_xyz
x,y,z
-x+y,-x,-z
-y,x-y,z
x,y,-z
-x+y,-x,z
-y,x-y,-z
-y,-x,-z
-x+y,y,-z
x,x-y,-z
-x+y,y,z
x,x-y,z
-y,-x,z
loop_
_atom_site_type_symbol
_atom_site_label
_atom_site_fract_x
_atom_site_fract_y
_atom_site_fract_z
Si Si1 0.409136 0.951045 0.111973
Si Si2 0.607747 0.527677 0.238472
Si Si3 0.257531 0.875243 0.111972
Si Si4 0.728478 0.587826 0.613588
Si Si5 0.746737 0.941080 0.761527
Si Si6 0.667565 0.462520 0.884705
Si Si7 0.938188 0.745506 0.386412
Si Si8 0.999103 0.128288 0.884705
O O1 0.462881 0.925762 0.130761
O O2 0.333333 0.888521 0.127385
O O3 0.420215 0.007867 0.191616
O O4 0.417881 0.979031 0.000000
O O5 0.540893 0.459108 0.270341
O O6 0.657121 0.554104 0.331107
O O7 0.648869 0.516789 0.152638
O O8 0.203785 0.796216 0.130759
O O9 0.246452 0.920986 0.191616
O O10 0.248787 0.894486 0.000000
O O11 0.710677 0.571309 0.500000
O O12 0.781068 0.562135 0.645189
O O13 0.764567 0.666666 0.634472
O O14 0.748451 0.874226 0.729659
O O15 0.798747 0.982202 0.847362
O O16 0.769683 0.990454 0.668893
O O17 0.739121 0.478242 0.840491
O O18 0.612266 0.387735 0.850242
O O19 0.670945 0.467729 0.000000
O O20 0.955990 0.762023 0.500000
O O21 0.885599 0.771198 0.354812
O O22 0.054401 0.108802 0.850237
O O23 0.995726 0.130118 0.000000
O O24 0.927546 0.072455 0.840494
#
# Coordination Sequence:
#
# PCOD8326841 Si02
#       8
#    12  12  12  12  12  12  12  12
#     4   9  17  29  45  65  89 115 140 166 200 245
#     4  10  18  27  42  63  85 107 133 169 211 253
#     4   9  17  29  45  65  89 115 140 166 200 245
#     4   9  18  32  47  60  76 103 140 178 212 247
#     4  10  18  27  42  63  85 107 133 169 211 253
#     4   9  16  25  37  54  78 108 140 171 202 237
#     4   9  18  32  47  60  76 103 140 178 212 247
#     4   9  16  25  37  54  78 108 140 171 202 237
#
# _framework density 15.522093
#
# number of rings (size 3 to 8) (size 9 to 14) (size 15 to 20)
#    0.000    2.750    0.000    3.250    0.000    4.500 
#    0.000    0.000    0.000    0.750    0.000   12.250 
#    0.000    0.000    0.000    0.000    0.000    0.000 
#
# Total GULP energy -1189451.414021 kJ/mol
# GULP energy per Si atom -12390.118896 kJ/mol
# Density = 1.548676 g / cm^3
# Si number density = 15.522093 Si / 1000 Ang^3
#
#
#
# Elastic Constant Matrix: (Units=GPa)
#
#
# Indices 1 2 3 4 5 6 
#
# 1 92.5479 53.6244 38.8361 0.0000 -0.0002 0.0000
# 2 53.6244 92.5479 38.8361 0.0000 0.0002 0.0000
# 3 38.8361 38.8361 49.0863 0.0000 0.0000 0.0000
# 4 0.0000 0.0000 0.0000 23.7354 0.0000 0.0002
# 5 -0.0002 0.0002 0.0000 0.0000 23.7354 0.0000
# 6 0.0000 0.0000 0.0000 0.0002 0.0000 19.4618
#
#
#
# Elastic Compliance Matrix: (Units=1/GPa)
#
#
# Indices 1 2 3 4 5 6 
#
# 1 0.018748 -0.006944 -0.009339 0.000000 0.000000 0.000000
# 2 -0.006944 0.018748 -0.009339 0.000000 0.000000 0.000000
# 3 -0.009339 -0.009339 0.035150 0.000000 0.000000 0.000000
# 4 0.000000 0.000000 0.000000 0.042131 0.000000 0.000000
# 5 0.000000 0.000000 0.000000 0.000000 0.042131 0.000000
# 6 0.000000 0.000000 0.000000 0.000000 0.000000 0.051383
#
#
# Mechanical properties :
#
#
# Convention : Reuss Voigt Hill
#
# Bulk Modulus (GPa) = 46.72527 55.19726 50.96126
# Shear Modulus (GPa) = 18.74998 20.24554 19.49776
#
# Velocity S-wave (km/s) = 3.47933 3.61543 3.54804
# Velocity P-wave (km/s) = 6.80506 7.28465 7.04893
#
# Compressibility (1/GPa) = 0.02140170
#
# Stress axis : x y z
#
# Youngs Moduli (GPa) = 53.34033 53.34033 28.44976
#
# Poissons Ratio (x) = 0.37039 0.26569
# Poissons Ratio (y) = 0.37039 0.26569
# Poissons Ratio (z) = 0.49814 0.49814
#
# Static dielectric constant tensor:
#      x y z
#    x 3.031130 0.000000 0.000000 
#    y 0.000000 3.031130 0.000000 
#    z 0.000000 0.000000 2.836410 
# 
# 
# High freq. dielectric constant tensor:
#      x y z
#    x 1.588340 0.000000 0.000000 
#    y 0.000000 1.588340 0.000000 
#    z 0.000000 0.000000 1.579730 
# 
# From -- ./inp_files/2113.got.cif
#   From: 2010.03.12/outbox.cif.g09.slc.cpg/sg187_2_cif.got.tgz:2113.got - 2010.04.01 11:58:23.
