data_PCOD8326434
_publ_section_title
;
Structure prediction by ZEFSAII (Michael W. Deem and Ramdas Pophale) SiO2 
 PCOD8326434
Probable space group: P 63 2 2
;
_chemical_formula_sum "Si O2"
_cell_formula_units_Z 96
_cell_length_a 18.168983
_cell_length_b 18.168983
_cell_length_c 20.679704
_cell_angle_alpha 90.000000
_cell_angle_beta 90.000000
_cell_angle_gamma 120.000000
_cell_volume 5912.023981
_symmetry_space_group_name_H-M "P 63 2 2"
_symmetry_group_IT_number 182
_symmetry_cell_setting 'hexagonal'
loop_
_space_group_symop_operation_xyz
x,y,z
x-y,x,1/2+z
-y,x-y,z
-x,-y,1/2+z
-x+y,-x,z
y,-x+y,1/2+z
x-y,-y,-z
-x,-x+y,-z
y,x,-z
-y,-x,1/2-z
-x+y,y,1/2-z
x,x-y,1/2-z
loop_
_atom_site_type_symbol
_atom_site_label
_atom_site_fract_x
_atom_site_fract_y
_atom_site_fract_z
Si Si1 0.900911 0.636809 0.753746
Si Si2 0.373685 0.471848 0.863598
Si Si3 0.902414 0.364512 0.129248
Si Si4 0.097586 0.635488 0.370752
Si Si5 0.264102 0.363191 0.753746
Si Si6 0.373685 0.471848 0.136402
Si Si7 0.656376 0.497920 0.500000
Si Si8 0.175806 0.495260 1.000000
O O1 0.838580 0.677159 0.750000
O O2 0.889653 0.584506 0.689133
O O3 0.865031 0.567563 0.811785
O O4 1.000000 0.711254 0.762866
O O5 0.436089 0.574423 0.856359
O O6 0.297468 0.432437 0.811785
O O7 0.428252 0.428251 0.846949
O O8 0.333501 0.447610 0.935631
O O9 0.889653 0.305147 0.189133
O O10 0.000000 0.425950 0.112089
O O11 0.860858 0.303859 0.066576
O O12 0.138334 0.574424 0.356359
O O13 0.139142 0.696141 0.433424
O O14 0.161420 0.322840 0.750000
O O15 0.333501 0.447610 0.064369
O O16 0.723621 0.465464 0.500000
O O17 0.563966 0.417706 0.500000
#
# Coordination Sequence:
#
# PCOD8326434 Si02
#       8
#    12  12  12  12  12  12  12  12
#     4  10  19  31  47  66  87 111 142 180 221 263
#     4   9  17  29  45  63  83 110 143 177 212 251
#     4   9  17  29  45  63  83 110 143 177 212 251
#     4   9  17  29  45  63  83 110 143 177 212 251
#     4  10  19  31  47  66  87 111 142 180 221 263
#     4   9  17  29  45  63  83 110 143 177 212 251
#     4  10  18  27  39  57  84 115 145 173 203 240
#     4  10  18  27  39  57  84 115 145 173 203 240
#
# _framework density 16.238094
#
# number of rings (size 3 to 8) (size 9 to 14) (size 15 to 20)
#    0.000    2.500    0.000    3.250    0.000    6.000 
#    0.000    0.000    0.000    7.250    0.000    0.000 
#    0.000    0.000    0.000    0.000    0.000   52.000 
#
# Total GULP energy -1189602.768442 kJ/mol
# GULP energy per Si atom -12391.695505 kJ/mol
# Density = 1.620114 g / cm^3
# Si number density = 16.238094 Si / 1000 Ang^3
#
#
#
# Elastic Constant Matrix: (Units=GPa)
#
#
# Indices 1 2 3 4 5 6 
#
# 1 56.4545 21.4080 20.4126 0.0000 0.0000 0.0000
# 2 21.4080 56.4545 20.4126 0.0000 0.0000 0.0000
# 3 20.4126 20.4126 101.8190 0.0000 0.0000 0.0000
# 4 0.0000 0.0000 0.0000 10.9164 0.0000 0.0000
# 5 0.0000 0.0000 0.0000 0.0000 10.9164 0.0000
# 6 0.0000 0.0000 0.0000 0.0000 0.0000 17.5232
#
#
#
# Elastic Compliance Matrix: (Units=1/GPa)
#
#
# Indices 1 2 3 4 5 6 
#
# 1 0.021443 -0.007091 -0.002877 0.000000 0.000000 0.000000
# 2 -0.007091 0.021443 -0.002877 0.000000 0.000000 0.000000
# 3 -0.002877 -0.002877 0.010975 0.000000 0.000000 0.000000
# 4 0.000000 0.000000 0.000000 0.091605 0.000000 0.000000
# 5 0.000000 0.000000 0.000000 0.000000 0.091605 0.000000
# 6 0.000000 0.000000 0.000000 0.000000 0.000000 0.057067
#
#
# Mechanical properties :
#
#
# Convention : Reuss Voigt Hill
#
# Bulk Modulus (GPa) = 35.49928 37.68826 36.59377
# Shear Modulus (GPa) = 15.18749 18.03754 16.61252
#
# Velocity S-wave (km/s) = 3.06159 3.33651 3.20200
# Velocity P-wave (km/s) = 5.86574 6.17278 6.02122
#
# Compressibility (1/GPa) = 0.02816958
#
# Stress axis : x y z
#
# Youngs Moduli (GPa) = 46.63605 46.63605 91.11624
#
# Poissons Ratio (x) = 0.33069 0.26216
# Poissons Ratio (y) = 0.33069 0.26216
# Poissons Ratio (z) = 0.13418 0.13418
#
# Static dielectric constant tensor:
#      x y z
#    x 2.878970 0.000000 0.000000 
#    y 0.000000 2.878970 0.000000 
#    z 0.000000 0.000000 3.437120 
# 
# 
# High freq. dielectric constant tensor:
#      x y z
#    x 1.592390 0.000000 0.000000 
#    y 0.000000 1.592390 0.000000 
#    z 0.000000 0.000000 1.650250 
# 
# From -- ./inp_files/5043.got.cif
#   From: 2010.03.12/outbox.cif.g09.slc.cpg/sg182_3_cif.got.tgz:5043.got - 2010.04.01 11:49:36.
