data_PCOD8326236
_publ_section_title
;
Structure prediction by ZEFSAII (Michael W. Deem and Ramdas Pophale) SiO2 
 PCOD8326236
Probable space group: P 62 2 2
;
_chemical_formula_sum "Si O2"
_cell_formula_units_Z 51
_cell_length_a 11.521017
_cell_length_b 11.521017
_cell_length_c 20.295342
_cell_angle_alpha 90.000000
_cell_angle_beta 90.000000
_cell_angle_gamma 120.000000
_cell_volume 2332.967242
_symmetry_space_group_name_H-M "P 62 2 2"
_symmetry_group_IT_number 180
_symmetry_cell_setting 'hexagonal'
loop_
_space_group_symop_operation_xyz
x,y,z
x-y,x,1/3+z
-y,x-y,2/3+z
-x,-y,z
-x+y,-x,1/3+z
y,-x+y,2/3+z
x-y,-y,-z
-x,-x+y,1/3-z
y,x,2/3-z
-y,-x,2/3-z
-x+y,y,-z
x,x-y,1/3-z
loop_
_atom_site_type_symbol
_atom_site_label
_atom_site_fract_x
_atom_site_fract_y
_atom_site_fract_z
Si Si1 0.655376 0.090378 0.163676
Si Si2 0.000000 0.500000 0.274405
Si Si3 0.846938 0.024877 0.899517
Si Si4 0.607360 0.392641 0.833334
Si Si5 0.299083 0.275409 0.634491
Si Si6 0.000000 0.000000 0.333334
O O1 0.692680 0.239732 0.145723
O O2 0.691312 0.088193 0.239330
O O3 0.500000 0.000000 0.149007
O O4 0.735373 0.044561 0.115091
O O5 0.126073 0.596484 0.229592
O O6 0.968133 0.598032 0.317065
O O7 0.934993 0.065008 0.833334
O O8 0.898406 0.159077 0.943594
O O9 0.876425 0.924776 0.946094
O O10 0.269974 0.134987 0.666667
#
# Coordination Sequence:
#
# PCOD8326236 Si02
#       6
#    12   6  12   6  12   3
#     4  11  25  44  69 102 148 191 235 301 373 444
#     4  11  24  42  68 102 136 189 246 296 358 435
#     4  10  25  42  68 104 136 181 241 304 366 434
#     4  11  26  42  68 104 148 177 240 310 352 439
#     4  11  21  43  69 101 133 186 248 297 364 441
#     4  12  22  44  70  94 136 188 230 302 366 426
#
# _framework density 21.860572999999999
#
# number of rings (size 3 to 8) (size 9 to 14) (size 15 to 20)
#    0.000    1.176    4.706    0.353    8.235    0.000 
#    4.235    0.588    0.000    0.000    0.000    0.000 
#    0.000    0.000    0.000    0.000    0.000    0.000 
#
# Total GULP energy -631888.251966 kJ/mol
# GULP energy per Si atom -12389.965725 kJ/mol
# Density = 2.181082 g / cm^3
# Si number density = 21.860573 Si / 1000 Ang^3
#
#
#
# Elastic Constant Matrix: (Units=GPa)
#
#
# Indices 1 2 3 4 5 6 
#
# 1 148.8473 71.4901 58.8732 0.0000 0.0000 0.0000
# 2 71.4901 148.8473 58.8732 0.0000 0.0000 0.0000
# 3 58.8732 58.8732 137.2329 0.0000 0.0000 0.0000
# 4 0.0000 0.0000 0.0000 30.5998 0.0000 0.0000
# 5 0.0000 0.0000 0.0000 0.0000 30.5998 0.0000
# 6 0.0000 0.0000 0.0000 0.0000 0.0000 38.6786
#
#
#
# Elastic Compliance Matrix: (Units=1/GPa)
#
#
# Indices 1 2 3 4 5 6 
#
# 1 0.009408 -0.003519 -0.002526 0.000000 0.000000 0.000000
# 2 -0.003519 0.009408 -0.002526 0.000000 0.000000 0.000000
# 3 -0.002526 -0.002526 0.009454 0.000000 0.000000 0.000000
# 4 0.000000 0.000000 0.000000 0.032680 0.000000 0.000000
# 5 0.000000 0.000000 0.000000 0.000000 0.032680 0.000000
# 6 0.000000 0.000000 0.000000 0.000000 0.000000 0.025854
#
#
# Mechanical properties :
#
#
# Convention : Reuss Voigt Hill
#
# Bulk Modulus (GPa) = 89.87464 90.37782 90.12623
# Shear Modulus (GPa) = 35.62878 36.35503 35.99191
#
# Velocity S-wave (km/s) = 4.04148 4.08246 4.06202
# Velocity P-wave (km/s) = 7.93599 7.97838 7.95722
#
# Compressibility (1/GPa) = 0.01112661
#
# Stress axis : x y z
#
# Youngs Moduli (GPa) = 106.29534 106.29534 105.77159
#
# Poissons Ratio (x) = 0.37409 0.26720
# Poissons Ratio (y) = 0.37409 0.26720
# Poissons Ratio (z) = 0.26852 0.26852
#
# Static dielectric constant tensor:
#      x y z
#    x 4.019710 0.000000 0.000000 
#    y 0.000000 4.019710 0.000000 
#    z 0.000000 0.000000 4.407830 
# 
# 
# High freq. dielectric constant tensor:
#      x y z
#    x 1.856440 0.000000 0.000000 
#    y 0.000000 1.856440 0.000000 
#    z 0.000000 0.000000 1.882570 
# 
# From -- ./inp_files/8937.got.cif
#   From: 2010.03.12/outbox.cif.g09.slc.cpg/sg180_5_cif.got.tgz:8937.got - 2010.04.01 11:35:50.
