data_PCOD8326614
_publ_section_title
;
Structure prediction by ZEFSAII (Michael W. Deem and Ramdas Pophale) SiO2 
 PCOD8326614
Probable space group: P 6 C C
;
_chemical_formula_sum "Si O2"
_cell_formula_units_Z 50
_cell_length_a 13.643541
_cell_length_b 13.643541
_cell_length_c 15.086132
_cell_angle_alpha 90.000000
_cell_angle_beta 90.000000
_cell_angle_gamma 120.000000
_cell_volume 2431.995325
_symmetry_space_group_name_H-M "P 6 C C"
_symmetry_group_IT_number 184
_symmetry_cell_setting 'hexagonal'
loop_
_space_group_symop_operation_xyz
x,y,z
x-y,x,z
-y,x-y,z
-x,-y,z
-x+y,-x,z
y,-x+y,z
-x+y,y,1/2+z
x,x-y,1/2+z
-y,-x,1/2+z
y,x,1/2+z
x-y,-y,1/2+z
-x,-x+y,1/2+z
loop_
_atom_site_type_symbol
_atom_site_label
_atom_site_fract_x
_atom_site_fract_y
_atom_site_fract_z
Si Si1 0.500000 0.500000 0.322120
Si Si2 0.732516 0.571232 0.236541
Si Si3 0.666667 0.333334 0.467985
Si Si4 0.333335 0.666667 0.176253
Si Si5 0.263091 0.090580 0.072119
Si Si6 0.732517 0.161287 0.407698
O O1 0.603351 0.532009 0.256337
O O2 0.531998 0.603349 0.387904
O O3 0.741284 0.461309 0.210545
O O4 0.775846 0.661597 0.158885
O O5 0.813318 0.626634 0.322120
O O6 0.666668 0.333334 0.572119
O O7 0.741291 0.279982 0.433694
O O8 0.204738 0.166183 0.072118
O O9 0.338407 0.114250 0.985355
#
# Coordination Sequence:
#
# PCOD8326614 Si02
#       6
#     6  12   4   4  12  12
#     4  12  24  38  72 100 146 186 224 270 354 416
#     4  12  24  44  70 106 142 182 221 284 351 428
#     4  12  22  41  70 106 149 175 214 269 361 430
#     4  12  22  41  70 106 149 175 214 269 361 430
#     4  12  29  49  71  97 137 186 249 295 339 395
#     4  12  24  44  70 106 142 182 221 284 351 428
#
# _framework density 20.559249999999999
#
# number of rings (size 3 to 8) (size 9 to 14) (size 15 to 20)
#    0.000    0.000    7.200    3.120    0.000    0.960 
#    0.000    0.000    0.000    2.880    0.000    0.000 
#    0.000    0.000    0.000    0.000    0.000    0.000 
#
# Total GULP energy -620325.851189 kJ/mol
# GULP energy per Si atom -12406.517024 kJ/mol
# Density = 2.051246 g / cm^3
# Si number density = 20.559250 Si / 1000 Ang^3
#
#
#
# Elastic Constant Matrix: (Units=GPa)
#
#
# Indices 1 2 3 4 5 6 
#
# 1 145.1035 69.6120 78.0012 0.0001 0.0001 -0.0004
# 2 69.6120 145.1042 78.0011 -0.0001 -0.0001 0.0007
# 3 78.0012 78.0011 190.2190 0.0000 -0.0005 0.0001
# 4 0.0001 -0.0001 0.0000 5.3954 0.0012 0.0001
# 5 0.0001 -0.0001 -0.0005 0.0012 5.3919 -0.0001
# 6 -0.0004 0.0007 0.0001 0.0001 -0.0001 37.7474
#
#
#
# Elastic Compliance Matrix: (Units=1/GPa)
#
#
# Indices 1 2 3 4 5 6 
#
# 1 0.009940 -0.003306 -0.002720 0.000000 -0.000001 0.000000
# 2 -0.003306 0.009940 -0.002720 0.000000 0.000000 0.000000
# 3 -0.002720 -0.002720 0.007488 0.000000 0.000001 0.000000
# 4 0.000000 0.000000 0.000000 0.185345 -0.000042 -0.000001
# 5 -0.000001 0.000000 0.000001 -0.000042 0.185464 0.000001
# 6 0.000000 0.000000 0.000000 -0.000001 0.000001 0.026492
#
#
# Mechanical properties :
#
#
# Convention : Reuss Voigt Hill
#
# Bulk Modulus (GPa) = 101.27055 103.51727 102.39391
# Shear Modulus (GPa) = 11.22451 26.69443 18.95947
#
# Velocity S-wave (km/s) = 2.33911 3.60726 3.04005
# Velocity P-wave (km/s) = 7.52729 8.23467 7.88891
#
# Compressibility (1/GPa) = 0.00987454
#
# Stress axis : x y z
#
# Youngs Moduli (GPa) = 100.60251 100.60319 133.54708
#
# Poissons Ratio (x) = 0.33263 0.36328
# Poissons Ratio (y) = 0.33263 0.36327
# Poissons Ratio (z) = 0.27366 0.27366
#
# Static dielectric constant tensor:
#      x y z
#    x 3.836060 0.000000 0.000000 
#    y 0.000000 3.836060 0.000000 
#    z 0.000000 0.000000 3.951790 
# 
# 
# High freq. dielectric constant tensor:
#      x y z
#    x 1.808700 0.000000 0.000000 
#    y 0.000000 1.808700 0.000000 
#    z 0.000000 0.000000 1.822980 
# 
# From -- ./inp_files/792.got.cif
#   From: 2010.03.12/outbox.cif.g09.slc.cpg/sg184_cif.got.tgz:792.got - 2010.04.01 11:54:36.
