data_PCOD8326588
_publ_section_title
;
Structure prediction by ZEFSAII (Michael W. Deem and Ramdas Pophale) SiO2 
 PCOD8326588
Probable space group: P 6 C C
;
_chemical_formula_sum "Si O2"
_cell_formula_units_Z 68
_cell_length_a 12.498744
_cell_length_b 12.498744
_cell_length_c 25.258844
_cell_angle_alpha 90.000000
_cell_angle_beta 90.000000
_cell_angle_gamma 120.000000
_cell_volume 3417.250755
_symmetry_space_group_name_H-M "P 6 C C"
_symmetry_group_IT_number 184
_symmetry_cell_setting 'hexagonal'
loop_
_space_group_symop_operation_xyz
x,y,z
x-y,x,z
-y,x-y,z
-x,-y,z
-x+y,-x,z
y,-x+y,z
-x+y,y,1/2+z
x,x-y,1/2+z
-y,-x,1/2+z
y,x,1/2+z
x-y,-y,1/2+z
-x,-x+y,1/2+z
loop_
_atom_site_type_symbol
_atom_site_label
_atom_site_fract_x
_atom_site_fract_y
_atom_site_fract_z
Si Si1 0.666667 0.333334 0.317217
Si Si2 0.746455 0.000000 0.755358
Si Si3 0.209557 0.935519 0.945175
Si Si4 0.356491 0.918612 0.159698
Si Si5 0.333334 0.666667 0.193501
Si Si6 0.562122 0.643510 0.851019
Si Si7 0.064482 0.790444 0.565542
O O1 0.666668 0.333334 0.255359
O O2 0.684249 0.463713 0.335305
O O3 0.761588 0.880794 0.755358
O O4 0.667876 0.990574 0.703548
O O5 0.677304 0.009427 0.807169
O O6 0.292792 0.906920 0.906930
O O7 0.068389 0.840389 0.932971
O O8 0.245532 0.924197 0.005359
O O9 0.315755 0.779466 0.175413
O O10 0.292790 0.906918 0.103787
O O11 0.500000 0.000000 0.149897
O O12 0.500000 0.500000 0.860818
O O13 0.931612 0.772000 0.577746
#
# Coordination Sequence:
#
# PCOD8326588 Si02
#       7
#     4  12  12  12   4  12  12
#     4  12  24  42  64  89 124 168 210 249 310 383
#     4  12  24  40  62  90 122 156 200 256 316 376
#     4  10  21  39  63  90 121 158 202 254 313 376
#     4  12  24  40  62  89 122 162 207 255 308 373
#     4  12  24  42  64  89 124 168 210 249 310 383
#     4  12  24  40  62  89 122 162 207 255 308 373
#     4  10  21  39  63  90 121 158 202 254 313 376
#
# _framework density 19.899038000000001
#
# number of rings (size 3 to 8) (size 9 to 14) (size 15 to 20)
#    0.000    0.706    0.000   10.588    0.000    2.118 
#    0.000    5.294    0.000    0.000    0.000    0.000 
#    0.000    0.000    0.000    0.000    0.000    0.000 
#
# Total GULP energy -843508.680640 kJ/mol
# GULP energy per Si atom -12404.539421 kJ/mol
# Density = 1.985375 g / cm^3
# Si number density = 19.899038 Si / 1000 Ang^3
#
#
#
# Elastic Constant Matrix: (Units=GPa)
#
#
# Indices 1 2 3 4 5 6 
#
# 1 125.6543 95.9170 87.8455 0.0000 0.0007 -0.0003
# 2 95.9170 125.6547 87.8446 0.0000 -0.0009 0.0001
# 3 87.8455 87.8446 156.6892 0.0000 0.0000 -0.0006
# 4 0.0000 0.0000 0.0000 38.8992 0.0002 0.0008
# 5 0.0007 -0.0009 0.0000 0.0002 38.8987 0.0000
# 6 -0.0003 0.0001 -0.0006 0.0008 0.0000 14.8686
#
#
#
# Elastic Compliance Matrix: (Units=1/GPa)
#
#
# Indices 1 2 3 4 5 6 
#
# 1 0.020877 -0.012751 -0.004555 0.000000 -0.000001 0.000000
# 2 -0.012751 0.020876 -0.004555 0.000000 0.000001 -0.000001
# 3 -0.004555 -0.004555 0.011490 0.000000 0.000000 0.000000
# 4 0.000000 0.000000 0.000000 0.025707 0.000000 -0.000001
# 5 -0.000001 0.000001 0.000000 0.000000 0.025708 0.000000
# 6 0.000000 -0.000001 0.000000 -0.000001 0.000000 0.067256
#
#
# Mechanical properties :
#
#
# Convention : Reuss Voigt Hill
#
# Bulk Modulus (GPa) = 105.05195 105.69026 105.37111
# Shear Modulus (GPa) = 22.85089 27.62606 25.23847
#
# Velocity S-wave (km/s) = 3.39239 3.73005 3.56522
# Velocity P-wave (km/s) = 8.26145 8.47228 8.36753
#
# Compressibility (1/GPa) = 0.00951910
#
# Stress axis : x y z
#
# Youngs Moduli (GPa) = 47.90058 47.90142 87.03443
#
# Poissons Ratio (x) = 0.61080 0.39648
# Poissons Ratio (y) = 0.61079 0.39645
# Poissons Ratio (z) = 0.21821 0.21819
#
# Static dielectric constant tensor:
#      x y z
#    x 3.798920 0.000000 0.000000 
#    y 0.000000 3.798930 0.000000 
#    z 0.000000 0.000000 3.793120 
# 
# 
# High freq. dielectric constant tensor:
#      x y z
#    x 1.791930 0.000000 0.000000 
#    y 0.000000 1.791930 0.000000 
#    z 0.000000 0.000000 1.786160 
# 
# From -- ./inp_files/1400.got.cif
#   From: 2010.03.12/outbox.cif.g09.slc.cpg/sg184_cif.got.tgz:1400.got - 2010.04.01 11:54:36.
