data_PCOD8326379
_publ_section_title
;
Structure prediction by ZEFSAII (Michael W. Deem and Ramdas Pophale) SiO2 
 PCOD8326379
Probable space group: P 64 2 2
;
_chemical_formula_sum "Si O2"
_cell_formula_units_Z 42
_cell_length_a 11.550692
_cell_length_b 11.550692
_cell_length_c 17.011250
_cell_angle_alpha 90.000000
_cell_angle_beta 90.000000
_cell_angle_gamma 120.000000
_cell_volume 1965.544433
_symmetry_space_group_name_H-M "P 64 2 2"
_symmetry_group_IT_number 181
_symmetry_cell_setting 'hexagonal'
loop_
_space_group_symop_operation_xyz
x,y,z
x-y,x,2/3+z
-y,x-y,1/3+z
-x,-y,z
-x+y,-x,2/3+z
y,-x+y,1/3+z
x-y,-y,-z
-x,-x+y,2/3-z
y,x,1/3-z
-y,-x,1/3-z
-x+y,y,-z
x,x-y,2/3-z
loop_
_atom_site_type_symbol
_atom_site_label
_atom_site_fract_x
_atom_site_fract_y
_atom_site_fract_z
Si Si1 0.385447 0.037422 0.642624
Si Si2 0.787488 0.787488 0.166667
Si Si3 0.013058 0.727216 0.148912
Si Si4 0.321493 0.437137 0.712033
O O1 0.456074 0.195046 0.626827
O O2 0.500000 0.000000 0.636542
O O3 0.276213 0.966144 0.574879
O O4 0.310340 0.994327 0.725402
O O5 0.933004 0.803005 0.175569
O O6 0.943867 0.587538 0.198873
O O7 0.170832 0.829169 0.166667
O O8 0.304029 0.304029 0.666667
O O9 0.437210 0.562791 0.666667
#
# Coordination Sequence:
#
# PCOD8326379 Si02
#       4
#    12   6  12  12
#     4  11  24  41  65  93 130 169 218 264 323 392
#     4  10  24  42  62  90 132 164 210 268 318 386
#     4  11  22  40  67  96 122 166 212 266 323 386
#     4  10  22  41  64  91 132 165 210 268 325 384
#
# _framework density 21.368127000000001
#
# number of rings (size 3 to 8) (size 9 to 14) (size 15 to 20)
#    0.000    1.429    2.857    1.714    4.000    2.286 
#    0.000    5.714    0.000    0.000    0.000    0.000 
#    0.000    0.000    0.000    0.000    0.000    0.000 
#
# Total GULP energy -520351.431575 kJ/mol
# GULP energy per Si atom -12389.319799 kJ/mol
# Density = 2.131949 g / cm^3
# Si number density = 21.368127 Si / 1000 Ang^3
#
#
#
# Elastic Constant Matrix: (Units=GPa)
#
#
# Indices 1 2 3 4 5 6 
#
# 1 100.6752 43.1385 35.7174 0.0000 0.0000 0.0000
# 2 43.1385 100.6752 35.7174 0.0000 0.0000 0.0000
# 3 35.7174 35.7174 178.2315 0.0000 0.0000 0.0000
# 4 0.0000 0.0000 0.0000 32.0901 0.0000 0.0000
# 5 0.0000 0.0000 0.0000 0.0000 32.0901 0.0000
# 6 0.0000 0.0000 0.0000 0.0000 0.0000 28.7683
#
#
#
# Elastic Compliance Matrix: (Units=1/GPa)
#
#
# Indices 1 2 3 4 5 6 
#
# 1 0.012551 -0.004829 -0.001548 0.000000 0.000000 0.000000
# 2 -0.004829 0.012551 -0.001548 0.000000 0.000000 0.000000
# 3 -0.001548 -0.001548 0.006231 0.000000 0.000000 0.000000
# 4 0.000000 0.000000 0.000000 0.031162 0.000000 0.000000
# 5 0.000000 0.000000 0.000000 0.000000 0.031162 0.000000
# 6 0.000000 0.000000 0.000000 0.000000 0.000000 0.034760
#
#
# Mechanical properties :
#
#
# Convention : Reuss Voigt Hill
#
# Bulk Modulus (GPa) = 64.57810 67.63651 66.10731
# Shear Modulus (GPa) = 33.46094 36.25696 34.85895
#
# Velocity S-wave (km/s) = 3.96147 4.12366 4.04338
# Velocity P-wave (km/s) = 7.15623 7.37526 7.26657
#
# Compressibility (1/GPa) = 0.01548512
#
# Stress axis : x y z
#
# Youngs Moduli (GPa) = 79.67391 79.67391 160.49001
#
# Poissons Ratio (x) = 0.38475 0.24836
# Poissons Ratio (y) = 0.38475 0.24836
# Poissons Ratio (z) = 0.12330 0.12330
#
# Static dielectric constant tensor:
#      x y z
#    x 3.892100 0.000000 0.000000 
#    y 0.000000 3.892100 0.000000 
#    z 0.000000 0.000000 4.202490 
# 
# 
# High freq. dielectric constant tensor:
#      x y z
#    x 1.830110 0.000000 0.000000 
#    y 0.000000 1.830110 0.000000 
#    z 0.000000 0.000000 1.859350 
# 
# From -- ./inp_files/7300.got.cif
#   From: 2010.03.12/outbox.cif.g09.slc.cpg/sg181_4_cif.got.tgz:7300.got - 2010.04.01 11:42:41.
