data_PCOD8326501
_publ_section_title
;
Structure prediction by ZEFSAII (Michael W. Deem and Ramdas Pophale) SiO2 
 PCOD8326501
Probable space group: P 63 2 2
;
_chemical_formula_sum "Si O2"
_cell_formula_units_Z 36
_cell_length_a 8.661029
_cell_length_b 8.661029
_cell_length_c 27.502168
_cell_angle_alpha 90.000000
_cell_angle_beta 90.000000
_cell_angle_gamma 120.000000
_cell_volume 1786.637922
_symmetry_space_group_name_H-M "P 63 2 2"
_symmetry_group_IT_number 182
_symmetry_cell_setting 'hexagonal'
loop_
_space_group_symop_operation_xyz
x,y,z
x-y,x,1/2+z
-y,x-y,z
-x,-y,1/2+z
-x+y,-x,z
y,-x+y,1/2+z
x-y,-y,-z
-x,-x+y,-z
y,x,-z
-y,-x,1/2-z
-x+y,y,1/2-z
x,x-y,1/2-z
loop_
_atom_site_type_symbol
_atom_site_label
_atom_site_fract_x
_atom_site_fract_y
_atom_site_fract_z
Si Si1 0.666405 0.666333 0.653399
Si Si2 0.666668 0.333334 0.692160
Si Si3 0.666668 0.333334 0.192344
Si Si4 0.801477 0.802023 0.446367
Si Si5 0.000000 0.000000 0.692711
O O1 0.607978 0.470302 0.672451
O O2 0.528477 0.723355 0.672882
O O3 0.669315 0.669052 0.594532
O O4 0.861897 0.804803 0.673164
O O5 0.666668 0.333334 0.750000
O O6 0.666668 0.333334 0.250000
O O7 0.723385 0.723385 0.500000
O O8 0.999529 0.825191 0.440883
O O9 0.000000 0.000000 0.750000
#
# Coordination Sequence:
#
# PCOD8326501 Si02
#       5
#    12   4   4  12   4
#     4  12  22  41  62  91 122 165 208 254 316 361
#     4  12  27  42  61  89 130 168 213 261 304 365
#     4  12  27  42  61  89 130 168 213 261 304 365
#     4   8  16  35  65  92 119 158 202 251 311 368
#     4  12  21  36  64  89 121 159 207 249 310 374
#
# _framework density 20.14958
#
# number of rings (size 3 to 8) (size 9 to 14) (size 15 to 20)
#    0.667    0.667    3.333    5.000    0.000    0.000 
#    0.000    3.333    0.000    0.000    0.000    0.000 
#    0.000    0.000    0.000    0.000    0.000    0.000 
#
# Total GULP energy -446377.627849 kJ/mol
# GULP energy per Si atom -12399.378551 kJ/mol
# Density = 2.010372 g / cm^3
# Si number density = 20.149580 Si / 1000 Ang^3
#
#
#
# Elastic Constant Matrix: (Units=GPa)
#
#
# Indices 1 2 3 4 5 6 
#
# 1 559.8449 -480.8332 42.6464 -0.0809 -0.0433 -0.4971
# 2 -480.8332 559.8429 42.6465 0.0816 0.0432 0.4989
# 3 42.6464 42.6465 232.0244 -0.0001 -0.0016 0.0006
# 4 -0.0809 0.0816 -0.0001 7.7683 0.0012 -0.0431
# 5 -0.0433 0.0432 -0.0016 0.0012 7.7654 0.0814
# 6 -0.4971 0.4989 0.0006 -0.0431 0.0814 520.4303
#
#
#
# Elastic Compliance Matrix: (Units=1/GPa)
#
#
# Indices 1 2 3 4 5 6 
#
# 1 0.008375 0.007414 -0.002902 0.000009 0.000005 0.000001
# 2 0.007414 0.008375 -0.002902 -0.000011 -0.000006 -0.000001
# 3 -0.002902 -0.002902 0.005377 0.000000 0.000001 0.000000
# 4 0.000009 -0.000011 0.000000 0.128728 -0.000021 0.000011
# 5 0.000005 -0.000006 0.000001 -0.000021 0.128776 -0.000020
# 6 0.000001 -0.000001 0.000000 0.000011 -0.000020 0.001921
#
#
# Mechanical properties :
#
#
# Convention : Reuss Voigt Hill
#
# Bulk Modulus (GPa) = 39.45239 62.29241 50.87240
# Shear Modulus (GPa) = 17.43486 223.67632 120.55559
#
# Velocity S-wave (km/s) = 2.94474 10.54746 7.74340
# Velocity P-wave (km/s) = 5.58429 13.39082 10.25910
#
# Compressibility (1/GPa) = 0.02534701
#
# Stress axis : x y z
#
# Youngs Moduli (GPa) = 119.40120 119.40077 185.98715
#
# Poissons Ratio (x) = -0.88526 0.53975
# Poissons Ratio (y) = -0.88527 0.53976
# Poissons Ratio (z) = 0.34652 0.34651
#
# Static dielectric constant tensor:
#      x y z
#    x 3.508410 0.000030 0.000000 
#    y 0.000030 3.508530 -0.000020 
#    z 0.000000 -0.000020 3.859990 
# 
# 
# High freq. dielectric constant tensor:
#      x y z
#    x 1.763470 0.000000 0.000000 
#    y 0.000000 1.763470 0.000000 
#    z 0.000000 0.000000 1.809060 
# 
# From -- ./inp_files/5610.got.cif
#   From: 2010.03.12/outbox.cif.g09.slc.cpg/sg182_3_cif.got.tgz:5610.got - 2010.04.01 11:49:36.
