data_PCOD8326903
_publ_section_title
;
Structure prediction by ZEFSAII (Michael W. Deem and Ramdas Pophale) SiO2 
 PCOD8326903
Probable space group: P -6 M 2
;
_chemical_formula_sum "Si O2"
_cell_formula_units_Z 78
_cell_length_a 16.990359
_cell_length_b 16.990359
_cell_length_c 20.503682
_cell_angle_alpha 90.000000
_cell_angle_beta 90.000000
_cell_angle_gamma 120.000000
_cell_volume 5125.870148
_symmetry_space_group_name_H-M "P -6 M 2"
_symmetry_group_IT_number 187
_symmetry_cell_setting 'hexagonal'
loop_
_space_group_symop_operation_xyz
x,y,z
-x+y,-x,-z
-y,x-y,z
x,y,-z
-x+y,-x,z
-y,x-y,-z
-y,-x,-z
-x+y,y,-z
x,x-y,-z
-x+y,y,z
x,x-y,z
-y,-x,z
loop_
_atom_site_type_symbol
_atom_site_label
_atom_site_fract_x
_atom_site_fract_y
_atom_site_fract_z
Si Si1 0.519877 0.851729 0.000000
Si Si2 0.570175 0.963833 0.255750
Si Si3 0.819991 0.000478 0.822738
Si Si4 0.941021 0.236198 0.697484
Si Si5 0.334276 0.845830 0.377901
Si Si6 0.706333 0.944194 0.572831
Si Si7 0.096550 0.374901 0.869426
O O1 0.582240 0.904689 0.061514
O O2 0.428543 0.857085 0.000000
O O3 0.492526 0.746263 0.000000
O O4 0.501401 0.002801 0.256018
O O5 0.535975 0.877227 0.302997
O O6 0.574631 0.930940 0.183704
O O7 0.666589 0.044969 0.281022
O O8 0.850208 0.925104 0.826687
O O9 0.733626 0.974598 0.869486
O O10 0.793163 0.005409 0.747908
O O11 0.903473 0.096528 0.846582
O O12 0.833836 0.166165 0.698782
O O13 0.977275 0.237555 0.624902
O O14 0.429454 0.858908 0.403762
O O15 0.259691 0.740310 0.381881
O O16 0.308059 0.906681 0.422661
O O17 0.738420 0.983399 0.500000
O O18 0.726058 0.863029 0.587616
O O19 0.196005 0.392009 0.851937
#
# Coordination Sequence:
#
# PCOD8326903 Si02
#       7
#     6  12  12  12  12  12  12
#     4  10  19  30  43  60  84 114 146 176 205 238
#     4   9  16  27  43  61  81 106 135 169 209 249
#     4   9  16  27  44  65  87 111 139 171 206 243
#     4   9  17  28  43  62  81 102 133 172 210 249
#     4   9  16  25  38  57  81 108 137 167 197 230
#     4   9  17  28  40  55  78 107 135 163 198 241
#     4   9  17  28  42  61  86 114 142 172 204 239
#
# _framework density 15.216929
#
# number of rings (size 3 to 8) (size 9 to 14) (size 15 to 20)
#    0.000    2.923    0.000    1.769    0.000    4.308 
#    0.000    0.385    0.000    6.462    0.000    1.077 
#    0.000    0.000    0.000    2.000    0.000    1.231 
#
# Total GULP energy -967042.115323 kJ/mol
# GULP energy per Si atom -12397.975837 kJ/mol
# Density = 1.518229 g / cm^3
# Si number density = 15.216929 Si / 1000 Ang^3
#
#
#
# Elastic Constant Matrix: (Units=GPa)
#
#
# Indices 1 2 3 4 5 6 
#
# 1 85.2246 41.0631 38.1172 0.0000 0.0001 0.0000
# 2 41.0631 85.2246 38.1172 0.0000 -0.0001 0.0000
# 3 38.1172 38.1172 95.1617 0.0000 0.0000 0.0000
# 4 0.0000 0.0000 0.0000 16.9296 0.0000 -0.0001
# 5 0.0001 -0.0001 0.0000 0.0000 16.9296 0.0000
# 6 0.0000 0.0000 0.0000 -0.0001 0.0000 22.0807
#
#
#
# Elastic Compliance Matrix: (Units=1/GPa)
#
#
# Indices 1 2 3 4 5 6 
#
# 1 0.016544 -0.006100 -0.004183 0.000000 0.000000 0.000000
# 2 -0.006100 0.016544 -0.004183 0.000000 0.000000 0.000000
# 3 -0.004183 -0.004183 0.013860 0.000000 0.000000 0.000000
# 4 0.000000 0.000000 0.000000 0.059068 0.000000 0.000000
# 5 0.000000 0.000000 0.000000 0.000000 0.059068 0.000000
# 6 0.000000 0.000000 0.000000 0.000000 0.000000 0.045288
#
#
# Mechanical properties :
#
#
# Convention : Reuss Voigt Hill
#
# Bulk Modulus (GPa) = 55.51229 55.57847 55.54538
# Shear Modulus (GPa) = 20.38238 21.07556 20.72897
#
# Velocity S-wave (km/s) = 3.66383 3.72561 3.69484
# Velocity P-wave (km/s) = 7.37956 7.42363 7.40163
#
# Compressibility (1/GPa) = 0.01801403
#
# Stress axis : x y z
#
# Youngs Moduli (GPa) = 60.44519 60.44519 72.15203
#
# Poissons Ratio (x) = 0.36873 0.30183
# Poissons Ratio (y) = 0.36873 0.30183
# Poissons Ratio (z) = 0.25286 0.25286
#
# Static dielectric constant tensor:
#      x y z
#    x 2.848970 0.000000 0.000000 
#    y 0.000000 2.848970 0.000000 
#    z 0.000000 0.000000 2.901710 
# 
# 
# High freq. dielectric constant tensor:
#      x y z
#    x 1.569550 0.000000 0.000000 
#    y 0.000000 1.569550 0.000000 
#    z 0.000000 0.000000 1.581440 
# 
# From -- ./inp_files/3129.got.cif
#   From: 2010.03.12/outbox.cif.g09.slc.cpg/sg187_2_cif.got.tgz:3129.got - 2010.04.01 11:58:23.
