data_PCOD8326592
_publ_section_title
;
Structure prediction by ZEFSAII (Michael W. Deem and Ramdas Pophale) SiO2 
 PCOD8326592
Probable space group: P 6 C C
;
_chemical_formula_sum "Si O2"
_cell_formula_units_Z 84
_cell_length_a 18.842501
_cell_length_b 18.842501
_cell_length_c 13.776074
_cell_angle_alpha 90.000000
_cell_angle_beta 90.000000
_cell_angle_gamma 120.000000
_cell_volume 4235.778022
_symmetry_space_group_name_H-M "P 6 C C"
_symmetry_group_IT_number 184
_symmetry_cell_setting 'hexagonal'
loop_
_space_group_symop_operation_xyz
x,y,z
x-y,x,z
-y,x-y,z
-x,-y,z
-x+y,-x,z
y,-x+y,z
-x+y,y,1/2+z
x,x-y,1/2+z
-y,-x,1/2+z
y,x,1/2+z
x-y,-y,1/2+z
-x,-x+y,1/2+z
loop_
_atom_site_type_symbol
_atom_site_label
_atom_site_fract_x
_atom_site_fract_y
_atom_site_fract_z
Si Si1 0.475765 0.906346 0.314230
Si Si2 0.568205 0.093844 0.035805
Si Si3 0.922095 0.210647 0.120346
Si Si4 0.855785 0.040715 0.428474
Si Si5 0.687250 0.160600 0.646973
Si Si6 0.161855 0.476039 0.203603
Si Si7 0.213842 0.291892 0.741478
O O1 0.485185 0.885953 0.425197
O O2 0.535624 0.890219 0.245908
O O3 0.382648 0.846740 0.279547
O O4 0.500000 0.000000 0.301542
O O5 0.531436 0.151104 0.068976
O O6 0.644380 0.111350 0.104490
O O7 0.500000 0.000000 0.048684
O O8 0.869817 0.255057 0.097341
O O9 0.870478 0.129001 0.183164
O O10 0.999439 0.274704 0.180826
O O11 0.950680 0.185806 0.024488
O O12 0.805350 0.052369 0.343469
O O13 0.951405 0.105813 0.422992
O O14 0.742920 0.256277 0.675063
O O15 0.130335 0.389359 0.256589
#
# Coordination Sequence:
#
# PCOD8326592 Si02
#       7
#    12  12  12  12  12  12  12
#     4  10  21  41  66  91 120 161 215 249 314 387
#     4  10  21  41  66  91 120 161 215 249 314 387
#     4  11  22  40  61  89 125 159 209 264 317 370
#     4  12  25  42  64  92 125 173 217 259 325 385
#     4  10  22  40  61  89 126 161 199 260 314 367
#     4  10  22  40  61  89 126 161 199 260 314 367
#     4  11  22  40  61  89 125 159 209 264 317 370
#
# _framework density 19.831067000000001
#
# number of rings (size 3 to 8) (size 9 to 14) (size 15 to 20)
#    0.000    1.429    2.857    3.571    2.000    1.143 
#   17.143    0.000    0.000    0.000    0.000    0.000 
#    0.000    0.000    0.000    0.000    0.000    0.000 
#
# Total GULP energy -1041802.028858 kJ/mol
# GULP energy per Si atom -12402.405105 kJ/mol
# Density = 1.978593 g / cm^3
# Si number density = 19.831067 Si / 1000 Ang^3
#
#
#
# Elastic Constant Matrix: (Units=GPa)
#
#
# Indices 1 2 3 4 5 6 
#
# 1 84.3807 17.2452 13.1282 0.0000 0.0000 0.0000
# 2 17.2452 84.3807 13.1282 0.0000 0.0000 0.0000
# 3 13.1282 13.1282 94.5738 0.0000 0.0000 0.0000
# 4 0.0000 0.0000 0.0000 43.2025 0.0000 0.0000
# 5 0.0000 0.0000 0.0000 0.0000 43.2025 0.0000
# 6 0.0000 0.0000 0.0000 0.0000 0.0000 33.5678
#
#
#
# Elastic Compliance Matrix: (Units=1/GPa)
#
#
# Indices 1 2 3 4 5 6 
#
# 1 0.012551 -0.002345 -0.001417 0.000000 0.000000 0.000000
# 2 -0.002345 0.012551 -0.001417 0.000000 0.000000 0.000000
# 3 -0.001417 -0.001417 0.010967 0.000000 0.000000 0.000000
# 4 0.000000 0.000000 0.000000 0.023147 0.000000 0.000000
# 5 0.000000 0.000000 0.000000 0.000000 0.023147 0.000000
# 6 0.000000 0.000000 0.000000 0.000000 0.000000 0.029790
#
#
# Mechanical properties :
#
#
# Convention : Reuss Voigt Hill
#
# Bulk Modulus (GPa) = 38.89207 38.92651 38.90929
# Shear Modulus (GPa) = 38.14484 38.65014 38.39749
#
# Velocity S-wave (km/s) = 4.39052 4.41950 4.40503
# Velocity P-wave (km/s) = 6.73472 6.76124 6.74799
#
# Compressibility (1/GPa) = 0.02571218
#
# Stress axis : x y z
#
# Youngs Moduli (GPa) = 79.67719 79.67719 91.18194
#
# Poissons Ratio (x) = 0.18681 0.12918
# Poissons Ratio (y) = 0.18681 0.12918
# Poissons Ratio (z) = 0.11288 0.11288
#
# Static dielectric constant tensor:
#      x y z
#    x 3.628760 0.000000 0.000000 
#    y 0.000000 3.628760 0.000000 
#    z 0.000000 0.000000 3.689870 
# 
# 
# High freq. dielectric constant tensor:
#      x y z
#    x 1.776450 0.000000 0.000000 
#    y 0.000000 1.776450 0.000000 
#    z 0.000000 0.000000 1.774570 
# 
# From -- ./inp_files/929.got.cif
#   From: 2010.03.12/outbox.cif.g09.slc.cpg/sg184_cif.got.tgz:929.got - 2010.04.01 11:54:36.
