data_PCOD8326557
_publ_section_title
;
Structure prediction by ZEFSAII (Michael W. Deem and Ramdas Pophale) SiO2 
 PCOD8326557
Probable space group: P 6 M M
;
_chemical_formula_sum "Si O2"
_cell_formula_units_Z 72
_cell_length_a 19.078690
_cell_length_b 19.078690
_cell_length_c 15.001633
_cell_angle_alpha 90.000000
_cell_angle_beta 90.000000
_cell_angle_gamma 120.000000
_cell_volume 4728.966868
_symmetry_space_group_name_H-M "P 6 M M"
_symmetry_group_IT_number 183
_symmetry_cell_setting 'hexagonal'
loop_
_space_group_symop_operation_xyz
x,y,z
x-y,x,z
-y,x-y,z
-x,-y,z
-x+y,-x,z
y,-x+y,z
-x+y,y,z
x,x-y,z
-y,-x,z
y,x,z
x-y,-y,z
-x,-x+y,z
loop_
_atom_site_type_symbol
_atom_site_label
_atom_site_fract_x
_atom_site_fract_y
_atom_site_fract_z
Si Si1 0.092239 0.750853 0.267820
Si Si2 0.505353 0.171385 0.969162
Si Si3 0.171384 0.666032 0.772724
Si Si4 0.249148 0.907761 0.474065
Si Si5 0.093767 0.623951 0.149902
Si Si6 0.906233 0.530184 0.591984
O O1 0.153101 0.846900 0.249998
O O2 0.093483 0.730044 0.370942
O O3 0.127692 0.701778 0.213841
O O4 0.000000 0.725363 0.238721
O O5 0.599489 0.198977 0.972437
O O6 0.497432 0.248716 0.989264
O O7 0.469470 0.134525 0.870943
O O8 0.456191 0.106676 0.046122
O O9 0.198975 0.599488 0.769448
O O10 0.248717 0.751284 0.752623
O O11 0.106677 0.650487 0.695764
O O12 0.153102 0.846899 0.491888
O O13 0.298223 0.872308 0.528044
O O14 0.274638 0.000000 0.503164
O O15 0.133029 0.566515 0.170849
O O16 0.000000 0.571709 0.168754
O O17 0.866971 0.433486 0.571039
O O18 0.000000 0.571709 0.573133
#
# Coordination Sequence:
#
# PCOD8326557 Si02
#       6
#    12  12  12  12  12  12
#     4   9  17  29  45  63  82 105 133 165 201 242
#     4   9  16  25  37  52  71  97 129 163 196 229
#     4   9  16  25  37  52  71  97 129 163 196 229
#     4   9  17  29  45  63  82 105 133 165 201 242
#     4   9  17  27  39  57  79 103 132 163 195 233
#     4   9  17  27  39  57  79 103 132 163 195 233
#
# _framework density 15.225312000000001
#
# number of rings (size 3 to 8) (size 9 to 14) (size 15 to 20)
#    0.000    3.000    0.000    1.333    0.000    2.667 
#    0.000    6.667    0.000    1.000    0.000    2.333 
#    0.000    0.000    0.000    0.000    0.000    0.000 
#
# Total GULP energy -891969.488230 kJ/mol
# GULP energy per Si atom -12388.465114 kJ/mol
# Density = 1.519066 g / cm^3
# Si number density = 15.225312 Si / 1000 Ang^3
#
#
#
# Elastic Constant Matrix: (Units=GPa)
#
#
# Indices 1 2 3 4 5 6 
#
# 1 58.1165 33.0295 32.7478 0.0000 0.0000 0.0000
# 2 33.0295 58.1165 32.7478 0.0000 0.0000 0.0000
# 3 32.7478 32.7478 68.8051 0.0000 0.0000 0.0000
# 4 0.0000 0.0000 0.0000 21.7626 0.0000 0.0000
# 5 0.0000 0.0000 0.0000 0.0000 21.7626 0.0000
# 6 0.0000 0.0000 0.0000 0.0000 0.0000 12.5435
#
#
#
# Elastic Compliance Matrix: (Units=1/GPa)
#
#
# Indices 1 2 3 4 5 6 
#
# 1 0.028268 -0.011594 -0.007936 0.000000 0.000000 0.000000
# 2 -0.011594 0.028268 -0.007936 0.000000 0.000000 0.000000
# 3 -0.007936 -0.007936 0.022088 0.000000 0.000000 0.000000
# 4 0.000000 0.000000 0.000000 0.045950 0.000000 0.000000
# 5 0.000000 0.000000 0.000000 0.000000 0.045950 0.000000
# 6 0.000000 0.000000 0.000000 0.000000 0.000000 0.079722
#
#
# Mechanical properties :
#
#
# Convention : Reuss Voigt Hill
#
# Bulk Modulus (GPa) = 42.20807 42.45424 42.33116
# Shear Modulus (GPa) = 15.97061 16.98130 16.47596
#
# Velocity S-wave (km/s) = 3.24227 3.34328 3.29316
# Velocity P-wave (km/s) = 6.46520 6.54583 6.50564
#
# Compressibility (1/GPa) = 0.02369215
#
# Stress axis : x y z
#
# Youngs Moduli (GPa) = 35.37615 35.37615 45.27327
#
# Poissons Ratio (x) = 0.41014 0.35929
# Poissons Ratio (y) = 0.41014 0.35929
# Poissons Ratio (z) = 0.28075 0.28075
#
# Static dielectric constant tensor:
#      x y z
#    x 2.963590 0.000000 0.000000 
#    y 0.000000 2.963590 0.000000 
#    z 0.000000 0.000000 3.112350 
# 
# 
# High freq. dielectric constant tensor:
#      x y z
#    x 1.562740 0.000000 0.000000 
#    y 0.000000 1.562740 0.000000 
#    z 0.000000 0.000000 1.591110 
# 
# From -- ./inp_files/2488.got.cif
#   From: 2010.03.12/outbox.cif.g09.slc.cpg/sg183_2_cif.got.tgz:2488.got - 2010.04.01 11:53:02.
