data_PCOD8326923
_publ_section_title
;
Structure prediction by ZEFSAII (Michael W. Deem and Ramdas Pophale) SiO2 
 PCOD8326923
Probable space group: P -6 M 2
;
_chemical_formula_sum "Si O2"
_cell_formula_units_Z 96
_cell_length_a 17.814445
_cell_length_b 17.814445
_cell_length_c 22.792591
_cell_angle_alpha 90.000000
_cell_angle_beta 90.000000
_cell_angle_gamma 120.000000
_cell_volume 6264.247704
_symmetry_space_group_name_H-M "P -6 M 2"
_symmetry_group_IT_number 187
_symmetry_cell_setting 'hexagonal'
loop_
_space_group_symop_operation_xyz
x,y,z
-x+y,-x,-z
-y,x-y,z
x,y,-z
-x+y,-x,z
-y,x-y,-z
-y,-x,-z
-x+y,y,-z
x,x-y,-z
-x+y,y,z
x,x-y,z
-y,-x,z
loop_
_atom_site_type_symbol
_atom_site_label
_atom_site_fract_x
_atom_site_fract_y
_atom_site_fract_z
Si Si1 0.917379 0.258300 0.859179
Si Si2 0.675389 0.751124 0.067266
Si Si3 0.333922 0.492711 0.860617
Si Si4 0.411063 0.998820 0.359709
Si Si5 0.412030 0.414994 0.775537
Si Si6 0.665747 0.495809 0.069029
Si Si7 0.492658 0.159534 0.567328
Si Si8 0.332806 0.493484 0.567629
O O1 0.839201 0.160800 0.844970
O O2 0.896380 0.304551 0.911620
O O3 0.001175 0.258949 0.887090
O O4 0.937612 0.320909 0.803270
O O5 0.701077 0.850539 0.072759
O O6 0.575252 0.688302 0.086329
O O7 0.686062 0.728917 0.000000
O O8 0.252702 0.505403 0.845386
O O9 0.415466 0.584535 0.880043
O O10 0.356928 0.455725 0.802936
O O11 0.499239 0.998477 0.369681
O O12 0.386168 0.992885 0.291970
O O13 0.335989 0.915878 0.393189
O O14 0.422495 0.085613 0.389932
O O15 0.515359 0.484642 0.782880
O O16 0.734021 0.468041 0.091962
O O17 0.571909 0.428092 0.095784
O O18 0.661588 0.493274 0.000000
O O19 0.465918 0.130956 0.500000
O O20 0.588894 0.177787 0.579663
O O21 0.491678 0.245839 0.583129
O O22 0.333605 0.469331 0.500000
O O23 0.246489 0.492978 0.585540
O O24 0.411389 0.588612 0.581769
#
# Coordination Sequence:
#
# PCOD8326923 Si02
#       8
#    12  12  12  12  12  12  12  12
#     4  10  19  30  46  65  82 104 138 175 206 242
#     4   9  18  32  47  63  85 110 132 161 208 259
#     4   9  17  29  45  64  86 113 145 178 209 242
#     4   9  17  28  41  57  81 114 147 176 208 247
#     4   9  18  31  43  58  84 116 146 175 208 244
#     4   9  16  25  38  58  84 111 136 163 196 233
#     4   9  16  26  41  60  80 103 134 173 215 257
#     4   9  16  26  41  62  88 117 148 180 211 242
#
# _framework density 15.325065
#
# number of rings (size 3 to 8) (size 9 to 14) (size 15 to 20)
#    0.000    2.875    0.000    1.625    0.000    5.500 
#    0.000    0.000    0.000    2.750    0.000    0.000 
#    0.000    0.000    0.000    0.375    0.000    5.625 
#
# Total GULP energy -1189846.328511 kJ/mol
# GULP energy per Si atom -12394.232589 kJ/mol
# Density = 1.529018 g / cm^3
# Si number density = 15.325065 Si / 1000 Ang^3
#
#
#
# Elastic Constant Matrix: (Units=GPa)
#
#
# Indices 1 2 3 4 5 6 
#
# 1 81.7435 40.7789 43.5834 0.0000 0.0001 0.0000
# 2 40.7789 81.7435 43.5834 0.0000 -0.0001 0.0000
# 3 43.5834 43.5834 87.7727 0.0000 0.0000 0.0000
# 4 0.0000 0.0000 0.0000 17.7538 0.0000 -0.0001
# 5 0.0001 -0.0001 0.0000 0.0000 17.7538 0.0000
# 6 0.0000 0.0000 0.0000 -0.0001 0.0000 20.4823
#
#
#
# Elastic Compliance Matrix: (Units=1/GPa)
#
#
# Indices 1 2 3 4 5 6 
#
# 1 0.018516 -0.005896 -0.006266 0.000000 0.000000 0.000000
# 2 -0.005896 0.018516 -0.006266 0.000000 0.000000 0.000000
# 3 -0.006266 -0.006266 0.017616 0.000000 0.000000 0.000000
# 4 0.000000 0.000000 0.000000 0.056326 0.000000 0.000000
# 5 0.000000 0.000000 0.000000 0.000000 0.056326 0.000000
# 6 0.000000 0.000000 0.000000 0.000000 0.000000 0.048823
#
#
# Mechanical properties :
#
#
# Convention : Reuss Voigt Hill
#
# Bulk Modulus (GPa) = 56.20998 56.35013 56.28005
# Shear Modulus (GPa) = 19.31177 19.41889 19.36533
#
# Velocity S-wave (km/s) = 3.55370 3.56354 3.55862
# Velocity P-wave (km/s) = 7.32096 7.33359 7.32728
#
# Compressibility (1/GPa) = 0.01779044
#
# Stress axis : x y z
#
# Youngs Moduli (GPa) = 54.00842 54.00842 56.76582
#
# Poissons Ratio (x) = 0.31842 0.35572
# Poissons Ratio (y) = 0.31842 0.35572
# Poissons Ratio (z) = 0.33844 0.33844
#
# Static dielectric constant tensor:
#      x y z
#    x 2.975230 0.000000 0.000000 
#    y 0.000000 2.975230 0.000000 
#    z 0.000000 0.000000 2.892730 
# 
# 
# High freq. dielectric constant tensor:
#      x y z
#    x 1.573260 0.000000 0.000000 
#    y 0.000000 1.573260 0.000000 
#    z 0.000000 0.000000 1.581420 
# 
# From -- ./inp_files/3793.got.cif
#   From: 2010.03.12/outbox.cif.g09.slc.cpg/sg187_2_cif.got.tgz:3793.got - 2010.04.01 11:58:23.
