data_PCOD8326586
_publ_section_title
;
Structure prediction by ZEFSAII (Michael W. Deem and Ramdas Pophale) SiO2 
 PCOD8326586
Probable space group: P 6 C C
;
_chemical_formula_sum "Si O2"
_cell_formula_units_Z 84
_cell_length_a 17.911101
_cell_length_b 17.911101
_cell_length_c 13.426478
_cell_angle_alpha 90.000000
_cell_angle_beta 90.000000
_cell_angle_gamma 120.000000
_cell_volume 3730.244528
_symmetry_space_group_name_H-M "P 6 C C"
_symmetry_group_IT_number 184
_symmetry_cell_setting 'hexagonal'
loop_
_space_group_symop_operation_xyz
x,y,z
x-y,x,z
-y,x-y,z
-x,-y,z
-x+y,-x,z
y,-x+y,z
-x+y,y,1/2+z
x,x-y,1/2+z
-y,-x,1/2+z
y,x,1/2+z
x-y,-y,1/2+z
-x,-x+y,1/2+z
loop_
_atom_site_type_symbol
_atom_site_label
_atom_site_fract_x
_atom_site_fract_y
_atom_site_fract_z
Si Si1 0.238820 0.325782 0.047600
Si Si2 0.722902 0.966163 0.718700
Si Si3 0.267147 0.817662 0.128480
Si Si4 0.122897 0.923095 0.385628
Si Si5 0.826403 0.338116 0.423974
Si Si6 0.633596 0.006181 0.383516
Si Si7 0.483866 0.674378 0.333020
O O1 0.219586 0.257619 0.137000
O O2 0.243626 0.412785 0.090184
O O3 0.164454 0.278943 0.964423
O O4 0.330869 0.354264 0.996617
O O5 0.633499 0.903915 0.665529
O O6 0.767321 0.915226 0.769800
O O7 0.708245 0.013034 0.813559
O O8 0.298387 0.779570 0.218509
O O9 0.337297 0.834297 0.043205
O O10 0.022291 0.868630 0.404988
O O11 0.782183 0.390842 0.380462
O O12 0.764548 0.238375 0.392919
O O13 0.921826 0.381287 0.378278
O O14 0.629192 0.087905 0.343410
#
# Coordination Sequence:
#
# PCOD8326586 Si02
#       7
#    12  12  12  12  12  12  12
#     4  11  20  39  69 100 129 179 246 307 351 425
#     4  10  21  38  65  98 130 177 235 305 356 416
#     4  11  23  41  69  99 133 178 233 283 363 421
#     4  11  24  38  60  93 144 194 245 304 373 439
#     4  12  24  46  70  98 149 184 229 295 353 447
#     4  10  22  41  69  99 137 177 237 299 352 423
#     4  11  26  45  67 106 140 188 232 288 364 435
#
# _framework density 22.518630999999999
#
# number of rings (size 3 to 8) (size 9 to 14) (size 15 to 20)
#    0.000    1.143    2.857    3.429    2.000    1.143 
#    2.571    1.429    0.000    1.714    0.000    0.000 
#    0.000    0.000    0.000    0.000    0.000    0.000 
#
# Total GULP energy -1041159.110086 kJ/mol
# GULP energy per Si atom -12394.751311 kJ/mol
# Density = 2.246738 g / cm^3
# Si number density = 22.518631 Si / 1000 Ang^3
#
#
#
# Elastic Constant Matrix: (Units=GPa)
#
#
# Indices 1 2 3 4 5 6 
#
# 1 93.0877 24.9352 41.7022 0.0000 0.0000 0.0000
# 2 24.9352 93.0877 41.7022 0.0000 0.0000 0.0000
# 3 41.7022 41.7022 144.7269 0.0000 0.0000 0.0000
# 4 0.0000 0.0000 0.0000 36.6160 0.0000 0.0000
# 5 0.0000 0.0000 0.0000 0.0000 36.6160 0.0000
# 6 0.0000 0.0000 0.0000 0.0000 0.0000 34.0763
#
#
#
# Elastic Compliance Matrix: (Units=1/GPa)
#
#
# Indices 1 2 3 4 5 6 
#
# 1 0.012656 -0.002017 -0.003066 0.000000 0.000000 0.000000
# 2 -0.002017 0.012656 -0.003066 0.000000 0.000000 0.000000
# 3 -0.003066 -0.003066 0.008676 0.000000 0.000000 0.000000
# 4 0.000000 0.000000 0.000000 0.027310 0.000000 0.000000
# 5 0.000000 0.000000 0.000000 0.000000 0.027310 0.000000
# 6 0.000000 0.000000 0.000000 0.000000 0.000000 0.029346
#
#
# Mechanical properties :
#
#
# Convention : Reuss Voigt Hill
#
# Bulk Modulus (GPa) = 56.52162 60.84237 58.68199
# Shear Modulus (GPa) = 35.67625 36.29916 35.98771
#
# Velocity S-wave (km/s) = 3.98464 4.01928 4.00200
# Velocity P-wave (km/s) = 6.80619 6.97258 6.88989
#
# Compressibility (1/GPa) = 0.01769235
#
# Stress axis : x y z
#
# Youngs Moduli (GPa) = 79.01282 79.01282 115.25684
#
# Poissons Ratio (x) = 0.15935 0.35334
# Poissons Ratio (y) = 0.15935 0.35334
# Poissons Ratio (z) = 0.24223 0.24223
#
# Static dielectric constant tensor:
#      x y z
#    x 3.820400 0.000000 0.000000 
#    y 0.000000 3.820400 0.000000 
#    z 0.000000 0.000000 4.448790 
# 
# 
# High freq. dielectric constant tensor:
#      x y z
#    x 1.874080 0.000000 0.000000 
#    y 0.000000 1.874080 0.000000 
#    z 0.000000 0.000000 1.903590 
# 
# From -- ./inp_files/655.got.cif
#   From: 2010.03.12/outbox.cif.g09.slc.cpg/sg184_cif.got.tgz:655.got - 2010.04.01 11:54:36.
