data_PCOD8326190
_publ_section_title
;
Structure prediction by ZEFSAII (Michael W. Deem and Ramdas Pophale) SiO2 
 PCOD8326190
Probable space group: P 62 2 2
;
_chemical_formula_sum "Si O2"
_cell_formula_units_Z 39
_cell_length_a 9.309006
_cell_length_b 9.309006
_cell_length_c 25.216426
_cell_angle_alpha 90.000000
_cell_angle_beta 90.000000
_cell_angle_gamma 120.000000
_cell_volume 1892.434186
_symmetry_space_group_name_H-M "P 62 2 2"
_symmetry_group_IT_number 180
_symmetry_cell_setting 'hexagonal'
loop_
_space_group_symop_operation_xyz
x,y,z
x-y,x,1/3+z
-y,x-y,2/3+z
-x,-y,z
-x+y,-x,1/3+z
y,-x+y,2/3+z
x-y,-y,-z
-x,-x+y,1/3-z
y,x,2/3-z
-y,-x,2/3-z
-x+y,y,-z
x,x-y,1/3-z
loop_
_atom_site_type_symbol
_atom_site_label
_atom_site_fract_x
_atom_site_fract_y
_atom_site_fract_z
Si Si1 0.541256 0.761816 0.921439
Si Si2 0.060676 0.256346 0.841999
Si Si3 0.587166 0.749321 0.727118
Si Si4 0.500000 0.500000 0.333334
O O1 0.591878 0.862671 0.866174
O O2 0.669693 0.704037 0.938666
O O3 0.364089 0.596002 0.915337
O O4 0.544299 0.884099 0.965736
O O5 0.154575 0.154575 0.833334
O O6 0.088028 0.328078 0.901967
O O7 0.863583 0.136418 0.833334
O O8 0.571611 0.785806 0.666667
#
# Coordination Sequence:
#
# PCOD8326190 Si02
#       4
#    12  12  12   3
#     4  10  22  39  59  85 128 167 200 259 312 380
#     4   9  19  37  61  92 121 153 206 260 309 360
#     4  10  20  39  65  89 115 165 215 251 309 384
#     4  12  24  40  54  92 132 166 204 258 326 368
#
# _framework density 20.608378999999999
#
# number of rings (size 3 to 8) (size 9 to 14) (size 15 to 20)
#    0.000    2.154    1.538    0.923    4.308    3.692 
#    0.000    6.154    0.000    0.000    0.000    0.000 
#    0.000    0.000    0.000    0.000    0.000    0.000 
#
# Total GULP energy -483482.749711 kJ/mol
# GULP energy per Si atom -12396.993582 kJ/mol
# Density = 2.056147 g / cm^3
# Si number density = 20.608379 Si / 1000 Ang^3
#
#
#
# Elastic Constant Matrix: (Units=GPa)
#
#
# Indices 1 2 3 4 5 6 
#
# 1 89.6379 56.9616 66.1613 0.0000 0.0000 0.0000
# 2 56.9616 89.6379 66.1613 0.0000 0.0000 0.0000
# 3 66.1613 66.1613 178.8979 0.0000 0.0000 0.0000
# 4 0.0000 0.0000 0.0000 33.9893 0.0000 0.0000
# 5 0.0000 0.0000 0.0000 0.0000 33.9893 0.0000
# 6 0.0000 0.0000 0.0000 0.0000 0.0000 16.3382
#
#
#
# Elastic Compliance Matrix: (Units=1/GPa)
#
#
# Indices 1 2 3 4 5 6 
#
# 1 0.020421 -0.010182 -0.003787 0.000000 0.000000 0.000000
# 2 -0.010182 0.020421 -0.003787 0.000000 0.000000 0.000000
# 3 -0.003787 -0.003787 0.008391 0.000000 0.000000 0.000000
# 4 0.000000 0.000000 0.000000 0.029421 0.000000 0.000000
# 5 0.000000 0.000000 0.000000 0.000000 0.029421 0.000000
# 6 0.000000 0.000000 0.000000 0.000000 0.000000 0.061206
#
#
# Mechanical properties :
#
#
# Convention : Reuss Voigt Hill
#
# Bulk Modulus (GPa) = 72.87464 81.86020 77.36742
# Shear Modulus (GPa) = 23.88154 28.12264 26.00209
#
# Velocity S-wave (km/s) = 3.40785 3.69809 3.55593
# Velocity P-wave (km/s) = 7.13603 7.61856 7.38124
#
# Compressibility (1/GPa) = 0.01372219
#
# Stress axis : x y z
#
# Youngs Moduli (GPa) = 48.96862 48.96862 119.17993
#
# Poissons Ratio (x) = 0.49860 0.45131
# Poissons Ratio (y) = 0.49860 0.45131
# Poissons Ratio (z) = 0.18543 0.18543
#
# Static dielectric constant tensor:
#      x y z
#    x 3.761110 0.000000 0.000000 
#    y 0.000000 3.761110 0.000000 
#    z 0.000000 0.000000 3.860020 
# 
# 
# High freq. dielectric constant tensor:
#      x y z
#    x 1.797030 0.000000 0.000000 
#    y 0.000000 1.797030 0.000000 
#    z 0.000000 0.000000 1.815840 
# 
# From -- ./inp_files/11806.got.cif
#   From: 2010.03.12/outbox.cif.g09.slc.cpg/sg180_6_cif.got.tgz:11806.got - 2010.04.01 11:35:50.
