data_PCOD8326800
_publ_section_title
;
Structure prediction by ZEFSAII (Michael W. Deem and Ramdas Pophale) SiO2 
 PCOD8326800
Probable space group: P 63 M C
;
_chemical_formula_sum "Si O2"
_cell_formula_units_Z 84
_cell_length_a 17.991123
_cell_length_b 17.991123
_cell_length_c 14.917506
_cell_angle_alpha 90.000000
_cell_angle_beta 90.000000
_cell_angle_gamma 120.000000
_cell_volume 4181.608774
_symmetry_space_group_name_H-M "P 63 M C"
_symmetry_group_IT_number 186
_symmetry_cell_setting 'hexagonal'
loop_
_space_group_symop_operation_xyz
x,y,z
x-y,x,1/2+z
-y,x-y,z
-x,-y,1/2+z
-x+y,-x,z
y,-x+y,1/2+z
-x+y,y,z
x,x-y,z
-y,-x,z
y,x,1/2+z
x-y,-y,1/2+z
-x,-x+y,1/2+z
loop_
_atom_site_type_symbol
_atom_site_label
_atom_site_fract_x
_atom_site_fract_y
_atom_site_fract_z
Si Si1 0.641224 0.907966 0.363110
Si Si2 0.666965 0.172279 0.457178
Si Si3 0.986961 0.405388 0.008152
Si Si4 0.505027 0.332767 0.250605
Si Si5 0.999495 0.829525 0.629341
Si Si6 0.167757 0.999621 0.919066
Si Si7 0.329842 0.989024 0.697829
O O1 0.619607 0.809804 0.361230
O O2 0.589438 0.916249 0.448047
O O3 0.743107 0.974243 0.370905
O O4 0.614233 0.933402 0.268583
O O5 0.589571 0.179141 0.505122
O O6 0.757888 0.242113 0.501023
O O7 0.666465 0.192672 0.353933
O O8 0.652239 0.077737 0.467867
O O9 0.969449 0.484725 0.000679
O O10 0.991789 0.383141 0.110800
O O11 0.516578 0.258289 0.202529
O O12 0.574148 0.425853 0.208449
O O13 0.406865 0.307494 0.244256
O O14 0.912290 0.824579 0.664193
O O15 0.995862 0.813692 0.524097
O O16 0.010648 0.756513 0.676114
O O17 0.078130 0.921871 0.656211
O O18 0.138741 0.069371 0.899043
O O19 0.092800 0.907200 0.883684
#
# Coordination Sequence:
#
# PCOD8326800 Si02
#       7
#    12  12  12  12  12  12  12
#     4  11  24  42  62  89 127 170 213 260 319 382
#     4   9  18  34  58  88 119 150 184 231 296 368
#     4  11  24  42  65  90 120 160 207 259 319 382
#     4  10  20  35  58  88 121 153 189 240 306 376
#     4  10  20  35  56  84 122 166 212 257 303 355
#     4   9  18  34  57  86 122 166 211 252 291 341
#     4  12  23  38  60  91 122 163 212 265 315 374
#
# _framework density 20.087962000000001
#
# number of rings (size 3 to 8) (size 9 to 14) (size 15 to 20)
#    0.000    1.714    2.857    1.857    0.000    6.286 
#    0.000    0.000    0.000    2.000    0.000    1.000 
#    0.000    0.000    0.000    0.000    0.000    0.000 
#
# Total GULP energy -1041164.852031 kJ/mol
# GULP energy per Si atom -12394.819667 kJ/mol
# Density = 2.004224 g / cm^3
# Si number density = 20.087962 Si / 1000 Ang^3
#
#
#
# Elastic Constant Matrix: (Units=GPa)
#
#
# Indices 1 2 3 4 5 6 
#
# 1 84.9677 55.8504 25.9893 0.0000 0.0000 0.0000
# 2 55.8504 84.9677 25.9893 0.0000 0.0000 0.0000
# 3 25.9893 25.9893 82.8171 0.0000 0.0000 0.0000
# 4 0.0000 0.0000 0.0000 14.1376 0.0000 0.0000
# 5 0.0000 0.0000 0.0000 0.0000 14.1376 0.0000
# 6 0.0000 0.0000 0.0000 0.0000 0.0000 14.5587
#
#
#
# Elastic Compliance Matrix: (Units=1/GPa)
#
#
# Indices 1 2 3 4 5 6 
#
# 1 0.021188 -0.013156 -0.002520 0.000000 0.000000 0.000000
# 2 -0.013156 0.021188 -0.002520 0.000000 0.000000 0.000000
# 3 -0.002520 -0.002520 0.013657 0.000000 0.000000 0.000000
# 4 0.000000 0.000000 0.000000 0.070733 0.000000 0.000000
# 5 0.000000 0.000000 0.000000 0.000000 0.070733 0.000000
# 6 0.000000 0.000000 0.000000 0.000000 0.000000 0.068688
#
#
# Mechanical properties :
#
#
# Convention : Reuss Voigt Hill
#
# Bulk Modulus (GPa) = 50.92102 52.04560 51.48331
# Shear Modulus (GPa) = 16.17458 18.22833 17.20145
#
# Velocity S-wave (km/s) = 2.84066 3.01562 2.92945
# Velocity P-wave (km/s) = 6.01358 6.17174 6.09318
#
# Compressibility (1/GPa) = 0.01963826
#
# Stress axis : x y z
#
# Youngs Moduli (GPa) = 47.19702 47.19702 73.22391
#
# Poissons Ratio (x) = 0.62093 0.18456
# Poissons Ratio (y) = 0.62093 0.18456
# Poissons Ratio (z) = 0.11896 0.11896
#
# Static dielectric constant tensor:
#      x y z
#    x 3.786060 0.000000 0.000000 
#    y 0.000000 3.786060 0.000000 
#    z 0.000000 0.000000 3.706120 
# 
# 
# High freq. dielectric constant tensor:
#      x y z
#    x 1.783390 0.000000 0.000000 
#    y 0.000000 1.783390 0.000000 
#    z 0.000000 0.000000 1.769920 
# 
# From -- ./inp_files/2547.got.cif
#   From: 2010.03.12/outbox.cif.g09.slc.cpg/sg186_2_cif.got.tgz:2547.got - 2010.04.01 11:56:34.
