data_PCOD8326167
_publ_section_title
;
Structure prediction by ZEFSAII (Michael W. Deem and Ramdas Pophale) SiO2 
 PCOD8326167
Probable space group: P 62 2 2
;
_chemical_formula_sum "Si O2"
_cell_formula_units_Z 48
_cell_length_a 18.349975
_cell_length_b 18.349975
_cell_length_c 12.421751
_cell_angle_alpha 90.000000
_cell_angle_beta 90.000000
_cell_angle_gamma 120.000000
_cell_volume 3622.299908
_symmetry_space_group_name_H-M "P 62 2 2"
_symmetry_group_IT_number 180
_symmetry_cell_setting 'hexagonal'
loop_
_space_group_symop_operation_xyz
x,y,z
x-y,x,1/3+z
-y,x-y,2/3+z
-x,-y,z
-x+y,-x,1/3+z
y,-x+y,2/3+z
x-y,-y,-z
-x,-x+y,1/3-z
y,x,2/3-z
-y,-x,2/3-z
-x+y,y,-z
x,x-y,1/3-z
loop_
_atom_site_type_symbol
_atom_site_label
_atom_site_fract_x
_atom_site_fract_y
_atom_site_fract_z
Si Si1 0.613862 0.534681 0.771804
Si Si2 0.619346 0.309673 0.166667
Si Si3 0.465795 0.081122 0.942037
Si Si4 0.500000 0.000000 0.247701
Si Si5 0.259727 0.738787 0.052169
O O1 0.614314 0.614314 0.833334
O O2 0.549500 0.450501 0.833334
O O3 0.583106 0.527607 0.650177
O O4 0.701886 0.535946 0.767243
O O5 0.560901 0.259709 0.269155
O O6 0.679589 0.272316 0.136499
O O7 0.476295 0.059800 0.820081
O O8 0.453628 0.161478 0.953921
O O9 0.553180 0.106359 0.000000
O O10 0.388643 0.000000 0.000000
#
# Coordination Sequence:
#
# PCOD8326167 Si02
#       5
#    12   6  12   6  12
#     4   9  18  29  39  55  74 106 132 162 204 245
#     4  10  20  24  41  62  74 100 134 178 207 226
#     4   9  17  27  38  56  75 100 131 166 207 237
#     4   8  16  30  40  50  80 102 126 164 200 236
#     4  11  18  30  40  58  81  99 139 175 205 237
#
# _framework density 13.251249
#
# number of rings (size 3 to 8) (size 9 to 14) (size 15 to 20)
#    0.000    3.000    3.750    1.500    3.500    0.000 
#    0.000    0.000    0.000    0.000    0.000    0.000 
#    0.000    0.000    0.000    0.000    0.000   12.500 
#
# Total GULP energy -594668.479088 kJ/mol
# GULP energy per Si atom -12388.926648 kJ/mol
# Density = 1.322109 g / cm^3
# Si number density = 13.251249 Si / 1000 Ang^3
#
#
#
# Elastic Constant Matrix: (Units=GPa)
#
#
# Indices 1 2 3 4 5 6 
#
# 1 85.6814 38.2248 29.2669 0.0000 0.0000 0.0000
# 2 38.2248 85.6814 29.2669 0.0000 0.0000 0.0000
# 3 29.2669 29.2669 88.1157 0.0000 0.0000 0.0000
# 4 0.0000 0.0000 0.0000 7.6965 0.0000 0.0000
# 5 0.0000 0.0000 0.0000 0.0000 7.6965 0.0000
# 6 0.0000 0.0000 0.0000 0.0000 0.0000 23.7283
#
#
#
# Elastic Compliance Matrix: (Units=1/GPa)
#
#
# Indices 1 2 3 4 5 6 
#
# 1 0.015322 -0.005750 -0.003179 0.000000 0.000000 0.000000
# 2 -0.005750 0.015322 -0.003179 0.000000 0.000000 0.000000
# 3 -0.003179 -0.003179 0.013461 0.000000 0.000000 0.000000
# 4 0.000000 0.000000 0.000000 0.129929 0.000000 0.000000
# 5 0.000000 0.000000 0.000000 0.000000 0.129929 0.000000
# 6 0.000000 0.000000 0.000000 0.000000 0.000000 0.042144
#
#
# Mechanical properties :
#
#
# Convention : Reuss Voigt Hill
#
# Bulk Modulus (GPa) = 50.28119 50.33285 50.30702
# Shear Modulus (GPa) = 13.26420 18.67224 15.96822
#
# Velocity S-wave (km/s) = 3.16725 3.75786 3.47513
# Velocity P-wave (km/s) = 7.16953 7.54285 7.35856
#
# Compressibility (1/GPa) = 0.01988815
#
# Stress axis : x y z
#
# Youngs Moduli (GPa) = 65.26453 65.26453 74.28992
#
# Poissons Ratio (x) = 0.37525 0.23620
# Poissons Ratio (y) = 0.37525 0.23620
# Poissons Ratio (z) = 0.20751 0.20751
#
# Static dielectric constant tensor:
#      x y z
#    x 2.536710 0.000000 0.000000 
#    y 0.000000 2.536710 0.000000 
#    z 0.000000 0.000000 2.680060 
# 
# 
# High freq. dielectric constant tensor:
#      x y z
#    x 1.469480 0.000000 0.000000 
#    y 0.000000 1.469480 0.000000 
#    z 0.000000 0.000000 1.523540 
# 
# From -- ./inp_files/4633.got.cif
#   From: 2010.03.12/outbox.cif.g09.slc.cpg/sg180_3_cif.got.tgz:4633.got - 2010.04.01 11:35:50.
