data_PCOD8326001
_publ_section_title
;
Structure prediction by ZEFSAII (Michael W. Deem and Ramdas Pophale) SiO2 
 PCOD8326001
Probable space group: P 61 2 2
;
_chemical_formula_sum "Si O2"
_cell_formula_units_Z 30
_cell_length_a 17.414221
_cell_length_b 17.414221
_cell_length_c 4.717794
_cell_angle_alpha 90.000000
_cell_angle_beta 90.000000
_cell_angle_gamma 120.000000
_cell_volume 1239.018266
_symmetry_space_group_name_H-M "P 61 2 2"
_symmetry_group_IT_number 178
_symmetry_cell_setting 'hexagonal'
loop_
_space_group_symop_operation_xyz
x,y,z
x-y,x,1/6+z
-y,x-y,1/3+z
-x,-y,1/2+z
-x+y,-x,2/3+z
y,-x+y,5/6+z
x-y,-y,-z
-x,-x+y,2/3-z
y,x,1/3-z
-y,-x,5/6-z
-x+y,y,1/2-z
x,x-y,1/6-z
loop_
_atom_site_type_symbol
_atom_site_label
_atom_site_fract_x
_atom_site_fract_y
_atom_site_fract_z
Si Si1 0.369231 0.000000 0.500000
Si Si2 0.883675 0.441838 0.583334
Si Si3 0.914392 0.192145 0.172950
Si Si4 0.233697 0.616849 0.583334
O O1 0.455532 0.061365 0.320370
O O2 0.347407 0.059510 0.710950
O O3 0.827144 0.377713 0.325846
O O4 0.838201 0.161800 0.416667
O O5 0.000000 0.198021 0.333334
O O6 0.879584 0.120417 0.916667
O O7 0.290852 0.581703 0.750000
#
# Coordination Sequence:
#
# PCOD8326001 Si02
#       4
#     6   6  12   6
#     4  12  30  52  78 122 156 226 266 338 432 468
#     4  12  29  48  80 106 174 206 282 340 398 493
#     4  12  26  51  83 123 158 202 268 333 403 497
#     4  12  25  54  74 112 152 220 282 330 400 469
#
# _framework density 24.212719
#
# number of rings (size 3 to 8) (size 9 to 14) (size 15 to 20)
#    0.000    0.000    6.000    1.200    8.400    1.600 
#   10.800    0.000    0.000    2.400    5.200    0.000 
#    0.000    0.000    0.000    0.000    0.000    0.000 
#
# Total GULP energy -371680.690909 kJ/mol
# GULP energy per Si atom -12389.356364 kJ/mol
# Density = 2.415761 g / cm^3
# Si number density = 24.212719 Si / 1000 Ang^3
#
#
#
# Elastic Constant Matrix: (Units=GPa)
#
#
# Indices 1 2 3 4 5 6 
#
# 1 166.0497 79.3909 106.4839 0.0000 0.0000 0.0000
# 2 79.3909 166.0497 106.4839 0.0000 0.0000 0.0000
# 3 106.4839 106.4839 238.6973 0.0000 0.0000 0.0000
# 4 0.0000 0.0000 0.0000 72.5896 0.0000 0.0000
# 5 0.0000 0.0000 0.0000 0.0000 72.5896 0.0000
# 6 0.0000 0.0000 0.0000 0.0000 0.0000 43.3294
#
#
#
# Elastic Compliance Matrix: (Units=1/GPa)
#
#
# Indices 1 2 3 4 5 6 
#
# 1 0.009093 -0.002446 -0.002965 0.000000 0.000000 0.000000
# 2 -0.002446 0.009093 -0.002965 0.000000 0.000000 0.000000
# 3 -0.002965 -0.002965 0.006835 0.000000 0.000000 0.000000
# 4 0.000000 0.000000 0.000000 0.013776 0.000000 0.000000
# 5 0.000000 0.000000 0.000000 0.000000 0.013776 0.000000
# 6 0.000000 0.000000 0.000000 0.000000 0.000000 0.023079
#
#
# Mechanical properties :
#
#
# Convention : Reuss Voigt Hill
#
# Bulk Modulus (GPa) = 120.94448 128.39047 124.66748
# Shear Modulus (GPa) = 52.54129 56.26424 54.40277
#
# Velocity S-wave (km/s) = 4.66337 4.82576 4.74526
# Velocity P-wave (km/s) = 8.89130 9.17560 9.03457
#
# Compressibility (1/GPa) = 0.00826826
#
# Stress axis : x y z
#
# Youngs Moduli (GPa) = 109.96913 109.96913 146.30161
#
# Poissons Ratio (x) = 0.26899 0.43385
# Poissons Ratio (y) = 0.26899 0.43385
# Poissons Ratio (z) = 0.32611 0.32611
#
# Static dielectric constant tensor:
#      x y z
#    x 4.348230 0.000000 0.000000 
#    y 0.000000 4.348230 0.000000 
#    z 0.000000 0.000000 5.216950 
# 
# 
# High freq. dielectric constant tensor:
#      x y z
#    x 1.947140 0.000000 0.000000 
#    y 0.000000 1.947140 0.000000 
#    z 0.000000 0.000000 2.009980 
# 
# From -- ./inp_files/355.got.cif
#   From: 2010.03.12/outbox.cif.g09.slc.cpg/sg178_1_cif.got.tgz:355.got - 2010.04.02 07:02:38.
