data_PCOD8326898
_publ_section_title
;
Structure prediction by ZEFSAII (Michael W. Deem and Ramdas Pophale) SiO2 
 PCOD8326898
Probable space group: P -6 M 2
;
_chemical_formula_sum "Si O2"
_cell_formula_units_Z 72
_cell_length_a 23.788249
_cell_length_b 23.788249
_cell_length_c 9.463773
_cell_angle_alpha 90.000000
_cell_angle_beta 90.000000
_cell_angle_gamma 120.000000
_cell_volume 4637.884168
_symmetry_space_group_name_H-M "P -6 M 2"
_symmetry_group_IT_number 187
_symmetry_cell_setting 'hexagonal'
loop_
_space_group_symop_operation_xyz
x,y,z
-x+y,-x,-z
-y,x-y,z
x,y,-z
-x+y,-x,z
-y,x-y,-z
-y,-x,-z
-x+y,y,-z
x,x-y,-z
-x+y,y,z
x,x-y,z
-y,-x,z
loop_
_atom_site_type_symbol
_atom_site_label
_atom_site_fract_x
_atom_site_fract_y
_atom_site_fract_z
Si Si1 0.262799 0.194054 0.163021
Si Si2 0.233055 0.891054 0.657891
Si Si3 0.657702 0.996480 0.832835
Si Si4 0.542622 0.333033 0.667864
Si Si5 0.598076 0.533550 0.663427
Si Si6 0.155595 0.188076 0.341988
O O1 0.291470 0.145735 0.191826
O O2 0.314582 0.267363 0.211745
O O3 0.193572 0.164087 0.241523
O O4 0.246836 0.195422 0.000000
O O5 0.261609 0.895256 0.500000
O O6 0.184457 0.815543 0.699179
O O7 0.192876 0.927782 0.658516
O O8 0.290294 0.924609 0.772527
O O9 0.610091 0.017846 0.763444
O O10 0.648110 0.992149 0.000000
O O11 0.546572 0.333687 0.500000
O O12 0.525480 0.262740 0.729115
O O13 0.612567 0.387434 0.727659
O O14 0.488067 0.350389 0.713067
O O15 0.609431 0.555729 0.500000
O O16 0.525120 0.474881 0.685368
O O17 0.154628 0.162299 0.500000
O O18 0.081286 0.162572 0.290479
#
# Coordination Sequence:
#
# PCOD8326898 Si02
#       6
#    12  12  12  12  12  12
#     4   9  18  30  41  57  83 111 139 173 214 260
#     4   8  14  26  44  64  85 107 129 156 194 239
#     4  10  19  29  43  62  84 112 143 175 211 251
#     4   8  13  22  38  59  79  99 130 179 236 284
#     4   9  18  31  44  59  82 112 145 180 218 264
#     4   8  14  25  41  60  79  99 127 163 201 242
#
# _framework density 15.524319999999999
#
# number of rings (size 3 to 8) (size 9 to 14) (size 15 to 20)
#    0.000    3.333    0.000    2.667    0.000    3.333 
#    0.000    3.333    0.000    0.333    0.000    0.000 
#    0.000    1.333    0.000    0.500    0.000    9.667 
#
# Total GULP energy -892151.590138 kJ/mol
# GULP energy per Si atom -12390.994307 kJ/mol
# Density = 1.548899 g / cm^3
# Si number density = 15.524320 Si / 1000 Ang^3
#
#
#
# Elastic Constant Matrix: (Units=GPa)
#
#
# Indices 1 2 3 4 5 6 
#
# 1 71.1176 41.1139 40.1932 0.0000 -0.0001 0.0000
# 2 41.1139 71.1176 40.1932 0.0000 0.0001 0.0000
# 3 40.1932 40.1932 64.4970 0.0000 0.0000 0.0000
# 4 0.0000 0.0000 0.0000 17.6415 0.0000 0.0001
# 5 -0.0001 0.0001 0.0000 0.0000 17.6415 0.0000
# 6 0.0000 0.0000 0.0000 0.0001 0.0000 15.0019
#
#
#
# Elastic Compliance Matrix: (Units=1/GPa)
#
#
# Indices 1 2 3 4 5 6 
#
# 1 0.024711 -0.008618 -0.010029 0.000000 0.000000 0.000000
# 2 -0.008618 0.024711 -0.010029 0.000000 0.000000 0.000000
# 3 -0.010029 -0.010029 0.028005 0.000000 0.000000 0.000000
# 4 0.000000 0.000000 0.000000 0.056685 0.000000 0.000000
# 5 0.000000 0.000000 0.000000 0.000000 0.056685 0.000000
# 6 0.000000 0.000000 0.000000 0.000000 0.000000 0.066658
#
#
# Mechanical properties :
#
#
# Convention : Reuss Voigt Hill
#
# Bulk Modulus (GPa) = 49.81323 49.97032 49.89177
# Shear Modulus (GPa) = 15.55214 15.73910 15.64562
#
# Velocity S-wave (km/s) = 3.16854 3.18753 3.17805
# Velocity P-wave (km/s) = 6.74856 6.76797 6.75827
#
# Compressibility (1/GPa) = 0.02007499
#
# Stress axis : x y z
#
# Youngs Moduli (GPa) = 40.46712 40.46712 35.70841
#
# Poissons Ratio (x) = 0.34874 0.35813
# Poissons Ratio (y) = 0.34874 0.35813
# Poissons Ratio (z) = 0.40585 0.40585
#
# Static dielectric constant tensor:
#      x y z
#    x 2.944740 0.000000 0.000000 
#    y 0.000000 2.944740 0.000000 
#    z 0.000000 0.000000 2.870570 
# 
# 
# High freq. dielectric constant tensor:
#      x y z
#    x 1.571190 0.000000 0.000000 
#    y 0.000000 1.571190 0.000000 
#    z 0.000000 0.000000 1.581470 
# 
# From -- ./inp_files/922.got.cif
#   From: 2010.03.12/outbox.cif.g09.slc.cpg/sg187_1_cif.got.tgz:922.got - 2010.04.01 11:58:23.
