data_PCOD8326994
_publ_section_title
;
Structure prediction by ZEFSAII (Michael W. Deem and Ramdas Pophale) SiO2 
 PCOD8326994
Probable space group: P -6 M 2
;
_chemical_formula_sum "Si O2"
_cell_formula_units_Z 60
_cell_length_a 18.111846
_cell_length_b 18.111846
_cell_length_c 11.809558
_cell_angle_alpha 90.000000
_cell_angle_beta 90.000000
_cell_angle_gamma 120.000000
_cell_volume 3354.978248
_symmetry_space_group_name_H-M "P -6 M 2"
_symmetry_group_IT_number 187
_symmetry_cell_setting 'hexagonal'
loop_
_space_group_symop_operation_xyz
x,y,z
-x+y,-x,-z
-y,x-y,z
x,y,-z
-x+y,-x,z
-y,x-y,-z
-y,-x,-z
-x+y,y,-z
x,x-y,-z
-x+y,y,z
x,x-y,z
-y,-x,z
loop_
_atom_site_type_symbol
_atom_site_label
_atom_site_fract_x
_atom_site_fract_y
_atom_site_fract_z
Si Si1 0.009576 0.586966 0.249384
Si Si2 0.825809 0.998603 0.792214
Si Si3 0.076261 0.754083 0.373115
Si Si4 0.942668 0.713553 0.000000
Si Si5 0.597565 0.562805 0.000000
Si Si6 0.497233 0.333526 0.630170
O O1 0.029215 0.514608 0.296487
O O2 0.074114 0.676751 0.304212
O O3 0.021932 0.593897 0.113576
O O4 0.913434 0.561904 0.285739
O O5 0.915464 0.084537 0.779381
O O6 0.843835 0.921918 0.819230
O O7 0.772189 0.982386 0.677741
O O8 0.765643 0.002613 0.890010
O O9 0.043017 0.724387 0.500000
O O10 0.174271 0.825730 0.370543
O O11 0.860360 0.720719 0.000000
O O12 0.912086 0.612494 0.000000
O O13 0.542778 0.457223 0.000000
O O14 0.469297 0.333110 0.500000
O O15 0.485157 0.242579 0.665030
O O16 0.595953 0.404048 0.646768
#
# Coordination Sequence:
#
# PCOD8326994 Si02
#       6
#    12  12  12   6   6  12
#     4  10  20  35  55  77 102 133 171 214 261 314
#     4  10  20  34  53  78 109 145 185 228 271 316
#     4  10  21  36  54  78 107 138 174 217 265 319
#     4  10  19  33  54  78 106 143 183 222 269 318
#     4  10  20  35  54  78 104 131 169 216 262 312
#     4   9  17  29  47  72 101 134 171 211 253 296
#
# _framework density 17.883870999999999
#
# number of rings (size 3 to 8) (size 9 to 14) (size 15 to 20)
#    0.000    2.200    2.000    1.300    0.000    4.000 
#    0.000    1.500    0.000    1.800    0.000    0.000 
#    0.000    0.000    0.000    0.000    0.000    0.000 
#
# Total GULP energy -743671.815922 kJ/mol
# GULP energy per Si atom -12394.530265 kJ/mol
# Density = 1.784317 g / cm^3
# Si number density = 17.883871 Si / 1000 Ang^3
#
#
#
# Elastic Constant Matrix: (Units=GPa)
#
#
# Indices 1 2 3 4 5 6 
#
# 1 87.5873 37.5198 41.6535 0.0000 0.0000 0.0000
# 2 37.5198 87.5873 41.6535 0.0000 0.0000 0.0000
# 3 41.6535 41.6535 121.8414 0.0000 0.0000 0.0000
# 4 0.0000 0.0000 0.0000 21.8443 0.0000 0.0000
# 5 0.0000 0.0000 0.0000 0.0000 21.8443 0.0000
# 6 0.0000 0.0000 0.0000 0.0000 0.0000 25.0337
#
#
#
# Elastic Compliance Matrix: (Units=1/GPa)
#
#
# Indices 1 2 3 4 5 6 
#
# 1 0.015161 -0.004812 -0.003538 0.000000 0.000000 0.000000
# 2 -0.004812 0.015161 -0.003538 0.000000 0.000000 0.000000
# 3 -0.003538 -0.003538 0.010626 0.000000 0.000000 0.000000
# 4 0.000000 0.000000 0.000000 0.045779 0.000000 0.000000
# 5 0.000000 0.000000 0.000000 0.000000 0.045779 0.000000
# 6 0.000000 0.000000 0.000000 0.000000 0.000000 0.039946
#
#
# Mechanical properties :
#
#
# Convention : Reuss Voigt Hill
#
# Bulk Modulus (GPa) = 58.23242 59.85217 59.04230
# Shear Modulus (GPa) = 24.75838 25.49041 25.12439
#
# Velocity S-wave (km/s) = 3.72479 3.77945 3.75222
# Velocity P-wave (km/s) = 7.15058 7.25158 7.20126
#
# Compressibility (1/GPa) = 0.01717256
#
# Stress axis : x y z
#
# Youngs Moduli (GPa) = 65.95849 65.95849 94.10495
#
# Poissons Ratio (x) = 0.31739 0.33294
# Poissons Ratio (y) = 0.31739 0.33294
# Poissons Ratio (z) = 0.23336 0.23336
#
# Static dielectric constant tensor:
#      x y z
#    x 3.243670 0.000000 0.000000 
#    y 0.000000 3.243670 0.000000 
#    z 0.000000 0.000000 3.626190 
# 
# 
# High freq. dielectric constant tensor:
#      x y z
#    x 1.678090 0.000000 0.000000 
#    y 0.000000 1.678090 0.000000 
#    z 0.000000 0.000000 1.704520 
# 
# From -- ./inp_files/1682.got.cif
#   From: 2010.03.12/outbox.cif.g09.slc.cpg/sg187_1_cif.got.tgz:1682.got - 2010.04.01 11:58:23.
