data_PCOD8326943
_publ_section_title
;
Structure prediction by ZEFSAII (Michael W. Deem and Ramdas Pophale) SiO2 
 PCOD8326943
Probable space group: P -6 M 2
;
_chemical_formula_sum "Si O2"
_cell_formula_units_Z 96
_cell_length_a 17.180698
_cell_length_b 17.180698
_cell_length_c 23.547830
_cell_angle_alpha 90.000000
_cell_angle_beta 90.000000
_cell_angle_gamma 120.000000
_cell_volume 6019.537598
_symmetry_space_group_name_H-M "P -6 M 2"
_symmetry_group_IT_number 187
_symmetry_cell_setting 'hexagonal'
loop_
_space_group_symop_operation_xyz
x,y,z
-x+y,-x,-z
-y,x-y,z
x,y,-z
-x+y,-x,z
-y,x-y,-z
-y,-x,-z
-x+y,y,-z
x,x-y,-z
-x+y,y,z
x,x-y,z
-y,-x,z
loop_
_atom_site_type_symbol
_atom_site_label
_atom_site_fract_x
_atom_site_fract_y
_atom_site_fract_z
Si Si1 0.666043 0.510394 0.434517
Si Si2 0.333256 0.485188 0.064157
Si Si3 0.824000 0.821807 0.337982
Si Si4 0.236795 0.291348 0.561085
Si Si5 0.335067 0.850552 0.275175
Si Si6 0.819310 0.817103 0.210088
Si Si7 0.276164 0.907316 0.832720
Si Si8 0.394728 0.963747 0.613781
O O1 0.667105 0.540733 0.500000
O O2 0.763830 0.527660 0.416218
O O3 0.595334 0.404667 0.428386
O O4 0.637366 0.566122 0.392215
O O5 0.252972 0.505944 0.074272
O O6 0.424125 0.575876 0.077604
O O7 0.324775 0.407944 0.106921
O O8 0.331894 0.451666 0.000000
O O9 0.927513 0.855025 0.349359
O O10 0.764359 0.751295 0.387145
O O11 0.795810 0.781560 0.274944
O O12 0.808540 0.904270 0.344374
O O13 0.253581 0.258660 0.500000
O O14 0.139897 0.279794 0.560532
O O15 0.310514 0.395858 0.571106
O O16 0.410612 0.821223 0.271176
O O17 0.238424 0.761577 0.286901
O O18 0.336106 0.900823 0.217302
O O19 0.359374 0.925898 0.323259
O O20 0.908602 0.817204 0.188575
O O21 0.733525 0.744276 0.174032
O O22 0.837007 0.918504 0.205016
O O23 0.181228 0.818773 0.830998
O O24 0.469680 0.939360 0.594384
#
# Coordination Sequence:
#
# PCOD8326943 Si02
#       8
#    12  12  12  12  12  12  12  12
#     4   9  17  30  48  68  87 106 130 164 211 269
#     4   9  16  26  42  66  96 127 155 181 212 256
#     4   9  17  29  45  64  85 109 137 170 209 254
#     4  10  20  32  44  58  78 105 135 168 210 259
#     4  10  19  31  47  66  89 117 149 182 214 251
#     4   9  16  27  44  64  86 114 150 189 225 261
#     4   9  17  28  43  64  90 119 149 183 220 255
#     4  10  20  32  46  62  80 104 135 173 214 253
#
# _framework density 15.948067999999999
#
# number of rings (size 3 to 8) (size 9 to 14) (size 15 to 20)
#    0.000    2.625    0.000    2.500    0.000    5.500 
#    0.000    1.875    0.000    1.375    0.000    0.000 
#    0.000    1.000    0.000    3.000    0.000    1.750 
#
# Total GULP energy -1189506.955793 kJ/mol
# GULP energy per Si atom -12390.697456 kJ/mol
# Density = 1.591177 g / cm^3
# Si number density = 15.948068 Si / 1000 Ang^3
#
#
#
# Elastic Constant Matrix: (Units=GPa)
#
#
# Indices 1 2 3 4 5 6 
#
# 1 67.0767 25.8596 49.0820 0.0000 -0.0002 0.0000
# 2 25.8596 67.0767 49.0820 0.0000 0.0002 0.0000
# 3 49.0820 49.0820 101.4208 0.0000 0.0000 0.0000
# 4 0.0000 0.0000 0.0000 18.5176 0.0000 0.0002
# 5 -0.0002 0.0002 0.0000 0.0000 18.5176 0.0000
# 6 0.0000 0.0000 0.0000 0.0002 0.0000 20.6085
#
#
#
# Elastic Compliance Matrix: (Units=1/GPa)
#
#
# Indices 1 2 3 4 5 6 
#
# 1 0.023137 -0.001125 -0.010652 0.000000 0.000000 0.000000
# 2 -0.001125 0.023137 -0.010652 0.000000 0.000000 0.000000
# 3 -0.010652 -0.010652 0.020170 0.000000 0.000000 0.000000
# 4 0.000000 0.000000 0.000000 0.054003 0.000000 0.000000
# 5 0.000000 0.000000 0.000000 0.000000 0.054003 0.000000
# 6 0.000000 0.000000 0.000000 0.000000 0.000000 0.048524
#
#
# Mechanical properties :
#
#
# Convention : Reuss Voigt Hill
#
# Bulk Modulus (GPa) = 46.33078 53.73572 50.03325
# Shear Modulus (GPa) = 18.18002 18.96544 18.57273
#
# Velocity S-wave (km/s) = 3.37998 3.45222 3.41629
# Velocity P-wave (km/s) = 6.65931 7.04683 6.85581
#
# Compressibility (1/GPa) = 0.02158392
#
# Stress axis : x y z
#
# Youngs Moduli (GPa) = 43.22134 43.22134 49.57793
#
# Poissons Ratio (x) = 0.04863 0.52812
# Poissons Ratio (y) = 0.04863 0.52812
# Poissons Ratio (z) = 0.46041 0.46041
#
# Static dielectric constant tensor:
#      x y z
#    x 3.029930 0.000000 0.000000 
#    y 0.000000 3.029930 0.000000 
#    z 0.000000 0.000000 3.203250 
# 
# 
# High freq. dielectric constant tensor:
#      x y z
#    x 1.601800 0.000000 0.000000 
#    y 0.000000 1.601800 0.000000 
#    z 0.000000 0.000000 1.598300 
# 
# From -- ./inp_files/4068.got.cif
#   From: 2010.03.12/outbox.cif.g09.slc.cpg/sg187_3_cif.got.tgz:4068.got - 2010.04.01 11:58:23.
