data_PCOD8326096
_publ_section_title
;
Structure prediction by ZEFSAII (Michael W. Deem and Ramdas Pophale) SiO2 
 PCOD8326096
Probable space group: P 65 2 2
;
_chemical_formula_sum "Si O2"
_cell_formula_units_Z 84
_cell_length_a 17.891041
_cell_length_b 17.891041
_cell_length_c 14.136458
_cell_angle_alpha 90.000000
_cell_angle_beta 90.000000
_cell_angle_gamma 120.000000
_cell_volume 3918.704006
_symmetry_space_group_name_H-M "P 65 2 2"
_symmetry_group_IT_number 179
_symmetry_cell_setting 'hexagonal'
loop_
_space_group_symop_operation_xyz
x,y,z
x-y,x,5/6+z
-y,x-y,2/3+z
-x,-y,1/2+z
-x+y,-x,1/3+z
y,-x+y,1/6+z
x-y,-y,-z
-x,-x+y,1/3-z
y,x,2/3-z
-y,-x,1/6-z
-x+y,y,1/2-z
x,x-y,5/6-z
loop_
_atom_site_type_symbol
_atom_site_label
_atom_site_fract_x
_atom_site_fract_y
_atom_site_fract_z
Si Si1 0.012999 0.250102 0.901685
Si Si2 0.226323 0.097275 0.516554
Si Si3 0.643754 0.944462 0.094088
Si Si4 0.146286 0.551196 0.019326
Si Si5 0.519345 0.689990 0.348542
Si Si6 0.083876 0.290312 0.617766
Si Si7 0.268562 0.606355 0.516773
O O1 0.110847 0.277950 0.874422
O O2 0.968421 0.152868 0.944404
O O3 0.949911 0.244595 0.818725
O O4 0.003646 0.314839 0.975389
O O5 0.272107 0.136054 0.416667
O O6 0.303744 0.107256 0.583695
O O7 0.149602 0.000000 0.500000
O O8 0.543820 0.883131 0.110779
O O9 0.657589 0.000000 0.000000
O O10 0.117816 0.598394 0.097114
O O11 0.106608 0.553304 0.916667
O O12 0.248871 0.600382 0.013859
O O13 0.500422 0.750211 0.416667
O O14 0.620929 0.729021 0.336965
O O15 0.476161 0.677402 0.244678
O O16 0.000000 0.210367 0.666667
O O17 0.306909 0.693092 0.583334
O O18 0.226288 0.613144 0.416667
#
# Coordination Sequence:
#
# PCOD8326096 Si02
#       7
#    12  12  12  12  12  12  12
#     4  12  23  46  70 100 136 178 234 280 354 427
#     4  11  20  41  71 100 135 179 225 281 351 428
#     4  11  24  44  67  97 135 177 223 277 353 423
#     4  11  23  40  70  95 131 179 231 281 339 415
#     4  12  23  44  70  97 135 188 230 285 353 414
#     4  12  28  45  70  98 135 182 233 287 348 419
#     4  11  19  39  63  99 133 169 226 281 339 399
#
# _framework density 21.435659000000001
#
# number of rings (size 3 to 8) (size 9 to 14) (size 15 to 20)
#    0.000    0.571    8.571    2.143    2.000    0.571 
#    5.143    4.286    0.000    0.000    0.000    0.000 
#    0.000    0.000    0.000    0.000    0.000    0.000 
#
# Total GULP energy -1040816.375498 kJ/mol
# GULP energy per Si atom -12390.671137 kJ/mol
# Density = 2.138687 g / cm^3
# Si number density = 21.435659 Si / 1000 Ang^3
#
#
#
# Elastic Constant Matrix: (Units=GPa)
#
#
# Indices 1 2 3 4 5 6 
#
# 1 82.3100 49.7988 33.6337 0.0000 0.0000 0.0000
# 2 49.7988 82.3100 33.6337 0.0000 0.0000 0.0000
# 3 33.6337 33.6337 121.2203 0.0000 0.0000 0.0000
# 4 0.0000 0.0000 0.0000 32.1441 0.0000 0.0000
# 5 0.0000 0.0000 0.0000 0.0000 32.1441 0.0000
# 6 0.0000 0.0000 0.0000 0.0000 0.0000 16.2556
#
#
#
# Elastic Compliance Matrix: (Units=1/GPa)
#
#
# Indices 1 2 3 4 5 6 
#
# 1 0.019787 -0.010972 -0.002446 0.000000 0.000000 0.000000
# 2 -0.010972 0.019787 -0.002446 0.000000 0.000000 0.000000
# 3 -0.002446 -0.002446 0.009607 0.000000 0.000000 0.000000
# 4 0.000000 0.000000 0.000000 0.031110 0.000000 0.000000
# 5 0.000000 0.000000 0.000000 0.000000 0.031110 0.000000
# 6 0.000000 0.000000 0.000000 0.000000 0.000000 0.061517
#
#
# Mechanical properties :
#
#
# Convention : Reuss Voigt Hill
#
# Bulk Modulus (GPa) = 57.29575 57.77474 57.53524
# Shear Modulus (GPa) = 23.75727 27.36038 25.55882
#
# Velocity S-wave (km/s) = 3.33273 3.57654 3.45679
# Velocity P-wave (km/s) = 6.44955 6.63827 6.54459
#
# Compressibility (1/GPa) = 0.01745330
#
# Stress axis : x y z
#
# Youngs Moduli (GPa) = 50.53885 50.53885 104.09469
#
# Poissons Ratio (x) = 0.55451 0.25459
# Poissons Ratio (y) = 0.55451 0.25459
# Poissons Ratio (z) = 0.12361 0.12361
#
# Static dielectric constant tensor:
#      x y z
#    x 3.669790 0.000000 0.000000 
#    y 0.000000 3.669790 0.000000 
#    z 0.000000 0.000000 4.686360 
# 
# 
# High freq. dielectric constant tensor:
#      x y z
#    x 1.817110 0.000000 0.000000 
#    y 0.000000 1.817110 0.000000 
#    z 0.000000 0.000000 1.876150 
# 
# From -- ./inp_files/6130.got.cif
#   From: 2010.03.12/outbox.cif.g09.slc.cpg/sg179_4_cif.got.tgz:6130.got - 2010.04.02 07:08:42.
