data_PCOD8326626
_publ_section_title
;
Structure prediction by ZEFSAII (Michael W. Deem and Ramdas Pophale) SiO2 
 PCOD8326626
Probable space group: P 63 C M
;
_chemical_formula_sum "Si O2"
_cell_formula_units_Z 84
_cell_length_a 21.119015
_cell_length_b 21.119015
_cell_length_c 13.270523
_cell_angle_alpha 90.000000
_cell_angle_beta 90.000000
_cell_angle_gamma 120.000000
_cell_volume 5125.851121
_symmetry_space_group_name_H-M "P 63 C M"
_symmetry_group_IT_number 185
_symmetry_cell_setting 'hexagonal'
loop_
_space_group_symop_operation_xyz
x,y,z
x-y,x,1/2+z
-y,x-y,z
-x,-y,1/2+z
-x+y,-x,z
y,-x+y,1/2+z
-x+y,y,1/2+z
x,x-y,1/2+z
-y,-x,1/2+z
y,x,z
x-y,-y,z
-x,-x+y,z
loop_
_atom_site_type_symbol
_atom_site_label
_atom_site_fract_x
_atom_site_fract_y
_atom_site_fract_z
Si Si1 0.086148 0.462567 0.375000
Si Si2 0.366668 0.083562 0.903502
Si Si3 0.213876 0.296803 0.604469
Si Si4 0.491165 0.084579 0.793322
Si Si5 0.084668 0.429321 0.594305
Si Si6 0.707386 0.918014 0.027820
Si Si7 0.217442 0.861408 0.323394
O O1 0.117608 0.541826 0.323008
O O2 0.095728 0.477319 0.495040
O O3 0.138610 0.431967 0.338641
O O4 0.000000 0.405313 0.350971
O O5 0.358952 0.095039 0.022232
O O6 0.305400 0.000000 0.870828
O O7 0.447250 0.095385 0.884970
O O8 0.361000 0.143890 0.835411
O O9 0.232724 0.232724 0.607942
O O10 0.130061 0.258671 0.568379
O O11 0.223385 0.331195 0.712977
O O12 0.482206 0.121833 0.690778
O O13 0.461384 0.000000 0.772199
O O14 0.116205 0.374415 0.575366
O O15 0.000000 0.376706 0.618743
O O16 0.761369 0.000000 0.062760
O O17 0.701310 0.915511 0.906454
#
# Coordination Sequence:
#
# PCOD8326626 Si02
#       7
#    12  12  12  12  12  12  12
#     4   9  17  27  41  64  89 114 145 177 215 265
#     4   9  19  32  46  68  93 118 153 193 232 275
#     4  10  19  29  44  68  94 117 146 191 245 286
#     4   9  16  27  43  62  87 115 142 177 217 258
#     4   8  14  25  41  61  83 111 146 176 208 256
#     4   9  17  30  47  65  88 120 156 190 227 282
#     4  10  18  30  47  66  92 121 149 188 234 276
#
# _framework density 16.387523000000002
#
# number of rings (size 3 to 8) (size 9 to 14) (size 15 to 20)
#    0.000    2.857    0.000    3.000    0.000    2.857 
#    0.000    4.286    0.000    0.857    0.000    0.000 
#    0.000    5.714    0.000    0.000    0.000    0.000 
#
# Total GULP energy -1040820.185111 kJ/mol
# GULP energy per Si atom -12390.716489 kJ/mol
# Density = 1.635022 g / cm^3
# Si number density = 16.387523 Si / 1000 Ang^3
#
#
#
# Elastic Constant Matrix: (Units=GPa)
#
#
# Indices 1 2 3 4 5 6 
#
# 1 88.7589 50.0616 47.3261 0.0000 0.0000 0.0000
# 2 50.0616 88.7589 47.3261 0.0000 0.0000 0.0000
# 3 47.3261 47.3261 117.9806 0.0000 0.0000 0.0000
# 4 0.0000 0.0000 0.0000 17.5161 0.0000 0.0000
# 5 0.0000 0.0000 0.0000 0.0000 17.5161 0.0000
# 6 0.0000 0.0000 0.0000 0.0000 0.0000 19.3487
#
#
#
# Elastic Compliance Matrix: (Units=1/GPa)
#
#
# Indices 1 2 3 4 5 6 
#
# 1 0.017879 -0.007963 -0.003977 0.000000 0.000000 0.000000
# 2 -0.007963 0.017879 -0.003977 0.000000 0.000000 0.000000
# 3 -0.003977 -0.003977 0.011667 0.000000 0.000000 0.000000
# 4 0.000000 0.000000 0.000000 0.057090 0.000000 0.000000
# 5 0.000000 0.000000 0.000000 0.000000 0.057090 0.000000
# 6 0.000000 0.000000 0.000000 0.000000 0.000000 0.051683
#
#
# Mechanical properties :
#
#
# Convention : Reuss Voigt Hill
#
# Bulk Modulus (GPa) = 64.15127 64.99178 64.57153
# Shear Modulus (GPa) = 19.97446 20.92849 20.45147
#
# Velocity S-wave (km/s) = 3.49504 3.57753 3.53652
# Velocity P-wave (km/s) = 7.45107 7.53726 7.49429
#
# Compressibility (1/GPa) = 0.01558815
#
# Stress axis : x y z
#
# Youngs Moduli (GPa) = 55.93296 55.93296 85.71215
#
# Poissons Ratio (x) = 0.44540 0.34092
# Poissons Ratio (y) = 0.44540 0.34092
# Poissons Ratio (z) = 0.22247 0.22247
#
# Static dielectric constant tensor:
#      x y z
#    x 3.013360 0.000000 0.000000 
#    y 0.000000 3.013360 0.000000 
#    z 0.000000 0.000000 3.315000 
# 
# 
# High freq. dielectric constant tensor:
#      x y z
#    x 1.602910 0.000000 0.000000 
#    y 0.000000 1.602910 0.000000 
#    z 0.000000 0.000000 1.645380 
# 
# From -- ./inp_files/1020.got.cif
#   From: 2010.03.12/outbox.cif.g09.slc.cpg/sg185_cif.got.tgz:1020.got - 2010.04.01 11:55:19.
