data_PCOD8326101
_publ_section_title
;
Structure prediction by ZEFSAII (Michael W. Deem and Ramdas Pophale) SiO2 
 PCOD8326101
Probable space group: P 65 2 2
;
_chemical_formula_sum "Si O2"
_cell_formula_units_Z 48
_cell_length_a 16.629594
_cell_length_b 16.629594
_cell_length_c 9.616202
_cell_angle_alpha 90.000000
_cell_angle_beta 90.000000
_cell_angle_gamma 120.000000
_cell_volume 2303.018900
_symmetry_space_group_name_H-M "P 65 2 2"
_symmetry_group_IT_number 179
_symmetry_cell_setting 'hexagonal'
loop_
_space_group_symop_operation_xyz
x,y,z
x-y,x,5/6+z
-y,x-y,2/3+z
-x,-y,1/2+z
-x+y,-x,1/3+z
y,-x+y,1/6+z
x-y,-y,-z
-x,-x+y,1/3-z
y,x,2/3-z
-y,-x,1/6-z
-x+y,y,1/2-z
x,x-y,5/6-z
loop_
_atom_site_type_symbol
_atom_site_label
_atom_site_fract_x
_atom_site_fract_y
_atom_site_fract_z
Si Si1 0.465942 0.643752 0.449292
Si Si2 0.415542 0.497438 0.224604
Si Si3 0.933643 0.687090 0.792713
Si Si4 0.067507 0.751185 0.042735
O O1 0.415582 0.584418 0.583334
O O2 0.436315 0.718158 0.416667
O O3 0.430470 0.587840 0.304730
O O4 0.574582 0.691675 0.489366
O O5 0.451012 0.451012 0.333334
O O6 0.308653 0.424334 0.180098
O O7 0.475304 0.524697 0.083334
O O8 0.857976 0.715951 0.750000
O O9 0.000000 0.706979 0.666667
O O10 0.000478 0.748444 0.918825
O O11 0.142692 0.857309 0.083334
O O12 0.000000 0.698486 0.166667
#
# Coordination Sequence:
#
# PCOD8326101 Si02
#       4
#    12  12  12  12
#     4  11  24  40  59  89 130 174 217 262 313 369
#     4  11  22  38  62  90 124 166 213 263 316 376
#     4  11  23  39  62  90 119 154 203 257 308 369
#     4  11  23  41  65  91 122 162 206 254 312 378
#
# _framework density 20.842210000000001
#
# number of rings (size 3 to 8) (size 9 to 14) (size 15 to 20)
#    0.000    1.000    0.000    9.000    0.000    8.000 
#    0.000    0.000    0.000    7.500    0.000    0.000 
#    0.000    0.000    0.000    0.000    0.000    0.000 
#
# Total GULP energy -594828.744861 kJ/mol
# GULP energy per Si atom -12392.265518 kJ/mol
# Density = 2.079477 g / cm^3
# Si number density = 20.842210 Si / 1000 Ang^3
#
#
#
# Elastic Constant Matrix: (Units=GPa)
#
#
# Indices 1 2 3 4 5 6 
#
# 1 114.7585 56.0767 43.9441 0.0000 0.0000 0.0000
# 2 56.0767 114.7585 43.9441 0.0000 0.0000 0.0000
# 3 43.9441 43.9441 143.8905 0.0000 0.0000 0.0000
# 4 0.0000 0.0000 0.0000 40.1057 0.0000 0.0000
# 5 0.0000 0.0000 0.0000 0.0000 40.1057 0.0000
# 6 0.0000 0.0000 0.0000 0.0000 0.0000 29.3409
#
#
#
# Elastic Compliance Matrix: (Units=1/GPa)
#
#
# Indices 1 2 3 4 5 6 
#
# 1 0.011993 -0.005048 -0.002121 0.000000 0.000000 0.000000
# 2 -0.005048 0.011993 -0.002121 0.000000 0.000000 0.000000
# 3 -0.002121 -0.002121 0.008245 0.000000 0.000000 0.000000
# 4 0.000000 0.000000 0.000000 0.024934 0.000000 0.000000
# 5 0.000000 0.000000 0.000000 0.000000 0.024934 0.000000
# 6 0.000000 0.000000 0.000000 0.000000 0.000000 0.034082
#
#
# Mechanical properties :
#
#
# Convention : Reuss Voigt Hill
#
# Bulk Modulus (GPa) = 73.25488 73.48192 73.36840
# Shear Modulus (GPa) = 35.89075 37.20663 36.54869
#
# Velocity S-wave (km/s) = 4.15423 4.22970 4.19213
# Velocity P-wave (km/s) = 7.63111 7.69328 7.66226
#
# Compressibility (1/GPa) = 0.01365097
#
# Stress axis : x y z
#
# Youngs Moduli (GPa) = 83.38268 83.38268 121.28288
#
# Poissons Ratio (x) = 0.42093 0.25723
# Poissons Ratio (y) = 0.42093 0.25723
# Poissons Ratio (z) = 0.17685 0.17685
#
# Static dielectric constant tensor:
#      x y z
#    x 3.886610 0.000000 0.000000 
#    y 0.000000 3.886610 0.000000 
#    z 0.000000 0.000000 3.711570 
# 
# 
# High freq. dielectric constant tensor:
#      x y z
#    x 1.810940 0.000000 0.000000 
#    y 0.000000 1.810940 0.000000 
#    z 0.000000 0.000000 1.836290 
# 
# From -- ./inp_files/2569.got.cif
#   From: 2010.03.12/outbox.cif.g09.slc.cpg/sg179_2_cif.got.tgz:2569.got - 2010.04.02 07:08:42.
