data_PCOD8326799
_publ_section_title
;
Structure prediction by ZEFSAII (Michael W. Deem and Ramdas Pophale) SiO2 
 PCOD8326799
Probable space group: P 63 M C
;
_chemical_formula_sum "Si O2"
_cell_formula_units_Z 84
_cell_length_a 21.821733
_cell_length_b 21.821733
_cell_length_c 10.400285
_cell_angle_alpha 90.000000
_cell_angle_beta 90.000000
_cell_angle_gamma 120.000000
_cell_volume 4288.983223
_symmetry_space_group_name_H-M "P 63 M C"
_symmetry_group_IT_number 186
_symmetry_cell_setting 'hexagonal'
loop_
_space_group_symop_operation_xyz
x,y,z
x-y,x,1/2+z
-y,x-y,z
-x,-y,1/2+z
-x+y,-x,z
y,-x+y,1/2+z
-x+y,y,z
x,x-y,z
-y,-x,z
y,x,1/2+z
x-y,-y,1/2+z
-x,-x+y,1/2+z
loop_
_atom_site_type_symbol
_atom_site_label
_atom_site_fract_x
_atom_site_fract_y
_atom_site_fract_z
Si Si1 0.052938 0.656220 0.419870
Si Si2 0.808636 0.477197 0.556876
Si Si3 0.603282 0.656220 0.136930
Si Si4 0.943082 0.742820 0.631803
Si Si5 0.522803 0.331439 0.999920
Si Si6 0.667822 0.198265 0.278399
Si Si7 0.742819 0.799738 0.425000
O O1 0.017302 0.632144 0.278400
O O2 0.124995 0.653223 0.413072
O O3 0.072336 0.736072 0.449945
O O4 0.000000 0.603462 0.528400
O O5 0.737450 0.474900 0.607207
O O6 0.795116 0.397558 0.559761
O O7 0.875005 0.528229 0.643726
O O8 0.829083 0.512153 0.412404
O O9 0.663737 0.736072 0.106856
O O10 0.871425 0.742850 0.605014
O O11 0.969910 0.767311 0.778402
O O12 0.000000 0.795684 0.528402
O O13 0.525100 0.262550 0.949589
O O14 0.602443 0.397558 0.997036
O O15 0.487847 0.316930 0.144393
O O16 0.586391 0.172781 0.278400
O O17 0.716103 0.283898 0.278399
O O18 0.742849 0.871425 0.451790
#
# Coordination Sequence:
#
# PCOD8326799 Si02
#       7
#    12  12  12  12  12  12  12
#     4  10  22  38  57  80 109 144 183 227 277 328
#     4  10  20  35  56  81 110 143 182 226 276 330
#     4  10  22  38  57  80 109 144 183 227 277 328
#     4   9  18  34  55  80 111 145 180 222 269 317
#     4  10  20  35  56  81 110 143 182 226 276 330
#     4   8  15  28  48  74 102 134 169 210 258 314
#     4   9  18  34  55  80 111 145 180 222 269 317
#
# _framework density 19.585061
#
# number of rings (size 3 to 8) (size 9 to 14) (size 15 to 20)
#    0.000    2.571    0.000    1.286    2.000    5.714 
#    0.000    0.000    0.000    2.000    0.000    0.000 
#    0.000    0.000    0.000    0.000    0.000    0.000 
#
# Total GULP energy -1040890.043315 kJ/mol
# GULP energy per Si atom -12391.548135 kJ/mol
# Density = 1.954048 g / cm^3
# Si number density = 19.585061 Si / 1000 Ang^3
#
#
#
# Elastic Constant Matrix: (Units=GPa)
#
#
# Indices 1 2 3 4 5 6 
#
# 1 85.6327 31.4036 40.8556 0.0000 0.0000 0.0000
# 2 31.4036 85.6327 40.8556 0.0000 0.0000 0.0000
# 3 40.8556 40.8556 109.6110 0.0000 0.0000 0.0000
# 4 0.0000 0.0000 0.0000 26.8521 0.0000 0.0000
# 5 0.0000 0.0000 0.0000 0.0000 26.8521 0.0000
# 6 0.0000 0.0000 0.0000 0.0000 0.0000 27.1146
#
#
#
# Elastic Compliance Matrix: (Units=1/GPa)
#
#
# Indices 1 2 3 4 5 6 
#
# 1 0.014995 -0.003445 -0.004305 0.000000 0.000000 0.000000
# 2 -0.003445 0.014995 -0.004305 0.000000 0.000000 0.000000
# 3 -0.004305 -0.004305 0.012332 0.000000 0.000000 0.000000
# 4 0.000000 0.000000 0.000000 0.037241 0.000000 0.000000
# 5 0.000000 0.000000 0.000000 0.000000 0.037241 0.000000
# 6 0.000000 0.000000 0.000000 0.000000 0.000000 0.036881
#
#
# Mechanical properties :
#
#
# Convention : Reuss Voigt Hill
#
# Bulk Modulus (GPa) = 54.90820 56.34512 55.62666
# Shear Modulus (GPa) = 27.19361 27.34785 27.27073
#
# Velocity S-wave (km/s) = 3.73028 3.74085 3.73557
# Velocity P-wave (km/s) = 6.83008 6.89133 6.86077
#
# Compressibility (1/GPa) = 0.01821222
#
# Stress axis : x y z
#
# Youngs Moduli (GPa) = 66.68821 66.68821 81.08682
#
# Poissons Ratio (x) = 0.22975 0.34908
# Poissons Ratio (y) = 0.22975 0.34908
# Poissons Ratio (z) = 0.28710 0.28710
#
# Static dielectric constant tensor:
#      x y z
#    x 3.282170 0.000000 0.000000 
#    y 0.000000 3.282170 0.000000 
#    z 0.000000 0.000000 3.968170 
# 
# 
# High freq. dielectric constant tensor:
#      x y z
#    x 1.737900 0.000000 0.000000 
#    y 0.000000 1.737900 0.000000 
#    z 0.000000 0.000000 1.781950 
# 
# From -- ./inp_files/1907.got.cif
#   From: 2010.03.12/outbox.cif.g09.slc.cpg/sg186_1_cif.got.tgz:1907.got - 2010.04.01 11:56:34.
