data_PCOD8326839
_publ_section_title
;
Structure prediction by ZEFSAII (Michael W. Deem and Ramdas Pophale) SiO2 
 PCOD8326839
Probable space group: P -6 M 2
;
_chemical_formula_sum "Si O2"
_cell_formula_units_Z 72
_cell_length_a 23.672334
_cell_length_b 23.672334
_cell_length_c 9.238968
_cell_angle_alpha 90.000000
_cell_angle_beta 90.000000
_cell_angle_gamma 120.000000
_cell_volume 4483.696980
_symmetry_space_group_name_H-M "P -6 M 2"
_symmetry_group_IT_number 187
_symmetry_cell_setting 'hexagonal'
loop_
_space_group_symop_operation_xyz
x,y,z
-x+y,-x,-z
-y,x-y,z
x,y,-z
-x+y,-x,z
-y,x-y,-z
-y,-x,-z
-x+y,y,-z
x,x-y,-z
-x+y,y,z
x,x-y,z
-y,-x,z
loop_
_atom_site_type_symbol
_atom_site_label
_atom_site_fract_x
_atom_site_fract_y
_atom_site_fract_z
Si Si1 0.744364 0.704872 0.333097
Si Si2 0.299026 0.827286 0.170751
Si Si3 0.110575 0.555288 0.828042
Si Si4 0.653170 0.553012 0.335763
Si Si5 0.782432 0.564863 0.335110
Si Si6 0.659741 0.766395 0.334008
Si Si7 0.848273 0.151728 0.170695
Si Si8 0.519463 0.480538 0.172045
O O1 0.765222 0.712920 0.500000
O O2 0.690756 0.629857 0.300344
O O3 0.716342 0.751731 0.289316
O O4 0.808798 0.729789 0.235787
O O5 0.247794 0.752207 0.215383
O O6 0.370834 0.849346 0.231235
O O7 0.278020 0.875940 0.236608
O O8 0.300453 0.835778 0.000000
O O9 0.035934 0.517967 0.771098
O O10 0.109772 0.554886 0.000000
O O11 0.626458 0.539995 0.500000
O O12 0.703734 0.525007 0.314181
O O13 0.593361 0.516960 0.227441
O O14 0.797166 0.594331 0.500000
O O15 0.810750 0.621499 0.217530
O O16 0.638754 0.746544 0.500000
O O17 0.685623 0.842812 0.307625
O O18 0.851880 0.148121 0.000000
O O19 0.520708 0.479293 0.000000
#
# Coordination Sequence:
#
# PCOD8326839 Si02
#       8
#    12  12   6  12   6  12   6   6
#     4   9  17  30  46  64  90 121 148 177 218 263
#     4   9  17  30  46  62  83 115 153 194 240 284
#     4   9  18  31  43  61  90 118 149 193 240 284
#     4   9  17  30  47  65  86 114 148 180 213 263
#     4   8  16  32  50  65  85 114 142 175 217 259
#     4   9  17  29  46  67  90 116 148 184 223 269
#     4  10  18  26  42  68  93 115 142 174 206 248
#     4  11  21  29  41  64  94 121 145 182 233 275
#
# _framework density 16.058178000000002
#
# number of rings (size 3 to 8) (size 9 to 14) (size 15 to 20)
#    0.000    2.833    0.000    3.000    0.000    3.333 
#    0.500    1.250    0.000    0.333    0.000    1.167 
#    0.833    0.000    1.500    0.000    0.500    0.000 
#
# Total GULP energy -892409.403476 kJ/mol
# GULP energy per Si atom -12394.575048 kJ/mol
# Density = 1.602163 g / cm^3
# Si number density = 16.058178 Si / 1000 Ang^3
#
#
#
# Elastic Constant Matrix: (Units=GPa)
#
#
# Indices 1 2 3 4 5 6 
#
# 1 114.7820 69.8110 44.1815 0.0000 0.0001 0.0000
# 2 69.8110 114.7820 44.1815 0.0000 -0.0001 0.0000
# 3 44.1815 44.1815 57.7035 0.0000 0.0000 0.0000
# 4 0.0000 0.0000 0.0000 20.7211 0.0000 -0.0001
# 5 0.0001 -0.0001 0.0000 0.0000 20.7211 0.0000
# 6 0.0000 0.0000 0.0000 -0.0001 0.0000 22.4855
#
#
#
# Elastic Compliance Matrix: (Units=1/GPa)
#
#
# Indices 1 2 3 4 5 6 
#
# 1 0.015394 -0.006842 -0.006548 0.000000 0.000000 0.000000
# 2 -0.006842 0.015394 -0.006548 0.000000 0.000000 0.000000
# 3 -0.006548 -0.006548 0.027357 0.000000 0.000000 0.000000
# 4 0.000000 0.000000 0.000000 0.048260 0.000000 0.000000
# 5 0.000000 0.000000 0.000000 0.000000 0.048260 0.000000
# 6 0.000000 0.000000 0.000000 0.000000 0.000000 0.044473
#
#
# Mechanical properties :
#
#
# Convention : Reuss Voigt Hill
#
# Bulk Modulus (GPa) = 54.73705 67.06839 60.90272
# Shear Modulus (GPa) = 20.39956 21.39177 20.89567
#
# Velocity S-wave (km/s) = 3.56807 3.65381 3.61119
# Velocity P-wave (km/s) = 7.15091 7.72379 7.44287
#
# Compressibility (1/GPa) = 0.01826916
#
# Stress axis : x y z
#
# Youngs Moduli (GPa) = 64.96001 64.96001 36.55425
#
# Poissons Ratio (x) = 0.44449 0.23935
# Poissons Ratio (y) = 0.44449 0.23935
# Poissons Ratio (z) = 0.42534 0.42534
#
# Static dielectric constant tensor:
#      x y z
#    x 3.135920 0.000000 0.000000 
#    y 0.000000 3.135920 0.000000 
#    z 0.000000 0.000000 2.925940 
# 
# 
# High freq. dielectric constant tensor:
#      x y z
#    x 1.605050 0.000000 0.000000 
#    y 0.000000 1.605050 0.000000 
#    z 0.000000 0.000000 1.609350 
# 
# From -- ./inp_files/1106.got.cif
#   From: 2010.03.12/outbox.cif.g09.slc.cpg/sg187_1_cif.got.tgz:1106.got - 2010.04.01 11:58:23.
