data_PCOD8326981
_publ_section_title
;
Structure prediction by ZEFSAII (Michael W. Deem and Ramdas Pophale) SiO2 
 PCOD8326981
Probable space group: P -6 M 2
;
_chemical_formula_sum "Si O2"
_cell_formula_units_Z 54
_cell_length_a 17.731653
_cell_length_b 17.731653
_cell_length_c 10.607978
_cell_angle_alpha 90.000000
_cell_angle_beta 90.000000
_cell_angle_gamma 120.000000
_cell_volume 2888.428953
_symmetry_space_group_name_H-M "P -6 M 2"
_symmetry_group_IT_number 187
_symmetry_cell_setting 'hexagonal'
loop_
_space_group_symop_operation_xyz
x,y,z
-x+y,-x,-z
-y,x-y,z
x,y,-z
-x+y,-x,z
-y,x-y,-z
-y,-x,-z
-x+y,y,-z
x,x-y,-z
-x+y,y,z
x,x-y,z
-y,-x,z
loop_
_atom_site_type_symbol
_atom_site_label
_atom_site_fract_x
_atom_site_fract_y
_atom_site_fract_z
Si Si1 0.666402 0.163906 0.149357
Si Si2 0.934274 0.695410 0.768105
Si Si3 0.508912 0.667653 0.141140
Si Si4 0.094190 0.732527 0.639526
Si Si5 0.177826 0.175655 0.000000
O O1 0.572613 0.145225 0.202051
O O2 0.740570 0.259431 0.195412
O O3 0.688395 0.091330 0.196633
O O4 0.664491 0.160804 0.000000
O O5 0.850009 0.700017 0.726340
O O6 0.000517 0.725939 0.650819
O O7 0.984675 0.761778 0.880841
O O8 0.483940 0.741970 0.161855
O O9 0.423282 0.576719 0.158782
O O10 0.574806 0.673450 0.248947
O O11 0.548400 0.675071 0.000000
O O12 0.102242 0.699540 0.500000
O O13 0.167944 0.832057 0.658958
O O14 0.094412 0.188823 0.000000
O O15 0.145874 0.072937 0.000000
#
# Coordination Sequence:
#
# PCOD8326981 Si02
#       5
#    12  12  12  12   6
#     4   9  16  28  47  74 108 142 175 213 260 313
#     4  10  20  34  52  76 104 136 177 222 271 324
#     4   9  18  33  55  82 111 144 183 224 265 311
#     4  10  22  38  54  76 106 141 180 220 268 326
#     4  10  19  32  51  76 104 134 170 218 275 332
#
# _framework density 18.695284999999998
#
# number of rings (size 3 to 8) (size 9 to 14) (size 15 to 20)
#    0.000    2.444    1.111    1.222    1.556    3.556 
#    0.000    2.222    0.000    1.778    0.000    0.000 
#    0.000    1.778    0.000    0.000    0.000    0.000 
#
# Total GULP energy -669333.841103 kJ/mol
# GULP energy per Si atom -12395.071132 kJ/mol
# Density = 1.865273 g / cm^3
# Si number density = 18.695285 Si / 1000 Ang^3
#
#
#
# Elastic Constant Matrix: (Units=GPa)
#
#
# Indices 1 2 3 4 5 6 
#
# 1 100.9576 63.5669 49.3108 0.0000 0.0006 0.0000
# 2 63.5669 100.9576 49.3108 0.0000 -0.0006 0.0000
# 3 49.3108 49.3108 107.9955 0.0000 0.0000 0.0000
# 4 0.0000 0.0000 0.0000 18.6079 0.0000 -0.0006
# 5 0.0006 -0.0006 0.0000 0.0000 18.6079 0.0000
# 6 0.0000 0.0000 0.0000 -0.0006 0.0000 18.6954
#
#
#
# Elastic Compliance Matrix: (Units=1/GPa)
#
#
# Indices 1 2 3 4 5 6 
#
# 1 0.017557 -0.009188 -0.003821 0.000000 -0.000001 0.000000
# 2 -0.009188 0.017557 -0.003821 0.000000 0.000001 0.000000
# 3 -0.003821 -0.003821 0.012749 0.000000 0.000000 0.000000
# 4 0.000000 0.000000 0.000000 0.053741 0.000000 0.000002
# 5 -0.000001 0.000001 0.000000 0.000000 0.053741 0.000000
# 6 0.000000 0.000000 0.000000 0.000002 0.000000 0.053489
#
#
# Mechanical properties :
#
#
# Convention : Reuss Voigt Hill
#
# Bulk Modulus (GPa) = 70.41321 70.47638 70.44480
# Shear Modulus (GPa) = 20.22431 21.03037 20.62734
#
# Velocity S-wave (km/s) = 3.29262 3.35760 3.32527
# Velocity P-wave (km/s) = 7.22499 7.26708 7.24607
#
# Compressibility (1/GPa) = 0.01420188
#
# Stress axis : x y z
#
# Youngs Moduli (GPa) = 56.95857 56.95857 78.43688
#
# Poissons Ratio (x) = 0.52333 0.29972
# Poissons Ratio (y) = 0.52333 0.29972
# Poissons Ratio (z) = 0.21765 0.21765
#
# Static dielectric constant tensor:
#      x y z
#    x 3.558860 0.000000 0.000000 
#    y 0.000000 3.558860 0.000000 
#    z 0.000000 0.000000 3.281470 
# 
# 
# High freq. dielectric constant tensor:
#      x y z
#    x 1.729710 0.000000 0.000000 
#    y 0.000000 1.729710 0.000000 
#    z 0.000000 0.000000 1.697280 
# 
# From -- ./inp_files/1531.got.cif
#   From: 2010.03.12/outbox.cif.g09.slc.cpg/sg187_1_cif.got.tgz:1531.got - 2010.04.01 11:58:23.
