data_PCOD8326225
_publ_section_title
;
Structure prediction by ZEFSAII (Michael W. Deem and Ramdas Pophale) SiO2 
 PCOD8326225
Probable space group: P 62 2 2
;
_chemical_formula_sum "Si O2"
_cell_formula_units_Z 75
_cell_length_a 11.180903
_cell_length_b 11.180903
_cell_length_c 35.470382
_cell_angle_alpha 90.000000
_cell_angle_beta 90.000000
_cell_angle_gamma 120.000000
_cell_volume 3840.168288
_symmetry_space_group_name_H-M "P 62 2 2"
_symmetry_group_IT_number 180
_symmetry_cell_setting 'hexagonal'
loop_
_space_group_symop_operation_xyz
x,y,z
x-y,x,1/3+z
-y,x-y,2/3+z
-x,-y,z
-x+y,-x,1/3+z
y,-x+y,2/3+z
x-y,-y,-z
-x,-x+y,1/3-z
y,x,2/3-z
-y,-x,2/3-z
-x+y,y,-z
x,x-y,1/3-z
loop_
_atom_site_type_symbol
_atom_site_label
_atom_site_fract_x
_atom_site_fract_y
_atom_site_fract_z
Si Si1 0.615340 0.654876 0.578331
Si Si2 0.163195 0.448012 0.038870
Si Si3 0.000000 0.000000 0.000000
Si Si4 0.380823 0.038416 0.912185
Si Si5 0.335208 0.392089 0.500303
Si Si6 0.845075 0.281019 0.041119
Si Si7 0.859866 0.151573 0.966852
O O1 0.500000 0.500000 0.571260
O O2 0.551742 0.748459 0.591855
O O3 0.694689 0.703136 0.537861
O O4 0.706951 0.648639 0.611517
O O5 0.191643 0.601204 0.031746
O O6 0.005999 0.343545 0.049796
O O7 0.198381 0.396762 0.000000
O O8 0.129456 0.093559 0.026720
O O9 0.441505 0.199435 0.922026
O O10 0.500000 0.000000 0.913695
O O11 0.307656 0.005054 0.871109
O O12 0.269937 0.954906 0.943642
O O13 0.500000 0.500000 0.499237
O O14 0.225858 0.451716 0.500000
O O15 0.803053 0.178062 0.005691
#
# Coordination Sequence:
#
# PCOD8326225 Si02
#       7
#    12  12   3  12  12  12  12
#     4  11  23  39  66  91 121 166 213 261 321 378
#     4  11  23  40  64  92 128 164 213 262 318 395
#     4  12  24  40  62  90 128 180 196 248 314 412
#     4  11  25  40  62  92 129 164 210 270 323 382
#     4  10  22  42  66  94 128 171 227 274 324 390
#     4  11  24  40  61  94 129 166 206 264 325 383
#     4  12  22  39  61  90 128 166 208 251 323 383
#
# _framework density 19.530393
#
# number of rings (size 3 to 8) (size 9 to 14) (size 15 to 20)
#    0.000    0.960    4.800    1.920    4.480    1.920 
#    0.000    0.800    0.000    3.840    0.000    0.000 
#    0.000    0.000    0.000    0.000    0.000    0.000 
#
# Total GULP energy -929633.375866 kJ/mol
# GULP energy per Si atom -12395.111678 kJ/mol
# Density = 1.948594 g / cm^3
# Si number density = 19.530393 Si / 1000 Ang^3
#
#
#
# Elastic Constant Matrix: (Units=GPa)
#
#
# Indices 1 2 3 4 5 6 
#
# 1 96.4440 31.8222 50.0351 0.0000 0.0000 0.0000
# 2 31.8222 96.4440 50.0351 0.0000 0.0000 0.0000
# 3 50.0351 50.0351 142.5365 0.0000 0.0000 0.0000
# 4 0.0000 0.0000 0.0000 26.3307 0.0000 0.0000
# 5 0.0000 0.0000 0.0000 0.0000 26.3307 0.0000
# 6 0.0000 0.0000 0.0000 0.0000 0.0000 32.3109
#
#
#
# Elastic Compliance Matrix: (Units=1/GPa)
#
#
# Indices 1 2 3 4 5 6 
#
# 1 0.013106 -0.002369 -0.003769 0.000000 0.000000 0.000000
# 2 -0.002369 0.013106 -0.003769 0.000000 0.000000 0.000000
# 3 -0.003769 -0.003769 0.009662 0.000000 0.000000 0.000000
# 4 0.000000 0.000000 0.000000 0.037978 0.000000 0.000000
# 5 0.000000 0.000000 0.000000 0.000000 0.037978 0.000000
# 6 0.000000 0.000000 0.000000 0.000000 0.000000 0.030949
#
#
# Mechanical properties :
#
#
# Convention : Reuss Voigt Hill
#
# Bulk Modulus (GPa) = 62.26861 66.57880 64.42371
# Shear Modulus (GPa) = 29.77141 30.56327 30.16734
#
# Velocity S-wave (km/s) = 3.90855 3.96018 3.93445
# Velocity P-wave (km/s) = 7.23333 7.42123 7.32788
#
# Compressibility (1/GPa) = 0.01605946
#
# Stress axis : x y z
#
# Youngs Moduli (GPa) = 76.30274 76.30274 103.50035
#
# Poissons Ratio (x) = 0.18076 0.39009
# Poissons Ratio (y) = 0.18076 0.39009
# Poissons Ratio (z) = 0.28758 0.28758
#
# Static dielectric constant tensor:
#      x y z
#    x 3.654330 0.000000 0.000000 
#    y 0.000000 3.654330 0.000000 
#    z 0.000000 0.000000 4.142900 
# 
# 
# High freq. dielectric constant tensor:
#      x y z
#    x 1.760040 0.000000 0.000000 
#    y 0.000000 1.760040 0.000000 
#    z 0.000000 0.000000 1.767270 
# 
# From -- ./inp_files/12372.got.cif
#   From: 2010.03.12/outbox.cif.g09.slc.cpg/sg180_7_cif.got.tgz:12372.got - 2010.04.01 11:35:50.
