data_PCOD8326514
_publ_section_title
;
Structure prediction by ZEFSAII (Michael W. Deem and Ramdas Pophale) SiO2 
 PCOD8326514
Probable space group: P 6 M M
;
_chemical_formula_sum "Si O2"
_cell_formula_units_Z 72
_cell_length_a 18.311346
_cell_length_b 18.311346
_cell_length_c 15.463818
_cell_angle_alpha 90.000000
_cell_angle_beta 90.000000
_cell_angle_gamma 120.000000
_cell_volume 4490.429673
_symmetry_space_group_name_H-M "P 6 M M"
_symmetry_group_IT_number 183
_symmetry_cell_setting 'hexagonal'
loop_
_space_group_symop_operation_xyz
x,y,z
x-y,x,z
-y,x-y,z
-x,-y,z
-x+y,-x,z
y,-x+y,z
-x+y,y,z
x,x-y,z
-y,-x,z
y,x,z
x-y,-y,z
-x,-x+y,z
loop_
_atom_site_type_symbol
_atom_site_label
_atom_site_fract_x
_atom_site_fract_y
_atom_site_fract_z
Si Si1 0.832335 0.331031 0.617800
Si Si2 0.633254 0.539706 0.437380
Si Si3 0.498696 0.331031 0.905450
Si Si4 0.500630 0.669182 0.261624
Si Si5 0.733319 0.636742 0.761625
Si Si6 0.366747 0.460295 0.085869
O O1 0.851178 0.425589 0.635117
O O2 0.734493 0.265508 0.638430
O O3 0.849653 0.316387 0.518997
O O4 0.891872 0.312059 0.678060
O O5 0.546215 0.453786 0.428230
O O6 0.617374 0.617374 0.452509
O O7 0.685414 0.556287 0.348207
O O8 0.531015 0.265508 0.884820
O O9 0.574412 0.425589 0.888131
O O10 0.420187 0.312059 0.845191
O O11 0.466735 0.316388 0.004253
O O12 0.463421 0.731711 0.261624
O O13 0.425156 0.574845 0.261624
O O14 0.556288 0.685414 0.175042
O O15 0.834286 0.668572 0.761625
O O16 0.715792 0.715792 0.761625
O O17 0.453786 0.546215 0.095021
O O18 0.382626 0.382626 0.070738
#
# Coordination Sequence:
#
# PCOD8326514 Si02
#       6
#    12  12  12  12  12  12
#     4  10  19  30  45  66  93 123 154 186 219 257
#     4   9  17  28  41  56  76 106 144 183 220 260
#     4  10  19  30  45  66  93 123 154 186 219 257
#     4  10  18  27  39  55  76 101 132 174 225 276
#     4  10  21  35  51  70  91 117 148 184 225 269
#     4   9  17  28  41  56  76 106 144 183 220 260
#
# _framework density 16.034099999999999
#
# number of rings (size 3 to 8) (size 9 to 14) (size 15 to 20)
#    0.000    2.333    0.000    3.500    0.000    4.667 
#    0.000    5.000    0.000    0.167    0.000    0.000 
#    0.000    0.000    0.000    0.000    0.000    0.000 
#
# Total GULP energy -892433.235765 kJ/mol
# GULP energy per Si atom -12394.906052 kJ/mol
# Density = 1.599761 g / cm^3
# Si number density = 16.034100 Si / 1000 Ang^3
#
#
#
# Elastic Constant Matrix: (Units=GPa)
#
#
# Indices 1 2 3 4 5 6 
#
# 1 62.6919 35.8013 27.5195 0.0000 0.0000 0.0000
# 2 35.8013 62.6919 27.5195 0.0000 0.0000 0.0000
# 3 27.5195 27.5195 109.3304 0.0000 0.0000 0.0000
# 4 0.0000 0.0000 0.0000 19.2101 0.0000 0.0000
# 5 0.0000 0.0000 0.0000 0.0000 19.2101 0.0000
# 6 0.0000 0.0000 0.0000 0.0000 0.0000 13.4453
#
#
#
# Elastic Compliance Matrix: (Units=1/GPa)
#
#
# Indices 1 2 3 4 5 6 
#
# 1 0.024501 -0.012686 -0.002974 0.000000 0.000000 0.000000
# 2 -0.012686 0.024501 -0.002974 0.000000 0.000000 0.000000
# 3 -0.002974 -0.002974 0.010644 0.000000 0.000000 0.000000
# 4 0.000000 0.000000 0.000000 0.052056 0.000000 0.000000
# 5 0.000000 0.000000 0.000000 0.000000 0.052056 0.000000
# 6 0.000000 0.000000 0.000000 0.000000 0.000000 0.074376
#
#
# Mechanical properties :
#
#
# Convention : Reuss Voigt Hill
#
# Bulk Modulus (GPa) = 44.68724 46.26609 45.47667
# Shear Modulus (GPa) = 17.67650 19.96469 18.82060
#
# Velocity S-wave (km/s) = 3.32389 3.53248 3.42977
# Velocity P-wave (km/s) = 6.53159 6.74947 6.64142
#
# Compressibility (1/GPa) = 0.02237775
#
# Stress axis : x y z
#
# Youngs Moduli (GPa) = 40.81417 40.81417 93.95216
#
# Poissons Ratio (x) = 0.51779 0.27941
# Poissons Ratio (y) = 0.51779 0.27941
# Poissons Ratio (z) = 0.12138 0.12138
#
# Static dielectric constant tensor:
#      x y z
#    x 2.788330 0.000000 0.000000 
#    y 0.000000 2.788330 0.000000 
#    z 0.000000 0.000000 3.457590 
# 
# 
# High freq. dielectric constant tensor:
#      x y z
#    x 1.579500 0.000000 0.000000 
#    y 0.000000 1.579500 0.000000 
#    z 0.000000 0.000000 1.644390 
# 
# From -- ./inp_files/2479.got.cif
#   From: 2010.03.12/outbox.cif.g09.slc.cpg/sg183_2_cif.got.tgz:2479.got - 2010.04.01 11:53:02.
