data_PCOD8326750
_publ_section_title
;
Structure prediction by ZEFSAII (Michael W. Deem and Ramdas Pophale) SiO2 
 PCOD8326750
Probable space group: P 63 M C
;
_chemical_formula_sum "Si O2"
_cell_formula_units_Z 84
_cell_length_a 16.903047
_cell_length_b 16.903047
_cell_length_c 22.114662
_cell_angle_alpha 90.000000
_cell_angle_beta 90.000000
_cell_angle_gamma 120.000000
_cell_volume 5471.935075
_symmetry_space_group_name_H-M "P 63 M C"
_symmetry_group_IT_number 186
_symmetry_cell_setting 'hexagonal'
loop_
_space_group_symop_operation_xyz
x,y,z
x-y,x,1/2+z
-y,x-y,z
-x,-y,1/2+z
-x+y,-x,z
y,-x+y,1/2+z
-x+y,y,z
x,x-y,z
-y,-x,z
y,x,1/2+z
x-y,-y,1/2+z
-x,-x+y,1/2+z
loop_
_atom_site_type_symbol
_atom_site_label
_atom_site_fract_x
_atom_site_fract_y
_atom_site_fract_z
Si Si1 0.845143 0.512534 0.203140
Si Si2 0.698515 0.939605 0.769319
Si Si3 0.146259 0.667001 0.463196
Si Si4 0.622465 0.902933 0.584095
Si Si5 0.487467 0.154858 0.723253
Si Si6 0.758910 0.060397 0.657073
Si Si7 0.719533 0.622466 0.842298
O O1 0.736736 0.473471 0.204321
O O2 0.865802 0.432901 0.220534
O O3 0.895116 0.592380 0.251842
O O4 0.883128 0.549171 0.136437
O O5 0.724300 0.862150 0.784324
O O6 0.760577 0.000002 0.713196
O O7 0.716691 0.001720 0.828722
O O8 0.149984 0.574992 0.463196
O O9 0.249738 0.750263 0.463196
O O10 0.090832 0.670078 0.521186
O O11 0.090831 0.670079 0.405207
O O12 0.650095 0.825048 0.582394
O O13 0.714969 0.998281 0.597671
O O14 0.567099 0.134197 0.705860
O O15 0.526531 0.263266 0.722073
O O16 0.407622 0.104887 0.674551
O O17 0.450829 0.116873 0.789956
O O18 0.862150 0.137851 0.642066
O O19 0.825049 0.650097 0.843999
#
# Coordination Sequence:
#
# PCOD8326750 Si02
#       7
#    12  12  12  12  12  12  12
#     4   9  16  25  39  60  86 114 141 170 207 251
#     4   9  17  29  45  64  86 112 141 177 220 262
#     4  10  19  30  45  66  92 120 148 176 207 246
#     4   9  18  30  43  61  85 113 142 175 216 256
#     4   9  16  25  39  60  86 114 141 170 207 251
#     4   9  17  29  45  64  86 112 141 177 220 262
#     4   9  18  30  43  61  85 113 142 175 216 256
#
# _framework density 15.351058999999999
#
# number of rings (size 3 to 8) (size 9 to 14) (size 15 to 20)
#    0.000    2.857    0.000    3.857    0.000    6.286 
#    0.000    3.571    0.000    5.143    0.000    0.000 
#    0.000    0.000    0.000    0.000    0.000    0.000 
#
# Total GULP energy -1041508.727421 kJ/mol
# GULP energy per Si atom -12398.913422 kJ/mol
# Density = 1.531612 g / cm^3
# Si number density = 15.351059 Si / 1000 Ang^3
#
#
#
# Elastic Constant Matrix: (Units=GPa)
#
#
# Indices 1 2 3 4 5 6 
#
# 1 89.1065 51.5592 36.3659 0.0000 0.0000 0.0000
# 2 51.5592 89.1065 36.3659 0.0000 0.0000 0.0000
# 3 36.3659 36.3659 77.2654 0.0000 0.0000 0.0000
# 4 0.0000 0.0000 0.0000 18.6898 0.0000 0.0000
# 5 0.0000 0.0000 0.0000 0.0000 18.6898 0.0000
# 6 0.0000 0.0000 0.0000 0.0000 0.0000 18.7736
#
#
#
# Elastic Compliance Matrix: (Units=1/GPa)
#
#
# Indices 1 2 3 4 5 6 
#
# 1 0.018014 -0.008619 -0.004422 0.000000 0.000000 0.000000
# 2 -0.008619 0.018014 -0.004422 0.000000 0.000000 0.000000
# 3 -0.004422 -0.004422 0.017105 0.000000 0.000000 0.000000
# 4 0.000000 0.000000 0.000000 0.053505 0.000000 0.000000
# 5 0.000000 0.000000 0.000000 0.000000 0.053505 0.000000
# 6 0.000000 0.000000 0.000000 0.000000 0.000000 0.053266
#
#
# Mechanical properties :
#
#
# Convention : Reuss Voigt Hill
#
# Bulk Modulus (GPa) = 54.92202 56.00671 55.46437
# Shear Modulus (GPa) = 19.65366 19.97645 19.81505
#
# Velocity S-wave (km/s) = 3.58198 3.61128 3.59666
# Velocity P-wave (km/s) = 7.27753 7.34517 7.31143
#
# Compressibility (1/GPa) = 0.01820763
#
# Stress axis : x y z
#
# Youngs Moduli (GPa) = 55.51143 55.51143 58.46224
#
# Poissons Ratio (x) = 0.47844 0.25853
# Poissons Ratio (y) = 0.47844 0.25853
# Poissons Ratio (z) = 0.24548 0.24548
#
# Static dielectric constant tensor:
#      x y z
#    x 2.916780 0.000000 0.000000 
#    y 0.000000 2.916780 0.000000 
#    z 0.000000 0.000000 2.882720 
# 
# 
# High freq. dielectric constant tensor:
#      x y z
#    x 1.583320 0.000000 0.000000 
#    y 0.000000 1.583320 0.000000 
#    z 0.000000 0.000000 1.564570 
# 
# From -- ./inp_files/3504.got.cif
#   From: 2010.03.12/outbox.cif.g09.slc.cpg/sg186_2_cif.got.tgz:3504.got - 2010.04.01 11:56:34.
