data_PCOD8326953
_publ_section_title
;
Structure prediction by ZEFSAII (Michael W. Deem and Ramdas Pophale) SiO2 
 PCOD8326953
Probable space group: P -6 M 2
;
_chemical_formula_sum "Si O2"
_cell_formula_units_Z 60
_cell_length_a 21.383172
_cell_length_b 21.383172
_cell_length_c 9.034931
_cell_angle_alpha 90.000000
_cell_angle_beta 90.000000
_cell_angle_gamma 120.000000
_cell_volume 3577.665479
_symmetry_space_group_name_H-M "P -6 M 2"
_symmetry_group_IT_number 187
_symmetry_cell_setting 'hexagonal'
loop_
_space_group_symop_operation_xyz
x,y,z
-x+y,-x,-z
-y,x-y,z
x,y,-z
-x+y,-x,z
-y,x-y,-z
-y,-x,-z
-x+y,y,-z
x,x-y,-z
-x+y,y,z
x,x-y,z
-y,-x,z
loop_
_atom_site_type_symbol
_atom_site_label
_atom_site_fract_x
_atom_site_fract_y
_atom_site_fract_z
Si Si1 0.381372 0.120365 0.829226
Si Si2 0.504181 0.752091 0.339375
Si Si3 0.291346 0.333736 0.827062
Si Si4 0.162468 0.837533 0.336076
Si Si5 0.108507 0.624697 0.676603
Si Si6 0.525900 0.191865 0.674812
O O1 0.359335 0.179668 0.778717
O O2 0.450746 0.130123 0.740701
O O3 0.314724 0.040825 0.798131
O O4 0.403140 0.130305 0.000000
O O5 0.466641 0.733321 0.500000
O O6 0.590037 0.795019 0.353251
O O7 0.484427 0.808404 0.261804
O O8 0.212855 0.301549 0.752686
O O9 0.353026 0.408879 0.756454
O O10 0.285288 0.346709 0.000000
O O11 0.144550 0.855451 0.500000
O O12 0.107041 0.636672 0.500000
O O13 0.083629 0.541815 0.714294
O O14 0.520925 0.184228 0.500000
O O15 0.590666 0.181331 0.736296
O O16 0.540868 0.270434 0.725016
#
# Coordination Sequence:
#
# PCOD8326953 Si02
#       6
#    12   6  12   6  12  12
#     4   9  19  34  48  65  93 125 155 190 233 280
#     4   7  12  25  41  57  79 109 145 183 219 255
#     4  10  19  31  49  70  92 120 152 188 232 275
#     4   9  17  31  51  71  91 113 141 179 221 269
#     4   9  17  29  44  63  89 122 159 197 237 277
#     4   9  17  29  45  64  87 119 162 210 253 288
#
# _framework density 16.770713000000001
#
# number of rings (size 3 to 8) (size 9 to 14) (size 15 to 20)
#    0.000    3.000    0.000    2.300    0.000    4.000 
#    0.600    4.000    0.000    1.200    0.000    0.000 
#    1.000    0.000    1.800    0.000    0.600    0.000 
#
# Total GULP energy -743508.756620 kJ/mol
# GULP energy per Si atom -12391.812610 kJ/mol
# Density = 1.673254 g / cm^3
# Si number density = 16.770713 Si / 1000 Ang^3
#
#
#
# Elastic Constant Matrix: (Units=GPa)
#
#
# Indices 1 2 3 4 5 6 
#
# 1 87.8954 52.1413 36.9094 0.0000 0.0001 0.0000
# 2 52.1413 87.8954 36.9094 0.0000 -0.0001 0.0000
# 3 36.9094 36.9094 59.9287 0.0000 0.0000 0.0000
# 4 0.0000 0.0000 0.0000 22.4537 0.0000 -0.0001
# 5 0.0001 -0.0001 0.0000 0.0000 22.4537 0.0000
# 6 0.0000 0.0000 0.0000 -0.0001 0.0000 17.8770
#
#
#
# Elastic Compliance Matrix: (Units=1/GPa)
#
#
# Indices 1 2 3 4 5 6 
#
# 1 0.019271 -0.008697 -0.006512 0.000000 0.000000 0.000000
# 2 -0.008697 0.019271 -0.006512 0.000000 0.000000 0.000000
# 3 -0.006512 -0.006512 0.024708 0.000000 0.000000 0.000000
# 4 0.000000 0.000000 0.000000 0.044536 0.000000 0.000000
# 5 0.000000 0.000000 0.000000 0.000000 0.044536 0.000000
# 6 0.000000 0.000000 0.000000 0.000000 0.000000 0.055938
#
#
# Mechanical properties :
#
#
# Convention : Reuss Voigt Hill
#
# Bulk Modulus (GPa) = 50.48804 54.18219 52.33512
# Shear Modulus (GPa) = 19.35678 19.87418 19.61548
#
# Velocity S-wave (km/s) = 3.40104 3.44619 3.42369
# Velocity P-wave (km/s) = 6.75226 6.94354 6.84857
#
# Compressibility (1/GPa) = 0.01980667
#
# Stress axis : x y z
#
# Youngs Moduli (GPa) = 51.89041 51.89041 40.47226
#
# Poissons Ratio (x) = 0.45132 0.26357
# Poissons Ratio (y) = 0.45132 0.26357
# Poissons Ratio (z) = 0.33793 0.33793
#
# Static dielectric constant tensor:
#      x y z
#    x 3.138550 0.000000 0.000000 
#    y 0.000000 3.138550 0.000000 
#    z 0.000000 0.000000 3.094810 
# 
# 
# High freq. dielectric constant tensor:
#      x y z
#    x 1.628680 0.000000 0.000000 
#    y 0.000000 1.628680 0.000000 
#    z 0.000000 0.000000 1.636890 
# 
# From -- ./inp_files/695.got.cif
#   From: 2010.03.12/outbox.cif.g09.slc.cpg/sg187_1_cif.got.tgz:695.got - 2010.04.01 11:58:23.
