data_PCOD8326280
_publ_section_title
;
Structure prediction by ZEFSAII (Michael W. Deem and Ramdas Pophale) SiO2 
 PCOD8326280
Probable space group: P 64 2 2
;
_chemical_formula_sum "Si O2"
_cell_formula_units_Z 51
_cell_length_a 11.432691
_cell_length_b 11.432691
_cell_length_c 23.257717
_cell_angle_alpha 90.000000
_cell_angle_beta 90.000000
_cell_angle_gamma 120.000000
_cell_volume 2632.659211
_symmetry_space_group_name_H-M "P 64 2 2"
_symmetry_group_IT_number 181
_symmetry_cell_setting 'hexagonal'
loop_
_space_group_symop_operation_xyz
x,y,z
x-y,x,2/3+z
-y,x-y,1/3+z
-x,-y,z
-x+y,-x,2/3+z
y,-x+y,1/3+z
x-y,-y,-z
-x,-x+y,2/3-z
y,x,1/3-z
-y,-x,1/3-z
-x+y,y,-z
x,x-y,2/3-z
loop_
_atom_site_type_symbol
_atom_site_label
_atom_site_fract_x
_atom_site_fract_y
_atom_site_fract_z
Si Si1 0.000000 0.000000 0.000000
Si Si2 0.229077 0.010428 0.406097
Si Si3 0.586966 0.433994 0.898304
Si Si4 0.224744 0.775257 0.666667
Si Si5 0.784541 0.667141 0.826086
Si Si6 0.807932 0.615863 0.500000
O O1 0.962275 0.089803 0.959977
O O2 0.210807 0.878393 0.440261
O O3 0.352858 0.073814 0.360266
O O4 0.255365 0.127225 0.451462
O O5 0.500000 0.500000 0.917671
O O6 0.679793 0.448282 0.951834
O O7 0.679024 0.511726 0.842209
O O8 0.483109 0.278086 0.885351
O O9 0.705623 0.746185 0.809459
#
# Coordination Sequence:
#
# PCOD8326280 Si02
#       6
#     3  12  12   6  12   6
#     4  10  16  22  40  80 106 126 150 200 294 322
#     4   9  17  29  51  78 105 129 165 226 275 319
#     4   9  19  35  53  75 102 145 181 215 262 320
#     4   9  18  35  52  78 111 138 177 218 276 323
#     4   9  17  32  53  75 101 132 179 218 262 319
#     4  10  18  31  54  75 102 142 182 212 258 322
#
# _framework density 19.372046999999998
#
# number of rings (size 3 to 8) (size 9 to 14) (size 15 to 20)
#    0.000    2.824    0.000    1.412    0.000    3.765 
#    4.235    0.000    0.000    0.000    0.000    0.000 
#    0.000    0.000    0.000    0.000    0.000    0.000 
#
# Total GULP energy -632100.471993 kJ/mol
# GULP energy per Si atom -12394.126902 kJ/mol
# Density = 1.932796 g / cm^3
# Si number density = 19.372047 Si / 1000 Ang^3
#
#
#
# Elastic Constant Matrix: (Units=GPa)
#
#
# Indices 1 2 3 4 5 6 
#
# 1 67.5447 20.0231 21.7141 0.0000 0.0000 0.0000
# 2 20.0231 67.5447 21.7141 0.0000 0.0000 0.0000
# 3 21.7141 21.7141 68.0315 0.0000 0.0000 0.0000
# 4 0.0000 0.0000 0.0000 10.9255 0.0000 0.0000
# 5 0.0000 0.0000 0.0000 0.0000 10.9255 0.0000
# 6 0.0000 0.0000 0.0000 0.0000 0.0000 23.7608
#
#
#
# Elastic Compliance Matrix: (Units=1/GPa)
#
#
# Indices 1 2 3 4 5 6 
#
# 1 0.017305 -0.003738 -0.004330 0.000000 0.000000 0.000000
# 2 -0.003738 0.017305 -0.004330 0.000000 0.000000 0.000000
# 3 -0.004330 -0.004330 0.017463 0.000000 0.000000 0.000000
# 4 0.000000 0.000000 0.000000 0.091529 0.000000 0.000000
# 5 0.000000 0.000000 0.000000 0.000000 0.091529 0.000000
# 6 0.000000 0.000000 0.000000 0.000000 0.000000 0.042086
#
#
# Mechanical properties :
#
#
# Convention : Reuss Voigt Hill
#
# Bulk Modulus (GPa) = 36.66157 36.66928 36.66542
# Shear Modulus (GPa) = 16.07164 18.43368 17.25266
#
# Velocity S-wave (km/s) = 2.88346 3.08808 2.98752
# Velocity P-wave (km/s) = 5.48195 5.62895 5.55594
#
# Compressibility (1/GPa) = 0.02727652
#
# Stress axis : x y z
#
# Youngs Moduli (GPa) = 57.78618 57.78618 57.26271
#
# Poissons Ratio (x) = 0.21600 0.24797
# Poissons Ratio (y) = 0.21600 0.24797
# Poissons Ratio (z) = 0.25024 0.25024
#
# Static dielectric constant tensor:
#      x y z
#    x 3.780530 0.000000 0.000000 
#    y 0.000000 3.780530 0.000000 
#    z 0.000000 0.000000 3.526360 
# 
# 
# High freq. dielectric constant tensor:
#      x y z
#    x 1.741880 0.000000 0.000000 
#    y 0.000000 1.741880 0.000000 
#    z 0.000000 0.000000 1.746260 
# 
# From -- ./inp_files/8871.got.cif
#   From: 2010.03.12/outbox.cif.g09.slc.cpg/sg181_5_cif.got.tgz:8871.got - 2010.04.01 11:42:41.
