data_PCOD8326651
_publ_section_title
;
Structure prediction by ZEFSAII (Michael W. Deem and Ramdas Pophale) SiO2 
 PCOD8326651
Probable space group: P 63 C M
;
_chemical_formula_sum "Si O2"
_cell_formula_units_Z 96
_cell_length_a 24.154112
_cell_length_b 24.154112
_cell_length_c 12.211497
_cell_angle_alpha 90.000000
_cell_angle_beta 90.000000
_cell_angle_gamma 120.000000
_cell_volume 6169.950649
_symmetry_space_group_name_H-M "P 63 C M"
_symmetry_group_IT_number 185
_symmetry_cell_setting 'hexagonal'
loop_
_space_group_symop_operation_xyz
x,y,z
x-y,x,1/2+z
-y,x-y,z
-x,-y,1/2+z
-x+y,-x,z
y,-x+y,1/2+z
-x+y,y,1/2+z
x,x-y,1/2+z
-y,-x,1/2+z
y,x,z
x-y,-y,z
-x,-x+y,z
loop_
_atom_site_type_symbol
_atom_site_label
_atom_site_fract_x
_atom_site_fract_y
_atom_site_fract_z
Si Si1 0.624522 0.700463 0.320940
Si Si2 0.266084 0.193733 0.682253
Si Si3 0.076235 0.596917 0.680367
Si Si4 0.434786 0.358485 0.454844
Si Si5 0.076273 0.601897 0.222252
Si Si6 0.759308 0.687118 0.946553
Si Si7 0.375174 0.075538 0.569709
Si Si8 0.804984 0.729868 0.719324
O O1 0.660164 0.660164 0.322676
O O2 0.668196 0.764664 0.250630
O O3 0.555094 0.657398 0.263455
O O4 0.614312 0.717501 0.445563
O O5 0.213771 0.213771 0.717467
O O6 0.277630 0.202188 0.553265
O O7 0.237223 0.117804 0.695475
O O8 0.102025 0.620310 0.558072
O O9 0.103320 0.549596 0.705712
O O10 0.000000 0.559399 0.686026
O O11 0.397244 0.397244 0.457821
O O12 0.471793 0.369339 0.341574
O O13 0.388296 0.282455 0.468145
O O14 0.102445 0.659105 0.132245
O O15 0.000000 0.564549 0.218632
O O16 0.709159 0.709159 0.912160
O O17 0.803182 0.702646 0.840503
O O18 0.329062 0.094052 0.636285
O O19 0.342270 0.000000 0.564259
O O20 0.782719 0.782719 0.711535
#
# Coordination Sequence:
#
# PCOD8326651 Si02
#       8
#    12  12  12  12  12  12  12  12
#     4   9  17  28  40  58  86 115 143 177 217 261
#     4  10  20  33  49  67  87 113 148 191 241 296
#     4   9  16  23  35  56  82 115 149 176 199 228
#     4   9  14  24  38  52  77 113 151 180 202 236
#     4   9  16  23  35  56  82 115 149 176 199 228
#     4   9  16  30  47  62  83 113 150 186 219 268
#     4   9  17  28  40  58  86 115 143 177 217 261
#     4  10  20  33  49  67  87 113 148 191 241 296
#
# _framework density 15.559282
#
# number of rings (size 3 to 8) (size 9 to 14) (size 15 to 20)
#    0.000    2.750    2.500    0.000    3.500    0.000 
#    0.000    0.000    0.000    0.250    0.000    0.000 
#    0.000    0.000    0.000    0.750    0.000    5.000 
#
# Total GULP energy -1189344.393640 kJ/mol
# GULP energy per Si atom -12389.004100 kJ/mol
# Density = 1.552387 g / cm^3
# Si number density = 15.559282 Si / 1000 Ang^3
#
#
#
# Elastic Constant Matrix: (Units=GPa)
#
#
# Indices 1 2 3 4 5 6 
#
# 1 57.7580 33.0415 24.7488 0.0000 0.0000 0.0000
# 2 33.0415 57.7580 24.7488 0.0000 0.0000 0.0000
# 3 24.7488 24.7488 119.9405 0.0000 0.0000 0.0000
# 4 0.0000 0.0000 0.0000 12.9148 0.0000 0.0000
# 5 0.0000 0.0000 0.0000 0.0000 12.9148 0.0000
# 6 0.0000 0.0000 0.0000 0.0000 0.0000 12.3583
#
#
#
# Elastic Compliance Matrix: (Units=1/GPa)
#
#
# Indices 1 2 3 4 5 6 
#
# 1 0.026434 -0.014025 -0.002561 0.000000 0.000000 0.000000
# 2 -0.014025 0.026434 -0.002561 0.000000 0.000000 0.000000
# 3 -0.002561 -0.002561 0.009394 0.000000 0.000000 0.000000
# 4 0.000000 0.000000 0.000000 0.077431 0.000000 0.000000
# 5 0.000000 0.000000 0.000000 0.000000 0.077431 0.000000
# 6 0.000000 0.000000 0.000000 0.000000 0.000000 0.080918
#
#
# Mechanical properties :
#
#
# Convention : Reuss Voigt Hill
#
# Bulk Modulus (GPa) = 41.71835 44.50384 43.11109
# Shear Modulus (GPa) = 14.52125 17.83206 16.17666
#
# Velocity S-wave (km/s) = 3.05829 3.38904 3.22790
# Velocity P-wave (km/s) = 6.27228 6.63167 6.45448
#
# Compressibility (1/GPa) = 0.02397027
#
# Stress axis : x y z
#
# Youngs Moduli (GPa) = 37.83015 37.83015 106.44920
#
# Poissons Ratio (x) = 0.53056 0.27257
# Poissons Ratio (y) = 0.53056 0.27257
# Poissons Ratio (z) = 0.09686 0.09686
#
# Static dielectric constant tensor:
#      x y z
#    x 2.666060 0.000000 0.000000 
#    y 0.000000 2.666060 0.000000 
#    z 0.000000 0.000000 3.311540 
# 
# 
# High freq. dielectric constant tensor:
#      x y z
#    x 1.550530 0.000000 0.000000 
#    y 0.000000 1.550530 0.000000 
#    z 0.000000 0.000000 1.621700 
# 
# From -- ./inp_files/1084.got.cif
#   From: 2010.03.12/outbox.cif.g09.slc.cpg/sg185_cif.got.tgz:1084.got - 2010.04.01 11:55:19.
