data_PCOD8326740
_publ_section_title
;
Structure prediction by ZEFSAII (Michael W. Deem and Ramdas Pophale) SiO2 
 PCOD8326740
Probable space group: P 63 M C
;
_chemical_formula_sum "Si O2"
_cell_formula_units_Z 84
_cell_length_a 20.340743
_cell_length_b 20.340743
_cell_length_c 13.582599
_cell_angle_alpha 90.000000
_cell_angle_beta 90.000000
_cell_angle_gamma 120.000000
_cell_volume 4866.840755
_symmetry_space_group_name_H-M "P 63 M C"
_symmetry_group_IT_number 186
_symmetry_cell_setting 'hexagonal'
loop_
_space_group_symop_operation_xyz
x,y,z
x-y,x,1/2+z
-y,x-y,z
-x,-y,1/2+z
-x+y,-x,z
y,-x+y,1/2+z
-x+y,y,z
x,x-y,z
-y,-x,z
y,x,1/2+z
x-y,-y,1/2+z
-x,-x+y,1/2+z
loop_
_atom_site_type_symbol
_atom_site_label
_atom_site_fract_x
_atom_site_fract_y
_atom_site_fract_z
Si Si1 0.389941 0.921803 0.082300
Si Si2 0.380324 0.470250 0.514258
Si Si3 0.250767 0.896960 0.188539
Si Si4 0.272270 0.062403 0.488248
Si Si5 0.143820 0.709237 0.900449
Si Si6 0.484968 0.818170 0.705270
Si Si7 0.242409 0.911505 0.408028
O O1 0.447898 0.895796 0.120453
O O2 0.329185 0.899576 0.167927
O O3 0.431539 0.011334 0.070557
O O4 0.358715 0.882161 0.977105
O O5 0.448006 0.551994 0.468733
O O6 0.332174 0.484795 0.596110
O O7 0.319682 0.408677 0.437871
O O8 0.191654 0.808347 0.189185
O O9 0.230197 0.938059 0.102782
O O10 0.251006 0.933453 0.292953
O O11 0.234201 0.117101 0.474532
O O12 0.344960 0.094889 0.417808
O O13 0.224504 0.973391 0.459687
O O14 0.232087 0.767913 0.921368
O O15 0.132240 0.680441 0.787750
O O16 0.412570 0.825139 0.731556
O O17 0.461854 0.730927 0.710156
O O18 0.170860 0.829141 0.430785
#
# Coordination Sequence:
#
# PCOD8326740 Si02
#       7
#    12  12  12  12  12  12  12
#     4  10  18  30  49  71  98 134 172 212 257 308
#     4  10  21  33  47  72 103 136 178 218 260 305
#     4   9  19  34  52  73 104 137 167 212 263 311
#     4   9  18  35  54  75 106 136 165 207 267 321
#     4   9  17  30  50  72  98 127 161 208 260 315
#     4  10  20  33  48  69  98 132 167 207 256 308
#     4  11  21  35  56  80 107 138 180 222 259 316
#
# _framework density 17.259657000000001
#
# number of rings (size 3 to 8) (size 9 to 14) (size 15 to 20)
#    0.000    2.286    2.857    2.286    2.000    0.571 
#    0.000    0.714    0.000    3.714    0.000    0.000 
#    0.000    0.000    0.000    0.000    0.000    0.000 
#
# Total GULP energy -1040732.914329 kJ/mol
# GULP energy per Si atom -12389.677552 kJ/mol
# Density = 1.722037 g / cm^3
# Si number density = 17.259657 Si / 1000 Ang^3
#
#
#
# Elastic Constant Matrix: (Units=GPa)
#
#
# Indices 1 2 3 4 5 6 
#
# 1 73.0202 25.1260 28.8797 0.0000 0.0000 0.0000
# 2 25.1260 73.0202 28.8797 0.0000 0.0000 0.0000
# 3 28.8797 28.8797 73.7650 0.0000 0.0000 0.0000
# 4 0.0000 0.0000 0.0000 21.2414 0.0000 0.0000
# 5 0.0000 0.0000 0.0000 0.0000 21.2414 0.0000
# 6 0.0000 0.0000 0.0000 0.0000 0.0000 23.9471
#
#
#
# Elastic Compliance Matrix: (Units=1/GPa)
#
#
# Indices 1 2 3 4 5 6 
#
# 1 0.017059 -0.003820 -0.005183 0.000000 0.000000 0.000000
# 2 -0.003820 0.017059 -0.005183 0.000000 0.000000 0.000000
# 3 -0.005183 -0.005183 0.017615 0.000000 0.000000 0.000000
# 4 0.000000 0.000000 0.000000 0.047078 0.000000 0.000000
# 5 0.000000 0.000000 0.000000 0.000000 0.047078 0.000000
# 6 0.000000 0.000000 0.000000 0.000000 0.000000 0.041759
#
#
# Mechanical properties :
#
#
# Convention : Reuss Voigt Hill
#
# Bulk Modulus (GPa) = 42.80726 42.84181 42.82454
# Shear Modulus (GPa) = 22.34054 22.41399 22.37727
#
# Velocity S-wave (km/s) = 3.60165 3.60757 3.60461
# Velocity P-wave (km/s) = 6.49243 6.49835 6.49539
#
# Compressibility (1/GPa) = 0.02336052
#
# Stress axis : x y z
#
# Youngs Moduli (GPa) = 58.61905 58.61905 56.76924
#
# Poissons Ratio (x) = 0.22393 0.29425
# Poissons Ratio (y) = 0.22393 0.29425
# Poissons Ratio (z) = 0.30384 0.30384
#
# Static dielectric constant tensor:
#      x y z
#    x 3.312960 0.000000 0.000000 
#    y 0.000000 3.312960 0.000000 
#    z 0.000000 0.000000 3.267200 
# 
# 
# High freq. dielectric constant tensor:
#      x y z
#    x 1.656240 0.000000 0.000000 
#    y 0.000000 1.656240 0.000000 
#    z 0.000000 0.000000 1.662730 
# 
# From -- ./inp_files/1884.got.cif
#   From: 2010.03.12/outbox.cif.g09.slc.cpg/sg186_1_cif.got.tgz:1884.got - 2010.04.01 11:56:34.
