data_PCOD8326488
_publ_section_title
;
Structure prediction by ZEFSAII (Michael W. Deem and Ramdas Pophale) SiO2 
 PCOD8326488
Probable space group: P 63 2 2
;
_chemical_formula_sum "Si O2"
_cell_formula_units_Z 52
_cell_length_a 14.740002
_cell_length_b 14.740002
_cell_length_c 13.835691
_cell_angle_alpha 90.000000
_cell_angle_beta 90.000000
_cell_angle_gamma 120.000000
_cell_volume 2603.314101
_symmetry_space_group_name_H-M "P 63 2 2"
_symmetry_group_IT_number 182
_symmetry_cell_setting 'hexagonal'
loop_
_space_group_symop_operation_xyz
x,y,z
x-y,x,1/2+z
-y,x-y,z
-x,-y,1/2+z
-x+y,-x,z
y,-x+y,1/2+z
x-y,-y,-z
-x,-x+y,-z
y,x,-z
-y,-x,1/2-z
-x+y,y,1/2-z
x,x-y,1/2-z
loop_
_atom_site_type_symbol
_atom_site_label
_atom_site_fract_x
_atom_site_fract_y
_atom_site_fract_z
Si Si1 0.968400 0.663040 0.158442
Si Si2 0.276333 0.432106 0.023681
Si Si3 0.094322 0.188644 0.750000
Si Si4 0.492365 0.984729 0.250000
Si Si5 0.000000 0.000000 0.615188
Si Si6 0.392743 0.894523 0.053759
O O1 0.958562 0.739839 0.234382
O O2 0.943780 0.554748 0.211105
O O3 0.085750 0.719132 0.115102
O O4 0.884777 0.637122 0.073192
O O5 0.189704 0.462760 0.041762
O O6 0.388678 0.534923 0.005803
O O7 0.076533 0.116995 0.655454
O O8 0.414984 0.910415 0.167268
O O9 0.000000 0.000000 0.500000
O O10 0.414651 0.000000 0.000000
#
# Coordination Sequence:
#
# PCOD8326488 Si02
#       6
#    12  12   6   6   4  12
#     4  10  22  42  62  98 137 168 222 276 325 406
#     4  10  22  42  65  94 138 173 218 280 329 393
#     4  10  24  42  68  95 128 185 214 272 352 396
#     4  10  22  42  64  93 136 161 222 274 314 400
#     4  10  26  49  64  95 142 160 242 295 316 416
#     4  11  22  41  65  96 130 176 221 270 332 398
#
# _framework density 19.974539
#
# number of rings (size 3 to 8) (size 9 to 14) (size 15 to 20)
#    0.000    1.846    4.615    0.462    6.462    7.385 
#    0.000    0.000    0.000    1.846    0.000    0.000 
#    0.000    0.000    0.000    0.000    0.000    0.000 
#
# Total GULP energy -644858.675863 kJ/mol
# GULP energy per Si atom -12401.128382 kJ/mol
# Density = 1.992908 g / cm^3
# Si number density = 19.974539 Si / 1000 Ang^3
#
#
#
# Elastic Constant Matrix: (Units=GPa)
#
#
# Indices 1 2 3 4 5 6 
#
# 1 123.0564 53.9727 42.3329 0.0000 0.0000 0.0000
# 2 53.9727 123.0564 42.3329 0.0000 0.0000 0.0000
# 3 42.3329 42.3329 114.6257 0.0000 0.0000 0.0000
# 4 0.0000 0.0000 0.0000 26.8994 0.0000 0.0000
# 5 0.0000 0.0000 0.0000 0.0000 26.8994 0.0000
# 6 0.0000 0.0000 0.0000 0.0000 0.0000 34.5419
#
#
#
# Elastic Compliance Matrix: (Units=1/GPa)
#
#
# Indices 1 2 3 4 5 6 
#
# 1 0.010668 -0.003807 -0.002534 0.000000 0.000000 0.000000
# 2 -0.003807 0.010668 -0.002534 0.000000 0.000000 0.000000
# 3 -0.002534 -0.002534 0.010596 0.000000 0.000000 0.000000
# 4 0.000000 0.000000 0.000000 0.037176 0.000000 0.000000
# 5 0.000000 0.000000 0.000000 0.000000 0.037176 0.000000
# 6 0.000000 0.000000 0.000000 0.000000 0.000000 0.028950
#
#
# Mechanical properties :
#
#
# Convention : Reuss Voigt Hill
#
# Bulk Modulus (GPa) = 70.51283 70.89062 70.70172
# Shear Modulus (GPa) = 31.70387 32.47480 32.08934
#
# Velocity S-wave (km/s) = 3.98831 4.03651 4.01248
# Velocity P-wave (km/s) = 7.52242 7.56915 7.54582
#
# Compressibility (1/GPa) = 0.01418182
#
# Stress axis : x y z
#
# Youngs Moduli (GPa) = 93.73944 93.73944 94.37960
#
# Poissons Ratio (x) = 0.35690 0.23913
# Poissons Ratio (y) = 0.35690 0.23913
# Poissons Ratio (z) = 0.23751 0.23751
#
# Static dielectric constant tensor:
#      x y z
#    x 3.616000 0.000000 0.000000 
#    y 0.000000 3.616000 0.000000 
#    z 0.000000 0.000000 3.853970 
# 
# 
# High freq. dielectric constant tensor:
#      x y z
#    x 1.775440 0.000000 0.000000 
#    y 0.000000 1.775440 0.000000 
#    z 0.000000 0.000000 1.784930 
# 
# From -- ./inp_files/3412.got.cif
#   From: 2010.03.12/outbox.cif.g09.slc.cpg/sg182_2_cif.got.tgz:3412.got - 2010.04.01 11:49:36.
