data_PCOD8326490
_publ_section_title
;
Structure prediction by ZEFSAII (Michael W. Deem and Ramdas Pophale) SiO2 
 PCOD8326490
Probable space group: P 63 2 2
;
_chemical_formula_sum "Si O2"
_cell_formula_units_Z 74
_cell_length_a 12.797684
_cell_length_b 12.797684
_cell_length_c 24.888906
_cell_angle_alpha 90.000000
_cell_angle_beta 90.000000
_cell_angle_gamma 120.000000
_cell_volume 3530.199133
_symmetry_space_group_name_H-M "P 63 2 2"
_symmetry_group_IT_number 182
_symmetry_cell_setting 'hexagonal'
loop_
_space_group_symop_operation_xyz
x,y,z
x-y,x,1/2+z
-y,x-y,z
-x,-y,1/2+z
-x+y,-x,z
y,-x+y,1/2+z
x-y,-y,-z
-x,-x+y,-z
y,x,-z
-y,-x,1/2-z
-x+y,y,1/2-z
x,x-y,1/2-z
loop_
_atom_site_type_symbol
_atom_site_label
_atom_site_fract_x
_atom_site_fract_y
_atom_site_fract_z
Si Si1 0.333334 0.666667 0.186007
Si Si2 0.513332 0.256666 0.250000
Si Si3 0.243399 0.339123 0.662194
Si Si4 0.567112 0.665590 0.955342
Si Si5 0.207948 0.208152 0.124088
Si Si6 0.676175 0.579169 0.456154
Si Si7 0.000000 0.000000 0.936435
Si Si8 0.231302 0.834255 0.189394
O O1 0.333334 0.666667 0.250000
O O2 0.293089 0.761101 0.163888
O O3 0.597637 0.195273 0.250000
O O4 0.438140 0.211929 0.194858
O O5 0.290681 0.367335 0.601309
O O6 0.108645 0.219654 0.662345
O O7 0.343076 0.320303 0.692445
O O8 0.445484 0.542746 0.943758
O O9 0.543144 0.770048 0.977722
O O10 0.648559 0.648559 0.000000
O O11 0.339738 0.278673 0.096882
O O12 0.190526 0.305595 0.155883
O O13 0.097584 0.134435 0.083165
O O14 0.659587 0.659587 0.500000
O O15 0.000000 0.000000 0.000000
O O16 0.203515 0.796486 0.250000
#
# Coordination Sequence:
#
# PCOD8326490 Si02
#       8
#     4   6  12  12  12  12   4  12
#     4   9  24  45  66  96 126 192 228 279 339 409
#     4  10  26  42  68 108 142 182 238 282 372 424
#     4  11  24  42  69 100 139 177 232 296 347 427
#     4  10  24  42  66  99 132 181 226 285 354 421
#     4  11  24  42  66 102 131 179 227 278 363 409
#     4  10  23  40  66  94 134 174 222 281 345 418
#     4  12  24  45  70 101 136 177 231 291 352 437
#     4  11  24  43  68  96 139 179 231 280 346 421
#
# _framework density 20.961988999999999
#
# number of rings (size 3 to 8) (size 9 to 14) (size 15 to 20)
#    0.162    1.297    1.622    1.784    9.081    4.541 
#    0.000    0.000    0.000    0.324    0.000    0.000 
#    0.000    0.000    0.000    0.000    0.000    0.000 
#
# Total GULP energy -917252.552862 kJ/mol
# GULP energy per Si atom -12395.304768 kJ/mol
# Density = 2.091428 g / cm^3
# Si number density = 20.961989 Si / 1000 Ang^3
#
#
#
# Elastic Constant Matrix: (Units=GPa)
#
#
# Indices 1 2 3 4 5 6 
#
# 1 123.6701 46.2032 35.5243 -0.0002 -0.0013 -0.0001
# 2 46.2032 123.6694 35.5241 -0.0005 0.0003 -0.0002
# 3 35.5243 35.5241 86.5851 -0.0003 -0.0014 -0.0002
# 4 -0.0002 -0.0005 -0.0003 98.4330 -0.0279 -0.0008
# 5 -0.0013 0.0003 -0.0014 -0.0279 98.4122 -0.0001
# 6 -0.0001 -0.0002 -0.0002 -0.0008 -0.0001 38.7333
#
#
#
# Elastic Compliance Matrix: (Units=1/GPa)
#
#
# Indices 1 2 3 4 5 6 
#
# 1 0.010007 -0.002901 -0.002916 0.000000 0.000000 0.000000
# 2 -0.002901 0.010008 -0.002916 0.000000 0.000000 0.000000
# 3 -0.002916 -0.002916 0.013942 0.000000 0.000000 0.000000
# 4 0.000000 0.000000 0.000000 0.010159 0.000003 0.000000
# 5 0.000000 0.000000 0.000000 0.000003 0.010161 0.000000
# 6 0.000000 0.000000 0.000000 0.000000 0.000000 0.025818
#
#
# Mechanical properties :
#
#
# Convention : Reuss Voigt Hill
#
# Bulk Modulus (GPa) = 60.63574 63.15866 61.89720
# Shear Modulus (GPa) = 48.51692 61.56054 55.03873
#
# Velocity S-wave (km/s) = 4.81616 5.42508 5.12966
# Velocity P-wave (km/s) = 7.74058 8.33291 8.04220
#
# Compressibility (1/GPa) = 0.01649192
#
# Stress axis : x y z
#
# Youngs Moduli (GPa) = 99.92551 99.92505 71.72729
#
# Poissons Ratio (x) = 0.28992 0.20912
# Poissons Ratio (y) = 0.28992 0.20912
# Poissons Ratio (z) = 0.29134 0.29133
#
# Static dielectric constant tensor:
#      x y z
#    x 4.094670 -0.000030 -0.000020 
#    y -0.000030 4.094720 0.000000 
#    z -0.000020 0.000000 3.697730 
# 
# 
# High freq. dielectric constant tensor:
#      x y z
#    x 1.834070 0.000000 0.000000 
#    y 0.000000 1.834070 0.000000 
#    z 0.000000 0.000000 1.809570 
# 
# From -- ./inp_files/5777.got.cif
#   From: 2010.03.12/outbox.cif.g09.slc.cpg/sg182_3_cif.got.tgz:5777.got - 2010.04.01 11:49:36.
