data_PCOD8326423
_publ_section_title
;
Structure prediction by ZEFSAII (Michael W. Deem and Ramdas Pophale) SiO2 
 PCOD8326423
Probable space group: P 64 2 2
;
_chemical_formula_sum "Si O2"
_cell_formula_units_Z 66
_cell_length_a 11.360225
_cell_length_b 11.360225
_cell_length_c 27.917530
_cell_angle_alpha 90.000000
_cell_angle_beta 90.000000
_cell_angle_gamma 120.000000
_cell_volume 3120.193224
_symmetry_space_group_name_H-M "P 64 2 2"
_symmetry_group_IT_number 181
_symmetry_cell_setting 'hexagonal'
loop_
_space_group_symop_operation_xyz
x,y,z
x-y,x,2/3+z
-y,x-y,1/3+z
-x,-y,z
-x+y,-x,2/3+z
y,-x+y,1/3+z
x-y,-y,-z
-x,-x+y,2/3-z
y,x,1/3-z
-y,-x,1/3-z
-x+y,y,-z
x,x-y,2/3-z
loop_
_atom_site_type_symbol
_atom_site_label
_atom_site_fract_x
_atom_site_fract_y
_atom_site_fract_z
Si Si1 0.421207 0.078385 0.870462
Si Si2 0.242802 0.316739 0.711738
Si Si3 0.381095 0.618906 0.666667
Si Si4 0.699696 0.650303 0.889964
Si Si5 0.798771 0.354073 0.087645
Si Si6 0.136960 0.994510 0.556213
O O1 0.525657 0.239170 0.872527
O O2 0.500000 0.000000 0.858321
O O3 0.353623 0.045719 0.922297
O O4 0.310352 0.027927 0.827547
O O5 0.216440 0.216440 0.666667
O O6 0.317465 0.471646 0.692230
O O7 0.107434 0.261979 0.744608
O O8 0.382160 0.720821 0.705733
O O9 0.587481 0.652052 0.925051
O O10 0.663933 0.494085 0.886490
O O11 0.850376 0.741955 0.910387
O O12 0.176109 0.000000 0.500000
O O13 0.000000 0.000000 0.563174
#
# Coordination Sequence:
#
# PCOD8326423 Si02
#       6
#    12  12   6  12  12  12
#     4  12  20  38  74 102 133 173 234 301 347 417
#     4  12  23  43  70 108 141 178 238 297 364 424
#     4  12  25  44  70 102 143 184 238 298 353 440
#     4  11  25  44  67 103 138 184 235 288 362 426
#     4  11  24  42  67 100 137 179 234 290 356 415
#     4  11  25  45  70 102 143 186 237 292 362 444
#
# _framework density 21.152538
#
# number of rings (size 3 to 8) (size 9 to 14) (size 15 to 20)
#    0.000    0.545    7.273    1.909    2.545    0.364 
#    6.545    0.000    0.000    1.091    0.000    0.000 
#    0.000    0.000    0.000    0.000    0.000    0.000 
#
# Total GULP energy -817742.195283 kJ/mol
# GULP energy per Si atom -12390.033262 kJ/mol
# Density = 2.110439 g / cm^3
# Si number density = 21.152538 Si / 1000 Ang^3
#
#
#
# Elastic Constant Matrix: (Units=GPa)
#
#
# Indices 1 2 3 4 5 6 
#
# 1 133.5560 66.7709 46.0191 0.0000 0.0000 0.0000
# 2 66.7709 133.5560 46.0191 0.0000 0.0000 0.0000
# 3 46.0191 46.0191 150.2574 0.0000 0.0000 0.0000
# 4 0.0000 0.0000 0.0000 35.4456 0.0000 0.0000
# 5 0.0000 0.0000 0.0000 0.0000 35.4456 0.0000
# 6 0.0000 0.0000 0.0000 0.0000 0.0000 33.3925
#
#
#
# Elastic Compliance Matrix: (Units=1/GPa)
#
#
# Indices 1 2 3 4 5 6 
#
# 1 0.010391 -0.004582 -0.001779 0.000000 0.000000 0.000000
# 2 -0.004582 0.010391 -0.001779 0.000000 0.000000 0.000000
# 3 -0.001779 -0.001779 0.007745 0.000000 0.000000 0.000000
# 4 0.000000 0.000000 0.000000 0.028212 0.000000 0.000000
# 5 0.000000 0.000000 0.000000 0.000000 0.028212 0.000000
# 6 0.000000 0.000000 0.000000 0.000000 0.000000 0.029947
#
#
# Mechanical properties :
#
#
# Convention : Reuss Voigt Hill
#
# Bulk Modulus (GPa) = 81.65375 81.66526 81.65951
# Shear Modulus (GPa) = 36.96522 38.09409 37.52965
#
# Velocity S-wave (km/s) = 4.18491 4.24833 4.21674
# Velocity P-wave (km/s) = 7.87639 7.92187 7.89916
#
# Compressibility (1/GPa) = 0.01224683
#
# Stress axis : x y z
#
# Youngs Moduli (GPa) = 96.23397 96.23397 129.11439
#
# Poissons Ratio (x) = 0.44095 0.22972
# Poissons Ratio (y) = 0.44095 0.22972
# Poissons Ratio (z) = 0.17122 0.17122
#
# Static dielectric constant tensor:
#      x y z
#    x 3.922350 0.000000 0.000000 
#    y 0.000000 3.922350 0.000000 
#    z 0.000000 0.000000 3.976060 
# 
# 
# High freq. dielectric constant tensor:
#      x y z
#    x 1.822780 0.000000 0.000000 
#    y 0.000000 1.822780 0.000000 
#    z 0.000000 0.000000 1.835030 
# 
# From -- ./inp_files/12276.got.cif
#   From: 2010.03.12/outbox.cif.g09.slc.cpg/sg181_7_cif.got.tgz:12276.got - 2010.04.01 11:42:41.
