data_PCOD8326377
_publ_section_title
;
Structure prediction by ZEFSAII (Michael W. Deem and Ramdas Pophale) SiO2 
 PCOD8326377
Probable space group: P 64 2 2
;
_chemical_formula_sum "Si O2"
_cell_formula_units_Z 48
_cell_length_a 15.917255
_cell_length_b 15.917255
_cell_length_c 10.662152
_cell_angle_alpha 90.000000
_cell_angle_beta 90.000000
_cell_angle_gamma 120.000000
_cell_volume 2339.439665
_symmetry_space_group_name_H-M "P 64 2 2"
_symmetry_group_IT_number 181
_symmetry_cell_setting 'hexagonal'
loop_
_space_group_symop_operation_xyz
x,y,z
x-y,x,2/3+z
-y,x-y,1/3+z
-x,-y,z
-x+y,-x,2/3+z
y,-x+y,1/3+z
x-y,-y,-z
-x,-x+y,2/3-z
y,x,1/3-z
-y,-x,1/3-z
-x+y,y,-z
x,x-y,2/3-z
loop_
_atom_site_type_symbol
_atom_site_label
_atom_site_fract_x
_atom_site_fract_y
_atom_site_fract_z
Si Si1 0.423333 0.211667 0.333334
Si Si2 0.708751 0.108111 0.220807
Si Si3 0.115401 0.548914 0.975683
Si Si4 0.900948 0.182362 0.889415
Si Si5 0.274984 0.000000 0.000000
O O1 0.486139 0.326058 0.364826
O O2 0.359169 0.161099 0.452794
O O3 0.803005 0.196996 0.166667
O O4 0.637561 0.148114 0.260488
O O5 0.730273 0.063020 0.343967
O O6 0.674122 0.027381 0.111726
O O7 0.155302 0.577651 0.833334
O O8 0.000000 0.500000 0.976141
O O9 0.000000 0.190536 0.833334
O O10 0.832488 0.081134 0.957153
#
# Coordination Sequence:
#
# PCOD8326377 Si02
#       5
#     6  12  12  12   6
#     4  12  24  38  70  99 126 181 226 274 342 404
#     4  10  22  41  62  93 133 168 212 272 331 403
#     4  11  22  40  65  96 129 169 225 277 328 400
#     4  11  21  39  65  95 129 170 228 273 331 409
#     4  10  22  40  67  95 130 180 214 278 358 398
#
# _framework density 20.517731999999999
#
# number of rings (size 3 to 8) (size 9 to 14) (size 15 to 20)
#    0.000    1.250    2.500    4.500    0.000    1.000 
#    0.000   10.625    0.000   34.500    0.000    0.000 
#    0.000    0.000    0.000    0.000    0.000    0.000 
#
# Total GULP energy -594935.283056 kJ/mol
# GULP energy per Si atom -12394.485064 kJ/mol
# Density = 2.047103 g / cm^3
# Si number density = 20.517732 Si / 1000 Ang^3
#
#
#
# Elastic Constant Matrix: (Units=GPa)
#
#
# Indices 1 2 3 4 5 6 
#
# 1 105.5936 46.8747 50.9577 0.0000 0.0000 0.0000
# 2 46.8747 105.5936 50.9577 0.0000 0.0000 0.0000
# 3 50.9577 50.9577 150.4587 0.0000 0.0000 0.0000
# 4 0.0000 0.0000 0.0000 72.9775 0.0000 0.0000
# 5 0.0000 0.0000 0.0000 0.0000 72.9775 0.0000
# 6 0.0000 0.0000 0.0000 0.0000 0.0000 29.3594
#
#
#
# Elastic Compliance Matrix: (Units=1/GPa)
#
#
# Indices 1 2 3 4 5 6 
#
# 1 0.012754 -0.004276 -0.002871 0.000000 0.000000 0.000000
# 2 -0.004276 0.012754 -0.002871 0.000000 0.000000 0.000000
# 3 -0.002871 -0.002871 0.008591 0.000000 0.000000 0.000000
# 4 0.000000 0.000000 0.000000 0.013703 0.000000 0.000000
# 5 0.000000 0.000000 0.000000 0.000000 0.013703 0.000000
# 6 0.000000 0.000000 0.000000 0.000000 0.000000 0.034061
#
#
# Mechanical properties :
#
#
# Convention : Reuss Voigt Hill
#
# Bulk Modulus (GPa) = 71.11382 73.24733 72.18058
# Shear Modulus (GPa) = 41.56586 49.25326 45.40956
#
# Velocity S-wave (km/s) = 4.50583 4.90483 4.70955
# Velocity P-wave (km/s) = 7.86161 8.23732 8.05166
#
# Compressibility (1/GPa) = 0.01406196
#
# Stress axis : x y z
#
# Youngs Moduli (GPa) = 78.40562 78.40562 116.39666
#
# Poissons Ratio (x) = 0.33527 0.33422
# Poissons Ratio (y) = 0.33527 0.33422
# Poissons Ratio (z) = 0.22513 0.22513
#
# Static dielectric constant tensor:
#      x y z
#    x 3.915690 0.000000 0.000000 
#    y 0.000000 3.915690 0.000000 
#    z 0.000000 0.000000 4.080630 
# 
# 
# High freq. dielectric constant tensor:
#      x y z
#    x 1.794580 0.000000 0.000000 
#    y 0.000000 1.794580 0.000000 
#    z 0.000000 0.000000 1.821880 
# 
# From -- ./inp_files/4468.got.cif
#   From: 2010.03.12/outbox.cif.g09.slc.cpg/sg181_3_cif.got.tgz:4468.got - 2010.04.01 11:42:41.
