data_PCOD8326860
_publ_section_title
;
Structure prediction by ZEFSAII (Michael W. Deem and Ramdas Pophale) SiO2 
 PCOD8326860
Probable space group: P -6 M 2
;
_chemical_formula_sum "Si O2"
_cell_formula_units_Z 96
_cell_length_a 17.247273
_cell_length_b 17.247273
_cell_length_c 23.325165
_cell_angle_alpha 90.000000
_cell_angle_beta 90.000000
_cell_angle_gamma 120.000000
_cell_volume 6008.917366
_symmetry_space_group_name_H-M "P -6 M 2"
_symmetry_group_IT_number 187
_symmetry_cell_setting 'hexagonal'
loop_
_space_group_symop_operation_xyz
x,y,z
-x+y,-x,-z
-y,x-y,z
x,y,-z
-x+y,-x,z
-y,x-y,-z
-y,-x,-z
-x+y,y,-z
x,x-y,-z
-x+y,y,z
x,x-y,z
-y,-x,z
loop_
_atom_site_type_symbol
_atom_site_label
_atom_site_fract_x
_atom_site_fract_y
_atom_site_fract_z
Si Si1 0.822794 0.999099 0.670642
Si Si2 0.238650 0.933025 0.226114
Si Si3 0.235784 0.295497 0.565183
Si Si4 0.667515 0.153220 0.936293
Si Si5 0.334672 0.841781 0.723986
Si Si6 0.011261 0.592052 0.629293
Si Si7 0.848705 0.515208 0.286752
Si Si8 0.721218 0.099116 0.828461
O O1 0.902578 0.097423 0.685778
O O2 0.857492 0.928746 0.678611
O O3 0.739049 0.974757 0.712293
O O4 0.790047 0.996564 0.605843
O O5 0.138495 0.861506 0.205884
O O6 0.298351 0.885583 0.230377
O O7 0.282510 0.009788 0.178828
O O8 0.230354 0.263380 0.500000
O O9 0.166393 0.332785 0.575254
O O10 0.338502 0.369417 0.578009
O O11 0.577145 0.154290 0.929364
O O12 0.746420 0.253581 0.924799
O O13 0.669792 0.087980 0.888133
O O14 0.675413 0.120051 0.000000
O O15 0.419483 0.838965 0.751162
O O16 0.257801 0.742200 0.707527
O O17 0.363941 0.900005 0.667045
O O18 0.995592 0.497796 0.603767
O O19 0.923984 0.573142 0.666211
O O20 0.759501 0.519001 0.301631
O O21 0.825431 0.412716 0.286451
O O22 0.887038 0.556116 0.224246
O O23 0.821621 0.178380 0.832435
#
# Coordination Sequence:
#
# PCOD8326860 Si02
#       8
#    12  12  12  12  12  12  12  12
#     4  10  19  32  49  69  92 118 147 179 221 273
#     4  10  19  31  48  67  92 121 147 183 231 280
#     4  10  20  34  50  66  87 115 145 181 227 276
#     4   9  17  28  43  65  96 133 167 195 224 261
#     4  10  18  29  45  65  89 115 144 179 222 270
#     4  10  19  31  48  67  90 116 147 185 224 267
#     4  10  19  30  45  68  96 126 154 185 224 268
#     4  10  18  28  45  68  94 123 157 194 230 270
#
# _framework density 15.976255
#
# number of rings (size 3 to 8) (size 9 to 14) (size 15 to 20)
#    0.000    2.125    2.500    1.625    0.000    3.000 
#    0.000    1.250    0.000    1.625    0.000    0.000 
#    0.000    1.000    0.000    0.000    0.000    0.000 
#
# Total GULP energy -1190173.914904 kJ/mol
# GULP energy per Si atom -12397.644947 kJ/mol
# Density = 1.593989 g / cm^3
# Si number density = 15.976255 Si / 1000 Ang^3
#
#
#
# Elastic Constant Matrix: (Units=GPa)
#
#
# Indices 1 2 3 4 5 6 
#
# 1 92.5718 42.5462 39.9969 0.0000 0.0000 0.0000
# 2 42.5462 92.5718 39.9969 0.0000 0.0000 0.0000
# 3 39.9969 39.9969 83.8177 0.0000 0.0000 0.0000
# 4 0.0000 0.0000 0.0000 20.5590 0.0000 0.0000
# 5 0.0000 0.0000 0.0000 0.0000 20.5590 0.0000
# 6 0.0000 0.0000 0.0000 0.0000 0.0000 25.0128
#
#
#
# Elastic Compliance Matrix: (Units=1/GPa)
#
#
# Indices 1 2 3 4 5 6 
#
# 1 0.015152 -0.004837 -0.004922 0.000000 0.000000 0.000000
# 2 -0.004837 0.015152 -0.004922 0.000000 0.000000 0.000000
# 3 -0.004922 -0.004922 0.016628 0.000000 0.000000 0.000000
# 4 0.000000 0.000000 0.000000 0.048641 0.000000 0.000000
# 5 0.000000 0.000000 0.000000 0.000000 0.048641 0.000000
# 6 0.000000 0.000000 0.000000 0.000000 0.000000 0.039980
#
#
# Mechanical properties :
#
#
# Convention : Reuss Voigt Hill
#
# Bulk Modulus (GPa) = 56.91682 57.11570 57.01626
# Shear Modulus (GPa) = 22.78798 22.98756 22.88777
#
# Velocity S-wave (km/s) = 3.78082 3.79734 3.78909
# Velocity P-wave (km/s) = 7.40018 7.41987 7.41003
#
# Compressibility (1/GPa) = 0.01756950
#
# Stress axis : x y z
#
# Youngs Moduli (GPa) = 65.99612 65.99612 60.13836
#
# Poissons Ratio (x) = 0.31925 0.29601
# Poissons Ratio (y) = 0.31925 0.29601
# Poissons Ratio (z) = 0.32485 0.32485
#
# Static dielectric constant tensor:
#      x y z
#    x 3.120100 0.000000 0.000000 
#    y 0.000000 3.120100 0.000000 
#    z 0.000000 0.000000 2.881370 
# 
# 
# High freq. dielectric constant tensor:
#      x y z
#    x 1.616580 0.000000 0.000000 
#    y 0.000000 1.616580 0.000000 
#    z 0.000000 0.000000 1.578360 
# 
# From -- ./inp_files/3720.got.cif
#   From: 2010.03.12/outbox.cif.g09.slc.cpg/sg187_2_cif.got.tgz:3720.got - 2010.04.01 11:58:23.
