data_PCOD8326163
_publ_section_title
;
Structure prediction by ZEFSAII (Michael W. Deem and Ramdas Pophale) SiO2 
 PCOD8326163
Probable space group: P 62 2 2
;
_chemical_formula_sum "Si O2"
_cell_formula_units_Z 69
_cell_length_a 14.103754
_cell_length_b 14.103754
_cell_length_c 19.303985
_cell_angle_alpha 90.000000
_cell_angle_beta 90.000000
_cell_angle_gamma 120.000000
_cell_volume 3325.424191
_symmetry_space_group_name_H-M "P 62 2 2"
_symmetry_group_IT_number 180
_symmetry_cell_setting 'hexagonal'
loop_
_space_group_symop_operation_xyz
x,y,z
x-y,x,1/3+z
-y,x-y,2/3+z
-x,-y,z
-x+y,-x,1/3+z
y,-x+y,2/3+z
x-y,-y,-z
-x,-x+y,1/3-z
y,x,2/3-z
-y,-x,2/3-z
-x+y,y,-z
x,x-y,1/3-z
loop_
_atom_site_type_symbol
_atom_site_label
_atom_site_fract_x
_atom_site_fract_y
_atom_site_fract_z
Si Si1 0.623738 0.890959 0.711666
Si Si2 0.235256 0.070912 0.357844
Si Si3 0.239171 0.864541 0.129196
Si Si4 0.500000 0.000000 0.760625
Si Si5 0.115895 0.761024 0.764408
Si Si6 0.416739 0.805005 0.135023
Si Si7 0.000000 0.000000 0.666667
O O1 0.557823 0.778912 0.666667
O O2 0.637370 0.856418 0.788738
O O3 0.564910 0.962442 0.710518
O O4 0.735352 0.960955 0.670222
O O5 0.313566 0.121028 0.425080
O O6 0.287522 0.162467 0.298588
O O7 0.109809 0.035634 0.378841
O O8 0.312759 0.810658 0.105488
O O9 0.309921 0.989279 0.108133
O O10 0.416579 0.897204 0.806365
O O11 0.167995 0.832006 0.833334
O O12 0.172745 0.686836 0.747148
O O13 0.368025 0.684013 0.166667
#
# Coordination Sequence:
#
# PCOD8326163 Si02
#       7
#    12  12  12   6  12  12   3
#     4  11  23  43  66  88 124 172 221 262 326 389
#     4  12  24  40  63  96 129 170 219 261 327 391
#     4  11  22  40  62  92 130 165 211 277 322 380
#     4  10  20  44  66  92 126 176 208 266 330 398
#     4  11  18  36  66  90 128 174 204 259 327 395
#     4  10  19  37  66  95 131 165 210 266 336 398
#     4  12  24  40  58  90 134 160 212 258 308 396
#
# _framework density 20.749233
#
# number of rings (size 3 to 8) (size 9 to 14) (size 15 to 20)
#    0.000    1.043    7.826    1.043    0.000    1.391 
#    6.261    4.783    0.000    1.043    0.000    0.000 
#    0.000    0.000    0.000    0.000    0.000    0.000 
#
# Total GULP energy -855004.779381 kJ/mol
# GULP energy per Si atom -12391.373614 kJ/mol
# Density = 2.070201 g / cm^3
# Si number density = 20.749233 Si / 1000 Ang^3
#
#
#
# Elastic Constant Matrix: (Units=GPa)
#
#
# Indices 1 2 3 4 5 6 
#
# 1 139.2031 9.1941 34.0642 0.0000 0.0000 0.0000
# 2 9.1941 139.2031 34.0642 0.0000 0.0000 0.0000
# 3 34.0642 34.0642 95.4125 0.0000 0.0000 0.0000
# 4 0.0000 0.0000 0.0000 21.7847 0.0000 0.0000
# 5 0.0000 0.0000 0.0000 0.0000 21.7847 0.0000
# 6 0.0000 0.0000 0.0000 0.0000 0.0000 65.0045
#
#
#
# Elastic Compliance Matrix: (Units=1/GPa)
#
#
# Indices 1 2 3 4 5 6 
#
# 1 0.007876 0.000184 -0.002877 0.000000 0.000000 0.000000
# 2 0.000184 0.007876 -0.002877 0.000000 0.000000 0.000000
# 3 -0.002877 -0.002877 0.012535 0.000000 0.000000 0.000000
# 4 0.000000 0.000000 0.000000 0.045904 0.000000 0.000000
# 5 0.000000 0.000000 0.000000 0.000000 0.045904 0.000000
# 6 0.000000 0.000000 0.000000 0.000000 0.000000 0.015384
#
#
# Mechanical properties :
#
#
# Convention : Reuss Voigt Hill
#
# Bulk Modulus (GPa) = 58.32624 58.71819 58.52221
# Shear Modulus (GPa) = 32.82243 41.48120 37.15181
#
# Velocity S-wave (km/s) = 3.98158 4.47606 4.23604
# Velocity P-wave (km/s) = 7.02199 7.42118 7.22434
#
# Compressibility (1/GPa) = 0.01714494
#
# Stress axis : x y z
#
# Youngs Moduli (GPa) = 126.97214 126.97214 79.77385
#
# Poissons Ratio (x) = -0.02336 0.22955
# Poissons Ratio (y) = -0.02336 0.22955
# Poissons Ratio (z) = 0.36536 0.36536
#
# Static dielectric constant tensor:
#      x y z
#    x 4.854300 0.000000 0.000000 
#    y 0.000000 4.854300 0.000000 
#    z 0.000000 0.000000 3.902580 
# 
# 
# High freq. dielectric constant tensor:
#      x y z
#    x 1.820790 0.000000 0.000000 
#    y 0.000000 1.820790 0.000000 
#    z 0.000000 0.000000 1.777680 
# 
# From -- ./inp_files/7861.got.cif
#   From: 2010.03.12/outbox.cif.g09.slc.cpg/sg180_4_cif.got.tgz:7861.got - 2010.04.01 11:35:50.
