data_PCOD8326200
_publ_section_title
;
Structure prediction by ZEFSAII (Michael W. Deem and Ramdas Pophale) SiO2 
 PCOD8326200
Probable space group: P 62 2 2
;
_chemical_formula_sum "Si O2"
_cell_formula_units_Z 66
_cell_length_a 13.754561
_cell_length_b 13.754561
_cell_length_c 19.425916
_cell_angle_alpha 90.000000
_cell_angle_beta 90.000000
_cell_angle_gamma 120.000000
_cell_volume 3182.772563
_symmetry_space_group_name_H-M "P 62 2 2"
_symmetry_group_IT_number 180
_symmetry_cell_setting 'hexagonal'
loop_
_space_group_symop_operation_xyz
x,y,z
x-y,x,1/3+z
-y,x-y,2/3+z
-x,-y,z
-x+y,-x,1/3+z
y,-x+y,2/3+z
x-y,-y,-z
-x,-x+y,1/3-z
y,x,2/3-z
-y,-x,2/3-z
-x+y,y,-z
x,x-y,1/3-z
loop_
_atom_site_type_symbol
_atom_site_label
_atom_site_fract_x
_atom_site_fract_y
_atom_site_fract_z
Si Si1 0.131821 0.557317 0.562490
Si Si2 0.645263 0.822632 0.666667
Si Si3 0.934268 0.185415 0.030347
Si Si4 0.471171 0.872615 0.738184
Si Si5 0.971174 0.096465 0.761001
Si Si6 0.245481 0.490719 0.336929
O O1 0.162989 0.590730 0.483130
O O2 0.200292 0.668672 0.607457
O O3 0.170231 0.471207 0.593371
O O4 0.000000 0.500000 0.574959
O O5 0.724397 0.789276 0.710842
O O6 0.574787 0.852553 0.720989
O O7 0.879463 0.091487 0.090517
O O8 0.916108 0.118725 0.960276
O O9 0.866272 0.249655 0.022411
O O10 0.373202 0.790697 0.686836
O O11 0.500000 0.000000 0.726245
O O12 0.912751 0.087250 0.833334
O O13 0.000000 0.000000 0.747493
#
# Coordination Sequence:
#
# PCOD8326200 Si02
#       6
#    12   6  12  12  12  12
#     4  10  24  42  65  99 128 164 218 277 330 390
#     4  12  22  43  66  92 139 170 224 276 316 398
#     4  11  22  38  63  94 128 175 214 266 332 393
#     4  11  24  43  66  94 128 176 221 266 332 387
#     4  10  21  37  56  88 133 171 210 257 324 394
#     4  11  22  42  66  92 128 168 218 275 329 386
#
# _framework density 20.736637000000002
#
# number of rings (size 3 to 8) (size 9 to 14) (size 15 to 20)
#    0.000    1.273    3.636    3.273    5.091    2.909 
#    0.000    0.000    0.000    1.091    0.000    0.000 
#    0.000    0.000    0.000    0.000    0.000    0.000 
#
# Total GULP energy -818010.985849 kJ/mol
# GULP energy per Si atom -12394.105846 kJ/mol
# Density = 2.068944 g / cm^3
# Si number density = 20.736637 Si / 1000 Ang^3
#
#
#
# Elastic Constant Matrix: (Units=GPa)
#
#
# Indices 1 2 3 4 5 6 
#
# 1 115.0196 49.6736 40.6198 0.0000 0.0000 0.0000
# 2 49.6736 115.0196 40.6198 0.0000 0.0000 0.0000
# 3 40.6198 40.6198 104.5388 0.0000 0.0000 0.0000
# 4 0.0000 0.0000 0.0000 2.7959 0.0000 0.0000
# 5 0.0000 0.0000 0.0000 0.0000 2.7959 0.0000
# 6 0.0000 0.0000 0.0000 0.0000 0.0000 32.6730
#
#
#
# Elastic Compliance Matrix: (Units=1/GPa)
#
#
# Indices 1 2 3 4 5 6 
#
# 1 0.011407 -0.003896 -0.002919 0.000000 0.000000 0.000000
# 2 -0.003896 0.011407 -0.002919 0.000000 0.000000 0.000000
# 3 -0.002919 -0.002919 0.011834 0.000000 0.000000 0.000000
# 4 0.000000 0.000000 0.000000 0.357670 0.000000 0.000000
# 5 0.000000 0.000000 0.000000 0.000000 0.357670 0.000000
# 6 0.000000 0.000000 0.000000 0.000000 0.000000 0.030606
#
#
# Mechanical properties :
#
#
# Convention : Reuss Voigt Hill
#
# Bulk Modulus (GPa) = 65.86581 66.26715 66.06648
# Shear Modulus (GPa) = 6.21024 21.23061 13.72043
#
# Velocity S-wave (km/s) = 1.73243 3.20319 2.57505
# Velocity P-wave (km/s) = 5.98613 6.76066 6.38515
#
# Compressibility (1/GPa) = 0.01518238
#
# Stress axis : x y z
#
# Youngs Moduli (GPa) = 87.66241 87.66241 84.50200
#
# Poissons Ratio (x) = 0.34151 0.24664
# Poissons Ratio (y) = 0.34151 0.24664
# Poissons Ratio (z) = 0.25586 0.25586
#
# Static dielectric constant tensor:
#      x y z
#    x 4.854980 0.000000 0.000000 
#    y 0.000000 4.854980 0.000000 
#    z 0.000000 0.000000 3.769490 
# 
# 
# High freq. dielectric constant tensor:
#      x y z
#    x 1.819250 0.000000 0.000000 
#    y 0.000000 1.819250 0.000000 
#    z 0.000000 0.000000 1.796740 
# 
# From -- ./inp_files/9126.got.cif
#   From: 2010.03.12/outbox.cif.g09.slc.cpg/sg180_5_cif.got.tgz:9126.got - 2010.04.01 11:35:50.
