data_PCOD8326659
_publ_section_title
;
Structure prediction by ZEFSAII (Michael W. Deem and Ramdas Pophale) SiO2 
 PCOD8326659
Probable space group: P 63 C M
;
_chemical_formula_sum "Si O2"
_cell_formula_units_Z 84
_cell_length_a 14.884139
_cell_length_b 14.884139
_cell_length_c 23.634893
_cell_angle_alpha 90.000000
_cell_angle_beta 90.000000
_cell_angle_gamma 120.000000
_cell_volume 4534.524017
_symmetry_space_group_name_H-M "P 63 C M"
_symmetry_group_IT_number 185
_symmetry_cell_setting 'hexagonal'
loop_
_space_group_symop_operation_xyz
x,y,z
x-y,x,1/2+z
-y,x-y,z
-x,-y,1/2+z
-x+y,-x,z
y,-x+y,1/2+z
-x+y,y,1/2+z
x,x-y,1/2+z
-y,-x,1/2+z
y,x,z
x-y,-y,z
-x,-x+y,z
loop_
_atom_site_type_symbol
_atom_site_label
_atom_site_fract_x
_atom_site_fract_y
_atom_site_fract_z
Si Si1 0.540425 0.806737 0.151190
Si Si2 0.421225 0.300284 0.371834
Si Si3 0.662126 0.445375 0.766391
Si Si4 0.881500 0.760698 0.818497
Si Si5 0.596268 0.121224 0.599076
Si Si6 0.219452 0.668734 0.483066
Si Si7 0.237400 0.118619 0.687650
O O1 0.507856 0.838995 0.209734
O O2 0.490448 0.682593 0.145497
O O3 0.496751 0.851692 0.102410
O O4 0.664825 0.859265 0.148554
O O5 0.356429 0.356429 0.378566
O O6 0.500165 0.352044 0.320645
O O7 0.341758 0.179777 0.357194
O O8 0.482032 0.317966 0.429354
O O9 0.562228 0.329656 0.767863
O O10 0.840723 0.840723 0.828281
O O11 0.867694 0.726044 0.752882
O O12 0.000000 0.816313 0.837793
O O13 0.656108 0.152464 0.538914
O O14 0.552640 0.000000 0.610386
O O15 0.230373 0.565313 0.482269
O O16 0.191007 0.191007 0.667947
O O17 0.147901 0.000000 0.679814
#
# Coordination Sequence:
#
# PCOD8326659 Si02
#       7
#    12  12  12  12  12  12  12
#     4  12  20  38  56  88 122 156 194 244 281 352
#     4  11  21  35  57  86 112 144 193 243 290 344
#     4  10  20  36  55  75 116 161 184 220 288 349
#     4   9  18  32  52  78 113 152 189 232 285 346
#     4  12  23  38  63  89 115 157 201 243 297 344
#     4  10  21  42  64  76 111 151 190 239 296 344
#     4  10  20  35  55  82 119 159 198 239 287 345
#
# _framework density 18.524546999999998
#
# number of rings (size 3 to 8) (size 9 to 14) (size 15 to 20)
#    0.571    0.857    4.286    2.714    0.000    1.714 
#    0.000    3.571    0.000    0.000    0.000    0.000 
#    0.000    2.286    0.000    0.000    0.000    0.000 
#
# Total GULP energy -1041213.203747 kJ/mol
# GULP energy per Si atom -12395.395283 kJ/mol
# Density = 1.848238 g / cm^3
# Si number density = 18.524547 Si / 1000 Ang^3
#
#
#
# Elastic Constant Matrix: (Units=GPa)
#
#
# Indices 1 2 3 4 5 6 
#
# 1 73.0506 13.4892 22.7266 0.0000 0.0000 0.0000
# 2 13.4892 73.0506 22.7266 0.0000 0.0000 0.0000
# 3 22.7266 22.7266 84.0253 0.0000 0.0000 0.0000
# 4 0.0000 0.0000 0.0000 28.9052 0.0000 0.0000
# 5 0.0000 0.0000 0.0000 0.0000 28.9052 0.0000
# 6 0.0000 0.0000 0.0000 0.0000 0.0000 29.7807
#
#
#
# Elastic Compliance Matrix: (Units=1/GPa)
#
#
# Indices 1 2 3 4 5 6 
#
# 1 0.015129 -0.001660 -0.003643 0.000000 0.000000 0.000000
# 2 -0.001660 0.015129 -0.003643 0.000000 0.000000 0.000000
# 3 -0.003643 -0.003643 0.013872 0.000000 0.000000 0.000000
# 4 0.000000 0.000000 0.000000 0.034596 0.000000 0.000000
# 5 0.000000 0.000000 0.000000 0.000000 0.034596 0.000000
# 6 0.000000 0.000000 0.000000 0.000000 0.000000 0.033579
#
#
# Mechanical properties :
#
#
# Convention : Reuss Voigt Hill
#
# Bulk Modulus (GPa) = 38.11328 38.66792 38.39060
# Shear Modulus (GPa) = 28.81203 28.93051 28.87127
#
# Velocity S-wave (km/s) = 3.94806 3.95617 3.95212
# Velocity P-wave (km/s) = 6.43444 6.46433 6.44941
#
# Compressibility (1/GPa) = 0.02623757
#
# Stress axis : x y z
#
# Youngs Moduli (GPa) = 66.09785 66.09785 72.08858
#
# Poissons Ratio (x) = 0.10974 0.26262
# Poissons Ratio (y) = 0.10974 0.26262
# Poissons Ratio (z) = 0.24079 0.24079
#
# Static dielectric constant tensor:
#      x y z
#    x 3.266120 0.000000 0.000000 
#    y 0.000000 3.266120 0.000000 
#    z 0.000000 0.000000 3.244800 
# 
# 
# High freq. dielectric constant tensor:
#      x y z
#    x 1.714590 0.000000 0.000000 
#    y 0.000000 1.714590 0.000000 
#    z 0.000000 0.000000 1.699690 
# 
# From -- ./inp_files/2088.got.cif
#   From: 2010.03.12/outbox.cif.g09.slc.cpg/sg185_cif.got.tgz:2088.got - 2010.04.01 11:55:19.
