data_PCOD8326705
_publ_section_title
;
Structure prediction by ZEFSAII (Michael W. Deem and Ramdas Pophale) SiO2 
 PCOD8326705
Probable space group: P 63 M C
;
_chemical_formula_sum "Si O2"
_cell_formula_units_Z 84
_cell_length_a 22.736554
_cell_length_b 22.736554
_cell_length_c 12.945756
_cell_angle_alpha 90.000000
_cell_angle_beta 90.000000
_cell_angle_gamma 120.000000
_cell_volume 5795.719180
_symmetry_space_group_name_H-M "P 63 M C"
_symmetry_group_IT_number 186
_symmetry_cell_setting 'hexagonal'
loop_
_space_group_symop_operation_xyz
x,y,z
x-y,x,1/2+z
-y,x-y,z
-x,-y,1/2+z
-x+y,-x,z
y,-x+y,1/2+z
-x+y,y,z
x,x-y,z
-y,-x,z
y,x,1/2+z
x-y,-y,1/2+z
-x,-x+y,1/2+z
loop_
_atom_site_type_symbol
_atom_site_label
_atom_site_fract_x
_atom_site_fract_y
_atom_site_fract_z
Si Si1 0.526600 0.605283 0.832130
Si Si2 0.885432 0.506138 0.977715
Si Si3 0.666037 0.651120 0.718189
Si Si4 0.689374 0.181687 0.172296
Si Si5 0.663085 0.895846 0.609542
Si Si6 0.256172 0.377585 0.381190
Si Si7 0.962803 0.548153 0.553922
O O1 0.475094 0.524907 0.812316
O O2 0.599716 0.627182 0.787215
O O3 0.495786 0.647810 0.778238
O O4 0.533309 0.619087 0.954817
O O5 0.885961 0.442981 0.920805
O O6 0.864417 0.545640 0.896520
O O7 0.833253 0.474319 0.073664
O O8 0.959239 0.557832 0.023481
O O9 0.694851 0.726349 0.667341
O O10 0.727296 0.659188 0.789224
O O11 0.645449 0.590261 0.635598
O O12 0.737665 0.262336 0.187536
O O13 0.733553 0.147104 0.146197
O O14 0.697865 0.848933 0.635164
O O15 0.665743 0.907614 0.486235
O O16 0.191351 0.382702 0.347185
O O17 0.953923 0.476962 0.597623
#
# Coordination Sequence:
#
# PCOD8326705 Si02
#       7
#    12  12  12  12  12  12  12
#     4  10  17  26  41  61  81 103 136 178 220 256
#     4  10  16  26  44  63  83 108 138 179 226 267
#     4  11  16  26  43  62  84 113 139 172 210 255
#     4   9  16  26  40  58  80 105 130 164 214 264
#     4   8  15  27  41  59  82 108 138 169 204 250
#     4  10  19  30  43  62  88 117 144 172 217 271
#     4  10  18  25  38  65  86 102 134 180 227 261
#
# _framework density 14.493456
#
# number of rings (size 3 to 8) (size 9 to 14) (size 15 to 20)
#    0.000    2.286    5.714    2.143    0.000    0.571 
#    0.000    0.714    0.000    7.714    0.000    0.000 
#    0.000    1.143    0.000    0.429    0.000    2.000 
#
# Total GULP energy -1040779.645002 kJ/mol
# GULP energy per Si atom -12390.233869 kJ/mol
# Density = 1.446047 g / cm^3
# Si number density = 14.493456 Si / 1000 Ang^3
#
#
#
# Elastic Constant Matrix: (Units=GPa)
#
#
# Indices 1 2 3 4 5 6 
#
# 1 55.9543 31.6824 35.9766 0.0000 0.0000 0.0000
# 2 31.6824 55.9543 35.9766 0.0000 0.0000 0.0000
# 3 35.9766 35.9766 78.5813 0.0000 0.0000 0.0000
# 4 0.0000 0.0000 0.0000 17.6552 0.0000 0.0000
# 5 0.0000 0.0000 0.0000 0.0000 17.6552 0.0000
# 6 0.0000 0.0000 0.0000 0.0000 0.0000 12.1359
#
#
#
# Elastic Compliance Matrix: (Units=1/GPa)
#
#
# Indices 1 2 3 4 5 6 
#
# 1 0.029742 -0.011458 -0.008371 0.000000 0.000000 0.000000
# 2 -0.011458 0.029742 -0.008371 0.000000 0.000000 0.000000
# 3 -0.008371 -0.008371 0.020390 0.000000 0.000000 0.000000
# 4 0.000000 0.000000 0.000000 0.056641 0.000000 0.000000
# 5 0.000000 0.000000 0.000000 0.000000 0.056641 0.000000
# 6 0.000000 0.000000 0.000000 0.000000 0.000000 0.082400
#
#
# Mechanical properties :
#
#
# Convention : Reuss Voigt Hill
#
# Bulk Modulus (GPa) = 42.59938 44.19569 43.39753
# Shear Modulus (GPa) = 14.71547 15.27953 14.99750
#
# Velocity S-wave (km/s) = 3.18986 3.25042 3.22029
# Velocity P-wave (km/s) = 6.55919 6.68182 6.62079
#
# Compressibility (1/GPa) = 0.02347452
#
# Stress axis : x y z
#
# Youngs Moduli (GPa) = 33.62289 33.62289 49.04299
#
# Poissons Ratio (x) = 0.38526 0.41052
# Poissons Ratio (y) = 0.38526 0.41052
# Poissons Ratio (z) = 0.28144 0.28144
#
# Static dielectric constant tensor:
#      x y z
#    x 2.775200 0.000000 0.000000 
#    y 0.000000 2.775200 0.000000 
#    z 0.000000 0.000000 2.939940 
# 
# 
# High freq. dielectric constant tensor:
#      x y z
#    x 1.520690 0.000000 0.000000 
#    y 0.000000 1.520690 0.000000 
#    z 0.000000 0.000000 1.550510 
# 
# From -- ./inp_files/2000.got.cif
#   From: 2010.03.12/outbox.cif.g09.slc.cpg/sg186_1_cif.got.tgz:2000.got - 2010.04.01 11:56:34.
