data_PCOD8326797
_publ_section_title
;
Structure prediction by ZEFSAII (Michael W. Deem and Ramdas Pophale) SiO2 
 PCOD8326797
Probable space group: P 63 M C
;
_chemical_formula_sum "Si O2"
_cell_formula_units_Z 64
_cell_length_a 14.447401
_cell_length_b 14.447401
_cell_length_c 19.004986
_cell_angle_alpha 90.000000
_cell_angle_beta 90.000000
_cell_angle_gamma 120.000000
_cell_volume 3435.402600
_symmetry_space_group_name_H-M "P 63 M C"
_symmetry_group_IT_number 186
_symmetry_cell_setting 'hexagonal'
loop_
_space_group_symop_operation_xyz
x,y,z
x-y,x,1/2+z
-y,x-y,z
-x,-y,1/2+z
-x+y,-x,z
y,-x+y,1/2+z
-x+y,y,z
x,x-y,z
-y,-x,z
y,x,1/2+z
x-y,-y,1/2+z
-x,-x+y,1/2+z
loop_
_atom_site_type_symbol
_atom_site_label
_atom_site_fract_x
_atom_site_fract_y
_atom_site_fract_z
Si Si1 0.000000 0.000000 0.002674
Si Si2 0.236029 0.118015 0.500081
Si Si3 0.049450 0.315477 0.418735
Si Si4 0.668202 0.539924 0.046382
Si Si5 0.000000 0.000000 0.169182
Si Si6 0.120244 0.879757 0.167845
Si Si7 0.551149 0.884710 0.821810
Si Si8 0.335728 0.062977 0.183052
O O1 0.058314 0.116628 0.971842
O O2 0.000000 0.000000 0.085835
O O3 0.282767 0.233971 0.467062
O O4 0.247254 0.123627 0.583537
O O5 0.142343 0.284686 0.397874
O O6 0.106850 0.420543 0.466327
O O7 0.990170 0.335055 0.353206
O O8 0.746450 0.492900 0.062854
O O9 0.547339 0.452662 0.056715
O O10 0.690799 0.630802 0.103091
O O11 0.879746 0.939873 0.196783
O O12 0.056867 0.760228 0.199012
O O13 0.439409 0.878818 0.842993
O O14 0.546575 0.773288 0.844002
O O15 0.567097 0.901962 0.737674
O O16 0.290844 0.145422 0.188536
#
# Coordination Sequence:
#
# PCOD8326797 Si02
#       8
#     2   6  12  12   2   6  12  12
#     4   9  18  24  51  79 125 163 171 205 269 349
#     4  11  18  32  53  85 121 152 181 218 276 350
#     4  11  22  36  57  87 118 150 190 236 287 345
#     4  10  20  35  55  79 107 141 187 240 290 336
#     4   9  18  24  51  79 125 157 177 211 272 364
#     4  11  18  32  53  85 119 152 183 224 285 355
#     4  11  24  42  61  83 115 156 200 245 294 347
#     4  10  21  34  54  83 111 144 188 234 284 342
#
# _framework density 18.629549000000001
#
# number of rings (size 3 to 8) (size 9 to 14) (size 15 to 20)
#    0.000    1.500    4.688    1.500    1.312    0.000 
#    0.000    1.875    0.000    0.375    0.000    0.000 
#    3.750    0.000    0.000    0.000    0.000    0.000 
#
# Total GULP energy -792893.083191 kJ/mol
# GULP energy per Si atom -12388.954425 kJ/mol
# Density = 1.858715 g / cm^3
# Si number density = 18.629549 Si / 1000 Ang^3
#
#
#
# Elastic Constant Matrix: (Units=GPa)
#
#
# Indices 1 2 3 4 5 6 
#
# 1 93.7732 39.4816 18.8779 0.0000 0.0000 0.0000
# 2 39.4816 93.7732 18.8779 0.0000 0.0000 0.0000
# 3 18.8779 18.8779 58.4784 0.0000 0.0000 0.0000
# 4 0.0000 0.0000 0.0000 21.8908 0.0000 0.0000
# 5 0.0000 0.0000 0.0000 0.0000 21.8908 0.0000
# 6 0.0000 0.0000 0.0000 0.0000 0.0000 27.1458
#
#
#
# Elastic Compliance Matrix: (Units=1/GPa)
#
#
# Indices 1 2 3 4 5 6 
#
# 1 0.013339 -0.005080 -0.002666 0.000000 0.000000 0.000000
# 2 -0.005080 0.013339 -0.002666 0.000000 0.000000 0.000000
# 3 -0.002666 -0.002666 0.018822 0.000000 0.000000 0.000000
# 4 0.000000 0.000000 0.000000 0.045681 0.000000 0.000000
# 5 0.000000 0.000000 0.000000 0.000000 0.045681 0.000000
# 6 0.000000 0.000000 0.000000 0.000000 0.000000 0.036838
#
#
# Mechanical properties :
#
#
# Convention : Reuss Voigt Hill
#
# Bulk Modulus (GPa) = 40.52535 44.49997 42.51266
# Shear Modulus (GPa) = 24.66071 25.43798 25.04935
#
# Velocity S-wave (km/s) = 3.64227 3.69923 3.67086
# Velocity P-wave (km/s) = 6.28400 6.49495 6.39035
#
# Compressibility (1/GPa) = 0.02467591
#
# Stress axis : x y z
#
# Youngs Moduli (GPa) = 74.96537 74.96537 53.12958
#
# Poissons Ratio (x) = 0.38079 0.14167
# Poissons Ratio (y) = 0.38079 0.14167
# Poissons Ratio (z) = 0.19989 0.19989
#
# Static dielectric constant tensor:
#      x y z
#    x 3.318280 0.000000 0.000000 
#    y 0.000000 3.318280 0.000000 
#    z 0.000000 0.000000 3.262590 
# 
# 
# High freq. dielectric constant tensor:
#      x y z
#    x 1.714010 0.000000 0.000000 
#    y 0.000000 1.714010 0.000000 
#    z 0.000000 0.000000 1.713240 
# 
# From -- ./inp_files/2947.got.cif
#   From: 2010.03.12/outbox.cif.g09.slc.cpg/sg186_2_cif.got.tgz:2947.got - 2010.04.01 11:56:34.
