data_PCOD8326252
_publ_section_title
;
Structure prediction by ZEFSAII (Michael W. Deem and Ramdas Pophale) SiO2 
 PCOD8326252
Probable space group: P 62 2 2
;
_chemical_formula_sum "Si O2"
_cell_formula_units_Z 39
_cell_length_a 8.057005
_cell_length_b 8.057005
_cell_length_c 32.199316
_cell_angle_alpha 90.000000
_cell_angle_beta 90.000000
_cell_angle_gamma 120.000000
_cell_volume 1810.191596
_symmetry_space_group_name_H-M "P 62 2 2"
_symmetry_group_IT_number 180
_symmetry_cell_setting 'hexagonal'
loop_
_space_group_symop_operation_xyz
x,y,z
x-y,x,1/3+z
-y,x-y,2/3+z
-x,-y,z
-x+y,-x,1/3+z
y,-x+y,2/3+z
x-y,-y,-z
-x,-x+y,1/3-z
y,x,2/3-z
-y,-x,2/3-z
-x+y,y,-z
x,x-y,1/3-z
loop_
_atom_site_type_symbol
_atom_site_label
_atom_site_fract_x
_atom_site_fract_y
_atom_site_fract_z
Si Si1 0.202042 0.155047 0.213614
Si Si2 0.447907 0.784178 0.456033
Si Si3 0.685345 0.496363 0.608256
Si Si4 0.500000 0.500000 0.333334
O O1 0.213427 0.106714 0.166667
O O2 0.242414 0.369953 0.217434
O O3 0.352302 0.120974 0.238194
O O4 0.000000 0.000000 0.232947
O O5 0.342350 0.684699 0.500000
O O6 0.320154 0.704931 0.414684
O O7 0.500000 0.000000 0.459057
O O8 0.500000 0.500000 0.628201
O O9 0.855984 0.546685 0.640947
#
# Coordination Sequence:
#
# PCOD8326252 Si02
#       4
#    12  12  12   3
#     4  11  21  39  66 106 141 172 220 275 347 425
#     4  11  21  38  67 106 142 175 220 281 351 424
#     4  12  25  47  70  94 134 181 231 286 347 407
#     4  12  28  52  66  98 136 184 246 296 332 434
#
# _framework density 21.544682999999999
#
# number of rings (size 3 to 8) (size 9 to 14) (size 15 to 20)
#    0.000    0.615    3.077    8.308    0.000    1.231 
#    5.538    0.000    0.000    0.000    0.000    0.000 
#    0.000    0.000    0.000    0.000    0.000    0.000 
#
# Total GULP energy -483401.217990 kJ/mol
# GULP energy per Si atom -12394.903025 kJ/mol
# Density = 2.149565 g / cm^3
# Si number density = 21.544683 Si / 1000 Ang^3
#
#
#
# Elastic Constant Matrix: (Units=GPa)
#
#
# Indices 1 2 3 4 5 6 
#
# 1 123.4043 35.0642 30.1885 0.0000 0.0000 0.0000
# 2 35.0642 123.4043 30.1885 0.0000 0.0000 0.0000
# 3 30.1885 30.1885 71.5050 0.0000 0.0000 0.0000
# 4 0.0000 0.0000 0.0000 43.1230 0.0000 0.0000
# 5 0.0000 0.0000 0.0000 0.0000 43.1230 0.0000
# 6 0.0000 0.0000 0.0000 0.0000 0.0000 44.1701
#
#
#
# Elastic Compliance Matrix: (Units=1/GPa)
#
#
# Indices 1 2 3 4 5 6 
#
# 1 0.009420 -0.001900 -0.003175 0.000000 0.000000 0.000000
# 2 -0.001900 0.009420 -0.003175 0.000000 0.000000 0.000000
# 3 -0.003175 -0.003175 0.016666 0.000000 0.000000 0.000000
# 4 0.000000 0.000000 0.000000 0.023189 0.000000 0.000000
# 5 0.000000 0.000000 0.000000 0.000000 0.023189 0.000000
# 6 0.000000 0.000000 0.000000 0.000000 0.000000 0.022640
#
#
# Mechanical properties :
#
#
# Convention : Reuss Voigt Hill
#
# Bulk Modulus (GPa) = 52.61380 56.57734 54.59557
# Shear Modulus (GPa) = 39.25904 40.94138 40.10021
#
# Velocity S-wave (km/s) = 4.27337 4.36397 4.31891
# Velocity P-wave (km/s) = 6.98733 7.19095 7.08987
#
# Compressibility (1/GPa) = 0.01900642
#
# Stress axis : x y z
#
# Youngs Moduli (GPa) = 106.15757 106.15757 60.00311
#
# Poissons Ratio (x) = 0.20169 0.19050
# Poissons Ratio (y) = 0.20169 0.19050
# Poissons Ratio (z) = 0.33704 0.33704
#
# Static dielectric constant tensor:
#      x y z
#    x 3.881540 0.000000 0.000000 
#    y 0.000000 3.881540 0.000000 
#    z 0.000000 0.000000 3.945280 
# 
# 
# High freq. dielectric constant tensor:
#      x y z
#    x 1.859030 0.000000 0.000000 
#    y 0.000000 1.859030 0.000000 
#    z 0.000000 0.000000 1.829680 
# 
# From -- ./inp_files/11820.got.cif
#   From: 2010.03.12/outbox.cif.g09.slc.cpg/sg180_6_cif.got.tgz:11820.got - 2010.04.01 11:35:50.
