data_PCOD8326082
_publ_section_title
;
Structure prediction by ZEFSAII (Michael W. Deem and Ramdas Pophale) SiO2 
 PCOD8326082
Probable space group: P 65 2 2
;
_chemical_formula_sum "Si O2"
_cell_formula_units_Z 48
_cell_length_a 18.502960
_cell_length_b 18.502960
_cell_length_c 8.758317
_cell_angle_alpha 90.000000
_cell_angle_beta 90.000000
_cell_angle_gamma 120.000000
_cell_volume 2596.771354
_symmetry_space_group_name_H-M "P 65 2 2"
_symmetry_group_IT_number 179
_symmetry_cell_setting 'hexagonal'
loop_
_space_group_symop_operation_xyz
x,y,z
x-y,x,5/6+z
-y,x-y,2/3+z
-x,-y,1/2+z
-x+y,-x,1/3+z
y,-x+y,1/6+z
x-y,-y,-z
-x,-x+y,1/3-z
y,x,2/3-z
-y,-x,1/6-z
-x+y,y,1/2-z
x,x-y,5/6-z
loop_
_atom_site_type_symbol
_atom_site_label
_atom_site_fract_x
_atom_site_fract_y
_atom_site_fract_z
Si Si1 0.453971 0.453971 0.833334
Si Si2 0.557784 0.442217 0.083334
Si Si3 0.525505 0.647147 0.096161
Si Si4 0.343074 0.248217 0.345639
Si Si5 0.196107 0.447663 0.912838
O O1 0.479153 0.536713 0.733372
O O2 0.424331 0.374115 0.722891
O O3 0.519928 0.345300 0.055039
O O4 0.436172 0.563829 0.083334
O O5 0.509829 0.719558 0.155698
O O6 0.579775 0.678575 0.941585
O O7 0.266574 0.266574 0.333334
O O8 0.312530 0.156265 0.416667
O O9 0.371397 0.248304 0.171985
O O10 0.206956 0.413912 0.750000
#
# Coordination Sequence:
#
# PCOD8326082 Si02
#       5
#     6   6  12  12  12
#     4  12  22  36  60  84 106 162 214 258 296 368
#     4  12  24  38  60  80 118 158 212 262 308 362
#     4  11  23  38  57  86 119 163 211 251 306 364
#     4  10  23  42  63  89 124 156 201 258 316 380
#     4  11  24  39  56  88 118 157 207 261 310 355
#
# _framework density 18.484493000000001
#
# number of rings (size 3 to 8) (size 9 to 14) (size 15 to 20)
#    0.000    1.000    3.750    3.000    3.500    1.000 
#    2.250    0.000    0.000    0.000    0.000    1.750 
#    0.000    0.000    0.000    0.000    0.000    0.000 
#
# Total GULP energy -595072.982840 kJ/mol
# GULP energy per Si atom -12397.353809 kJ/mol
# Density = 1.844242 g / cm^3
# Si number density = 18.484493 Si / 1000 Ang^3
#
#
#
# Elastic Constant Matrix: (Units=GPa)
#
#
# Indices 1 2 3 4 5 6 
#
# 1 103.0182 60.0868 49.7183 0.0000 0.0000 0.0000
# 2 60.0868 103.0182 49.7183 0.0000 0.0000 0.0000
# 3 49.7183 49.7183 133.7238 0.0000 0.0000 0.0000
# 4 0.0000 0.0000 0.0000 32.7972 0.0000 0.0000
# 5 0.0000 0.0000 0.0000 0.0000 32.7972 0.0000
# 6 0.0000 0.0000 0.0000 0.0000 0.0000 21.4657
#
#
#
# Elastic Compliance Matrix: (Units=1/GPa)
#
#
# Indices 1 2 3 4 5 6 
#
# 1 0.015610 -0.007682 -0.002948 0.000000 0.000000 0.000000
# 2 -0.007682 0.015610 -0.002948 0.000000 0.000000 0.000000
# 3 -0.002948 -0.002948 0.009670 0.000000 0.000000 0.000000
# 4 0.000000 0.000000 0.000000 0.030490 0.000000 0.000000
# 5 0.000000 0.000000 0.000000 0.000000 0.030490 0.000000
# 6 0.000000 0.000000 0.000000 0.000000 0.000000 0.046586
#
#
# Mechanical properties :
#
#
# Convention : Reuss Voigt Hill
#
# Bulk Modulus (GPa) = 72.80406 73.20078 73.00242
# Shear Modulus (GPa) = 27.74824 29.42781 28.58803
#
# Velocity S-wave (km/s) = 3.87869 3.99435 3.93694
# Velocity P-wave (km/s) = 7.71564 7.80771 7.76181
#
# Compressibility (1/GPa) = 0.01373550
#
# Stress axis : x y z
#
# Youngs Moduli (GPa) = 64.05949 64.05949 103.41316
#
# Poissons Ratio (x) = 0.49213 0.30482
# Poissons Ratio (y) = 0.49213 0.30482
# Poissons Ratio (z) = 0.18882 0.18882
#
# Static dielectric constant tensor:
#      x y z
#    x 3.377110 0.000000 0.000000 
#    y 0.000000 3.377110 0.000000 
#    z 0.000000 0.000000 3.846580 
# 
# 
# High freq. dielectric constant tensor:
#      x y z
#    x 1.696320 0.000000 0.000000 
#    y 0.000000 1.696320 0.000000 
#    z 0.000000 0.000000 1.744900 
# 
# From -- ./inp_files/2831.got.cif
#   From: 2010.03.12/outbox.cif.g09.slc.cpg/sg179_2_cif.got.tgz:2831.got - 2010.04.02 07:08:42.
