data_PCOD8326917
_publ_section_title
;
Structure prediction by ZEFSAII (Michael W. Deem and Ramdas Pophale) SiO2 
 PCOD8326917
Probable space group: P -6 M 2
;
_chemical_formula_sum "Si O2"
_cell_formula_units_Z 78
_cell_length_a 17.758246
_cell_length_b 17.758246
_cell_length_c 17.790379
_cell_angle_alpha 90.000000
_cell_angle_beta 90.000000
_cell_angle_gamma 120.000000
_cell_volume 4858.653944
_symmetry_space_group_name_H-M "P -6 M 2"
_symmetry_group_IT_number 187
_symmetry_cell_setting 'hexagonal'
loop_
_space_group_symop_operation_xyz
x,y,z
-x+y,-x,-z
-y,x-y,z
x,y,-z
-x+y,-x,z
-y,x-y,-z
-y,-x,-z
-x+y,y,-z
x,x-y,-z
-x+y,y,z
x,x-y,z
-y,-x,z
loop_
_atom_site_type_symbol
_atom_site_label
_atom_site_fract_x
_atom_site_fract_y
_atom_site_fract_z
Si Si1 0.154319 0.487307 0.713157
Si Si2 0.761320 0.692374 0.911095
Si Si3 0.333297 0.844785 0.000000
Si Si4 0.397479 0.423719 0.583432
Si Si5 0.834923 0.501823 0.410563
Si Si6 0.277099 0.899230 0.857053
Si Si7 0.503388 0.169381 0.089166
O O1 0.251072 0.502144 0.710644
O O2 0.161762 0.580881 0.720116
O O3 0.102553 0.435190 0.638865
O O4 0.098521 0.427258 0.782467
O O5 0.860495 0.720989 0.887200
O O6 0.721569 0.742378 0.864888
O O7 0.695783 0.593616 0.885861
O O8 0.759189 0.706700 0.000000
O O9 0.333327 0.898562 0.927630
O O10 0.252385 0.747616 0.000000
O O11 0.419044 0.838087 0.000000
O O12 0.354862 0.401033 0.500000
O O13 0.488365 0.511636 0.579346
O O14 0.418688 0.349281 0.612529
O O15 0.830418 0.496260 0.500000
O O16 0.759716 0.519432 0.378365
O O17 0.819774 0.409887 0.378353
O O18 0.183823 0.816178 0.856862
O O19 0.570847 0.141694 0.122446
O O20 0.530376 0.265188 0.119437
O O21 0.507256 0.172031 0.000000
#
# Coordination Sequence:
#
# PCOD8326917 Si02
#       7
#    12  12   6  12  12  12  12
#     4  10  20  33  48  66  90 121 157 196 238 285
#     4   9  17  30  46  65  87 113 146 182 219 260
#     4  10  19  30  45  66  92 122 154 186 221 264
#     4   8  15  28  44  63  89 120 156 199 242 280
#     4   8  12  19  35  61  92 124 155 186 222 267
#     4  10  20  33  48  67  90 117 147 182 230 279
#     4   8  13  20  32  52  78 106 135 166 199 234
#
# _framework density 16.053830000000001
#
# number of rings (size 3 to 8) (size 9 to 14) (size 15 to 20)
#    0.000    3.077    0.769    2.846    0.000    2.769 
#    0.000    2.308    0.000    1.231    0.000    0.000 
#    0.000    6.154    0.000    0.462    0.000    6.462 
#
# Total GULP energy -966456.772052 kJ/mol
# GULP energy per Si atom -12390.471437 kJ/mol
# Density = 1.601729 g / cm^3
# Si number density = 16.053830 Si / 1000 Ang^3
#
#
#
# Elastic Constant Matrix: (Units=GPa)
#
#
# Indices 1 2 3 4 5 6 
#
# 1 67.7608 30.6558 35.5686 0.0000 0.0000 0.0000
# 2 30.6558 67.7608 35.5686 0.0000 0.0000 0.0000
# 3 35.5686 35.5686 73.7448 0.0000 0.0000 0.0000
# 4 0.0000 0.0000 0.0000 16.8333 0.0000 0.0000
# 5 0.0000 0.0000 0.0000 0.0000 16.8333 0.0000
# 6 0.0000 0.0000 0.0000 0.0000 0.0000 18.5525
#
#
#
# Elastic Compliance Matrix: (Units=1/GPa)
#
#
# Indices 1 2 3 4 5 6 
#
# 1 0.021275 -0.005676 -0.007524 0.000000 0.000000 0.000000
# 2 -0.005676 0.021275 -0.007524 0.000000 0.000000 0.000000
# 3 -0.007524 -0.007524 0.020818 0.000000 0.000000 0.000000
# 4 0.000000 0.000000 0.000000 0.059406 0.000000 0.000000
# 5 0.000000 0.000000 0.000000 0.000000 0.059406 0.000000
# 6 0.000000 0.000000 0.000000 0.000000 0.000000 0.053901
#
#
# Mechanical properties :
#
#
# Convention : Reuss Voigt Hill
#
# Bulk Modulus (GPa) = 45.61788 45.87250 45.74519
# Shear Modulus (GPa) = 17.55404 17.60872 17.58138
#
# Velocity S-wave (km/s) = 3.31032 3.31547 3.31290
# Velocity P-wave (km/s) = 6.56416 6.57972 6.57194
#
# Compressibility (1/GPa) = 0.02192123
#
# Stress axis : x y z
#
# Youngs Moduli (GPa) = 47.00378 47.00378 48.03522
#
# Poissons Ratio (x) = 0.26678 0.36141
# Poissons Ratio (y) = 0.26678 0.36141
# Poissons Ratio (z) = 0.35365 0.35365
#
# Static dielectric constant tensor:
#      x y z
#    x 3.158670 0.000000 0.000000 
#    y 0.000000 3.158670 0.000000 
#    z 0.000000 0.000000 2.946660 
# 
# 
# High freq. dielectric constant tensor:
#      x y z
#    x 1.605030 0.000000 0.000000 
#    y 0.000000 1.605030 0.000000 
#    z 0.000000 0.000000 1.585050 
# 
# From -- ./inp_files/3144.got.cif
#   From: 2010.03.12/outbox.cif.g09.slc.cpg/sg187_2_cif.got.tgz:3144.got - 2010.04.01 11:58:23.
