data_PCOD8326796
_publ_section_title
;
Structure prediction by ZEFSAII (Michael W. Deem and Ramdas Pophale) SiO2 
 PCOD8326796
Probable space group: P 63 M C
;
_chemical_formula_sum "Si O2"
_cell_formula_units_Z 84
_cell_length_a 21.930922
_cell_length_b 21.930922
_cell_length_c 10.684121
_cell_angle_alpha 90.000000
_cell_angle_beta 90.000000
_cell_angle_gamma 120.000000
_cell_volume 4450.237716
_symmetry_space_group_name_H-M "P 63 M C"
_symmetry_group_IT_number 186
_symmetry_cell_setting 'hexagonal'
loop_
_space_group_symop_operation_xyz
x,y,z
x-y,x,1/2+z
-y,x-y,z
-x,-y,1/2+z
-x+y,-x,z
y,-x+y,1/2+z
-x+y,y,z
x,x-y,z
-y,-x,z
y,x,1/2+z
x-y,-y,1/2+z
-x,-x+y,1/2+z
loop_
_atom_site_type_symbol
_atom_site_label
_atom_site_fract_x
_atom_site_fract_y
_atom_site_fract_z
Si Si1 0.798394 0.465210 0.203420
Si Si2 0.666728 0.198991 0.494258
Si Si3 0.946156 0.198033 0.572754
Si Si4 0.599786 0.729598 0.365946
Si Si5 0.951152 0.763528 0.855709
Si Si6 0.324487 0.924802 0.096949
Si Si7 0.394227 0.931601 0.560770
O O1 0.743808 0.487616 0.146883
O O2 0.782067 0.391034 0.141377
O O3 0.786450 0.453667 0.349198
O O4 0.878803 0.522893 0.175796
O O5 0.597047 0.194094 0.556719
O O6 0.736212 0.263789 0.557036
O O7 0.665840 0.126041 0.503385
O O8 0.868249 0.131752 0.575017
O O9 0.980726 0.205747 0.711822
O O10 0.942085 0.267246 0.540265
O O11 0.989878 0.189689 0.458955
O O12 0.575142 0.787571 0.387156
O O13 0.682401 0.765427 0.395819
O O14 0.585442 0.703168 0.224728
O O15 0.556024 0.659131 0.445665
O O16 0.894583 0.789167 0.862761
O O17 0.399048 0.995367 0.109038
O O18 0.470151 0.940301 0.526088
#
# Coordination Sequence:
#
# PCOD8326796 Si02
#       7
#    12  12  12  12  12  12  12
#     4   9  19  35  55  79 107 141 184 233 284 340
#     4  10  20  35  55  77 104 140 183 230 278 331
#     4  10  20  36  59  86 117 154 194 234 284 346
#     4  10  21  40  60  77 109 152 196 237 288 352
#     4   9  19  36  58  85 116 152 191 236 285 339
#     4  11  22  37  54  80 112 151 184 234 290 348
#     4  11  23  35  55  84 115 150 190 236 293 350
#
# _framework density 18.875395999999999
#
# number of rings (size 3 to 8) (size 9 to 14) (size 15 to 20)
#    0.000    2.000    1.429    3.286    2.000    2.857 
#    0.000    0.000    0.000    0.571    0.000    0.000 
#    0.000    0.000    0.000    0.000    0.000    0.000 
#
# Total GULP energy -1041124.520928 kJ/mol
# GULP energy per Si atom -12394.339535 kJ/mol
# Density = 1.883243 g / cm^3
# Si number density = 18.875396 Si / 1000 Ang^3
#
#
#
# Elastic Constant Matrix: (Units=GPa)
#
#
# Indices 1 2 3 4 5 6 
#
# 1 97.9265 43.4105 32.1533 0.0000 0.0000 0.0000
# 2 43.4105 97.9265 32.1533 0.0000 0.0000 0.0000
# 3 32.1533 32.1533 60.0638 0.0000 0.0000 0.0000
# 4 0.0000 0.0000 0.0000 27.5342 0.0000 0.0000
# 5 0.0000 0.0000 0.0000 0.0000 27.5342 0.0000
# 6 0.0000 0.0000 0.0000 0.0000 0.0000 27.2580
#
#
#
# Elastic Compliance Matrix: (Units=1/GPa)
#
#
# Indices 1 2 3 4 5 6 
#
# 1 0.013848 -0.004495 -0.005007 0.000000 0.000000 0.000000
# 2 -0.004495 0.013848 -0.005007 0.000000 0.000000 0.000000
# 3 -0.005007 -0.005007 0.022010 0.000000 0.000000 0.000000
# 4 0.000000 0.000000 0.000000 0.036318 0.000000 0.000000
# 5 0.000000 0.000000 0.000000 0.000000 0.036318 0.000000
# 6 0.000000 0.000000 0.000000 0.000000 0.000000 0.036686
#
#
# Mechanical properties :
#
#
# Convention : Reuss Voigt Hill
#
# Bulk Modulus (GPa) = 48.33647 52.37234 50.35441
# Shear Modulus (GPa) = 25.64839 26.34527 25.99683
#
# Velocity S-wave (km/s) = 3.69023 3.74002 3.71521
# Velocity P-wave (km/s) = 6.61973 6.81593 6.71855
#
# Compressibility (1/GPa) = 0.02068831
#
# Stress axis : x y z
#
# Youngs Moduli (GPa) = 72.21086 72.21086 45.43440
#
# Poissons Ratio (x) = 0.32458 0.22749
# Poissons Ratio (y) = 0.32458 0.22749
# Poissons Ratio (z) = 0.36157 0.36157
#
# Static dielectric constant tensor:
#      x y z
#    x 3.566630 0.000000 0.000000 
#    y 0.000000 3.566630 0.000000 
#    z 0.000000 0.000000 3.313040 
# 
# 
# High freq. dielectric constant tensor:
#      x y z
#    x 1.734050 0.000000 0.000000 
#    y 0.000000 1.734050 0.000000 
#    z 0.000000 0.000000 1.718670 
# 
# From -- ./inp_files/1887.got.cif
#   From: 2010.03.12/outbox.cif.g09.slc.cpg/sg186_1_cif.got.tgz:1887.got - 2010.04.01 11:56:34.
