data_PCOD8326836
_publ_section_title
;
Structure prediction by ZEFSAII (Michael W. Deem and Ramdas Pophale) SiO2 
 PCOD8326836
Probable space group: P -6 M 2
;
_chemical_formula_sum "Si O2"
_cell_formula_units_Z 84
_cell_length_a 23.033432
_cell_length_b 23.033432
_cell_length_c 12.690797
_cell_angle_alpha 90.000000
_cell_angle_beta 90.000000
_cell_angle_gamma 120.000000
_cell_volume 5830.916671
_symmetry_space_group_name_H-M "P -6 M 2"
_symmetry_group_IT_number 187
_symmetry_cell_setting 'hexagonal'
loop_
_space_group_symop_operation_xyz
x,y,z
-x+y,-x,-z
-y,x-y,z
x,y,-z
-x+y,-x,z
-y,x-y,-z
-y,-x,-z
-x+y,y,-z
x,x-y,-z
-x+y,y,z
x,x-y,z
-y,-x,z
loop_
_atom_site_type_symbol
_atom_site_label
_atom_site_fract_x
_atom_site_fract_y
_atom_site_fract_z
Si Si1 0.793460 0.079447 0.880005
Si Si2 0.929192 0.339536 0.125762
Si Si3 0.125249 0.381078 0.121864
Si Si4 0.537004 0.203689 0.874299
Si Si5 0.062025 0.466636 0.124654
Si Si6 0.183051 0.235514 0.200412
Si Si7 0.000148 0.867181 0.379318
O O1 0.857683 0.142318 0.824552
O O2 0.723839 0.066603 0.827967
O O3 0.799284 0.012617 0.873854
O O4 0.793282 0.098823 0.000000
O O5 0.861784 0.334347 0.169624
O O6 0.990376 0.409048 0.168157
O O7 0.931135 0.339348 0.000000
O O8 0.204100 0.408199 0.131963
O O9 0.115182 0.443063 0.157507
O O10 0.083473 0.316202 0.196926
O O11 0.100652 0.359873 0.000000
O O12 0.602690 0.205379 0.829428
O O13 0.535217 0.267609 0.829453
O O14 0.537457 0.203880 0.000000
O O15 0.079191 0.539596 0.172032
O O16 0.059882 0.471424 0.000000
O O17 0.109615 0.219229 0.159563
O O18 0.177248 0.202535 0.315389
O O19 0.994946 0.844350 0.500000
O O20 0.054192 0.945809 0.366215
O O21 0.928093 0.856185 0.340237
#
# Coordination Sequence:
#
# PCOD8326836 Si02
#       7
#    12  12  12  12  12  12  12
#     4  10  18  26  36  51  73 100 128 157 189 225
#     4   9  15  23  32  45  64  88 118 153 187 215
#     4   9  16  26  39  55  77 103 129 158 193 231
#     4   9  15  21  28  38  54  79 112 148 184 218
#     4   9  15  23  36  52  70  94 125 159 189 218
#     4  10  18  27  40  56  74  97 127 161 193 229
#     4   9  17  29  44  60  77  98 126 161 201 242
#
# _framework density 14.405968
#
# number of rings (size 3 to 8) (size 9 to 14) (size 15 to 20)
#    0.000    2.714    1.429    2.000    0.000    5.429 
#    0.000    0.000    0.000    0.571    0.000    2.000 
#    0.000    0.571    0.000    0.000    0.000    0.000 
#
# Total GULP energy -1040637.532019 kJ/mol
# GULP energy per Si atom -12388.542048 kJ/mol
# Density = 1.437318 g / cm^3
# Si number density = 14.405968 Si / 1000 Ang^3
#
#
#
# Elastic Constant Matrix: (Units=GPa)
#
#
# Indices 1 2 3 4 5 6 
#
# 1 118.5473 66.4403 18.5782 0.0000 0.0000 0.0000
# 2 66.4403 118.5473 18.5782 0.0000 0.0000 0.0000
# 3 18.5782 18.5782 18.5114 0.0000 0.0000 0.0000
# 4 0.0000 0.0000 0.0000 7.9570 0.0000 0.0000
# 5 0.0000 0.0000 0.0000 0.0000 7.9570 0.0000
# 6 0.0000 0.0000 0.0000 0.0000 0.0000 26.0535
#
#
#
# Elastic Compliance Matrix: (Units=1/GPa)
#
#
# Indices 1 2 3 4 5 6 
#
# 1 0.012981 -0.006210 -0.006795 0.000000 0.000000 0.000000
# 2 -0.006210 0.012981 -0.006795 0.000000 0.000000 0.000000
# 3 -0.006795 -0.006795 0.067660 0.000000 0.000000 0.000000
# 4 0.000000 0.000000 0.000000 0.125676 0.000000 0.000000
# 5 0.000000 0.000000 0.000000 0.000000 0.125676 0.000000
# 6 0.000000 0.000000 0.000000 0.000000 0.000000 0.038383
#
#
# Mechanical properties :
#
#
# Convention : Reuss Voigt Hill
#
# Bulk Modulus (GPa) = 18.51134 51.42215 34.96674
# Shear Modulus (GPa) = 11.33880 18.52745 14.93312
#
# Velocity S-wave (km/s) = 2.80856 3.59011 3.22311
# Velocity P-wave (km/s) = 4.83684 7.27720 6.17870
#
# Compressibility (1/GPa) = 0.05402095
#
# Stress axis : x y z
#
# Youngs Moduli (GPa) = 77.03600 77.03600 14.77980
#
# Poissons Ratio (x) = 0.47842 0.10043
# Poissons Ratio (y) = 0.47842 0.10043
# Poissons Ratio (z) = 0.52346 0.52346
#
# Static dielectric constant tensor:
#      x y z
#    x 3.025620 0.000000 0.000000 
#    y 0.000000 3.025620 0.000000 
#    z 0.000000 0.000000 2.233950 
# 
# 
# High freq. dielectric constant tensor:
#      x y z
#    x 1.559520 0.000000 0.000000 
#    y 0.000000 1.559520 0.000000 
#    z 0.000000 0.000000 1.460940 
# 
# From -- ./inp_files/1982.got.cif
#   From: 2010.03.12/outbox.cif.g09.slc.cpg/sg187_1_cif.got.tgz:1982.got - 2010.04.01 11:58:23.
