data_PCOD8326028
_publ_section_title
;
Structure prediction by ZEFSAII (Michael W. Deem and Ramdas Pophale) SiO2 
 PCOD8326028
Probable space group: P 65 2 2
;
_chemical_formula_sum "Si O2"
_cell_formula_units_Z 84
_cell_length_a 15.444542
_cell_length_b 15.444542
_cell_length_c 23.188098
_cell_angle_alpha 90.000000
_cell_angle_beta 90.000000
_cell_angle_gamma 120.000000
_cell_volume 4790.113753
_symmetry_space_group_name_H-M "P 65 2 2"
_symmetry_group_IT_number 179
_symmetry_cell_setting 'hexagonal'
loop_
_space_group_symop_operation_xyz
x,y,z
x-y,x,5/6+z
-y,x-y,2/3+z
-x,-y,1/2+z
-x+y,-x,1/3+z
y,-x+y,1/6+z
x-y,-y,-z
-x,-x+y,1/3-z
y,x,2/3-z
-y,-x,1/6-z
-x+y,y,1/2-z
x,x-y,5/6-z
loop_
_atom_site_type_symbol
_atom_site_label
_atom_site_fract_x
_atom_site_fract_y
_atom_site_fract_z
Si Si1 0.395573 0.435071 0.516354
Si Si2 0.151657 0.499606 0.817547
Si Si3 0.627027 0.609348 0.397106
Si Si4 0.566716 0.791392 0.243707
Si Si5 0.677265 0.293211 0.334808
Si Si6 0.600063 0.560202 0.771841
Si Si7 0.512778 0.256389 0.416667
Si Si8 0.563920 0.127840 0.250000
O O1 0.469084 0.554912 0.524106
O O2 0.282125 0.386900 0.540742
O O3 0.381632 0.417082 0.447322
O O4 0.458127 0.392338 0.549511
O O5 0.183994 0.433289 0.855424
O O6 0.251043 0.604059 0.799690
O O7 0.088272 0.429722 0.763974
O O8 0.656753 0.656753 0.333334
O O9 0.728128 0.624801 0.429342
O O10 0.553793 0.490479 0.391680
O O11 0.451309 0.728725 0.224404
O O12 0.577635 0.289690 0.357740
O O13 0.651582 0.199527 0.293605
O O14 0.614320 0.614320 0.833334
O O15 0.700052 0.560827 0.754973
#
# Coordination Sequence:
#
# PCOD8326028 Si02
#       8
#    12  12  12  12  12  12   6   6
#     4  10  19  34  50  73 104 143 190 242 278 324
#     4  10  19  34  52  71 106 147 193 237 275 336
#     4  10  21  35  50  74 110 142 193 241 295 337
#     4  11  19  33  53  69 101 147 194 235 289 333
#     4  11  20  30  50  78 103 145 202 233 276 347
#     4  10  21  36  50  72 108 146 182 247 291 327
#     4  12  18  33  54  74 110 148 204 235 270 352
#     4  12  20  31  52  80 110 144 200 253 278 320
#
# _framework density 17.536118999999999
#
# number of rings (size 3 to 8) (size 9 to 14) (size 15 to 20)
#    0.000    1.429    5.714    1.714    0.000    6.286 
#    0.000    0.000    0.000    0.000    0.000    0.000 
#    0.000    0.000    0.000   12.857    1.714    0.429 
#
# Total GULP energy -1040964.899433 kJ/mol
# GULP energy per Si atom -12392.439279 kJ/mol
# Density = 1.749621 g / cm^3
# Si number density = 17.536119 Si / 1000 Ang^3
#
#
#
# Elastic Constant Matrix: (Units=GPa)
#
#
# Indices 1 2 3 4 5 6 
#
# 1 75.0245 28.0179 36.7931 0.0000 0.0000 0.0000
# 2 28.0179 75.0245 36.7931 0.0000 0.0000 0.0000
# 3 36.7931 36.7931 106.2818 0.0000 0.0000 0.0000
# 4 0.0000 0.0000 0.0000 23.1611 0.0000 0.0000
# 5 0.0000 0.0000 0.0000 0.0000 23.1611 0.0000
# 6 0.0000 0.0000 0.0000 0.0000 0.0000 23.5033
#
#
#
# Elastic Compliance Matrix: (Units=1/GPa)
#
#
# Indices 1 2 3 4 5 6 
#
# 1 0.017083 -0.004191 -0.004463 0.000000 0.000000 0.000000
# 2 -0.004191 0.017083 -0.004463 0.000000 0.000000 0.000000
# 3 -0.004463 -0.004463 0.012499 0.000000 0.000000 0.000000
# 4 0.000000 0.000000 0.000000 0.043176 0.000000 0.000000
# 5 0.000000 0.000000 0.000000 0.000000 0.043176 0.000000
# 6 0.000000 0.000000 0.000000 0.000000 0.000000 0.042547
#
#
# Mechanical properties :
#
#
# Convention : Reuss Voigt Hill
#
# Bulk Modulus (GPa) = 48.94550 51.05990 50.00270
# Shear Modulus (GPa) = 23.96846 24.28019 24.12433
#
# Velocity S-wave (km/s) = 3.70104 3.72503 3.71306
# Velocity P-wave (km/s) = 6.79967 6.90517 6.85262
#
# Compressibility (1/GPa) = 0.02043089
#
# Stress axis : x y z
#
# Youngs Moduli (GPa) = 58.53853 58.53853 80.00651
#
# Poissons Ratio (x) = 0.24533 0.35707
# Poissons Ratio (y) = 0.24533 0.35707
# Poissons Ratio (z) = 0.26126 0.26126
#
# Static dielectric constant tensor:
#      x y z
#    x 3.050340 0.000000 0.000000 
#    y 0.000000 3.050340 0.000000 
#    z 0.000000 0.000000 3.396780 
# 
# 
# High freq. dielectric constant tensor:
#      x y z
#    x 1.638340 0.000000 0.000000 
#    y 0.000000 1.638340 0.000000 
#    z 0.000000 0.000000 1.695860 
# 
# From -- ./inp_files/9031.got.cif
#   From: 2010.03.12/outbox.cif.g09.slc.cpg/sg179_5_cif.got.tgz:9031.got - 2010.04.02 07:08:42.
