data_PCOD8326822
_publ_section_title
;
Structure prediction by ZEFSAII (Michael W. Deem and Ramdas Pophale) SiO2 
 PCOD8326822
Probable space group: P 63 M C
;
_chemical_formula_sum "Si O2"
_cell_formula_units_Z 84
_cell_length_a 13.452082
_cell_length_b 13.452082
_cell_length_c 35.172030
_cell_angle_alpha 90.000000
_cell_angle_beta 90.000000
_cell_angle_gamma 120.000000
_cell_volume 5511.972962
_symmetry_space_group_name_H-M "P 63 M C"
_symmetry_group_IT_number 186
_symmetry_cell_setting 'hexagonal'
loop_
_space_group_symop_operation_xyz
x,y,z
x-y,x,1/2+z
-y,x-y,z
-x,-y,1/2+z
-x+y,-x,z
y,-x+y,1/2+z
-x+y,y,z
x,x-y,z
-y,-x,z
y,x,1/2+z
x-y,-y,1/2+z
-x,-x+y,1/2+z
loop_
_atom_site_type_symbol
_atom_site_label
_atom_site_fract_x
_atom_site_fract_y
_atom_site_fract_z
Si Si1 0.098762 0.434806 0.522870
Si Si2 0.228683 0.999604 0.329745
Si Si3 0.103673 0.667053 0.968851
Si Si4 0.565456 0.664224 0.688133
Si Si5 0.104328 0.437947 0.881188
Si Si6 0.443970 0.108770 0.105583
Si Si7 0.999754 0.229016 0.742017
O O1 0.213225 0.426449 0.518462
O O2 0.130748 0.565374 0.514049
O O3 0.041485 0.397301 0.565489
O O4 0.003728 0.348127 0.493468
O O5 0.200505 0.100253 0.337940
O O6 0.333636 0.014364 0.355316
O O7 0.261199 0.999146 0.285877
O O8 0.118489 0.881512 0.341690
O O9 0.131059 0.565530 0.977080
O O10 0.214443 0.785558 0.980722
O O11 0.071541 0.667496 0.924957
O O12 0.544340 0.772170 0.688712
O O13 0.448144 0.551857 0.700631
O O14 0.605883 0.647753 0.645610
O O15 0.663617 0.680343 0.717279
O O16 0.233628 0.467255 0.872989
O O17 0.095394 0.547697 0.869471
O O18 0.581381 0.162762 0.106873
O O19 0.412376 0.206188 0.103817
O O20 0.100051 0.200101 0.733832
O O21 0.881022 0.118979 0.729963
#
# Coordination Sequence:
#
# PCOD8326822 Si02
#       7
#    12  12  12  12  12  12  12
#     4   9  16  26  42  63  85 108 136 172 212 250
#     4   9  17  29  45  63  82 105 134 168 203 238
#     4   9  17  29  44  61  82 110 142 172 202 240
#     4   9  16  26  42  64  88 110 133 166 210 255
#     4   9  17  29  45  64  85 109 136 167 205 248
#     4   8  13  22  37  58  83 109 135 164 203 250
#     4   9  17  29  44  61  81 107 138 169 199 233
#
# _framework density 15.239553000000001
#
# number of rings (size 3 to 8) (size 9 to 14) (size 15 to 20)
#    0.000    3.143    0.000    1.000    0.000    5.714 
#    0.000    0.714    0.000    2.571    0.000    0.000 
#    0.000    0.000    0.000    0.000    0.000    0.000 
#
# Total GULP energy -1040910.968910 kJ/mol
# GULP energy per Si atom -12391.797249 kJ/mol
# Density = 1.520487 g / cm^3
# Si number density = 15.239553 Si / 1000 Ang^3
#
#
#
# Elastic Constant Matrix: (Units=GPa)
#
#
# Indices 1 2 3 4 5 6 
#
# 1 88.9608 47.3939 60.5398 0.0000 0.0000 0.0000
# 2 47.3939 88.9608 60.5398 0.0000 0.0000 0.0000
# 3 60.5398 60.5398 94.0434 0.0000 0.0000 0.0000
# 4 0.0000 0.0000 0.0000 24.1990 0.0000 0.0000
# 5 0.0000 0.0000 0.0000 0.0000 24.1990 0.0000
# 6 0.0000 0.0000 0.0000 0.0000 0.0000 20.7835
#
#
#
# Elastic Compliance Matrix: (Units=1/GPa)
#
#
# Indices 1 2 3 4 5 6 
#
# 1 0.020589 -0.003469 -0.011021 0.000000 0.000000 0.000000
# 2 -0.003469 0.020589 -0.011021 0.000000 0.000000 0.000000
# 3 -0.011021 -0.011021 0.024823 0.000000 0.000000 0.000000
# 4 0.000000 0.000000 0.000000 0.041324 0.000000 0.000000
# 5 0.000000 0.000000 0.000000 0.000000 0.041324 0.000000
# 6 0.000000 0.000000 0.000000 0.000000 0.000000 0.048115
#
#
# Mechanical properties :
#
#
# Convention : Reuss Voigt Hill
#
# Bulk Modulus (GPa) = 66.75949 67.65690 67.20820
# Shear Modulus (GPa) = 19.78018 20.73574 20.25796
#
# Velocity S-wave (km/s) = 3.60662 3.69270 3.64991
# Velocity P-wave (km/s) = 7.82594 7.91665 7.87143
#
# Compressibility (1/GPa) = 0.01497914
#
# Stress axis : x y z
#
# Youngs Moduli (GPa) = 48.56984 48.56984 40.28550
#
# Poissons Ratio (x) = 0.16847 0.44399
# Poissons Ratio (y) = 0.16847 0.44399
# Poissons Ratio (z) = 0.53529 0.53529
#
# Static dielectric constant tensor:
#      x y z
#    x 2.757490 0.000000 0.000000 
#    y 0.000000 2.757490 0.000000 
#    z 0.000000 0.000000 3.217980 
# 
# 
# High freq. dielectric constant tensor:
#      x y z
#    x 1.562420 0.000000 0.000000 
#    y 0.000000 1.562420 0.000000 
#    z 0.000000 0.000000 1.596140 
# 
# From -- ./inp_files/4096.got.cif
#   From: 2010.03.12/outbox.cif.g09.slc.cpg/sg186_3_cif.got.tgz:4096.got - 2010.04.01 11:56:34.
