data_PCOD8326756
_publ_section_title
;
Structure prediction by ZEFSAII (Michael W. Deem and Ramdas Pophale) SiO2 
 PCOD8326756
Probable space group: P 63 M C
;
_chemical_formula_sum "Si O2"
_cell_formula_units_Z 84
_cell_length_a 16.721323
_cell_length_b 16.721323
_cell_length_c 22.433689
_cell_angle_alpha 90.000000
_cell_angle_beta 90.000000
_cell_angle_gamma 120.000000
_cell_volume 5432.160569
_symmetry_space_group_name_H-M "P 63 M C"
_symmetry_group_IT_number 186
_symmetry_cell_setting 'hexagonal'
loop_
_space_group_symop_operation_xyz
x,y,z
x-y,x,1/2+z
-y,x-y,z
-x,-y,1/2+z
-x+y,-x,z
y,-x+y,1/2+z
-x+y,y,z
x,x-y,z
-y,-x,z
y,x,1/2+z
x-y,-y,1/2+z
-x,-x+y,1/2+z
loop_
_atom_site_type_symbol
_atom_site_label
_atom_site_fract_x
_atom_site_fract_y
_atom_site_fract_z
Si Si1 0.721338 0.093074 0.188660
Si Si2 0.333038 0.856716 0.806975
Si Si3 0.844876 0.512525 0.544551
Si Si4 0.565262 0.953004 0.577866
Si Si5 0.900480 0.279937 0.426040
Si Si6 0.294145 0.056443 0.003666
Si Si7 0.186140 0.999609 0.623881
O O1 0.807940 0.192061 0.176743
O O2 0.682688 0.085468 0.255033
O O3 0.642843 0.085686 0.143999
O O4 0.750528 0.016532 0.172018
O O5 0.427805 0.855609 0.797515
O O6 0.249024 0.750977 0.809810
O O7 0.338680 0.913581 0.866414
O O8 0.765893 0.531786 0.569843
O O9 0.808203 0.404102 0.548810
O O10 0.866433 0.541831 0.475830
O O11 0.936790 0.572170 0.582593
O O12 0.465320 0.930640 0.554719
O O13 0.603939 0.907199 0.531279
O O14 0.826159 0.173842 0.413575
O O15 0.993106 0.280085 0.446351
O O16 0.285725 0.142863 0.981138
O O17 0.220885 0.000857 0.056312
O O18 0.079814 0.920187 0.630720
O O19 0.195694 0.097847 0.637670
#
# Coordination Sequence:
#
# PCOD8326756 Si02
#       7
#    12  12  12  12  12  12  12
#     4   9  18  30  43  61  85 113 142 176 218 258
#     4  10  19  31  47  66  88 114 145 179 215 256
#     4   9  16  25  39  61  88 115 140 168 207 254
#     4   9  16  26  41  60  82 109 140 174 212 253
#     4   9  17  28  43  64  88 113 140 173 213 255
#     4   9  17  29  45  64  87 115 143 174 214 259
#     4   9  16  27  45  68  92 117 146 180 216 255
#
# _framework density 15.463461000000001
#
# number of rings (size 3 to 8) (size 9 to 14) (size 15 to 20)
#    0.000    2.857    0.000    3.000    0.000    4.000 
#    0.000    2.143    0.000    3.429    0.000    0.000 
#    0.000    0.000    0.000    1.429    0.000    0.000 
#
# Total GULP energy -1041139.506264 kJ/mol
# GULP energy per Si atom -12394.517932 kJ/mol
# Density = 1.542827 g / cm^3
# Si number density = 15.463461 Si / 1000 Ang^3
#
#
#
# Elastic Constant Matrix: (Units=GPa)
#
#
# Indices 1 2 3 4 5 6 
#
# 1 75.3635 37.7828 34.5222 0.0000 0.0000 0.0000
# 2 37.7828 75.3635 34.5222 0.0000 0.0000 0.0000
# 3 34.5222 34.5222 79.2309 0.0000 0.0000 0.0000
# 4 0.0000 0.0000 0.0000 20.7530 0.0000 0.0000
# 5 0.0000 0.0000 0.0000 0.0000 20.7530 0.0000
# 6 0.0000 0.0000 0.0000 0.0000 0.0000 18.7903
#
#
#
# Elastic Compliance Matrix: (Units=1/GPa)
#
#
# Indices 1 2 3 4 5 6 
#
# 1 0.019324 -0.007285 -0.005246 0.000000 0.000000 0.000000
# 2 -0.007285 0.019324 -0.005246 0.000000 0.000000 0.000000
# 3 -0.005246 -0.005246 0.017193 0.000000 0.000000 0.000000
# 4 0.000000 0.000000 0.000000 0.048186 0.000000 0.000000
# 5 0.000000 0.000000 0.000000 0.000000 0.048186 0.000000
# 6 0.000000 0.000000 0.000000 0.000000 0.000000 0.053219
#
#
# Mechanical properties :
#
#
# Convention : Reuss Voigt Hill
#
# Bulk Modulus (GPa) = 49.28962 49.29023 49.28993
# Shear Modulus (GPa) = 20.18186 20.26798 20.22492
#
# Velocity S-wave (km/s) = 3.61658 3.62429 3.62044
# Velocity P-wave (km/s) = 7.02735 7.03267 7.03001
#
# Compressibility (1/GPa) = 0.02028825
#
# Stress axis : x y z
#
# Youngs Moduli (GPa) = 51.74838 51.74838 58.16466
#
# Poissons Ratio (x) = 0.37699 0.30511
# Poissons Ratio (y) = 0.37699 0.30511
# Poissons Ratio (z) = 0.27145 0.27145
#
# Static dielectric constant tensor:
#      x y z
#    x 2.979180 0.000000 0.000000 
#    y 0.000000 2.979180 0.000000 
#    z 0.000000 0.000000 2.866950 
# 
# 
# High freq. dielectric constant tensor:
#      x y z
#    x 1.589710 0.000000 0.000000 
#    y 0.000000 1.589710 0.000000 
#    z 0.000000 0.000000 1.569410 
# 
# From -- ./inp_files/3466.got.cif
#   From: 2010.03.12/outbox.cif.g09.slc.cpg/sg186_2_cif.got.tgz:3466.got - 2010.04.01 11:56:34.
