data_PCOD8326480
_publ_section_title
;
Structure prediction by ZEFSAII (Michael W. Deem and Ramdas Pophale) SiO2 
 PCOD8326480
Probable space group: P 63 2 2
;
_chemical_formula_sum "Si O2"
_cell_formula_units_Z 46
_cell_length_a 16.749970
_cell_length_b 16.749970
_cell_length_c 8.871142
_cell_angle_alpha 90.000000
_cell_angle_beta 90.000000
_cell_angle_gamma 120.000000
_cell_volume 2155.451374
_symmetry_space_group_name_H-M "P 63 2 2"
_symmetry_group_IT_number 182
_symmetry_cell_setting 'hexagonal'
loop_
_space_group_symop_operation_xyz
x,y,z
x-y,x,1/2+z
-y,x-y,z
-x,-y,1/2+z
-x+y,-x,z
y,-x+y,1/2+z
x-y,-y,-z
-x,-x+y,-z
y,x,-z
-y,-x,1/2-z
-x+y,y,1/2-z
x,x-y,1/2-z
loop_
_atom_site_type_symbol
_atom_site_label
_atom_site_fract_x
_atom_site_fract_y
_atom_site_fract_z
Si Si1 0.159348 0.002671 0.334438
Si Si2 0.545179 0.146546 0.577766
Si Si3 0.666667 0.333335 0.071122
Si Si4 0.637210 0.724593 0.281911
Si Si5 0.406682 0.000000 0.000000
O O1 0.201406 0.100703 0.250000
O O2 0.121315 0.000000 0.500000
O O3 0.237873 0.975698 0.347071
O O4 0.070211 0.929790 0.250000
O O5 0.581722 0.163443 0.750000
O O6 0.578780 0.242000 0.492012
O O7 0.434506 0.094959 0.590278
O O8 0.577672 0.087415 0.476248
O O9 0.666668 0.333334 0.250000
O O10 0.617985 0.808993 0.250000
O O11 0.634477 0.663809 0.138288
#
# Coordination Sequence:
#
# PCOD8326480 Si02
#       5
#    12  12   4  12   6
#     4  11  25  44  70 101 138 180 227 282 349 421
#     4  10  21  43  67  94 131 183 230 289 362 424
#     4  12  25  41  67 102 136 182 241 303 358 440
#     4  10  23  41  70  97 136 182 229 285 358 425
#     4  10  22  40  70  98 132 172 232 298 338 432
#
# _framework density 21.341238000000001
#
# number of rings (size 3 to 8) (size 9 to 14) (size 15 to 20)
#    0.000    1.565    0.000    4.957    9.130    3.130 
#    0.000    0.000    0.000    0.000    0.000    0.000 
#    0.000    0.000    0.000    0.000    0.000    0.000 
#
# Total GULP energy -570130.774892 kJ/mol
# GULP energy per Si atom -12394.147280 kJ/mol
# Density = 2.129266 g / cm^3
# Si number density = 21.341238 Si / 1000 Ang^3
#
#
#
# Elastic Constant Matrix: (Units=GPa)
#
#
# Indices 1 2 3 4 5 6 
#
# 1 105.4735 56.0371 63.3860 0.0000 0.0000 -0.0001
# 2 56.0371 105.4742 63.3856 -0.0002 -0.0001 0.0002
# 3 63.3860 63.3856 137.2696 0.0000 -0.0001 -0.0002
# 4 0.0000 -0.0002 0.0000 31.5946 0.0001 0.0001
# 5 0.0000 -0.0001 -0.0001 0.0001 31.5945 -0.0001
# 6 -0.0001 0.0002 -0.0002 0.0001 -0.0001 24.7191
#
#
#
# Elastic Compliance Matrix: (Units=1/GPa)
#
#
# Indices 1 2 3 4 5 6 
#
# 1 0.014970 -0.005258 -0.004484 0.000000 0.000000 0.000000
# 2 -0.005258 0.014969 -0.004484 0.000000 0.000000 0.000000
# 3 -0.004484 -0.004484 0.011426 0.000000 0.000000 0.000000
# 4 0.000000 0.000000 0.000000 0.031651 0.000000 0.000000
# 5 0.000000 0.000000 0.000000 0.000000 0.031651 0.000000
# 6 0.000000 0.000000 0.000000 0.000000 0.000000 0.040455
#
#
# Mechanical properties :
#
#
# Convention : Reuss Voigt Hill
#
# Bulk Modulus (GPa) = 77.44924 79.31496 78.38210
# Shear Modulus (GPa) = 28.10886 28.60887 28.35887
#
# Velocity S-wave (km/s) = 3.63314 3.66532 3.64927
# Velocity P-wave (km/s) = 7.34638 7.42688 7.38674
#
# Compressibility (1/GPa) = 0.01291168
#
# Stress axis : x y z
#
# Youngs Moduli (GPa) = 66.80158 66.80254 87.51749
#
# Poissons Ratio (x) = 0.35127 0.39246
# Poissons Ratio (y) = 0.35126 0.39245
# Poissons Ratio (z) = 0.29956 0.29956
#
# Static dielectric constant tensor:
#      x y z
#    x 4.079000 0.000000 0.000000 
#    y 0.000000 4.079000 0.000000 
#    z 0.000000 0.000000 3.690620 
# 
# 
# High freq. dielectric constant tensor:
#      x y z
#    x 1.849040 0.000000 0.000000 
#    y 0.000000 1.849040 0.000000 
#    z 0.000000 0.000000 1.824950 
# 
# From -- ./inp_files/1487.got.cif
#   From: 2010.03.12/outbox.cif.g09.slc.cpg/sg182_1_cif.got.tgz:1487.got - 2010.04.01 11:49:36.
