data_PCOD8326324
_publ_section_title
;
Structure prediction by ZEFSAII (Michael W. Deem and Ramdas Pophale) SiO2 
 PCOD8326324
Probable space group: P 64 2 2
;
_chemical_formula_sum "Si O2"
_cell_formula_units_Z 54
_cell_length_a 15.825842
_cell_length_b 15.825842
_cell_length_c 12.390259
_cell_angle_alpha 90.000000
_cell_angle_beta 90.000000
_cell_angle_gamma 120.000000
_cell_volume 2687.476452
_symmetry_space_group_name_H-M "P 64 2 2"
_symmetry_group_IT_number 181
_symmetry_cell_setting 'hexagonal'
loop_
_space_group_symop_operation_xyz
x,y,z
x-y,x,2/3+z
-y,x-y,1/3+z
-x,-y,z
-x+y,-x,2/3+z
y,-x+y,1/3+z
x-y,-y,-z
-x,-x+y,2/3-z
y,x,1/3-z
-y,-x,1/3-z
-x+y,y,-z
x,x-y,2/3-z
loop_
_atom_site_type_symbol
_atom_site_label
_atom_site_fract_x
_atom_site_fract_y
_atom_site_fract_z
Si Si1 0.562768 0.840318 0.649581
Si Si2 0.279866 0.501679 0.879628
Si Si3 0.427164 0.713582 0.833334
Si Si4 0.798524 0.086487 0.070962
Si Si5 0.999336 0.597185 0.529623
O O1 0.530424 0.817816 0.524451
O O2 0.490689 0.751239 0.725949
O O3 0.663965 0.840954 0.656357
O O4 0.570934 0.941581 0.688769
O O5 0.363990 0.597675 0.823511
O O6 0.312684 0.420538 0.879504
O O7 0.262481 0.524962 0.000000
O O8 0.878850 0.121151 0.166667
O O9 0.689466 0.056830 0.114632
O O10 0.795749 0.000000 0.000000
O O11 0.000000 0.500000 0.487778
#
# Coordination Sequence:
#
# PCOD8326324 Si02
#       5
#    12  12   6  12  12
#     4  11  21  38  60  83 115 153 211 261 303 366
#     4  12  25  38  55  81 120 161 205 250 311 367
#     4  12  22  38  54  81 110 160 214 261 300 346
#     4  10  19  35  59  90 120 155 206 265 311 363
#     4  11  21  37  57  84 113 161 211 252 308 365
#
# _framework density 20.093198999999998
#
# number of rings (size 3 to 8) (size 9 to 14) (size 15 to 20)
#    0.000    0.889    7.778    2.000    0.000    1.333 
#    0.000    1.111    0.000    0.000    0.000    0.000 
#    0.000   35.556    0.000    0.000    0.000    0.000 
#
# Total GULP energy -669221.875133 kJ/mol
# GULP energy per Si atom -12392.997688 kJ/mol
# Density = 2.004747 g / cm^3
# Si number density = 20.093199 Si / 1000 Ang^3
#
#
#
# Elastic Constant Matrix: (Units=GPa)
#
#
# Indices 1 2 3 4 5 6 
#
# 1 79.0727 27.2464 26.8399 0.0000 0.0000 0.0000
# 2 27.2464 79.0727 26.8399 0.0000 0.0000 0.0000
# 3 26.8399 26.8399 107.8230 0.0000 0.0000 0.0000
# 4 0.0000 0.0000 0.0000 16.5046 0.0000 0.0000
# 5 0.0000 0.0000 0.0000 0.0000 16.5046 0.0000
# 6 0.0000 0.0000 0.0000 0.0000 0.0000 25.9132
#
#
#
# Elastic Compliance Matrix: (Units=1/GPa)
#
#
# Indices 1 2 3 4 5 6 
#
# 1 0.015026 -0.004269 -0.002678 0.000000 0.000000 0.000000
# 2 -0.004269 0.015026 -0.002678 0.000000 0.000000 0.000000
# 3 -0.002678 -0.002678 0.010608 0.000000 0.000000 0.000000
# 4 0.000000 0.000000 0.000000 0.060589 0.000000 0.000000
# 5 0.000000 0.000000 0.000000 0.000000 0.060589 0.000000
# 6 0.000000 0.000000 0.000000 0.000000 0.000000 0.038590
#
#
# Mechanical properties :
#
#
# Convention : Reuss Voigt Hill
#
# Bulk Modulus (GPa) = 46.70375 47.53564 47.11970
# Shear Modulus (GPa) = 22.04439 24.12064 23.08251
#
# Velocity S-wave (km/s) = 3.31585 3.46849 3.39303
# Velocity P-wave (km/s) = 6.16067 6.30472 6.23311
#
# Compressibility (1/GPa) = 0.02141156
#
# Stress axis : x y z
#
# Youngs Moduli (GPa) = 66.54934 66.54934 94.27173
#
# Poissons Ratio (x) = 0.28408 0.25245
# Poissons Ratio (y) = 0.28408 0.25245
# Poissons Ratio (z) = 0.17821 0.17821
#
# Static dielectric constant tensor:
#      x y z
#    x 3.686640 0.000000 0.000000 
#    y 0.000000 3.686640 0.000000 
#    z 0.000000 0.000000 3.054510 
# 
# 
# High freq. dielectric constant tensor:
#      x y z
#    x 1.768270 0.000000 0.000000 
#    y 0.000000 1.768270 0.000000 
#    z 0.000000 0.000000 1.775750 
# 
# From -- ./inp_files/4705.got.cif
#   From: 2010.03.12/outbox.cif.g09.slc.cpg/sg181_3_cif.got.tgz:4705.got - 2010.04.01 11:42:41.
