data_PCOD8326326
_publ_section_title
;
Structure prediction by ZEFSAII (Michael W. Deem and Ramdas Pophale) SiO2 
 PCOD8326326
Probable space group: P 64 2 2
;
_chemical_formula_sum "Si O2"
_cell_formula_units_Z 84
_cell_length_a 13.710377
_cell_length_b 13.710377
_cell_length_c 28.274908
_cell_angle_alpha 90.000000
_cell_angle_beta 90.000000
_cell_angle_gamma 120.000000
_cell_volume 4602.890316
_symmetry_space_group_name_H-M "P 64 2 2"
_symmetry_group_IT_number 181
_symmetry_cell_setting 'hexagonal'
loop_
_space_group_symop_operation_xyz
x,y,z
x-y,x,2/3+z
-y,x-y,1/3+z
-x,-y,z
-x+y,-x,2/3+z
y,-x+y,1/3+z
x-y,-y,-z
-x,-x+y,2/3-z
y,x,1/3-z
-y,-x,1/3-z
-x+y,y,-z
x,x-y,2/3-z
loop_
_atom_site_type_symbol
_atom_site_label
_atom_site_fract_x
_atom_site_fract_y
_atom_site_fract_z
Si Si1 0.179058 0.844967 0.303509
Si Si2 0.714916 0.300286 0.288783
Si Si3 0.824433 0.948384 0.158114
Si Si4 0.879779 0.484371 0.226482
Si Si5 0.416638 0.839028 0.791102
Si Si6 0.325886 0.330791 0.441769
Si Si7 0.714981 0.781709 0.600951
O O1 0.265573 0.799091 0.306485
O O2 0.245417 0.959410 0.271933
O O3 0.146870 0.861874 0.356689
O O4 0.060820 0.751792 0.281403
O O5 0.663340 0.331670 0.333334
O O6 0.833146 0.404171 0.271831
O O7 0.632667 0.267942 0.243658
O O8 0.840585 0.840585 0.166667
O O9 0.804665 0.938959 0.102423
O O10 0.724821 0.953104 0.187132
O O11 0.937187 0.062814 0.166667
O O12 0.806840 0.436620 0.178074
O O13 0.879912 0.595977 0.241664
O O14 0.000000 0.500000 0.212450
O O15 0.552845 0.887778 0.793831
O O16 0.371629 0.915185 0.766004
#
# Coordination Sequence:
#
# PCOD8326326 Si02
#       7
#    12  12  12  12  12  12  12
#     4  10  21  32  55  82 119 148 176 233 293 360
#     4  11  22  34  50  86 121 150 187 229 294 360
#     4  11  22  37  59  82 112 153 195 241 286 344
#     4  12  19  31  53  87 116 149 184 227 291 359
#     4  10  21  35  58  84 114 152 191 243 285 345
#     4  10  19  37  57  82 110 149 197 232 288 342
#     4  11  20  34  54  83 116 148 180 228 299 347
#
# _framework density 18.249403000000001
#
# number of rings (size 3 to 8) (size 9 to 14) (size 15 to 20)
#    0.000    1.286    7.143    0.429    0.000    0.286 
#    0.000    2.143    0.000    0.000    0.000    1.000 
#    0.000    0.000    0.000    0.000    0.000    0.000 
#
# Total GULP energy -1040668.206889 kJ/mol
# GULP energy per Si atom -12388.907225 kJ/mol
# Density = 1.820787 g / cm^3
# Si number density = 18.249403 Si / 1000 Ang^3
#
#
#
# Elastic Constant Matrix: (Units=GPa)
#
#
# Indices 1 2 3 4 5 6 
#
# 1 55.8161 23.0537 40.9256 0.0000 0.0000 0.0000
# 2 23.0537 55.8161 40.9256 0.0000 0.0000 0.0000
# 3 40.9256 40.9256 147.4455 0.0000 0.0000 0.0000
# 4 0.0000 0.0000 0.0000 26.6273 0.0000 0.0000
# 5 0.0000 0.0000 0.0000 0.0000 26.6273 0.0000
# 6 0.0000 0.0000 0.0000 0.0000 0.0000 16.3812
#
#
#
# Elastic Compliance Matrix: (Units=1/GPa)
#
#
# Indices 1 2 3 4 5 6 
#
# 1 0.024166 -0.006357 -0.004943 0.000000 0.000000 0.000000
# 2 -0.006357 0.024166 -0.004943 0.000000 0.000000 0.000000
# 3 -0.004943 -0.004943 0.009526 0.000000 0.000000 0.000000
# 4 0.000000 0.000000 0.000000 0.037556 0.000000 0.000000
# 5 0.000000 0.000000 0.000000 0.000000 0.037556 0.000000
# 6 0.000000 0.000000 0.000000 0.000000 0.000000 0.061045
#
#
# Mechanical properties :
#
#
# Convention : Reuss Voigt Hill
#
# Bulk Modulus (GPa) = 39.41375 52.09860 45.75617
# Shear Modulus (GPa) = 21.28038 24.20535 22.74286
#
# Velocity S-wave (km/s) = 3.41851 3.64588 3.53402
# Velocity P-wave (km/s) = 6.10129 6.80686 6.46371
#
# Compressibility (1/GPa) = 0.02537186
#
# Stress axis : x y z
#
# Youngs Moduli (GPa) = 41.38054 41.38054 104.97294
#
# Poissons Ratio (x) = 0.26305 0.51890
# Poissons Ratio (y) = 0.26305 0.51890
# Poissons Ratio (z) = 0.20455 0.20455
#
# Static dielectric constant tensor:
#      x y z
#    x 3.306920 0.000000 0.000000 
#    y 0.000000 3.306920 0.000000 
#    z 0.000000 0.000000 3.594080 
# 
# 
# High freq. dielectric constant tensor:
#      x y z
#    x 1.683760 0.000000 0.000000 
#    y 0.000000 1.683760 0.000000 
#    z 0.000000 0.000000 1.719260 
# 
# From -- ./inp_files/11348.got.cif
#   From: 2010.03.12/outbox.cif.g09.slc.cpg/sg181_6_cif.got.tgz:11348.got - 2010.04.01 11:42:41.
