data_PCOD8326254
_publ_section_title
;
Structure prediction by ZEFSAII (Michael W. Deem and Ramdas Pophale) SiO2 
 PCOD8326254
Probable space group: P 62 2 2
;
_chemical_formula_sum "Si O2"
_cell_formula_units_Z 72
_cell_length_a 14.771516
_cell_length_b 14.771516
_cell_length_c 16.363751
_cell_angle_alpha 90.000000
_cell_angle_beta 90.000000
_cell_angle_gamma 120.000000
_cell_volume 3092.171924
_symmetry_space_group_name_H-M "P 62 2 2"
_symmetry_group_IT_number 180
_symmetry_cell_setting 'hexagonal'
loop_
_space_group_symop_operation_xyz
x,y,z
x-y,x,1/3+z
-y,x-y,2/3+z
-x,-y,z
-x+y,-x,1/3+z
y,-x+y,2/3+z
x-y,-y,-z
-x,-x+y,1/3-z
y,x,2/3-z
-y,-x,2/3-z
-x+y,y,-z
x,x-y,1/3-z
loop_
_atom_site_type_symbol
_atom_site_label
_atom_site_fract_x
_atom_site_fract_y
_atom_site_fract_z
Si Si1 0.533657 0.284361 0.379032
Si Si2 0.385143 0.948127 0.587696
Si Si3 0.558531 0.944923 0.844724
Si Si4 0.628527 0.754635 0.245365
Si Si5 0.753048 0.063005 0.299016
Si Si6 0.075779 0.931934 0.740597
O O1 0.646095 0.353906 0.333334
O O2 0.518284 0.177361 0.419512
O O3 0.523402 0.359517 0.445371
O O4 0.436985 0.237577 0.318345
O O5 0.500000 0.000000 0.628325
O O6 0.395274 0.000000 0.500000
O O7 0.313082 0.978498 0.641155
O O8 0.626026 0.922642 0.782078
O O9 0.500000 0.000000 0.801287
O O10 0.636008 0.031893 0.908499
O O11 0.597100 0.798550 0.166667
O O12 0.750869 0.821896 0.261366
O O13 0.819715 0.180286 0.333334
O O14 0.834065 0.025312 0.276986
O O15 0.047077 0.952924 0.833334
O O16 0.000000 0.929543 0.666667
#
# Coordination Sequence:
#
# PCOD8326254 Si02
#       6
#    12  12  12  12  12  12
#     4  12  24  42  74 115 144 188 251 320 397 478
#     4  11  26  50  69  93 142 200 252 311 372 458
#     4  12  23  41  72 113 150 181 234 317 400 471
#     4  11  21  40  67 106 149 189 235 300 397 465
#     4  12  26  44  69 101 136 197 247 292 376 463
#     4  11  23  43  73 103 144 190 245 320 389 460
#
# _framework density 23.284606
#
# number of rings (size 3 to 8) (size 9 to 14) (size 15 to 20)
#    0.000    0.500    6.667    3.000    0.000    2.333 
#    3.000    0.833    0.000    0.000    0.000    0.000 
#    0.000    0.000    0.000    0.000    0.000    0.000 
#
# Total GULP energy -892463.334894 kJ/mol
# GULP energy per Si atom -12395.324096 kJ/mol
# Density = 2.323161 g / cm^3
# Si number density = 23.284606 Si / 1000 Ang^3
#
#
#
# Elastic Constant Matrix: (Units=GPa)
#
#
# Indices 1 2 3 4 5 6 
#
# 1 108.3445 66.0179 35.3632 0.0000 0.0000 0.0000
# 2 66.0179 108.3445 35.3632 0.0000 0.0000 0.0000
# 3 35.3632 35.3632 130.8904 0.0000 0.0000 0.0000
# 4 0.0000 0.0000 0.0000 29.4990 0.0000 0.0000
# 5 0.0000 0.0000 0.0000 0.0000 29.4990 0.0000
# 6 0.0000 0.0000 0.0000 0.0000 0.0000 21.1633
#
#
#
# Elastic Compliance Matrix: (Units=1/GPa)
#
#
# Indices 1 2 3 4 5 6 
#
# 1 0.015033 -0.008592 -0.001740 0.000000 0.000000 0.000000
# 2 -0.008592 0.015033 -0.001740 0.000000 0.000000 0.000000
# 3 -0.001740 -0.001740 0.008580 0.000000 0.000000 0.000000
# 4 0.000000 0.000000 0.000000 0.033899 0.000000 0.000000
# 5 0.000000 0.000000 0.000000 0.000000 0.033899 0.000000
# 6 0.000000 0.000000 0.000000 0.000000 0.000000 0.047252
#
#
# Mechanical properties :
#
#
# Convention : Reuss Voigt Hill
#
# Bulk Modulus (GPa) = 68.95795 69.00753 68.98274
# Shear Modulus (GPa) = 27.37072 30.08796 28.72934
#
# Velocity S-wave (km/s) = 3.43226 3.59859 3.51641
# Velocity P-wave (km/s) = 6.73697 6.85328 6.79537
#
# Compressibility (1/GPa) = 0.01450159
#
# Stress axis : x y z
#
# Youngs Moduli (GPa) = 66.51844 66.51844 116.54613
#
# Poissons Ratio (x) = 0.57155 0.20281
# Poissons Ratio (y) = 0.57155 0.20281
# Poissons Ratio (z) = 0.11576 0.11576
#
# Static dielectric constant tensor:
#      x y z
#    x 4.346250 0.000000 0.000000 
#    y 0.000000 4.346250 0.000000 
#    z 0.000000 0.000000 4.401200 
# 
# 
# High freq. dielectric constant tensor:
#      x y z
#    x 1.926920 0.000000 0.000000 
#    y 0.000000 1.926920 0.000000 
#    z 0.000000 0.000000 1.921260 
# 
# From -- ./inp_files/7753.got.cif
#   From: 2010.03.12/outbox.cif.g09.slc.cpg/sg180_4_cif.got.tgz:7753.got - 2010.04.01 11:35:50.
