data_PCOD8326117
_publ_section_title
;
Structure prediction by ZEFSAII (Michael W. Deem and Ramdas Pophale) SiO2 
 PCOD8326117
Probable space group: P 65 2 2
;
_chemical_formula_sum "Si O2"
_cell_formula_units_Z 12
_cell_length_a 11.094550
_cell_length_b 11.094550
_cell_length_c 4.699263
_cell_angle_alpha 90.000000
_cell_angle_beta 90.000000
_cell_angle_gamma 120.000000
_cell_volume 500.933143
_symmetry_space_group_name_H-M "P 65 2 2"
_symmetry_group_IT_number 179
_symmetry_cell_setting 'hexagonal'
loop_
_space_group_symop_operation_xyz
x,y,z
x-y,x,5/6+z
-y,x-y,2/3+z
-x,-y,1/2+z
-x+y,-x,1/3+z
y,-x+y,1/6+z
x-y,-y,-z
-x,-x+y,1/3-z
y,x,2/3-z
-y,-x,1/6-z
-x+y,y,1/2-z
x,x-y,5/6-z
loop_
_atom_site_type_symbol
_atom_site_label
_atom_site_fract_x
_atom_site_fract_y
_atom_site_fract_z
Si Si1 0.253791 0.507582 0.750000
Si Si2 0.684325 0.842163 0.916667
O O1 0.399633 0.600368 0.583334
O O2 0.150050 0.409884 0.504741
O O3 0.782981 0.782981 0.833334
#
# Coordination Sequence:
#
# PCOD8326117 Si02
#       2
#     6   6
#     4  12  24  51  74 115 148 192 250 314 384 434
#     4  12  28  49  78 109 150 202 250 306 374 452
#
# _framework density 23.955293000000001
#
# number of rings (size 3 to 8) (size 9 to 14) (size 15 to 20)
#    0.000    0.000    5.000    3.000    0.000   12.000 
#    9.000    0.000    0.000    0.000    0.000    0.000 
#    0.000    0.000    0.000    0.000    0.000    0.000 
#
# Total GULP energy -148702.396830 kJ/mol
# GULP energy per Si atom -12391.866402 kJ/mol
# Density = 2.390077 g / cm^3
# Si number density = 23.955293 Si / 1000 Ang^3
#
#
#
# Elastic Constant Matrix: (Units=GPa)
#
#
# Indices 1 2 3 4 5 6 
#
# 1 142.7145 113.2870 97.3968 0.0000 0.0000 0.0000
# 2 113.2870 142.7145 97.3968 0.0000 0.0000 0.0000
# 3 97.3968 97.3968 219.0355 0.0000 0.0000 0.0000
# 4 0.0000 0.0000 0.0000 47.9031 0.0000 0.0000
# 5 0.0000 0.0000 0.0000 0.0000 47.9031 0.0000
# 6 0.0000 0.0000 0.0000 0.0000 0.0000 14.7137
#
#
#
# Elastic Compliance Matrix: (Units=1/GPa)
#
#
# Indices 1 2 3 4 5 6 
#
# 1 0.019943 -0.014039 -0.002625 0.000000 0.000000 0.000000
# 2 -0.014039 0.019943 -0.002625 0.000000 0.000000 0.000000
# 3 -0.002625 -0.002625 0.006900 0.000000 0.000000 0.000000
# 4 0.000000 0.000000 0.000000 0.020875 0.000000 0.000000
# 5 0.000000 0.000000 0.000000 0.000000 0.020875 0.000000
# 6 0.000000 0.000000 0.000000 0.000000 0.000000 0.067964
#
#
# Mechanical properties :
#
#
# Convention : Reuss Voigt Hill
#
# Bulk Modulus (GPa) = 121.84873 124.51396 123.18135
# Shear Modulus (GPa) = 25.27619 35.19626 30.23622
#
# Velocity S-wave (km/s) = 3.25182 3.83723 3.55659
# Velocity P-wave (km/s) = 8.06688 8.46894 8.27035
#
# Compressibility (1/GPa) = 0.00820690
#
# Stress axis : x y z
#
# Youngs Moduli (GPa) = 50.14346 50.14346 144.92553
#
# Poissons Ratio (x) = 0.70397 0.38045
# Poissons Ratio (y) = 0.70397 0.38045
# Poissons Ratio (z) = 0.13163 0.13163
#
# Static dielectric constant tensor:
#      x y z
#    x 4.104120 0.000000 0.000000 
#    y 0.000000 4.104120 0.000000 
#    z 0.000000 0.000000 5.143690 
# 
# 
# High freq. dielectric constant tensor:
#      x y z
#    x 1.939480 0.000000 0.000000 
#    y 0.000000 1.939480 0.000000 
#    z 0.000000 0.000000 1.991210 
# 
# From -- ./inp_files/96.got.cif
#   From: 2010.03.12/outbox.cif.g09.slc.cpg/sg179_1_cif.got.tgz:96.got - 2010.04.02 07:08:42.
