data_PCOD8326643
_publ_section_title
;
Structure prediction by ZEFSAII (Michael W. Deem and Ramdas Pophale) SiO2 
 PCOD8326643
Probable space group: P 63 C M
;
_chemical_formula_sum "Si O2"
_cell_formula_units_Z 96
_cell_length_a 14.334302
_cell_length_b 14.334302
_cell_length_c 27.792849
_cell_angle_alpha 90.000000
_cell_angle_beta 90.000000
_cell_angle_gamma 120.000000
_cell_volume 4945.575084
_symmetry_space_group_name_H-M "P 63 C M"
_symmetry_group_IT_number 185
_symmetry_cell_setting 'hexagonal'
loop_
_space_group_symop_operation_xyz
x,y,z
x-y,x,1/2+z
-y,x-y,z
-x,-y,1/2+z
-x+y,-x,z
y,-x+y,1/2+z
-x+y,y,1/2+z
x,x-y,1/2+z
-y,-x,1/2+z
y,x,z
x-y,-y,z
-x,-x+y,z
loop_
_atom_site_type_symbol
_atom_site_label
_atom_site_fract_x
_atom_site_fract_y
_atom_site_fract_z
Si Si1 0.234161 0.873116 0.401280
Si Si2 0.394507 0.270745 0.319785
Si Si3 0.234161 0.873116 0.654477
Si Si4 0.705011 0.127654 0.473562
Si Si5 0.124625 0.555355 0.164696
Si Si6 0.124625 0.555355 0.891061
Si Si7 0.294989 0.422642 0.582195
Si Si8 0.123762 0.394507 0.235972
O O1 0.139918 0.815315 0.361504
O O2 0.184715 0.828294 0.454108
O O3 0.318169 0.832216 0.386674
O O4 0.282436 0.000000 0.400429
O O5 0.325961 0.325961 0.300959
O O6 0.508684 0.362056 0.342069
O O7 0.417839 0.208919 0.277878
O O8 0.318169 0.832216 0.669083
O O9 0.184715 0.828294 0.601648
O O10 0.139918 0.815315 0.694253
O O11 0.282436 0.000000 0.655328
O O12 0.643617 0.170376 0.438758
O O13 0.703705 0.165605 0.527878
O O14 0.655011 0.000000 0.470788
O O15 0.170376 0.526760 0.116999
O O16 0.146628 0.508684 0.213688
O O17 0.000000 0.501650 0.154717
O O18 0.000000 0.501650 0.901039
O O19 0.344989 0.344989 0.584969
O O20 0.000000 0.325961 0.254797
#
# Coordination Sequence:
#
# PCOD8326643 Si02
#       8
#    12  12  12  12  12  12  12  12
#     4  10  19  33  55  79 106 140 177 218 262 315
#     4  10  20  36  57  79 106 139 175 216 263 316
#     4  10  19  33  55  79 106 140 177 218 262 315
#     4   9  18  34  54  75 106 144 176 214 264 312
#     4   8  17  33  51  74 104 135 170 213 260 308
#     4   8  17  33  51  74 104 135 170 213 260 308
#     4   9  18  34  54  75 106 144 176 214 264 312
#     4  10  20  36  57  79 106 139 175 216 263 316
#
# _framework density 19.411292
#
# number of rings (size 3 to 8) (size 9 to 14) (size 15 to 20)
#    0.000    2.750    0.000    3.000    0.000    2.500 
#   12.000    6.250    0.000    9.500    0.000    0.000 
#    0.000    0.000    0.000    0.000    0.000    0.000 
#
# Total GULP energy -1189480.892762 kJ/mol
# GULP energy per Si atom -12390.425966 kJ/mol
# Density = 1.936711 g / cm^3
# Si number density = 19.411292 Si / 1000 Ang^3
#
#
#
# Elastic Constant Matrix: (Units=GPa)
#
#
# Indices 1 2 3 4 5 6 
#
# 1 58.8908 14.5966 23.4159 0.0000 0.0000 0.0000
# 2 14.5966 58.8908 23.4159 0.0000 0.0000 0.0000
# 3 23.4159 23.4159 111.6174 0.0000 0.0000 0.0000
# 4 0.0000 0.0000 0.0000 24.2607 0.0000 0.0000
# 5 0.0000 0.0000 0.0000 0.0000 24.2607 0.0000
# 6 0.0000 0.0000 0.0000 0.0000 0.0000 22.1471
#
#
#
# Elastic Compliance Matrix: (Units=1/GPa)
#
#
# Indices 1 2 3 4 5 6 
#
# 1 0.019142 -0.003434 -0.003295 0.000000 0.000000 0.000000
# 2 -0.003434 0.019142 -0.003295 0.000000 0.000000 0.000000
# 3 -0.003295 -0.003295 0.010342 0.000000 0.000000 0.000000
# 4 0.000000 0.000000 0.000000 0.041219 0.000000 0.000000
# 5 0.000000 0.000000 0.000000 0.000000 0.041219 0.000000
# 6 0.000000 0.000000 0.000000 0.000000 0.000000 0.045153
#
#
# Mechanical properties :
#
#
# Convention : Reuss Voigt Hill
#
# Bulk Modulus (GPa) = 34.99416 39.13954 37.06685
# Shear Modulus (GPa) = 24.29646 25.33176 24.81411
#
# Velocity S-wave (km/s) = 3.54173 3.61640 3.57926
# Velocity P-wave (km/s) = 5.89847 6.13554 6.01817
#
# Compressibility (1/GPa) = 0.02857619
#
# Stress axis : x y z
#
# Youngs Moduli (GPa) = 52.24105 52.24105 96.69501
#
# Poissons Ratio (x) = 0.17941 0.31864
# Poissons Ratio (y) = 0.17941 0.31864
# Poissons Ratio (z) = 0.17215 0.17215
#
# Static dielectric constant tensor:
#      x y z
#    x 3.600520 0.000000 0.000000 
#    y 0.000000 3.600520 0.000000 
#    z 0.000000 0.000000 3.612890 
# 
# 
# High freq. dielectric constant tensor:
#      x y z
#    x 1.743120 0.000000 0.000000 
#    y 0.000000 1.743120 0.000000 
#    z 0.000000 0.000000 1.756890 
# 
# From -- ./inp_files/2177.got.cif
#   From: 2010.03.12/outbox.cif.g09.slc.cpg/sg185_cif.got.tgz:2177.got - 2010.04.01 11:55:19.
