data_PCOD8326998
_publ_section_title
;
Structure prediction by ZEFSAII (Michael W. Deem and Ramdas Pophale) SiO2 
 PCOD8326998
Probable space group: P -6 M 2
;
_chemical_formula_sum "Si O2"
_cell_formula_units_Z 54
_cell_length_a 18.321033
_cell_length_b 18.321033
_cell_length_c 11.499623
_cell_angle_alpha 90.000000
_cell_angle_beta 90.000000
_cell_angle_gamma 120.000000
_cell_volume 3342.828902
_symmetry_space_group_name_H-M "P -6 M 2"
_symmetry_group_IT_number 187
_symmetry_cell_setting 'hexagonal'
loop_
_space_group_symop_operation_xyz
x,y,z
-x+y,-x,-z
-y,x-y,z
x,y,-z
-x+y,-x,z
-y,x-y,-z
-y,-x,-z
-x+y,y,-z
x,x-y,-z
-x+y,y,z
x,x-y,z
-y,-x,z
loop_
_atom_site_type_symbol
_atom_site_label
_atom_site_fract_x
_atom_site_fract_y
_atom_site_fract_z
Si Si1 0.192170 0.384339 0.636673
Si Si2 0.904400 0.808800 0.638644
Si Si3 0.369562 0.904078 0.248361
Si Si4 0.806993 0.903497 0.638563
Si Si5 0.921068 0.542294 0.366248
Si Si6 0.381459 0.190730 0.362773
Si Si7 0.335131 0.498077 0.000000
O O1 0.188669 0.377337 0.500000
O O2 0.149709 0.437639 0.675375
O O3 0.144429 0.288857 0.687832
O O4 0.904318 0.808635 0.500000
O O5 0.855796 0.856241 0.685176
O O6 0.856696 0.713392 0.688685
O O7 0.436721 0.873441 0.276288
O O8 0.408197 0.000748 0.281438
O O9 0.346741 0.894081 0.112152
O O10 0.806243 0.903122 0.500000
O O11 0.948275 0.571727 0.500000
O O12 0.883690 0.441845 0.355595
O O13 0.852295 0.565273 0.321110
O O14 0.373804 0.186902 0.500000
O O15 0.402677 0.597324 0.000000
O O16 0.243115 0.486230 0.000000
#
# Coordination Sequence:
#
# PCOD8326998 Si02
#       7
#     6   6  12   6  12   6   6
#     4  11  20  30  45  68  97 129 163 195 240 292
#     4   9  15  24  37  56  85 118 156 187 224 269
#     4  10  20  33  49  67  93 126 162 202 245 286
#     4   9  17  26  40  63  91 124 155 195 231 273
#     4   9  17  30  47  69  97 127 160 198 242 291
#     4   9  16  27  44  66  93 130 159 188 234 290
#     4  10  19  34  52  69  88 120 164 210 248 283
#
# _framework density 16.153981000000002
#
# number of rings (size 3 to 8) (size 9 to 14) (size 15 to 20)
#    0.000    2.444    1.111    2.333    0.000    5.778 
#    1.333    0.000    0.000    0.667    0.000    0.000 
#    0.000    0.889    0.000    0.111    0.000    0.444 
#
# Total GULP energy -669477.129498 kJ/mol
# GULP energy per Si atom -12397.724620 kJ/mol
# Density = 1.611721 g / cm^3
# Si number density = 16.153981 Si / 1000 Ang^3
#
#
#
# Elastic Constant Matrix: (Units=GPa)
#
#
# Indices 1 2 3 4 5 6 
#
# 1 132.9944 82.5384 37.4777 0.0000 -0.0003 0.0000
# 2 82.5384 132.9944 37.4777 0.0000 0.0003 0.0000
# 3 37.4777 37.4777 54.9670 0.0000 0.0000 0.0000
# 4 0.0000 0.0000 0.0000 33.9688 0.0000 0.0003
# 5 -0.0003 0.0003 0.0000 0.0000 33.9688 0.0000
# 6 0.0000 0.0000 0.0000 0.0003 0.0000 25.2280
#
#
#
# Elastic Compliance Matrix: (Units=1/GPa)
#
#
# Indices 1 2 3 4 5 6 
#
# 1 0.012951 -0.006869 -0.004147 0.000000 0.000000 0.000000
# 2 -0.006869 0.012951 -0.004147 0.000000 0.000000 0.000000
# 3 -0.004147 -0.004147 0.023847 0.000000 0.000000 0.000000
# 4 0.000000 0.000000 0.000000 0.029439 0.000000 0.000000
# 5 0.000000 0.000000 0.000000 0.000000 0.029439 0.000000
# 6 0.000000 0.000000 0.000000 0.000000 0.000000 0.039639
#
#
# Mechanical properties :
#
#
# Convention : Reuss Voigt Hill
#
# Bulk Modulus (GPa) = 51.48235 70.66040 61.07137
# Shear Modulus (GPa) = 27.01778 29.53058 28.27418
#
# Velocity S-wave (km/s) = 4.09408 4.28023 4.18819
# Velocity P-wave (km/s) = 7.36801 8.26220 7.82788
#
# Compressibility (1/GPa) = 0.01942413
#
# Stress axis : x y z
#
# Youngs Moduli (GPa) = 77.21708 77.21708 41.93343
#
# Poissons Ratio (x) = 0.53039 0.17388
# Poissons Ratio (y) = 0.53039 0.17388
# Poissons Ratio (z) = 0.32019 0.32019
#
# Static dielectric constant tensor:
#      x y z
#    x 2.693430 0.000000 0.000000 
#    y 0.000000 2.693430 0.000000 
#    z 0.000000 0.000000 2.752800 
# 
# 
# High freq. dielectric constant tensor:
#      x y z
#    x 1.629370 0.000000 0.000000 
#    y 0.000000 1.629370 0.000000 
#    z 0.000000 0.000000 1.570940 
# 
# From -- ./inp_files/1614.got.cif
#   From: 2010.03.12/outbox.cif.g09.slc.cpg/sg187_1_cif.got.tgz:1614.got - 2010.04.01 11:58:23.
