data_PCOD8326113
_publ_section_title
;
Structure prediction by ZEFSAII (Michael W. Deem and Ramdas Pophale) SiO2 
 PCOD8326113
Probable space group: P 65 2 2
;
_chemical_formula_sum "Si O2"
_cell_formula_units_Z 48
_cell_length_a 14.349808
_cell_length_b 14.349808
_cell_length_c 12.281507
_cell_angle_alpha 90.000000
_cell_angle_beta 90.000000
_cell_angle_gamma 120.000000
_cell_volume 2190.153088
_symmetry_space_group_name_H-M "P 65 2 2"
_symmetry_group_IT_number 179
_symmetry_cell_setting 'hexagonal'
loop_
_space_group_symop_operation_xyz
x,y,z
x-y,x,5/6+z
-y,x-y,2/3+z
-x,-y,1/2+z
-x+y,-x,1/3+z
y,-x+y,1/6+z
x-y,-y,-z
-x,-x+y,1/3-z
y,x,2/3-z
-y,-x,1/6-z
-x+y,y,1/2-z
x,x-y,5/6-z
loop_
_atom_site_type_symbol
_atom_site_label
_atom_site_fract_x
_atom_site_fract_y
_atom_site_fract_z
Si Si1 0.806170 0.408365 0.545811
Si Si2 0.913013 0.826026 0.250000
Si Si3 0.000000 0.403810 0.666667
Si Si4 0.262241 0.302078 0.026745
Si Si5 0.083305 0.730184 0.764928
O O1 0.691790 0.308211 0.583334
O O2 0.814020 0.407010 0.416667
O O3 0.820127 0.523178 0.581805
O O4 0.909402 0.414124 0.602048
O O5 0.904699 0.904699 0.333334
O O6 0.807681 0.748347 0.183106
O O7 0.068619 0.382279 0.575572
O O8 0.339888 0.331573 0.131006
O O9 0.146215 0.286653 0.058551
O O10 0.000000 0.692324 0.666667
#
# Coordination Sequence:
#
# PCOD8326113 Si02
#       5
#    12   6   6  12  12
#     4  12  27  49  77 111 151 198 257 313 384 466
#     4  12  24  42  70 106 136 188 250 306 366 452
#     4  12  24  46  80 104 138 192 252 312 360 448
#     4  12  24  44  75 102 144 193 249 309 377 447
#     4  12  26  47  69 108 155 196 242 314 389 455
#
# _framework density 21.916276
#
# number of rings (size 3 to 8) (size 9 to 14) (size 15 to 20)
#    0.000    0.000    7.500    2.250    1.750    3.000 
#    4.500    0.000    0.000    0.000    0.000    0.000 
#    0.000    0.000    0.000    0.000    0.000    0.000 
#
# Total GULP energy -594929.450332 kJ/mol
# GULP energy per Si atom -12394.363549 kJ/mol
# Density = 2.186639 g / cm^3
# Si number density = 21.916276 Si / 1000 Ang^3
#
#
#
# Elastic Constant Matrix: (Units=GPa)
#
#
# Indices 1 2 3 4 5 6 
#
# 1 109.2811 44.3577 61.4874 0.0000 0.0000 0.0000
# 2 44.3577 109.2811 61.4874 0.0000 0.0000 0.0000
# 3 61.4874 61.4874 181.2151 0.0000 0.0000 0.0000
# 4 0.0000 0.0000 0.0000 38.9212 0.0000 0.0000
# 5 0.0000 0.0000 0.0000 0.0000 38.9212 0.0000
# 6 0.0000 0.0000 0.0000 0.0000 0.0000 32.4617
#
#
#
# Elastic Compliance Matrix: (Units=1/GPa)
#
#
# Indices 1 2 3 4 5 6 
#
# 1 0.012169 -0.003234 -0.003032 0.000000 0.000000 0.000000
# 2 -0.003234 0.012169 -0.003032 0.000000 0.000000 0.000000
# 3 -0.003032 -0.003032 0.007576 0.000000 0.000000 0.000000
# 4 0.000000 0.000000 0.000000 0.025693 0.000000 0.000000
# 5 0.000000 0.000000 0.000000 0.000000 0.025693 0.000000
# 6 0.000000 0.000000 0.000000 0.000000 0.000000 0.030806
#
#
# Mechanical properties :
#
#
# Convention : Reuss Voigt Hill
#
# Bulk Modulus (GPa) = 75.07891 81.60470 78.34181
# Shear Modulus (GPa) = 36.45906 37.55711 37.00809
#
# Velocity S-wave (km/s) = 4.08310 4.14413 4.11373
# Velocity P-wave (km/s) = 7.52067 7.75977 7.64116
#
# Compressibility (1/GPa) = 0.01331932
#
# Stress axis : x y z
#
# Youngs Moduli (GPa) = 82.17495 82.17495 131.99968
#
# Poissons Ratio (x) = 0.26572 0.40021
# Poissons Ratio (y) = 0.26572 0.40021
# Poissons Ratio (z) = 0.24914 0.24914
#
# Static dielectric constant tensor:
#      x y z
#    x 3.673170 0.000000 0.000000 
#    y 0.000000 3.673170 0.000000 
#    z 0.000000 0.000000 4.248810 
# 
# 
# High freq. dielectric constant tensor:
#      x y z
#    x 1.861220 0.000000 0.000000 
#    y 0.000000 1.861220 0.000000 
#    z 0.000000 0.000000 1.889740 
# 
# From -- ./inp_files/4326.got.cif
#   From: 2010.03.12/outbox.cif.g09.slc.cpg/sg179_3_cif.got.tgz:4326.got - 2010.04.02 07:08:42.
