data_PCOD8326317
_publ_section_title
;
Structure prediction by ZEFSAII (Michael W. Deem and Ramdas Pophale) SiO2 
 PCOD8326317
Probable space group: P 64 2 2
;
_chemical_formula_sum "Si O2"
_cell_formula_units_Z 96
_cell_length_a 14.810775
_cell_length_b 14.810775
_cell_length_c 25.941543
_cell_angle_alpha 90.000000
_cell_angle_beta 90.000000
_cell_angle_gamma 120.000000
_cell_volume 4928.128287
_symmetry_space_group_name_H-M "P 64 2 2"
_symmetry_group_IT_number 181
_symmetry_cell_setting 'hexagonal'
loop_
_space_group_symop_operation_xyz
x,y,z
x-y,x,2/3+z
-y,x-y,1/3+z
-x,-y,z
-x+y,-x,2/3+z
y,-x+y,1/3+z
x-y,-y,-z
-x,-x+y,2/3-z
y,x,1/3-z
-y,-x,1/3-z
-x+y,y,-z
x,x-y,2/3-z
loop_
_atom_site_type_symbol
_atom_site_label
_atom_site_fract_x
_atom_site_fract_y
_atom_site_fract_z
Si Si1 0.687170 0.768206 0.703030
Si Si2 0.258312 0.369619 0.293189
Si Si3 0.782277 0.421951 0.653942
Si Si4 0.550803 0.758234 0.888676
Si Si5 0.257502 0.268753 0.887972
Si Si6 0.395052 0.096069 0.322261
Si Si7 0.854992 0.105904 0.474609
Si Si8 0.077999 0.966904 0.083748
O O1 0.670162 0.670162 0.666667
O O2 0.677607 0.858981 0.674854
O O3 0.607463 0.732343 0.751588
O O4 0.809201 0.821371 0.717462
O O5 0.311079 0.494385 0.299687
O O6 0.344825 0.335068 0.299520
O O7 0.196980 0.329038 0.240034
O O8 0.664178 0.335823 0.666667
O O9 0.790997 0.469182 0.596674
O O10 0.859356 0.376694 0.655216
O O11 0.493357 0.746679 0.833334
O O12 0.641637 0.735702 0.869831
O O13 0.300778 0.350994 0.933581
O O14 0.208252 0.309337 0.844354
O O15 0.164718 0.153925 0.902310
O O16 0.363121 0.181561 0.333334
O O17 0.951717 0.085950 0.463744
O O18 0.763733 0.000000 0.500000
O O19 0.000000 0.000000 0.056164
#
# Coordination Sequence:
#
# PCOD8326317 Si02
#       8
#    12  12  12  12  12  12  12  12
#     4  10  19  34  52  86 119 168 205 242 299 371
#     4  11  22  39  62  87 125 163 206 270 310 384
#     4  10  23  46  72  87 111 161 216 281 351 391
#     4  10  21  39  65  92 121 161 209 267 324 389
#     4  11  21  36  55  90 129 172 207 245 301 374
#     4  11  22  39  66  92 119 160 218 263 312 389
#     4  12  23  34  52  90 137 175 207 239 306 374
#     4  11  20  32  50  78 130 180 207 227 275 363
#
# _framework density 19.480011999999999
#
# number of rings (size 3 to 8) (size 9 to 14) (size 15 to 20)
#    0.000    1.250    6.250    3.000    0.000    0.250 
#    2.250    0.000    0.000    9.750    0.000    0.000 
#    0.000    0.000    0.000    0.000    0.000    0.000 
#
# Total GULP energy -1189445.543048 kJ/mol
# GULP energy per Si atom -12390.057740 kJ/mol
# Density = 1.943567 g / cm^3
# Si number density = 19.480012 Si / 1000 Ang^3
#
#
#
# Elastic Constant Matrix: (Units=GPa)
#
#
# Indices 1 2 3 4 5 6 
#
# 1 81.2972 38.6464 26.5081 0.0000 0.0000 0.0000
# 2 38.6464 81.2972 26.5081 0.0000 0.0000 0.0000
# 3 26.5081 26.5081 92.9062 0.0000 0.0000 0.0000
# 4 0.0000 0.0000 0.0000 23.2075 0.0000 0.0000
# 5 0.0000 0.0000 0.0000 0.0000 23.2075 0.0000
# 6 0.0000 0.0000 0.0000 0.0000 0.0000 21.3254
#
#
#
# Elastic Compliance Matrix: (Units=1/GPa)
#
#
# Indices 1 2 3 4 5 6 
#
# 1 0.016493 -0.006953 -0.002722 0.000000 0.000000 0.000000
# 2 -0.006953 0.016493 -0.002722 0.000000 0.000000 0.000000
# 3 -0.002722 -0.002722 0.012317 0.000000 0.000000 0.000000
# 4 0.000000 0.000000 0.000000 0.043090 0.000000 0.000000
# 5 0.000000 0.000000 0.000000 0.000000 0.043090 0.000000
# 6 0.000000 0.000000 0.000000 0.000000 0.000000 0.046892
#
#
# Mechanical properties :
#
#
# Convention : Reuss Voigt Hill
#
# Bulk Modulus (GPa) = 48.75811 48.75842 48.75827
# Shear Modulus (GPa) = 23.80887 24.47060 24.13974
#
# Velocity S-wave (km/s) = 3.49982 3.54812 3.52405
# Velocity P-wave (km/s) = 6.43551 6.47069 6.45313
#
# Compressibility (1/GPa) = 0.02050941
#
# Stress axis : x y z
#
# Youngs Moduli (GPa) = 60.63059 60.63059 81.18939
#
# Poissons Ratio (x) = 0.42156 0.22100
# Poissons Ratio (y) = 0.42156 0.22100
# Poissons Ratio (z) = 0.16504 0.16504
#
# Static dielectric constant tensor:
#      x y z
#    x 3.879650 0.000000 0.000000 
#    y 0.000000 3.879650 0.000000 
#    z 0.000000 0.000000 3.478170 
# 
# 
# High freq. dielectric constant tensor:
#      x y z
#    x 1.745590 0.000000 0.000000 
#    y 0.000000 1.745590 0.000000 
#    z 0.000000 0.000000 1.756780 
# 
# From -- ./inp_files/11401.got.cif
#   From: 2010.03.12/outbox.cif.g09.slc.cpg/sg181_6_cif.got.tgz:11401.got - 2010.04.01 11:42:41.
