data_PCOD8326605
_publ_section_title
;
Structure prediction by ZEFSAII (Michael W. Deem and Ramdas Pophale) SiO2 
 PCOD8326605
Probable space group: P 6 C C
;
_chemical_formula_sum "Si O2"
_cell_formula_units_Z 62
_cell_length_a 14.485217
_cell_length_b 14.485217
_cell_length_c 18.256170
_cell_angle_alpha 90.000000
_cell_angle_beta 90.000000
_cell_angle_gamma 120.000000
_cell_volume 3317.342512
_symmetry_space_group_name_H-M "P 6 C C"
_symmetry_group_IT_number 184
_symmetry_cell_setting 'hexagonal'
loop_
_space_group_symop_operation_xyz
x,y,z
x-y,x,z
-y,x-y,z
-x,-y,z
-x+y,-x,z
y,-x+y,z
-x+y,y,1/2+z
x,x-y,1/2+z
-y,-x,1/2+z
y,x,1/2+z
x-y,-y,1/2+z
-x,-x+y,1/2+z
loop_
_atom_site_type_symbol
_atom_site_label
_atom_site_fract_x
_atom_site_fract_y
_atom_site_fract_z
Si Si1 0.820678 0.526426 0.028210
Si Si2 0.129507 0.237060 0.870418
Si Si3 0.666668 0.333334 0.793008
Si Si4 0.237059 0.129506 0.042831
Si Si5 0.473573 0.294255 0.385044
Si Si6 0.333333 0.666666 0.620249
Si Si7 0.500000 0.500000 0.956628
O O1 0.840030 0.638150 0.060161
O O2 0.766213 0.442369 0.092522
O O3 0.745168 0.490335 0.956626
O O4 0.931226 0.532558 0.008025
O O5 0.187477 0.176098 0.836034
O O6 0.201882 0.361852 0.853089
O O7 0.110577 0.221154 0.956625
O O8 0.766223 0.323860 0.820734
O O9 0.666668 0.333334 0.706628
O O10 0.176098 0.187476 0.077216
O O11 0.467432 0.398665 0.405233
#
# Coordination Sequence:
#
# PCOD8326605 Si02
#       7
#    12  12   4  12  12   4   6
#     4  11  20  37  60  89 114 154 199 247 297 355
#     4   9  17  29  51  83 117 146 181 232 293 352
#     4  12  25  41  58  84 124 161 193 240 304 368
#     4   9  17  29  51  83 117 146 181 232 293 352
#     4  11  20  37  60  89 114 154 199 247 297 355
#     4  12  25  41  58  84 124 161 193 240 304 368
#     4  12  20  32  66  88 114 148 206 256 302 340
#
# _framework density 18.68966
#
# number of rings (size 3 to 8) (size 9 to 14) (size 15 to 20)
#    0.000    1.548    3.871    5.032    0.000    1.548 
#    0.000    0.968    0.000    0.000    0.000    0.000 
#    0.000    3.097    0.000    0.000    0.000    0.000 
#
# Total GULP energy -768846.248749 kJ/mol
# GULP energy per Si atom -12400.745948 kJ/mol
# Density = 1.864712 g / cm^3
# Si number density = 18.689660 Si / 1000 Ang^3
#
#
#
# Elastic Constant Matrix: (Units=GPa)
#
#
# Indices 1 2 3 4 5 6 
#
# 1 142.7423 60.4013 44.8279 0.0001 0.0000 0.0000
# 2 60.4013 142.7416 44.8277 0.0001 0.0000 -0.0001
# 3 44.8279 44.8277 75.8380 0.0001 -0.0001 -0.0001
# 4 0.0001 0.0001 0.0001 7.2867 -0.0001 0.0000
# 5 0.0000 0.0000 -0.0001 -0.0001 7.2869 0.0000
# 6 0.0000 -0.0001 -0.0001 0.0000 0.0000 41.1702
#
#
#
# Elastic Compliance Matrix: (Units=1/GPa)
#
#
# Indices 1 2 3 4 5 6 
#
# 1 0.009402 -0.002742 -0.003937 0.000000 0.000000 0.000000
# 2 -0.002742 0.009402 -0.003937 0.000000 0.000000 0.000000
# 3 -0.003937 -0.003937 0.017840 0.000000 0.000000 0.000000
# 4 0.000000 0.000000 0.000000 0.137236 0.000001 0.000000
# 5 0.000000 0.000000 0.000000 0.000001 0.137232 0.000000
# 6 0.000000 0.000000 0.000000 0.000000 0.000000 0.024289
#
#
# Mechanical properties :
#
#
# Convention : Reuss Voigt Hill
#
# Bulk Modulus (GPa) = 64.87974 73.49288 69.18631
# Shear Modulus (GPa) = 13.82087 25.23309 19.52698
#
# Velocity S-wave (km/s) = 2.72231 3.67837 3.23585
# Velocity P-wave (km/s) = 6.68363 7.57949 7.14561
#
# Compressibility (1/GPa) = 0.01541313
#
# Stress axis : x y z
#
# Youngs Moduli (GPa) = 106.35616 106.35575 56.05357
#
# Poissons Ratio (x) = 0.29166 0.22067
# Poissons Ratio (y) = 0.29166 0.22067
# Poissons Ratio (z) = 0.41870 0.41870
#
# Static dielectric constant tensor:
#      x y z
#    x 3.747360 0.000000 0.000000 
#    y 0.000000 3.747360 0.000000 
#    z 0.000000 0.000000 2.774530 
# 
# 
# High freq. dielectric constant tensor:
#      x y z
#    x 1.749530 0.000000 0.000000 
#    y 0.000000 1.749530 0.000000 
#    z 0.000000 0.000000 1.640210 
# 
# From -- ./inp_files/1077.got.cif
#   From: 2010.03.12/outbox.cif.g09.slc.cpg/sg184_cif.got.tgz:1077.got - 2010.04.01 11:54:36.
