data_PCOD8326111
_publ_section_title
;
Structure prediction by ZEFSAII (Michael W. Deem and Ramdas Pophale) SiO2 
 PCOD8326111
Probable space group: P 65 2 2
;
_chemical_formula_sum "Si O2"
_cell_formula_units_Z 48
_cell_length_a 16.522626
_cell_length_b 16.522626
_cell_length_c 8.733908
_cell_angle_alpha 90.000000
_cell_angle_beta 90.000000
_cell_angle_gamma 120.000000
_cell_volume 2064.892227
_symmetry_space_group_name_H-M "P 65 2 2"
_symmetry_group_IT_number 179
_symmetry_cell_setting 'hexagonal'
loop_
_space_group_symop_operation_xyz
x,y,z
x-y,x,5/6+z
-y,x-y,2/3+z
-x,-y,1/2+z
-x+y,-x,1/3+z
y,-x+y,1/6+z
x-y,-y,-z
-x,-x+y,1/3-z
y,x,2/3-z
-y,-x,1/6-z
-x+y,y,1/2-z
x,x-y,5/6-z
loop_
_atom_site_type_symbol
_atom_site_label
_atom_site_fract_x
_atom_site_fract_y
_atom_site_fract_z
Si Si1 0.684054 0.480611 0.004334
Si Si2 0.632979 0.632979 0.333334
Si Si3 0.157672 0.598054 0.257574
Si Si4 0.000000 0.166183 0.166667
Si Si5 0.092045 0.782158 0.945232
O O1 0.654906 0.477417 0.826839
O O2 0.582370 0.417631 0.083334
O O3 0.742756 0.429972 0.038904
O O4 0.748911 0.586103 0.056322
O O5 0.626014 0.532950 0.327451
O O6 0.691896 0.690193 0.184106
O O7 0.104552 0.552276 0.416667
O O8 0.943912 0.188028 0.296649
O O9 0.072524 0.145048 0.250000
O O10 0.140546 0.859455 0.083334
#
# Coordination Sequence:
#
# PCOD8326111 Si02
#       5
#    12   6  12   6  12
#     4  12  23  47  71 108 152 213 267 317 392 456
#     4  12  26  45  69 108 158 206 254 326 394 445
#     4  12  27  41  70 105 151 210 268 327 383 460
#     4  12  32  55  91 124 150 202 258 330 424 515
#     4  12  26  52  81 114 159 203 257 325 407 481
#
# _framework density 23.245763
#
# number of rings (size 3 to 8) (size 9 to 14) (size 15 to 20)
#    0.000    0.000    5.000    4.500    7.000    1.000 
#    0.000    0.000    0.000    0.000    0.000    0.000 
#    0.000    0.000    0.000    0.000    0.000    0.000 
#
# Total GULP energy -594803.184786 kJ/mol
# GULP energy per Si atom -12391.733016 kJ/mol
# Density = 2.319285 g / cm^3
# Si number density = 23.245763 Si / 1000 Ang^3
#
#
#
# Elastic Constant Matrix: (Units=GPa)
#
#
# Indices 1 2 3 4 5 6 
#
# 1 106.6664 44.3692 57.0830 0.0000 0.0000 0.0000
# 2 44.3692 106.6664 57.0830 0.0000 0.0000 0.0000
# 3 57.0830 57.0830 160.6287 0.0000 0.0000 0.0000
# 4 0.0000 0.0000 0.0000 48.7406 0.0000 0.0000
# 5 0.0000 0.0000 0.0000 0.0000 48.7406 0.0000
# 6 0.0000 0.0000 0.0000 0.0000 0.0000 31.1486
#
#
#
# Elastic Compliance Matrix: (Units=1/GPa)
#
#
# Indices 1 2 3 4 5 6 
#
# 1 0.012552 -0.003500 -0.003217 0.000000 0.000000 0.000000
# 2 -0.003500 0.012552 -0.003217 0.000000 0.000000 0.000000
# 3 -0.003217 -0.003217 0.008512 0.000000 0.000000 0.000000
# 4 0.000000 0.000000 0.000000 0.020517 0.000000 0.000000
# 5 0.000000 0.000000 0.000000 0.000000 0.020517 0.000000
# 6 0.000000 0.000000 0.000000 0.000000 0.000000 0.032104
#
#
# Mechanical properties :
#
#
# Convention : Reuss Voigt Hill
#
# Bulk Modulus (GPa) = 72.73177 76.78134 74.75655
# Shear Modulus (GPa) = 38.10819 40.08771 39.09795
#
# Velocity S-wave (km/s) = 4.05329 4.15724 4.10559
# Velocity P-wave (km/s) = 7.29806 7.49303 7.39619
#
# Compressibility (1/GPa) = 0.01374915
#
# Stress axis : x y z
#
# Youngs Moduli (GPa) = 79.66600 79.66600 117.48030
#
# Poissons Ratio (x) = 0.27881 0.37794
# Poissons Ratio (y) = 0.27881 0.37794
# Poissons Ratio (z) = 0.25629 0.25629
#
# Static dielectric constant tensor:
#      x y z
#    x 4.154370 0.000000 0.000000 
#    y 0.000000 4.154370 0.000000 
#    z 0.000000 0.000000 4.842000 
# 
# 
# High freq. dielectric constant tensor:
#      x y z
#    x 1.913220 0.000000 0.000000 
#    y 0.000000 1.913220 0.000000 
#    z 0.000000 0.000000 1.943780 
# 
# From -- ./inp_files/2730.got.cif
#   From: 2010.03.12/outbox.cif.g09.slc.cpg/sg179_2_cif.got.tgz:2730.got - 2010.04.02 07:08:42.
