data_PCOD8326026
_publ_section_title
;
Structure prediction by ZEFSAII (Michael W. Deem and Ramdas Pophale) SiO2 
 PCOD8326026
Probable space group: P 65 2 2
;
_chemical_formula_sum "Si O2"
_cell_formula_units_Z 36
_cell_length_a 20.604420
_cell_length_b 20.604420
_cell_length_c 4.830158
_cell_angle_alpha 90.000000
_cell_angle_beta 90.000000
_cell_angle_gamma 120.000000
_cell_volume 1775.876486
_symmetry_space_group_name_H-M "P 65 2 2"
_symmetry_group_IT_number 179
_symmetry_cell_setting 'hexagonal'
loop_
_space_group_symop_operation_xyz
x,y,z
x-y,x,5/6+z
-y,x-y,2/3+z
-x,-y,1/2+z
-x+y,-x,1/3+z
y,-x+y,1/6+z
x-y,-y,-z
-x,-x+y,1/3-z
y,x,2/3-z
-y,-x,1/6-z
-x+y,y,1/2-z
x,x-y,5/6-z
loop_
_atom_site_type_symbol
_atom_site_label
_atom_site_fract_x
_atom_site_fract_y
_atom_site_fract_z
Si Si1 0.780385 0.698574 0.371020
Si Si2 0.459802 0.774551 0.160109
Si Si3 0.083031 0.692982 0.712841
O O1 0.771736 0.771736 0.333334
O O2 0.861417 0.722834 0.250000
O O3 0.763314 0.666649 0.684411
O O4 0.716976 0.630501 0.195553
O O5 0.396055 0.792109 0.250000
O O6 0.487922 0.743961 0.416667
O O7 0.525268 0.850116 0.017279
O O8 0.426463 0.713232 0.916667
O O9 0.000000 0.620534 0.666667
#
# Coordination Sequence:
#
# PCOD8326026 Si02
#       3
#    12  12  12
#     4  10  19  33  55  83 112 142 180 223 271 323
#     4  12  24  40  60  81 110 146 185 224 267 325
#     4  10  21  37  58  82 108 140 179 229 279 318
#
# _framework density 20.271681999999998
#
# number of rings (size 3 to 8) (size 9 to 14) (size 15 to 20)
#    0.000    1.333    0.000    8.000    0.000    0.000 
#    0.000    8.333    0.000    0.000    0.000    7.000 
#    0.000    0.000    0.000    0.000    0.000    0.000 
#
# Total GULP energy -446271.359782 kJ/mol
# GULP energy per Si atom -12396.426661 kJ/mol
# Density = 2.022554 g / cm^3
# Si number density = 20.271682 Si / 1000 Ang^3
#
#
#
# Elastic Constant Matrix: (Units=GPa)
#
#
# Indices 1 2 3 4 5 6 
#
# 1 118.9187 79.2018 24.1967 0.0000 0.0000 0.0000
# 2 79.2018 118.9187 24.1967 0.0000 0.0000 0.0000
# 3 24.1967 24.1967 85.2976 0.0000 0.0000 0.0000
# 4 0.0000 0.0000 0.0000 27.8275 0.0000 0.0000
# 5 0.0000 0.0000 0.0000 0.0000 27.8275 0.0000
# 6 0.0000 0.0000 0.0000 0.0000 0.0000 19.8584
#
#
#
# Elastic Compliance Matrix: (Units=1/GPa)
#
#
# Indices 1 2 3 4 5 6 
#
# 1 0.015301 -0.009878 -0.001538 0.000000 0.000000 0.000000
# 2 -0.009878 0.015301 -0.001538 0.000000 0.000000 0.000000
# 3 -0.001538 -0.001538 0.012596 0.000000 0.000000 0.000000
# 4 0.000000 0.000000 0.000000 0.035936 0.000000 0.000000
# 5 0.000000 0.000000 0.000000 0.000000 0.035936 0.000000
# 6 0.000000 0.000000 0.000000 0.000000 0.000000 0.050356
#
#
# Mechanical properties :
#
#
# Convention : Reuss Voigt Hill
#
# Bulk Modulus (GPa) = 57.83956 64.25839 61.04897
# Shear Modulus (GPa) = 25.36817 28.13868 26.75343
#
# Velocity S-wave (km/s) = 3.54136 3.72973 3.63677
# Velocity P-wave (km/s) = 6.73170 7.09333 6.91488
#
# Compressibility (1/GPa) = 0.01728921
#
# Stress axis : x y z
#
# Youngs Moduli (GPa) = 65.35643 65.35643 79.38724
#
# Poissons Ratio (x) = 0.64556 0.12213
# Poissons Ratio (y) = 0.64556 0.12213
# Poissons Ratio (z) = 0.10055 0.10055
#
# Static dielectric constant tensor:
#      x y z
#    x 3.611800 0.000000 0.000000 
#    y 0.000000 3.611800 0.000000 
#    z 0.000000 0.000000 3.984340 
# 
# 
# High freq. dielectric constant tensor:
#      x y z
#    x 1.773990 0.000000 0.000000 
#    y 0.000000 1.773990 0.000000 
#    z 0.000000 0.000000 1.819060 
# 
# From -- ./inp_files/604.got.cif
#   From: 2010.03.12/outbox.cif.g09.slc.cpg/sg179_1_cif.got.tgz:604.got - 2010.04.02 07:08:42.
