data_PCOD8326311
_publ_section_title
;
Structure prediction by ZEFSAII (Michael W. Deem and Ramdas Pophale) SiO2 
 PCOD8326311
Probable space group: P 64 2 2
;
_chemical_formula_sum "Si O2"
_cell_formula_units_Z 60
_cell_length_a 28.249723
_cell_length_b 28.249723
_cell_length_c 5.063045
_cell_angle_alpha 90.000000
_cell_angle_beta 90.000000
_cell_angle_gamma 120.000000
_cell_volume 3499.216444
_symmetry_space_group_name_H-M "P 64 2 2"
_symmetry_group_IT_number 181
_symmetry_cell_setting 'hexagonal'
loop_
_space_group_symop_operation_xyz
x,y,z
x-y,x,2/3+z
-y,x-y,1/3+z
-x,-y,z
-x+y,-x,2/3+z
y,-x+y,1/3+z
x-y,-y,-z
-x,-x+y,2/3-z
y,x,1/3-z
-y,-x,1/3-z
-x+y,y,-z
x,x-y,2/3-z
loop_
_atom_site_type_symbol
_atom_site_label
_atom_site_fract_x
_atom_site_fract_y
_atom_site_fract_z
Si Si1 0.601964 0.568583 0.922234
Si Si2 0.540378 0.143507 0.242928
Si Si3 0.319535 0.285830 0.420715
Si Si4 0.785267 0.277338 0.410281
Si Si5 0.783611 0.154369 0.918929
O O1 0.567845 0.567845 0.666667
O O2 0.612767 0.519123 0.966004
O O3 0.660661 0.622022 0.931018
O O4 0.565036 0.565036 0.166667
O O5 0.579467 0.158933 0.500000
O O6 0.534742 0.194548 0.142918
O O7 0.562206 0.124412 0.000000
O O8 0.284864 0.284864 0.666667
O O9 0.328632 0.234992 0.481223
O O10 0.283031 0.283031 0.166667
O O11 0.756178 0.243823 0.666667
O O12 0.835589 0.266696 0.331425
O O13 0.742480 0.257521 0.166667
O O14 0.809370 0.190631 0.666667
O O15 0.826421 0.173580 0.166667
#
# Coordination Sequence:
#
# PCOD8326311 Si02
#       5
#    12  12  12  12  12
#     4  10  21  35  50  71 106 140 164 189 230 293
#     4  12  24  37  56  79 101 125 163 196 236 301
#     4  10  19  32  50  72 105 139 166 202 256 306
#     4  10  21  38  57  74  96 120 152 200 254 294
#     4  10  19  32  53  76  97 127 173 214 246 290
#
# _framework density 17.146694
#
# number of rings (size 3 to 8) (size 9 to 14) (size 15 to 20)
#    0.000    1.600    2.000    3.600    0.000    2.400 
#    0.000    0.000    0.000    6.000    0.000    0.000 
#    0.000    0.000    0.000    0.000    0.000    0.000 
#
# Total GULP energy -743529.414745 kJ/mol
# GULP energy per Si atom -12392.156912 kJ/mol
# Density = 1.710767 g / cm^3
# Si number density = 17.146694 Si / 1000 Ang^3
#
#
#
# Elastic Constant Matrix: (Units=GPa)
#
#
# Indices 1 2 3 4 5 6 
#
# 1 56.4839 32.0750 35.7784 0.0000 0.0000 0.0000
# 2 32.0750 56.4839 35.7784 0.0000 0.0000 0.0000
# 3 35.7784 35.7784 146.9513 0.0000 0.0000 0.0000
# 4 0.0000 0.0000 0.0000 13.9655 0.0000 0.0000
# 5 0.0000 0.0000 0.0000 0.0000 13.9655 0.0000
# 6 0.0000 0.0000 0.0000 0.0000 0.0000 12.2045
#
#
#
# Elastic Compliance Matrix: (Units=1/GPa)
#
#
# Indices 1 2 3 4 5 6 
#
# 1 0.027513 -0.013456 -0.003423 0.000000 0.000000 0.000000
# 2 -0.013456 0.027513 -0.003423 0.000000 0.000000 0.000000
# 3 -0.003423 -0.003423 0.008472 0.000000 0.000000 0.000000
# 4 0.000000 0.000000 0.000000 0.071605 0.000000 0.000000
# 5 0.000000 0.000000 0.000000 0.000000 0.071605 0.000000
# 6 0.000000 0.000000 0.000000 0.000000 0.000000 0.081937
#
#
# Mechanical properties :
#
#
# Convention : Reuss Voigt Hill
#
# Bulk Modulus (GPa) = 43.67558 51.90919 47.79239
# Shear Modulus (GPa) = 14.84215 18.44624 16.64420
#
# Velocity S-wave (km/s) = 2.94530 3.28348 3.11898
# Velocity P-wave (km/s) = 6.09043 6.68688 6.39561
#
# Compressibility (1/GPa) = 0.02289609
#
# Stress axis : x y z
#
# Youngs Moduli (GPa) = 36.34645 36.34645 118.04181
#
# Poissons Ratio (x) = 0.48906 0.40401
# Poissons Ratio (y) = 0.48906 0.40401
# Poissons Ratio (z) = 0.12440 0.12440
#
# Static dielectric constant tensor:
#      x y z
#    x 3.114430 0.000000 0.000000 
#    y 0.000000 3.114430 0.000000 
#    z 0.000000 0.000000 3.450060 
# 
# 
# High freq. dielectric constant tensor:
#      x y z
#    x 1.631340 0.000000 0.000000 
#    y 0.000000 1.631340 0.000000 
#    z 0.000000 0.000000 1.688480 
# 
# From -- ./inp_files/1452.got.cif
#   From: 2010.03.12/outbox.cif.g09.slc.cpg/sg181_1_cif.got.tgz:1452.got - 2010.04.01 11:42:41.
