data_PCOD8326079
_publ_section_title
;
Structure prediction by ZEFSAII (Michael W. Deem and Ramdas Pophale) SiO2 
 PCOD8326079
Probable space group: P 65 2 2
;
_chemical_formula_sum "Si O2"
_cell_formula_units_Z 48
_cell_length_a 17.593591
_cell_length_b 17.593591
_cell_length_c 8.722014
_cell_angle_alpha 90.000000
_cell_angle_beta 90.000000
_cell_angle_gamma 120.000000
_cell_volume 2338.063997
_symmetry_space_group_name_H-M "P 65 2 2"
_symmetry_group_IT_number 179
_symmetry_cell_setting 'hexagonal'
loop_
_space_group_symop_operation_xyz
x,y,z
x-y,x,5/6+z
-y,x-y,2/3+z
-x,-y,1/2+z
-x+y,-x,1/3+z
y,-x+y,1/6+z
x-y,-y,-z
-x,-x+y,1/3-z
y,x,2/3-z
-y,-x,1/6-z
-x+y,y,1/2-z
x,x-y,5/6-z
loop_
_atom_site_type_symbol
_atom_site_label
_atom_site_fract_x
_atom_site_fract_y
_atom_site_fract_z
Si Si1 0.778836 0.548136 0.082736
Si Si2 0.330732 0.280449 0.190484
Si Si3 0.445015 0.400453 0.677651
Si Si4 0.000000 0.158773 0.166667
Si Si5 0.645193 0.354808 0.083334
O O1 0.797439 0.594878 0.250000
O O2 0.854779 0.530338 0.025942
O O3 0.687157 0.458291 0.099177
O O4 0.762704 0.607500 0.961875
O O5 0.344740 0.344740 0.333334
O O6 0.231725 0.196424 0.196311
O O7 0.355470 0.343989 0.045118
O O8 0.447640 0.447640 0.833334
O O9 0.520577 0.479424 0.583334
O O10 0.070715 0.141430 0.250000
O O11 0.659600 0.319200 0.250000
#
# Coordination Sequence:
#
# PCOD8326079 Si02
#       5
#    12  12  12   6   6
#     4  11  23  43  65  97 137 179 232 290 349 425
#     4  10  24  42  70 100 138 182 233 290 356 429
#     4  12  25  42  65 102 139 187 236 290 355 422
#     4  10  22  46  74 106 140 180 238 292 366 436
#     4  10  24  40  64  92 134 184 232 290 346 418
#
# _framework density 20.529803999999999
#
# number of rings (size 3 to 8) (size 9 to 14) (size 15 to 20)
#    0.750    0.500    2.500    3.000    1.750    6.000 
#    0.000    1.250    0.000    0.000    0.000    0.000 
#    0.000    0.000    0.000    0.000    0.000    0.000 
#
# Total GULP energy -594637.059829 kJ/mol
# GULP energy per Si atom -12388.272080 kJ/mol
# Density = 2.048308 g / cm^3
# Si number density = 20.529804 Si / 1000 Ang^3
#
#
#
# Elastic Constant Matrix: (Units=GPa)
#
#
# Indices 1 2 3 4 5 6 
#
# 1 132.2949 89.9215 51.6740 0.0000 0.0000 0.0000
# 2 89.9215 132.2949 51.6740 0.0000 0.0000 0.0000
# 3 51.6740 51.6740 121.8125 0.0000 0.0000 0.0000
# 4 0.0000 0.0000 0.0000 32.2736 0.0000 0.0000
# 5 0.0000 0.0000 0.0000 0.0000 32.2736 0.0000
# 6 0.0000 0.0000 0.0000 0.0000 0.0000 21.1867
#
#
#
# Elastic Compliance Matrix: (Units=1/GPa)
#
#
# Indices 1 2 3 4 5 6 
#
# 1 0.014603 -0.008997 -0.002378 0.000000 0.000000 0.000000
# 2 -0.008997 0.014603 -0.002378 0.000000 0.000000 0.000000
# 3 -0.002378 -0.002378 0.010227 0.000000 0.000000 0.000000
# 4 0.000000 0.000000 0.000000 0.030985 0.000000 0.000000
# 5 0.000000 0.000000 0.000000 0.000000 0.030985 0.000000
# 6 0.000000 0.000000 0.000000 0.000000 0.000000 0.047199
#
#
# Mechanical properties :
#
#
# Convention : Reuss Voigt Hill
#
# Bulk Modulus (GPa) = 83.84610 85.88237 84.86424
# Shear Modulus (GPa) = 27.76476 30.02229 28.89352
#
# Velocity S-wave (km/s) = 3.68151 3.82825 3.75559
# Velocity P-wave (km/s) = 7.68122 7.83993 7.76098
#
# Compressibility (1/GPa) = 0.01192661
#
# Stress axis : x y z
#
# Youngs Moduli (GPa) = 68.47937 68.47937 97.78013
#
# Poissons Ratio (x) = 0.61609 0.23254
# Poissons Ratio (y) = 0.61609 0.23254
# Poissons Ratio (z) = 0.16286 0.16286
#
# Static dielectric constant tensor:
#      x y z
#    x 3.673870 0.000000 0.000000 
#    y 0.000000 3.673870 0.000000 
#    z 0.000000 0.000000 3.870120 
# 
# 
# High freq. dielectric constant tensor:
#      x y z
#    x 1.802370 0.000000 0.000000 
#    y 0.000000 1.802370 0.000000 
#    z 0.000000 0.000000 1.801500 
# 
# From -- ./inp_files/2720.got.cif
#   From: 2010.03.12/outbox.cif.g09.slc.cpg/sg179_2_cif.got.tgz:2720.got - 2010.04.02 07:08:42.
