data_PCOD8326556
_publ_section_title
;
Structure prediction by ZEFSAII (Michael W. Deem and Ramdas Pophale) SiO2 
 PCOD8326556
Probable space group: P 6 M M
;
_chemical_formula_sum "Si O2"
_cell_formula_units_Z 72
_cell_length_a 21.391074
_cell_length_b 21.391074
_cell_length_c 11.867577
_cell_angle_alpha 90.000000
_cell_angle_beta 90.000000
_cell_angle_gamma 120.000000
_cell_volume 4702.814734
_symmetry_space_group_name_H-M "P 6 M M"
_symmetry_group_IT_number 183
_symmetry_cell_setting 'hexagonal'
loop_
_space_group_symop_operation_xyz
x,y,z
x-y,x,z
-y,x-y,z
-x,-y,z
-x+y,-x,z
y,-x+y,z
-x+y,y,z
x,x-y,z
-y,-x,z
y,x,z
x-y,-y,z
-x,-x+y,z
loop_
_atom_site_type_symbol
_atom_site_label
_atom_site_fract_x
_atom_site_fract_y
_atom_site_fract_z
Si Si1 0.220655 0.302231 0.489230
Si Si2 0.914042 0.385720 0.859990
Si Si3 0.081576 0.302231 0.230738
Si Si4 0.425215 0.085628 0.622513
Si Si5 0.425221 0.339593 0.097472
Si Si6 0.543121 0.456880 0.233933
Si Si7 0.543121 0.456880 0.486067
O O1 0.134857 0.269713 0.506452
O O2 0.240534 0.240534 0.520927
O O3 0.243280 0.327304 0.359984
O O4 0.261506 0.371940 0.569688
O O5 0.884416 0.442208 0.859980
O O6 0.885897 0.333937 0.750390
O O7 0.000000 0.431460 0.859992
O O8 0.885894 0.333945 0.969598
O O9 0.134857 0.269714 0.213514
O O10 0.110433 0.371941 0.150284
O O11 0.000000 0.240533 0.199042
O O12 0.497514 0.117193 0.548283
O O13 0.385639 0.000000 0.619353
O O14 0.385647 0.385647 0.100627
O O15 0.497514 0.380322 0.171714
O O16 0.500000 0.500000 0.232611
O O17 0.558328 0.441673 0.360000
O O18 0.500000 0.500000 0.487393
#
# Coordination Sequence:
#
# PCOD8326556 Si02
#       7
#    12  12  12  12  12   6   6
#     4   9  17  29  44  61  83 112 146 186 234 286
#     4   9  14  22  35  54  83 116 140 159 187 231
#     4   9  17  29  44  61  83 112 146 186 234 286
#     4   9  15  23  36  56  82 111 140 167 202 250
#     4   9  15  23  36  56  82 111 140 167 202 250
#     4   9  14  19  31  53  81 108 133 161 193 235
#     4   9  14  19  31  53  81 108 133 161 193 235
#
# _framework density 15.309979999999999
#
# number of rings (size 3 to 8) (size 9 to 14) (size 15 to 20)
#    0.000    3.000    1.667    1.000    0.000    4.000 
#    0.000    0.833    0.000    0.333    0.000    2.333 
#    1.667    0.000    2.000    0.000    0.000   19.667 
#
# Total GULP energy -892284.876464 kJ/mol
# GULP energy per Si atom -12392.845506 kJ/mol
# Density = 1.527513 g / cm^3
# Si number density = 15.309980 Si / 1000 Ang^3
#
#
#
# Elastic Constant Matrix: (Units=GPa)
#
#
# Indices 1 2 3 4 5 6 
#
# 1 65.1395 36.8949 35.7046 0.0000 0.0000 0.0000
# 2 36.8949 65.1395 35.7046 0.0000 0.0000 0.0000
# 3 35.7046 35.7046 116.5943 0.0000 0.0000 0.0000
# 4 0.0000 0.0000 0.0000 12.9075 0.0000 0.0000
# 5 0.0000 0.0000 0.0000 0.0000 12.9075 0.0000
# 6 0.0000 0.0000 0.0000 0.0000 0.0000 14.1223
#
#
#
# Elastic Compliance Matrix: (Units=1/GPa)
#
#
# Indices 1 2 3 4 5 6 
#
# 1 0.023939 -0.011465 -0.003820 0.000000 0.000000 0.000000
# 2 -0.011465 0.023939 -0.003820 0.000000 0.000000 0.000000
# 3 -0.003820 -0.003820 0.010916 0.000000 0.000000 0.000000
# 4 0.000000 0.000000 0.000000 0.077474 0.000000 0.000000
# 5 0.000000 0.000000 0.000000 0.000000 0.077474 0.000000
# 6 0.000000 0.000000 0.000000 0.000000 0.000000 0.070810
#
#
# Mechanical properties :
#
#
# Convention : Reuss Voigt Hill
#
# Bulk Modulus (GPa) = 48.57989 51.49796 50.03892
# Shear Modulus (GPa) = 15.16870 17.22540 16.19705
#
# Velocity S-wave (km/s) = 3.15107 3.35790 3.25613
# Velocity P-wave (km/s) = 6.71109 6.98168 6.84772
#
# Compressibility (1/GPa) = 0.02058465
#
# Stress axis : x y z
#
# Youngs Moduli (GPa) = 41.77203 41.77203 91.60624
#
# Poissons Ratio (x) = 0.47894 0.34993
# Poissons Ratio (y) = 0.47894 0.34993
# Poissons Ratio (z) = 0.15957 0.15957
#
# Static dielectric constant tensor:
#      x y z
#    x 2.633780 0.000000 0.000000 
#    y 0.000000 2.633780 0.000000 
#    z 0.000000 0.000000 3.254040 
# 
# 
# High freq. dielectric constant tensor:
#      x y z
#    x 1.545230 0.000000 0.000000 
#    y 0.000000 1.545230 0.000000 
#    z 0.000000 0.000000 1.599260 
# 
# From -- ./inp_files/1676.got.cif
#   From: 2010.03.12/outbox.cif.g09.slc.cpg/sg183_1_cif.got.tgz:1676.got - 2010.04.01 11:53:02.
