data_PCOD8326136
_publ_section_title
;
Structure prediction by ZEFSAII (Michael W. Deem and Ramdas Pophale) SiO2 
 PCOD8326136
Probable space group: P 62 2 2
;
_chemical_formula_sum "Si O2"
_cell_formula_units_Z 48
_cell_length_a 25.674918
_cell_length_b 25.674918
_cell_length_c 5.112227
_cell_angle_alpha 90.000000
_cell_angle_beta 90.000000
_cell_angle_gamma 120.000000
_cell_volume 2918.494585
_symmetry_space_group_name_H-M "P 62 2 2"
_symmetry_group_IT_number 180
_symmetry_cell_setting 'hexagonal'
loop_
_space_group_symop_operation_xyz
x,y,z
x-y,x,1/3+z
-y,x-y,2/3+z
-x,-y,z
-x+y,-x,1/3+z
y,-x+y,2/3+z
x-y,-y,-z
-x,-x+y,1/3-z
y,x,2/3-z
-y,-x,2/3-z
-x+y,y,-z
x,x-y,1/3-z
loop_
_atom_site_type_symbol
_atom_site_label
_atom_site_fract_x
_atom_site_fract_y
_atom_site_fract_z
Si Si1 0.071220 0.477554 0.159984
Si Si2 0.586074 0.657334 0.330172
Si Si3 0.134653 0.932344 0.088242
Si Si4 0.336482 0.202300 0.424842
O O1 0.099381 0.549691 0.166667
O O2 0.093348 0.452444 0.397835
O O3 0.000000 0.446457 0.166667
O O4 0.092640 0.462590 0.892493
O O5 0.631632 0.631632 0.333334
O O6 0.623515 0.727853 0.371272
O O7 0.087740 0.912261 0.333334
O O8 0.188122 0.919177 0.167005
O O9 0.105102 0.894899 0.833334
O O10 0.158370 0.000000 0.000000
O O11 0.362085 0.181043 0.666667
O O12 0.336761 0.168381 0.166667
#
# Coordination Sequence:
#
# PCOD8326136 Si02
#       4
#    12  12  12  12
#     4   9  17  28  43  65  91 120 153 184 213 249
#     4  10  18  29  46  65  90 125 158 186 220 266
#     4  10  20  34  52  71  92 118 152 195 240 291
#     4  10  20  32  46  67  94 124 157 192 231 274
#
# _framework density 16.446833999999999
#
# number of rings (size 3 to 8) (size 9 to 14) (size 15 to 20)
#    0.000    2.250    0.000    3.750    0.000    3.000 
#    0.000    7.500    0.000    3.750    0.000    0.000 
#    0.000    0.000    0.000   94.500    0.000    0.000 
#
# Total GULP energy -595008.676504 kJ/mol
# GULP energy per Si atom -12396.014094 kJ/mol
# Density = 1.640940 g / cm^3
# Si number density = 16.446834 Si / 1000 Ang^3
#
#
#
# Elastic Constant Matrix: (Units=GPa)
#
#
# Indices 1 2 3 4 5 6 
#
# 1 93.4870 45.3543 38.6575 0.0000 0.0000 0.0000
# 2 45.3543 93.4870 38.6575 0.0000 0.0000 0.0000
# 3 38.6575 38.6575 126.1225 0.0000 0.0000 0.0000
# 4 0.0000 0.0000 0.0000 21.8295 0.0000 0.0000
# 5 0.0000 0.0000 0.0000 0.0000 21.8295 0.0000
# 6 0.0000 0.0000 0.0000 0.0000 0.0000 24.0663
#
#
#
# Elastic Compliance Matrix: (Units=1/GPa)
#
#
# Indices 1 2 3 4 5 6 
#
# 1 0.014730 -0.006046 -0.002662 0.000000 0.000000 0.000000
# 2 -0.006046 0.014730 -0.002662 0.000000 0.000000 0.000000
# 3 -0.002662 -0.002662 0.009561 0.000000 0.000000 0.000000
# 4 0.000000 0.000000 0.000000 0.045810 0.000000 0.000000
# 5 0.000000 0.000000 0.000000 0.000000 0.045810 0.000000
# 6 0.000000 0.000000 0.000000 0.000000 0.000000 0.041552
#
#
# Mechanical properties :
#
#
# Convention : Reuss Voigt Hill
#
# Bulk Modulus (GPa) = 61.41606 62.04838 61.73222
# Shear Modulus (GPa) = 24.95524 26.24021 25.59772
#
# Velocity S-wave (km/s) = 3.89952 3.99865 3.94939
# Velocity P-wave (km/s) = 7.59593 7.68944 7.64283
#
# Compressibility (1/GPa) = 0.01628239
#
# Stress axis : x y z
#
# Youngs Moduli (GPa) = 67.88704 67.88704 104.59569
#
# Poissons Ratio (x) = 0.41041 0.27843
# Poissons Ratio (y) = 0.41041 0.27843
# Poissons Ratio (z) = 0.18071 0.18071
#
# Static dielectric constant tensor:
#      x y z
#    x 2.889500 0.000000 0.000000 
#    y 0.000000 2.889500 0.000000 
#    z 0.000000 0.000000 3.421410 
# 
# 
# High freq. dielectric constant tensor:
#      x y z
#    x 1.608030 0.000000 0.000000 
#    y 0.000000 1.608030 0.000000 
#    z 0.000000 0.000000 1.660310 
# 
# From -- ./inp_files/1091.got.cif
#   From: 2010.03.12/outbox.cif.g09.slc.cpg/sg180_1_cif.got.tgz:1091.got - 2010.04.01 11:35:50.
