data_PCOD8326735
_publ_section_title
;
Structure prediction by ZEFSAII (Michael W. Deem and Ramdas Pophale) SiO2 
 PCOD8326735
Probable space group: P 63 M C
;
_chemical_formula_sum "Si O2"
_cell_formula_units_Z 96
_cell_length_a 17.078493
_cell_length_b 17.078493
_cell_length_c 22.152600
_cell_angle_alpha 90.000000
_cell_angle_beta 90.000000
_cell_angle_gamma 120.000000
_cell_volume 5595.700087
_symmetry_space_group_name_H-M "P 63 M C"
_symmetry_group_IT_number 186
_symmetry_cell_setting 'hexagonal'
loop_
_space_group_symop_operation_xyz
x,y,z
x-y,x,1/2+z
-y,x-y,z
-x,-y,1/2+z
-x+y,-x,z
y,-x+y,1/2+z
-x+y,y,z
x,x-y,z
-y,-x,z
y,x,1/2+z
x-y,-y,1/2+z
-x,-x+y,1/2+z
loop_
_atom_site_type_symbol
_atom_site_label
_atom_site_fract_x
_atom_site_fract_y
_atom_site_fract_z
Si Si1 0.332865 0.481833 0.894270
Si Si2 0.816950 0.000659 0.213389
Si Si3 0.257970 0.919835 0.122114
Si Si4 0.729337 0.634103 0.276949
Si Si5 0.035306 0.430776 0.217343
Si Si6 0.964533 0.571529 0.514438
Si Si7 0.840071 0.507528 0.825683
Si Si8 0.332875 0.491192 0.462105
O O1 0.252859 0.505718 0.899906
O O2 0.426709 0.573292 0.877628
O O3 0.308212 0.404036 0.843877
O O4 0.342437 0.441192 0.957422
O O5 0.815591 0.907796 0.230977
O O6 0.761300 0.986694 0.150563
O O7 0.770925 0.027442 0.268593
O O8 0.919596 0.080405 0.202325
O O9 0.173823 0.826178 0.102441
O O10 0.314024 0.902262 0.173352
O O11 0.321350 0.955380 0.064168
O O12 0.804267 0.608535 0.258960
O O13 0.652147 0.585322 0.225488
O O14 0.033842 0.516921 0.191447
O O15 0.071770 0.440587 0.285187
O O16 0.943685 0.471843 0.536964
O O17 0.069371 0.632144 0.500520
O O18 0.763712 0.527423 0.800939
O O19 0.800563 0.400282 0.821850
O O20 0.868012 0.542747 0.893448
O O21 0.235854 0.471708 0.486290
O O22 0.401746 0.598255 0.466073
#
# Coordination Sequence:
#
# PCOD8326735 Si02
#       8
#    12  12  12  12  12  12  12  12
#     4  10  19  32  50  70  95 128 168 209 246 287
#     4   9  18  33  54  77  99 124 155 192 238 296
#     4  10  20  33  48  68  94 123 156 194 234 273
#     4   9  18  31  47  70  96 120 150 194 244 288
#     4  10  18  29  47  68  92 123 155 187 228 280
#     4  10  20  33  48  67  94 130 169 206 242 280
#     4   9  16  26  42  66  95 123 150 183 227 278
#     4   9  17  29  46  68  93 121 153 191 235 282
#
# _framework density 17.156029
#
# number of rings (size 3 to 8) (size 9 to 14) (size 15 to 20)
#    0.000    2.500    0.000    2.750    0.000    4.000 
#    0.000    0.625    0.000    3.750    0.000    0.000 
#    0.000    7.000    0.000    0.000    0.000    0.000 
#
# Total GULP energy -1189408.779213 kJ/mol
# GULP energy per Si atom -12389.674783 kJ/mol
# Density = 1.711698 g / cm^3
# Si number density = 17.156029 Si / 1000 Ang^3
#
#
#
# Elastic Constant Matrix: (Units=GPa)
#
#
# Indices 1 2 3 4 5 6 
#
# 1 95.8570 48.3856 42.1001 0.0000 0.0000 0.0000
# 2 48.3856 95.8570 42.1001 0.0000 0.0000 0.0000
# 3 42.1001 42.1001 73.8652 0.0000 0.0000 0.0000
# 4 0.0000 0.0000 0.0000 24.2110 0.0000 0.0000
# 5 0.0000 0.0000 0.0000 0.0000 24.2110 0.0000
# 6 0.0000 0.0000 0.0000 0.0000 0.0000 23.7357
#
#
#
# Elastic Compliance Matrix: (Units=1/GPa)
#
#
# Indices 1 2 3 4 5 6 
#
# 1 0.015727 -0.005338 -0.005922 0.000000 0.000000 0.000000
# 2 -0.005338 0.015727 -0.005922 0.000000 0.000000 0.000000
# 3 -0.005922 -0.005922 0.020288 0.000000 0.000000 0.000000
# 4 0.000000 0.000000 0.000000 0.041304 0.000000 0.000000
# 5 0.000000 0.000000 0.000000 0.000000 0.041304 0.000000
# 6 0.000000 0.000000 0.000000 0.000000 0.000000 0.042131
#
#
# Mechanical properties :
#
#
# Convention : Reuss Voigt Hill
#
# Bulk Modulus (GPa) = 57.53436 58.97230 58.25333
# Shear Modulus (GPa) = 23.08016 23.29777 23.18897
#
# Velocity S-wave (km/s) = 3.67182 3.68909 3.68047
# Velocity P-wave (km/s) = 7.18228 7.25221 7.21733
#
# Compressibility (1/GPa) = 0.01738092
#
# Stress axis : x y z
#
# Youngs Moduli (GPa) = 63.58352 63.58352 49.28968
#
# Poissons Ratio (x) = 0.33941 0.29187
# Poissons Ratio (y) = 0.33941 0.29187
# Poissons Ratio (z) = 0.37651 0.37651
#
# Static dielectric constant tensor:
#      x y z
#    x 3.311230 0.000000 0.000000 
#    y 0.000000 3.311230 0.000000 
#    z 0.000000 0.000000 3.068360 
# 
# 
# High freq. dielectric constant tensor:
#      x y z
#    x 1.665880 0.000000 0.000000 
#    y 0.000000 1.665880 0.000000 
#    z 0.000000 0.000000 1.643250 
# 
# From -- ./inp_files/3518.got.cif
#   From: 2010.03.12/outbox.cif.g09.slc.cpg/sg186_2_cif.got.tgz:3518.got - 2010.04.01 11:56:34.
