data_PCOD8326773
_publ_section_title
;
Structure prediction by ZEFSAII (Michael W. Deem and Ramdas Pophale) SiO2 
 PCOD8326773
Probable space group: P 63 M C
;
_chemical_formula_sum "Si O2"
_cell_formula_units_Z 84
_cell_length_a 17.791944
_cell_length_b 17.791944
_cell_length_c 15.818861
_cell_angle_alpha 90.000000
_cell_angle_beta 90.000000
_cell_angle_gamma 120.000000
_cell_volume 4336.632773
_symmetry_space_group_name_H-M "P 63 M C"
_symmetry_group_IT_number 186
_symmetry_cell_setting 'hexagonal'
loop_
_space_group_symop_operation_xyz
x,y,z
x-y,x,1/2+z
-y,x-y,z
-x,-y,1/2+z
-x+y,-x,z
y,-x+y,1/2+z
-x+y,y,z
x,x-y,z
-y,-x,z
y,x,1/2+z
x-y,-y,1/2+z
-x,-x+y,1/2+z
loop_
_atom_site_type_symbol
_atom_site_label
_atom_site_fract_x
_atom_site_fract_y
_atom_site_fract_z
Si Si1 0.500272 0.167777 0.294130
Si Si2 0.287896 0.231368 0.839742
Si Si3 0.105161 0.469513 0.980875
Si Si4 0.021948 0.596930 0.271983
Si Si5 0.827753 0.495004 0.655915
Si Si6 0.770987 0.050889 0.500562
Si Si7 0.824332 0.001441 0.672236
O O1 0.601097 0.202194 0.276380
O O2 0.476912 0.238456 0.259825
O O3 0.480825 0.154182 0.393547
O O4 0.439998 0.077841 0.245929
O O5 0.312583 0.156292 0.846833
O O6 0.377200 0.325705 0.840541
O O7 0.227475 0.223926 0.919289
O O8 0.237033 0.223575 0.753042
O O9 0.057408 0.528704 0.978983
O O10 0.044073 0.367448 0.999885
O O11 0.176132 0.506956 0.054999
O O12 0.033422 0.516711 0.307947
O O13 0.075664 0.637351 0.186702
O O14 0.762390 0.524779 0.692478
O O15 0.797988 0.398994 0.690865
O O16 0.849531 0.150470 0.493584
O O17 0.779058 0.007603 0.586442
O O18 0.816579 0.908290 0.677231
O O19 0.925383 0.074618 0.672477
#
# Coordination Sequence:
#
# PCOD8326773 Si02
#       7
#    12  12  12  12  12  12  12
#     4  10  19  32  51  77 106 139 177 219 268 322
#     4  11  22  36  57  83 110 145 189 234 281 334
#     4  10  20  33  53  79 108 142 179 218 273 335
#     4  10  21  35  52  74 105 142 177 215 269 329
#     4  10  19  32  51  77 107 139 175 218 268 327
#     4  11  21  35  57  82 113 150 187 231 282 336
#     4  10  22  39  58  82 112 147 188 233 281 333
#
# _framework density 19.369866999999999
#
# number of rings (size 3 to 8) (size 9 to 14) (size 15 to 20)
#    0.000    1.714    1.429    3.857    0.000    1.714 
#    0.000    1.429    0.000    5.143    0.000    0.000 
#    0.000    0.000    0.000    0.857    0.000    0.143 
#
# Total GULP energy -1040780.625399 kJ/mol
# GULP energy per Si atom -12390.245540 kJ/mol
# Density = 1.932578 g / cm^3
# Si number density = 19.369867 Si / 1000 Ang^3
#
#
#
# Elastic Constant Matrix: (Units=GPa)
#
#
# Indices 1 2 3 4 5 6 
#
# 1 125.8316 67.0109 41.7249 0.0000 0.0000 0.0000
# 2 67.0109 125.8316 41.7249 0.0000 0.0000 0.0000
# 3 41.7249 41.7249 98.5424 0.0000 0.0000 0.0000
# 4 0.0000 0.0000 0.0000 20.1671 0.0000 0.0000
# 5 0.0000 0.0000 0.0000 0.0000 20.1671 0.0000
# 6 0.0000 0.0000 0.0000 0.0000 0.0000 29.4104
#
#
#
# Elastic Compliance Matrix: (Units=1/GPa)
#
#
# Indices 1 2 3 4 5 6 
#
# 1 0.011675 -0.005326 -0.002688 0.000000 0.000000 0.000000
# 2 -0.005326 0.011675 -0.002688 0.000000 0.000000 0.000000
# 3 -0.002688 -0.002688 0.012424 0.000000 0.000000 0.000000
# 4 0.000000 0.000000 0.000000 0.049586 0.000000 0.000000
# 5 0.000000 0.000000 0.000000 0.000000 0.049586 0.000000
# 6 0.000000 0.000000 0.000000 0.000000 0.000000 0.034002
#
#
# Mechanical properties :
#
#
# Convention : Reuss Voigt Hill
#
# Bulk Modulus (GPa) = 69.59330 72.34747 70.97038
# Shear Modulus (GPa) = 25.62242 27.26527 26.44384
#
# Velocity S-wave (km/s) = 3.64097 3.75589 3.69888
# Velocity P-wave (km/s) = 7.32682 7.49937 7.41359
#
# Compressibility (1/GPa) = 0.01436920
#
# Stress axis : x y z
#
# Youngs Moduli (GPa) = 85.65428 85.65428 80.48658
#
# Poissons Ratio (x) = 0.45619 0.21637
# Poissons Ratio (y) = 0.45619 0.21637
# Poissons Ratio (z) = 0.23026 0.23026
#
# Static dielectric constant tensor:
#      x y z
#    x 3.618370 0.000000 0.000000 
#    y 0.000000 3.618370 0.000000 
#    z 0.000000 0.000000 3.497030 
# 
# 
# High freq. dielectric constant tensor:
#      x y z
#    x 1.754210 0.000000 0.000000 
#    y 0.000000 1.754210 0.000000 
#    z 0.000000 0.000000 1.737210 
# 
# From -- ./inp_files/2581.got.cif
#   From: 2010.03.12/outbox.cif.g09.slc.cpg/sg186_2_cif.got.tgz:2581.got - 2010.04.01 11:56:34.
