data_PCOD8326786
_publ_section_title
;
Structure prediction by ZEFSAII (Michael W. Deem and Ramdas Pophale) SiO2 
 PCOD8326786
Probable space group: P 63 M C
;
_chemical_formula_sum "Si O2"
_cell_formula_units_Z 60
_cell_length_a 12.676874
_cell_length_b 12.676874
_cell_length_c 25.270190
_cell_angle_alpha 90.000000
_cell_angle_beta 90.000000
_cell_angle_gamma 120.000000
_cell_volume 3516.928074
_symmetry_space_group_name_H-M "P 63 M C"
_symmetry_group_IT_number 186
_symmetry_cell_setting 'hexagonal'
loop_
_space_group_symop_operation_xyz
x,y,z
x-y,x,1/2+z
-y,x-y,z
-x,-y,1/2+z
-x+y,-x,z
y,-x+y,1/2+z
-x+y,y,z
x,x-y,z
-y,-x,z
y,x,1/2+z
x-y,-y,1/2+z
-x,-x+y,1/2+z
loop_
_atom_site_type_symbol
_atom_site_label
_atom_site_fract_x
_atom_site_fract_y
_atom_site_fract_z
Si Si1 0.908488 0.575027 0.237280
Si Si2 0.909490 0.575905 0.357624
Si Si3 0.666563 0.086748 0.547554
Si Si4 0.754449 0.754335 0.644669
Si Si5 0.665314 0.578017 0.949945
O O1 0.766417 0.532833 0.231297
O O2 0.924939 0.462470 0.220211
O O3 0.951731 0.616061 0.297377
O O4 0.991759 0.688953 0.200164
O O5 0.795778 0.591556 0.373211
O O6 0.869484 0.434742 0.366250
O O7 0.022758 0.661980 0.394690
O O8 0.552767 0.105534 0.556917
O O9 0.783139 0.216862 0.537248
O O10 0.680725 0.021475 0.598849
O O11 0.649972 0.004508 0.497062
O O12 0.891912 0.783824 0.649099
O O13 0.755552 0.877776 0.631164
O O14 0.795778 0.591556 0.956827
O O15 0.563917 0.436084 0.951043
#
# Coordination Sequence:
#
# PCOD8326786 Si02
#       5
#    12  12  12  12  12
#     4   9  17  30  49  73  98 124 157 199 246 289
#     4   9  17  30  50  74  98 124 156 198 245 289
#     4  10  20  34  53  75  97 121 152 195 244 290
#     4  10  20  33  49  69  96 131 167 199 233 279
#     4  10  20  33  49  69  95 126 158 191 228 275
#
# _framework density 17.060343
#
# number of rings (size 3 to 8) (size 9 to 14) (size 15 to 20)
#    0.000    2.400    0.000    2.800    0.000    2.400 
#    0.000    2.000    0.000   11.200    0.000    0.000 
#    0.000    0.000    0.000    0.000    0.000    0.000 
#
# Total GULP energy -744169.570918 kJ/mol
# GULP energy per Si atom -12402.826182 kJ/mol
# Density = 1.702151 g / cm^3
# Si number density = 17.060343 Si / 1000 Ang^3
#
#
#
# Elastic Constant Matrix: (Units=GPa)
#
#
# Indices 1 2 3 4 5 6 
#
# 1 112.2856 73.8634 66.7185 0.0000 0.0000 0.0000
# 2 73.8634 112.2856 66.7185 0.0000 0.0000 0.0000
# 3 66.7185 66.7185 114.3532 0.0000 0.0000 0.0000
# 4 0.0000 0.0000 0.0000 24.6390 0.0000 0.0000
# 5 0.0000 0.0000 0.0000 0.0000 24.6390 0.0000
# 6 0.0000 0.0000 0.0000 0.0000 0.0000 19.2111
#
#
#
# Elastic Compliance Matrix: (Units=1/GPa)
#
#
# Indices 1 2 3 4 5 6 
#
# 1 0.017630 -0.008396 -0.005387 0.000000 0.000000 0.000000
# 2 -0.008396 0.017630 -0.005387 0.000000 0.000000 0.000000
# 3 -0.005387 -0.005387 0.015031 0.000000 0.000000 0.000000
# 4 0.000000 0.000000 0.000000 0.040586 0.000000 0.000000
# 5 0.000000 0.000000 0.000000 0.000000 0.040586 0.000000
# 6 0.000000 0.000000 0.000000 0.000000 0.000000 0.052053
#
#
# Mechanical properties :
#
#
# Convention : Reuss Voigt Hill
#
# Bulk Modulus (GPa) = 83.68633 83.72504 83.70569
# Shear Modulus (GPa) = 22.13927 22.47275 22.30601
#
# Velocity S-wave (km/s) = 3.60627 3.63333 3.61983
# Velocity P-wave (km/s) = 8.15475 8.17214 8.16345
#
# Compressibility (1/GPa) = 0.01194938
#
# Stress axis : x y z
#
# Youngs Moduli (GPa) = 56.72061 56.72061 66.52742
#
# Poissons Ratio (x) = 0.47625 0.35841
# Poissons Ratio (y) = 0.47625 0.35841
# Poissons Ratio (z) = 0.30558 0.30558
#
# Static dielectric constant tensor:
#      x y z
#    x 3.090960 0.000000 0.000000 
#    y 0.000000 3.090960 0.000000 
#    z 0.000000 0.000000 3.385760 
# 
# 
# High freq. dielectric constant tensor:
#      x y z
#    x 1.655410 0.000000 0.000000 
#    y 0.000000 1.655410 0.000000 
#    z 0.000000 0.000000 1.671910 
# 
# From -- ./inp_files/3960.got.cif
#   From: 2010.03.12/outbox.cif.g09.slc.cpg/sg186_2_cif.got.tgz:3960.got - 2010.04.01 11:56:34.
