data_PCOD8326606
_publ_section_title
;
Structure prediction by ZEFSAII (Michael W. Deem and Ramdas Pophale) SiO2 
 PCOD8326606
Probable space group: P 6 C C
;
_chemical_formula_sum "Si O2"
_cell_formula_units_Z 48
_cell_length_a 25.294659
_cell_length_b 25.294659
_cell_length_c 5.178791
_cell_angle_alpha 90.000000
_cell_angle_beta 90.000000
_cell_angle_gamma 120.000000
_cell_volume 2869.569015
_symmetry_space_group_name_H-M "P 6 C C"
_symmetry_group_IT_number 184
_symmetry_cell_setting 'hexagonal'
loop_
_space_group_symop_operation_xyz
x,y,z
x-y,x,z
-y,x-y,z
-x,-y,z
-x+y,-x,z
y,-x+y,z
-x+y,y,1/2+z
x,x-y,1/2+z
-y,-x,1/2+z
y,x,1/2+z
x-y,-y,1/2+z
-x,-x+y,1/2+z
loop_
_atom_site_type_symbol
_atom_site_label
_atom_site_fract_x
_atom_site_fract_y
_atom_site_fract_z
Si Si1 0.708352 0.231836 0.193630
Si Si2 0.889097 0.411587 0.666859
Si Si3 0.159140 0.378147 0.199108
Si Si4 0.960716 0.621385 0.168181
O O1 0.722847 0.272616 0.449829
O O2 0.636931 0.182787 0.181295
O O3 0.746600 0.197428 0.192236
O O4 0.906008 0.444840 0.391252
O O5 0.929035 0.379753 0.706925
O O6 0.176226 0.351873 0.448053
O O7 0.087571 0.355593 0.205260
O O8 0.013256 0.653266 0.380458
#
# Coordination Sequence:
#
# PCOD8326606 Si02
#       4
#    12  12  12  12
#     4   9  17  31  50  65  78 101 140 189 227 263
#     4  11  22  34  49  68  91 123 155 182 232 312
#     4   9  17  31  50  69  87 114 152 187 223 266
#     4  11  22  34  49  72 100 126 155 196 242 281
#
# _framework density 16.727250000000002
#
# number of rings (size 3 to 8) (size 9 to 14) (size 15 to 20)
#    0.000    2.000    0.000    4.500    0.000   11.000 
#    0.000    0.000    0.000   10.000    0.000    0.000 
#    0.000    0.000    0.000    0.000    0.000    0.000 
#
# Total GULP energy -595329.891709 kJ/mol
# GULP energy per Si atom -12402.706077 kJ/mol
# Density = 1.668918 g / cm^3
# Si number density = 16.727250 Si / 1000 Ang^3
#
#
#
# Elastic Constant Matrix: (Units=GPa)
#
#
# Indices 1 2 3 4 5 6 
#
# 1 56.8679 22.3620 19.1596 0.0000 0.0000 0.0000
# 2 22.3620 56.8679 19.1596 0.0000 0.0000 0.0000
# 3 19.1596 19.1596 114.1836 0.0000 0.0000 0.0000
# 4 0.0000 0.0000 0.0000 26.5669 0.0000 0.0000
# 5 0.0000 0.0000 0.0000 0.0000 26.5669 0.0000
# 6 0.0000 0.0000 0.0000 0.0000 0.0000 17.2529
#
#
#
# Elastic Compliance Matrix: (Units=1/GPa)
#
#
# Indices 1 2 3 4 5 6 
#
# 1 0.021358 -0.007622 -0.002305 0.000000 0.000000 0.000000
# 2 -0.007622 0.021358 -0.002305 0.000000 0.000000 0.000000
# 3 -0.002305 -0.002305 0.009531 0.000000 0.000000 0.000000
# 4 0.000000 0.000000 0.000000 0.037641 0.000000 0.000000
# 5 0.000000 0.000000 0.000000 0.000000 0.037641 0.000000
# 6 0.000000 0.000000 0.000000 0.000000 0.000000 0.057961
#
#
# Mechanical properties :
#
#
# Convention : Reuss Voigt Hill
#
# Bulk Modulus (GPa) = 35.99161 38.80910 37.40036
# Shear Modulus (GPa) = 22.80851 25.22655 24.01753
#
# Velocity S-wave (km/s) = 3.69664 3.88765 3.79335
# Velocity P-wave (km/s) = 6.30743 6.58812 6.44930
#
# Compressibility (1/GPa) = 0.02778425
#
# Stress axis : x y z
#
# Youngs Moduli (GPa) = 46.81993 46.81993 104.91715
#
# Poissons Ratio (x) = 0.35687 0.24182
# Poissons Ratio (y) = 0.35687 0.24182
# Poissons Ratio (z) = 0.10792 0.10792
#
# Static dielectric constant tensor:
#      x y z
#    x 2.956000 0.000000 0.000000 
#    y 0.000000 2.956000 0.000000 
#    z 0.000000 0.000000 3.361090 
# 
# 
# High freq. dielectric constant tensor:
#      x y z
#    x 1.610780 0.000000 0.000000 
#    y 0.000000 1.610780 0.000000 
#    z 0.000000 0.000000 1.669970 
# 
# From -- ./inp_files/7.got.cif
#   From: 2010.03.12/outbox.cif.g09.slc.cpg/sg184_cif.got.tgz:7.got - 2010.04.01 11:54:36.
