data_PCOD8326479
_publ_section_title
;
Structure prediction by ZEFSAII (Michael W. Deem and Ramdas Pophale) SiO2 
 PCOD8326479
Probable space group: P 63 2 2
;
_chemical_formula_sum "Si O2"
_cell_formula_units_Z 66
_cell_length_a 19.863667
_cell_length_b 19.863667
_cell_length_c 8.859930
_cell_angle_alpha 90.000000
_cell_angle_beta 90.000000
_cell_angle_gamma 120.000000
_cell_volume 3027.469484
_symmetry_space_group_name_H-M "P 63 2 2"
_symmetry_group_IT_number 182
_symmetry_cell_setting 'hexagonal'
loop_
_space_group_symop_operation_xyz
x,y,z
x-y,x,1/2+z
-y,x-y,z
-x,-y,1/2+z
-x+y,-x,z
y,-x+y,1/2+z
x-y,-y,-z
-x,-x+y,-z
y,x,-z
-y,-x,1/2-z
-x+y,y,1/2-z
x,x-y,1/2-z
loop_
_atom_site_type_symbol
_atom_site_label
_atom_site_fract_x
_atom_site_fract_y
_atom_site_fract_z
Si Si1 0.667094 0.483629 0.420686
Si Si2 0.640176 0.715546 0.427548
Si Si3 0.127334 0.872669 0.917225
Si Si4 0.075369 0.359825 0.072452
Si Si5 0.050866 0.949135 0.750000
Si Si6 0.516371 0.183465 0.079313
O O1 0.704766 0.557317 0.530727
O O2 0.661154 0.509249 0.250000
O O3 0.723821 0.447642 0.424012
O O4 0.582293 0.417708 0.478403
O O5 0.642390 0.642390 0.500000
O O6 0.714061 0.792436 0.493928
O O7 0.650119 0.718703 0.250000
O O8 0.146549 0.853452 0.750000
O O9 0.079758 0.920244 0.897520
O O10 0.207567 0.921627 0.006068
O O11 0.147449 0.442684 0.030729
O O12 0.000000 0.357613 0.000000
O O13 0.955989 0.911977 0.750000
#
# Coordination Sequence:
#
# PCOD8326479 Si02
#       6
#    12  12  12  12   6  12
#     4  10  21  40  69 103 146 189 237 295 362 439
#     4  12  25  43  68 102 138 186 246 298 361 439
#     4  10  21  43  75 104 141 181 227 306 366 451
#     4  12  25  43  68 102 138 186 246 298 361 439
#     4   8  20  46  78 112 140 178 232 304 378 460
#     4  10  21  40  69 103 146 189 237 295 362 439
#
# _framework density 21.800384000000001
#
# number of rings (size 3 to 8) (size 9 to 14) (size 15 to 20)
#    0.727    0.727    1.818    4.182    0.000    2.909 
#    3.273    0.000    0.000    6.545    0.000    0.000 
#    0.000    0.000    0.000    0.000    0.000    0.000 
#
# Total GULP energy -817997.506922 kJ/mol
# GULP energy per Si atom -12393.901620 kJ/mol
# Density = 2.175077 g / cm^3
# Si number density = 21.800384 Si / 1000 Ang^3
#
#
#
# Elastic Constant Matrix: (Units=GPa)
#
#
# Indices 1 2 3 4 5 6 
#
# 1 128.3330 58.1336 55.8161 0.0000 0.0000 0.0000
# 2 58.1336 128.3330 55.8161 0.0000 0.0000 0.0000
# 3 55.8161 55.8161 167.2947 0.0000 0.0000 0.0000
# 4 0.0000 0.0000 0.0000 20.5194 0.0000 0.0000
# 5 0.0000 0.0000 0.0000 0.0000 20.5194 0.0000
# 6 0.0000 0.0000 0.0000 0.0000 0.0000 35.0997
#
#
#
# Elastic Compliance Matrix: (Units=1/GPa)
#
#
# Indices 1 2 3 4 5 6 
#
# 1 0.010473 -0.003772 -0.002236 0.000000 0.000000 0.000000
# 2 -0.003772 0.010473 -0.002236 0.000000 0.000000 0.000000
# 3 -0.002236 -0.002236 0.007469 0.000000 0.000000 0.000000
# 4 0.000000 0.000000 0.000000 0.048734 0.000000 0.000000
# 5 0.000000 0.000000 0.000000 0.000000 0.048734 0.000000
# 6 0.000000 0.000000 0.000000 0.000000 0.000000 0.028490
#
#
# Mechanical properties :
#
#
# Convention : Reuss Voigt Hill
#
# Bulk Modulus (GPa) = 83.83042 84.83246 84.33144
# Shear Modulus (GPa) = 28.59784 32.17403 30.38593
#
# Velocity S-wave (km/s) = 3.62581 3.84584 3.73745
# Velocity P-wave (km/s) = 7.48771 7.66280 7.57576
#
# Compressibility (1/GPa) = 0.01192884
#
# Stress axis : x y z
#
# Youngs Moduli (GPa) = 95.48098 95.48098 133.87929
#
# Poissons Ratio (x) = 0.36014 0.29934
# Poissons Ratio (y) = 0.36014 0.29934
# Poissons Ratio (z) = 0.21348 0.21348
#
# Static dielectric constant tensor:
#      x y z
#    x 3.731470 0.000000 0.000000 
#    y 0.000000 3.731470 0.000000 
#    z 0.000000 0.000000 3.741180 
# 
# 
# High freq. dielectric constant tensor:
#      x y z
#    x 1.855930 0.000000 0.000000 
#    y 0.000000 1.855930 0.000000 
#    z 0.000000 0.000000 1.848780 
# 
# From -- ./inp_files/1814.got.cif
#   From: 2010.03.12/outbox.cif.g09.slc.cpg/sg182_1_cif.got.tgz:1814.got - 2010.04.01 11:49:36.
