data_PCOD8326641
_publ_section_title
;
Structure prediction by ZEFSAII (Michael W. Deem and Ramdas Pophale) SiO2 
 PCOD8326641
Probable space group: P 63 C M
;
_chemical_formula_sum "Si O2"
_cell_formula_units_Z 84
_cell_length_a 13.727529
_cell_length_b 13.727529
_cell_length_c 24.577273
_cell_angle_alpha 90.000000
_cell_angle_beta 90.000000
_cell_angle_gamma 120.000000
_cell_volume 4010.966779
_symmetry_space_group_name_H-M "P 63 C M"
_symmetry_group_IT_number 185
_symmetry_cell_setting 'hexagonal'
loop_
_space_group_symop_operation_xyz
x,y,z
x-y,x,1/2+z
-y,x-y,z
-x,-y,1/2+z
-x+y,-x,z
y,-x+y,1/2+z
-x+y,y,1/2+z
x,x-y,1/2+z
-y,-x,1/2+z
y,x,z
x-y,-y,z
-x,-x+y,z
loop_
_atom_site_type_symbol
_atom_site_label
_atom_site_fract_x
_atom_site_fract_y
_atom_site_fract_z
Si Si1 0.665461 0.533363 0.014500
Si Si2 0.418807 0.868326 0.411251
Si Si3 0.876243 0.669289 0.880584
Si Si4 0.326214 0.458124 0.190941
Si Si5 0.125573 0.873853 0.993003
Si Si6 0.870445 0.532082 0.636032
Si Si7 0.672586 0.544673 0.812325
O O1 0.606065 0.606065 0.003297
O O2 0.640227 0.480944 0.074747
O O3 0.623305 0.438429 0.966866
O O4 0.799458 0.620453 0.013357
O O5 0.292423 0.843507 0.409711
O O6 0.443359 0.815776 0.356759
O O7 0.508042 0.000000 0.411309
O O8 0.872723 0.749194 0.927157
O O9 0.788207 0.650733 0.833785
O O10 0.000000 0.724524 0.853793
O O11 0.358994 0.358994 0.186542
O O12 0.213416 0.423865 0.155983
O O13 0.428944 0.575963 0.172293
O O14 0.302422 0.483908 0.252443
O O15 0.000000 0.793918 0.015490
O O16 0.170505 0.000000 0.014398
O O17 0.000000 0.635287 0.638964
O O18 0.577313 0.577313 0.804439
#
# Coordination Sequence:
#
# PCOD8326641 Si02
#       7
#    12  12  12  12  12  12  12
#     4   9  18  35  57  79 113 153 189 239 293 342
#     4   9  18  34  52  76 110 144 182 230 286 342
#     4  10  20  32  53  85 114 150 194 231 284 354
#     4  10  23  40  61  88 117 154 202 253 302 356
#     4  10  19  33  54  84 120 157 193 232 284 351
#     4  10  22  41  63  87 117 160 205 250 304 358
#     4  10  20  37  57  79 114 150 185 239 298 347
#
# _framework density 20.942581000000001
#
# number of rings (size 3 to 8) (size 9 to 14) (size 15 to 20)
#    0.000    2.286    1.429    0.857    2.000    2.286 
#    0.857    2.857    0.000    0.571    0.000    0.000 
#    0.000    0.000    0.000    0.000    0.000    0.000 
#
# Total GULP energy -1041009.515387 kJ/mol
# GULP energy per Si atom -12392.970421 kJ/mol
# Density = 2.089492 g / cm^3
# Si number density = 20.942581 Si / 1000 Ang^3
#
#
#
# Elastic Constant Matrix: (Units=GPa)
#
#
# Indices 1 2 3 4 5 6 
#
# 1 61.1061 9.5939 14.9639 0.0000 0.0000 0.0000
# 2 9.5939 61.1061 14.9639 0.0000 0.0000 0.0000
# 3 14.9639 14.9639 116.7316 0.0000 0.0000 0.0000
# 4 0.0000 0.0000 0.0000 22.4402 0.0000 0.0000
# 5 0.0000 0.0000 0.0000 0.0000 22.4402 0.0000
# 6 0.0000 0.0000 0.0000 0.0000 0.0000 25.7561
#
#
#
# Elastic Compliance Matrix: (Units=1/GPa)
#
#
# Indices 1 2 3 4 5 6 
#
# 1 0.017184 -0.002229 -0.001917 0.000000 0.000000 0.000000
# 2 -0.002229 0.017184 -0.001917 0.000000 0.000000 0.000000
# 3 -0.001917 -0.001917 0.009058 0.000000 0.000000 0.000000
# 4 0.000000 0.000000 0.000000 0.044563 0.000000 0.000000
# 5 0.000000 0.000000 0.000000 0.000000 0.044563 0.000000
# 6 0.000000 0.000000 0.000000 0.000000 0.000000 0.038826
#
#
# Mechanical properties :
#
#
# Convention : Reuss Voigt Hill
#
# Bulk Modulus (GPa) = 31.94778 35.33191 33.63985
# Shear Modulus (GPa) = 25.78144 27.42210 26.60177
#
# Velocity S-wave (km/s) = 3.51244 3.62248 3.56789
# Velocity P-wave (km/s) = 5.63363 5.86549 5.75073
#
# Compressibility (1/GPa) = 0.03130108
#
# Stress axis : x y z
#
# Youngs Moduli (GPa) = 58.19242 58.19242 110.39720
#
# Poissons Ratio (x) = 0.12968 0.21165
# Poissons Ratio (y) = 0.12968 0.21165
# Poissons Ratio (z) = 0.11157 0.11157
#
# Static dielectric constant tensor:
#      x y z
#    x 3.688840 0.000000 0.000000 
#    y 0.000000 3.688840 0.000000 
#    z 0.000000 0.000000 3.832670 
# 
# 
# High freq. dielectric constant tensor:
#      x y z
#    x 1.808410 0.000000 0.000000 
#    y 0.000000 1.808410 0.000000 
#    z 0.000000 0.000000 1.812020 
# 
# From -- ./inp_files/2068.got.cif
#   From: 2010.03.12/outbox.cif.g09.slc.cpg/sg185_cif.got.tgz:2068.got - 2010.04.01 11:55:19.
