data_PCOD8326084
_publ_section_title
;
Structure prediction by ZEFSAII (Michael W. Deem and Ramdas Pophale) SiO2 
 PCOD8326084
Probable space group: P 65 2 2
;
_chemical_formula_sum "Si O2"
_cell_formula_units_Z 60
_cell_length_a 19.595317
_cell_length_b 19.595317
_cell_length_c 8.975801
_cell_angle_alpha 90.000000
_cell_angle_beta 90.000000
_cell_angle_gamma 120.000000
_cell_volume 2984.753254
_symmetry_space_group_name_H-M "P 65 2 2"
_symmetry_group_IT_number 179
_symmetry_cell_setting 'hexagonal'
loop_
_space_group_symop_operation_xyz
x,y,z
x-y,x,5/6+z
-y,x-y,2/3+z
-x,-y,1/2+z
-x+y,-x,1/3+z
y,-x+y,1/6+z
x-y,-y,-z
-x,-x+y,1/3-z
y,x,2/3-z
-y,-x,1/6-z
-x+y,y,1/2-z
x,x-y,5/6-z
loop_
_atom_site_type_symbol
_atom_site_label
_atom_site_fract_x
_atom_site_fract_y
_atom_site_fract_z
Si Si1 0.591876 0.223369 0.486526
Si Si2 0.314918 0.081378 0.418776
Si Si3 0.143370 0.442725 0.004442
Si Si4 0.105296 0.552648 0.416667
Si Si5 0.361098 0.377234 0.003549
Si Si6 0.753673 0.246328 0.583334
O O1 0.620051 0.310026 0.416667
O O2 0.536139 0.199647 0.630272
O O3 0.538081 0.158870 0.365355
O O4 0.665283 0.212643 0.525739
O O5 0.275811 0.137906 0.416667
O O6 0.393570 0.132275 0.514676
O O7 0.340159 0.063342 0.257119
O O8 0.253530 0.000000 0.500000
O O9 0.194312 0.430629 0.877946
O O10 0.059883 0.418971 0.933533
O O11 0.058105 0.586890 0.328348
O O12 0.344582 0.344582 0.833334
#
# Coordination Sequence:
#
# PCOD8326084 Si02
#       6
#    12  12  12   6  12   6
#     4  12  24  40  58  84 120 166 221 276 330 381
#     4  10  23  45  68  95 128 163 201 249 316 379
#     4  11  24  41  60  86 126 161 216 268 322 383
#     4  12  25  36  62  82 120 166 216 274 332 378
#     4  11  26  40  61  92 122 165 217 265 325 383
#     4  12  25  36  60  88 118 170 218 278 324 378
#
# _framework density 20.102163999999998
#
# number of rings (size 3 to 8) (size 9 to 14) (size 15 to 20)
#    0.000    0.800    2.000    5.400   11.200    0.000 
#    0.000    0.000    0.000    0.000    0.000    1.400 
#    0.000    0.000    0.000    0.000    0.000    0.000 
#
# Total GULP energy -743664.223549 kJ/mol
# GULP energy per Si atom -12394.403726 kJ/mol
# Density = 2.005641 g / cm^3
# Si number density = 20.102164 Si / 1000 Ang^3
#
#
#
# Elastic Constant Matrix: (Units=GPa)
#
#
# Indices 1 2 3 4 5 6 
#
# 1 84.8573 34.4707 36.6813 0.0000 0.0000 0.0000
# 2 34.4707 84.8573 36.6813 0.0000 0.0000 0.0000
# 3 36.6813 36.6813 128.2123 0.0000 0.0000 0.0000
# 4 0.0000 0.0000 0.0000 30.5362 0.0000 0.0000
# 5 0.0000 0.0000 0.0000 0.0000 30.5362 0.0000
# 6 0.0000 0.0000 0.0000 0.0000 0.0000 25.1933
#
#
#
# Elastic Compliance Matrix: (Units=1/GPa)
#
#
# Indices 1 2 3 4 5 6 
#
# 1 0.015008 -0.004839 -0.002909 0.000000 0.000000 0.000000
# 2 -0.004839 0.015008 -0.002909 0.000000 0.000000 0.000000
# 3 -0.002909 -0.002909 0.009464 0.000000 0.000000 0.000000
# 4 0.000000 0.000000 0.000000 0.032748 0.000000 0.000000
# 5 0.000000 0.000000 0.000000 0.000000 0.032748 0.000000
# 6 0.000000 0.000000 0.000000 0.000000 0.000000 0.039693
#
#
# Mechanical properties :
#
#
# Convention : Reuss Voigt Hill
#
# Bulk Modulus (GPa) = 55.05144 57.06597 56.05870
# Shear Modulus (GPa) = 29.06325 29.92606 29.49465
#
# Velocity S-wave (km/s) = 3.80646 3.86255 3.83461
# Velocity P-wave (km/s) = 6.83843 6.95284 6.89587
#
# Compressibility (1/GPa) = 0.01816483
#
# Stress axis : x y z
#
# Youngs Moduli (GPa) = 66.63235 66.63235 105.66070
#
# Poissons Ratio (x) = 0.32242 0.30740
# Poissons Ratio (y) = 0.32242 0.30740
# Poissons Ratio (z) = 0.19385 0.19385
#
# Static dielectric constant tensor:
#      x y z
#    x 3.580290 0.000000 0.000000 
#    y 0.000000 3.580290 0.000000 
#    z 0.000000 0.000000 3.925910 
# 
# 
# High freq. dielectric constant tensor:
#      x y z
#    x 1.762600 0.000000 0.000000 
#    y 0.000000 1.762600 0.000000 
#    z 0.000000 0.000000 1.810700 
# 
# From -- ./inp_files/3219.got.cif
#   From: 2010.03.12/outbox.cif.g09.slc.cpg/sg179_2_cif.got.tgz:3219.got - 2010.04.02 07:08:42.
