data_PCOD8326929
_publ_section_title
;
Structure prediction by ZEFSAII (Michael W. Deem and Ramdas Pophale) SiO2 
 PCOD8326929
Probable space group: P -6 M 2
;
_chemical_formula_sum "Si O2"
_cell_formula_units_Z 66
_cell_length_a 20.405832
_cell_length_b 20.405832
_cell_length_c 9.385060
_cell_angle_alpha 90.000000
_cell_angle_beta 90.000000
_cell_angle_gamma 120.000000
_cell_volume 3384.358015
_symmetry_space_group_name_H-M "P -6 M 2"
_symmetry_group_IT_number 187
_symmetry_cell_setting 'hexagonal'
loop_
_space_group_symop_operation_xyz
x,y,z
-x+y,-x,-z
-y,x-y,z
x,y,-z
-x+y,-x,z
-y,x-y,-z
-y,-x,-z
-x+y,y,-z
x,x-y,-z
-x+y,y,z
x,x-y,z
-y,-x,z
loop_
_atom_site_type_symbol
_atom_site_label
_atom_site_fract_x
_atom_site_fract_y
_atom_site_fract_z
Si Si1 0.850921 0.848466 0.000000
Si Si2 0.231357 0.318509 0.652351
Si Si3 0.936928 0.727874 0.754903
Si Si4 0.706814 0.149886 0.835875
Si Si5 0.929128 0.464564 0.828224
Si Si6 0.455041 0.910081 0.328326
Si Si7 0.153150 0.695083 0.163189
O O1 0.813410 0.794294 0.132989
O O2 0.941478 0.882955 0.000000
O O3 0.832284 0.916142 0.000000
O O4 0.255895 0.362797 0.500000
O O5 0.141001 0.282002 0.672307
O O6 0.254493 0.254214 0.636534
O O7 0.272604 0.371992 0.786699
O O8 0.865444 0.730887 0.688971
O O9 0.909830 0.645571 0.820681
O O10 0.768914 0.231087 0.765481
O O11 0.622475 0.116841 0.772875
O O12 0.701262 0.164785 0.000000
O O13 0.008443 0.504222 0.746583
O O14 0.942324 0.471162 0.000000
O O15 0.458875 0.917750 0.500000
O O16 0.491393 0.861212 0.273519
O O17 0.240832 0.759169 0.174143
O O18 0.131945 0.666034 0.000000
#
# Coordination Sequence:
#
# PCOD8326929 Si02
#       7
#     6  12  12  12   6   6  12
#     4  10  19  30  46  71 100 136 182 238 294 345
#     4  10  21  36  54  79 112 146 184 236 290 345
#     4  10  19  31  50  74 105 145 185 234 284 343
#     4   9  17  32  51  78 113 143 181 231 291 344
#     4  10  20  34  58  86 112 156 198 244 296 354
#     4  12  24  38  60  88 124 158 192 242 294 358
#     4  10  22  40  62  87 114 150 195 241 287 341
#
# _framework density 19.501483
#
# number of rings (size 3 to 8) (size 9 to 14) (size 15 to 20)
#    0.000    2.000    0.909    3.091    1.273    2.909 
#    1.091    0.000    0.000    2.000    0.000    0.000 
#    0.000    0.000    0.000    0.000    0.000    0.000 
#
# Total GULP energy -817701.943342 kJ/mol
# GULP energy per Si atom -12389.423384 kJ/mol
# Density = 1.945710 g / cm^3
# Si number density = 19.501483 Si / 1000 Ang^3
#
#
#
# Elastic Constant Matrix: (Units=GPa)
#
#
# Indices 1 2 3 4 5 6 
#
# 1 127.6811 68.5303 37.2545 0.0000 -0.0006 0.0000
# 2 68.5303 127.6811 37.2545 0.0000 0.0006 0.0000
# 3 37.2545 37.2545 92.1960 0.0000 0.0000 0.0000
# 4 0.0000 0.0000 0.0000 25.2507 0.0000 0.0006
# 5 -0.0006 0.0006 0.0000 0.0000 25.2507 0.0000
# 6 0.0000 0.0000 0.0000 0.0006 0.0000 29.5754
#
#
#
# Elastic Compliance Matrix: (Units=1/GPa)
#
#
# Indices 1 2 3 4 5 6 
#
# 1 0.011463 -0.005443 -0.002433 0.000000 0.000000 0.000000
# 2 -0.005443 0.011463 -0.002433 0.000000 0.000000 0.000000
# 3 -0.002433 -0.002433 0.012812 0.000000 0.000000 0.000000
# 4 0.000000 0.000000 0.000000 0.039603 0.000000 -0.000001
# 5 0.000000 0.000000 0.000000 0.000000 0.039603 0.000000
# 6 0.000000 0.000000 0.000000 -0.000001 0.000000 0.033812
#
#
# Mechanical properties :
#
#
# Convention : Reuss Voigt Hill
#
# Bulk Modulus (GPa) = 66.12726 70.40406 68.26566
# Shear Modulus (GPa) = 28.66751 29.64996 29.15873
#
# Velocity S-wave (km/s) = 3.83824 3.90345 3.87098
# Velocity P-wave (km/s) = 7.32292 7.51640 7.42029
#
# Compressibility (1/GPa) = 0.01512236
#
# Stress axis : x y z
#
# Youngs Moduli (GPa) = 87.23615 87.23615 78.04909
#
# Poissons Ratio (x) = 0.47481 0.18987
# Poissons Ratio (y) = 0.47481 0.18987
# Poissons Ratio (z) = 0.21222 0.21222
#
# Static dielectric constant tensor:
#      x y z
#    x 3.723240 0.000000 0.000000 
#    y 0.000000 3.723240 0.000000 
#    z 0.000000 0.000000 3.360110 
# 
# 
# High freq. dielectric constant tensor:
#      x y z
#    x 1.762800 0.000000 0.000000 
#    y 0.000000 1.762800 0.000000 
#    z 0.000000 0.000000 1.739350 
# 
# From -- ./inp_files/799.got.cif
#   From: 2010.03.12/outbox.cif.g09.slc.cpg/sg187_1_cif.got.tgz:799.got - 2010.04.01 11:58:23.
