data_PCOD8326294
_publ_section_title
;
Structure prediction by ZEFSAII (Michael W. Deem and Ramdas Pophale) SiO2 
 PCOD8326294
Probable space group: P 64 2 2
;
_chemical_formula_sum "Si O2"
_cell_formula_units_Z 60
_cell_length_a 28.152316
_cell_length_b 28.152316
_cell_length_c 5.037114
_cell_angle_alpha 90.000000
_cell_angle_beta 90.000000
_cell_angle_gamma 120.000000
_cell_volume 3457.328681
_symmetry_space_group_name_H-M "P 64 2 2"
_symmetry_group_IT_number 181
_symmetry_cell_setting 'hexagonal'
loop_
_space_group_symop_operation_xyz
x,y,z
x-y,x,2/3+z
-y,x-y,1/3+z
-x,-y,z
-x+y,-x,2/3+z
y,-x+y,1/3+z
x-y,-y,-z
-x,-x+y,2/3-z
y,x,1/3-z
-y,-x,1/3-z
-x+y,y,-z
x,x-y,2/3-z
loop_
_atom_site_type_symbol
_atom_site_label
_atom_site_fract_x
_atom_site_fract_y
_atom_site_fract_z
Si Si1 0.751749 0.715184 0.405205
Si Si2 0.743054 0.143296 0.187910
Si Si3 0.424669 0.680838 0.576657
Si Si4 0.462113 0.286188 0.359199
Si Si5 0.964385 0.142397 0.077675
O O1 0.730200 0.730200 0.666667
O O2 0.749632 0.657998 0.421952
O O3 0.815285 0.759054 0.331867
O O4 0.712964 0.712964 0.166667
O O5 0.802509 0.197492 0.166667
O O6 0.702067 0.147030 0.405610
O O7 0.710976 0.133147 0.911296
O O8 0.378854 0.621147 0.666667
O O9 0.400654 0.700327 0.333334
O O10 0.474937 0.675622 0.453190
O O11 0.443703 0.721852 0.833334
O O12 0.449969 0.224985 0.333334
O O13 0.916277 0.083724 0.166667
O O14 0.000000 0.167348 0.333334
O O15 0.000000 0.138237 0.833334
#
# Coordination Sequence:
#
# PCOD8326294 Si02
#       5
#    12  12  12  12  12
#     4  10  20  32  48  73 100 124 156 196 236 290
#     4  10  18  31  49  67  94 130 159 188 235 287
#     4  11  20  31  46  68  99 134 171 204 238 275
#     4   9  18  30  45  66  92 126 164 198 230 277
#     4  10  20  34  52  73  98 127 160 197 237 281
#
# _framework density 17.354441000000001
#
# number of rings (size 3 to 8) (size 9 to 14) (size 15 to 20)
#    0.000    2.000    0.000    6.600    0.000    0.000 
#    0.000    6.000    0.000    3.000    0.000    0.000 
#    0.000   12.000    0.000    0.000    0.000    0.000 
#
# Total GULP energy -743454.108873 kJ/mol
# GULP energy per Si atom -12390.901815 kJ/mol
# Density = 1.731494 g / cm^3
# Si number density = 17.354441 Si / 1000 Ang^3
#
#
#
# Elastic Constant Matrix: (Units=GPa)
#
#
# Indices 1 2 3 4 5 6 
#
# 1 90.1842 42.7314 38.9851 0.0000 0.0000 0.0000
# 2 42.7314 90.1842 38.9851 0.0000 0.0000 0.0000
# 3 38.9851 38.9851 119.9185 0.0000 0.0000 0.0000
# 4 0.0000 0.0000 0.0000 33.7629 0.0000 0.0000
# 5 0.0000 0.0000 0.0000 0.0000 33.7629 0.0000
# 6 0.0000 0.0000 0.0000 0.0000 0.0000 23.7264
#
#
#
# Elastic Compliance Matrix: (Units=1/GPa)
#
#
# Indices 1 2 3 4 5 6 
#
# 1 0.015185 -0.005889 -0.003022 0.000000 0.000000 0.000000
# 2 -0.005889 0.015185 -0.003022 0.000000 0.000000 0.000000
# 3 -0.003022 -0.003022 0.010304 0.000000 0.000000 0.000000
# 4 0.000000 0.000000 0.000000 0.029618 0.000000 0.000000
# 5 0.000000 0.000000 0.000000 0.000000 0.029618 0.000000
# 6 0.000000 0.000000 0.000000 0.000000 0.000000 0.042147
#
#
# Mechanical properties :
#
#
# Convention : Reuss Voigt Hill
#
# Bulk Modulus (GPa) = 59.49558 60.18781 59.84169
# Shear Modulus (GPa) = 29.14998 30.22278 29.68638
#
# Velocity S-wave (km/s) = 4.10284 4.17766 4.14042
# Velocity P-wave (km/s) = 7.53667 7.61756 7.57722
#
# Compressibility (1/GPa) = 0.01680797
#
# Stress axis : x y z
#
# Youngs Moduli (GPa) = 65.85437 65.85437 97.04924
#
# Poissons Ratio (x) = 0.38779 0.29331
# Poissons Ratio (y) = 0.38779 0.29331
# Poissons Ratio (z) = 0.19903 0.19903
#
# Static dielectric constant tensor:
#      x y z
#    x 2.980090 0.000000 0.000000 
#    y 0.000000 2.980090 0.000000 
#    z 0.000000 0.000000 3.845420 
# 
# 
# High freq. dielectric constant tensor:
#      x y z
#    x 1.639030 0.000000 0.000000 
#    y 0.000000 1.639030 0.000000 
#    z 0.000000 0.000000 1.705100 
# 
# From -- ./inp_files/1466.got.cif
#   From: 2010.03.12/outbox.cif.g09.slc.cpg/sg181_1_cif.got.tgz:1466.got - 2010.04.01 11:42:41.
