data_PCOD8326590
_publ_section_title
;
Structure prediction by ZEFSAII (Michael W. Deem and Ramdas Pophale) SiO2 
 PCOD8326590
Probable space group: P 6 C C
;
_chemical_formula_sum "Si O2"
_cell_formula_units_Z 68
_cell_length_a 12.683063
_cell_length_b 12.683063
_cell_length_c 24.120234
_cell_angle_alpha 90.000000
_cell_angle_beta 90.000000
_cell_angle_gamma 120.000000
_cell_volume 3360.163793
_symmetry_space_group_name_H-M "P 6 C C"
_symmetry_group_IT_number 184
_symmetry_cell_setting 'hexagonal'
loop_
_space_group_symop_operation_xyz
x,y,z
x-y,x,z
-y,x-y,z
-x,-y,z
-x+y,-x,z
y,-x+y,z
-x+y,y,1/2+z
x,x-y,1/2+z
-y,-x,1/2+z
y,x,1/2+z
x-y,-y,1/2+z
-x,-x+y,1/2+z
loop_
_atom_site_type_symbol
_atom_site_label
_atom_site_fract_x
_atom_site_fract_y
_atom_site_fract_z
Si Si1 0.558127 0.639950 0.920710
Si Si2 0.766578 0.018114 0.008902
Si Si3 0.360049 0.441874 0.226582
Si Si4 0.748459 0.981877 0.138390
Si Si5 0.778249 0.737024 0.323646
Si Si6 0.666667 0.333334 0.891013
Si Si7 0.333334 0.666667 0.756284
O O1 0.500000 0.500000 0.905443
O O2 0.663800 0.714384 0.878087
O O3 0.457350 0.680975 0.915723
O O4 0.622588 0.664977 0.980856
O O5 0.764999 0.895907 0.990106
O O6 0.736135 0.999995 0.073646
O O7 0.500000 0.500000 0.241846
O O8 0.335016 0.377418 0.166435
O O9 0.285617 0.336195 0.269204
O O10 0.319022 0.542649 0.231575
O O11 0.764999 0.869085 0.157185
O O12 0.773746 0.858020 0.323646
O O13 0.666668 0.333334 0.823649
#
# Coordination Sequence:
#
# PCOD8326590 Si02
#       7
#    12  12  12  12  12   4   4
#     4  12  25  41  63  92 127 171 219 269 323 393
#     4  10  21  40  66  95 127 166 214 269 328 390
#     4  12  25  41  63  92 127 171 219 269 323 393
#     4  10  21  40  66  95 127 166 214 269 328 390
#     4  12  24  40  62  90 123 158 202 260 324 392
#     4  12  24  42  66  94 134 181 225 271 338 406
#     4  12  24  42  66  94 134 181 225 271 338 406
#
# _framework density 20.237109
#
# number of rings (size 3 to 8) (size 9 to 14) (size 15 to 20)
#    0.000    0.706    1.765    7.412    0.000    2.118 
#    0.000    3.529    0.000    4.235    0.000    0.000 
#    0.000    0.000    0.000    0.000    0.000    0.000 
#
# Total GULP energy -843306.349351 kJ/mol
# GULP energy per Si atom -12401.563961 kJ/mol
# Density = 2.019105 g / cm^3
# Si number density = 20.237109 Si / 1000 Ang^3
#
#
#
# Elastic Constant Matrix: (Units=GPa)
#
#
# Indices 1 2 3 4 5 6 
#
# 1 159.1272 79.3124 58.4466 0.0000 0.0000 0.0002
# 2 79.3124 159.1276 58.4466 0.0000 0.0000 0.0000
# 3 58.4466 58.4466 80.1511 0.0000 0.0000 0.0000
# 4 0.0000 0.0000 0.0000 48.0801 0.0000 0.0000
# 5 0.0000 0.0000 0.0000 0.0000 48.0801 0.0000
# 6 0.0002 0.0000 0.0000 0.0000 0.0000 39.9073
#
#
#
# Elastic Compliance Matrix: (Units=1/GPa)
#
#
# Indices 1 2 3 4 5 6 
#
# 1 0.009528 -0.003001 -0.004760 0.000000 0.000000 0.000000
# 2 -0.003001 0.009528 -0.004760 0.000000 0.000000 0.000000
# 3 -0.004760 -0.004760 0.019418 0.000000 0.000000 0.000000
# 4 0.000000 0.000000 0.000000 0.020799 0.000000 0.000000
# 5 0.000000 0.000000 0.000000 0.000000 0.020799 0.000000
# 6 0.000000 0.000000 0.000000 0.000000 0.000000 0.025058
#
#
# Mechanical properties :
#
#
# Convention : Reuss Voigt Hill
#
# Bulk Modulus (GPa) = 74.43947 87.86858 81.15402
# Shear Modulus (GPa) = 37.13371 40.69353 38.91362
#
# Velocity S-wave (km/s) = 4.28826 4.48910 4.38983
# Velocity P-wave (km/s) = 7.83469 8.38947 8.11682
#
# Compressibility (1/GPa) = 0.01343373
#
# Stress axis : x y z
#
# Youngs Moduli (GPa) = 104.95168 104.95199 51.49813
#
# Poissons Ratio (x) = 0.31494 0.24512
# Poissons Ratio (y) = 0.31494 0.24512
# Poissons Ratio (z) = 0.49955 0.49955
#
# Static dielectric constant tensor:
#      x y z
#    x 3.867310 0.000000 0.000000 
#    y 0.000000 3.867310 0.000000 
#    z 0.000000 0.000000 3.859720 
# 
# 
# High freq. dielectric constant tensor:
#      x y z
#    x 1.805960 0.000000 0.000000 
#    y 0.000000 1.805960 0.000000 
#    z 0.000000 0.000000 1.791770 
# 
# From -- ./inp_files/1401.got.cif
#   From: 2010.03.12/outbox.cif.g09.slc.cpg/sg184_cif.got.tgz:1401.got - 2010.04.01 11:54:36.
