data_PCOD8326331
_publ_section_title
;
Structure prediction by ZEFSAII (Michael W. Deem and Ramdas Pophale) SiO2 
 PCOD8326331
Probable space group: P 64 2 2
;
_chemical_formula_sum "Si O2"
_cell_formula_units_Z 96
_cell_length_a 24.431985
_cell_length_b 24.431985
_cell_length_c 11.270363
_cell_angle_alpha 90.000000
_cell_angle_beta 90.000000
_cell_angle_gamma 120.000000
_cell_volume 5826.208762
_symmetry_space_group_name_H-M "P 64 2 2"
_symmetry_group_IT_number 181
_symmetry_cell_setting 'hexagonal'
loop_
_space_group_symop_operation_xyz
x,y,z
x-y,x,2/3+z
-y,x-y,1/3+z
-x,-y,z
-x+y,-x,2/3+z
y,-x+y,1/3+z
x-y,-y,-z
-x,-x+y,2/3-z
y,x,1/3-z
-y,-x,1/3-z
-x+y,y,-z
x,x-y,2/3-z
loop_
_atom_site_type_symbol
_atom_site_label
_atom_site_fract_x
_atom_site_fract_y
_atom_site_fract_z
Si Si1 0.315174 0.933026 0.447535
Si Si2 0.765640 0.482455 0.653380
Si Si3 0.189446 0.719491 0.762152
Si Si4 0.053881 0.569999 0.040854
Si Si5 0.249084 0.387134 0.440892
Si Si6 0.608785 0.185168 0.700593
Si Si7 0.418385 0.062425 0.934722
Si Si8 0.355601 0.826514 0.954056
O O1 0.299221 0.884190 0.557208
O O2 0.379858 0.947088 0.383303
O O3 0.256481 0.898580 0.351725
O O4 0.325693 0.000000 0.500000
O O5 0.776533 0.518040 0.778785
O O6 0.817798 0.536014 0.567570
O O7 0.766231 0.417096 0.648174
O O8 0.693584 0.463846 0.624716
O O9 0.224171 0.775830 0.666667
O O10 0.194794 0.657607 0.735554
O O11 0.000000 0.500000 0.009139
O O12 0.116908 0.567835 0.024061
O O13 0.048578 0.587970 0.175939
O O14 0.178908 0.357815 0.500000
O O15 0.290058 0.374674 0.535623
O O16 0.649708 0.196801 0.819416
O O17 0.459540 0.113288 0.035529
O O18 0.369305 0.000000 0.000000
O O19 0.425192 0.850383 0.000000
#
# Coordination Sequence:
#
# PCOD8326331 Si02
#       8
#    12  12  12  12  12  12  12  12
#     4  10  22  38  55  81 101 129 168 214 261 322
#     4  11  22  39  52  65  95 126 170 210 261 331
#     4  11  22  38  54  72  95 128 166 214 265 324
#     4  11  21  34  51  73 100 133 156 202 275 331
#     4  10  19  39  59  71  99 139 163 194 261 328
#     4  12  22  35  52  71  93 126 169 210 263 327
#     4  11  22  34  52  79 102 122 160 212 255 314
#     4  12  23  35  51  70  95 129 162 214 266 326
#
# _framework density 16.477267999999999
#
# number of rings (size 3 to 8) (size 9 to 14) (size 15 to 20)
#    0.000    1.000    7.500    1.875    0.000    2.750 
#    2.250    0.000    0.000    0.000    0.000    0.000 
#    0.000    0.000    0.000    0.000    0.000    0.000 
#
# Total GULP energy -1189849.103003 kJ/mol
# GULP energy per Si atom -12394.261490 kJ/mol
# Density = 1.643976 g / cm^3
# Si number density = 16.477268 Si / 1000 Ang^3
#
#
#
# Elastic Constant Matrix: (Units=GPa)
#
#
# Indices 1 2 3 4 5 6 
#
# 1 76.9811 32.3960 29.1287 0.0000 0.0000 0.0000
# 2 32.3960 76.9811 29.1287 0.0000 0.0000 0.0000
# 3 29.1287 29.1287 69.0885 0.0000 0.0000 0.0000
# 4 0.0000 0.0000 0.0000 20.8323 0.0000 0.0000
# 5 0.0000 0.0000 0.0000 0.0000 20.8323 0.0000
# 6 0.0000 0.0000 0.0000 0.0000 0.0000 22.2925
#
#
#
# Elastic Compliance Matrix: (Units=1/GPa)
#
#
# Indices 1 2 3 4 5 6 
#
# 1 0.017110 -0.005319 -0.004971 0.000000 0.000000 0.000000
# 2 -0.005319 0.017110 -0.004971 0.000000 0.000000 0.000000
# 3 -0.004971 -0.004971 0.018666 0.000000 0.000000 0.000000
# 4 0.000000 0.000000 0.000000 0.048002 0.000000 0.000000
# 5 0.000000 0.000000 0.000000 0.000000 0.048002 0.000000
# 6 0.000000 0.000000 0.000000 0.000000 0.000000 0.044858
#
#
# Mechanical properties :
#
#
# Convention : Reuss Voigt Hill
#
# Bulk Modulus (GPa) = 44.71743 44.92864 44.82304
# Shear Modulus (GPa) = 21.57732 21.61792 21.59762
#
# Velocity S-wave (km/s) = 3.62266 3.62606 3.62436
# Velocity P-wave (km/s) = 6.68550 6.69756 6.69154
#
# Compressibility (1/GPa) = 0.02236264
#
# Stress axis : x y z
#
# Youngs Moduli (GPa) = 58.44633 58.44633 53.57369
#
# Poissons Ratio (x) = 0.31090 0.26631
# Poissons Ratio (y) = 0.31090 0.26631
# Poissons Ratio (z) = 0.29054 0.29054
#
# Static dielectric constant tensor:
#      x y z
#    x 3.142500 0.000000 0.000000 
#    y 0.000000 3.142500 0.000000 
#    z 0.000000 0.000000 3.565380 
# 
# 
# High freq. dielectric constant tensor:
#      x y z
#    x 1.599680 0.000000 0.000000 
#    y 0.000000 1.599680 0.000000 
#    z 0.000000 0.000000 1.653590 
# 
# From -- ./inp_files/5216.got.cif
#   From: 2010.03.12/outbox.cif.g09.slc.cpg/sg181_3_cif.got.tgz:5216.got - 2010.04.01 11:42:41.
