data_PCOD8326803
_publ_section_title
;
Structure prediction by ZEFSAII (Michael W. Deem and Ramdas Pophale) SiO2 
 PCOD8326803
Probable space group: P 63 M C
;
_chemical_formula_sum "Si O2"
_cell_formula_units_Z 84
_cell_length_a 17.724269
_cell_length_b 17.724269
_cell_length_c 15.493651
_cell_angle_alpha 90.000000
_cell_angle_beta 90.000000
_cell_angle_gamma 120.000000
_cell_volume 4215.227958
_symmetry_space_group_name_H-M "P 63 M C"
_symmetry_group_IT_number 186
_symmetry_cell_setting 'hexagonal'
loop_
_space_group_symop_operation_xyz
x,y,z
x-y,x,1/2+z
-y,x-y,z
-x,-y,1/2+z
-x+y,-x,z
y,-x+y,1/2+z
-x+y,y,z
x,x-y,z
-y,-x,z
y,x,1/2+z
x-y,-y,1/2+z
-x,-x+y,1/2+z
loop_
_atom_site_type_symbol
_atom_site_label
_atom_site_fract_x
_atom_site_fract_y
_atom_site_fract_z
Si Si1 0.502562 0.333765 0.840960
Si Si2 0.666256 0.160891 0.588689
Si Si3 0.002099 0.676212 0.335673
Si Si4 0.499005 0.832198 0.542356
Si Si5 0.493113 0.333705 0.389585
Si Si6 0.306956 0.243295 0.017820
Si Si7 0.065876 0.758757 0.163206
O O1 0.480065 0.240033 0.800392
O O2 0.590607 0.409394 0.797131
O O3 0.426807 0.354670 0.823443
O O4 0.517991 0.332041 0.941680
O O5 0.573286 0.146572 0.619825
O O6 0.737543 0.262458 0.598115
O O7 0.661106 0.132419 0.489317
O O8 0.691795 0.101255 0.645406
O O9 0.021593 0.733071 0.422569
O O10 0.009780 0.733190 0.251518
O O11 0.906929 0.591501 0.335503
O O12 0.427571 0.855141 0.581589
O O13 0.487294 0.743647 0.586214
O O14 0.597192 0.911466 0.554353
O O15 0.513511 0.256756 0.371798
O O16 0.576613 0.423388 0.359390
O O17 0.296596 0.148298 0.012955
O O18 0.239924 0.246476 0.084859
O O19 0.143892 0.856109 0.172511
#
# Coordination Sequence:
#
# PCOD8326803 Si02
#       7
#    12  12  12  12  12  12  12
#     4   9  16  27  44  70 105 146 189 237 292 350
#     4   9  18  33  54  82 117 159 204 250 297 351
#     4  11  21  36  59  85 116 153 201 251 298 350
#     4   8  14  25  45  72 105 145 189 234 282 338
#     4  10  20  36  59  88 124 166 210 250 288 339
#     4  10  21  38  58  83 114 151 193 243 304 366
#     4  11  23  39  59  86 118 152 196 251 310 368
#
# _framework density 19.927748000000001
#
# number of rings (size 3 to 8) (size 9 to 14) (size 15 to 20)
#    0.000    2.286    1.429    3.143    0.000    5.143 
#    0.000    0.000    0.000    2.000    0.000    2.000 
#    0.000    0.000    0.000    0.000    0.000    0.000 
#
# Total GULP energy -1041324.268209 kJ/mol
# GULP energy per Si atom -12396.717479 kJ/mol
# Density = 1.988239 g / cm^3
# Si number density = 19.927748 Si / 1000 Ang^3
#
#
#
# Elastic Constant Matrix: (Units=GPa)
#
#
# Indices 1 2 3 4 5 6 
#
# 1 77.6810 27.1423 42.4260 0.0000 0.0000 0.0000
# 2 27.1423 77.6810 42.4260 0.0000 0.0000 0.0000
# 3 42.4260 42.4260 100.9920 0.0000 0.0000 0.0000
# 4 0.0000 0.0000 0.0000 14.1747 0.0000 0.0000
# 5 0.0000 0.0000 0.0000 0.0000 14.1747 0.0000
# 6 0.0000 0.0000 0.0000 0.0000 0.0000 25.2694
#
#
#
# Elastic Compliance Matrix: (Units=1/GPa)
#
#
# Indices 1 2 3 4 5 6 
#
# 1 0.017121 -0.002666 -0.006073 0.000000 0.000000 0.000000
# 2 -0.002666 0.017121 -0.006073 0.000000 0.000000 0.000000
# 3 -0.006073 -0.006073 0.015004 0.000000 0.000000 0.000000
# 4 0.000000 0.000000 0.000000 0.070548 0.000000 0.000000
# 5 0.000000 0.000000 0.000000 0.000000 0.070548 0.000000
# 6 0.000000 0.000000 0.000000 0.000000 0.000000 0.039574
#
#
# Mechanical properties :
#
#
# Convention : Reuss Voigt Hill
#
# Bulk Modulus (GPa) = 50.95707 53.37138 52.16423
# Shear Modulus (GPa) = 18.79134 20.34773 19.56954
#
# Velocity S-wave (km/s) = 3.07412 3.19889 3.13713
# Velocity P-wave (km/s) = 6.18277 6.36274 6.27340
#
# Compressibility (1/GPa) = 0.01962436
#
# Stress axis : x y z
#
# Youngs Moduli (GPa) = 58.40725 58.40725 66.64918
#
# Poissons Ratio (x) = 0.15569 0.40474
# Poissons Ratio (y) = 0.15569 0.40474
# Poissons Ratio (z) = 0.35469 0.35469
#
# Static dielectric constant tensor:
#      x y z
#    x 3.512060 0.000000 0.000000 
#    y 0.000000 3.512060 0.000000 
#    z 0.000000 0.000000 3.544610 
# 
# 
# High freq. dielectric constant tensor:
#      x y z
#    x 1.760420 0.000000 0.000000 
#    y 0.000000 1.760420 0.000000 
#    z 0.000000 0.000000 1.763680 
# 
# From -- ./inp_files/2560.got.cif
#   From: 2010.03.12/outbox.cif.g09.slc.cpg/sg186_2_cif.got.tgz:2560.got - 2010.04.01 11:56:34.
