data_PCOD8326517
_publ_section_title
;
Structure prediction by ZEFSAII (Michael W. Deem and Ramdas Pophale) SiO2 
 PCOD8326517
Probable space group: P 6 M M
;
_chemical_formula_sum "Si O2"
_cell_formula_units_Z 60
_cell_length_a 18.254627
_cell_length_b 18.254627
_cell_length_c 12.898757
_cell_angle_alpha 90.000000
_cell_angle_beta 90.000000
_cell_angle_gamma 120.000000
_cell_volume 3722.411829
_symmetry_space_group_name_H-M "P 6 M M"
_symmetry_group_IT_number 183
_symmetry_cell_setting 'hexagonal'
loop_
_space_group_symop_operation_xyz
x,y,z
x-y,x,z
-y,x-y,z
-x,-y,z
-x+y,-x,z
y,-x+y,z
-x+y,y,z
x,x-y,z
-y,-x,z
y,x,z
x-y,-y,z
-x,-x+y,z
loop_
_atom_site_type_symbol
_atom_site_label
_atom_site_fract_x
_atom_site_fract_y
_atom_site_fract_z
Si Si1 0.501946 0.668906 0.141700
Si Si2 0.265358 0.363489 0.312720
Si Si3 0.831770 0.331093 0.714530
Si Si4 0.368201 0.467520 0.499972
Si Si5 0.906195 0.539843 0.925017
O O1 0.470914 0.735457 0.167983
O O2 0.425962 0.574039 0.161990
O O3 0.581362 0.686190 0.212227
O O4 0.533038 0.684045 0.022764
O O5 0.163484 0.326967 0.304794
O O6 0.287283 0.287283 0.322518
O O7 0.299109 0.427539 0.409781
O O8 0.852691 0.426346 0.715802
O O9 0.731693 0.268308 0.714702
O O10 0.871659 0.318252 0.609358
O O11 0.871073 0.313793 0.817972
O O12 0.430796 0.569205 0.483178
O O13 0.424813 0.424813 0.500023
O O14 0.906848 0.453424 0.913501
O O15 0.000000 0.617498 0.943946
#
# Coordination Sequence:
#
# PCOD8326517 Si02
#       5
#    12  12  12  12  12
#     4  10  19  30  45  66  92 120 149 181 217 258
#     4  10  20  33  49  68  89 114 145 181 221 264
#     4  10  18  27  39  56  80 109 142 180 220 259
#     4   9  17  29  45  64  86 113 144 176 211 256
#     4   9  17  28  41  56  76 107 147 187 223 257
#
# _framework density 16.118582
#
# number of rings (size 3 to 8) (size 9 to 14) (size 15 to 20)
#    0.000    2.400    0.000    3.400    0.000    4.400 
#    0.000    2.000    0.000    6.600    0.000    0.000 
#    0.000    0.000    0.000    0.000    0.000    0.000 
#
# Total GULP energy -743649.252011 kJ/mol
# GULP energy per Si atom -12394.154200 kJ/mol
# Density = 1.608189 g / cm^3
# Si number density = 16.118582 Si / 1000 Ang^3
#
#
#
# Elastic Constant Matrix: (Units=GPa)
#
#
# Indices 1 2 3 4 5 6 
#
# 1 54.3151 29.9318 25.3413 0.0000 0.0000 0.0000
# 2 29.9318 54.3151 25.3413 0.0000 0.0000 0.0000
# 3 25.3413 25.3413 110.6152 0.0000 0.0000 0.0000
# 4 0.0000 0.0000 0.0000 12.4325 0.0000 0.0000
# 5 0.0000 0.0000 0.0000 0.0000 12.4325 0.0000
# 6 0.0000 0.0000 0.0000 0.0000 0.0000 12.1917
#
#
#
# Elastic Compliance Matrix: (Units=1/GPa)
#
#
# Indices 1 2 3 4 5 6 
#
# 1 0.027389 -0.013622 -0.003154 0.000000 0.000000 0.000000
# 2 -0.013622 0.027389 -0.003154 0.000000 0.000000 0.000000
# 3 -0.003154 -0.003154 0.010485 0.000000 0.000000 0.000000
# 4 0.000000 0.000000 0.000000 0.080434 0.000000 0.000000
# 5 0.000000 0.000000 0.000000 0.000000 0.080434 0.000000
# 6 0.000000 0.000000 0.000000 0.000000 0.000000 0.082023
#
#
# Mechanical properties :
#
#
# Convention : Reuss Voigt Hill
#
# Bulk Modulus (GPa) = 39.36381 42.27494 40.81938
# Shear Modulus (GPa) = 14.02584 16.65340 15.33962
#
# Velocity S-wave (km/s) = 2.95306 3.21780 3.08827
# Velocity P-wave (km/s) = 6.00848 6.33167 6.17219
#
# Compressibility (1/GPa) = 0.02540404
#
# Stress axis : x y z
#
# Youngs Moduli (GPa) = 36.51039 36.51039 95.36999
#
# Poissons Ratio (x) = 0.49735 0.30080
# Poissons Ratio (y) = 0.49735 0.30080
# Poissons Ratio (z) = 0.11515 0.11515
#
# Static dielectric constant tensor:
#      x y z
#    x 2.828680 0.000000 0.000000 
#    y 0.000000 2.828680 0.000000 
#    z 0.000000 0.000000 3.457520 
# 
# 
# High freq. dielectric constant tensor:
#      x y z
#    x 1.586350 0.000000 0.000000 
#    y 0.000000 1.586350 0.000000 
#    z 0.000000 0.000000 1.645150 
# 
# From -- ./inp_files/1588.got.cif
#   From: 2010.03.12/outbox.cif.g09.slc.cpg/sg183_1_cif.got.tgz:1588.got - 2010.04.01 11:53:02.
