data_PCOD8326847
_publ_section_title
;
Structure prediction by ZEFSAII (Michael W. Deem and Ramdas Pophale) SiO2 
 PCOD8326847
Probable space group: P -6 M 2
;
_chemical_formula_sum "Si O2"
_cell_formula_units_Z 96
_cell_length_a 17.992029
_cell_length_b 17.992029
_cell_length_c 23.910673
_cell_angle_alpha 90.000000
_cell_angle_beta 90.000000
_cell_angle_gamma 120.000000
_cell_volume 6703.208324
_symmetry_space_group_name_H-M "P -6 M 2"
_symmetry_group_IT_number 187
_symmetry_cell_setting 'hexagonal'
loop_
_space_group_symop_operation_xyz
x,y,z
-x+y,-x,-z
-y,x-y,z
x,y,-z
-x+y,-x,z
-y,x-y,-z
-y,-x,-z
-x+y,y,-z
x,x-y,-z
-x+y,y,z
x,x-y,z
-y,-x,z
loop_
_atom_site_type_symbol
_atom_site_label
_atom_site_fract_x
_atom_site_fract_y
_atom_site_fract_z
Si Si1 0.196898 0.966347 0.061984
Si Si2 0.724487 0.104999 0.062348
Si Si3 0.666526 0.159039 0.834056
Si Si4 0.828317 0.828721 0.435316
Si Si5 0.000010 0.166173 0.180399
Si Si6 0.838413 0.333703 0.435300
Si Si7 0.743811 0.079754 0.240655
Si Si8 0.333255 0.255124 0.633471
O O1 0.139143 0.860858 0.065603
O O2 0.166687 0.003526 0.112719
O O3 0.299769 0.007885 0.069108
O O4 0.181254 0.994800 0.000000
O O5 0.825372 0.174629 0.074715
O O6 0.665066 0.120914 0.104668
O O7 0.699155 0.118087 0.000000
O O8 0.578932 0.157863 0.823104
O O9 0.743904 0.256097 0.828486
O O10 0.673326 0.096860 0.788417
O O11 0.804916 0.804889 0.500000
O O12 0.825035 0.912518 0.417832
O O13 0.757526 0.750756 0.398503
O O14 0.923448 0.846896 0.422441
O O15 0.089639 0.179277 0.203216
O O16 0.989841 0.244278 0.205008
O O17 0.924542 0.075459 0.202817
O O18 0.861755 0.333157 0.500000
O O19 0.841547 0.420774 0.417894
O O20 0.743226 0.256774 0.422372
O O21 0.909181 0.326636 0.398370
O O22 0.833080 0.166921 0.240892
O O23 0.713670 0.046277 0.303506
O O24 0.333671 0.166836 0.632372
#
# Coordination Sequence:
#
# PCOD8326847 Si02
#       8
#    12  12  12  12  12  12  12  12
#     4   9  16  25  40  61  82 107 138 167 198 241
#     4   9  16  27  43  60  81 109 135 165 212 258
#     4  10  19  31  45  60  77 101 136 178 219 256
#     4   9  16  26  41  61  84 110 141 176 209 237
#     4  10  18  28  41  58  80 107 139 172 203 237
#     4   9  16  26  41  61  83 105 130 162 201 244
#     4   9  18  31  42  54  76 106 137 169 207 245
#     4   9  17  28  41  56  77 106 138 169 201 240
#
# _framework density 14.321501
#
# number of rings (size 3 to 8) (size 9 to 14) (size 15 to 20)
#    0.000    2.750    1.250    1.250    0.000    4.500 
#    0.000    0.000    0.000    4.750    0.000    1.750 
#    0.000    0.000    0.000    3.375    0.000   20.250 
#
# Total GULP energy -1189659.090508 kJ/mol
# GULP energy per Si atom -12392.282193 kJ/mol
# Density = 1.428890 g / cm^3
# Si number density = 14.321501 Si / 1000 Ang^3
#
#
#
# Elastic Constant Matrix: (Units=GPa)
#
#
# Indices 1 2 3 4 5 6 
#
# 1 83.5843 41.8417 45.6821 0.0000 0.0000 0.0000
# 2 41.8417 83.5843 45.6821 0.0000 0.0000 0.0000
# 3 45.6821 45.6821 97.3988 0.0000 0.0000 0.0000
# 4 0.0000 0.0000 0.0000 14.4755 0.0000 0.0000
# 5 0.0000 0.0000 0.0000 0.0000 14.4755 0.0000
# 6 0.0000 0.0000 0.0000 0.0000 0.0000 20.8713
#
#
#
# Elastic Compliance Matrix: (Units=1/GPa)
#
#
# Indices 1 2 3 4 5 6 
#
# 1 0.018033 -0.005923 -0.005680 0.000000 0.000000 0.000000
# 2 -0.005923 0.018033 -0.005680 0.000000 0.000000 0.000000
# 3 -0.005680 -0.005680 0.015595 0.000000 0.000000 0.000000
# 4 0.000000 0.000000 0.000000 0.069082 0.000000 0.000000
# 5 0.000000 0.000000 0.000000 0.000000 0.069082 0.000000
# 6 0.000000 0.000000 0.000000 0.000000 0.000000 0.047913
#
#
# Mechanical properties :
#
#
# Convention : Reuss Voigt Hill
#
# Bulk Modulus (GPa) = 58.49390 58.99767 58.74578
# Shear Modulus (GPa) = 17.98537 18.72189 18.35363
#
# Velocity S-wave (km/s) = 3.54761 3.61952 3.58375
# Velocity P-wave (km/s) = 7.59690 7.66502 7.63103
#
# Compressibility (1/GPa) = 0.01709580
#
# Stress axis : x y z
#
# Youngs Moduli (GPa) = 55.45286 55.45286 64.12253
#
# Poissons Ratio (x) = 0.32845 0.36422
# Poissons Ratio (y) = 0.32845 0.36422
# Poissons Ratio (z) = 0.31497 0.31497
#
# Static dielectric constant tensor:
#      x y z
#    x 2.609130 0.000000 0.000000 
#    y 0.000000 2.609130 0.000000 
#    z 0.000000 0.000000 3.002420 
# 
# 
# High freq. dielectric constant tensor:
#      x y z
#    x 1.514380 0.000000 0.000000 
#    y 0.000000 1.514380 0.000000 
#    z 0.000000 0.000000 1.560600 
# 
# From -- ./inp_files/4058.got.cif
#   From: 2010.03.12/outbox.cif.g09.slc.cpg/sg187_3_cif.got.tgz:4058.got - 2010.04.01 11:58:23.
