data_PCOD8326508
_publ_section_title
;
Structure prediction by ZEFSAII (Michael W. Deem and Ramdas Pophale) SiO2 
 PCOD8326508
Probable space group: P 6 M M
;
_chemical_formula_sum "Si O2"
_cell_formula_units_Z 96
_cell_length_a 26.940313
_cell_length_b 26.940313
_cell_length_c 10.057945
_cell_angle_alpha 90.000000
_cell_angle_beta 90.000000
_cell_angle_gamma 120.000000
_cell_volume 6321.864199
_symmetry_space_group_name_H-M "P 6 M M"
_symmetry_group_IT_number 183
_symmetry_cell_setting 'hexagonal'
loop_
_space_group_symop_operation_xyz
x,y,z
x-y,x,z
-y,x-y,z
-x,-y,z
-x+y,-x,z
y,-x+y,z
-x+y,y,z
x,x-y,z
-y,-x,z
y,x,z
x-y,-y,z
-x,-x+y,z
loop_
_atom_site_type_symbol
_atom_site_label
_atom_site_fract_x
_atom_site_fract_y
_atom_site_fract_z
Si Si1 0.334304 0.225458 0.758530
Si Si2 0.829538 0.542177 0.665364
Si Si3 0.286910 0.459946 0.088770
Si Si4 0.935358 0.685775 0.316597
Si Si5 0.839357 0.274867 0.378454
Si Si6 0.217274 0.667203 0.871422
Si Si7 0.656430 0.721628 0.029568
Si Si8 0.935308 0.175907 0.539407
O O1 0.337276 0.168638 0.782417
O O2 0.396050 0.277473 0.711198
O O3 0.287413 0.215562 0.648258
O O4 0.316082 0.242047 0.896539
O O5 0.771673 0.543345 0.687321
O O6 0.837683 0.529775 0.511068
O O7 0.825112 0.490846 0.755321
O O8 0.219493 0.438985 0.064014
O O9 0.302424 0.472864 0.245385
O O10 0.300065 0.411342 0.035060
O O11 0.326167 0.518907 0.012260
O O12 0.899431 0.622188 0.372960
O O13 0.924483 0.686849 0.158138
O O14 0.921301 0.729638 0.393901
O O15 0.000000 0.702443 0.346991
O O16 0.791754 0.208246 0.391235
O O17 0.216034 0.608017 0.870263
O O18 0.282171 0.717829 0.849214
O O19 0.667714 0.667714 0.031964
O O20 0.891342 0.108659 0.565083
O O21 0.000000 0.187259 0.546675
#
# Coordination Sequence:
#
# PCOD8326508 Si02
#       8
#    12  12  12  12  12  12  12  12
#     4  10  17  27  43  65  92 120 149 183 225 271
#     4   9  16  27  44  66  88 114 147 181 222 271
#     4   9  17  29  46  66  86 115 151 185 223 267
#     4   9  17  26  39  63  93 120 147 179 221 270
#     4   9  15  26  44  63  86 113 145 182 218 261
#     4  10  19  32  49  69  92 117 149 187 228 269
#     4  10  18  27  41  66  96 122 150 182 220 266
#     4  10  19  30  44  64  92 124 156 190 232 277
#
# _framework density 15.185395
#
# number of rings (size 3 to 8) (size 9 to 14) (size 15 to 20)
#    0.000    2.500    2.500    1.250    0.000    1.500 
#    0.000    0.625    0.000    0.500    0.000    1.750 
#    0.000    1.000    0.000    0.000    0.000   16.250 
#
# Total GULP energy -1189854.352726 kJ/mol
# GULP energy per Si atom -12394.316174 kJ/mol
# Density = 1.515083 g / cm^3
# Si number density = 15.185395 Si / 1000 Ang^3
#
#
#
# Elastic Constant Matrix: (Units=GPa)
#
#
# Indices 1 2 3 4 5 6 
#
# 1 72.0666 38.2042 40.1266 0.0000 0.0000 0.0000
# 2 38.2042 72.0666 40.1266 0.0000 0.0000 0.0000
# 3 40.1266 40.1266 120.0891 0.0000 0.0000 0.0000
# 4 0.0000 0.0000 0.0000 16.6749 0.0000 0.0000
# 5 0.0000 0.0000 0.0000 0.0000 16.6749 0.0000
# 6 0.0000 0.0000 0.0000 0.0000 0.0000 16.9312
#
#
#
# Elastic Compliance Matrix: (Units=1/GPa)
#
#
# Indices 1 2 3 4 5 6 
#
# 1 0.020757 -0.008774 -0.004004 0.000000 0.000000 0.000000
# 2 -0.008774 0.020757 -0.004004 0.000000 0.000000 0.000000
# 3 -0.004004 -0.004004 0.011003 0.000000 0.000000 0.000000
# 4 0.000000 0.000000 0.000000 0.059970 0.000000 0.000000
# 5 0.000000 0.000000 0.000000 0.000000 0.059970 0.000000
# 6 0.000000 0.000000 0.000000 0.000000 0.000000 0.059062
#
#
# Mechanical properties :
#
#
# Convention : Reuss Voigt Hill
#
# Bulk Modulus (GPa) = 52.76349 55.68191 54.22270
# Shear Modulus (GPa) = 18.42292 19.77389 19.09840
#
# Velocity S-wave (km/s) = 3.48688 3.61247 3.55023
# Velocity P-wave (km/s) = 7.14372 7.35850 7.25191
#
# Compressibility (1/GPa) = 0.01895250
#
# Stress axis : x y z
#
# Youngs Moduli (GPa) = 48.17684 48.17684 90.88571
#
# Poissons Ratio (x) = 0.42272 0.36389
# Poissons Ratio (y) = 0.42272 0.36389
# Poissons Ratio (z) = 0.19289 0.19289
#
# Static dielectric constant tensor:
#      x y z
#    x 2.689250 0.000000 0.000000 
#    y 0.000000 2.689250 0.000000 
#    z 0.000000 0.000000 3.304330 
# 
# 
# High freq. dielectric constant tensor:
#      x y z
#    x 1.549450 0.000000 0.000000 
#    y 0.000000 1.549450 0.000000 
#    z 0.000000 0.000000 1.606120 
# 
# From -- ./inp_files/2074.got.cif
#   From: 2010.03.12/outbox.cif.g09.slc.cpg/sg183_2_cif.got.tgz:2074.got - 2010.04.01 11:53:02.
