data_PCOD8326034
_publ_section_title
;
Structure prediction by ZEFSAII (Michael W. Deem and Ramdas Pophale) SiO2 
 PCOD8326034
Probable space group: P 65 2 2
;
_chemical_formula_sum "Si O2"
_cell_formula_units_Z 60
_cell_length_a 19.197228
_cell_length_b 19.197228
_cell_length_c 10.401581
_cell_angle_alpha 90.000000
_cell_angle_beta 90.000000
_cell_angle_gamma 120.000000
_cell_volume 3319.762638
_symmetry_space_group_name_H-M "P 65 2 2"
_symmetry_group_IT_number 179
_symmetry_cell_setting 'hexagonal'
loop_
_space_group_symop_operation_xyz
x,y,z
x-y,x,5/6+z
-y,x-y,2/3+z
-x,-y,1/2+z
-x+y,-x,1/3+z
y,-x+y,1/6+z
x-y,-y,-z
-x,-x+y,1/3-z
y,x,2/3-z
-y,-x,1/6-z
-x+y,y,1/2-z
x,x-y,5/6-z
loop_
_atom_site_type_symbol
_atom_site_label
_atom_site_fract_x
_atom_site_fract_y
_atom_site_fract_z
Si Si1 0.759072 0.677605 0.265590
Si Si2 0.411116 0.036819 0.745356
Si Si3 0.340093 0.875713 0.872636
Si Si4 0.561319 0.284145 0.269731
Si Si5 0.453886 0.886602 0.077186
O O1 0.748187 0.748187 0.333334
O O2 0.853559 0.707117 0.250000
O O3 0.717129 0.652421 0.123760
O O4 0.713748 0.599333 0.353776
O O5 0.448072 0.060592 0.600186
O O6 0.489528 0.081688 0.834505
O O7 0.366062 0.940829 0.759856
O O8 0.284159 0.787980 0.816256
O O9 0.424733 0.888762 0.931839
O O10 0.646428 0.292856 0.250000
O O11 0.532293 0.266147 0.416667
O O12 0.571285 0.367273 0.219804
#
# Coordination Sequence:
#
# PCOD8326034 Si02
#       5
#    12  12  12  12  12
#     4   9  17  32  53  80 108 135 170 213 263 319
#     4   9  20  32  55  72  94 133 173 219 259 316
#     4  10  21  37  50  72  99 135 178 221 269 325
#     4  12  25  35  48  68 101 132 168 223 280 316
#     4  10  20  32  49  69  90 126 173 213 267 317
#
# _framework density 18.073582999999999
#
# number of rings (size 3 to 8) (size 9 to 14) (size 15 to 20)
#    0.000    2.000    2.000    3.000    5.600    4.800 
#    0.000    0.000    0.000    0.000    0.000    0.000 
#    0.000    6.400    0.000    0.000    0.000    0.000 
#
# Total GULP energy -743339.445344 kJ/mol
# GULP energy per Si atom -12388.990756 kJ/mol
# Density = 1.803245 g / cm^3
# Si number density = 18.073583 Si / 1000 Ang^3
#
#
#
# Elastic Constant Matrix: (Units=GPa)
#
#
# Indices 1 2 3 4 5 6 
#
# 1 90.2994 36.4196 11.5789 0.0000 0.0000 0.0000
# 2 36.4196 90.2994 11.5789 0.0000 0.0000 0.0000
# 3 11.5789 11.5789 42.4258 0.0000 0.0000 0.0000
# 4 0.0000 0.0000 0.0000 11.8305 0.0000 0.0000
# 5 0.0000 0.0000 0.0000 0.0000 11.8305 0.0000
# 6 0.0000 0.0000 0.0000 0.0000 0.0000 26.9399
#
#
#
# Elastic Compliance Matrix: (Units=1/GPa)
#
#
# Indices 1 2 3 4 5 6 
#
# 1 0.013433 -0.005127 -0.002267 0.000000 0.000000 0.000000
# 2 -0.005127 0.013433 -0.002267 0.000000 0.000000 0.000000
# 3 -0.002267 -0.002267 0.024808 0.000000 0.000000 0.000000
# 4 0.000000 0.000000 0.000000 0.084527 0.000000 0.000000
# 5 0.000000 0.000000 0.000000 0.000000 0.084527 0.000000
# 6 0.000000 0.000000 0.000000 0.000000 0.000000 0.037120
#
#
# Mechanical properties :
#
#
# Convention : Reuss Voigt Hill
#
# Bulk Modulus (GPa) = 30.90990 38.01994 34.46492
# Shear Modulus (GPa) = 17.36392 21.01664 19.19028
#
# Velocity S-wave (km/s) = 3.10293 3.41374 3.26204
# Velocity P-wave (km/s) = 5.47512 6.05145 5.77049
#
# Compressibility (1/GPa) = 0.03235210
#
# Stress axis : x y z
#
# Youngs Moduli (GPa) = 74.44471 74.44471 40.30977
#
# Poissons Ratio (x) = 0.38168 0.09137
# Poissons Ratio (y) = 0.38168 0.09137
# Poissons Ratio (z) = 0.16875 0.16875
#
# Static dielectric constant tensor:
#      x y z
#    x 3.453900 0.000000 0.000000 
#    y 0.000000 3.453900 0.000000 
#    z 0.000000 0.000000 4.082160 
# 
# 
# High freq. dielectric constant tensor:
#      x y z
#    x 1.678630 0.000000 0.000000 
#    y 0.000000 1.678630 0.000000 
#    z 0.000000 0.000000 1.691490 
# 
# From -- ./inp_files/4691.got.cif
#   From: 2010.03.12/outbox.cif.g09.slc.cpg/sg179_3_cif.got.tgz:4691.got - 2010.04.02 07:08:42.
