data_PCOD8326010
_publ_section_title
;
Structure prediction by ZEFSAII (Michael W. Deem and Ramdas Pophale) SiO2 
 PCOD8326010
Probable space group: P 65 2 2
;
_chemical_formula_sum "Si O2"
_cell_formula_units_Z 78
_cell_length_a 25.349405
_cell_length_b 25.349405
_cell_length_c 8.043561
_cell_angle_alpha 90.000000
_cell_angle_beta 90.000000
_cell_angle_gamma 120.000000
_cell_volume 4476.252036
_symmetry_space_group_name_H-M "P 65 2 2"
_symmetry_group_IT_number 179
_symmetry_cell_setting 'hexagonal'
loop_
_space_group_symop_operation_xyz
x,y,z
x-y,x,5/6+z
-y,x-y,2/3+z
-x,-y,1/2+z
-x+y,-x,1/3+z
y,-x+y,1/6+z
x-y,-y,-z
-x,-x+y,1/3-z
y,x,2/3-z
-y,-x,1/6-z
-x+y,y,1/2-z
x,x-y,5/6-z
loop_
_atom_site_type_symbol
_atom_site_label
_atom_site_fract_x
_atom_site_fract_y
_atom_site_fract_z
Si Si1 0.108506 0.494493 0.455921
Si Si2 0.930277 0.322883 0.123250
Si Si3 0.341928 0.135439 0.260916
Si Si4 0.749318 0.818395 0.361427
Si Si5 0.734141 0.184344 0.453618
Si Si6 0.364983 0.286614 0.024264
Si Si7 0.399722 0.399722 0.833334
O O1 0.124957 0.562479 0.416667
O O2 0.091152 0.460076 0.277894
O O3 0.171061 0.498559 0.525709
O O4 0.053612 0.463361 0.591051
O O5 0.896234 0.287677 0.292608
O O6 0.000000 0.357060 0.166667
O O7 0.916195 0.273721 0.980815
O O8 0.322874 0.161437 0.416667
O O9 0.402941 0.190478 0.171837
O O10 0.284870 0.100723 0.141401
O O11 0.803753 0.803753 0.333334
O O12 0.777645 0.888823 0.416667
O O13 0.703152 0.770767 0.499980
O O14 0.758866 0.241135 0.583334
O O15 0.717215 0.124371 0.553797
O O16 0.370698 0.352097 0.986623
#
# Coordination Sequence:
#
# PCOD8326010 Si02
#       7
#    12  12  12  12  12  12   6
#     4  10  22  33  46  72 105 143 186 221 260 325
#     4  11  19  29  47  71 102 141 179 217 255 312
#     4  10  19  31  50  80 106 133 176 222 273 326
#     4  11  21  34  52  75 108 143 177 220 271 326
#     4   9  18  33  51  70 100 138 174 223 274 321
#     4  10  17  31  49  74 101 137 178 207 265 323
#     4  10  18  30  46  64 104 148 176 208 256 324
#
# _framework density 17.425293
#
# number of rings (size 3 to 8) (size 9 to 14) (size 15 to 20)
#    0.000    1.846    2.308    5.538    1.077    0.000 
#    0.000    2.308    0.000    0.000    0.000    1.077 
#    0.000   56.615    0.000    0.000    0.000    0.000 
#
# Total GULP energy -966592.343891 kJ/mol
# GULP energy per Si atom -12392.209537 kJ/mol
# Density = 1.738563 g / cm^3
# Si number density = 17.425293 Si / 1000 Ang^3
#
#
#
# Elastic Constant Matrix: (Units=GPa)
#
#
# Indices 1 2 3 4 5 6 
#
# 1 79.9444 51.1394 30.6160 0.0000 0.0000 0.0000
# 2 51.1394 79.9444 30.6160 0.0000 0.0000 0.0000
# 3 30.6160 30.6160 97.0680 0.0000 0.0000 0.0000
# 4 0.0000 0.0000 0.0000 22.6098 0.0000 0.0000
# 5 0.0000 0.0000 0.0000 0.0000 22.6098 0.0000
# 6 0.0000 0.0000 0.0000 0.0000 0.0000 14.4025
#
#
#
# Elastic Compliance Matrix: (Units=1/GPa)
#
#
# Indices 1 2 3 4 5 6 
#
# 1 0.021832 -0.012885 -0.002822 0.000000 0.000000 0.000000
# 2 -0.012885 0.021832 -0.002822 0.000000 0.000000 0.000000
# 3 -0.002822 -0.002822 0.012082 0.000000 0.000000 0.000000
# 4 0.000000 0.000000 0.000000 0.044229 0.000000 0.000000
# 5 0.000000 0.000000 0.000000 0.000000 0.044229 0.000000
# 6 0.000000 0.000000 0.000000 0.000000 0.000000 0.069432
#
#
# Mechanical properties :
#
#
# Convention : Reuss Voigt Hill
#
# Bulk Modulus (GPa) = 53.50949 53.52216 53.51583
# Shear Modulus (GPa) = 19.46122 21.56345 20.51233
#
# Velocity S-wave (km/s) = 3.34554 3.52160 3.43470
# Velocity P-wave (km/s) = 6.76004 6.87877 6.81966
#
# Compressibility (1/GPa) = 0.01868827
#
# Stress axis : x y z
#
# Youngs Moduli (GPa) = 45.80535 45.80535 82.76661
#
# Poissons Ratio (x) = 0.59018 0.23356
# Poissons Ratio (y) = 0.59018 0.23356
# Poissons Ratio (z) = 0.12926 0.12926
#
# Static dielectric constant tensor:
#      x y z
#    x 3.106610 0.000000 0.000000 
#    y 0.000000 3.106610 0.000000 
#    z 0.000000 0.000000 4.013450 
# 
# 
# High freq. dielectric constant tensor:
#      x y z
#    x 1.642440 0.000000 0.000000 
#    y 0.000000 1.642440 0.000000 
#    z 0.000000 0.000000 1.692810 
# 
# From -- ./inp_files/3726.got.cif
#   From: 2010.03.12/outbox.cif.g09.slc.cpg/sg179_2_cif.got.tgz:3726.got - 2010.04.02 07:08:42.
