data_PCOD8326824
_publ_section_title
;
Structure prediction by ZEFSAII (Michael W. Deem and Ramdas Pophale) SiO2 
 PCOD8326824
Probable space group: P 63 M C
;
_chemical_formula_sum "Si O2"
_cell_formula_units_Z 96
_cell_length_a 20.421490
_cell_length_b 20.421490
_cell_length_c 16.729821
_cell_angle_alpha 90.000000
_cell_angle_beta 90.000000
_cell_angle_gamma 120.000000
_cell_volume 6042.223395
_symmetry_space_group_name_H-M "P 63 M C"
_symmetry_group_IT_number 186
_symmetry_cell_setting 'hexagonal'
loop_
_space_group_symop_operation_xyz
x,y,z
x-y,x,1/2+z
-y,x-y,z
-x,-y,1/2+z
-x+y,-x,z
y,-x+y,1/2+z
-x+y,y,z
x,x-y,z
-y,-x,z
y,x,1/2+z
x-y,-y,1/2+z
-x,-x+y,1/2+z
loop_
_atom_site_type_symbol
_atom_site_label
_atom_site_fract_x
_atom_site_fract_y
_atom_site_fract_z
Si Si1 0.797004 0.054217 0.948790
Si Si2 0.437400 0.413719 0.408689
Si Si3 0.363306 0.335560 0.054574
Si Si4 0.147670 0.000014 0.087406
Si Si5 0.869834 0.589995 0.201337
Si Si6 0.666806 0.184222 0.342959
Si Si7 0.691336 0.919542 0.153363
Si Si8 0.995155 0.690768 0.804105
O O1 0.865180 0.134821 0.920789
O O2 0.751827 0.005222 0.871798
O O3 0.741805 0.069473 0.004571
O O4 0.827290 0.006960 0.997651
O O5 0.500932 0.499069 0.387239
O O6 0.407349 0.412716 0.498022
O O7 0.472438 0.358001 0.403874
O O8 0.370259 0.386323 0.344077
O O9 0.415007 0.329534 0.123975
O O10 0.297002 0.348090 0.091061
O O11 0.161338 0.080669 0.118170
O O12 0.189966 0.972314 0.147799
O O13 0.058765 0.941236 0.084160
O O14 0.800973 0.601945 0.174155
O O15 0.840267 0.513758 0.252664
O O16 0.926243 0.661462 0.255982
O O17 0.605804 0.211608 0.341283
O O18 0.746987 0.253014 0.372532
O O19 0.665310 0.832655 0.133430
O O20 0.667017 0.925600 0.243416
#
# Coordination Sequence:
#
# PCOD8326824 Si02
#       8
#    12  12  12  12  12  12  12  12
#     4   9  16  26  41  60  82 109 145 185 219 251
#     4   9  18  31  45  64  88 111 135 163 201 250
#     4   9  17  28  43  62  84 113 140 169 211 250
#     4   9  17  28  41  57  80 113 151 189 226 260
#     4   9  17  28  42  62  87 112 140 172 205 245
#     4   9  17  29  45  64  86 112 140 168 199 238
#     4   9  17  28  42  61  83 108 143 182 216 250
#     4   9  17  28  43  62  83 110 139 170 213 252
#
# _framework density 15.888191000000001
#
# number of rings (size 3 to 8) (size 9 to 14) (size 15 to 20)
#    0.000    3.000    0.000    1.000    0.000    4.500 
#    0.000    6.875    0.000    0.000    0.000    1.750 
#    0.000    0.000    0.000   37.375    0.000    0.000 
#
# Total GULP energy -1190046.678869 kJ/mol
# GULP energy per Si atom -12396.319572 kJ/mol
# Density = 1.585203 g / cm^3
# Si number density = 15.888191 Si / 1000 Ang^3
#
#
#
# Elastic Constant Matrix: (Units=GPa)
#
#
# Indices 1 2 3 4 5 6 
#
# 1 67.4429 31.9374 34.4120 0.0000 0.0000 0.0000
# 2 31.9374 67.4429 34.4120 0.0000 0.0000 0.0000
# 3 34.4120 34.4120 84.8359 0.0000 0.0000 0.0000
# 4 0.0000 0.0000 0.0000 17.3996 0.0000 0.0000
# 5 0.0000 0.0000 0.0000 0.0000 17.3996 0.0000
# 6 0.0000 0.0000 0.0000 0.0000 0.0000 17.7528
#
#
#
# Elastic Compliance Matrix: (Units=1/GPa)
#
#
# Indices 1 2 3 4 5 6 
#
# 1 0.021079 -0.007086 -0.005676 0.000000 0.000000 0.000000
# 2 -0.007086 0.021079 -0.005676 0.000000 0.000000 0.000000
# 3 -0.005676 -0.005676 0.016392 0.000000 0.000000 0.000000
# 4 0.000000 0.000000 0.000000 0.057473 0.000000 0.000000
# 5 0.000000 0.000000 0.000000 0.000000 0.057473 0.000000
# 6 0.000000 0.000000 0.000000 0.000000 0.000000 0.056329
#
#
# Mechanical properties :
#
#
# Convention : Reuss Voigt Hill
#
# Bulk Modulus (GPa) = 46.13739 46.80492 46.47115
# Shear Modulus (GPa) = 18.25315 18.44107 18.34711
#
# Velocity S-wave (km/s) = 3.39315 3.41057 3.40187
# Velocity P-wave (km/s) = 6.66732 6.71060 6.68899
#
# Compressibility (1/GPa) = 0.02167439
#
# Stress axis : x y z
#
# Youngs Moduli (GPa) = 47.44075 47.44075 61.00460
#
# Poissons Ratio (x) = 0.33615 0.34627
# Poissons Ratio (y) = 0.33615 0.34627
# Poissons Ratio (z) = 0.26928 0.26928
#
# Static dielectric constant tensor:
#      x y z
#    x 2.930860 0.000000 0.000000 
#    y 0.000000 2.930860 0.000000 
#    z 0.000000 0.000000 3.029390 
# 
# 
# High freq. dielectric constant tensor:
#      x y z
#    x 1.596150 0.000000 0.000000 
#    y 0.000000 1.596150 0.000000 
#    z 0.000000 0.000000 1.605440 
# 
# From -- ./inp_files/3170.got.cif
#   From: 2010.03.12/outbox.cif.g09.slc.cpg/sg186_2_cif.got.tgz:3170.got - 2010.04.01 11:56:34.
