data_PCOD8326894
_publ_section_title
;
Structure prediction by ZEFSAII (Michael W. Deem and Ramdas Pophale) SiO2 
 PCOD8326894
Probable space group: P -6 M 2
;
_chemical_formula_sum "Si O2"
_cell_formula_units_Z 66
_cell_length_a 17.358128
_cell_length_b 17.358128
_cell_length_c 15.420743
_cell_angle_alpha 90.000000
_cell_angle_beta 90.000000
_cell_angle_gamma 120.000000
_cell_volume 4023.849271
_symmetry_space_group_name_H-M "P -6 M 2"
_symmetry_group_IT_number 187
_symmetry_cell_setting 'hexagonal'
loop_
_space_group_symop_operation_xyz
x,y,z
-x+y,-x,-z
-y,x-y,z
x,y,-z
-x+y,-x,z
-y,x-y,-z
-y,-x,-z
-x+y,y,-z
x,x-y,-z
-x+y,y,z
x,x-y,z
-y,-x,z
loop_
_atom_site_type_symbol
_atom_site_label
_atom_site_fract_x
_atom_site_fract_y
_atom_site_fract_z
Si Si1 0.430462 0.395193 0.154392
Si Si2 0.845645 0.334271 0.677278
Si Si3 0.067599 0.758086 0.899261
Si Si4 0.667946 0.154880 0.000000
Si Si5 0.935769 0.692793 0.594220
Si Si6 0.179350 0.181037 0.254631
O O1 0.502237 0.497764 0.135865
O O2 0.449140 0.362755 0.243791
O O3 0.333777 0.385781 0.143718
O O4 0.432002 0.327928 0.084269
O O5 0.833764 0.416882 0.646523
O O6 0.748751 0.251250 0.701852
O O7 0.893336 0.307102 0.604095
O O8 0.172476 0.827525 0.890887
O O9 0.011708 0.791039 0.841971
O O10 0.037309 0.748260 0.000000
O O11 0.747163 0.252838 0.000000
O O12 0.580990 0.161979 0.000000
O O13 0.985065 0.718418 0.500000
O O14 0.858047 0.716093 0.592557
O O15 0.999565 0.750423 0.673565
O O16 0.083752 0.167503 0.279125
O O17 0.173768 0.086884 0.255391
#
# Coordination Sequence:
#
# PCOD8326894 Si02
#       6
#    12  12  12   6  12  12
#     4  10  19  31  48  70  94 126 165 202 241 287
#     4  10  19  31  47  69  98 132 168 203 240 283
#     4  10  20  34  51  73  98 127 160 197 242 293
#     4  10  19  28  41  64  96 130 164 200 237 276
#     4   9  18  32  49  69  94 125 161 201 243 287
#     4  10  20  34  51  71  96 126 162 203 248 294
#
# _framework density 16.402204999999999
#
# number of rings (size 3 to 8) (size 9 to 14) (size 15 to 20)
#    0.000    2.182    2.727    1.000    0.000    1.818 
#    0.000    1.818    0.000    3.636    0.000    0.000 
#    0.000    0.000    0.000    0.000    0.000   16.545 
#
# Total GULP energy -817881.321920 kJ/mol
# GULP energy per Si atom -12392.141241 kJ/mol
# Density = 1.636487 g / cm^3
# Si number density = 16.402205 Si / 1000 Ang^3
#
#
#
# Elastic Constant Matrix: (Units=GPa)
#
#
# Indices 1 2 3 4 5 6 
#
# 1 79.8885 44.3617 30.6608 0.0000 0.0000 0.0000
# 2 44.3617 79.8885 30.6608 0.0000 0.0000 0.0000
# 3 30.6608 30.6608 87.6690 0.0000 0.0000 0.0000
# 4 0.0000 0.0000 0.0000 15.9321 0.0000 0.0000
# 5 0.0000 0.0000 0.0000 0.0000 15.9321 0.0000
# 6 0.0000 0.0000 0.0000 0.0000 0.0000 17.7634
#
#
#
# Elastic Compliance Matrix: (Units=1/GPa)
#
#
# Indices 1 2 3 4 5 6 
#
# 1 0.018938 -0.009210 -0.003402 0.000000 0.000000 0.000000
# 2 -0.009210 0.018938 -0.003402 0.000000 0.000000 0.000000
# 3 -0.003402 -0.003402 0.013786 0.000000 0.000000 0.000000
# 4 0.000000 0.000000 0.000000 0.062767 0.000000 0.000000
# 5 0.000000 0.000000 0.000000 0.000000 0.062767 0.000000
# 6 0.000000 0.000000 0.000000 0.000000 0.000000 0.056296
#
#
# Mechanical properties :
#
#
# Convention : Reuss Voigt Hill
#
# Bulk Modulus (GPa) = 50.93519 50.97921 50.95720
# Shear Modulus (GPa) = 18.37814 19.37634 18.87724
#
# Velocity S-wave (km/s) = 3.35097 3.44077 3.39617
# Velocity P-wave (km/s) = 6.78920 6.85079 6.82007
#
# Compressibility (1/GPa) = 0.01963279
#
# Stress axis : x y z
#
# Youngs Moduli (GPa) = 52.80522 52.80522 72.53689
#
# Poissons Ratio (x) = 0.48635 0.24677
# Poissons Ratio (y) = 0.48635 0.24677
# Poissons Ratio (z) = 0.17964 0.17964
#
# Static dielectric constant tensor:
#      x y z
#    x 3.070520 0.000000 0.000000 
#    y 0.000000 3.070520 0.000000 
#    z 0.000000 0.000000 3.286930 
# 
# 
# High freq. dielectric constant tensor:
#      x y z
#    x 1.616190 0.000000 0.000000 
#    y 0.000000 1.616190 0.000000 
#    z 0.000000 0.000000 1.640260 
# 
# From -- ./inp_files/2437.got.cif
#   From: 2010.03.12/outbox.cif.g09.slc.cpg/sg187_2_cif.got.tgz:2437.got - 2010.04.01 11:58:23.
