data_PCOD8326963
_publ_section_title
;
Structure prediction by ZEFSAII (Michael W. Deem and Ramdas Pophale) SiO2 
 PCOD8326963
Probable space group: P -6 M 2
;
_chemical_formula_sum "Si O2"
_cell_formula_units_Z 66
_cell_length_a 17.898078
_cell_length_b 17.898078
_cell_length_c 16.792672
_cell_angle_alpha 90.000000
_cell_angle_beta 90.000000
_cell_angle_gamma 120.000000
_cell_volume 4658.683750
_symmetry_space_group_name_H-M "P -6 M 2"
_symmetry_group_IT_number 187
_symmetry_cell_setting 'hexagonal'
loop_
_space_group_symop_operation_xyz
x,y,z
-x+y,-x,-z
-y,x-y,z
x,y,-z
-x+y,-x,z
-y,x-y,-z
-y,-x,-z
-x+y,y,-z
x,x-y,-z
-x+y,y,z
x,x-y,z
-y,-x,z
loop_
_atom_site_type_symbol
_atom_site_label
_atom_site_fract_x
_atom_site_fract_y
_atom_site_fract_z
Si Si1 0.329172 0.253384 0.188056
Si Si2 0.168112 0.998944 0.906344
Si Si3 0.314904 0.246094 0.367043
Si Si4 0.666305 0.168242 0.592163
Si Si5 0.492948 0.159450 0.091499
Si Si6 0.999626 0.820234 0.500000
O O1 0.331301 0.165651 0.185708
O O2 0.253392 0.246470 0.132316
O O3 0.307316 0.271563 0.276630
O O4 0.419502 0.327527 0.151750
O O5 0.153556 0.076778 0.879497
O O6 0.177782 0.997500 0.000000
O O7 0.087714 0.912287 0.873752
O O8 0.316703 0.158352 0.372376
O O9 0.407402 0.322890 0.397121
O O10 0.235127 0.233025 0.422280
O O11 0.665882 0.186875 0.500000
O O12 0.576007 0.152014 0.630544
O O13 0.746694 0.253307 0.632660
O O14 0.578690 0.157380 0.112238
O O15 0.511735 0.255868 0.105882
O O16 0.463672 0.131615 0.000000
O O17 0.918425 0.836849 0.500000
O O18 0.088092 0.911909 0.500000
#
# Coordination Sequence:
#
# PCOD8326963 Si02
#       6
#    12  12  12  12  12   6
#     4   9  17  27  39  55  77 105 133 163 202 244
#     4   9  16  26  40  57  76  98 126 161 200 241
#     4   9  17  29  41  55  78 104 130 165 207 241
#     4   9  15  24  39  58  79 104 133 162 191 225
#     4   9  16  26  40  58  81 111 147 181 206 228
#     4  10  19  32  47  60  74  98 134 174 213 252
#
# _framework density 14.167092
#
# number of rings (size 3 to 8) (size 9 to 14) (size 15 to 20)
#    0.000    2.909    0.909    1.182    0.000    5.818 
#    0.000    0.000    0.000    4.364    0.000    0.000 
#    0.000    0.000    0.000    2.727    0.000   15.273 
#
# Total GULP energy -817859.814951 kJ/mol
# GULP energy per Si atom -12391.815378 kJ/mol
# Density = 1.413485 g / cm^3
# Si number density = 14.167092 Si / 1000 Ang^3
#
#
#
# Elastic Constant Matrix: (Units=GPa)
#
#
# Indices 1 2 3 4 5 6 
#
# 1 82.3953 42.9313 36.1548 0.0000 0.0000 0.0000
# 2 42.9313 82.3953 36.1548 0.0000 0.0000 0.0000
# 3 36.1548 36.1548 65.0638 0.0000 0.0000 0.0000
# 4 0.0000 0.0000 0.0000 12.6128 0.0000 0.0000
# 5 0.0000 0.0000 0.0000 0.0000 12.6128 0.0000
# 6 0.0000 0.0000 0.0000 0.0000 0.0000 19.7320
#
#
#
# Elastic Compliance Matrix: (Units=1/GPa)
#
#
# Indices 1 2 3 4 5 6 
#
# 1 0.018542 -0.006797 -0.006526 0.000000 0.000000 0.000000
# 2 -0.006797 0.018542 -0.006526 0.000000 0.000000 0.000000
# 3 -0.006526 -0.006526 0.022623 0.000000 0.000000 0.000000
# 4 0.000000 0.000000 0.000000 0.079285 0.000000 0.000000
# 5 0.000000 0.000000 0.000000 0.000000 0.079285 0.000000
# 6 0.000000 0.000000 0.000000 0.000000 0.000000 0.050679
#
#
# Mechanical properties :
#
#
# Convention : Reuss Voigt Hill
#
# Bulk Modulus (GPa) = 49.98316 51.14844 50.56580
# Shear Modulus (GPa) = 15.85670 16.63241 16.24456
#
# Velocity S-wave (km/s) = 3.34917 3.43011 3.38988
# Velocity P-wave (km/s) = 7.09321 7.20206 7.14784
#
# Compressibility (1/GPa) = 0.02000674
#
# Stress axis : x y z
#
# Youngs Moduli (GPa) = 53.93139 53.93139 44.20363
#
# Poissons Ratio (x) = 0.36660 0.28848
# Poissons Ratio (y) = 0.36660 0.28848
# Poissons Ratio (z) = 0.35197 0.35197
#
# Static dielectric constant tensor:
#      x y z
#    x 2.675950 0.000000 0.000000 
#    y 0.000000 2.675950 0.000000 
#    z 0.000000 0.000000 2.885350 
# 
# 
# High freq. dielectric constant tensor:
#      x y z
#    x 1.510830 0.000000 0.000000 
#    y 0.000000 1.510830 0.000000 
#    z 0.000000 0.000000 1.545310 
# 
# From -- ./inp_files/2436.got.cif
#   From: 2010.03.12/outbox.cif.g09.slc.cpg/sg187_2_cif.got.tgz:2436.got - 2010.04.01 11:58:23.
