data_PCOD8326091
_publ_section_title
;
Structure prediction by ZEFSAII (Michael W. Deem and Ramdas Pophale) SiO2 
 PCOD8326091
Probable space group: P 65 2 2
;
_chemical_formula_sum "Si O2"
_cell_formula_units_Z 48
_cell_length_a 13.507826
_cell_length_b 13.507826
_cell_length_c 13.832654
_cell_angle_alpha 90.000000
_cell_angle_beta 90.000000
_cell_angle_gamma 120.000000
_cell_volume 2185.783086
_symmetry_space_group_name_H-M "P 65 2 2"
_symmetry_group_IT_number 179
_symmetry_cell_setting 'hexagonal'
loop_
_space_group_symop_operation_xyz
x,y,z
x-y,x,5/6+z
-y,x-y,2/3+z
-x,-y,1/2+z
-x+y,-x,1/3+z
y,-x+y,1/6+z
x-y,-y,-z
-x,-x+y,1/3-z
y,x,2/3-z
-y,-x,1/6-z
-x+y,y,1/2-z
x,x-y,5/6-z
loop_
_atom_site_type_symbol
_atom_site_label
_atom_site_fract_x
_atom_site_fract_y
_atom_site_fract_z
Si Si1 0.672042 0.688455 0.014579
Si Si2 0.161930 0.080965 0.416667
Si Si3 0.186425 0.609382 0.527613
Si Si4 0.626764 0.849741 0.622656
Si Si5 0.155844 0.000000 0.000000
O O1 0.720744 0.601477 0.024405
O O2 0.670467 0.743929 0.115750
O O3 0.759623 0.788117 0.945465
O O4 0.546762 0.619029 0.967437
O O5 0.077577 0.077577 0.333334
O O6 0.285782 0.714219 0.583334
O O7 0.224356 0.612178 0.416667
O O8 0.159591 0.491480 0.579338
O O9 0.724061 0.902243 0.542017
O O10 0.117411 0.058706 0.916667
#
# Coordination Sequence:
#
# PCOD8326091 Si02
#       5
#    12   6  12  12   6
#     4  11  22  45  69 101 137 183 243 293 345 423
#     4  12  24  42  72 106 136 178 234 286 346 410
#     4  10  24  45  71 104 140 184 242 295 355 425
#     4  11  24  45  69 101 143 188 233 301 354 421
#     4  12  26  50  72 104 152 190 246 290 374 448
#
# _framework density 21.960094000000002
#
# number of rings (size 3 to 8) (size 9 to 14) (size 15 to 20)
#    0.000    1.000    6.250    0.000    0.000    4.000 
#   20.250    0.000    0.000    0.000    0.000    0.000 
#    0.000    0.000    0.000    0.000    0.000    0.000 
#
# Total GULP energy -595305.983565 kJ/mol
# GULP energy per Si atom -12402.207991 kJ/mol
# Density = 2.191011 g / cm^3
# Si number density = 21.960094 Si / 1000 Ang^3
#
#
#
# Elastic Constant Matrix: (Units=GPa)
#
#
# Indices 1 2 3 4 5 6 
#
# 1 126.0128 121.5760 45.4349 0.0000 0.0000 0.0000
# 2 121.5760 126.0128 45.4349 0.0000 0.0000 0.0000
# 3 45.4349 45.4349 78.5379 0.0000 0.0000 0.0000
# 4 0.0000 0.0000 0.0000 15.0547 0.0000 0.0000
# 5 0.0000 0.0000 0.0000 0.0000 15.0547 0.0000
# 6 0.0000 0.0000 0.0000 0.0000 0.0000 2.2184
#
#
#
# Elastic Compliance Matrix: (Units=1/GPa)
#
#
# Indices 1 2 3 4 5 6 
#
# 1 0.115256 -0.110129 -0.002966 0.000000 0.000000 0.000000
# 2 -0.110129 0.115256 -0.002966 0.000000 0.000000 0.000000
# 3 -0.002966 -0.002966 0.016165 0.000000 0.000000 0.000000
# 4 0.000000 0.000000 0.000000 0.066424 0.000000 0.000000
# 5 0.000000 0.000000 0.000000 0.000000 0.066424 0.000000
# 6 0.000000 0.000000 0.000000 0.000000 0.000000 0.450770
#
#
# Mechanical properties :
#
#
# Convention : Reuss Voigt Hill
#
# Bulk Modulus (GPa) = 68.70670 83.93946 76.32308
# Shear Modulus (GPa) = 4.68485 14.34010 9.51248
#
# Velocity S-wave (km/s) = 1.46218 2.55817 2.08353
# Velocity P-wave (km/s) = 5.84856 6.85801 6.37330
#
# Compressibility (1/GPa) = 0.01455462
#
# Stress axis : x y z
#
# Youngs Moduli (GPa) = 8.67632 8.67632 61.86241
#
# Poissons Ratio (x) = 0.95551 0.18351
# Poissons Ratio (y) = 0.95551 0.18351
# Poissons Ratio (z) = 0.02574 0.02574
#
# Static dielectric constant tensor:
#      x y z
#    x 4.215820 0.000000 0.000000 
#    y 0.000000 4.215820 0.000000 
#    z 0.000000 0.000000 3.998720 
# 
# 
# High freq. dielectric constant tensor:
#      x y z
#    x 1.871030 0.000000 0.000000 
#    y 0.000000 1.871030 0.000000 
#    z 0.000000 0.000000 1.858850 
# 
# From -- ./inp_files/4350.got.cif
#   From: 2010.03.12/outbox.cif.g09.slc.cpg/sg179_3_cif.got.tgz:4350.got - 2010.04.02 07:08:42.
