data_PCOD8326594
_publ_section_title
;
Structure prediction by ZEFSAII (Michael W. Deem and Ramdas Pophale) SiO2 
 PCOD8326594
Probable space group: P 6 C C
;
_chemical_formula_sum "Si O2"
_cell_formula_units_Z 56
_cell_length_a 15.352956
_cell_length_b 15.352956
_cell_length_c 14.074496
_cell_angle_alpha 90.000000
_cell_angle_beta 90.000000
_cell_angle_gamma 120.000000
_cell_volume 2873.078513
_symmetry_space_group_name_H-M "P 6 C C"
_symmetry_group_IT_number 184
_symmetry_cell_setting 'hexagonal'
loop_
_space_group_symop_operation_xyz
x,y,z
x-y,x,z
-y,x-y,z
-x,-y,z
-x+y,-x,z
y,-x+y,z
-x+y,y,1/2+z
x,x-y,1/2+z
-y,-x,1/2+z
y,x,1/2+z
x-y,-y,1/2+z
-x,-x+y,1/2+z
loop_
_atom_site_type_symbol
_atom_site_label
_atom_site_fract_x
_atom_site_fract_y
_atom_site_fract_z
Si Si1 0.157683 0.578840 0.795430
Si Si2 0.333335 0.666667 0.431783
Si Si3 0.353183 0.000002 0.795430
Si Si4 0.208250 0.191106 0.156757
Si Si5 0.666667 0.333335 0.659076
Si Si6 0.208250 0.017143 0.434103
O O1 0.222773 0.591889 0.889875
O O2 0.094147 0.461319 0.771994
O O3 0.222772 0.630879 0.700984
O O4 0.094152 0.632831 0.818866
O O5 0.333334 0.666667 0.545429
O O6 0.306183 0.025034 0.704966
O O7 0.281151 0.974968 0.885895
O O8 0.194393 0.084704 0.189486
O O9 0.225482 0.206142 0.045430
O O10 0.194393 0.109689 0.401374
#
# Coordination Sequence:
#
# PCOD8326594 Si02
#       6
#    12   4  12  12   4  12
#     4   9  24  42  60  90 120 154 198 249 300 360
#     4  10  23  43  67  86 118 160 197 247 304 356
#     4  11  22  40  61  88 124 152 197 248 298 351
#     4  10  22  37  59  89 123 160 197 240 291 354
#     4  10  23  43  67  86 118 160 197 247 304 356
#     4  10  22  37  59  89 123 160 197 240 291 354
#
# _framework density 19.491288000000001
#
# number of rings (size 3 to 8) (size 9 to 14) (size 15 to 20)
#    0.000    2.143    0.000    1.714   12.000    5.143 
#    0.000    6.429    0.000    0.000    0.000    0.000 
#    0.000    0.000    0.000    0.000    0.000    0.000 
#
# Total GULP energy -694456.024948 kJ/mol
# GULP energy per Si atom -12401.000445 kJ/mol
# Density = 1.944692 g / cm^3
# Si number density = 19.491288 Si / 1000 Ang^3
#
#
#
# Elastic Constant Matrix: (Units=GPa)
#
#
# Indices 1 2 3 4 5 6 
#
# 1 99.2830 32.6271 11.5511 0.0002 0.0000 0.0000
# 2 32.6271 99.2836 11.5514 0.0001 0.0000 0.0000
# 3 11.5511 11.5514 92.9915 0.0001 0.0001 0.0000
# 4 0.0002 0.0001 0.0001 24.4964 0.0000 0.0000
# 5 0.0000 0.0000 0.0001 0.0000 24.4963 0.0000
# 6 0.0000 0.0000 0.0000 0.0000 0.0000 33.3281
#
#
#
# Elastic Compliance Matrix: (Units=1/GPa)
#
#
# Indices 1 2 3 4 5 6 
#
# 1 0.011376 -0.003626 -0.000963 0.000000 0.000000 0.000000
# 2 -0.003626 0.011376 -0.000963 0.000000 0.000000 0.000000
# 3 -0.000963 -0.000963 0.010993 0.000000 0.000000 0.000000
# 4 0.000000 0.000000 0.000000 0.040822 0.000000 0.000000
# 5 0.000000 0.000000 0.000000 0.000000 0.040822 0.000000
# 6 0.000000 0.000000 0.000000 0.000000 0.000000 0.030005
#
#
# Mechanical properties :
#
#
# Convention : Reuss Voigt Hill
#
# Bulk Modulus (GPa) = 44.16708 44.77970 44.47339
# Shear Modulus (GPa) = 30.47951 32.18607 31.33279
#
# Velocity S-wave (km/s) = 3.95872 4.06803 4.01375
# Velocity P-wave (km/s) = 6.60336 6.71486 6.65934
#
# Compressibility (1/GPa) = 0.02264130
#
# Stress axis : x y z
#
# Youngs Moduli (GPa) = 87.90471 87.90517 90.96845
#
# Poissons Ratio (x) = 0.31878 0.08757
# Poissons Ratio (y) = 0.31878 0.08757
# Poissons Ratio (z) = 0.08462 0.08462
#
# Static dielectric constant tensor:
#      x y z
#    x 3.675030 0.000000 0.000000 
#    y 0.000000 3.675030 0.000000 
#    z 0.000000 0.000000 3.479840 
# 
# 
# High freq. dielectric constant tensor:
#      x y z
#    x 1.769510 0.000000 0.000000 
#    y 0.000000 1.769510 0.000000 
#    z 0.000000 0.000000 1.756270 
# 
# From -- ./inp_files/833.got.cif
#   From: 2010.03.12/outbox.cif.g09.slc.cpg/sg184_cif.got.tgz:833.got - 2010.04.01 11:54:36.
