data_PCOD8326075
_publ_section_title
;
Structure prediction by ZEFSAII (Michael W. Deem and Ramdas Pophale) SiO2 
 PCOD8326075
Probable space group: P 65 2 2
;
_chemical_formula_sum "Si O2"
_cell_formula_units_Z 48
_cell_length_a 18.143104
_cell_length_b 18.143104
_cell_length_c 8.184371
_cell_angle_alpha 90.000000
_cell_angle_beta 90.000000
_cell_angle_gamma 120.000000
_cell_volume 2333.130976
_symmetry_space_group_name_H-M "P 65 2 2"
_symmetry_group_IT_number 179
_symmetry_cell_setting 'hexagonal'
loop_
_space_group_symop_operation_xyz
x,y,z
x-y,x,5/6+z
-y,x-y,2/3+z
-x,-y,1/2+z
-x+y,-x,1/3+z
y,-x+y,1/6+z
x-y,-y,-z
-x,-x+y,1/3-z
y,x,2/3-z
-y,-x,1/6-z
-x+y,y,1/2-z
x,x-y,5/6-z
loop_
_atom_site_type_symbol
_atom_site_label
_atom_site_fract_x
_atom_site_fract_y
_atom_site_fract_z
Si Si1 0.169541 0.050073 0.160771
Si Si2 0.843810 0.687620 0.750000
Si Si3 0.704210 0.468864 0.077278
Si Si4 0.409717 0.819434 0.750000
Si Si5 0.442762 0.098742 0.493216
O O1 0.257414 0.115231 0.251974
O O2 0.106272 0.979262 0.285061
O O3 0.178008 0.000000 0.000000
O O4 0.742522 0.627853 0.744527
O O5 0.619820 0.380181 0.083334
O O6 0.751098 0.502195 0.250000
O O7 0.765409 0.454463 0.959342
O O8 0.682765 0.538161 0.003365
O O9 0.468169 0.872720 0.900730
O O10 0.405206 0.000000 0.500000
#
# Coordination Sequence:
#
# PCOD8326075 Si02
#       5
#    12   6  12   6  12
#     4  10  22  40  68 102 136 189 247 294 343 418
#     4  12  24  48  64  95 148 196 221 298 366 420
#     4  12  22  42  74 102 132 174 226 286 345 422
#     4  12  22  44  72  99 136 174 231 280 348 420
#     4  12  27  45  68 106 142 183 232 289 365 428
#
# _framework density 20.573212000000002
#
# number of rings (size 3 to 8) (size 9 to 14) (size 15 to 20)
#    0.000    0.500    6.250    2.250    1.750    6.000 
#    9.000    1.250    0.000    0.000    0.000    0.000 
#    0.000    0.000    0.000    0.000    0.000    0.000 
#
# Total GULP energy -594836.955646 kJ/mol
# GULP energy per Si atom -12392.436576 kJ/mol
# Density = 2.052639 g / cm^3
# Si number density = 20.573212 Si / 1000 Ang^3
#
#
#
# Elastic Constant Matrix: (Units=GPa)
#
#
# Indices 1 2 3 4 5 6 
#
# 1 111.9384 58.9253 50.1785 0.0000 0.0000 0.0000
# 2 58.9253 111.9384 50.1785 0.0000 0.0000 0.0000
# 3 50.1785 50.1785 116.7317 0.0000 0.0000 0.0000
# 4 0.0000 0.0000 0.0000 20.7204 0.0000 0.0000
# 5 0.0000 0.0000 0.0000 0.0000 20.7204 0.0000
# 6 0.0000 0.0000 0.0000 0.0000 0.0000 26.5065
#
#
#
# Elastic Compliance Matrix: (Units=1/GPa)
#
#
# Indices 1 2 3 4 5 6 
#
# 1 0.013346 -0.005517 -0.003366 0.000000 0.000000 0.000000
# 2 -0.005517 0.013346 -0.003366 0.000000 0.000000 0.000000
# 3 -0.003366 -0.003366 0.011460 0.000000 0.000000 0.000000
# 4 0.000000 0.000000 0.000000 0.048262 0.000000 0.000000
# 5 0.000000 0.000000 0.000000 0.000000 0.048262 0.000000
# 6 0.000000 0.000000 0.000000 0.000000 0.000000 0.037727
#
#
# Mechanical properties :
#
#
# Convention : Reuss Voigt Hill
#
# Bulk Modulus (GPa) = 73.22438 73.24144 73.23291
# Shear Modulus (GPa) = 24.81996 25.67789 25.24893
#
# Velocity S-wave (km/s) = 3.47713 3.53671 3.50704
# Velocity P-wave (km/s) = 7.19652 7.23571 7.21614
#
# Compressibility (1/GPa) = 0.01365665
#
# Stress axis : x y z
#
# Youngs Moduli (GPa) = 74.92701 74.92701 87.25936
#
# Poissons Ratio (x) = 0.41337 0.29368
# Poissons Ratio (y) = 0.41337 0.29368
# Poissons Ratio (z) = 0.25217 0.25217
#
# Static dielectric constant tensor:
#      x y z
#    x 4.059980 0.000000 0.000000 
#    y 0.000000 4.059980 0.000000 
#    z 0.000000 0.000000 3.895620 
# 
# 
# High freq. dielectric constant tensor:
#      x y z
#    x 1.808180 0.000000 0.000000 
#    y 0.000000 1.808180 0.000000 
#    z 0.000000 0.000000 1.808800 
# 
# From -- ./inp_files/2752.got.cif
#   From: 2010.03.12/outbox.cif.g09.slc.cpg/sg179_2_cif.got.tgz:2752.got - 2010.04.02 07:08:42.
