data_PCOD8326368
_publ_section_title
;
Structure prediction by ZEFSAII (Michael W. Deem and Ramdas Pophale) SiO2 
 PCOD8326368
Probable space group: P 64 2 2
;
_chemical_formula_sum "Si O2"
_cell_formula_units_Z 39
_cell_length_a 8.459614
_cell_length_b 8.459614
_cell_length_c 27.195582
_cell_angle_alpha 90.000000
_cell_angle_beta 90.000000
_cell_angle_gamma 120.000000
_cell_volume 1685.505149
_symmetry_space_group_name_H-M "P 64 2 2"
_symmetry_group_IT_number 181
_symmetry_cell_setting 'hexagonal'
loop_
_space_group_symop_operation_xyz
x,y,z
x-y,x,2/3+z
-y,x-y,1/3+z
-x,-y,z
-x+y,-x,2/3+z
y,-x+y,1/3+z
x-y,-y,-z
-x,-x+y,2/3-z
y,x,1/3-z
-y,-x,1/3-z
-x+y,y,-z
x,x-y,2/3-z
loop_
_atom_site_type_symbol
_atom_site_label
_atom_site_fract_x
_atom_site_fract_y
_atom_site_fract_z
Si Si1 0.178327 0.171616 0.092861
Si Si2 0.204960 0.660392 0.456490
Si Si3 0.000000 0.000000 0.000000
Si Si4 0.191326 0.511966 0.053942
O O1 0.354667 0.204643 0.122524
O O2 0.174450 0.360080 0.093378
O O3 0.000000 0.000000 0.117993
O O4 0.176644 0.120585 0.034725
O O5 0.328394 0.656788 0.500000
O O6 0.289590 0.637868 0.405529
O O7 0.000000 0.500000 0.462938
O O8 0.000000 0.500000 0.052571
O O9 0.236912 0.473824 0.000000
#
# Coordination Sequence:
#
# PCOD8326368 Si02
#       4
#    12  12   3  12
#     4  10  21  43  75 106 145 185 234 302 380 438
#     4  12  28  48  69 101 146 198 249 302 366 442
#     4   8  20  40  74 110 154 164 240 292 396 420
#     4  12  24  42  72 109 147 187 244 303 361 436
#
# _framework density 23.138463999999999
#
# number of rings (size 3 to 8) (size 9 to 14) (size 15 to 20)
#    0.923    0.000    1.538    5.538    0.000    3.077 
#    0.000    1.538    0.000    0.000    0.000    0.000 
#    0.000    0.000    0.000    0.000    0.000    0.000 
#
# Total GULP energy -483445.306254 kJ/mol
# GULP energy per Si atom -12396.033494 kJ/mol
# Density = 2.308580 g / cm^3
# Si number density = 23.138464 Si / 1000 Ang^3
#
#
#
# Elastic Constant Matrix: (Units=GPa)
#
#
# Indices 1 2 3 4 5 6 
#
# 1 196.6208 101.8345 47.9167 0.0000 0.0000 0.0000
# 2 101.8345 196.6208 47.9167 0.0000 0.0000 0.0000
# 3 47.9167 47.9167 67.4328 0.0000 0.0000 0.0000
# 4 0.0000 0.0000 0.0000 38.3176 0.0000 0.0000
# 5 0.0000 0.0000 0.0000 0.0000 38.3176 0.0000
# 6 0.0000 0.0000 0.0000 0.0000 0.0000 47.3931
#
#
#
# Elastic Compliance Matrix: (Units=1/GPa)
#
#
# Indices 1 2 3 4 5 6 
#
# 1 0.007446 -0.003104 -0.003085 0.000000 0.000000 0.000000
# 2 -0.003104 0.007446 -0.003085 0.000000 0.000000 0.000000
# 3 -0.003085 -0.003085 0.019213 0.000000 0.000000 0.000000
# 4 0.000000 0.000000 0.000000 0.026098 0.000000 0.000000
# 5 0.000000 0.000000 0.000000 0.000000 0.026098 0.000000
# 6 0.000000 0.000000 0.000000 0.000000 0.000000 0.021100
#
#
# Mechanical properties :
#
#
# Convention : Reuss Voigt Hill
#
# Bulk Modulus (GPa) = 64.28054 95.11225 79.69639
# Shear Modulus (GPa) = 38.12910 42.33942 40.23426
#
# Velocity S-wave (km/s) = 4.06380 4.28229 4.17447
# Velocity P-wave (km/s) = 7.06119 8.10220 7.59954
#
# Compressibility (1/GPa) = 0.01555681
#
# Stress axis : x y z
#
# Youngs Moduli (GPa) = 134.30820 134.30820 52.04685
#
# Poissons Ratio (x) = 0.41696 0.16055
# Poissons Ratio (y) = 0.41696 0.16055
# Poissons Ratio (z) = 0.41430 0.41430
#
# Static dielectric constant tensor:
#      x y z
#    x 4.753520 0.000000 0.000000 
#    y 0.000000 4.753520 0.000000 
#    z 0.000000 0.000000 9.126880 
# 
# 
# High freq. dielectric constant tensor:
#      x y z
#    x 1.920150 0.000000 0.000000 
#    y 0.000000 1.920150 0.000000 
#    z 0.000000 0.000000 1.919320 
# 
# From -- ./inp_files/11808.got.cif
#   From: 2010.03.12/outbox.cif.g09.slc.cpg/sg181_6_cif.got.tgz:11808.got - 2010.04.01 11:42:41.
