data_PCOD8326567
_publ_section_title
;
Structure prediction by ZEFSAII (Michael W. Deem and Ramdas Pophale) SiO2 
 PCOD8326567
Probable space group: P 6 C C
;
_chemical_formula_sum "Si O2"
_cell_formula_units_Z 56
_cell_length_a 17.459442
_cell_length_b 17.459442
_cell_length_c 14.234164
_cell_angle_alpha 90.000000
_cell_angle_beta 90.000000
_cell_angle_gamma 120.000000
_cell_volume 3757.710482
_symmetry_space_group_name_H-M "P 6 C C"
_symmetry_group_IT_number 184
_symmetry_cell_setting 'hexagonal'
loop_
_space_group_symop_operation_xyz
x,y,z
x-y,x,z
-y,x-y,z
-x,-y,z
-x+y,-x,z
y,-x+y,z
-x+y,y,1/2+z
x,x-y,1/2+z
-y,-x,1/2+z
y,x,1/2+z
x-y,-y,1/2+z
-x,-x+y,1/2+z
loop_
_atom_site_type_symbol
_atom_site_label
_atom_site_fract_x
_atom_site_fract_y
_atom_site_fract_z
Si Si1 0.228734 0.758987 0.086750
Si Si2 0.548627 0.903776 0.941041
Si Si3 0.666667 0.333334 0.328335
Si Si4 0.666668 0.333334 0.053743
Si Si5 0.530255 0.771266 0.795331
Si Si6 0.890416 0.529658 0.941039
O O1 0.261074 0.688142 0.093770
O O2 0.214072 0.785929 0.191040
O O3 0.135526 0.708392 0.031944
O O4 0.302225 0.846020 0.033218
O O5 0.572866 0.864473 0.850138
O O6 0.445508 0.876910 0.941038
O O7 0.611979 0.007953 0.941041
O O8 0.666668 0.333334 0.441039
O O9 0.738923 0.427069 0.288309
O O10 0.543797 0.697775 0.848859
#
# Coordination Sequence:
#
# PCOD8326567 Si02
#       6
#    12  12   4   4  12  12
#     4  11  19  30  47  63  83 116 153 190 226 261
#     4  10  20  32  43  62  90 115 146 189 229 263
#     4  12  16  29  43  61  86 115 157 188 220 262
#     4  12  16  29  43  61  86 115 157 188 220 262
#     4  11  19  30  47  63  83 116 153 190 226 261
#     4  10  20  32  43  62  90 115 146 189 229 263
#
# _framework density 14.902692
#
# number of rings (size 3 to 8) (size 9 to 14) (size 15 to 20)
#    0.000    1.286    8.571    1.286    0.000    1.714 
#    0.000    4.286    0.000    0.000    0.000    0.000 
#    0.000    0.000    0.000   41.143    0.000   89.143 
#
# Total GULP energy -694220.755516 kJ/mol
# GULP energy per Si atom -12396.799206 kJ/mol
# Density = 1.486877 g / cm^3
# Si number density = 14.902692 Si / 1000 Ang^3
#
#
#
# Elastic Constant Matrix: (Units=GPa)
#
#
# Indices 1 2 3 4 5 6 
#
# 1 73.6425 32.2081 37.3867 0.0000 -0.0001 0.0000
# 2 32.2081 73.6425 37.3867 0.0000 0.0000 0.0000
# 3 37.3867 37.3867 146.8997 0.0000 0.0001 0.0000
# 4 0.0000 0.0000 0.0000 11.4893 0.0000 0.0000
# 5 -0.0001 0.0000 0.0001 0.0000 11.4893 0.0000
# 6 0.0000 0.0000 0.0000 0.0000 0.0000 20.7171
#
#
#
# Elastic Compliance Matrix: (Units=1/GPa)
#
#
# Indices 1 2 3 4 5 6 
#
# 1 0.017826 -0.006308 -0.002931 0.000000 0.000000 0.000000
# 2 -0.006308 0.017826 -0.002931 0.000000 0.000000 0.000000
# 3 -0.002931 -0.002931 0.008299 0.000000 0.000000 0.000000
# 4 0.000000 0.000000 0.000000 0.087038 0.000000 0.000000
# 5 0.000000 0.000000 0.000000 0.000000 0.087038 0.000000
# 6 0.000000 0.000000 0.000000 0.000000 0.000000 0.048269
#
#
# Mechanical properties :
#
#
# Convention : Reuss Voigt Hill
#
# Bulk Modulus (GPa) = 50.99451 56.46084 53.72767
# Shear Modulus (GPa) = 16.82509 21.21935 19.02222
#
# Velocity S-wave (km/s) = 3.36370 3.77750 3.57659
# Velocity P-wave (km/s) = 7.02699 7.54948 7.29291
#
# Compressibility (1/GPa) = 0.01960996
#
# Stress axis : x y z
#
# Youngs Moduli (GPa) = 56.09693 56.09694 120.48956
#
# Poissons Ratio (x) = 0.35387 0.35320
# Poissons Ratio (y) = 0.35387 0.35320
# Poissons Ratio (z) = 0.16444 0.16444
#
# Static dielectric constant tensor:
#      x y z
#    x 2.705200 0.000000 -0.000010 
#    y 0.000000 2.705190 0.000000 
#    z -0.000010 0.000000 3.146180 
# 
# 
# High freq. dielectric constant tensor:
#      x y z
#    x 1.539270 0.000000 0.000000 
#    y 0.000000 1.539270 0.000000 
#    z 0.000000 0.000000 1.583580 
# 
# From -- ./inp_files/869.got.cif
#   From: 2010.03.12/outbox.cif.g09.slc.cpg/sg184_cif.got.tgz:869.got - 2010.04.01 11:54:36.
