data_PCOD8326081
_publ_section_title
;
Structure prediction by ZEFSAII (Michael W. Deem and Ramdas Pophale) SiO2 
 PCOD8326081
Probable space group: P 65 2 2
;
_chemical_formula_sum "Si O2"
_cell_formula_units_Z 48
_cell_length_a 14.039660
_cell_length_b 14.039660
_cell_length_c 12.868801
_cell_angle_alpha 90.000000
_cell_angle_beta 90.000000
_cell_angle_gamma 120.000000
_cell_volume 2196.756388
_symmetry_space_group_name_H-M "P 65 2 2"
_symmetry_group_IT_number 179
_symmetry_cell_setting 'hexagonal'
loop_
_space_group_symop_operation_xyz
x,y,z
x-y,x,5/6+z
-y,x-y,2/3+z
-x,-y,1/2+z
-x+y,-x,1/3+z
y,-x+y,1/6+z
x-y,-y,-z
-x,-x+y,1/3-z
y,x,2/3-z
-y,-x,1/6-z
-x+y,y,1/2-z
x,x-y,5/6-z
loop_
_atom_site_type_symbol
_atom_site_label
_atom_site_fract_x
_atom_site_fract_y
_atom_site_fract_z
Si Si1 0.494476 0.894954 0.067104
Si Si2 0.309446 0.093339 0.077207
Si Si3 0.487432 0.243716 0.916667
Si Si4 0.199614 0.399228 0.250000
Si Si5 0.297188 0.306767 0.547421
O O1 0.372469 0.814547 0.108782
O O2 0.570193 0.936062 0.169474
O O3 0.524622 0.819928 0.995776
O O4 0.508728 0.000000 0.000000
O O5 0.258347 0.165227 0.122623
O O6 0.338308 0.032154 0.168075
O O7 0.418453 0.182507 0.018517
O O8 0.223081 0.000000 0.000000
O O9 0.090547 0.316285 0.310072
#
# Coordination Sequence:
#
# PCOD8326081 Si02
#       5
#    12  12   6   6  12
#     4  10  24  45  71 104 144 186 247 293 366 434
#     4  12  24  45  72  99 142 188 241 288 375 419
#     4  12  26  46  68 109 143 198 242 300 350 460
#     4  10  22  48  70 109 139 190 240 298 374 424
#     4  11  23  46  77  99 142 192 231 308 352 441
#
# _framework density 21.850398999999999
#
# number of rings (size 3 to 8) (size 9 to 14) (size 15 to 20)
#    0.000    1.000    5.000    0.750    0.000    3.000 
#    4.500    0.000   11.000    0.000    0.000    0.000 
#    0.000    0.000    0.000    0.000    0.000    0.000 
#
# Total GULP energy -595196.893167 kJ/mol
# GULP energy per Si atom -12399.935274 kJ/mol
# Density = 2.180067 g / cm^3
# Si number density = 21.850399 Si / 1000 Ang^3
#
#
#
# Elastic Constant Matrix: (Units=GPa)
#
#
# Indices 1 2 3 4 5 6 
#
# 1 141.5894 76.3226 58.7859 0.0000 0.0000 0.0000
# 2 76.3226 141.5894 58.7859 0.0000 0.0000 0.0000
# 3 58.7859 58.7859 134.9297 0.0000 0.0000 0.0000
# 4 0.0000 0.0000 0.0000 30.9068 0.0000 0.0000
# 5 0.0000 0.0000 0.0000 0.0000 30.9068 0.0000
# 6 0.0000 0.0000 0.0000 0.0000 0.0000 32.6334
#
#
#
# Elastic Compliance Matrix: (Units=1/GPa)
#
#
# Indices 1 2 3 4 5 6 
#
# 1 0.010660 -0.004661 -0.002614 0.000000 0.000000 0.000000
# 2 -0.004661 0.010660 -0.002614 0.000000 0.000000 0.000000
# 3 -0.002614 -0.002614 0.009689 0.000000 0.000000 0.000000
# 4 0.000000 0.000000 0.000000 0.032355 0.000000 0.000000
# 5 0.000000 0.000000 0.000000 0.000000 0.032355 0.000000
# 6 0.000000 0.000000 0.000000 0.000000 0.000000 0.030643
#
#
# Mechanical properties :
#
#
# Convention : Reuss Voigt Hill
#
# Bulk Modulus (GPa) = 89.02917 89.54418 89.28668
# Shear Modulus (GPa) = 33.35882 33.83700 33.59791
#
# Velocity S-wave (km/s) = 3.91153 3.93946 3.92552
# Velocity P-wave (km/s) = 7.82518 7.85888 7.84205
#
# Compressibility (1/GPa) = 0.01123227
#
# Stress axis : x y z
#
# Youngs Moduli (GPa) = 93.80453 93.80453 103.21244
#
# Poissons Ratio (x) = 0.43725 0.26977
# Poissons Ratio (y) = 0.43725 0.26977
# Poissons Ratio (z) = 0.24518 0.24518
#
# Static dielectric constant tensor:
#      x y z
#    x 4.143230 0.000000 0.000000 
#    y 0.000000 4.143230 0.000000 
#    z 0.000000 0.000000 4.358870 
# 
# 
# High freq. dielectric constant tensor:
#      x y z
#    x 1.855460 0.000000 0.000000 
#    y 0.000000 1.855460 0.000000 
#    z 0.000000 0.000000 1.878500 
# 
# From -- ./inp_files/4324.got.cif
#   From: 2010.03.12/outbox.cif.g09.slc.cpg/sg179_3_cif.got.tgz:4324.got - 2010.04.02 07:08:42.
