data_PCOD8326896
_publ_section_title
;
Structure prediction by ZEFSAII (Michael W. Deem and Ramdas Pophale) SiO2 
 PCOD8326896
Probable space group: P -6 M 2
;
_chemical_formula_sum "Si O2"
_cell_formula_units_Z 96
_cell_length_a 17.689150
_cell_length_b 17.689150
_cell_length_c 24.872400
_cell_angle_alpha 90.000000
_cell_angle_beta 90.000000
_cell_angle_gamma 120.000000
_cell_volume 6740.036594
_symmetry_space_group_name_H-M "P -6 M 2"
_symmetry_group_IT_number 187
_symmetry_cell_setting 'hexagonal'
loop_
_space_group_symop_operation_xyz
x,y,z
-x+y,-x,-z
-y,x-y,z
x,y,-z
-x+y,-x,z
-y,x-y,-z
-y,-x,-z
-x+y,y,-z
x,x-y,-z
-x+y,y,z
x,x-y,z
-y,-x,z
loop_
_atom_site_type_symbol
_atom_site_label
_atom_site_fract_x
_atom_site_fract_y
_atom_site_fract_z
Si Si1 0.257537 0.341229 0.862814
Si Si2 0.499130 0.834030 0.938726
Si Si3 0.157503 0.667470 0.326912
Si Si4 0.759784 0.695970 0.939563
Si Si5 0.835508 0.333285 0.216919
Si Si6 0.837777 0.333458 0.090547
Si Si7 0.397855 0.971258 0.231154
Si Si8 0.507104 0.668214 0.443178
O O1 0.161017 0.322034 0.846066
O O2 0.299014 0.410896 0.909434
O O3 0.251296 0.256071 0.891538
O O4 0.322039 0.379083 0.812534
O O5 0.426672 0.853343 0.913401
O O6 0.462044 0.731022 0.933135
O O7 0.517127 0.864336 0.000000
O O8 0.181299 0.590650 0.328545
O O9 0.243845 0.756155 0.309434
O O10 0.082018 0.646984 0.284701
O O11 0.121579 0.677197 0.386051
O O12 0.853872 0.707743 0.926905
O O13 0.686438 0.593540 0.938067
O O14 0.758056 0.730690 0.000000
O O15 0.801960 0.400980 0.229777
O O16 0.762233 0.237768 0.237342
O O17 0.852829 0.333306 0.153890
O O18 0.927278 0.362887 0.246166
O O19 0.854333 0.427167 0.070650
O O20 0.739118 0.260883 0.075365
O O21 0.478214 0.956428 0.212019
O O22 0.562118 0.685642 0.500000
O O23 0.471156 0.735578 0.440073
O O24 0.427919 0.572082 0.447297
#
# Coordination Sequence:
#
# PCOD8326896 Si02
#       8
#    12  12  12  12  12  12  12  12
#     4  11  21  32  46  61  76  97 127 158 188 226
#     4   9  17  28  41  56  74  96 122 152 182 209
#     4   9  16  25  36  52  78 113 149 180 208 236
#     4  10  21  35  48  61  77  96 118 150 196 242
#     4   9  16  27  44  63  82 103 127 154 186 228
#     4   9  16  27  43  63  84 104 123 143 175 226
#     4  10  19  29  41  59  85 112 135 161 193 230
#     4   8  12  18  30  48  70  99 138 181 217 244
#
# _framework density 14.243245999999999
#
# number of rings (size 3 to 8) (size 9 to 14) (size 15 to 20)
#    0.000    2.625    1.250    1.750    0.000    4.500 
#    0.000    0.000    0.000    5.000    0.000    0.000 
#    0.000    0.500    0.000    0.375    0.000    5.250 
#
# Total GULP energy -1189259.992323 kJ/mol
# GULP energy per Si atom -12388.124920 kJ/mol
# Density = 1.421083 g / cm^3
# Si number density = 14.243246 Si / 1000 Ang^3
#
#
#
# Elastic Constant Matrix: (Units=GPa)
#
#
# Indices 1 2 3 4 5 6 
#
# 1 64.0015 31.3790 36.7607 0.0000 -0.0001 0.0000
# 2 31.3790 64.0015 36.7607 0.0000 0.0001 0.0000
# 3 36.7607 36.7607 84.8101 0.0000 0.0000 0.0000
# 4 0.0000 0.0000 0.0000 12.4970 0.0000 0.0001
# 5 -0.0001 0.0001 0.0000 0.0000 12.4970 0.0000
# 6 0.0000 0.0000 0.0000 0.0001 0.0000 16.3112
#
#
#
# Elastic Compliance Matrix: (Units=1/GPa)
#
#
# Indices 1 2 3 4 5 6 
#
# 1 0.023199 -0.007454 -0.006825 0.000000 0.000000 0.000000
# 2 -0.007454 0.023199 -0.006825 0.000000 0.000000 0.000000
# 3 -0.006825 -0.006825 0.017707 0.000000 0.000000 0.000000
# 4 0.000000 0.000000 0.000000 0.080019 0.000000 0.000000
# 5 0.000000 0.000000 0.000000 0.000000 0.080019 0.000000
# 6 0.000000 0.000000 0.000000 0.000000 0.000000 0.061307
#
#
# Mechanical properties :
#
#
# Convention : Reuss Voigt Hill
#
# Bulk Modulus (GPa) = 45.66486 46.95709 46.31097
# Shear Modulus (GPa) = 14.92722 15.45522 15.19122
#
# Velocity S-wave (km/s) = 3.24083 3.29765 3.26936
# Velocity P-wave (km/s) = 6.79222 6.89484 6.84372
#
# Compressibility (1/GPa) = 0.02189868
#
# Stress axis : x y z
#
# Youngs Moduli (GPa) = 43.10478 43.10478 56.47416
#
# Poissons Ratio (x) = 0.32132 0.38541
# Poissons Ratio (y) = 0.32132 0.38541
# Poissons Ratio (z) = 0.29417 0.29417
#
# Static dielectric constant tensor:
#      x y z
#    x 2.746680 0.000000 0.000000 
#    y 0.000000 2.746680 0.000000 
#    z 0.000000 0.000000 2.918980 
# 
# 
# High freq. dielectric constant tensor:
#      x y z
#    x 1.523360 0.000000 0.000000 
#    y 0.000000 1.523360 0.000000 
#    z 0.000000 0.000000 1.525790 
# 
# From -- ./inp_files/4102.got.cif
#   From: 2010.03.12/outbox.cif.g09.slc.cpg/sg187_3_cif.got.tgz:4102.got - 2010.04.01 11:58:23.
