data_PCOD8326518
_publ_section_title
;
Structure prediction by ZEFSAII (Michael W. Deem and Ramdas Pophale) SiO2 
 PCOD8326518
Probable space group: P 6 M M
;
_chemical_formula_sum "Si O2"
_cell_formula_units_Z 72
_cell_length_a 17.892728
_cell_length_b 17.892728
_cell_length_c 15.614018
_cell_angle_alpha 90.000000
_cell_angle_beta 90.000000
_cell_angle_gamma 120.000000
_cell_volume 4329.108068
_symmetry_space_group_name_H-M "P 6 M M"
_symmetry_group_IT_number 183
_symmetry_cell_setting 'hexagonal'
loop_
_space_group_symop_operation_xyz
x,y,z
x-y,x,z
-y,x-y,z
-x,-y,z
-x+y,-x,z
y,-x+y,z
-x+y,y,z
x,x-y,z
-y,-x,z
y,x,z
x-y,-y,z
-x,-x+y,z
loop_
_atom_site_type_symbol
_atom_site_label
_atom_site_fract_x
_atom_site_fract_y
_atom_site_fract_z
Si Si1 0.834115 0.331216 0.604290
Si Si2 0.633627 0.532820 0.426459
Si Si3 0.368796 0.267124 0.942354
Si Si4 0.631205 0.732877 0.266228
Si Si5 0.532819 0.633627 0.782122
Si Si6 0.366547 0.467555 0.104292
O O1 0.859771 0.429886 0.604290
O O2 0.731635 0.268366 0.604289
O O3 0.873542 0.315728 0.517450
O O4 0.873540 0.315727 0.691132
O O5 0.571611 0.428390 0.416192
O O6 0.573336 0.573336 0.421672
O O7 0.702826 0.572791 0.351136
O O8 0.324845 0.162423 0.947311
O O9 0.294929 0.294929 0.943833
O O10 0.427209 0.297174 0.857446
O O11 0.435335 0.307441 0.020495
O O12 0.675158 0.837579 0.261273
O O13 0.705072 0.705072 0.264749
O O14 0.564667 0.692563 0.188086
O O15 0.428390 0.571611 0.792390
O O16 0.573336 0.573336 0.786907
O O17 0.427766 0.572235 0.104293
O O18 0.428729 0.428729 0.104294
#
# Coordination Sequence:
#
# PCOD8326518 Si02
#       6
#    12  12  12  12  12  12
#     4  10  18  27  39  57  84 115 145 175 211 258
#     4   9  17  29  45  63  83 111 147 185 224 267
#     4  10  19  31  48  69  92 119 153 191 229 269
#     4  10  19  31  48  69  92 119 153 191 229 269
#     4   9  17  29  45  63  83 111 147 185 224 267
#     4   9  17  30  49  70  90 114 144 177 213 256
#
# _framework density 16.631602000000001
#
# number of rings (size 3 to 8) (size 9 to 14) (size 15 to 20)
#    0.000    2.500    0.000    3.167    0.000    6.000 
#    0.000    0.000    0.000   11.667    0.000    0.000 
#    0.000    4.000    0.000    0.000    0.000   34.667 
#
# Total GULP energy -892141.881290 kJ/mol
# GULP energy per Si atom -12390.859462 kJ/mol
# Density = 1.659375 g / cm^3
# Si number density = 16.631602 Si / 1000 Ang^3
#
#
#
# Elastic Constant Matrix: (Units=GPa)
#
#
# Indices 1 2 3 4 5 6 
#
# 1 61.7462 44.7158 35.0300 0.0000 0.0000 0.0000
# 2 44.7158 61.7462 35.0300 0.0000 0.0000 0.0000
# 3 35.0300 35.0300 148.4861 0.0000 0.0000 0.0000
# 4 0.0000 0.0000 0.0000 13.6313 0.0000 0.0000
# 5 0.0000 0.0000 0.0000 0.0000 13.6313 0.0000
# 6 0.0000 0.0000 0.0000 0.0000 0.0000 8.5152
#
#
#
# Elastic Compliance Matrix: (Units=1/GPa)
#
#
# Indices 1 2 3 4 5 6 
#
# 1 0.034919 -0.023800 -0.002623 0.000000 0.000000 0.000000
# 2 -0.023800 0.034919 -0.002623 0.000000 0.000000 0.000000
# 3 -0.002623 -0.002623 0.007972 0.000000 0.000000 0.000000
# 4 0.000000 0.000000 0.000000 0.073361 0.000000 0.000000
# 5 0.000000 0.000000 0.000000 0.000000 0.073361 0.000000
# 6 0.000000 0.000000 0.000000 0.000000 0.000000 0.117437
#
#
# Mechanical properties :
#
#
# Convention : Reuss Voigt Hill
#
# Bulk Modulus (GPa) = 50.71481 55.72559 53.22020
# Shear Modulus (GPa) = 12.29606 17.63571 14.96588
#
# Velocity S-wave (km/s) = 2.72199 3.25987 3.00300
# Velocity P-wave (km/s) = 6.35911 6.90996 6.64025
#
# Compressibility (1/GPa) = 0.01971810
#
# Stress axis : x y z
#
# Youngs Moduli (GPa) = 28.63770 28.63770 125.43363
#
# Poissons Ratio (x) = 0.68157 0.32904
# Poissons Ratio (y) = 0.68157 0.32904
# Poissons Ratio (z) = 0.07512 0.07512
#
# Static dielectric constant tensor:
#      x y z
#    x 2.873950 0.000000 0.000000 
#    y 0.000000 2.873950 0.000000 
#    z 0.000000 0.000000 3.586180 
# 
# 
# High freq. dielectric constant tensor:
#      x y z
#    x 1.610560 0.000000 0.000000 
#    y 0.000000 1.610560 0.000000 
#    z 0.000000 0.000000 1.667760 
# 
# From -- ./inp_files/2480.got.cif
#   From: 2010.03.12/outbox.cif.g09.slc.cpg/sg183_2_cif.got.tgz:2480.got - 2010.04.01 11:53:02.
