data_PCOD8326895
_publ_section_title
;
Structure prediction by ZEFSAII (Michael W. Deem and Ramdas Pophale) SiO2 
 PCOD8326895
Probable space group: P -6 M 2
;
_chemical_formula_sum "Si O2"
_cell_formula_units_Z 66
_cell_length_a 17.304706
_cell_length_b 17.304706
_cell_length_c 15.657121
_cell_angle_alpha 90.000000
_cell_angle_beta 90.000000
_cell_angle_gamma 120.000000
_cell_volume 4060.420296
_symmetry_space_group_name_H-M "P -6 M 2"
_symmetry_group_IT_number 187
_symmetry_cell_setting 'hexagonal'
loop_
_space_group_symop_operation_xyz
x,y,z
-x+y,-x,-z
-y,x-y,z
x,y,-z
-x+y,-x,z
-y,x-y,-z
-y,-x,-z
-x+y,y,-z
x,x-y,-z
-x+y,y,z
x,x-y,z
-y,-x,z
loop_
_atom_site_type_symbol
_atom_site_label
_atom_site_fract_x
_atom_site_fract_y
_atom_site_fract_z
Si Si1 0.611508 0.039628 0.839117
Si Si2 0.085465 0.741825 0.500000
Si Si3 0.502815 0.666515 0.373478
Si Si4 0.849470 0.515732 0.675767
Si Si5 0.508937 0.842092 0.827944
Si Si6 0.484076 0.151726 0.000000
Si Si7 0.894487 0.284113 0.500000
O O1 0.517285 0.034570 0.837960
O O2 0.660389 0.081513 0.749015
O O3 0.590987 0.938426 0.856495
O O4 0.672552 0.100515 0.916277
O O5 0.150277 0.849724 0.500000
O O6 0.100686 0.698297 0.584156
O O7 0.981202 0.709810 0.500000
O O8 0.468670 0.734335 0.400158
O O9 0.431509 0.568492 0.407282
O O10 0.512095 0.665906 0.273208
O O11 0.756350 0.512699 0.689282
O O12 0.830956 0.415478 0.683301
O O13 0.891555 0.554657 0.583401
O O14 0.413003 0.826006 0.860894
O O15 0.522686 0.761343 0.862528
O O16 0.579230 0.158459 0.000000
O O17 0.500932 0.250466 0.000000
O O18 0.815369 0.184632 0.500000
#
# Coordination Sequence:
#
# PCOD8326895 Si02
#       7
#    12   6  12  12  12   6   6
#     4   9  18  30  45  65  89 115 147 186 224 256
#     4  10  19  29  41  58  79 109 146 184 225 269
#     4   9  16  24  37  58  86 117 148 178 208 242
#     4  10  19  31  46  65  90 122 155 184 214 256
#     4   9  16  27  42  61  86 119 154 185 215 253
#     4  10  19  32  49  68  88 112 142 180 225 272
#     4  10  21  33  45  62  87 115 144 182 225 261
#
# _framework density 16.254473999999998
#
# number of rings (size 3 to 8) (size 9 to 14) (size 15 to 20)
#    0.000    2.545    0.000    2.818    0.000    4.364 
#    0.000    4.091    0.000    0.182    0.000    1.273 
#    0.000    0.000    0.000    7.636    0.000    2.909 
#
# Total GULP energy -817979.382063 kJ/mol
# GULP energy per Si atom -12393.627001 kJ/mol
# Density = 1.621748 g / cm^3
# Si number density = 16.254474 Si / 1000 Ang^3
#
#
#
# Elastic Constant Matrix: (Units=GPa)
#
#
# Indices 1 2 3 4 5 6 
#
# 1 77.3737 38.4543 27.2087 0.0000 -0.0002 0.0000
# 2 38.4543 77.3737 27.2087 0.0000 0.0002 0.0000
# 3 27.2087 27.2087 79.4778 0.0000 0.0000 0.0000
# 4 0.0000 0.0000 0.0000 -11.5028 0.0000 0.0002
# 5 -0.0002 0.0002 0.0000 0.0000 -11.5028 0.0000
# 6 0.0000 0.0000 0.0000 0.0002 0.0000 19.4597
#
#
#
# Elastic Compliance Matrix: (Units=1/GPa)
#
#
# Indices 1 2 3 4 5 6 
#
# 1 0.017991 -0.007703 -0.003522 0.000000 -0.000001 0.000000
# 2 -0.007703 0.017991 -0.003522 0.000000 0.000001 0.000000
# 3 -0.003522 -0.003522 0.014994 0.000000 0.000000 0.000000
# 4 0.000000 0.000000 0.000000 -0.086935 0.000000 0.000001
# 5 -0.000001 0.000001 0.000000 0.000000 -0.086935 0.000000
# 6 0.000000 0.000000 0.000000 0.000001 0.000000 0.051388
#
#
# Mechanical properties :
#
#
# Convention : Reuss Voigt Hill
#
# Bulk Modulus (GPa) = 46.55127 46.66318 46.60723
# Shear Modulus (GPa) = -143.46698 8.71437 -67.37631
#
# Velocity S-wave (km/s) = -9.40504 2.31794 -6.44522
# Velocity P-wave (km/s) = 9.44661 5.99450 5.16257
#
# Compressibility (1/GPa) = 0.02148169
#
# Stress axis : x y z
#
# Youngs Moduli (GPa) = 55.58281 55.58281 66.69476
#
# Poissons Ratio (x) = 0.42815 0.23491
# Poissons Ratio (y) = 0.42815 0.23491
# Poissons Ratio (z) = 0.19577 0.19577
#
# Static dielectric constant tensor:
#      x y z
#    x 3.051840 0.000000 0.000000 
#    y 0.000000 3.051840 0.000000 
#    z 0.000000 0.000000 3.834340 
# 
# 
# High freq. dielectric constant tensor:
#      x y z
#    x 1.603070 0.000000 0.000000 
#    y 0.000000 1.603070 0.000000 
#    z 0.000000 0.000000 1.628120 
# 
# From -- ./inp_files/2517.got.cif
#   From: 2010.03.12/outbox.cif.g09.slc.cpg/sg187_2_cif.got.tgz:2517.got - 2010.04.01 11:58:23.
