data_PCOD8326413
_publ_section_title
;
Structure prediction by ZEFSAII (Michael W. Deem and Ramdas Pophale) SiO2 
 PCOD8326413
Probable space group: P 64 2 2
;
_chemical_formula_sum "Si O2"
_cell_formula_units_Z 60
_cell_length_a 13.848487
_cell_length_b 13.848487
_cell_length_c 17.630405
_cell_angle_alpha 90.000000
_cell_angle_beta 90.000000
_cell_angle_gamma 120.000000
_cell_volume 2928.178691
_symmetry_space_group_name_H-M "P 64 2 2"
_symmetry_group_IT_number 181
_symmetry_cell_setting 'hexagonal'
loop_
_space_group_symop_operation_xyz
x,y,z
x-y,x,2/3+z
-y,x-y,1/3+z
-x,-y,z
-x+y,-x,2/3+z
y,-x+y,1/3+z
x-y,-y,-z
-x,-x+y,2/3-z
y,x,1/3-z
-y,-x,1/3-z
-x+y,y,-z
x,x-y,2/3-z
loop_
_atom_site_type_symbol
_atom_site_label
_atom_site_fract_x
_atom_site_fract_y
_atom_site_fract_z
Si Si1 0.421731 0.239767 0.523939
Si Si2 0.126981 0.541907 0.414231
Si Si3 0.669713 0.143605 0.615072
Si Si4 0.429191 0.325260 0.013808
Si Si5 0.271620 0.928724 0.179582
O O1 0.534572 0.359062 0.524700
O O2 0.453286 0.165864 0.471046
O O3 0.390987 0.180990 0.606943
O O4 0.321031 0.259585 0.495731
O O5 0.189407 0.594704 0.333334
O O6 0.130839 0.436163 0.446510
O O7 0.000000 0.500000 0.400330
O O8 0.767391 0.232610 0.666667
O O9 0.557661 0.147622 0.630842
O O10 0.651422 0.022584 0.629886
O O11 0.412243 0.306820 0.924237
O O12 0.136661 0.863340 0.166667
#
# Coordination Sequence:
#
# PCOD8326413 Si02
#       5
#    12  12  12  12  12
#     4  11  22  39  62  92 128 172 218 275 329 397
#     4   9  19  35  57  84 124 166 210 265 324 387
#     4  11  22  41  66  92 129 168 215 268 329 399
#     4  11  24  39  65  96 126 172 217 267 332 401
#     4  11  23  39  62  92 131 174 219 274 336 391
#
# _framework density 20.490553999999999
#
# number of rings (size 3 to 8) (size 9 to 14) (size 15 to 20)
#    0.000    1.400    2.000    3.600    5.600    8.000 
#    0.000    0.000    0.000    2.400    0.000    0.000 
#    0.000    0.000    0.000    0.000    0.000    0.000 
#
# Total GULP energy -743337.021182 kJ/mol
# GULP energy per Si atom -12388.950353 kJ/mol
# Density = 2.044392 g / cm^3
# Si number density = 20.490554 Si / 1000 Ang^3
#
#
#
# Elastic Constant Matrix: (Units=GPa)
#
#
# Indices 1 2 3 4 5 6 
#
# 1 100.5891 51.7013 33.7611 0.0000 0.0000 0.0000
# 2 51.7013 100.5891 33.7611 0.0000 0.0000 0.0000
# 3 33.7611 33.7611 102.0587 0.0000 0.0000 0.0000
# 4 0.0000 0.0000 0.0000 38.4350 0.0000 0.0000
# 5 0.0000 0.0000 0.0000 0.0000 38.4350 0.0000
# 6 0.0000 0.0000 0.0000 0.0000 0.0000 24.4439
#
#
#
# Elastic Compliance Matrix: (Units=1/GPa)
#
#
# Indices 1 2 3 4 5 6 
#
# 1 0.014075 -0.006380 -0.002546 0.000000 0.000000 0.000000
# 2 -0.006380 0.014075 -0.002546 0.000000 0.000000 0.000000
# 3 -0.002546 -0.002546 0.011482 0.000000 0.000000 0.000000
# 4 0.000000 0.000000 0.000000 0.026018 0.000000 0.000000
# 5 0.000000 0.000000 0.000000 0.000000 0.026018 0.000000
# 6 0.000000 0.000000 0.000000 0.000000 0.000000 0.040910
#
#
# Mechanical properties :
#
#
# Convention : Reuss Voigt Hill
#
# Bulk Modulus (GPa) = 59.91477 60.18710 60.05094
# Shear Modulus (GPa) = 31.03972 32.53032 31.78502
#
# Velocity S-wave (km/s) = 3.89630 3.98876 3.94280
# Velocity P-wave (km/s) = 7.03884 7.11692 7.07799
#
# Compressibility (1/GPa) = 0.01669037
#
# Stress axis : x y z
#
# Youngs Moduli (GPa) = 71.04783 71.04783 87.08978
#
# Poissons Ratio (x) = 0.45328 0.22169
# Poissons Ratio (y) = 0.45328 0.22169
# Poissons Ratio (z) = 0.18085 0.18085
#
# Static dielectric constant tensor:
#      x y z
#    x 3.571430 0.000000 0.000000 
#    y 0.000000 3.571430 0.000000 
#    z 0.000000 0.000000 4.313240 
# 
# 
# High freq. dielectric constant tensor:
#      x y z
#    x 1.788300 0.000000 0.000000 
#    y 0.000000 1.788300 0.000000 
#    z 0.000000 0.000000 1.823170 
# 
# From -- ./inp_files/6121.got.cif
#   From: 2010.03.12/outbox.cif.g09.slc.cpg/sg181_4_cif.got.tgz:6121.got - 2010.04.01 11:42:41.
