data_PCOD8326057
_publ_section_title
;
Structure prediction by ZEFSAII (Michael W. Deem and Ramdas Pophale) SiO2 
 PCOD8326057
Probable space group: P 65 2 2
;
_chemical_formula_sum "Si O2"
_cell_formula_units_Z 96
_cell_length_a 14.223869
_cell_length_b 14.223869
_cell_length_c 27.767826
_cell_angle_alpha 90.000000
_cell_angle_beta 90.000000
_cell_angle_gamma 120.000000
_cell_volume 4865.281786
_symmetry_space_group_name_H-M "P 65 2 2"
_symmetry_group_IT_number 179
_symmetry_cell_setting 'hexagonal'
loop_
_space_group_symop_operation_xyz
x,y,z
x-y,x,5/6+z
-y,x-y,2/3+z
-x,-y,1/2+z
-x+y,-x,1/3+z
y,-x+y,1/6+z
x-y,-y,-z
-x,-x+y,1/3-z
y,x,2/3-z
-y,-x,1/6-z
-x+y,y,1/2-z
x,x-y,5/6-z
loop_
_atom_site_type_symbol
_atom_site_label
_atom_site_fract_x
_atom_site_fract_y
_atom_site_fract_z
Si Si1 0.775327 0.542582 0.866656
Si Si2 0.039726 0.790031 0.428810
Si Si3 0.408764 0.979575 0.211649
Si Si4 0.788896 0.290174 0.860948
Si Si5 0.305333 0.414156 0.225260
Si Si6 0.917527 0.726038 0.520354
Si Si7 0.746684 0.334076 0.470218
Si Si8 0.562066 0.453670 0.811770
O O1 0.772865 0.477961 0.914642
O O2 0.835702 0.516116 0.823400
O O3 0.657540 0.518110 0.850476
O O4 0.847358 0.670077 0.877810
O O5 0.980403 0.670288 0.406079
O O6 0.959326 0.791374 0.469507
O O7 0.081468 0.879547 0.385691
O O8 0.488326 0.976652 0.250000
O O9 0.363241 0.868346 0.180425
O O10 0.475021 0.089077 0.179804
O O11 0.784558 0.180133 0.843842
O O12 0.693419 0.303157 0.837329
O O13 0.193496 0.386992 0.250000
O O14 0.294901 0.299526 0.213844
O O15 0.406421 0.488409 0.259672
O O16 0.745552 0.372776 0.416667
O O17 0.670387 0.204473 0.474061
O O18 0.458791 0.458791 0.833334
#
# Coordination Sequence:
#
# PCOD8326057 Si02
#       8
#    12  12  12  12  12  12  12  12
#     4   8  17  32  52  79 103 149 195 236 287 342
#     4   9  17  29  53  75 111 147 195 246 294 349
#     4   9  19  35  53  80 112 149 194 257 297 343
#     4  10  21  35  58  81 111 153 201 254 293 346
#     4   9  17  32  53  81 118 155 184 231 297 372
#     4   9  16  31  50  81 107 153 195 241 303 351
#     4  11  23  38  54  84 117 158 199 246 298 358
#     4  11  21  35  51  78 120 157 190 223 287 367
#
# _framework density 19.731641
#
# number of rings (size 3 to 8) (size 9 to 14) (size 15 to 20)
#    0.000    2.750    0.000    4.125    3.500    0.000 
#    6.750    0.000    0.000    0.000    0.000    7.000 
#    0.000    0.000    0.000    0.000    0.000    0.000 
#
# Total GULP energy -1189313.052792 kJ/mol
# GULP energy per Si atom -12388.677633 kJ/mol
# Density = 1.968673 g / cm^3
# Si number density = 19.731641 Si / 1000 Ang^3
#
#
#
# Elastic Constant Matrix: (Units=GPa)
#
#
# Indices 1 2 3 4 5 6 
#
# 1 105.8512 42.8279 44.1436 0.0000 0.0000 0.0000
# 2 42.8279 105.8512 44.1436 0.0000 0.0000 0.0000
# 3 44.1436 44.1436 100.6388 0.0000 0.0000 0.0000
# 4 0.0000 0.0000 0.0000 21.5709 0.0000 0.0000
# 5 0.0000 0.0000 0.0000 0.0000 21.5709 0.0000
# 6 0.0000 0.0000 0.0000 0.0000 0.0000 31.5116
#
#
#
# Elastic Compliance Matrix: (Units=1/GPa)
#
#
# Indices 1 2 3 4 5 6 
#
# 1 0.012481 -0.003386 -0.003989 0.000000 0.000000 0.000000
# 2 -0.003386 0.012481 -0.003989 0.000000 0.000000 0.000000
# 3 -0.003989 -0.003989 0.013436 0.000000 0.000000 0.000000
# 4 0.000000 0.000000 0.000000 0.046359 0.000000 0.000000
# 5 0.000000 0.000000 0.000000 0.000000 0.046359 0.000000
# 6 0.000000 0.000000 0.000000 0.000000 0.000000 0.031734
#
#
# Mechanical properties :
#
#
# Convention : Reuss Voigt Hill
#
# Bulk Modulus (GPa) = 63.82179 63.84125 63.83152
# Shear Modulus (GPa) = 26.20515 27.01244 26.60880
#
# Velocity S-wave (km/s) = 3.64823 3.70400 3.67622
# Velocity P-wave (km/s) = 7.08246 7.12165 7.10208
#
# Compressibility (1/GPa) = 0.01566863
#
# Stress axis : x y z
#
# Youngs Moduli (GPa) = 80.12206 80.12206 74.42594
#
# Poissons Ratio (x) = 0.27131 0.29691
# Poissons Ratio (y) = 0.27131 0.29691
# Poissons Ratio (z) = 0.31963 0.31963
#
# Static dielectric constant tensor:
#      x y z
#    x 3.651220 0.000000 0.000000 
#    y 0.000000 3.651220 0.000000 
#    z 0.000000 0.000000 3.862610 
# 
# 
# High freq. dielectric constant tensor:
#      x y z
#    x 1.749200 0.000000 0.000000 
#    y 0.000000 1.749200 0.000000 
#    z 0.000000 0.000000 1.766270 
# 
# From -- ./inp_files/9667.got.cif
#   From: 2010.03.12/outbox.cif.g09.slc.cpg/sg179_5_cif.got.tgz:9667.got - 2010.04.02 07:08:42.
