data_PCOD8326960
_publ_section_title
;
Structure prediction by ZEFSAII (Michael W. Deem and Ramdas Pophale) SiO2 
 PCOD8326960
Probable space group: P -6 M 2
;
_chemical_formula_sum "Si O2"
_cell_formula_units_Z 96
_cell_length_a 17.354619
_cell_length_b 17.354619
_cell_length_c 20.638125
_cell_angle_alpha 90.000000
_cell_angle_beta 90.000000
_cell_angle_gamma 120.000000
_cell_volume 5383.082523
_symmetry_space_group_name_H-M "P -6 M 2"
_symmetry_group_IT_number 187
_symmetry_cell_setting 'hexagonal'
loop_
_space_group_symop_operation_xyz
x,y,z
-x+y,-x,-z
-y,x-y,z
x,y,-z
-x+y,-x,z
-y,x-y,-z
-y,-x,-z
-x+y,y,-z
x,x-y,-z
-x+y,y,z
x,x-y,z
-y,-x,z
loop_
_atom_site_type_symbol
_atom_site_label
_atom_site_fract_x
_atom_site_fract_y
_atom_site_fract_z
Si Si1 0.666590 0.153354 0.804009
Si Si2 0.999788 0.177989 0.783316
Si Si3 0.608434 0.567346 0.927372
Si Si4 0.331156 0.487465 0.256816
Si Si5 0.644109 0.735737 0.860444
Si Si6 0.173738 0.000208 0.636233
Si Si7 0.424898 0.028712 0.311311
Si Si8 0.356585 0.089631 0.572873
O O1 0.587125 0.174249 0.795186
O O2 0.757897 0.242104 0.790987
O O3 0.666670 0.118437 0.876295
O O4 0.660230 0.079627 0.752803
O O5 0.905022 0.094979 0.804845
O O6 0.074576 0.149151 0.789925
O O7 0.022284 0.262663 0.826959
O O8 0.997384 0.206588 0.709086
O O9 0.504236 0.495765 0.916762
O O10 0.623824 0.666156 0.917912
O O11 0.638941 0.560298 0.000000
O O12 0.245749 0.491497 0.283508
O O13 0.413426 0.586575 0.247848
O O14 0.310038 0.438328 0.188405
O O15 0.353988 0.430575 0.307254
O O16 0.650881 0.825441 0.889309
O O17 0.096628 0.903373 0.616308
O O18 0.136197 0.068099 0.632150
O O19 0.252403 0.025776 0.585961
O O20 0.522951 0.045901 0.313992
O O21 0.413490 0.069060 0.377322
O O22 0.377219 0.071991 0.500000
O O23 0.383531 0.191766 0.582047
#
# Coordination Sequence:
#
# PCOD8326960 Si02
#       8
#    12  12  12  12  12  12  12  12
#     4  10  20  35  56  80 105 134 170 210 256 309
#     4   9  17  29  47  73 104 138 174 215 261 307
#     4  10  21  37  54  74 105 141 173 210 260 313
#     4  10  19  33  53  78 107 136 170 214 266 321
#     4  10  19  31  50  76 105 136 175 219 260 308
#     4   9  17  29  46  69 100 137 175 210 247 293
#     4  10  20  35  56  79 103 132 169 215 261 308
#     4  10  21  35  50  73 105 138 171 208 255 309
#
# _framework density 17.833648
#
# number of rings (size 3 to 8) (size 9 to 14) (size 15 to 20)
#    0.000    2.250    1.250    2.000    0.000    4.000 
#    0.000    0.000    0.000    2.000    0.000    0.000 
#    0.000    2.000    0.000    0.000    0.000    0.000 
#
# Total GULP energy -1190350.601309 kJ/mol
# GULP energy per Si atom -12399.485430 kJ/mol
# Density = 1.779306 g / cm^3
# Si number density = 17.833648 Si / 1000 Ang^3
#
#
#
# Elastic Constant Matrix: (Units=GPa)
#
#
# Indices 1 2 3 4 5 6 
#
# 1 87.7392 47.0105 44.1545 0.0000 0.0003 0.0000
# 2 47.0105 87.7392 44.1545 0.0000 -0.0003 0.0000
# 3 44.1545 44.1545 101.9886 0.0000 0.0000 0.0000
# 4 0.0000 0.0000 0.0000 23.2762 0.0000 -0.0003
# 5 0.0003 -0.0003 0.0000 0.0000 23.2762 0.0000
# 6 0.0000 0.0000 0.0000 -0.0003 0.0000 20.3644
#
#
#
# Elastic Compliance Matrix: (Units=1/GPa)
#
#
# Indices 1 2 3 4 5 6 
#
# 1 0.017457 -0.007096 -0.004486 0.000000 0.000000 0.000000
# 2 -0.007096 0.017457 -0.004486 0.000000 0.000000 0.000000
# 3 -0.004486 -0.004486 0.013689 0.000000 0.000000 0.000000
# 4 0.000000 0.000000 0.000000 0.042962 0.000000 0.000001
# 5 0.000000 0.000000 0.000000 0.000000 0.042962 0.000000
# 6 0.000000 0.000000 0.000000 0.000001 0.000000 0.049105
#
#
# Mechanical properties :
#
#
# Convention : Reuss Voigt Hill
#
# Bulk Modulus (GPa) = 60.72269 60.90063 60.81166
# Shear Modulus (GPa) = 22.59826 22.85986 22.72906
#
# Velocity S-wave (km/s) = 3.56359 3.58416 3.57389
# Velocity P-wave (km/s) = 7.14533 7.16601 7.15568
#
# Compressibility (1/GPa) = 0.01646831
#
# Stress axis : x y z
#
# Youngs Moduli (GPa) = 57.28443 57.28443 73.05169
#
# Poissons Ratio (x) = 0.40649 0.32768
# Poissons Ratio (y) = 0.40649 0.32768
# Poissons Ratio (z) = 0.25695 0.25695
#
# Static dielectric constant tensor:
#      x y z
#    x 3.321270 0.000000 0.000000 
#    y 0.000000 3.321270 0.000000 
#    z 0.000000 0.000000 3.122810 
# 
# 
# High freq. dielectric constant tensor:
#      x y z
#    x 1.693890 0.000000 0.000000 
#    y 0.000000 1.693890 0.000000 
#    z 0.000000 0.000000 1.663210 
# 
# From -- ./inp_files/3805.got.cif
#   From: 2010.03.12/outbox.cif.g09.slc.cpg/sg187_2_cif.got.tgz:3805.got - 2010.04.01 11:58:23.
