data_PCOD8326492
_publ_section_title
;
Structure prediction by ZEFSAII (Michael W. Deem and Ramdas Pophale) SiO2 
 PCOD8326492
Probable space group: P 63 2 2
;
_chemical_formula_sum "Si O2"
_cell_formula_units_Z 58
_cell_length_a 13.413429
_cell_length_b 13.413429
_cell_length_c 18.350250
_cell_angle_alpha 90.000000
_cell_angle_beta 90.000000
_cell_angle_gamma 120.000000
_cell_volume 2859.250769
_symmetry_space_group_name_H-M "P 63 2 2"
_symmetry_group_IT_number 182
_symmetry_cell_setting 'hexagonal'
loop_
_space_group_symop_operation_xyz
x,y,z
x-y,x,1/2+z
-y,x-y,z
-x,-y,1/2+z
-x+y,-x,z
y,-x+y,1/2+z
x-y,-y,-z
-x,-x+y,-z
y,x,-z
-y,-x,1/2-z
-x+y,y,1/2-z
x,x-y,1/2-z
loop_
_atom_site_type_symbol
_atom_site_label
_atom_site_fract_x
_atom_site_fract_y
_atom_site_fract_z
Si Si1 0.307518 0.307518 0.500000
Si Si2 0.534102 0.465899 0.750000
Si Si3 0.333334 0.666668 0.836822
Si Si4 0.887099 0.769528 0.168181
Si Si5 0.413147 0.206574 0.750000
Si Si6 0.102964 0.654480 0.639038
Si Si7 0.132131 0.253178 0.384168
O O1 0.354108 0.406331 0.559554
O O2 0.189783 0.297735 0.464313
O O3 0.488628 0.336748 0.779316
O O4 0.450505 0.460574 0.686657
O O5 0.333334 0.666667 0.750000
O O6 0.362008 0.788449 0.868232
O O7 0.908583 0.817166 0.250000
O O8 0.781724 0.638437 0.170904
O O9 0.859083 0.854542 0.123225
O O10 0.999817 0.778430 0.127989
O O11 0.339363 0.131325 0.819181
#
# Coordination Sequence:
#
# PCOD8326492 Si02
#       7
#     6   6   4  12   6  12  12
#     4  10  24  50  60 102 148 188 220 298 350 440
#     4  12  23  46  70 102 132 185 234 306 342 424
#     4  12  24  42  72 105 117 181 236 292 345 414
#     4  11  19  37  65 102 135 175 220 289 336 420
#     4  12  23  42  68 104 128 179 242 294 342 416
#     4  11  25  43  68  94 142 172 238 286 351 415
#     4  11  22  38  69  99 145 178 226 278 364 415
#
# _framework density 20.285034
#
# number of rings (size 3 to 8) (size 9 to 14) (size 15 to 20)
#    0.000    0.828    7.241    1.241    2.897    3.310 
#    3.724    0.000    0.000    0.000    0.000    0.000 
#    0.000    0.000    0.000    0.000    0.000    0.000 
#
# Total GULP energy -718745.894915 kJ/mol
# GULP energy per Si atom -12392.170602 kJ/mol
# Density = 2.023886 g / cm^3
# Si number density = 20.285034 Si / 1000 Ang^3
#
#
#
# Elastic Constant Matrix: (Units=GPa)
#
#
# Indices 1 2 3 4 5 6 
#
# 1 123.1996 50.2138 47.6899 -0.0002 -0.0005 0.0000
# 2 50.2138 123.1997 47.6901 0.0000 0.0001 -0.0002
# 3 47.6899 47.6901 141.3910 0.0000 -0.0002 0.0001
# 4 -0.0002 0.0000 0.0000 30.0590 0.0001 -0.0003
# 5 -0.0005 0.0001 -0.0002 0.0001 30.0580 0.0001
# 6 0.0000 -0.0002 0.0001 -0.0003 0.0001 36.4935
#
#
#
# Elastic Compliance Matrix: (Units=1/GPa)
#
#
# Indices 1 2 3 4 5 6 
#
# 1 0.010391 -0.003311 -0.002388 0.000000 0.000000 0.000000
# 2 -0.003311 0.010391 -0.002388 0.000000 0.000000 0.000000
# 3 -0.002388 -0.002388 0.008684 0.000000 0.000000 0.000000
# 4 0.000000 0.000000 0.000000 0.033268 0.000000 0.000000
# 5 0.000000 0.000000 0.000000 0.000000 0.033269 0.000000
# 6 0.000000 0.000000 0.000000 0.000000 0.000000 0.027402
#
#
# Mechanical properties :
#
#
# Convention : Reuss Voigt Hill
#
# Bulk Modulus (GPa) = 75.23647 75.44198 75.33922
# Shear Modulus (GPa) = 34.72036 35.46854 35.09445
#
# Velocity S-wave (km/s) = 4.14167 4.18605 4.16392
# Velocity P-wave (km/s) = 7.74864 7.78690 7.76779
#
# Compressibility (1/GPa) = 0.01329143
#
# Stress axis : x y z
#
# Youngs Moduli (GPa) = 96.24040 96.24040 115.16083
#
# Poissons Ratio (x) = 0.31862 0.27501
# Poissons Ratio (y) = 0.31862 0.27501
# Poissons Ratio (z) = 0.22982 0.22983
#
# Static dielectric constant tensor:
#      x y z
#    x 3.765770 0.000000 0.000000 
#    y 0.000000 3.765780 0.000000 
#    z 0.000000 0.000000 3.750270 
# 
# 
# High freq. dielectric constant tensor:
#      x y z
#    x 1.792910 0.000000 0.000000 
#    y 0.000000 1.792910 0.000000 
#    z 0.000000 0.000000 1.781550 
# 
# From -- ./inp_files/3522.got.cif
#   From: 2010.03.12/outbox.cif.g09.slc.cpg/sg182_2_cif.got.tgz:3522.got - 2010.04.01 11:49:36.
