data_PCOD8326944
_publ_section_title
;
Structure prediction by ZEFSAII (Michael W. Deem and Ramdas Pophale) SiO2 
 PCOD8326944
Probable space group: P -6 M 2
;
_chemical_formula_sum "Si O2"
_cell_formula_units_Z 72
_cell_length_a 24.202092
_cell_length_b 24.202092
_cell_length_c 8.930473
_cell_angle_alpha 90.000000
_cell_angle_beta 90.000000
_cell_angle_gamma 120.000000
_cell_volume 4530.132539
_symmetry_space_group_name_H-M "P -6 M 2"
_symmetry_group_IT_number 187
_symmetry_cell_setting 'hexagonal'
loop_
_space_group_symop_operation_xyz
x,y,z
-x+y,-x,-z
-y,x-y,z
x,y,-z
-x+y,-x,z
-y,x-y,-z
-y,-x,-z
-x+y,y,-z
x,x-y,-z
-x+y,y,z
x,x-y,z
-y,-x,z
loop_
_atom_site_type_symbol
_atom_site_label
_atom_site_fract_x
_atom_site_fract_y
_atom_site_fract_z
Si Si1 0.516383 0.032766 0.169279
Si Si2 0.087050 0.174100 0.332718
Si Si3 0.815809 0.407905 0.833637
Si Si4 0.150226 0.300451 0.827344
Si Si5 0.404932 0.370572 0.322326
Si Si6 0.837320 0.039239 0.327600
Si Si7 0.701261 0.730668 0.821082
Si Si8 0.821157 0.519578 0.673218
O O1 0.554185 0.108370 0.167491
O O2 0.558667 0.009050 0.257599
O O3 0.502682 0.005363 0.000000
O O4 0.102989 0.205978 0.500000
O O5 0.112681 0.225361 0.201286
O O6 0.125056 0.135360 0.314045
O O7 0.791743 0.451146 0.753022
O O8 0.787620 0.393810 0.000000
O O9 0.103287 0.325210 0.764570
O O10 0.157652 0.315304 0.000000
O O11 0.401484 0.374350 0.500000
O O12 0.336387 0.345953 0.251687
O O13 0.429840 0.322205 0.271386
O O14 0.821490 0.045342 0.500000
O O15 0.892643 0.107358 0.266717
O O16 0.773487 0.017113 0.232997
O O17 0.700140 0.725201 0.000000
O O18 0.824020 0.505777 0.500000
O O19 0.773768 0.547536 0.704984
#
# Coordination Sequence:
#
# PCOD8326944 Si02
#       8
#     6   6   6   6  12  12  12  12
#     4   9  17  31  49  67  89 117 146 178 215 260
#     4   8  14  26  42  58  76 104 142 181 226 279
#     4   9  17  29  45  63  81 103 135 178 225 266
#     4   8  16  30  46  62  84 114 145 179 216 259
#     4  10  19  31  48  70  93 118 149 185 225 271
#     4   9  17  29  43  60  84 113 146 189 239 287
#     4  10  19  31  47  67  89 117 152 186 224 272
#     4   9  18  32  47  61  81 112 147 181 222 274
#
# _framework density 15.893573999999999
#
# number of rings (size 3 to 8) (size 9 to 14) (size 15 to 20)
#    0.000    2.833    0.000    1.500    0.000    4.667 
#    1.000    1.667    0.000    0.000    0.000    0.000 
#    0.000    0.000    0.000    0.500    0.000    8.167 
#
# Total GULP energy -891980.816366 kJ/mol
# GULP energy per Si atom -12388.622450 kJ/mol
# Density = 1.585740 g / cm^3
# Si number density = 15.893574 Si / 1000 Ang^3
#
#
#
# Elastic Constant Matrix: (Units=GPa)
#
#
# Indices 1 2 3 4 5 6 
#
# 1 95.0172 61.2219 38.7214 0.0000 0.0001 0.0000
# 2 61.2219 95.0172 38.7214 0.0000 -0.0001 0.0000
# 3 38.7214 38.7214 59.2642 0.0000 0.0000 0.0000
# 4 0.0000 0.0000 0.0000 21.4438 0.0000 -0.0001
# 5 0.0001 -0.0001 0.0000 0.0000 21.4438 0.0000
# 6 0.0000 0.0000 0.0000 -0.0001 0.0000 16.8977
#
#
#
# Elastic Compliance Matrix: (Units=1/GPa)
#
#
# Indices 1 2 3 4 5 6 
#
# 1 0.019528 -0.010062 -0.006185 0.000000 0.000000 0.000000
# 2 -0.010062 0.019528 -0.006185 0.000000 0.000000 0.000000
# 3 -0.006185 -0.006185 0.024956 0.000000 0.000000 0.000000
# 4 0.000000 0.000000 0.000000 0.046633 0.000000 0.000000
# 5 0.000000 0.000000 0.000000 0.000000 0.046633 0.000000
# 6 0.000000 0.000000 0.000000 0.000000 0.000000 0.059180
#
#
# Mechanical properties :
#
#
# Convention : Reuss Voigt Hill
#
# Bulk Modulus (GPa) = 52.22386 58.51424 55.36905
# Shear Modulus (GPa) = 18.67734 19.33267 19.00500
#
# Velocity S-wave (km/s) = 3.43177 3.49145 3.46174
# Velocity P-wave (km/s) = 6.97370 7.29039 7.13381
#
# Compressibility (1/GPa) = 0.01914834
#
# Stress axis : x y z
#
# Youngs Moduli (GPa) = 51.20859 51.20859 40.07123
#
# Poissons Ratio (x) = 0.51526 0.24783
# Poissons Ratio (y) = 0.51526 0.24783
# Poissons Ratio (z) = 0.31672 0.31672
#
# Static dielectric constant tensor:
#      x y z
#    x 2.996630 0.000000 0.000000 
#    y 0.000000 2.996630 0.000000 
#    z 0.000000 0.000000 3.109280 
# 
# 
# High freq. dielectric constant tensor:
#      x y z
#    x 1.586380 0.000000 0.000000 
#    y 0.000000 1.586380 0.000000 
#    z 0.000000 0.000000 1.617100 
# 
# From -- ./inp_files/1107.got.cif
#   From: 2010.03.12/outbox.cif.g09.slc.cpg/sg187_1_cif.got.tgz:1107.got - 2010.04.01 11:58:23.
