data_PCOD8326613
_publ_section_title
;
Structure prediction by ZEFSAII (Michael W. Deem and Ramdas Pophale) SiO2 
 PCOD8326613
Probable space group: P 6 C C
;
_chemical_formula_sum "Si O2"
_cell_formula_units_Z 56
_cell_length_a 13.175363
_cell_length_b 13.175363
_cell_length_c 18.024477
_cell_angle_alpha 90.000000
_cell_angle_beta 90.000000
_cell_angle_gamma 120.000000
_cell_volume 2709.682975
_symmetry_space_group_name_H-M "P 6 C C"
_symmetry_group_IT_number 184
_symmetry_cell_setting 'hexagonal'
loop_
_space_group_symop_operation_xyz
x,y,z
x-y,x,z
-y,x-y,z
-x,-y,z
-x+y,-x,z
y,-x+y,z
-x+y,y,1/2+z
x,x-y,1/2+z
-y,-x,1/2+z
y,x,1/2+z
x-y,-y,1/2+z
-x,-x+y,1/2+z
loop_
_atom_site_type_symbol
_atom_site_label
_atom_site_fract_x
_atom_site_fract_y
_atom_site_fract_z
Si Si1 0.590987 0.784419 0.048620
Si Si2 0.088026 0.633198 0.801128
Si Si3 0.621868 0.615184 0.958738
Si Si4 0.333334 0.666668 0.111684
Si Si5 0.333334 0.666667 0.788156
Si Si6 0.814257 0.082485 0.190975
O O1 0.463268 0.708573 0.083886
O O2 0.689615 0.796010 0.106192
O O3 0.602962 0.724193 0.974202
O O4 0.614834 0.909806 0.023154
O O5 0.041910 0.666998 0.874820
O O6 0.209891 0.640581 0.820969
O O7 0.110335 0.729058 0.739484
O O8 0.000000 0.500000 0.773170
O O9 0.500000 0.500000 0.968249
O O10 0.333334 0.666667 0.199824
O O11 0.950519 0.168509 0.209224
#
# Coordination Sequence:
#
# PCOD8326613 Si02
#       6
#    12  12  12   4   4  12
#     4  12  24  43  69 100 138 182 228 289 344 416
#     4  11  27  44  69 101 143 184 227 287 350 427
#     4  11  26  43  66 103 139 182 228 284 356 415
#     4  12  24  40  71 106 138 172 233 277 345 421
#     4  12  24  43  71 103 138 181 230 280 348 415
#     4  12  26  46  70  99 138 184 238 289 347 419
#
# _framework density 20.666626000000001
#
# number of rings (size 3 to 8) (size 9 to 14) (size 15 to 20)
#    0.000    0.429    6.429    1.500    9.000    0.857 
#    0.000    0.000    0.000    0.000    0.000    0.000 
#    0.000    0.000    0.000    0.000    0.000    0.000 
#
# Total GULP energy -694515.718343 kJ/mol
# GULP energy per Si atom -12402.066399 kJ/mol
# Density = 2.061959 g / cm^3
# Si number density = 20.666626 Si / 1000 Ang^3
#
#
#
# Elastic Constant Matrix: (Units=GPa)
#
#
# Indices 1 2 3 4 5 6 
#
# 1 84.2884 18.2728 13.0213 -0.0001 0.0000 0.0001
# 2 18.2728 84.2886 13.0207 0.0000 0.0001 0.0000
# 3 13.0213 13.0207 87.6331 0.0002 0.0000 -0.0001
# 4 -0.0001 0.0000 0.0002 39.2990 0.0000 0.0000
# 5 0.0000 0.0001 0.0000 0.0000 39.2995 0.0001
# 6 0.0001 0.0000 -0.0001 0.0000 0.0001 33.0079
#
#
#
# Elastic Compliance Matrix: (Units=1/GPa)
#
#
# Indices 1 2 3 4 5 6 
#
# 1 0.012640 -0.002508 -0.001506 0.000000 0.000000 0.000000
# 2 -0.002508 0.012640 -0.001505 0.000000 0.000000 0.000000
# 3 -0.001506 -0.001505 0.011859 0.000000 0.000000 0.000000
# 4 0.000000 0.000000 0.000000 0.025446 0.000000 0.000000
# 5 0.000000 0.000000 0.000000 0.000000 0.025446 0.000000
# 6 0.000000 0.000000 0.000000 0.000000 0.000000 0.030296
#
#
# Mechanical properties :
#
#
# Convention : Reuss Voigt Hill
#
# Bulk Modulus (GPa) = 38.31191 38.31550 38.31370
# Shear Modulus (GPa) = 36.21496 36.44763 36.33129
#
# Velocity S-wave (km/s) = 4.19064 4.20408 4.19736
# Velocity P-wave (km/s) = 6.48024 6.49197 6.48611
#
# Compressibility (1/GPa) = 0.02610154
#
# Stress axis : x y z
#
# Youngs Moduli (GPa) = 79.11230 79.11264 84.32687
#
# Poissons Ratio (x) = 0.19839 0.12696
# Poissons Ratio (y) = 0.19839 0.12695
# Poissons Ratio (z) = 0.11911 0.11910
#
# Static dielectric constant tensor:
#      x y z
#    x 3.789110 0.000000 0.000000 
#    y 0.000000 3.789110 0.000000 
#    z 0.000000 0.000000 3.953730 
# 
# 
# High freq. dielectric constant tensor:
#      x y z
#    x 1.817680 0.000000 0.000000 
#    y 0.000000 1.817680 0.000000 
#    z 0.000000 0.000000 1.811410 
# 
# From -- ./inp_files/834.got.cif
#   From: 2010.03.12/outbox.cif.g09.slc.cpg/sg184_cif.got.tgz:834.got - 2010.04.01 11:54:36.
