data_PCOD8326095
_publ_section_title
;
Structure prediction by ZEFSAII (Michael W. Deem and Ramdas Pophale) SiO2 
 PCOD8326095
Probable space group: P 65 2 2
;
_chemical_formula_sum "Si O2"
_cell_formula_units_Z 66
_cell_length_a 17.215550
_cell_length_b 17.215550
_cell_length_c 14.006674
_cell_angle_alpha 90.000000
_cell_angle_beta 90.000000
_cell_angle_gamma 120.000000
_cell_volume 3595.070873
_symmetry_space_group_name_H-M "P 65 2 2"
_symmetry_group_IT_number 179
_symmetry_cell_setting 'hexagonal'
loop_
_space_group_symop_operation_xyz
x,y,z
x-y,x,5/6+z
-y,x-y,2/3+z
-x,-y,1/2+z
-x+y,-x,1/3+z
y,-x+y,1/6+z
x-y,-y,-z
-x,-x+y,1/3-z
y,x,2/3-z
-y,-x,1/6-z
-x+y,y,1/2-z
x,x-y,5/6-z
loop_
_atom_site_type_symbol
_atom_site_label
_atom_site_fract_x
_atom_site_fract_y
_atom_site_fract_z
Si Si1 0.756713 0.243287 0.583334
Si Si2 0.617550 0.127866 0.830484
Si Si3 0.785615 0.375542 0.140357
Si Si4 0.959572 0.513666 0.064252
Si Si5 0.270036 0.314798 0.936308
Si Si6 0.351407 0.237246 0.058297
O O1 0.689473 0.234382 0.499348
O O2 0.728824 0.149762 0.635115
O O3 0.589633 0.179266 0.750000
O O4 0.695313 0.104901 0.808743
O O5 0.526962 0.032412 0.836386
O O6 0.652192 0.189524 0.925366
O O7 0.705207 0.294794 0.083334
O O8 0.869614 0.416394 0.068158
O O9 0.935990 0.587946 0.026836
O O10 0.000000 0.546988 0.166667
O O11 0.286453 0.286453 0.833334
O O12 0.176316 0.313529 0.930415
O O13 0.267775 0.246741 0.018888
#
# Coordination Sequence:
#
# PCOD8326095 Si02
#       6
#     6  12  12  12  12  12
#     4  12  20  34  52  78 116 160 200 244 302 356
#     4  11  21  37  57  78 110 158 212 255 298 365
#     4  11  24  36  53  81 120 161 204 258 305 357
#     4   9  18  37  55  70 106 155 196 236 300 354
#     4  11  19  34  54  80 112 155 191 247 308 375
#     4  12  22  35  58  85 117 156 208 252 320 372
#
# _framework density 18.358470000000001
#
# number of rings (size 3 to 8) (size 9 to 14) (size 15 to 20)
#    0.000    1.091    7.273    1.091    2.545    1.455 
#    1.636    0.000    0.000    0.000    0.000    0.000 
#    0.000   27.636    0.000    0.000    0.000    0.000 
#
# Total GULP energy -817758.489362 kJ/mol
# GULP energy per Si atom -12390.280142 kJ/mol
# Density = 1.831669 g / cm^3
# Si number density = 18.358470 Si / 1000 Ang^3
#
#
#
# Elastic Constant Matrix: (Units=GPa)
#
#
# Indices 1 2 3 4 5 6 
#
# 1 113.6163 44.9808 40.4459 0.0000 0.0000 0.0000
# 2 44.9808 113.6163 40.4459 0.0000 0.0000 0.0000
# 3 40.4459 40.4459 73.9660 0.0000 0.0000 0.0000
# 4 0.0000 0.0000 0.0000 27.3066 0.0000 0.0000
# 5 0.0000 0.0000 0.0000 0.0000 27.3066 0.0000
# 6 0.0000 0.0000 0.0000 0.0000 0.0000 34.3177
#
#
#
# Elastic Compliance Matrix: (Units=1/GPa)
#
#
# Indices 1 2 3 4 5 6 
#
# 1 0.011657 -0.002913 -0.004781 0.000000 0.000000 0.000000
# 2 -0.002913 0.011657 -0.004781 0.000000 0.000000 0.000000
# 3 -0.004781 -0.004781 0.018749 0.000000 0.000000 0.000000
# 4 0.000000 0.000000 0.000000 0.036621 0.000000 0.000000
# 5 0.000000 0.000000 0.000000 0.000000 0.036621 0.000000
# 6 0.000000 0.000000 0.000000 0.000000 0.000000 0.029139
#
#
# Mechanical properties :
#
#
# Convention : Reuss Voigt Hill
#
# Bulk Modulus (GPa) = 58.44086 61.43820 59.93953
# Shear Modulus (GPa) = 28.55525 29.47461 29.01493
#
# Velocity S-wave (km/s) = 3.94817 4.01122 3.97982
# Velocity P-wave (km/s) = 7.25854 7.41564 7.33751
#
# Compressibility (1/GPa) = 0.01711132
#
# Stress axis : x y z
#
# Youngs Moduli (GPa) = 85.78643 85.78643 53.33684
#
# Poissons Ratio (x) = 0.24988 0.25502
# Poissons Ratio (y) = 0.24988 0.25502
# Poissons Ratio (z) = 0.41018 0.41018
#
# Static dielectric constant tensor:
#      x y z
#    x 3.679190 0.000000 0.000000 
#    y 0.000000 3.679190 0.000000 
#    z 0.000000 0.000000 3.325740 
# 
# 
# High freq. dielectric constant tensor:
#      x y z
#    x 1.695040 0.000000 0.000000 
#    y 0.000000 1.695040 0.000000 
#    z 0.000000 0.000000 1.701740 
# 
# From -- ./inp_files/6014.got.cif
#   From: 2010.03.12/outbox.cif.g09.slc.cpg/sg179_4_cif.got.tgz:6014.got - 2010.04.02 07:08:42.
