data_PCOD8326353
_publ_section_title
;
Structure prediction by ZEFSAII (Michael W. Deem and Ramdas Pophale) SiO2 
 PCOD8326353
Probable space group: P 64 2 2
;
_chemical_formula_sum "Si O2"
_cell_formula_units_Z 69
_cell_length_a 17.579083
_cell_length_b 17.579083
_cell_length_c 14.224993
_cell_angle_alpha 90.000000
_cell_angle_beta 90.000000
_cell_angle_gamma 120.000000
_cell_volume 3806.932061
_symmetry_space_group_name_H-M "P 64 2 2"
_symmetry_group_IT_number 181
_symmetry_cell_setting 'hexagonal'
loop_
_space_group_symop_operation_xyz
x,y,z
x-y,x,2/3+z
-y,x-y,1/3+z
-x,-y,z
-x+y,-x,2/3+z
y,-x+y,1/3+z
x-y,-y,-z
-x,-x+y,2/3-z
y,x,1/3-z
-y,-x,1/3-z
-x+y,y,-z
x,x-y,2/3-z
loop_
_atom_site_type_symbol
_atom_site_label
_atom_site_fract_x
_atom_site_fract_y
_atom_site_fract_z
Si Si1 0.149724 0.816477 0.318652
Si Si2 0.594780 0.879819 0.173400
Si Si3 0.380936 0.081416 0.813118
Si Si4 0.555697 0.104989 0.106448
Si Si5 0.000000 0.000000 0.666667
Si Si6 0.981475 0.825049 0.729426
Si Si7 0.310798 0.155399 0.333334
O O1 0.134905 0.748601 0.400359
O O2 0.087757 0.765532 0.230497
O O3 0.249949 0.868597 0.281819
O O4 0.123156 0.884624 0.358856
O O5 0.491759 0.852482 0.169028
O O6 0.623275 0.826486 0.245060
O O7 0.642629 0.979512 0.208779
O O8 0.482527 0.130444 0.845288
O O9 0.500000 0.000000 0.103496
O O10 0.570958 0.141915 0.000000
O O11 0.014173 0.081287 0.730707
O O12 0.000000 0.804702 0.833334
O O13 0.050818 0.809123 0.670204
#
# Coordination Sequence:
#
# PCOD8326353 Si02
#       7
#    12  12  12  12   3  12   6
#     4  11  21  32  57  82 115 150 195 247 293 336
#     4  11  20  35  57  82 112 150 189 239 284 349
#     4  10  21  35  54  87 111 141 187 245 305 342
#     4   9  17  33  57  81 106 126 167 232 299 348
#     4  10  26  36  48  74 108 168 220 258 304 326
#     4  11  22  38  50  72 113 165 210 253 284 330
#     4  11  22  35  52  78 114 162 206 230 279 328
#
# _framework density 18.124831
#
# number of rings (size 3 to 8) (size 9 to 14) (size 15 to 20)
#    0.000    1.565    5.217    0.783    2.435    0.000 
#    3.130    0.000    0.000    5.217    0.000    4.870 
#    0.000    0.000    0.000    0.000    0.000    0.000 
#
# Total GULP energy -854843.373271 kJ/mol
# GULP energy per Si atom -12389.034395 kJ/mol
# Density = 1.808358 g / cm^3
# Si number density = 18.124831 Si / 1000 Ang^3
#
#
#
# Elastic Constant Matrix: (Units=GPa)
#
#
# Indices 1 2 3 4 5 6 
#
# 1 73.6300 24.3877 15.6491 0.0000 0.0000 0.0000
# 2 24.3877 73.6300 15.6491 0.0000 0.0000 0.0000
# 3 15.6491 15.6491 48.7922 0.0000 0.0000 0.0000
# 4 0.0000 0.0000 0.0000 23.1448 0.0000 0.0000
# 5 0.0000 0.0000 0.0000 0.0000 23.1448 0.0000
# 6 0.0000 0.0000 0.0000 0.0000 0.0000 24.6211
#
#
#
# Elastic Compliance Matrix: (Units=1/GPa)
#
#
# Indices 1 2 3 4 5 6 
#
# 1 0.015837 -0.004471 -0.003646 0.000000 0.000000 0.000000
# 2 -0.004471 0.015837 -0.003646 0.000000 0.000000 0.000000
# 3 -0.003646 -0.003646 0.022834 0.000000 0.000000 0.000000
# 4 0.000000 0.000000 0.000000 0.043206 0.000000 0.000000
# 5 0.000000 0.000000 0.000000 0.000000 0.043206 0.000000
# 6 0.000000 0.000000 0.000000 0.000000 0.000000 0.040615
#
#
# Mechanical properties :
#
#
# Convention : Reuss Voigt Hill
#
# Bulk Modulus (GPa) = 32.27465 34.15823 33.21644
# Shear Modulus (GPa) = 23.21402 23.53990 23.37696
#
# Velocity S-wave (km/s) = 3.58269 3.60775 3.59524
# Velocity P-wave (km/s) = 5.91268 6.02009 5.96662
#
# Compressibility (1/GPa) = 0.03098407
#
# Stress axis : x y z
#
# Youngs Moduli (GPa) = 63.14317 63.14317 43.79523
#
# Poissons Ratio (x) = 0.28230 0.15966
# Poissons Ratio (y) = 0.28230 0.15966
# Poissons Ratio (z) = 0.23019 0.23019
#
# Static dielectric constant tensor:
#      x y z
#    x 3.347610 0.000000 0.000000 
#    y 0.000000 3.347610 0.000000 
#    z 0.000000 0.000000 3.263850 
# 
# 
# High freq. dielectric constant tensor:
#      x y z
#    x 1.686530 0.000000 0.000000 
#    y 0.000000 1.686530 0.000000 
#    z 0.000000 0.000000 1.695500 
# 
# From -- ./inp_files/6407.got.cif
#   From: 2010.03.12/outbox.cif.g09.slc.cpg/sg181_4_cif.got.tgz:6407.got - 2010.04.01 11:42:41.
