data_PCOD8326132
_publ_section_title
;
Structure prediction by ZEFSAII (Michael W. Deem and Ramdas Pophale) SiO2 
 PCOD8326132
Probable space group: P 62 2 2
;
_chemical_formula_sum "Si O2"
_cell_formula_units_Z 54
_cell_length_a 10.654368
_cell_length_b 10.654368
_cell_length_c 27.008353
_cell_angle_alpha 90.000000
_cell_angle_beta 90.000000
_cell_angle_gamma 120.000000
_cell_volume 2655.119787
_symmetry_space_group_name_H-M "P 62 2 2"
_symmetry_group_IT_number 180
_symmetry_cell_setting 'hexagonal'
loop_
_space_group_symop_operation_xyz
x,y,z
x-y,x,1/3+z
-y,x-y,2/3+z
-x,-y,z
-x+y,-x,1/3+z
y,-x+y,2/3+z
x-y,-y,-z
-x,-x+y,1/3-z
y,x,2/3-z
-y,-x,2/3-z
-x+y,y,-z
x,x-y,1/3-z
loop_
_atom_site_type_symbol
_atom_site_label
_atom_site_fract_x
_atom_site_fract_y
_atom_site_fract_z
Si Si1 0.780478 0.780478 0.333334
Si Si2 0.820877 0.264326 0.939703
Si Si3 0.171732 0.343463 0.500000
Si Si4 0.837142 0.549017 0.949542
Si Si5 0.000000 0.000000 0.263245
Si Si6 0.267942 0.129185 0.802748
O O1 0.628638 0.756773 0.311178
O O2 0.848145 0.907655 0.374381
O O3 0.777833 0.218275 0.882821
O O4 0.762599 0.374531 0.952399
O O5 0.991592 0.361358 0.945353
O O6 0.262912 0.257420 0.494784
O O7 0.781416 0.591662 0.899274
O O8 0.802236 0.604472 0.000000
O O9 0.886952 0.019364 0.230944
O O10 0.246066 0.246066 0.833334
#
# Coordination Sequence:
#
# PCOD8326132 Si02
#       6
#     6  12   6  12   6  12
#     4  11  18  30  55  92 118 154 203 256 299 370
#     4  10  21  35  61  84 123 162 207 248 324 370
#     4  10  17  32  54  88 121 156 194 258 312 374
#     4  10  21  38  58  83 122 170 199 249 322 386
#     4  11  17  26  54  95 125 134 192 269 319 334
#     4  11  17  30  56  94 123 149 194 261 324 366
#
# _framework density 20.338065
#
# number of rings (size 3 to 8) (size 9 to 14) (size 15 to 20)
#    0.000    1.556    6.667    1.333    0.000    0.000 
#    0.000    0.556   34.222    0.000    0.000    0.000 
#    0.000    0.000    0.000    0.000    0.000    0.000 
#
# Total GULP energy -668959.503055 kJ/mol
# GULP energy per Si atom -12388.138945 kJ/mol
# Density = 2.029177 g / cm^3
# Si number density = 20.338065 Si / 1000 Ang^3
#
#
#
# Elastic Constant Matrix: (Units=GPa)
#
#
# Indices 1 2 3 4 5 6 
#
# 1 76.1195 28.1881 48.0417 0.0000 0.0000 0.0000
# 2 28.1881 76.1195 48.0417 0.0000 0.0000 0.0000
# 3 48.0417 48.0417 130.6818 0.0000 0.0000 0.0000
# 4 0.0000 0.0000 0.0000 22.5523 0.0000 0.0000
# 5 0.0000 0.0000 0.0000 0.0000 22.5523 0.0000
# 6 0.0000 0.0000 0.0000 0.0000 0.0000 23.9657
#
#
#
# Elastic Compliance Matrix: (Units=1/GPa)
#
#
# Indices 1 2 3 4 5 6 
#
# 1 0.017680 -0.003184 -0.005329 0.000000 0.000000 0.000000
# 2 -0.003184 0.017680 -0.005329 0.000000 0.000000 0.000000
# 3 -0.005329 -0.005329 0.011570 0.000000 0.000000 0.000000
# 4 0.000000 0.000000 0.000000 0.044341 0.000000 0.000000
# 5 0.000000 0.000000 0.000000 0.000000 0.044341 0.000000
# 6 0.000000 0.000000 0.000000 0.000000 0.000000 0.041726
#
#
# Mechanical properties :
#
#
# Convention : Reuss Voigt Hill
#
# Bulk Modulus (GPa) = 51.95887 59.05154 55.50521
# Shear Modulus (GPa) = 23.64768 24.39067 24.01918
#
# Velocity S-wave (km/s) = 3.41358 3.46679 3.44029
# Velocity P-wave (km/s) = 6.41403 6.71736 6.56745
#
# Compressibility (1/GPa) = 0.01924599
#
# Stress axis : x y z
#
# Youngs Moduli (GPa) = 56.56262 56.56262 86.42792
#
# Poissons Ratio (x) = 0.18007 0.46058
# Poissons Ratio (y) = 0.18007 0.46058
# Poissons Ratio (z) = 0.30142 0.30142
#
# Static dielectric constant tensor:
#      x y z
#    x 5.217590 0.000000 0.000000 
#    y 0.000000 5.217590 0.000000 
#    z 0.000000 0.000000 3.931050 
# 
# 
# High freq. dielectric constant tensor:
#      x y z
#    x 1.763740 0.000000 0.000000 
#    y 0.000000 1.763740 0.000000 
#    z 0.000000 0.000000 1.808870 
# 
# From -- ./inp_files/11143.got.cif
#   From: 2010.03.12/outbox.cif.g09.slc.cpg/sg180_6_cif.got.tgz:11143.got - 2010.04.01 11:35:50.
