data_PCOD8326296
_publ_section_title
;
Structure prediction by ZEFSAII (Michael W. Deem and Ramdas Pophale) SiO2 
 PCOD8326296
Probable space group: P 64 2 2
;
_chemical_formula_sum "Si O2"
_cell_formula_units_Z 84
_cell_length_a 17.742844
_cell_length_b 17.742844
_cell_length_c 16.523042
_cell_angle_alpha 90.000000
_cell_angle_beta 90.000000
_cell_angle_gamma 120.000000
_cell_volume 4504.712792
_symmetry_space_group_name_H-M "P 64 2 2"
_symmetry_group_IT_number 181
_symmetry_cell_setting 'hexagonal'
loop_
_space_group_symop_operation_xyz
x,y,z
x-y,x,2/3+z
-y,x-y,1/3+z
-x,-y,z
-x+y,-x,2/3+z
y,-x+y,1/3+z
x-y,-y,-z
-x,-x+y,2/3-z
y,x,1/3-z
-y,-x,1/3-z
-x+y,y,-z
x,x-y,2/3-z
loop_
_atom_site_type_symbol
_atom_site_label
_atom_site_fract_x
_atom_site_fract_y
_atom_site_fract_z
Si Si1 0.255636 0.093819 0.027534
Si Si2 0.575550 0.592789 0.940868
Si Si3 0.649055 0.473372 0.497332
Si Si4 0.324506 0.853806 0.834070
Si Si5 0.575120 0.673387 0.677169
Si Si6 0.855163 0.165671 0.541241
Si Si7 0.729730 0.984803 0.350377
O O1 0.270541 0.095059 0.123946
O O2 0.241179 0.174208 0.010312
O O3 0.338111 0.105436 0.975306
O O4 0.173158 0.000000 0.000000
O O5 0.500000 0.500000 0.977222
O O6 0.536017 0.650534 0.906764
O O7 0.621496 0.574386 0.865210
O O8 0.644468 0.652090 0.009776
O O9 0.736372 0.472744 0.500000
O O10 0.571883 0.375554 0.476579
O O11 0.638936 0.506500 0.584169
O O12 0.227112 0.810703 0.796403
O O13 0.318882 0.848372 0.930381
O O14 0.599203 0.599203 0.666667
O O15 0.927065 0.199189 0.609783
O O16 0.781144 0.067385 0.564429
#
# Coordination Sequence:
#
# PCOD8326296 Si02
#       7
#    12  12  12  12  12  12  12
#     4  10  21  34  54  87 116 135 179 239 287 344
#     4   9  18  32  53  82 106 139 190 237 271 329
#     4  11  20  29  49  81 116 142 173 228 291 336
#     4   9  18  33  52  71 106 144 186 221 262 343
#     4  10  18  31  51  79 108 145 173 211 280 350
#     4   9  20  37  57  77 102 153 196 221 279 341
#     4  10  19  36  60  77 106 154 191 232 283 341
#
# _framework density 18.647137000000001
#
# number of rings (size 3 to 8) (size 9 to 14) (size 15 to 20)
#    0.000    2.286    1.429    1.714    2.000    1.143 
#    0.000    1.429   25.143    4.286    0.000    0.000 
#    0.000    0.000    0.000    0.000    0.000    0.000 
#
# Total GULP energy -1040920.432469 kJ/mol
# GULP energy per Si atom -12391.909910 kJ/mol
# Density = 1.860469 g / cm^3
# Si number density = 18.647137 Si / 1000 Ang^3
#
#
#
# Elastic Constant Matrix: (Units=GPa)
#
#
# Indices 1 2 3 4 5 6 
#
# 1 106.2314 68.0890 28.2885 0.0000 0.0000 0.0000
# 2 68.0890 106.2314 28.2885 0.0000 0.0000 0.0000
# 3 28.2885 28.2885 57.7004 0.0000 0.0000 0.0000
# 4 0.0000 0.0000 0.0000 23.3422 0.0000 0.0000
# 5 0.0000 0.0000 0.0000 0.0000 23.3422 0.0000
# 6 0.0000 0.0000 0.0000 0.0000 0.0000 19.0712
#
#
#
# Elastic Compliance Matrix: (Units=1/GPa)
#
#
# Indices 1 2 3 4 5 6 
#
# 1 0.016520 -0.009698 -0.003345 0.000000 0.000000 0.000000
# 2 -0.009698 0.016520 -0.003345 0.000000 0.000000 0.000000
# 3 -0.003345 -0.003345 0.020610 0.000000 0.000000 0.000000
# 4 0.000000 0.000000 0.000000 0.042841 0.000000 0.000000
# 5 0.000000 0.000000 0.000000 0.000000 0.042841 0.000000
# 6 0.000000 0.000000 0.000000 0.000000 0.000000 0.052435
#
#
# Mechanical properties :
#
#
# Convention : Reuss Voigt Hill
#
# Bulk Modulus (GPa) = 47.90173 57.72169 52.81171
# Shear Modulus (GPa) = 21.59832 22.85094 22.22463
#
# Velocity S-wave (km/s) = 3.40702 3.50443 3.45607
# Velocity P-wave (km/s) = 6.42038 6.88452 6.65650
#
# Compressibility (1/GPa) = 0.02087607
#
# Stress axis : x y z
#
# Youngs Moduli (GPa) = 60.53336 60.53336 48.51913
#
# Poissons Ratio (x) = 0.58704 0.16228
# Poissons Ratio (y) = 0.58704 0.16228
# Poissons Ratio (z) = 0.20246 0.20246
#
# Static dielectric constant tensor:
#      x y z
#    x 3.456340 0.000000 0.000000 
#    y 0.000000 3.456340 0.000000 
#    z 0.000000 0.000000 3.309650 
# 
# 
# High freq. dielectric constant tensor:
#      x y z
#    x 1.716060 0.000000 0.000000 
#    y 0.000000 1.716060 0.000000 
#    z 0.000000 0.000000 1.711140 
# 
# From -- ./inp_files/6494.got.cif
#   From: 2010.03.12/outbox.cif.g09.slc.cpg/sg181_4_cif.got.tgz:6494.got - 2010.04.01 11:42:41.
