data_PCOD8326007
_publ_section_title
;
Structure prediction by ZEFSAII (Michael W. Deem and Ramdas Pophale) SiO2 
 PCOD8326007
Probable space group: P 65 2 2
;
_chemical_formula_sum "Si O2"
_cell_formula_units_Z 78
_cell_length_a 22.144327
_cell_length_b 22.144327
_cell_length_c 14.671743
_cell_angle_alpha 90.000000
_cell_angle_beta 90.000000
_cell_angle_gamma 120.000000
_cell_volume 6230.706794
_symmetry_space_group_name_H-M "P 65 2 2"
_symmetry_group_IT_number 179
_symmetry_cell_setting 'hexagonal'
loop_
_space_group_symop_operation_xyz
x,y,z
x-y,x,5/6+z
-y,x-y,2/3+z
-x,-y,1/2+z
-x+y,-x,1/3+z
y,-x+y,1/6+z
x-y,-y,-z
-x,-x+y,1/3-z
y,x,2/3-z
-y,-x,1/6-z
-x+y,y,1/2-z
x,x-y,5/6-z
loop_
_atom_site_type_symbol
_atom_site_label
_atom_site_fract_x
_atom_site_fract_y
_atom_site_fract_z
Si Si1 0.550772 0.593544 0.575000
Si Si2 0.821190 0.502153 0.750777
Si Si3 0.461251 0.069609 0.556875
Si Si4 0.442166 0.786771 0.576723
Si Si5 0.614548 0.144223 0.602538
Si Si6 0.626420 0.111683 0.267526
Si Si7 0.623121 0.376880 0.083334
O O1 0.476903 0.523098 0.583334
O O2 0.569791 0.630711 0.674212
O O3 0.539336 0.641532 0.500202
O O4 0.610893 0.577262 0.541591
O O5 0.757711 0.515422 0.750000
O O6 0.868562 0.542012 0.663272
O O7 0.795150 0.420479 0.747578
O O8 0.863958 0.535975 0.842936
O O9 0.541330 0.087121 0.558204
O O10 0.417625 0.000000 0.500000
O O11 0.480940 0.812692 0.478724
O O12 0.499825 0.833232 0.652120
O O13 0.415452 0.706127 0.593420
O O14 0.602173 0.198840 0.660466
O O15 0.553166 0.106331 0.250000
#
# Coordination Sequence:
#
# PCOD8326007 Si02
#       7
#    12  12  12  12  12  12   6
#     4   9  16  30  42  56  70  83 121 159 184 211
#     4  10  19  28  39  60  76  97 121 146 184 230
#     4  10  17  29  45  57  70  92 122 153 186 216
#     4  10  22  28  41  53  75 103 116 144 185 239
#     4  10  21  29  42  58  68  96 121 156 181 220
#     4   9  18  28  41  56  71  90 118 155 183 219
#     4  12  20  34  38  54  84 100 128 138 188 256
#
# _framework density 12.518643000000001
#
# number of rings (size 3 to 8) (size 9 to 14) (size 15 to 20)
#    0.000    2.154    4.615    0.462   10.769    1.231 
#    0.000    0.000    0.000    0.000    0.000    0.000 
#    0.000    0.000    0.000    0.000    0.000    0.000 
#
# Total GULP energy -966684.807928 kJ/mol
# GULP energy per Si atom -12393.394973 kJ/mol
# Density = 1.249015 g / cm^3
# Si number density = 12.518643 Si / 1000 Ang^3
#
#
#
# Elastic Constant Matrix: (Units=GPa)
#
#
# Indices 1 2 3 4 5 6 
#
# 1 47.7149 31.7468 34.3307 0.0000 0.0000 0.0000
# 2 31.7468 47.7149 34.3307 0.0000 0.0000 0.0000
# 3 34.3307 34.3307 103.9283 0.0000 0.0000 0.0000
# 4 0.0000 0.0000 0.0000 10.9448 0.0000 0.0000
# 5 0.0000 0.0000 0.0000 0.0000 10.9448 0.0000
# 6 0.0000 0.0000 0.0000 0.0000 0.0000 7.9840
#
#
#
# Elastic Compliance Matrix: (Units=1/GPa)
#
#
# Indices 1 2 3 4 5 6 
#
# 1 0.040118 -0.022507 -0.005818 0.000000 0.000000 0.000000
# 2 -0.022507 0.040118 -0.005818 0.000000 0.000000 0.000000
# 3 -0.005818 -0.005818 0.013466 0.000000 0.000000 0.000000
# 4 0.000000 0.000000 0.000000 0.091367 0.000000 0.000000
# 5 0.000000 0.000000 0.000000 0.000000 0.091367 0.000000
# 6 0.000000 0.000000 0.000000 0.000000 0.000000 0.125250
#
#
# Mechanical properties :
#
#
# Convention : Reuss Voigt Hill
#
# Bulk Modulus (GPa) = 39.34204 44.46385 41.90294
# Shear Modulus (GPa) = 10.45057 12.57141 11.51099
#
# Velocity S-wave (km/s) = 2.89243 3.17237 3.03563
# Velocity P-wave (km/s) = 6.53068 7.00099 6.76992
#
# Compressibility (1/GPa) = 0.02541810
#
# Stress axis : x y z
#
# Youngs Moduli (GPa) = 24.92631 24.92631 74.26383
#
# Poissons Ratio (x) = 0.56101 0.43204
# Poissons Ratio (y) = 0.56101 0.43204
# Poissons Ratio (z) = 0.14501 0.14501
#
# Static dielectric constant tensor:
#      x y z
#    x 2.377020 0.000000 0.000000 
#    y 0.000000 2.377020 0.000000 
#    z 0.000000 0.000000 2.995770 
# 
# 
# High freq. dielectric constant tensor:
#      x y z
#    x 1.432930 0.000000 0.000000 
#    y 0.000000 1.432930 0.000000 
#    z 0.000000 0.000000 1.500570 
# 
# From -- ./inp_files/6174.got.cif
#   From: 2010.03.12/outbox.cif.g09.slc.cpg/sg179_4_cif.got.tgz:6174.got - 2010.04.02 07:08:42.
