data_PCOD8326697
_publ_section_title
;
Structure prediction by ZEFSAII (Michael W. Deem and Ramdas Pophale) SiO2 
 PCOD8326697
Probable space group: P 63 C M
;
_chemical_formula_sum "Si O2"
_cell_formula_units_Z 72
_cell_length_a 23.019047
_cell_length_b 23.019047
_cell_length_c 8.602956
_cell_angle_alpha 90.000000
_cell_angle_beta 90.000000
_cell_angle_gamma 120.000000
_cell_volume 3947.780638
_symmetry_space_group_name_H-M "P 63 C M"
_symmetry_group_IT_number 185
_symmetry_cell_setting 'hexagonal'
loop_
_space_group_symop_operation_xyz
x,y,z
x-y,x,1/2+z
-y,x-y,z
-x,-y,1/2+z
-x+y,-x,z
y,-x+y,1/2+z
-x+y,y,1/2+z
x,x-y,1/2+z
-y,-x,1/2+z
y,x,z
x-y,-y,z
-x,-x+y,z
loop_
_atom_site_type_symbol
_atom_site_label
_atom_site_fract_x
_atom_site_fract_y
_atom_site_fract_z
Si Si1 0.254592 0.872922 0.755890
Si Si2 0.872968 0.872968 0.121834
Si Si3 0.618329 0.872922 0.623852
Si Si4 0.746991 0.000000 0.122827
Si Si5 0.478574 0.403243 0.621702
Si Si6 0.075330 0.478574 0.758040
Si Si7 0.253009 0.253009 0.756916
Si Si8 0.872968 0.000000 0.257908
O O1 0.196994 0.803006 0.689871
O O2 0.325271 0.877609 0.715014
O O3 0.254132 0.933680 0.669116
O O4 0.245797 0.878490 0.939871
O O5 0.805883 0.805883 0.161947
O O6 0.869446 0.934723 0.189871
O O7 0.882028 0.882028 0.939871
O O8 0.552338 0.877609 0.664728
O O9 0.679548 0.933680 0.710626
O O10 0.805883 0.000000 0.217795
O O11 0.759708 0.000000 0.939871
O O12 0.430996 0.430996 0.689535
O O13 0.483655 0.412930 0.439871
O O14 0.553648 0.446352 0.689871
O O15 0.000000 0.430996 0.690207
#
# Coordination Sequence:
#
# PCOD8326697 Si02
#       8
#    12   6  12   6  12  12   6   6
#     4  11  22  38  57  84 119 154 190 235 284 337
#     4  12  25  43  62  81 106 140 185 236 288 344
#     4  11  22  38  57  84 119 154 190 235 284 337
#     4  12  24  39  58  83 112 150 191 234 287 342
#     4   9  18  34  56  82 113 145 181 228 278 328
#     4   9  18  34  56  82 113 145 181 228 278 328
#     4  12  24  39  58  83 112 150 191 234 287 342
#     4  12  25  43  62  81 106 140 185 236 288 344
#
# _framework density 18.238095000000001
#
# number of rings (size 3 to 8) (size 9 to 14) (size 15 to 20)
#    0.000    1.333    1.667    5.167    0.000    2.667 
#    0.000    0.000    0.000    0.667    0.000    0.000 
#    0.000    0.000    0.000    0.000    0.000    0.000 
#
# Total GULP energy -892894.825406 kJ/mol
# GULP energy per Si atom -12401.317020 kJ/mol
# Density = 1.819658 g / cm^3
# Si number density = 18.238095 Si / 1000 Ang^3
#
#
#
# Elastic Constant Matrix: (Units=GPa)
#
#
# Indices 1 2 3 4 5 6 
#
# 1 126.1858 66.7837 33.7893 0.0000 0.0000 0.0000
# 2 66.7837 126.1858 33.7893 0.0000 0.0000 0.0000
# 3 33.7893 33.7893 86.2233 0.0000 0.0000 0.0000
# 4 0.0000 0.0000 0.0000 32.6363 0.0000 0.0000
# 5 0.0000 0.0000 0.0000 0.0000 32.6363 0.0000
# 6 0.0000 0.0000 0.0000 0.0000 0.0000 29.7011
#
#
#
# Elastic Compliance Matrix: (Units=1/GPa)
#
#
# Indices 1 2 3 4 5 6 
#
# 1 0.011420 -0.005414 -0.002354 0.000000 0.000000 0.000000
# 2 -0.005414 0.011420 -0.002354 0.000000 0.000000 0.000000
# 3 -0.002354 -0.002354 0.013443 0.000000 0.000000 0.000000
# 4 0.000000 0.000000 0.000000 0.030641 0.000000 0.000000
# 5 0.000000 0.000000 0.000000 0.000000 0.030641 0.000000
# 6 0.000000 0.000000 0.000000 0.000000 0.000000 0.033669
#
#
# Mechanical properties :
#
#
# Convention : Reuss Voigt Hill
#
# Bulk Modulus (GPa) = 62.34301 67.47994 64.91148
# Shear Modulus (GPa) = 31.88292 32.61026 32.24659
#
# Velocity S-wave (km/s) = 4.18562 4.23310 4.20943
# Velocity P-wave (km/s) = 7.59054 7.80845 7.70027
#
# Compressibility (1/GPa) = 0.01604029
#
# Stress axis : x y z
#
# Youngs Moduli (GPa) = 87.56221 87.56221 74.39018
#
# Poissons Ratio (x) = 0.47406 0.17510
# Poissons Ratio (y) = 0.47406 0.17510
# Poissons Ratio (z) = 0.20611 0.20611
#
# Static dielectric constant tensor:
#      x y z
#    x 3.544150 0.000000 0.000000 
#    y 0.000000 3.544150 0.000000 
#    z 0.000000 0.000000 3.492100 
# 
# 
# High freq. dielectric constant tensor:
#      x y z
#    x 1.704880 0.000000 0.000000 
#    y 0.000000 1.704880 0.000000 
#    z 0.000000 0.000000 1.718750 
# 
# From -- ./inp_files/659.got.cif
#   From: 2010.03.12/outbox.cif.g09.slc.cpg/sg185_cif.got.tgz:659.got - 2010.04.01 11:55:19.
