data_PCOD8326859
_publ_section_title
;
Structure prediction by ZEFSAII (Michael W. Deem and Ramdas Pophale) SiO2 
 PCOD8326859
Probable space group: P -6 M 2
;
_chemical_formula_sum "Si O2"
_cell_formula_units_Z 72
_cell_length_a 23.580014
_cell_length_b 23.580014
_cell_length_c 9.117914
_cell_angle_alpha 90.000000
_cell_angle_beta 90.000000
_cell_angle_gamma 120.000000
_cell_volume 4390.502619
_symmetry_space_group_name_H-M "P -6 M 2"
_symmetry_group_IT_number 187
_symmetry_cell_setting 'hexagonal'
loop_
_space_group_symop_operation_xyz
x,y,z
-x+y,-x,-z
-y,x-y,z
x,y,-z
-x+y,-x,z
-y,x-y,-z
-y,-x,-z
-x+y,y,-z
x,x-y,-z
-x+y,y,z
x,x-y,z
-y,-x,z
loop_
_atom_site_type_symbol
_atom_site_label
_atom_site_fract_x
_atom_site_fract_y
_atom_site_fract_z
Si Si1 0.098653 0.327312 0.332201
Si Si2 0.667658 0.108515 0.171240
Si Si3 0.299816 0.475909 0.673925
Si Si4 0.777450 0.554900 0.334822
Si Si5 0.446713 0.553288 0.324564
Si Si6 0.855242 0.710483 0.334743
Si Si7 0.966892 0.483446 0.827497
Si Si8 0.289868 0.256094 0.828174
O O1 0.073982 0.320069 0.500000
O O2 0.152321 0.304642 0.318621
O O3 0.128688 0.401561 0.276904
O O4 0.039598 0.283541 0.225335
O O5 0.708072 0.178028 0.254197
O O6 0.592259 0.074550 0.219414
O O7 0.693706 0.059087 0.213828
O O8 0.676671 0.124732 0.000000
O O9 0.300861 0.479504 0.500000
O O10 0.250043 0.500086 0.732842
O O11 0.372645 0.519877 0.736425
O O12 0.763701 0.527402 0.500000
O O13 0.816318 0.632635 0.331519
O O14 0.449583 0.550418 0.500000
O O15 0.482795 0.517206 0.259485
O O16 0.868855 0.737710 0.500000
O O17 0.923447 0.736743 0.251157
O O18 0.982365 0.491183 0.000000
O O19 0.281453 0.243403 0.000000
#
# Coordination Sequence:
#
# PCOD8326859 Si02
#       8
#    12  12  12   6   6   6   6  12
#     4   9  17  29  44  60  85 122 156 185 223 276
#     4   9  18  31  46  65  91 122 151 183 225 276
#     4   8  15  28  43  62  88 117 153 198 246 292
#     4   9  17  29  47  68  88 113 145 180 217 259
#     4  10  18  28  46  68  89 117 156 204 252 294
#     4   9  17  29  45  65  90 118 145 169 204 260
#     4  10  20  32  46  67  95 124 154 189 235 287
#     4  10  18  28  44  67  93 117 145 185 227 261
#
# _framework density 16.399034
#
# number of rings (size 3 to 8) (size 9 to 14) (size 15 to 20)
#    0.000    2.833    0.000    3.000    0.000    3.667 
#    0.500    0.000    0.000    1.833    0.000    1.167 
#    0.833    0.000    1.500    0.000    1.500    0.000 
#
# Total GULP energy -892677.136347 kJ/mol
# GULP energy per Si atom -12398.293560 kJ/mol
# Density = 1.636171 g / cm^3
# Si number density = 16.399034 Si / 1000 Ang^3
#
#
#
# Elastic Constant Matrix: (Units=GPa)
#
#
# Indices 1 2 3 4 5 6 
#
# 1 109.4155 63.6190 43.2358 0.0000 -0.0001 0.0000
# 2 63.6190 109.4155 43.2358 0.0000 0.0001 0.0000
# 3 43.2358 43.2358 64.0915 0.0000 0.0000 0.0000
# 4 0.0000 0.0000 0.0000 21.7012 0.0000 0.0001
# 5 -0.0001 0.0001 0.0000 0.0000 21.7012 0.0000
# 6 0.0000 0.0000 0.0000 0.0001 0.0000 22.8982
#
#
#
# Elastic Compliance Matrix: (Units=1/GPa)
#
#
# Indices 1 2 3 4 5 6 
#
# 1 0.015277 -0.006559 -0.005881 0.000000 0.000000 0.000000
# 2 -0.006559 0.015277 -0.005881 0.000000 0.000000 0.000000
# 3 -0.005881 -0.005881 0.023538 0.000000 0.000000 0.000000
# 4 0.000000 0.000000 0.000000 0.046080 0.000000 0.000000
# 5 0.000000 0.000000 0.000000 0.000000 0.046080 0.000000
# 6 0.000000 0.000000 0.000000 0.000000 0.000000 0.043671
#
#
# Mechanical properties :
#
#
# Convention : Reuss Voigt Hill
#
# Bulk Modulus (GPa) = 57.30978 64.78929 61.04954
# Shear Modulus (GPa) = 21.51621 22.11560 21.81590
#
# Velocity S-wave (km/s) = 3.62614 3.67630 3.65131
# Velocity P-wave (km/s) = 7.24947 7.59039 7.42189
#
# Compressibility (1/GPa) = 0.01744903
#
# Stress axis : x y z
#
# Youngs Moduli (GPa) = 65.45776 65.45776 42.48496
#
# Poissons Ratio (x) = 0.42932 0.24987
# Poissons Ratio (y) = 0.42932 0.24987
# Poissons Ratio (z) = 0.38498 0.38498
#
# Static dielectric constant tensor:
#      x y z
#    x 3.146010 0.000000 0.000000 
#    y 0.000000 3.146010 0.000000 
#    z 0.000000 0.000000 2.962000 
# 
# 
# High freq. dielectric constant tensor:
#      x y z
#    x 1.618960 0.000000 0.000000 
#    y 0.000000 1.618960 0.000000 
#    z 0.000000 0.000000 1.619640 
# 
# From -- ./inp_files/1085.got.cif
#   From: 2010.03.12/outbox.cif.g09.slc.cpg/sg187_1_cif.got.tgz:1085.got - 2010.04.01 11:58:23.
