data_PCOD8326261
_publ_section_title
;
Structure prediction by ZEFSAII (Michael W. Deem and Ramdas Pophale) SiO2 
 PCOD8326261
Probable space group: P 62 2 2
;
_chemical_formula_sum "Si O2"
_cell_formula_units_Z 51
_cell_length_a 12.155851
_cell_length_b 12.155851
_cell_length_c 17.730629
_cell_angle_alpha 90.000000
_cell_angle_beta 90.000000
_cell_angle_gamma 120.000000
_cell_volume 2268.953056
_symmetry_space_group_name_H-M "P 62 2 2"
_symmetry_group_IT_number 180
_symmetry_cell_setting 'hexagonal'
loop_
_space_group_symop_operation_xyz
x,y,z
x-y,x,1/3+z
-y,x-y,2/3+z
-x,-y,z
-x+y,-x,1/3+z
y,-x+y,2/3+z
x-y,-y,-z
-x,-x+y,1/3-z
y,x,2/3-z
-y,-x,2/3-z
-x+y,y,-z
x,x-y,1/3-z
loop_
_atom_site_type_symbol
_atom_site_label
_atom_site_fract_x
_atom_site_fract_y
_atom_site_fract_z
Si Si1 0.409374 0.084503 0.370312
Si Si2 0.749989 0.948499 0.916200
Si Si3 0.957624 0.601339 0.885290
Si Si4 0.000000 0.000000 0.833334
Si Si5 0.511253 0.173019 0.571074
O O1 0.363683 0.169052 0.412721
O O2 0.564422 0.162613 0.360862
O O3 0.347205 0.038173 0.288206
O O4 0.356704 0.966896 0.428768
O O5 0.696952 0.003748 0.852297
O O6 0.883483 0.966006 0.889193
O O7 0.758067 0.000000 0.000000
O O8 0.809824 0.532825 0.911232
O O9 0.000000 0.500000 0.866060
O O10 0.601889 0.203778 0.500000
#
# Coordination Sequence:
#
# PCOD8326261 Si02
#       5
#    12  12  12   3  12
#     4  11  23  44  76 106 140 185 253 314 361 442
#     4  12  27  48  70 104 149 198 244 306 385 452
#     4  12  26  45  70 110 150 193 246 308 381 464
#     4  12  26  48  76 104 136 192 262 318 366 446
#     4  11  22  44  75 111 137 183 247 315 378 427
#
# _framework density 22.477328
#
# number of rings (size 3 to 8) (size 9 to 14) (size 15 to 20)
#    0.000    0.471    4.706    5.294    0.000    2.353 
#    6.353    2.353    0.000    0.000    0.000    0.000 
#    0.000    0.000    0.000    0.000    0.000    0.000 
#
# Total GULP energy -631793.769149 kJ/mol
# GULP energy per Si atom -12388.113121 kJ/mol
# Density = 2.242617 g / cm^3
# Si number density = 22.477328 Si / 1000 Ang^3
#
#
#
# Elastic Constant Matrix: (Units=GPa)
#
#
# Indices 1 2 3 4 5 6 
#
# 1 91.9594 41.5300 40.8587 0.0000 0.0000 0.0000
# 2 41.5300 91.9594 40.8587 0.0000 0.0000 0.0000
# 3 40.8587 40.8587 156.1823 0.0000 0.0000 0.0000
# 4 0.0000 0.0000 0.0000 34.8211 0.0000 0.0000
# 5 0.0000 0.0000 0.0000 0.0000 34.8211 0.0000
# 6 0.0000 0.0000 0.0000 0.0000 0.0000 25.2147
#
#
#
# Elastic Compliance Matrix: (Units=1/GPa)
#
#
# Indices 1 2 3 4 5 6 
#
# 1 0.014375 -0.005455 -0.002333 0.000000 0.000000 0.000000
# 2 -0.005455 0.014375 -0.002333 0.000000 0.000000 0.000000
# 3 -0.002333 -0.002333 0.007624 0.000000 0.000000 0.000000
# 4 0.000000 0.000000 0.000000 0.028718 0.000000 0.000000
# 5 0.000000 0.000000 0.000000 0.000000 0.028718 0.000000
# 6 0.000000 0.000000 0.000000 0.000000 0.000000 0.039659
#
#
# Mechanical properties :
#
#
# Convention : Reuss Voigt Hill
#
# Bulk Modulus (GPa) = 61.99936 65.17730 63.58833
# Shear Modulus (GPa) = 31.42892 33.42831 32.42861
#
# Velocity S-wave (km/s) = 3.74337 3.86061 3.80244
# Velocity P-wave (km/s) = 6.80638 6.99516 6.90141
#
# Compressibility (1/GPa) = 0.01612920
#
# Stress axis : x y z
#
# Youngs Moduli (GPa) = 69.56668 69.56668 131.17004
#
# Poissons Ratio (x) = 0.37949 0.30608
# Poissons Ratio (y) = 0.37949 0.30608
# Poissons Ratio (z) = 0.16233 0.16233
#
# Static dielectric constant tensor:
#      x y z
#    x 4.189270 0.000000 0.000000 
#    y 0.000000 4.189270 0.000000 
#    z 0.000000 0.000000 4.635700 
# 
# 
# High freq. dielectric constant tensor:
#      x y z
#    x 1.881830 0.000000 0.000000 
#    y 0.000000 1.881830 0.000000 
#    z 0.000000 0.000000 1.908330 
# 
# From -- ./inp_files/8836.got.cif
#   From: 2010.03.12/outbox.cif.g09.slc.cpg/sg180_5_cif.got.tgz:8836.got - 2010.04.01 11:35:50.
