data_PCOD8326227
_publ_section_title
;
Structure prediction by ZEFSAII (Michael W. Deem and Ramdas Pophale) SiO2 
 PCOD8326227
Probable space group: P 62 2 2
;
_chemical_formula_sum "Si O2"
_cell_formula_units_Z 24
_cell_length_a 11.671020
_cell_length_b 11.671020
_cell_length_c 6.971499
_cell_angle_alpha 90.000000
_cell_angle_beta 90.000000
_cell_angle_gamma 120.000000
_cell_volume 822.383575
_symmetry_space_group_name_H-M "P 62 2 2"
_symmetry_group_IT_number 180
_symmetry_cell_setting 'hexagonal'
loop_
_space_group_symop_operation_xyz
x,y,z
x-y,x,1/3+z
-y,x-y,2/3+z
-x,-y,z
-x+y,-x,1/3+z
y,-x+y,2/3+z
x-y,-y,-z
-x,-x+y,1/3-z
y,x,2/3-z
-y,-x,2/3-z
-x+y,y,-z
x,x-y,1/3-z
loop_
_atom_site_type_symbol
_atom_site_label
_atom_site_fract_x
_atom_site_fract_y
_atom_site_fract_z
Si Si1 0.292938 0.047444 0.800248
Si Si2 0.500550 0.794275 0.364299
O O1 0.230145 0.115073 0.666667
O O2 0.367733 0.071099 0.306809
O O3 0.446257 0.156258 0.852002
O O4 0.210158 0.000000 0.000000
O O5 0.416409 0.832817 0.500000
O O6 0.423627 0.711814 0.166667
#
# Coordination Sequence:
#
# PCOD8326227 Si02
#       2
#    12  12
#     4  10  22  43  74 110 161 219 270 331 406 481
#     4  10  23  46  77 117 166 219 274 334 408 491
#
# _framework density 29.183461000000001
#
# number of rings (size 3 to 8) (size 9 to 14) (size 15 to 20)
#    0.000    2.000    0.000    1.500    0.000    6.000 
#    0.000   17.500    0.000  127.500    0.000    0.000 
#    0.000    0.000    0.000    0.000    0.000    0.000 
#
# Total GULP energy -297558.438729 kJ/mol
# GULP energy per Si atom -12398.268280 kJ/mol
# Density = 2.911704 g / cm^3
# Si number density = 29.183461 Si / 1000 Ang^3
#
#
#
# Elastic Constant Matrix: (Units=GPa)
#
#
# Indices 1 2 3 4 5 6 
#
# 1 121.7867 68.6201 85.6054 0.0000 0.0000 0.0000
# 2 68.6201 121.7867 85.6054 0.0000 0.0000 0.0000
# 3 85.6054 85.6054 246.4498 0.0000 0.0000 0.0000
# 4 0.0000 0.0000 0.0000 46.4589 0.0000 0.0000
# 5 0.0000 0.0000 0.0000 0.0000 46.4589 0.0000
# 6 0.0000 0.0000 0.0000 0.0000 0.0000 26.5833
#
#
#
# Elastic Compliance Matrix: (Units=1/GPa)
#
#
# Indices 1 2 3 4 5 6 
#
# 1 0.013223 -0.005586 -0.002653 0.000000 0.000000 0.000000
# 2 -0.005586 0.013223 -0.002653 0.000000 0.000000 0.000000
# 3 -0.002653 -0.002653 0.005901 0.000000 0.000000 0.000000
# 4 0.000000 0.000000 0.000000 0.021524 0.000000 0.000000
# 5 0.000000 0.000000 0.000000 0.000000 0.021524 0.000000
# 6 0.000000 0.000000 0.000000 0.000000 0.000000 0.037618
#
#
# Mechanical properties :
#
#
# Convention : Reuss Voigt Hill
#
# Bulk Modulus (GPa) = 94.66287 107.74275 101.20281
# Shear Modulus (GPa) = 36.14878 40.57972 38.36425
#
# Velocity S-wave (km/s) = 3.52330 3.73299 3.62966
# Velocity P-wave (km/s) = 7.00422 7.45517 7.23321
#
# Compressibility (1/GPa) = 0.01056380
#
# Stress axis : x y z
#
# Youngs Moduli (GPa) = 75.62546 75.62546 169.47480
#
# Poissons Ratio (x) = 0.42242 0.44959
# Poissons Ratio (y) = 0.42242 0.44959
# Poissons Ratio (z) = 0.20062 0.20062
#
# Static dielectric constant tensor:
#      x y z
#    x 5.645440 0.000000 0.000000 
#    y 0.000000 5.645440 0.000000 
#    z 0.000000 0.000000 6.660480 
# 
# 
# High freq. dielectric constant tensor:
#      x y z
#    x 2.182250 0.000000 0.000000 
#    y 0.000000 2.182250 0.000000 
#    z 0.000000 0.000000 2.236540 
# 
# From -- ./inp_files/145.got.cif
#   From: 2010.03.12/outbox.cif.g09.slc.cpg/sg180_1_cif.got.tgz:145.got - 2010.04.01 11:35:50.
