data_PCOD8326184
_publ_section_title
;
Structure prediction by ZEFSAII (Michael W. Deem and Ramdas Pophale) SiO2 
 PCOD8326184
Probable space group: P 62 2 2
;
_chemical_formula_sum "Si O2"
_cell_formula_units_Z 39
_cell_length_a 8.119276
_cell_length_b 8.119276
_cell_length_c 32.106922
_cell_angle_alpha 90.000000
_cell_angle_beta 90.000000
_cell_angle_gamma 120.000000
_cell_volume 1833.006116
_symmetry_space_group_name_H-M "P 62 2 2"
_symmetry_group_IT_number 180
_symmetry_cell_setting 'hexagonal'
loop_
_space_group_symop_operation_xyz
x,y,z
x-y,x,1/3+z
-y,x-y,2/3+z
-x,-y,z
-x+y,-x,1/3+z
y,-x+y,2/3+z
x-y,-y,-z
-x,-x+y,1/3-z
y,x,2/3-z
-y,-x,2/3-z
-x+y,y,-z
x,x-y,1/3-z
loop_
_atom_site_type_symbol
_atom_site_label
_atom_site_fract_x
_atom_site_fract_y
_atom_site_fract_z
Si Si1 0.000000 0.000000 0.500000
Si Si2 0.285990 0.947547 0.623101
Si Si3 0.011026 0.320036 0.775831
Si Si4 0.671019 0.960724 0.283942
O O1 0.807099 0.857916 0.475057
O O2 0.175541 0.772519 0.592094
O O3 0.203511 0.887172 0.669940
O O4 0.500000 0.000000 0.622968
O O5 0.270424 0.126517 0.606997
O O6 0.000000 0.500000 0.796041
O O7 0.815559 0.190311 0.752018
O O8 0.500000 0.000000 0.282524
#
# Coordination Sequence:
#
# PCOD8326184 Si02
#       4
#     3  12  12  12
#     4  12  28  52  64  94 136 180 254 290 324 398
#     4  10  20  38  65 106 137 170 207 274 348 417
#     4  12  25  45  70  92 129 180 227 281 341 396
#     4  10  20  37  68 102 142 167 211 271 347 425
#
# _framework density 21.276523000000001
#
# number of rings (size 3 to 8) (size 9 to 14) (size 15 to 20)
#    0.000    1.231    3.077    2.769    0.000    8.615 
#    5.538    0.000    0.000    0.000    0.000    0.000 
#    0.000    0.000    0.000    0.000    0.000    0.000 
#
# Total GULP energy -483379.697088 kJ/mol
# GULP energy per Si atom -12394.351207 kJ/mol
# Density = 2.122810 g / cm^3
# Si number density = 21.276523 Si / 1000 Ang^3
#
#
#
# Elastic Constant Matrix: (Units=GPa)
#
#
# Indices 1 2 3 4 5 6 
#
# 1 115.0458 37.4222 45.5213 0.0000 0.0000 0.0000
# 2 37.4222 115.0458 45.5213 0.0000 0.0000 0.0000
# 3 45.5213 45.5213 86.6848 0.0000 0.0000 0.0000
# 4 0.0000 0.0000 0.0000 31.4069 0.0000 0.0000
# 5 0.0000 0.0000 0.0000 0.0000 31.4069 0.0000
# 6 0.0000 0.0000 0.0000 0.0000 0.0000 38.8118
#
#
#
# Elastic Compliance Matrix: (Units=1/GPa)
#
#
# Indices 1 2 3 4 5 6 
#
# 1 0.011219 -0.001664 -0.005018 0.000000 0.000000 0.000000
# 2 -0.001664 0.011219 -0.005018 0.000000 0.000000 0.000000
# 3 -0.005018 -0.005018 0.016806 0.000000 0.000000 0.000000
# 4 0.000000 0.000000 0.000000 0.031840 0.000000 0.000000
# 5 0.000000 0.000000 0.000000 0.000000 0.031840 0.000000
# 6 0.000000 0.000000 0.000000 0.000000 0.000000 0.025765
#
#
# Mechanical properties :
#
#
# Convention : Reuss Voigt Hill
#
# Bulk Modulus (GPa) = 63.11049 63.74513 63.42781
# Shear Modulus (GPa) = 31.77243 32.87923 32.32583
#
# Velocity S-wave (km/s) = 3.86853 3.93533 3.90207
# Velocity P-wave (km/s) = 7.04844 7.11860 7.08360
#
# Compressibility (1/GPa) = 0.01584523
#
# Stress axis : x y z
#
# Youngs Moduli (GPa) = 89.13610 89.13610 59.50282
#
# Poissons Ratio (x) = 0.14831 0.29856
# Poissons Ratio (y) = 0.14831 0.29856
# Poissons Ratio (z) = 0.44725 0.44725
#
# Static dielectric constant tensor:
#      x y z
#    x 3.876690 0.000000 0.000000 
#    y 0.000000 3.876690 0.000000 
#    z 0.000000 0.000000 3.903400 
# 
# 
# High freq. dielectric constant tensor:
#      x y z
#    x 1.843530 0.000000 0.000000 
#    y 0.000000 1.843530 0.000000 
#    z 0.000000 0.000000 1.819220 
# 
# From -- ./inp_files/11826.got.cif
#   From: 2010.03.12/outbox.cif.g09.slc.cpg/sg180_6_cif.got.tgz:11826.got - 2010.04.01 11:35:50.
