data_PCOD8326337
_publ_section_title
;
Structure prediction by ZEFSAII (Michael W. Deem and Ramdas Pophale) SiO2 
 PCOD8326337
Probable space group: P 64 2 2
;
_chemical_formula_sum "Si O2"
_cell_formula_units_Z 60
_cell_length_a 14.623211
_cell_length_b 14.623211
_cell_length_c 14.997436
_cell_angle_alpha 90.000000
_cell_angle_beta 90.000000
_cell_angle_gamma 120.000000
_cell_volume 2777.366175
_symmetry_space_group_name_H-M "P 64 2 2"
_symmetry_group_IT_number 181
_symmetry_cell_setting 'hexagonal'
loop_
_space_group_symop_operation_xyz
x,y,z
x-y,x,2/3+z
-y,x-y,1/3+z
-x,-y,z
-x+y,-x,2/3+z
y,-x+y,1/3+z
x-y,-y,-z
-x,-x+y,2/3-z
y,x,1/3-z
-y,-x,1/3-z
-x+y,y,-z
x,x-y,2/3-z
loop_
_atom_site_type_symbol
_atom_site_label
_atom_site_fract_x
_atom_site_fract_y
_atom_site_fract_z
Si Si1 0.236849 0.847077 0.334821
Si Si2 0.432899 0.619569 0.874198
Si Si3 0.334842 0.387625 0.576708
Si Si4 0.249255 0.402287 0.850345
Si Si5 0.955848 0.775152 0.929175
O O1 0.339472 0.850807 0.292352
O O2 0.140943 0.786752 0.264337
O O3 0.217508 0.782005 0.425054
O O4 0.249253 0.960629 0.355947
O O5 0.397500 0.698750 0.833334
O O6 0.495053 0.598442 0.795861
O O7 0.330698 0.509692 0.901186
O O8 0.394535 0.394535 0.666667
O O9 0.330236 0.301820 0.506247
O O10 0.147812 0.337485 0.911745
O O11 0.000000 0.836057 0.833334
O O12 0.917926 0.835852 0.000000
#
# Coordination Sequence:
#
# PCOD8326337 Si02
#       5
#    12  12  12  12  12
#     4   9  20  37  60  87 121 159 208 266 315 381
#     4  10  20  34  56  88 123 158 205 260 314 370
#     4   9  18  32  57  88 115 154 204 260 312 369
#     4  10  20  36  60  86 122 166 207 255 320 385
#     4  10  21  40  65  88 123 170 208 258 323 396
#
# _framework density 21.603200000000001
#
# number of rings (size 3 to 8) (size 9 to 14) (size 15 to 20)
#    0.000    2.400    0.000    1.800    0.000    9.600 
#    3.600    0.000    4.400   25.800    0.000    0.000 
#    0.000    0.000    0.000    0.000    0.000    0.000 
#
# Total GULP energy -743605.057030 kJ/mol
# GULP energy per Si atom -12393.417617 kJ/mol
# Density = 2.155403 g / cm^3
# Si number density = 21.603200 Si / 1000 Ang^3
#
#
#
# Elastic Constant Matrix: (Units=GPa)
#
#
# Indices 1 2 3 4 5 6 
#
# 1 103.5718 55.0727 36.0315 0.0000 0.0000 0.0000
# 2 55.0727 103.5718 36.0315 0.0000 0.0000 0.0000
# 3 36.0315 36.0315 94.3631 0.0000 0.0000 0.0000
# 4 0.0000 0.0000 0.0000 29.7050 0.0000 0.0000
# 5 0.0000 0.0000 0.0000 0.0000 29.7050 0.0000
# 6 0.0000 0.0000 0.0000 0.0000 0.0000 24.2495
#
#
#
# Elastic Compliance Matrix: (Units=1/GPa)
#
#
# Indices 1 2 3 4 5 6 
#
# 1 0.014123 -0.006496 -0.002912 0.000000 0.000000 0.000000
# 2 -0.006496 0.014123 -0.002912 0.000000 0.000000 0.000000
# 3 -0.002912 -0.002912 0.012821 0.000000 0.000000 0.000000
# 4 0.000000 0.000000 0.000000 0.033664 0.000000 0.000000
# 5 0.000000 0.000000 0.000000 0.000000 0.033664 0.000000
# 6 0.000000 0.000000 0.000000 0.000000 0.000000 0.041238
#
#
# Mechanical properties :
#
#
# Convention : Reuss Voigt Hill
#
# Bulk Modulus (GPa) = 60.88054 61.75311 61.31683
# Shear Modulus (GPa) = 27.81661 28.35663 28.08662
#
# Velocity S-wave (km/s) = 3.59223 3.62693 3.60962
# Velocity P-wave (km/s) = 6.74151 6.79608 6.76885
#
# Compressibility (1/GPa) = 0.01642561
#
# Stress axis : x y z
#
# Youngs Moduli (GPa) = 70.80876 70.80876 77.99604
#
# Poissons Ratio (x) = 0.46000 0.22712
# Poissons Ratio (y) = 0.46000 0.22712
# Poissons Ratio (z) = 0.20619 0.20619
#
# Static dielectric constant tensor:
#      x y z
#    x 3.793630 0.000000 0.000000 
#    y 0.000000 3.793630 0.000000 
#    z 0.000000 0.000000 4.158120 
# 
# 
# High freq. dielectric constant tensor:
#      x y z
#    x 1.835230 0.000000 0.000000 
#    y 0.000000 1.835230 0.000000 
#    z 0.000000 0.000000 1.860950 
# 
# From -- ./inp_files/6138.got.cif
#   From: 2010.03.12/outbox.cif.g09.slc.cpg/sg181_4_cif.got.tgz:6138.got - 2010.04.01 11:42:41.
