data_PCOD8326165
_publ_section_title
;
Structure prediction by ZEFSAII (Michael W. Deem and Ramdas Pophale) SiO2 
 PCOD8326165
Probable space group: P 62 2 2
;
_chemical_formula_sum "Si O2"
_cell_formula_units_Z 60
_cell_length_a 19.055366
_cell_length_b 19.055366
_cell_length_c 9.846186
_cell_angle_alpha 90.000000
_cell_angle_beta 90.000000
_cell_angle_gamma 120.000000
_cell_volume 3096.230303
_symmetry_space_group_name_H-M "P 62 2 2"
_symmetry_group_IT_number 180
_symmetry_cell_setting 'hexagonal'
loop_
_space_group_symop_operation_xyz
x,y,z
x-y,x,1/3+z
-y,x-y,2/3+z
-x,-y,z
-x+y,-x,1/3+z
y,-x+y,2/3+z
x-y,-y,-z
-x,-x+y,1/3-z
y,x,2/3-z
-y,-x,2/3-z
-x+y,y,-z
x,x-y,1/3-z
loop_
_atom_site_type_symbol
_atom_site_label
_atom_site_fract_x
_atom_site_fract_y
_atom_site_fract_z
Si Si1 0.171303 0.720144 0.953983
Si Si2 0.062722 0.267355 0.787664
Si Si3 0.450083 0.545717 0.172876
Si Si4 0.081533 0.269740 0.376043
Si Si5 0.817219 0.264394 0.471985
O O1 0.224323 0.775678 0.833334
O O2 0.134189 0.628025 0.911608
O O3 0.097741 0.737572 0.985525
O O4 0.229276 0.742969 0.086586
O O5 0.126432 0.236527 0.752629
O O6 0.112081 0.363354 0.801725
O O7 0.000000 0.250544 0.666667
O O8 0.013565 0.223836 0.925191
O O9 0.500000 0.500000 0.143723
O O10 0.443406 0.556594 0.333334
O O11 0.359830 0.501001 0.112941
O O12 0.136049 0.272098 0.500000
O O13 0.783604 0.216397 0.333334
#
# Coordination Sequence:
#
# PCOD8326165 Si02
#       5
#    12  12  12  12  12
#     4  10  19  38  56  83 117 159 209 255 311 364
#     4   9  17  32  57  84 118 160 194 248 300 366
#     4  11  23  38  65  91 114 165 224 263 307 380
#     4   8  15  27  53  81 114 148 190 242 288 347
#     4  11  24  40  58  90 126 157 208 262 316 365
#
# _framework density 19.378402000000001
#
# number of rings (size 3 to 8) (size 9 to 14) (size 15 to 20)
#    0.000    2.200    2.000    2.400    2.800    0.800 
#    3.600   10.000    0.000    0.000    0.000    0.000 
#    0.000   68.000    0.000    0.000    0.000    0.000 
#
# Total GULP energy -743586.035943 kJ/mol
# GULP energy per Si atom -12393.100599 kJ/mol
# Density = 1.933430 g / cm^3
# Si number density = 19.378402 Si / 1000 Ang^3
#
#
#
# Elastic Constant Matrix: (Units=GPa)
#
#
# Indices 1 2 3 4 5 6 
#
# 1 106.5753 86.0646 47.1902 0.0000 0.0000 0.0000
# 2 86.0646 106.5753 47.1902 0.0000 0.0000 0.0000
# 3 47.1902 47.1902 80.6795 0.0000 0.0000 0.0000
# 4 0.0000 0.0000 0.0000 26.0429 0.0000 0.0000
# 5 0.0000 0.0000 0.0000 0.0000 26.0429 0.0000
# 6 0.0000 0.0000 0.0000 0.0000 0.0000 10.2554
#
#
#
# Elastic Compliance Matrix: (Units=1/GPa)
#
#
# Indices 1 2 3 4 5 6 
#
# 1 0.028016 -0.020739 -0.004256 0.000000 0.000000 0.000000
# 2 -0.020739 0.028016 -0.004256 0.000000 0.000000 0.000000
# 3 -0.004256 -0.004256 0.017373 0.000000 0.000000 0.000000
# 4 0.000000 0.000000 0.000000 0.038398 0.000000 0.000000
# 5 0.000000 0.000000 0.000000 0.000000 0.038398 0.000000
# 6 0.000000 0.000000 0.000000 0.000000 0.000000 0.097510
#
#
# Mechanical properties :
#
#
# Convention : Reuss Voigt Hill
#
# Bulk Modulus (GPa) = 67.10471 72.74666 69.92569
# Shear Modulus (GPa) = 16.06785 20.02725 18.04755
#
# Velocity S-wave (km/s) = 2.88264 3.21827 3.05507
# Velocity P-wave (km/s) = 6.76634 7.17156 6.97189
#
# Compressibility (1/GPa) = 0.01490208
#
# Stress axis : x y z
#
# Youngs Moduli (GPa) = 35.69447 35.69447 57.55953
#
# Poissons Ratio (x) = 0.74028 0.24497
# Poissons Ratio (y) = 0.74028 0.24497
# Poissons Ratio (z) = 0.15191 0.15191
#
# Static dielectric constant tensor:
#      x y z
#    x 3.595690 0.000000 0.000000 
#    y 0.000000 3.595690 0.000000 
#    z 0.000000 0.000000 3.755250 
# 
# 
# High freq. dielectric constant tensor:
#      x y z
#    x 1.747050 0.000000 0.000000 
#    y 0.000000 1.747050 0.000000 
#    z 0.000000 0.000000 1.745510 
# 
# From -- ./inp_files/4808.got.cif
#   From: 2010.03.12/outbox.cif.g09.slc.cpg/sg180_3_cif.got.tgz:4808.got - 2010.04.01 11:35:50.
