data_PCOD8326429
_publ_section_title
;
Structure prediction by ZEFSAII (Michael W. Deem and Ramdas Pophale) SiO2 
 PCOD8326429
Probable space group: P 64 2 2
;
_chemical_formula_sum "Si O2"
_cell_formula_units_Z 42
_cell_length_a 13.559312
_cell_length_b 13.559312
_cell_length_c 11.838866
_cell_angle_alpha 90.000000
_cell_angle_beta 90.000000
_cell_angle_gamma 120.000000
_cell_volume 1885.020357
_symmetry_space_group_name_H-M "P 64 2 2"
_symmetry_group_IT_number 181
_symmetry_cell_setting 'hexagonal'
loop_
_space_group_symop_operation_xyz
x,y,z
x-y,x,2/3+z
-y,x-y,1/3+z
-x,-y,z
-x+y,-x,2/3+z
y,-x+y,1/3+z
x-y,-y,-z
-x,-x+y,2/3-z
y,x,1/3-z
-y,-x,1/3-z
-x+y,y,-z
x,x-y,2/3-z
loop_
_atom_site_type_symbol
_atom_site_label
_atom_site_fract_x
_atom_site_fract_y
_atom_site_fract_z
Si Si1 0.724857 0.724857 0.666667
Si Si2 0.629873 0.543231 0.466689
Si Si3 0.254951 0.543961 0.127073
Si Si4 0.108721 0.775625 0.916523
O O1 0.684982 0.623215 0.574922
O O2 0.754593 0.849574 0.620834
O O3 0.500000 0.500000 0.446122
O O4 0.626736 0.423881 0.483681
O O5 0.693702 0.613857 0.356100
O O6 0.385556 0.614445 0.166667
O O7 0.198039 0.426405 0.194057
O O8 0.254024 0.508047 0.000000
O O9 0.000000 0.725368 0.833334
#
# Coordination Sequence:
#
# PCOD8326429 Si02
#       4
#     6  12  12  12
#     4  12  27  48  74 109 152 196 253 312 371 448
#     4  12  25  45  74 110 147 191 246 306 381 449
#     4  12  24  40  67 109 154 192 234 302 381 457
#     4  12  28  46  73 107 149 199 255 308 372 443
#
# _framework density 22.280926999999998
#
# number of rings (size 3 to 8) (size 9 to 14) (size 15 to 20)
#    0.000    0.000    5.714    4.714    0.000    0.000 
#    0.000    0.000    0.000   10.286    0.000    0.000 
#    0.000    0.000    0.000    0.000    0.000    0.000 
#
# Total GULP energy -520374.102765 kJ/mol
# GULP energy per Si atom -12389.859590 kJ/mol
# Density = 2.223021 g / cm^3
# Si number density = 22.280927 Si / 1000 Ang^3
#
#
#
# Elastic Constant Matrix: (Units=GPa)
#
#
# Indices 1 2 3 4 5 6 
#
# 1 122.8277 33.4401 47.3338 0.0000 0.0000 0.0000
# 2 33.4401 122.8277 47.3338 0.0000 0.0000 0.0000
# 3 47.3338 47.3338 154.7022 0.0000 0.0000 0.0000
# 4 0.0000 0.0000 0.0000 23.3735 0.0000 0.0000
# 5 0.0000 0.0000 0.0000 0.0000 23.3735 0.0000
# 6 0.0000 0.0000 0.0000 0.0000 0.0000 44.6938
#
#
#
# Elastic Compliance Matrix: (Units=1/GPa)
#
#
# Indices 1 2 3 4 5 6 
#
# 1 0.009521 -0.001666 -0.002403 0.000000 0.000000 0.000000
# 2 -0.001666 0.009521 -0.002403 0.000000 0.000000 0.000000
# 3 -0.002403 -0.002403 0.007935 0.000000 0.000000 0.000000
# 4 0.000000 0.000000 0.000000 0.042783 0.000000 0.000000
# 5 0.000000 0.000000 0.000000 0.000000 0.042783 0.000000
# 6 0.000000 0.000000 0.000000 0.000000 0.000000 0.022374
#
#
# Mechanical properties :
#
#
# Convention : Reuss Voigt Hill
#
# Bulk Modulus (GPa) = 71.26804 72.95256 72.11030
# Shear Modulus (GPa) = 32.77793 36.43816 34.60805
#
# Velocity S-wave (km/s) = 3.83968 4.04839 3.94542
# Velocity P-wave (km/s) = 7.19118 7.39364 7.29311
#
# Compressibility (1/GPa) = 0.01403153
#
# Stress axis : x y z
#
# Youngs Moduli (GPa) = 105.02804 105.02804 126.02713
#
# Poissons Ratio (x) = 0.17497 0.30290
# Poissons Ratio (y) = 0.17497 0.30290
# Poissons Ratio (z) = 0.25243 0.25243
#
# Static dielectric constant tensor:
#      x y z
#    x 4.453280 0.000000 0.000000 
#    y 0.000000 4.453280 0.000000 
#    z 0.000000 0.000000 16.405280 
# 
# 
# High freq. dielectric constant tensor:
#      x y z
#    x 1.878700 0.000000 0.000000 
#    y 0.000000 1.878700 0.000000 
#    z 0.000000 0.000000 1.894010 
# 
# From -- ./inp_files/4225.got.cif
#   From: 2010.03.12/outbox.cif.g09.slc.cpg/sg181_3_cif.got.tgz:4225.got - 2010.04.01 11:42:41.
