data_PCOD8326871
_publ_section_title
;
Structure prediction by ZEFSAII (Michael W. Deem and Ramdas Pophale) SiO2 
 PCOD8326871
Probable space group: P -6 M 2
;
_chemical_formula_sum "Si O2"
_cell_formula_units_Z 66
_cell_length_a 20.382667
_cell_length_b 20.382667
_cell_length_c 11.272301
_cell_angle_alpha 90.000000
_cell_angle_beta 90.000000
_cell_angle_gamma 120.000000
_cell_volume 4055.694439
_symmetry_space_group_name_H-M "P -6 M 2"
_symmetry_group_IT_number 187
_symmetry_cell_setting 'hexagonal'
loop_
_space_group_symop_operation_xyz
x,y,z
-x+y,-x,-z
-y,x-y,z
x,y,-z
-x+y,-x,z
-y,x-y,-z
-y,-x,-z
-x+y,y,-z
x,x-y,-z
-x+y,y,z
x,x-y,z
-y,-x,z
loop_
_atom_site_type_symbol
_atom_site_label
_atom_site_fract_x
_atom_site_fract_y
_atom_site_fract_z
Si Si1 0.521967 0.896999 0.360036
Si Si2 0.586275 0.793138 0.358185
Si Si3 0.811966 0.478332 0.640939
Si Si4 0.675962 0.631500 0.360191
Si Si5 0.120540 0.879461 0.361405
Si Si6 0.997794 0.150729 0.000000
Si Si7 0.964947 0.187959 0.749175
O O1 0.512299 0.889029 0.500000
O O2 0.444131 0.888261 0.304662
O O3 0.540048 0.833257 0.310577
O O4 0.592535 0.978073 0.326756
O O5 0.589956 0.794978 0.500000
O O6 0.672867 0.836434 0.307777
O O7 0.809362 0.473465 0.500000
O O8 0.733911 0.467821 0.692196
O O9 0.824434 0.412217 0.694364
O O10 0.879008 0.558836 0.681137
O O11 0.693141 0.650657 0.500000
O O12 0.738200 0.698600 0.282058
O O13 0.125371 0.874629 0.500000
O O14 0.033707 0.842307 0.323743
O O15 0.982946 0.189711 0.887843
O O16 0.939630 0.060371 0.000000
O O17 0.082763 0.165525 0.000000
O O18 0.887729 0.112272 0.712667
#
# Coordination Sequence:
#
# PCOD8326871 Si02
#       7
#    12   6  12  12   6   6  12
#     4   9  16  26  41  62  90 126 164 196 233 289
#     4   9  16  28  43  63  95 131 162 195 235 285
#     4   9  16  25  38  60  93 131 166 197 233 283
#     4  10  18  29  46  69  98 127 156 194 244 297
#     4  11  20  33  51  73 103 132 157 191 243 297
#     4  10  21  38  56  70  87 120 164 208 246 282
#     4  11  22  35  52  71  94 125 164 203 240 284
#
# _framework density 16.273415
#
# number of rings (size 3 to 8) (size 9 to 14) (size 15 to 20)
#    0.000    2.182    2.727    1.909    0.000    5.091 
#    1.091    0.000    0.000    0.000    0.000    2.545 
#    0.000    0.000    0.000    1.818    0.000    0.727 
#
# Total GULP energy -818179.521352 kJ/mol
# GULP energy per Si atom -12396.659414 kJ/mol
# Density = 1.623638 g / cm^3
# Si number density = 16.273415 Si / 1000 Ang^3
#
#
#
# Elastic Constant Matrix: (Units=GPa)
#
#
# Indices 1 2 3 4 5 6 
#
# 1 92.7748 54.6648 29.6094 0.0000 0.0003 0.0000
# 2 54.6648 92.7748 29.6094 0.0000 -0.0003 0.0000
# 3 29.6094 29.6094 38.3941 0.0000 0.0000 0.0000
# 4 0.0000 0.0000 0.0000 9.2529 0.0000 -0.0003
# 5 0.0003 -0.0003 0.0000 0.0000 9.2529 0.0000
# 6 0.0000 0.0000 0.0000 -0.0003 0.0000 19.0550
#
#
#
# Elastic Compliance Matrix: (Units=1/GPa)
#
#
# Indices 1 2 3 4 5 6 
#
# 1 0.018033 -0.008207 -0.007578 0.000000 -0.000001 0.000000
# 2 -0.008207 0.018033 -0.007578 0.000000 0.000001 0.000000
# 3 -0.007578 -0.007578 0.037734 0.000000 0.000000 0.000000
# 4 0.000000 0.000000 0.000000 0.108074 0.000000 0.000002
# 5 -0.000001 0.000001 0.000000 0.000000 0.108074 0.000000
# 6 0.000000 0.000000 0.000000 0.000002 0.000000 0.052480
#
#
# Mechanical properties :
#
#
# Convention : Reuss Voigt Hill
#
# Bulk Modulus (GPa) = 36.93513 50.19007 43.56260
# Shear Modulus (GPa) = 12.55720 14.84950 13.70335
#
# Velocity S-wave (km/s) = 2.78085 3.02404 2.90499
# Velocity P-wave (km/s) = 5.74950 6.56520 6.17084
#
# Compressibility (1/GPa) = 0.02707449
#
# Stress axis : x y z
#
# Youngs Moduli (GPa) = 55.45407 55.45407 26.50154
#
# Poissons Ratio (x) = 0.45511 0.20082
# Poissons Ratio (y) = 0.45511 0.20082
# Poissons Ratio (z) = 0.42022 0.42022
#
# Static dielectric constant tensor:
#      x y z
#    x 3.383440 0.000000 0.000000 
#    y 0.000000 3.383440 0.000000 
#    z 0.000000 0.000000 2.593400 
# 
# 
# High freq. dielectric constant tensor:
#      x y z
#    x 1.641990 0.000000 0.000000 
#    y 0.000000 1.641990 0.000000 
#    z 0.000000 0.000000 1.553930 
# 
# From -- ./inp_files/812.got.cif
#   From: 2010.03.12/outbox.cif.g09.slc.cpg/sg187_1_cif.got.tgz:812.got - 2010.04.01 11:58:23.
