data_PCOD8326435
_publ_section_title
;
Structure prediction by ZEFSAII (Michael W. Deem and Ramdas Pophale) SiO2 
 PCOD8326435
Probable space group: P 63 2 2
;
_chemical_formula_sum "Si O2"
_cell_formula_units_Z 82
_cell_length_a 17.065215
_cell_length_b 17.065215
_cell_length_c 21.610812
_cell_angle_alpha 90.000000
_cell_angle_beta 90.000000
_cell_angle_gamma 120.000000
_cell_volume 5450.360712
_symmetry_space_group_name_H-M "P 63 2 2"
_symmetry_group_IT_number 182
_symmetry_cell_setting 'hexagonal'
loop_
_space_group_symop_operation_xyz
x,y,z
x-y,x,1/2+z
-y,x-y,z
-x,-y,1/2+z
-x+y,-x,z
y,-x+y,1/2+z
x-y,-y,-z
-x,-x+y,-z
y,x,-z
-y,-x,1/2-z
-x+y,y,1/2-z
x,x-y,1/2-z
loop_
_atom_site_type_symbol
_atom_site_label
_atom_site_fract_x
_atom_site_fract_y
_atom_site_fract_z
Si Si1 0.766008 0.766008 0.000000
Si Si2 0.488829 0.159717 0.821740
Si Si3 0.927016 0.228616 0.874934
Si Si4 0.749663 0.045023 0.850744
Si Si5 0.192989 0.142334 0.061613
Si Si6 0.000000 0.000000 0.925865
Si Si7 0.998841 0.177390 0.764065
Si Si8 0.660228 0.508074 0.675023
O O1 0.739779 0.692722 0.946211
O O2 0.779039 0.849438 0.958597
O O3 0.391623 0.082028 0.845068
O O4 0.488853 0.152289 0.748588
O O5 0.504888 0.256221 0.845864
O O6 0.567425 0.143686 0.849860
O O7 0.835381 0.133793 0.877153
O O8 0.996680 0.210242 0.834261
O O9 0.763078 0.027387 0.779746
O O10 0.667330 0.066729 0.852290
O O11 0.737516 0.959872 0.892232
O O12 0.094325 0.086500 0.096196
O O13 0.192048 0.192048 0.000000
O O14 0.000000 0.000000 0.000000
O O15 0.927988 0.072013 0.750000
O O16 0.098648 0.197295 0.750000
#
# Coordination Sequence:
#
# PCOD8326435 Si02
#       8
#     6  12  12  12  12   4  12  12
#     4  12  20  30  44  60  86 130 168 196 212 246
#     4   9  16  29  48  70  89 107 136 174 227 288
#     4  10  19  30  43  61  88 117 151 188 225 264
#     4  10  18  29  44  63  89 114 147 190 233 258
#     4  11  17  27  41  61  85 121 166 196 210 238
#     4   9  15  27  39  57  81 112 171 208 200 217
#     4  10  19  30  40  59  89 123 154 186 223 260
#     4   9  16  28  49  71  88 108 134 177 229 286
#
# _framework density 15.044877
#
# number of rings (size 3 to 8) (size 9 to 14) (size 15 to 20)
#    0.000    2.049    5.122    1.317    0.000    2.341 
#    0.000    0.000    1.610    0.000    0.000    0.000 
#    0.000    0.000    0.000   12.293    0.000    0.000 
#
# Total GULP energy -1015965.158642 kJ/mol
# GULP energy per Si atom -12389.819008 kJ/mol
# Density = 1.501063 g / cm^3
# Si number density = 15.044877 Si / 1000 Ang^3
#
#
#
# Elastic Constant Matrix: (Units=GPa)
#
#
# Indices 1 2 3 4 5 6 
#
# 1 66.6764 44.0244 20.3198 0.0000 0.0000 0.0000
# 2 44.0244 66.6764 20.3198 0.0000 0.0000 0.0000
# 3 20.3198 20.3198 60.9008 0.0000 0.0000 0.0000
# 4 0.0000 0.0000 0.0000 15.5020 0.0000 0.0000
# 5 0.0000 0.0000 0.0000 0.0000 15.5020 0.0000
# 6 0.0000 0.0000 0.0000 0.0000 0.0000 11.3260
#
#
#
# Elastic Compliance Matrix: (Units=1/GPa)
#
#
# Indices 1 2 3 4 5 6 
#
# 1 0.027220 -0.016926 -0.003435 0.000000 0.000000 0.000000
# 2 -0.016926 0.027220 -0.003435 0.000000 0.000000 0.000000
# 3 -0.003435 -0.003435 0.018712 0.000000 0.000000 0.000000
# 4 0.000000 0.000000 0.000000 0.064508 0.000000 0.000000
# 5 0.000000 0.000000 0.000000 0.000000 0.064508 0.000000
# 6 0.000000 0.000000 0.000000 0.000000 0.000000 0.088292
#
#
# Mechanical properties :
#
#
# Convention : Reuss Voigt Hill
#
# Bulk Modulus (GPa) = 39.12081 40.39793 39.75937
# Shear Modulus (GPa) = 14.42702 15.77199 15.09950
#
# Velocity S-wave (km/s) = 3.10002 3.24130 3.17145
# Velocity P-wave (km/s) = 6.23480 6.39672 6.31628
#
# Compressibility (1/GPa) = 0.02556184
#
# Stress axis : x y z
#
# Youngs Moduli (GPa) = 36.73734 36.73734 53.44118
#
# Poissons Ratio (x) = 0.62182 0.18356
# Poissons Ratio (y) = 0.62182 0.18356
# Poissons Ratio (z) = 0.12618 0.12618
#
# Static dielectric constant tensor:
#      x y z
#    x 2.907010 0.000000 0.000000 
#    y 0.000000 2.907010 0.000000 
#    z 0.000000 0.000000 2.910400 
# 
# 
# High freq. dielectric constant tensor:
#      x y z
#    x 1.548940 0.000000 0.000000 
#    y 0.000000 1.548940 0.000000 
#    z 0.000000 0.000000 1.568120 
# 
# From -- ./inp_files/5017.got.cif
#   From: 2010.03.12/outbox.cif.g09.slc.cpg/sg182_3_cif.got.tgz:5017.got - 2010.04.01 11:49:36.
