data_PCOD8326553
_publ_section_title
;
Structure prediction by ZEFSAII (Michael W. Deem and Ramdas Pophale) SiO2 
 PCOD8326553
Probable space group: P 6 M M
;
_chemical_formula_sum "Si O2"
_cell_formula_units_Z 66
_cell_length_a 22.490838
_cell_length_b 22.490838
_cell_length_c 7.382197
_cell_angle_alpha 90.000000
_cell_angle_beta 90.000000
_cell_angle_gamma 120.000000
_cell_volume 3233.907079
_symmetry_space_group_name_H-M "P 6 M M"
_symmetry_group_IT_number 183
_symmetry_cell_setting 'hexagonal'
loop_
_space_group_symop_operation_xyz
x,y,z
x-y,x,z
-y,x-y,z
-x,-y,z
-x+y,-x,z
y,-x+y,z
-x+y,y,z
x,x-y,z
-y,-x,z
y,x,z
x-y,-y,z
-x,-x+y,z
loop_
_atom_site_type_symbol
_atom_site_label
_atom_site_fract_x
_atom_site_fract_y
_atom_site_fract_z
Si Si1 0.118019 0.750188 0.693940
Si Si2 0.661728 0.078353 0.039645
Si Si3 0.534860 0.834885 0.366382
Si Si4 0.000000 0.136381 0.274109
Si Si5 0.542678 0.457323 0.453226
Si Si6 0.136100 0.000000 0.854644
Si Si7 0.234222 0.234222 0.563682
Si Si8 0.080949 0.540475 0.874238
O O1 0.176778 0.823223 0.767861
O O2 0.149834 0.716314 0.565391
O O3 0.067115 0.759360 0.561810
O O4 0.078658 0.704152 0.864945
O O5 0.713448 0.127135 0.196919
O O6 0.618074 0.000000 0.110174
O O7 0.612770 0.108535 0.976365
O O8 0.502130 0.751065 0.337605
O O9 0.489958 0.872722 0.360006
O O10 0.065378 0.130756 0.330666
O O11 0.000000 0.197539 0.380213
O O12 0.000000 0.152962 0.064393
O O13 0.500000 0.500000 0.417744
O O14 0.551390 0.448611 0.664977
O O15 0.065165 0.934836 0.798420
O O16 0.196679 0.000000 0.746883
O O17 0.000000 0.500000 0.883500
#
# Coordination Sequence:
#
# PCOD8326553 Si02
#       8
#    12  12  12   6   6   6   6   6
#     4  11  24  40  58  86 125 166 208 257 319 384
#     4  11  21  38  64  94 126 166 211 265 320 383
#     4  11  25  42  65  99 136 174 214 270 335 393
#     4  10  21  38  60  84 111 148 201 261 317 378
#     4  11  21  41  75 102 131 175 234 283 329 400
#     4  10  21  38  60  84 109 144 195 255 317 376
#     4  12  24  38  59  81 116 162 202 254 310 382
#     4   9  19  35  65 100 129 159 214 279 325 372
#
# _framework density 20.408747999999999
#
# number of rings (size 3 to 8) (size 9 to 14) (size 15 to 20)
#    0.000    1.273    2.727    3.455    2.545    2.909 
#    0.545    2.727    0.000    0.000    0.000    0.000 
#    0.000    0.000    0.000    0.000    0.000    0.000 
#
# Total GULP energy -817840.006165 kJ/mol
# GULP energy per Si atom -12391.515245 kJ/mol
# Density = 2.036230 g / cm^3
# Si number density = 20.408748 Si / 1000 Ang^3
#
#
#
# Elastic Constant Matrix: (Units=GPa)
#
#
# Indices 1 2 3 4 5 6 
#
# 1 85.2025 44.5358 8.4313 0.0000 0.0000 0.0000
# 2 44.5358 85.2025 8.4313 0.0000 0.0000 0.0000
# 3 8.4313 8.4313 68.6205 0.0000 0.0000 0.0000
# 4 0.0000 0.0000 0.0000 19.1774 0.0000 0.0000
# 5 0.0000 0.0000 0.0000 0.0000 19.1774 0.0000
# 6 0.0000 0.0000 0.0000 0.0000 0.0000 20.3333
#
#
#
# Elastic Compliance Matrix: (Units=1/GPa)
#
#
# Indices 1 2 3 4 5 6 
#
# 1 0.016212 -0.008379 -0.000962 0.000000 0.000000 0.000000
# 2 -0.008379 0.016212 -0.000962 0.000000 0.000000 0.000000
# 3 -0.000962 -0.000962 0.014809 0.000000 0.000000 0.000000
# 4 0.000000 0.000000 0.000000 0.052145 0.000000 0.000000
# 5 0.000000 0.000000 0.000000 0.000000 0.052145 0.000000
# 6 0.000000 0.000000 0.000000 0.000000 0.000000 0.049180
#
#
# Mechanical properties :
#
#
# Convention : Reuss Voigt Hill
#
# Bulk Modulus (GPa) = 37.55789 40.20246 38.88018
# Shear Modulus (GPa) = 21.72173 23.57944 22.65059
#
# Velocity S-wave (km/s) = 3.26595 3.40275 3.33505
# Velocity P-wave (km/s) = 5.71531 5.93124 5.82428
#
# Compressibility (1/GPa) = 0.02662557
#
# Stress axis : x y z
#
# Youngs Moduli (GPa) = 61.68440 61.68440 67.52470
#
# Poissons Ratio (x) = 0.51683 0.06499
# Poissons Ratio (y) = 0.51683 0.06499
# Poissons Ratio (z) = 0.05937 0.05937
#
# Static dielectric constant tensor:
#      x y z
#    x 3.807140 0.000000 0.000000 
#    y 0.000000 3.807140 0.000000 
#    z 0.000000 0.000000 3.733330 
# 
# 
# High freq. dielectric constant tensor:
#      x y z
#    x 1.787620 0.000000 0.000000 
#    y 0.000000 1.787620 0.000000 
#    z 0.000000 0.000000 1.816060 
# 
# From -- ./inp_files/1040.got.cif
#   From: 2010.03.12/outbox.cif.g09.slc.cpg/sg183_1_cif.got.tgz:1040.got - 2010.04.01 11:53:02.
