data_PCOD8326161
_publ_section_title
;
Structure prediction by ZEFSAII (Michael W. Deem and Ramdas Pophale) SiO2 
 PCOD8326161
Probable space group: P 62 2 2
;
_chemical_formula_sum "Si O2"
_cell_formula_units_Z 84
_cell_length_a 13.660597
_cell_length_b 13.660597
_cell_length_c 24.729143
_cell_angle_alpha 90.000000
_cell_angle_beta 90.000000
_cell_angle_gamma 120.000000
_cell_volume 3996.492999
_symmetry_space_group_name_H-M "P 62 2 2"
_symmetry_group_IT_number 180
_symmetry_cell_setting 'hexagonal'
loop_
_space_group_symop_operation_xyz
x,y,z
x-y,x,1/3+z
-y,x-y,2/3+z
-x,-y,z
-x+y,-x,1/3+z
y,-x+y,2/3+z
x-y,-y,-z
-x,-x+y,1/3-z
y,x,2/3-z
-y,-x,2/3-z
-x+y,y,-z
x,x-y,1/3-z
loop_
_atom_site_type_symbol
_atom_site_label
_atom_site_fract_x
_atom_site_fract_y
_atom_site_fract_z
Si Si1 0.594079 0.965584 0.741915
Si Si2 0.679629 0.387664 0.718335
Si Si3 0.688442 0.895604 0.467399
Si Si4 0.579546 0.632873 0.959212
Si Si5 0.519365 0.277523 0.529140
Si Si6 0.525390 0.123440 0.110129
Si Si7 0.708944 0.749715 0.177626
O O1 0.539358 0.831272 0.750107
O O2 0.500000 0.000000 0.752331
O O3 0.643138 0.999188 0.681711
O O4 0.691176 0.021442 0.786392
O O5 0.615708 0.307854 0.666667
O O6 0.695064 0.506862 0.701733
O O7 0.620498 0.356148 0.778171
O O8 0.797048 0.387211 0.725632
O O9 0.676184 0.961495 0.415839
O O10 0.566070 0.834616 0.496602
O O11 0.723845 0.799449 0.458706
O O12 0.787517 0.000000 0.500000
O O13 0.500000 0.500000 0.941979
O O14 0.563615 0.392593 0.495382
O O15 0.404158 0.114193 0.119830
O O16 0.500000 0.000000 0.095548
O O17 0.767185 0.883593 0.166667
#
# Coordination Sequence:
#
# PCOD8326161 Si02
#       7
#    12  12  12  12  12  12  12
#     4  10  19  37  61  86 123 160 211 254 300 386
#     4  12  25  34  57  93 129 162 202 263 321 386
#     4  11  24  42  62  90 126 163 213 267 322 388
#     4  11  23  38  58  92 132 167 199 260 333 383
#     4  11  20  40  60  87 120 170 212 252 308 393
#     4  12  21  39  63  88 123 164 218 256 310 385
#     4  11  22  39  68  91 115 173 217 265 316 375
#
# _framework density 21.018426000000002
#
# number of rings (size 3 to 8) (size 9 to 14) (size 15 to 20)
#    0.000    0.857    5.714    3.857    2.000    2.000 
#    0.000    2.857    0.000    0.000    0.000    4.000 
#    0.000    0.000    0.000    0.000    0.000    0.000 
#
# Total GULP energy -1040847.222944 kJ/mol
# GULP energy per Si atom -12391.038368 kJ/mol
# Density = 2.097059 g / cm^3
# Si number density = 21.018426 Si / 1000 Ang^3
#
#
#
# Elastic Constant Matrix: (Units=GPa)
#
#
# Indices 1 2 3 4 5 6 
#
# 1 83.6461 20.9808 19.7293 0.0000 0.0000 0.0000
# 2 20.9808 83.6461 19.7293 0.0000 0.0000 0.0000
# 3 19.7293 19.7293 84.2416 0.0000 0.0000 0.0000
# 4 0.0000 0.0000 0.0000 28.5112 0.0000 0.0000
# 5 0.0000 0.0000 0.0000 0.0000 28.5112 0.0000
# 6 0.0000 0.0000 0.0000 0.0000 0.0000 31.3326
#
#
#
# Elastic Compliance Matrix: (Units=1/GPa)
#
#
# Indices 1 2 3 4 5 6 
#
# 1 0.013221 -0.002737 -0.002455 0.000000 0.000000 0.000000
# 2 -0.002737 0.013221 -0.002455 0.000000 0.000000 0.000000
# 3 -0.002455 -0.002455 0.013021 0.000000 0.000000 0.000000
# 4 0.000000 0.000000 0.000000 0.035074 0.000000 0.000000
# 5 0.000000 0.000000 0.000000 0.000000 0.035074 0.000000
# 6 0.000000 0.000000 0.000000 0.000000 0.000000 0.031916
#
#
# Mechanical properties :
#
#
# Convention : Reuss Voigt Hill
#
# Bulk Modulus (GPa) = 41.37866 41.37915 41.37891
# Shear Modulus (GPa) = 30.32570 30.41062 30.36816
#
# Velocity S-wave (km/s) = 3.80256 3.80788 3.80522
# Velocity P-wave (km/s) = 6.24571 6.25005 6.24788
#
# Compressibility (1/GPa) = 0.02416705
#
# Stress axis : x y z
#
# Youngs Moduli (GPa) = 75.63852 75.63852 76.80090
#
# Poissons Ratio (x) = 0.20702 0.18857
# Poissons Ratio (y) = 0.20702 0.18857
# Poissons Ratio (z) = 0.18571 0.18571
#
# Static dielectric constant tensor:
#      x y z
#    x 3.907220 0.000000 0.000000 
#    y 0.000000 3.907220 0.000000 
#    z 0.000000 0.000000 3.984370 
# 
# 
# High freq. dielectric constant tensor:
#      x y z
#    x 1.813850 0.000000 0.000000 
#    y 0.000000 1.813850 0.000000 
#    z 0.000000 0.000000 1.819340 
# 
# From -- ./inp_files/10255.got.cif
#   From: 2010.03.12/outbox.cif.g09.slc.cpg/sg180_6_cif.got.tgz:10255.got - 2010.04.01 11:35:50.
