data_PCOD8326094
_publ_section_title
;
Structure prediction by ZEFSAII (Michael W. Deem and Ramdas Pophale) SiO2 
 PCOD8326094
Probable space group: P 65 2 2
;
_chemical_formula_sum "Si O2"
_cell_formula_units_Z 42
_cell_length_a 13.714280
_cell_length_b 13.714280
_cell_length_c 12.058299
_cell_angle_alpha 90.000000
_cell_angle_beta 90.000000
_cell_angle_gamma 120.000000
_cell_volume 1964.095969
_symmetry_space_group_name_H-M "P 65 2 2"
_symmetry_group_IT_number 179
_symmetry_cell_setting 'hexagonal'
loop_
_space_group_symop_operation_xyz
x,y,z
x-y,x,5/6+z
-y,x-y,2/3+z
-x,-y,1/2+z
-x+y,-x,1/3+z
y,-x+y,1/6+z
x-y,-y,-z
-x,-x+y,1/3-z
y,x,2/3-z
-y,-x,1/6-z
-x+y,y,1/2-z
x,x-y,5/6-z
loop_
_atom_site_type_symbol
_atom_site_label
_atom_site_fract_x
_atom_site_fract_y
_atom_site_fract_z
Si Si1 0.699445 0.398890 0.750000
Si Si2 0.988697 0.287976 0.408744
Si Si3 0.091959 0.908042 0.583334
Si Si4 0.904524 0.095477 0.583334
Si Si5 0.753544 0.527724 0.527729
O O1 0.762007 0.475524 0.644087
O O2 0.753083 0.320023 0.771667
O O3 0.051048 0.258463 0.313751
O O4 0.089735 0.404865 0.456592
O O5 0.941370 0.207879 0.514678
O O6 0.881790 0.285050 0.350620
O O7 0.000000 0.899732 0.666667
O O8 0.000000 0.110321 0.666667
#
# Coordination Sequence:
#
# PCOD8326094 Si02
#       5
#     6  12   6   6  12
#     4  10  27  50  77  98 141 186 271 296 362 404
#     4  12  25  43  75 107 150 184 242 284 378 430
#     4  12  23  39  64 112 156 190 223 283 342 464
#     4  12  24  43  61 112 159 190 228 283 352 464
#     4  11  25  51  73 109 139 193 235 314 353 447
#
# _framework density 21.383883999999998
#
# number of rings (size 3 to 8) (size 9 to 14) (size 15 to 20)
#    0.000    0.571    5.714    0.857    0.000   10.286 
#    0.000    8.571    0.000    0.000    0.000    0.000 
#    0.000    0.000    0.000    0.000    0.000    0.000 
#
# Total GULP energy -520657.677532 kJ/mol
# GULP energy per Si atom -12396.611370 kJ/mol
# Density = 2.133521 g / cm^3
# Si number density = 21.383884 Si / 1000 Ang^3
#
#
#
# Elastic Constant Matrix: (Units=GPa)
#
#
# Indices 1 2 3 4 5 6 
#
# 1 169.8822 71.6790 77.5812 0.0000 0.0000 0.0000
# 2 71.6790 169.8822 77.5812 0.0000 0.0000 0.0000
# 3 77.5812 77.5812 148.7468 0.0000 0.0000 0.0000
# 4 0.0000 0.0000 0.0000 46.6807 0.0000 0.0000
# 5 0.0000 0.0000 0.0000 0.0000 46.6807 0.0000
# 6 0.0000 0.0000 0.0000 0.0000 0.0000 49.1016
#
#
#
# Elastic Compliance Matrix: (Units=1/GPa)
#
#
# Indices 1 2 3 4 5 6 
#
# 1 0.008204 -0.001979 -0.003247 0.000000 0.000000 0.000000
# 2 -0.001979 0.008204 -0.003247 0.000000 0.000000 0.000000
# 3 -0.003247 -0.003247 0.010110 0.000000 0.000000 0.000000
# 4 0.000000 0.000000 0.000000 0.021422 0.000000 0.000000
# 5 0.000000 0.000000 0.000000 0.000000 0.021422 0.000000
# 6 0.000000 0.000000 0.000000 0.000000 0.000000 0.020366
#
#
# Mechanical properties :
#
#
# Convention : Reuss Voigt Hill
#
# Bulk Modulus (GPa) = 104.46277 104.68822 104.57550
# Shear Modulus (GPa) = 45.51059 45.93726 45.72392
#
# Velocity S-wave (km/s) = 4.61832 4.63992 4.62913
# Velocity P-wave (km/s) = 8.79748 8.81862 8.80806
#
# Compressibility (1/GPa) = 0.00957279
#
# Stress axis : x y z
#
# Youngs Moduli (GPa) = 121.88943 121.88943 98.91390
#
# Poissons Ratio (x) = 0.24120 0.32117
# Poissons Ratio (y) = 0.24120 0.32117
# Poissons Ratio (z) = 0.39577 0.39577
#
# Static dielectric constant tensor:
#      x y z
#    x 3.985480 0.000000 0.000000 
#    y 0.000000 3.985480 0.000000 
#    z 0.000000 0.000000 2.766880 
# 
# 
# High freq. dielectric constant tensor:
#      x y z
#    x 1.839040 0.000000 0.000000 
#    y 0.000000 1.839040 0.000000 
#    z 0.000000 0.000000 1.864650 
# 
# From -- ./inp_files/4158.got.cif
#   From: 2010.03.12/outbox.cif.g09.slc.cpg/sg179_3_cif.got.tgz:4158.got - 2010.04.02 07:08:42.
