data_PCOD8326357
_publ_section_title
;
Structure prediction by ZEFSAII (Michael W. Deem and Ramdas Pophale) SiO2 
 PCOD8326357
Probable space group: P 64 2 2
;
_chemical_formula_sum "Si O2"
_cell_formula_units_Z 72
_cell_length_a 11.983422
_cell_length_b 11.983422
_cell_length_c 29.241735
_cell_angle_alpha 90.000000
_cell_angle_beta 90.000000
_cell_angle_gamma 120.000000
_cell_volume 3636.599507
_symmetry_space_group_name_H-M "P 64 2 2"
_symmetry_group_IT_number 181
_symmetry_cell_setting 'hexagonal'
loop_
_space_group_symop_operation_xyz
x,y,z
x-y,x,2/3+z
-y,x-y,1/3+z
-x,-y,z
-x+y,-x,2/3+z
y,-x+y,1/3+z
x-y,-y,-z
-x,-x+y,2/3-z
y,x,1/3-z
-y,-x,1/3-z
-x+y,y,-z
x,x-y,2/3-z
loop_
_atom_site_type_symbol
_atom_site_label
_atom_site_fract_x
_atom_site_fract_y
_atom_site_fract_z
Si Si1 0.235754 0.617877 0.833334
Si Si2 0.801440 0.000000 0.000000
Si Si3 0.000000 0.500000 0.662663
Si Si4 0.098770 0.901231 0.666667
Si Si5 0.582534 0.210250 0.598434
Si Si6 0.577030 0.926721 0.071551
Si Si7 0.553562 0.909109 0.173619
Si Si8 0.262533 0.401001 0.934804
O O1 0.150565 0.591523 0.879657
O O2 0.335257 0.567279 0.836791
O O3 0.945197 0.119108 0.007398
O O4 0.708432 0.975714 0.043197
O O5 0.107990 0.506924 0.696229
O O6 0.031604 0.621455 0.631355
O O7 0.160919 0.871985 0.622119
O O8 0.530795 0.309617 0.602971
O O9 0.735331 0.277188 0.606886
O O10 0.625276 0.952898 0.124642
O O11 0.500000 0.000000 0.058048
O O12 0.641294 0.907875 0.215644
O O13 0.500000 0.000000 0.189825
#
# Coordination Sequence:
#
# PCOD8326357 Si02
#       8
#     6   6   6   6  12  12  12  12
#     4   8  18  35  54  80 126 154 185 248 304 358
#     4  11  25  44  64  82 127 169 210 252 308 371
#     4  12  20  31  58  88 120 151 196 250 296 368
#     4  11  24  44  60  88 127 168 204 254 309 370
#     4  10  21  36  58  89 119 151 199 247 306 360
#     4  10  22  41  64  92 122 162 206 258 311 368
#     4   9  18  37  58  86 123 157 199 249 314 369
#     4  11  21  37  58  93 120 155 201 259 305 361
#
# _framework density 19.798714
#
# number of rings (size 3 to 8) (size 9 to 14) (size 15 to 20)
#    0.000    1.833    2.500    1.250    0.000    4.333 
#    6.000    0.833    0.000    2.000    0.000    0.000 
#    0.000    0.000    0.000    0.000    0.000    0.000 
#
# Total GULP energy -891995.607095 kJ/mol
# GULP energy per Si atom -12388.827876 kJ/mol
# Density = 1.975365 g / cm^3
# Si number density = 19.798714 Si / 1000 Ang^3
#
#
#
# Elastic Constant Matrix: (Units=GPa)
#
#
# Indices 1 2 3 4 5 6 
#
# 1 93.5838 38.6247 59.5868 0.0000 0.0000 0.0000
# 2 38.6247 93.5838 59.5868 0.0000 0.0000 0.0000
# 3 59.5868 59.5868 154.6889 0.0000 0.0000 0.0000
# 4 0.0000 0.0000 0.0000 4.1722 0.0000 0.0000
# 5 0.0000 0.0000 0.0000 0.0000 4.1722 0.0000
# 6 0.0000 0.0000 0.0000 0.0000 0.0000 27.4795
#
#
#
# Elastic Compliance Matrix: (Units=1/GPa)
#
#
# Indices 1 2 3 4 5 6 
#
# 1 0.014891 -0.003304 -0.004463 0.000000 0.000000 0.000000
# 2 -0.003304 0.014891 -0.004463 0.000000 0.000000 0.000000
# 3 -0.004463 -0.004463 0.009903 0.000000 0.000000 0.000000
# 4 0.000000 0.000000 0.000000 0.239683 0.000000 0.000000
# 5 0.000000 0.000000 0.000000 0.000000 0.239683 0.000000
# 6 0.000000 0.000000 0.000000 0.000000 0.000000 0.036391
#
#
# Mechanical properties :
#
#
# Convention : Reuss Voigt Hill
#
# Bulk Modulus (GPa) = 65.68624 73.05034 69.36829
# Shear Modulus (GPa) = 8.54732 19.43532 13.99132
#
# Velocity S-wave (km/s) = 2.08002 3.13652 2.66123
# Velocity P-wave (km/s) = 6.24641 7.07769 6.67500
#
# Compressibility (1/GPa) = 0.01522389
#
# Stress axis : x y z
#
# Youngs Moduli (GPa) = 67.15346 67.15346 100.97697
#
# Poissons Ratio (x) = 0.22188 0.45070
# Poissons Ratio (y) = 0.22188 0.45070
# Poissons Ratio (z) = 0.29973 0.29973
#
# Static dielectric constant tensor:
#      x y z
#    x 4.010250 0.000000 0.000000 
#    y 0.000000 4.010250 0.000000 
#    z 0.000000 0.000000 4.185480 
# 
# 
# High freq. dielectric constant tensor:
#      x y z
#    x 1.757990 0.000000 0.000000 
#    y 0.000000 1.757990 0.000000 
#    z 0.000000 0.000000 1.797170 
# 
# From -- ./inp_files/12418.got.cif
#   From: 2010.03.12/outbox.cif.g09.slc.cpg/sg181_7_cif.got.tgz:12418.got - 2010.04.01 11:42:41.
