data_PCOD8326853
_publ_section_title
;
Structure prediction by ZEFSAII (Michael W. Deem and Ramdas Pophale) SiO2 
 PCOD8326853
Probable space group: P -6 M 2
;
_chemical_formula_sum "Si O2"
_cell_formula_units_Z 96
_cell_length_a 21.815102
_cell_length_b 21.815102
_cell_length_c 14.948574
_cell_angle_alpha 90.000000
_cell_angle_beta 90.000000
_cell_angle_gamma 120.000000
_cell_volume 6160.910407
_symmetry_space_group_name_H-M "P -6 M 2"
_symmetry_group_IT_number 187
_symmetry_cell_setting 'hexagonal'
loop_
_space_group_symop_operation_xyz
x,y,z
-x+y,-x,-z
-y,x-y,z
x,y,-z
-x+y,-x,z
-y,x-y,-z
-y,-x,-z
-x+y,y,-z
x,x-y,-z
-x+y,y,z
x,x-y,z
-y,-x,z
loop_
_atom_site_type_symbol
_atom_site_label
_atom_site_fract_x
_atom_site_fract_y
_atom_site_fract_z
Si Si1 0.252808 0.889022 0.681926
Si Si2 0.915649 0.225459 0.900511
Si Si3 0.976718 0.242893 0.402349
Si Si4 0.388741 0.473789 0.601945
Si Si5 0.610422 0.082381 0.600213
Si Si6 0.875923 0.263020 0.724768
Si Si7 0.196483 0.939094 0.833045
Si Si8 0.000724 0.137331 0.315411
O O1 0.184651 0.815349 0.656698
O O2 0.322193 0.880575 0.670254
O O3 0.245687 0.913328 0.782158
O O4 0.260026 0.947492 0.611147
O O5 0.857717 0.142283 0.881783
O O6 0.904540 0.273972 0.827358
O O7 0.996334 0.239997 0.899436
O O8 0.903760 0.246757 0.000000
O O9 0.948899 0.248199 0.500000
O O10 0.920315 0.234965 0.328949
O O11 0.982722 0.172275 0.398712
O O12 0.364241 0.474562 0.500000
O O13 0.446060 0.553941 0.631726
O O14 0.424228 0.425383 0.607749
O O15 0.643469 0.106026 0.500000
O O16 0.553812 0.107624 0.616415
O O17 0.667088 0.116542 0.679558
O O18 0.793439 0.206562 0.722173
O O19 0.129947 0.870054 0.880593
O O20 0.164291 0.968932 0.761397
O O21 0.058340 0.116680 0.346729
O O22 0.932222 0.067779 0.279470
#
# Coordination Sequence:
#
# PCOD8326853 Si02
#       8
#    12  12  12  12  12  12  12  12
#     4  10  18  28  44  64  88 117 151 188 232 281
#     4  10  19  31  48  67  89 120 157 200 249 295
#     4  11  20  29  42  62  87 115 148 189 234 276
#     4   9  16  26  40  59  84 113 146 183 218 255
#     4   9  17  30  48  70  96 123 151 182 215 258
#     4  11  20  31  48  70  96 122 153 192 232 277
#     4   9  17  29  45  63  83 110 149 200 251 296
#     4  10  19  30  41  53  76 112 154 194 235 283
#
# _framework density 15.582113
#
# number of rings (size 3 to 8) (size 9 to 14) (size 15 to 20)
#    0.000    2.125    3.750    3.500    0.000    3.750 
#    0.000    0.000    0.000    1.875    0.000    0.000 
#    0.000    0.000    0.000    0.000    0.000    0.000 
#
# Total GULP energy -1189620.880510 kJ/mol
# GULP energy per Si atom -12391.884172 kJ/mol
# Density = 1.554665 g / cm^3
# Si number density = 15.582113 Si / 1000 Ang^3
#
#
#
# Elastic Constant Matrix: (Units=GPa)
#
#
# Indices 1 2 3 4 5 6 
#
# 1 71.9573 24.3271 26.8129 0.0000 0.0000 0.0000
# 2 24.3271 71.9573 26.8129 0.0000 0.0000 0.0000
# 3 26.8129 26.8129 86.2422 0.0000 0.0000 0.0000
# 4 0.0000 0.0000 0.0000 15.8175 0.0000 0.0000
# 5 0.0000 0.0000 0.0000 0.0000 15.8175 0.0000
# 6 0.0000 0.0000 0.0000 0.0000 0.0000 23.8151
#
#
#
# Elastic Compliance Matrix: (Units=1/GPa)
#
#
# Indices 1 2 3 4 5 6 
#
# 1 0.016778 -0.004217 -0.003905 0.000000 0.000000 0.000000
# 2 -0.004217 0.016778 -0.003905 0.000000 0.000000 0.000000
# 3 -0.003905 -0.003905 0.014024 0.000000 0.000000 0.000000
# 4 0.000000 0.000000 0.000000 0.063221 0.000000 0.000000
# 5 0.000000 0.000000 0.000000 0.000000 0.063221 0.000000
# 6 0.000000 0.000000 0.000000 0.000000 0.000000 0.041990
#
#
# Mechanical properties :
#
#
# Convention : Reuss Voigt Hill
#
# Bulk Modulus (GPa) = 42.50886 42.89582 42.70234
# Shear Modulus (GPa) = 20.16873 21.23696 20.70284
#
# Velocity S-wave (km/s) = 3.60161 3.69576 3.64899
# Velocity P-wave (km/s) = 6.68096 6.76758 6.72441
#
# Compressibility (1/GPa) = 0.02352451
#
# Stress axis : x y z
#
# Youngs Moduli (GPa) = 59.60193 59.60193 71.30875
#
# Poissons Ratio (x) = 0.25135 0.27848
# Poissons Ratio (y) = 0.25135 0.27848
# Poissons Ratio (z) = 0.23276 0.23276
#
# Static dielectric constant tensor:
#      x y z
#    x 3.030210 0.000000 0.000000 
#    y 0.000000 3.030210 0.000000 
#    z 0.000000 0.000000 2.801110 
# 
# 
# High freq. dielectric constant tensor:
#      x y z
#    x 1.582030 0.000000 0.000000 
#    y 0.000000 1.582030 0.000000 
#    z 0.000000 0.000000 1.571560 
# 
# From -- ./inp_files/3322.got.cif
#   From: 2010.03.12/outbox.cif.g09.slc.cpg/sg187_2_cif.got.tgz:3322.got - 2010.04.01 11:58:23.
