data_PCOD8326053
_publ_section_title
;
Structure prediction by ZEFSAII (Michael W. Deem and Ramdas Pophale) SiO2 
 PCOD8326053
Probable space group: P 65 2 2
;
_chemical_formula_sum "Si O2"
_cell_formula_units_Z 48
_cell_length_a 14.768418
_cell_length_b 14.768418
_cell_length_c 12.601569
_cell_angle_alpha 90.000000
_cell_angle_beta 90.000000
_cell_angle_gamma 120.000000
_cell_volume 2380.253461
_symmetry_space_group_name_H-M "P 65 2 2"
_symmetry_group_IT_number 179
_symmetry_cell_setting 'hexagonal'
loop_
_space_group_symop_operation_xyz
x,y,z
x-y,x,5/6+z
-y,x-y,2/3+z
-x,-y,1/2+z
-x+y,-x,1/3+z
y,-x+y,1/6+z
x-y,-y,-z
-x,-x+y,1/3-z
y,x,2/3-z
-y,-x,1/6-z
-x+y,y,1/2-z
x,x-y,5/6-z
loop_
_atom_site_type_symbol
_atom_site_label
_atom_site_fract_x
_atom_site_fract_y
_atom_site_fract_z
Si Si1 0.458364 0.918987 0.588625
Si Si2 0.461016 0.922032 0.250000
Si Si3 0.375770 0.116525 0.196412
Si Si4 0.775315 0.550630 0.750000
Si Si5 0.250278 0.374100 0.647960
O O1 0.513033 0.863498 0.650497
O O2 0.346332 0.827517 0.546370
O O3 0.536650 0.000000 0.500000
O O4 0.445772 0.998265 0.669484
O O5 0.505970 0.854935 0.306197
O O6 0.381632 0.157148 0.316713
O O7 0.341486 0.182772 0.124545
O O8 0.288367 0.997609 0.177319
O O9 0.184975 0.369949 0.750000
#
# Coordination Sequence:
#
# PCOD8326053 Si02
#       5
#    12   6  12   6  12
#     4  11  21  40  61  91 135 170 209 269 311 384
#     4  10  20  41  58  90 130 160 216 253 320 376
#     4  11  24  40  63  97 125 171 222 260 333 387
#     4  12  22  37  66  92 132 170 214 267 316 388
#     4  11  22  41  65  93 127 171 217 271 324 394
#
# _framework density 20.165921000000001
#
# number of rings (size 3 to 8) (size 9 to 14) (size 15 to 20)
#    0.000    1.000    5.000    5.250    0.000    1.000 
#    0.000    5.000    0.000    0.000   16.250    0.000 
#    0.000    0.000    0.000    0.000    0.000    0.000 
#
# Total GULP energy -594747.894940 kJ/mol
# GULP energy per Si atom -12390.581145 kJ/mol
# Density = 2.012002 g / cm^3
# Si number density = 20.165921 Si / 1000 Ang^3
#
#
#
# Elastic Constant Matrix: (Units=GPa)
#
#
# Indices 1 2 3 4 5 6 
#
# 1 113.8750 64.6365 51.2243 0.0000 0.0000 0.0000
# 2 64.6365 113.8750 51.2243 0.0000 0.0000 0.0000
# 3 51.2243 51.2243 132.2589 0.0000 0.0000 0.0000
# 4 0.0000 0.0000 0.0000 42.9532 0.0000 0.0000
# 5 0.0000 0.0000 0.0000 0.0000 42.9532 0.0000
# 6 0.0000 0.0000 0.0000 0.0000 0.0000 24.6193
#
#
#
# Elastic Compliance Matrix: (Units=1/GPa)
#
#
# Indices 1 2 3 4 5 6 
#
# 1 0.013756 -0.006553 -0.002790 0.000000 0.000000 0.000000
# 2 -0.006553 0.013756 -0.002790 0.000000 0.000000 0.000000
# 3 -0.002790 -0.002790 0.009722 0.000000 0.000000 0.000000
# 4 0.000000 0.000000 0.000000 0.023281 0.000000 0.000000
# 5 0.000000 0.000000 0.000000 0.000000 0.023281 0.000000
# 6 0.000000 0.000000 0.000000 0.000000 0.000000 0.040619
#
#
# Mechanical properties :
#
#
# Convention : Reuss Voigt Hill
#
# Bulk Modulus (GPa) = 77.10794 77.13101 77.11947
# Shear Modulus (GPa) = 32.67906 34.96671 33.82288
#
# Velocity S-wave (km/s) = 4.02992 4.16859 4.09984
# Velocity P-wave (km/s) = 7.74425 7.84224 7.79340
#
# Compressibility (1/GPa) = 0.01296883
#
# Stress axis : x y z
#
# Youngs Moduli (GPa) = 72.69500 72.69500 102.86108
#
# Poissons Ratio (x) = 0.47639 0.28695
# Poissons Ratio (y) = 0.47639 0.28695
# Poissons Ratio (z) = 0.20280 0.20280
#
# Static dielectric constant tensor:
#      x y z
#    x 3.588730 0.000000 0.000000 
#    y 0.000000 3.588730 0.000000 
#    z 0.000000 0.000000 4.379880 
# 
# 
# High freq. dielectric constant tensor:
#      x y z
#    x 1.768400 0.000000 0.000000 
#    y 0.000000 1.768400 0.000000 
#    z 0.000000 0.000000 1.815190 
# 
# From -- ./inp_files/4358.got.cif
#   From: 2010.03.12/outbox.cif.g09.slc.cpg/sg179_3_cif.got.tgz:4358.got - 2010.04.02 07:08:42.
