data_PCOD8326843
_publ_section_title
;
Structure prediction by ZEFSAII (Michael W. Deem and Ramdas Pophale) SiO2 
 PCOD8326843
Probable space group: P -6 M 2
;
_chemical_formula_sum "Si O2"
_cell_formula_units_Z 38
_cell_length_a 19.867799
_cell_length_b 19.867799
_cell_length_c 7.935552
_cell_angle_alpha 90.000000
_cell_angle_beta 90.000000
_cell_angle_gamma 120.000000
_cell_volume 2712.734488
_symmetry_space_group_name_H-M "P -6 M 2"
_symmetry_group_IT_number 187
_symmetry_cell_setting 'hexagonal'
loop_
_space_group_symop_operation_xyz
x,y,z
-x+y,-x,-z
-y,x-y,z
x,y,-z
-x+y,-x,z
-y,x-y,-z
-y,-x,-z
-x+y,y,-z
x,x-y,-z
-x+y,y,z
x,x-y,z
-y,-x,z
loop_
_atom_site_type_symbol
_atom_site_label
_atom_site_fract_x
_atom_site_fract_y
_atom_site_fract_z
Si Si1 0.875181 0.590745 0.813700
Si Si2 0.086861 0.173722 0.800982
Si Si3 0.508483 0.334534 0.500000
Si Si4 0.244049 0.198108 0.695580
Si Si5 0.000000 0.000000 0.799348
O O1 0.795033 0.590065 0.799261
O O2 0.876013 0.534851 0.667368
O O3 0.943793 0.679501 0.788918
O O4 0.884334 0.562130 0.000000
O O5 0.174865 0.215724 0.734244
O O6 0.043383 0.086765 0.726768
O O7 0.087143 0.174286 0.000000
O O8 0.595524 0.404477 0.500000
O O9 0.511240 0.255620 0.500000
O O10 0.263829 0.206588 0.500000
O O11 0.222489 0.111245 0.758043
O O12 0.000000 0.000000 0.000000
#
# Coordination Sequence:
#
# PCOD8326843 Si02
#       5
#    12   6   6  12   2
#     4   9  17  30  46  61  80 107 135 163 200 248
#     4  11  19  27  37  53  77 107 145 186 225 251
#     4  10  19  32  48  67  86 102 124 160 208 257
#     4  10  18  28  40  55  76 106 143 179 214 247
#     4   9  18  27  31  47  79 105 139 191 232 253
#
# _framework density 14.008006
#
# number of rings (size 3 to 8) (size 9 to 14) (size 15 to 20)
#    0.000    2.211    3.158    1.579    0.000    1.895 
#    0.000    0.000    0.000    1.895    0.000    0.000 
#    0.000    0.000    0.000    0.000    0.000    0.000 
#
# Total GULP energy -471070.698322 kJ/mol
# GULP energy per Si atom -12396.597324 kJ/mol
# Density = 1.397612 g / cm^3
# Si number density = 14.008006 Si / 1000 Ang^3
#
#
#
# Elastic Constant Matrix: (Units=GPa)
#
#
# Indices 1 2 3 4 5 6 
#
# 1 49.0307 16.2341 27.6621 0.0000 0.0000 0.0000
# 2 16.2341 49.0307 27.6621 0.0000 0.0000 0.0000
# 3 27.6621 27.6621 99.0756 0.0000 0.0000 0.0000
# 4 0.0000 0.0000 0.0000 13.9846 0.0000 0.0000
# 5 0.0000 0.0000 0.0000 0.0000 13.9846 0.0000
# 6 0.0000 0.0000 0.0000 0.0000 0.0000 16.3983
#
#
#
# Elastic Compliance Matrix: (Units=1/GPa)
#
#
# Indices 1 2 3 4 5 6 
#
# 1 0.025282 -0.005209 -0.005604 0.000000 0.000000 0.000000
# 2 -0.005209 0.025282 -0.005604 0.000000 0.000000 0.000000
# 3 -0.005604 -0.005604 0.013223 0.000000 0.000000 0.000000
# 4 0.000000 0.000000 0.000000 0.071507 0.000000 0.000000
# 5 0.000000 0.000000 0.000000 0.000000 0.071507 0.000000
# 6 0.000000 0.000000 0.000000 0.000000 0.000000 0.060982
#
#
# Mechanical properties :
#
#
# Convention : Reuss Voigt Hill
#
# Bulk Modulus (GPa) = 32.30902 37.80598 35.05750
# Shear Modulus (GPa) = 16.08051 17.24544 16.66297
#
# Velocity S-wave (km/s) = 3.39182 3.51253 3.45270
# Velocity P-wave (km/s) = 6.20113 6.59529 6.40125
#
# Compressibility (1/GPa) = 0.03095111
#
# Stress axis : x y z
#
# Youngs Moduli (GPa) = 39.55390 39.55390 75.62683
#
# Poissons Ratio (x) = 0.20604 0.42384
# Poissons Ratio (y) = 0.20604 0.42384
# Poissons Ratio (z) = 0.22168 0.22168
#
# Static dielectric constant tensor:
#      x y z
#    x 2.524320 0.000000 0.000000 
#    y 0.000000 2.524320 0.000000 
#    z 0.000000 0.000000 2.975650 
# 
# 
# High freq. dielectric constant tensor:
#      x y z
#    x 1.493000 0.000000 0.000000 
#    y 0.000000 1.493000 0.000000 
#    z 0.000000 0.000000 1.556090 
# 
# From -- ./inp_files/331.got.cif
#   From: 2010.03.12/outbox.cif.g09.slc.cpg/sg187_1_cif.got.tgz:331.got - 2010.04.01 11:58:23.
