data_PCOD8326286
_publ_section_title
;
Structure prediction by ZEFSAII (Michael W. Deem and Ramdas Pophale) SiO2 
 PCOD8326286
Probable space group: P 64 2 2
;
_chemical_formula_sum "Si O2"
_cell_formula_units_Z 60
_cell_length_a 20.923695
_cell_length_b 20.923695
_cell_length_c 12.610152
_cell_angle_alpha 90.000000
_cell_angle_beta 90.000000
_cell_angle_gamma 120.000000
_cell_volume 4781.098760
_symmetry_space_group_name_H-M "P 64 2 2"
_symmetry_group_IT_number 181
_symmetry_cell_setting 'hexagonal'
loop_
_space_group_symop_operation_xyz
x,y,z
x-y,x,2/3+z
-y,x-y,1/3+z
-x,-y,z
-x+y,-x,2/3+z
y,-x+y,1/3+z
x-y,-y,-z
-x,-x+y,2/3-z
y,x,1/3-z
-y,-x,1/3-z
-x+y,y,-z
x,x-y,2/3-z
loop_
_atom_site_type_symbol
_atom_site_label
_atom_site_fract_x
_atom_site_fract_y
_atom_site_fract_z
Si Si1 0.381622 0.465531 0.966737
Si Si2 0.477877 0.808749 0.879282
Si Si3 0.326760 0.522830 0.789342
Si Si4 0.337388 0.510513 0.169991
Si Si5 0.534342 0.919894 0.703304
O O1 0.340716 0.466572 0.859230
O O2 0.393303 0.394677 0.965864
O O3 0.461364 0.536534 0.976480
O O4 0.333287 0.462665 0.067637
O O5 0.486207 0.743104 0.833334
O O6 0.393460 0.787595 0.862385
O O7 0.533145 0.882656 0.815470
O O8 0.502378 0.823018 0.001273
O O9 0.254063 0.521308 0.830293
O O10 0.409043 0.590958 0.166667
O O11 0.334664 0.463757 0.273029
#
# Coordination Sequence:
#
# PCOD8326286 Si02
#       5
#    12  12  12  12  12
#     4   9  18  28  39  56  72  92 122 150 185 228
#     4  10  18  29  40  54  75  95 121 151 191 235
#     4  10  19  27  40  57  74  95 118 155 194 228
#     4  10  17  27  41  56  74  96 119 152 190 232
#     4   9  17  29  41  52  71  97 121 148 184 231
#
# _framework density 12.549416000000001
#
# number of rings (size 3 to 8) (size 9 to 14) (size 15 to 20)
#    0.000    2.400    2.000    1.800    0.000    3.200 
#    0.000    4.000    0.000    0.000    0.000    0.000 
#    0.000    0.000    0.000    0.000    0.000    0.000 
#
# Total GULP energy -743889.385894 kJ/mol
# GULP energy per Si atom -12398.156432 kJ/mol
# Density = 1.252085 g / cm^3
# Si number density = 12.549416 Si / 1000 Ang^3
#
#
#
# Elastic Constant Matrix: (Units=GPa)
#
#
# Indices 1 2 3 4 5 6 
#
# 1 52.3964 30.4213 37.4168 0.0000 0.0000 0.0000
# 2 30.4213 52.3964 37.4168 0.0000 0.0000 0.0000
# 3 37.4168 37.4168 107.5257 0.0000 0.0000 0.0000
# 4 0.0000 0.0000 0.0000 16.3098 0.0000 0.0000
# 5 0.0000 0.0000 0.0000 0.0000 16.3098 0.0000
# 6 0.0000 0.0000 0.0000 0.0000 0.0000 10.9875
#
#
#
# Elastic Compliance Matrix: (Units=1/GPa)
#
#
# Indices 1 2 3 4 5 6 
#
# 1 0.031559 -0.013947 -0.006129 0.000000 0.000000 0.000000
# 2 -0.013947 0.031559 -0.006129 0.000000 0.000000 0.000000
# 3 -0.006129 -0.006129 0.013566 0.000000 0.000000 0.000000
# 4 0.000000 0.000000 0.000000 0.061313 0.000000 0.000000
# 5 0.000000 0.000000 0.000000 0.000000 0.061313 0.000000
# 6 0.000000 0.000000 0.000000 0.000000 0.000000 0.091012
#
#
# Mechanical properties :
#
#
# Convention : Reuss Voigt Hill
#
# Bulk Modulus (GPa) = 41.19378 46.98090 44.08734
# Shear Modulus (GPa) = 14.25219 15.85899 15.05559
#
# Velocity S-wave (km/s) = 3.37365 3.55874 3.46743
# Velocity P-wave (km/s) = 6.93339 7.37592 7.15808
#
# Compressibility (1/GPa) = 0.02427551
#
# Stress axis : x y z
#
# Youngs Moduli (GPa) = 31.68625 31.68625 73.71611
#
# Poissons Ratio (x) = 0.44192 0.45180
# Poissons Ratio (y) = 0.44192 0.45180
# Poissons Ratio (z) = 0.19420 0.19420
#
# Static dielectric constant tensor:
#      x y z
#    x 2.418270 0.000000 0.000000 
#    y 0.000000 2.418270 0.000000 
#    z 0.000000 0.000000 2.816650 
# 
# 
# High freq. dielectric constant tensor:
#      x y z
#    x 1.441740 0.000000 0.000000 
#    y 0.000000 1.441740 0.000000 
#    z 0.000000 0.000000 1.499380 
# 
# From -- ./inp_files/6299.got.cif
#   From: 2010.03.12/outbox.cif.g09.slc.cpg/sg181_4_cif.got.tgz:6299.got - 2010.04.01 11:42:41.
