data_PCOD8326356
_publ_section_title
;
Structure prediction by ZEFSAII (Michael W. Deem and Ramdas Pophale) SiO2 
 PCOD8326356
Probable space group: P 64 2 2
;
_chemical_formula_sum "Si O2"
_cell_formula_units_Z 84
_cell_length_a 13.620575
_cell_length_b 13.620575
_cell_length_c 25.876220
_cell_angle_alpha 90.000000
_cell_angle_beta 90.000000
_cell_angle_gamma 120.000000
_cell_volume 4157.405157
_symmetry_space_group_name_H-M "P 64 2 2"
_symmetry_group_IT_number 181
_symmetry_cell_setting 'hexagonal'
loop_
_space_group_symop_operation_xyz
x,y,z
x-y,x,2/3+z
-y,x-y,1/3+z
-x,-y,z
-x+y,-x,2/3+z
y,-x+y,1/3+z
x-y,-y,-z
-x,-x+y,2/3-z
y,x,1/3-z
-y,-x,1/3-z
-x+y,y,-z
x,x-y,2/3-z
loop_
_atom_site_type_symbol
_atom_site_label
_atom_site_fract_x
_atom_site_fract_y
_atom_site_fract_z
Si Si1 0.320079 0.320079 0.166667
Si Si2 0.064300 0.439682 0.280730
Si Si3 0.466870 0.629242 0.221378
Si Si4 0.852406 0.147595 0.166667
Si Si5 0.873814 0.345766 0.557361
Si Si6 0.092482 0.782022 0.470423
Si Si7 0.556027 0.242642 0.646192
Si Si8 0.318915 0.430381 0.413518
O O1 0.415552 0.370625 0.211738
O O2 0.299651 0.204122 0.141132
O O3 0.062668 0.333068 0.253108
O O4 0.194840 0.533102 0.289337
O O5 0.000000 0.500000 0.252744
O O6 0.000000 0.387150 0.333334
O O7 0.399026 0.600975 0.166667
O O8 0.501692 0.752291 0.243873
O O9 0.389173 0.544701 0.266958
O O10 0.834503 0.205951 0.115468
O O11 0.985534 0.196228 0.175447
O O12 0.891696 0.312601 0.500173
O O13 0.872985 0.462367 0.553955
O O14 0.974447 0.351824 0.594070
O O15 0.685897 0.314104 0.666667
O O16 0.466163 0.170616 0.691032
#
# Coordination Sequence:
#
# PCOD8326356 Si02
#       8
#     6  12  12   6  12  12  12  12
#     4  10  23  47  62  92 120 166 228 273 333 394
#     4  11  23  38  58  92 139 173 209 252 327 398
#     4  11  23  41  64  87 121 163 222 265 326 392
#     4  10  22  35  66  96 120 165 214 272 328 406
#     4   9  20  37  54  86 122 163 202 263 313 385
#     4  10  22  40  65  89 122 168 214 273 328 384
#     4  12  22  38  59  92 127 176 211 260 315 395
#     4  10  21  36  56  91 128 163 212 256 328 386
#
# _framework density 20.204910999999999
#
# number of rings (size 3 to 8) (size 9 to 14) (size 15 to 20)
#    0.000    1.571    2.857    2.786    5.000    0.286 
#   10.286    0.000    0.000    0.000    0.000    7.000 
#    0.000    0.000    0.000    0.000    0.000    0.000 
#
# Total GULP energy -1040881.083193 kJ/mol
# GULP energy per Si atom -12391.441467 kJ/mol
# Density = 2.015892 g / cm^3
# Si number density = 20.204911 Si / 1000 Ang^3
#
#
#
# Elastic Constant Matrix: (Units=GPa)
#
#
# Indices 1 2 3 4 5 6 
#
# 1 122.6168 56.2508 49.5804 0.0000 0.0000 0.0000
# 2 56.2508 122.6168 49.5804 0.0000 0.0000 0.0000
# 3 49.5804 49.5804 99.3234 0.0000 0.0000 0.0000
# 4 0.0000 0.0000 0.0000 23.8212 0.0000 0.0000
# 5 0.0000 0.0000 0.0000 0.0000 23.8212 0.0000
# 6 0.0000 0.0000 0.0000 0.0000 0.0000 33.1830
#
#
#
# Elastic Compliance Matrix: (Units=1/GPa)
#
#
# Indices 1 2 3 4 5 6 
#
# 1 0.011399 -0.003669 -0.003859 0.000000 0.000000 0.000000
# 2 -0.003669 0.011399 -0.003859 0.000000 0.000000 0.000000
# 3 -0.003859 -0.003859 0.013920 0.000000 0.000000 0.000000
# 4 0.000000 0.000000 0.000000 0.041979 0.000000 0.000000
# 5 0.000000 0.000000 0.000000 0.000000 0.041979 0.000000
# 6 0.000000 0.000000 0.000000 0.000000 0.000000 0.030136
#
#
# Mechanical properties :
#
#
# Convention : Reuss Voigt Hill
#
# Bulk Modulus (GPa) = 71.70662 72.82004 72.26333
# Shear Modulus (GPa) = 28.05302 28.77479 28.41391
#
# Velocity S-wave (km/s) = 3.73020 3.77788 3.75412
# Velocity P-wave (km/s) = 7.35658 7.42623 7.39149
#
# Compressibility (1/GPa) = 0.01394571
#
# Stress axis : x y z
#
# Youngs Moduli (GPa) = 87.72769 87.72769 71.83699
#
# Poissons Ratio (x) = 0.32188 0.27719
# Poissons Ratio (y) = 0.32188 0.27719
# Poissons Ratio (z) = 0.33851 0.33851
#
# Static dielectric constant tensor:
#      x y z
#    x 3.858470 0.000000 0.000000 
#    y 0.000000 3.858470 0.000000 
#    z 0.000000 0.000000 3.640840 
# 
# 
# High freq. dielectric constant tensor:
#      x y z
#    x 1.788170 0.000000 0.000000 
#    y 0.000000 1.788170 0.000000 
#    z 0.000000 0.000000 1.773260 
# 
# From -- ./inp_files/10249.got.cif
#   From: 2010.03.12/outbox.cif.g09.slc.cpg/sg181_6_cif.got.tgz:10249.got - 2010.04.01 11:42:41.
