data_PCOD8326996
_publ_section_title
;
Structure prediction by ZEFSAII (Michael W. Deem and Ramdas Pophale) SiO2 
 PCOD8326996
Probable space group: P -6 M 2
;
_chemical_formula_sum "Si O2"
_cell_formula_units_Z 84
_cell_length_a 17.444289
_cell_length_b 17.444289
_cell_length_c 14.507417
_cell_angle_alpha 90.000000
_cell_angle_beta 90.000000
_cell_angle_gamma 120.000000
_cell_volume 3823.202243
_symmetry_space_group_name_H-M "P -6 M 2"
_symmetry_group_IT_number 187
_symmetry_cell_setting 'hexagonal'
loop_
_space_group_symop_operation_xyz
x,y,z
-x+y,-x,-z
-y,x-y,z
x,y,-z
-x+y,-x,z
-y,x-y,-z
-y,-x,-z
-x+y,y,-z
x,x-y,-z
-x+y,y,z
x,x-y,z
-y,-x,z
loop_
_atom_site_type_symbol
_atom_site_label
_atom_site_fract_x
_atom_site_fract_y
_atom_site_fract_z
Si Si1 0.489178 0.153666 0.766131
Si Si2 0.509803 0.668048 0.861621
Si Si3 0.974304 0.365457 0.399426
Si Si4 0.979732 0.658755 0.103152
Si Si5 0.165176 0.498397 0.352226
Si Si6 0.193245 0.975378 0.398510
Si Si7 0.830201 0.828538 0.199025
O O1 0.590625 0.181250 0.786089
O O2 0.481873 0.240937 0.749476
O O3 0.457785 0.091995 0.675680
O O4 0.430548 0.099240 0.853152
O O5 0.513623 0.756812 0.900194
O O6 0.414714 0.585287 0.887112
O O7 0.585133 0.653769 0.907103
O O8 0.529095 0.677063 0.753755
O O9 0.930964 0.357767 0.500000
O O10 0.070818 0.451981 0.401724
O O11 0.991692 0.285951 0.380687
O O12 0.997140 0.740274 0.167869
O O13 0.950732 0.669100 0.000000
O O14 0.236793 0.473586 0.393188
O O15 0.207400 0.603700 0.363126
O O16 0.181002 0.009707 0.500000
O O17 0.132134 0.867867 0.397072
O O18 0.165994 0.011981 0.310193
O O19 0.916050 0.832099 0.153700
O O20 0.822166 0.911083 0.162658
#
# Coordination Sequence:
#
# PCOD8326996 Si02
#       7
#    12  12  12  12  12  12  12
#     4  12  27  49  73  99 128 162 206 265 336 404
#     4  10  20  37  63  97 136 176 218 265 318 376
#     4  11  22  38  65  97 130 170 218 265 315 379
#     4  12  26  45  71  99 128 167 219 274 325 385
#     4  10  19  33  55  88 132 181 227 269 311 363
#     4   9  18  34  60  96 135 174 218 268 319 372
#     4  11  23  41  65  97 136 178 222 271 328 389
#
# _framework density 21.971112000000002
#
# number of rings (size 3 to 8) (size 9 to 14) (size 15 to 20)
#    0.000    1.286    2.857    2.714    0.000    9.429 
#    0.000    1.429    0.000    5.143    0.000    0.000 
#    0.000    0.000    0.000    0.000    0.000    0.000 
#
# Total GULP energy -1041081.322227 kJ/mol
# GULP energy per Si atom -12393.825265 kJ/mol
# Density = 2.192110 g / cm^3
# Si number density = 21.971112 Si / 1000 Ang^3
#
#
#
# Elastic Constant Matrix: (Units=GPa)
#
#
# Indices 1 2 3 4 5 6 
#
# 1 118.7633 51.5114 26.6354 0.0000 -0.0001 0.0000
# 2 51.5114 118.7633 26.6354 0.0000 0.0001 0.0000
# 3 26.6354 26.6354 109.5708 0.0000 0.0000 0.0000
# 4 0.0000 0.0000 0.0000 -4.1333 0.0000 0.0001
# 5 -0.0001 0.0001 0.0000 0.0000 -4.1333 0.0000
# 6 0.0000 0.0000 0.0000 0.0001 0.0000 33.6259
#
#
#
# Elastic Compliance Matrix: (Units=1/GPa)
#
#
# Indices 1 2 3 4 5 6 
#
# 1 0.010613 -0.004257 -0.001545 0.000000 0.000000 0.000000
# 2 -0.004257 0.010613 -0.001545 0.000000 0.000000 0.000000
# 3 -0.001545 -0.001545 0.009878 0.000000 0.000000 0.000000
# 4 0.000000 0.000000 0.000000 -0.241938 0.000000 0.000001
# 5 0.000000 0.000000 0.000000 0.000000 -0.241938 0.000000
# 6 0.000000 0.000000 0.000000 0.000001 0.000000 0.029739
#
#
# Mechanical properties :
#
#
# Convention : Reuss Voigt Hill
#
# Bulk Modulus (GPa) = 60.93952 61.85132 61.39542
# Shear Modulus (GPa) = -12.41097 21.22621 4.40762
#
# Velocity S-wave (km/s) = -2.37929 3.11158 1.41790
# Velocity P-wave (km/s) = 4.49982 6.41261 5.53940
#
# Compressibility (1/GPa) = 0.01640971
#
# Stress axis : x y z
#
# Youngs Moduli (GPa) = 94.22523 94.22523 101.23784
#
# Poissons Ratio (x) = 0.40108 0.15643
# Poissons Ratio (y) = 0.40108 0.15643
# Poissons Ratio (z) = 0.14559 0.14559
#
# Static dielectric constant tensor:
#      x y z
#    x 3.869250 0.000000 0.000000 
#    y 0.000000 3.869250 0.000000 
#    z 0.000000 0.000000 3.990700 
# 
# 
# High freq. dielectric constant tensor:
#      x y z
#    x 1.859060 0.000000 0.000000 
#    y 0.000000 1.859060 0.000000 
#    z 0.000000 0.000000 1.863490 
# 
# From -- ./inp_files/2591.got.cif
#   From: 2010.03.12/outbox.cif.g09.slc.cpg/sg187_2_cif.got.tgz:2591.got - 2010.04.01 11:58:23.
