data_PCOD8326979
_publ_section_title
;
Structure prediction by ZEFSAII (Michael W. Deem and Ramdas Pophale) SiO2 
 PCOD8326979
Probable space group: P -6 M 2
;
_chemical_formula_sum "Si O2"
_cell_formula_units_Z 60
_cell_length_a 22.945470
_cell_length_b 22.945470
_cell_length_c 7.767384
_cell_angle_alpha 90.000000
_cell_angle_beta 90.000000
_cell_angle_gamma 120.000000
_cell_volume 3541.598489
_symmetry_space_group_name_H-M "P -6 M 2"
_symmetry_group_IT_number 187
_symmetry_cell_setting 'hexagonal'
loop_
_space_group_symop_operation_xyz
x,y,z
-x+y,-x,-z
-y,x-y,z
x,y,-z
-x+y,-x,z
-y,x-y,-z
-y,-x,-z
-x+y,y,-z
x,x-y,-z
-x+y,y,z
x,x-y,z
-y,-x,z
loop_
_atom_site_type_symbol
_atom_site_label
_atom_site_fract_x
_atom_site_fract_y
_atom_site_fract_z
Si Si1 0.482064 0.094023 0.194801
Si Si2 0.822545 0.516201 0.500000
Si Si3 0.128709 0.739719 0.304033
Si Si4 0.328513 0.017912 0.808005
Si Si5 0.772828 0.097691 0.500000
Si Si6 0.201667 0.535620 0.797730
O O1 0.531261 0.062522 0.215644
O O2 0.507129 0.155980 0.327245
O O3 0.405311 0.036982 0.236618
O O4 0.487150 0.121510 0.000000
O O5 0.741731 0.483462 0.500000
O O6 0.856591 0.595804 0.500000
O O7 0.112923 0.748139 0.500000
O O8 0.189997 0.810004 0.230912
O O9 0.148886 0.682041 0.294608
O O10 0.062303 0.718574 0.194332
O O11 0.301583 0.051942 0.671886
O O12 0.324622 0.043063 0.000000
O O13 0.853950 0.146051 0.500000
O O14 0.277630 0.555259 0.751373
O O15 0.189710 0.594855 0.728757
O O16 0.188986 0.525260 0.000000
#
# Coordination Sequence:
#
# PCOD8326979 Si02
#       6
#    12   6  12  12   6  12
#     4   9  18  31  47  69  95 122 156 200 246 290
#     4   9  17  29  47  68  88 115 148 182 226 283
#     4  10  20  33  47  66  95 130 170 211 251 301
#     4  10  19  32  51  73  98 129 163 198 241 289
#     4   9  18  33  50  72  99 119 145 184 226 277
#     4   9  17  29  44  61  83 117 166 224 279 322
#
# _framework density 16.941503999999998
#
# number of rings (size 3 to 8) (size 9 to 14) (size 15 to 20)
#    0.000    2.600    1.000    1.100    0.000    4.000 
#    0.000    6.000    0.000    2.800    0.000    0.000 
#    0.000    0.000    0.000    2.400    0.000    5.200 
#
# Total GULP energy -743784.528932 kJ/mol
# GULP energy per Si atom -12396.408816 kJ/mol
# Density = 1.690294 g / cm^3
# Si number density = 16.941504 Si / 1000 Ang^3
#
#
#
# Elastic Constant Matrix: (Units=GPa)
#
#
# Indices 1 2 3 4 5 6 
#
# 1 72.7578 47.9149 35.5412 0.0000 0.0004 0.0000
# 2 47.9149 72.7578 35.5412 0.0000 -0.0004 0.0000
# 3 35.5412 35.5412 93.2016 0.0000 0.0000 0.0000
# 4 0.0000 0.0000 0.0000 19.0983 0.0000 -0.0004
# 5 0.0004 -0.0004 0.0000 0.0000 19.0983 0.0000
# 6 0.0000 0.0000 0.0000 -0.0004 0.0000 12.4215
#
#
#
# Elastic Compliance Matrix: (Units=1/GPa)
#
#
# Indices 1 2 3 4 5 6 
#
# 1 0.025470 -0.014783 -0.004076 0.000000 -0.000001 0.000000
# 2 -0.014783 0.025470 -0.004076 0.000000 0.000001 0.000000
# 3 -0.004076 -0.004076 0.013838 0.000000 0.000000 0.000000
# 4 0.000000 0.000000 0.000000 0.052361 0.000000 0.000002
# 5 -0.000001 0.000001 0.000000 0.000000 0.052361 0.000000
# 6 0.000000 0.000000 0.000000 0.000002 0.000000 0.080506
#
#
# Mechanical properties :
#
#
# Convention : Reuss Voigt Hill
#
# Bulk Modulus (GPa) = 52.88022 52.96798 52.92410
# Shear Modulus (GPa) = 16.54660 18.10492 17.32576
#
# Velocity S-wave (km/s) = 3.12859 3.27260 3.20141
# Velocity P-wave (km/s) = 6.65823 6.75374 6.70615
#
# Compressibility (1/GPa) = 0.01891066
#
# Stress axis : x y z
#
# Youngs Moduli (GPa) = 39.26146 39.26146 72.26602
#
# Poissons Ratio (x) = 0.58039 0.29453
# Poissons Ratio (y) = 0.58039 0.29453
# Poissons Ratio (z) = 0.16001 0.16001
#
# Static dielectric constant tensor:
#      x y z
#    x 3.026740 0.000000 0.000000 
#    y 0.000000 3.026740 0.000000 
#    z 0.000000 0.000000 3.279980 
# 
# 
# High freq. dielectric constant tensor:
#      x y z
#    x 1.619740 0.000000 0.000000 
#    y 0.000000 1.619740 0.000000 
#    z 0.000000 0.000000 1.667890 
# 
# From -- ./inp_files/705.got.cif
#   From: 2010.03.12/outbox.cif.g09.slc.cpg/sg187_1_cif.got.tgz:705.got - 2010.04.01 11:58:23.
