data_PCOD8326715
_publ_section_title
;
Structure prediction by ZEFSAII (Michael W. Deem and Ramdas Pophale) SiO2 
 PCOD8326715
Probable space group: P 63 M C
;
_chemical_formula_sum "Si O2"
_cell_formula_units_Z 96
_cell_length_a 22.968994
_cell_length_b 22.968994
_cell_length_c 12.559848
_cell_angle_alpha 90.000000
_cell_angle_beta 90.000000
_cell_angle_gamma 120.000000
_cell_volume 5738.507636
_symmetry_space_group_name_H-M "P 63 M C"
_symmetry_group_IT_number 186
_symmetry_cell_setting 'hexagonal'
loop_
_space_group_symop_operation_xyz
x,y,z
x-y,x,1/2+z
-y,x-y,z
-x,-y,1/2+z
-x+y,-x,z
y,-x+y,1/2+z
-x+y,y,z
x,x-y,z
-y,-x,z
y,x,1/2+z
x-y,-y,1/2+z
-x,-x+y,1/2+z
loop_
_atom_site_type_symbol
_atom_site_label
_atom_site_fract_x
_atom_site_fract_y
_atom_site_fract_z
Si Si1 0.322150 0.096885 0.291950
Si Si2 0.596631 0.660250 0.089723
Si Si3 0.458738 0.056154 0.809735
Si Si4 0.085935 0.411296 0.518118
Si Si5 0.519774 0.609628 0.885956
Si Si6 0.927249 0.716100 0.518541
Si Si7 0.699308 0.171457 0.215985
Si Si8 0.930962 0.205178 0.069712
O O1 0.292282 0.146141 0.304810
O O2 0.306781 0.058677 0.403480
O O3 0.400592 0.137756 0.273180
O O4 0.285604 0.051392 0.190207
O O5 0.555445 0.638725 0.199842
O O6 0.658157 0.737322 0.099116
O O7 0.621674 0.607455 0.067152
O O8 0.549534 0.656288 0.990637
O O9 0.534252 0.068503 0.809305
O O10 0.449085 0.097674 0.905501
O O11 0.402801 0.977774 0.825238
O O12 0.143298 0.465359 0.596704
O O13 0.091426 0.343634 0.505500
O O14 0.460807 0.539194 0.929156
O O15 0.487699 0.638161 0.798517
O O16 0.863419 0.726837 0.530091
O O17 0.997404 0.786330 0.534544
O O18 0.747870 0.252131 0.210059
O O19 0.872150 0.127851 0.059635
#
# Coordination Sequence:
#
# PCOD8326715 Si02
#       8
#    12  12  12  12  12  12  12  12
#     4   8  15  29  46  64  89 125 158 194 249 308
#     4  10  18  30  47  67 101 131 165 202 248 296
#     4  10  20  32  45  66 104 141 161 190 243 309
#     4   9  18  29  46  69  93 127 172 205 240 296
#     4  10  19  29  46  71  96 127 166 202 241 299
#     4  10  19  30  49  73  99 128 169 214 258 307
#     4  10  17  30  50  67  89 122 166 209 246 289
#     4   9  18  31  49  69  97 131 169 212 261 312
#
# _framework density 16.729088000000001
#
# number of rings (size 3 to 8) (size 9 to 14) (size 15 to 20)
#    0.000    2.500    2.500    1.500    0.000    1.000 
#    0.000    3.125    0.000    0.500    0.000    0.000 
#    0.000    0.000    0.000    1.250    0.000    0.500 
#
# Total GULP energy -1189373.576167 kJ/mol
# GULP energy per Si atom -12389.308085 kJ/mol
# Density = 1.669101 g / cm^3
# Si number density = 16.729088 Si / 1000 Ang^3
#
#
#
# Elastic Constant Matrix: (Units=GPa)
#
#
# Indices 1 2 3 4 5 6 
#
# 1 65.2628 25.6015 37.0827 0.0000 0.0000 0.0000
# 2 25.6015 65.2628 37.0827 0.0000 0.0000 0.0000
# 3 37.0827 37.0827 105.4562 0.0000 0.0000 0.0000
# 4 0.0000 0.0000 0.0000 18.2743 0.0000 0.0000
# 5 0.0000 0.0000 0.0000 0.0000 18.2743 0.0000
# 6 0.0000 0.0000 0.0000 0.0000 0.0000 19.8306
#
#
#
# Elastic Compliance Matrix: (Units=1/GPa)
#
#
# Indices 1 2 3 4 5 6 
#
# 1 0.020325 -0.004889 -0.005428 0.000000 0.000000 0.000000
# 2 -0.004889 0.020325 -0.005428 0.000000 0.000000 0.000000
# 3 -0.005428 -0.005428 0.013300 0.000000 0.000000 0.000000
# 4 0.000000 0.000000 0.000000 0.054722 0.000000 0.000000
# 5 0.000000 0.000000 0.000000 0.000000 0.054722 0.000000
# 6 0.000000 0.000000 0.000000 0.000000 0.000000 0.050427
#
#
# Mechanical properties :
#
#
# Convention : Reuss Voigt Hill
#
# Bulk Modulus (GPa) = 44.52351 48.39061 46.45706
# Shear Modulus (GPa) = 19.77885 20.35684 20.06785
#
# Velocity S-wave (km/s) = 3.44219 3.49213 3.46725
# Velocity P-wave (km/s) = 6.51694 6.72672 6.62266
#
# Compressibility (1/GPa) = 0.02246005
#
# Stress axis : x y z
#
# Youngs Moduli (GPa) = 49.20138 49.20138 75.18851
#
# Poissons Ratio (x) = 0.24054 0.40811
# Poissons Ratio (y) = 0.24054 0.40811
# Poissons Ratio (z) = 0.26706 0.26706
#
# Static dielectric constant tensor:
#      x y z
#    x 3.036290 0.000000 0.000000 
#    y 0.000000 3.036290 0.000000 
#    z 0.000000 0.000000 3.357520 
# 
# 
# High freq. dielectric constant tensor:
#      x y z
#    x 1.612110 0.000000 0.000000 
#    y 0.000000 1.612110 0.000000 
#    z 0.000000 0.000000 1.652830 
# 
# From -- ./inp_files/2046.got.cif
#   From: 2010.03.12/outbox.cif.g09.slc.cpg/sg186_2_cif.got.tgz:2046.got - 2010.04.01 11:56:34.
