data_PCOD8326704
_publ_section_title
;
Structure prediction by ZEFSAII (Michael W. Deem and Ramdas Pophale) SiO2 
 PCOD8326704
Probable space group: P 63 M C
;
_chemical_formula_sum "Si O2"
_cell_formula_units_Z 36
_cell_length_a 20.559615
_cell_length_b 20.559615
_cell_length_c 5.330966
_cell_angle_alpha 90.000000
_cell_angle_beta 90.000000
_cell_angle_gamma 120.000000
_cell_volume 1951.490763
_symmetry_space_group_name_H-M "P 63 M C"
_symmetry_group_IT_number 186
_symmetry_cell_setting 'hexagonal'
loop_
_space_group_symop_operation_xyz
x,y,z
x-y,x,1/2+z
-y,x-y,z
-x,-y,1/2+z
-x+y,-x,z
y,-x+y,1/2+z
-x+y,y,z
x,x-y,z
-y,-x,z
y,x,1/2+z
x-y,-y,1/2+z
-x,-x+y,1/2+z
loop_
_atom_site_type_symbol
_atom_site_label
_atom_site_fract_x
_atom_site_fract_y
_atom_site_fract_z
Si Si1 0.083218 0.618562 0.268250
Si Si2 0.673911 0.589137 0.268240
Si Si3 0.246020 0.048529 0.265438
O O1 0.078133 0.539067 0.257508
O O2 0.125323 0.663749 0.521659
O O3 0.000784 0.608090 0.279004
O O4 0.125465 0.667353 0.020669
O O5 0.753716 0.664062 0.258726
O O6 0.220749 0.110375 0.254938
O O7 0.215813 0.003853 0.523966
#
# Coordination Sequence:
#
# PCOD8326704 Si02
#       3
#    12  12  12
#     4  10  16  25  46  72 110 143 159 183 226 294
#     4  10  16  29  44  70 105 131 175 189 238 304
#     4  12  23  40  59  78 101 136 178 230 286 356
#
# _framework density 18.447436
#
# number of rings (size 3 to 8) (size 9 to 14) (size 15 to 20)
#    0.000    1.333    6.667    6.000    0.000    0.000 
#    0.000    0.000    0.000    6.667    0.000    0.000 
#    0.000    0.000    0.000   45.000    0.000    0.000 
#
# Total GULP energy -446149.814650 kJ/mol
# GULP energy per Si atom -12393.050407 kJ/mol
# Density = 1.840545 g / cm^3
# Si number density = 18.447436 Si / 1000 Ang^3
#
#
#
# Elastic Constant Matrix: (Units=GPa)
#
#
# Indices 1 2 3 4 5 6 
#
# 1 36.3494 23.0458 9.7980 0.0000 0.0000 0.0000
# 2 23.0458 36.3494 9.7980 0.0000 0.0000 0.0000
# 3 9.7980 9.7980 159.8852 0.0000 0.0000 0.0000
# 4 0.0000 0.0000 0.0000 7.1444 0.0000 0.0000
# 5 0.0000 0.0000 0.0000 0.0000 7.1444 0.0000
# 6 0.0000 0.0000 0.0000 0.0000 0.0000 6.6518
#
#
#
# Elastic Compliance Matrix: (Units=1/GPa)
#
#
# Indices 1 2 3 4 5 6 
#
# 1 0.046176 -0.028992 -0.001053 0.000000 0.000000 0.000000
# 2 -0.028992 0.046176 -0.001053 0.000000 0.000000 0.000000
# 3 -0.001053 -0.001053 0.006384 0.000000 0.000000 0.000000
# 4 0.000000 0.000000 0.000000 0.139970 0.000000 0.000000
# 5 0.000000 0.000000 0.000000 0.000000 0.139970 0.000000
# 6 0.000000 0.000000 0.000000 0.000000 0.000000 0.150336
#
#
# Mechanical properties :
#
#
# Convention : Reuss Voigt Hill
#
# Bulk Modulus (GPa) = 27.36803 35.31860 31.34331
# Shear Modulus (GPa) = 8.28654 16.85091 12.56872
#
# Velocity S-wave (km/s) = 2.12173 3.02562 2.61305
# Velocity P-wave (km/s) = 4.56839 5.60294 5.11190
#
# Compressibility (1/GPa) = 0.03653899
#
# Stress axis : x y z
#
# Youngs Moduli (GPa) = 21.65633 21.65633 156.65255
#
# Poissons Ratio (x) = 0.62786 0.16496
# Poissons Ratio (y) = 0.62786 0.16496
# Poissons Ratio (z) = 0.02281 0.02281
#
# Static dielectric constant tensor:
#      x y z
#    x 3.137320 0.000000 0.000000 
#    y 0.000000 3.137320 0.000000 
#    z 0.000000 0.000000 12.653690 
# 
# 
# High freq. dielectric constant tensor:
#      x y z
#    x 1.664630 0.000000 0.000000 
#    y 0.000000 1.664630 0.000000 
#    z 0.000000 0.000000 1.766410 
# 
# From -- ./inp_files/148.got.cif
#   From: 2010.03.12/outbox.cif.g09.slc.cpg/sg186_1_cif.got.tgz:148.got - 2010.04.01 11:56:34.
