data_PCOD8326322
_publ_section_title
;
Structure prediction by ZEFSAII (Michael W. Deem and Ramdas Pophale) SiO2 
 PCOD8326322
Probable space group: P 64 2 2
;
_chemical_formula_sum "Si O2"
_cell_formula_units_Z 78
_cell_length_a 17.385902
_cell_length_b 17.385902
_cell_length_c 15.608251
_cell_angle_alpha 90.000000
_cell_angle_beta 90.000000
_cell_angle_gamma 120.000000
_cell_volume 4085.820910
_symmetry_space_group_name_H-M "P 64 2 2"
_symmetry_group_IT_number 181
_symmetry_cell_setting 'hexagonal'
loop_
_space_group_symop_operation_xyz
x,y,z
x-y,x,2/3+z
-y,x-y,1/3+z
-x,-y,z
-x+y,-x,2/3+z
y,-x+y,1/3+z
x-y,-y,-z
-x,-x+y,2/3-z
y,x,1/3-z
-y,-x,1/3-z
-x+y,y,-z
x,x-y,2/3-z
loop_
_atom_site_type_symbol
_atom_site_label
_atom_site_fract_x
_atom_site_fract_y
_atom_site_fract_z
Si Si1 0.760554 0.299220 0.811082
Si Si2 0.620895 0.657132 0.575370
Si Si3 0.470952 0.593630 0.450495
Si Si4 0.413095 0.126229 0.786542
Si Si5 0.163358 0.373673 0.735260
Si Si6 0.000000 0.299936 0.833334
Si Si7 0.060203 0.463197 0.943884
O O1 0.714427 0.357214 0.833334
O O2 0.684811 0.212968 0.764595
O O3 0.802996 0.274408 0.891508
O O4 0.837612 0.362808 0.746362
O O5 0.613515 0.613515 0.666667
O O6 0.519968 0.602075 0.540301
O O7 0.690429 0.651633 0.509624
O O8 0.651790 0.760028 0.594042
O O9 0.373230 0.510125 0.447850
O O10 0.535261 0.587442 0.379843
O O11 0.425275 0.212638 0.833334
O O12 0.372924 0.125087 0.692635
O O13 0.085391 0.297152 0.796604
O O14 0.024891 0.363561 0.915421
O O15 0.000000 0.500000 0.901797
#
# Coordination Sequence:
#
# PCOD8326322 Si02
#       7
#    12  12  12  12  12   6  12
#     4  10  20  35  53  79 116 152 198 248 305 356
#     4  11  23  42  58  83 119 158 204 247 298 358
#     4  11  23  35  54  81 114 156 207 254 294 346
#     4  12  23  39  59  80 115 160 208 248 299 357
#     4  10  22  39  59  87 115 152 196 247 302 372
#     4  10  19  34  60  84 113 138 182 242 300 364
#     4  11  19  32  53  79 110 149 188 241 304 362
#
# _framework density 19.090411
#
# number of rings (size 3 to 8) (size 9 to 14) (size 15 to 20)
#    0.000    1.231    1.538    7.154    0.000    1.231 
#    0.000    3.846    0.000    0.000    0.000    0.538 
#    0.000    0.000    0.000    0.000    0.000    0.000 
#
# Total GULP energy -966655.623829 kJ/mol
# GULP energy per Si atom -12393.020818 kJ/mol
# Density = 1.904696 g / cm^3
# Si number density = 19.090411 Si / 1000 Ang^3
#
#
#
# Elastic Constant Matrix: (Units=GPa)
#
#
# Indices 1 2 3 4 5 6 
#
# 1 92.6583 41.7356 42.8742 0.0000 0.0000 0.0000
# 2 41.7356 92.6583 42.8742 0.0000 0.0000 0.0000
# 3 42.8742 42.8742 123.3932 0.0000 0.0000 0.0000
# 4 0.0000 0.0000 0.0000 30.6833 0.0000 0.0000
# 5 0.0000 0.0000 0.0000 0.0000 30.6833 0.0000
# 6 0.0000 0.0000 0.0000 0.0000 0.0000 25.4613
#
#
#
# Elastic Compliance Matrix: (Units=1/GPa)
#
#
# Indices 1 2 3 4 5 6 
#
# 1 0.014599 -0.005039 -0.003322 0.000000 0.000000 0.000000
# 2 -0.005039 0.014599 -0.003322 0.000000 0.000000 0.000000
# 3 -0.003322 -0.003322 0.010413 0.000000 0.000000 0.000000
# 4 0.000000 0.000000 0.000000 0.032591 0.000000 0.000000
# 5 0.000000 0.000000 0.000000 0.000000 0.032591 0.000000
# 6 0.000000 0.000000 0.000000 0.000000 0.000000 0.039275
#
#
# Mechanical properties :
#
#
# Convention : Reuss Voigt Hill
#
# Bulk Modulus (GPa) = 61.55421 62.63088 62.09254
# Shear Modulus (GPa) = 28.92723 29.44731 29.18727
#
# Velocity S-wave (km/s) = 3.89688 3.93175 3.91435
# Velocity P-wave (km/s) = 7.24990 7.31371 7.28187
#
# Compressibility (1/GPa) = 0.01624584
#
# Stress axis : x y z
#
# Youngs Moduli (GPa) = 68.49812 68.49812 96.03773
#
# Poissons Ratio (x) = 0.34514 0.31902
# Poissons Ratio (y) = 0.34514 0.31902
# Poissons Ratio (z) = 0.22754 0.22754
#
# Static dielectric constant tensor:
#      x y z
#    x 3.534820 0.000000 0.000000 
#    y 0.000000 3.534820 0.000000 
#    z 0.000000 0.000000 3.694730 
# 
# 
# High freq. dielectric constant tensor:
#      x y z
#    x 1.727280 0.000000 0.000000 
#    y 0.000000 1.727280 0.000000 
#    z 0.000000 0.000000 1.759670 
# 
# From -- ./inp_files/6452.got.cif
#   From: 2010.03.12/outbox.cif.g09.slc.cpg/sg181_4_cif.got.tgz:6452.got - 2010.04.01 11:42:41.
