data_PCOD8326425
_publ_section_title
;
Structure prediction by ZEFSAII (Michael W. Deem and Ramdas Pophale) SiO2 
 PCOD8326425
Probable space group: P 64 2 2
;
_chemical_formula_sum "Si O2"
_cell_formula_units_Z 54
_cell_length_a 11.541210
_cell_length_b 11.541210
_cell_length_c 21.944906
_cell_angle_alpha 90.000000
_cell_angle_beta 90.000000
_cell_angle_gamma 120.000000
_cell_volume 2531.436533
_symmetry_space_group_name_H-M "P 64 2 2"
_symmetry_group_IT_number 181
_symmetry_cell_setting 'hexagonal'
loop_
_space_group_symop_operation_xyz
x,y,z
x-y,x,2/3+z
-y,x-y,1/3+z
-x,-y,z
-x+y,-x,2/3+z
y,-x+y,1/3+z
x-y,-y,-z
-x,-x+y,2/3-z
y,x,1/3-z
-y,-x,1/3-z
-x+y,y,-z
x,x-y,2/3-z
loop_
_atom_site_type_symbol
_atom_site_label
_atom_site_fract_x
_atom_site_fract_y
_atom_site_fract_z
Si Si1 0.248452 0.624226 0.333334
Si Si2 0.154724 0.110814 0.267116
Si Si3 0.428037 0.795576 0.780404
Si Si4 0.698221 0.671908 0.856731
Si Si5 0.239270 0.330996 0.722448
O O1 0.343156 0.609606 0.380822
O O2 0.162688 0.678253 0.368326
O O3 0.211097 0.105549 0.333334
O O4 0.231079 0.078081 0.214614
O O5 0.181913 0.263334 0.260553
O O6 0.000000 0.000000 0.259646
O O7 0.372175 0.686088 0.833334
O O8 0.348779 0.872891 0.788788
O O9 0.589715 0.882847 0.783290
O O10 0.689770 0.680476 0.783436
O O11 0.242033 0.242033 0.666667
#
# Coordination Sequence:
#
# PCOD8326425 Si02
#       5
#     6  12  12  12  12
#     4  12  25  44  72  98 143 188 238 284 352 422
#     4  11  24  46  68 104 140 182 231 289 363 423
#     4  11  24  46  69 102 136 186 233 289 354 424
#     4  11  26  44  72 103 140 180 237 294 355 424
#     4  12  24  43  70 106 139 183 231 297 351 421
#
# _framework density 21.331761
#
# number of rings (size 3 to 8) (size 9 to 14) (size 15 to 20)
#    0.000    0.667    4.444    3.667    7.778    0.889 
#    0.000    0.000    0.000    0.000    0.000    0.000 
#    0.000    0.000    0.000    0.000    0.000    0.000 
#
# Total GULP energy -669505.070602 kJ/mol
# GULP energy per Si atom -12398.242048 kJ/mol
# Density = 2.128321 g / cm^3
# Si number density = 21.331761 Si / 1000 Ang^3
#
#
#
# Elastic Constant Matrix: (Units=GPa)
#
#
# Indices 1 2 3 4 5 6 
#
# 1 97.0381 58.3006 53.5056 0.0000 0.0000 0.0000
# 2 58.3006 97.0381 53.5056 0.0000 0.0000 0.0000
# 3 53.5056 53.5056 183.0887 0.0000 0.0000 0.0000
# 4 0.0000 0.0000 0.0000 33.2845 0.0000 0.0000
# 5 0.0000 0.0000 0.0000 0.0000 33.2845 0.0000
# 6 0.0000 0.0000 0.0000 0.0000 0.0000 19.3687
#
#
#
# Elastic Compliance Matrix: (Units=1/GPa)
#
#
# Indices 1 2 3 4 5 6 
#
# 1 0.016938 -0.008877 -0.002356 0.000000 0.000000 0.000000
# 2 -0.008877 0.016938 -0.002356 0.000000 0.000000 0.000000
# 3 -0.002356 -0.002356 0.006839 0.000000 0.000000 0.000000
# 4 0.000000 0.000000 0.000000 0.030044 0.000000 0.000000
# 5 0.000000 0.000000 0.000000 0.000000 0.030044 0.000000
# 6 0.000000 0.000000 0.000000 0.000000 0.000000 0.051630
#
#
# Mechanical properties :
#
#
# Convention : Reuss Voigt Hill
#
# Bulk Modulus (GPa) = 73.87163 78.64318 76.25740
# Shear Modulus (GPa) = 27.15616 31.31106 29.23361
#
# Velocity S-wave (km/s) = 3.57184 3.83536 3.70594
# Velocity P-wave (km/s) = 7.19137 7.52064 7.35785
#
# Compressibility (1/GPa) = 0.01353700
#
# Stress axis : x y z
#
# Youngs Moduli (GPa) = 59.04052 59.04052 146.22917
#
# Poissons Ratio (x) = 0.52412 0.34445
# Poissons Ratio (y) = 0.52412 0.34445
# Poissons Ratio (z) = 0.13907 0.13907
#
# Static dielectric constant tensor:
#      x y z
#    x 3.858150 0.000000 0.000000 
#    y 0.000000 3.858150 0.000000 
#    z 0.000000 0.000000 4.209960 
# 
# 
# High freq. dielectric constant tensor:
#      x y z
#    x 1.833800 0.000000 0.000000 
#    y 0.000000 1.833800 0.000000 
#    z 0.000000 0.000000 1.859250 
# 
# From -- ./inp_files/8759.got.cif
#   From: 2010.03.12/outbox.cif.g09.slc.cpg/sg181_5_cif.got.tgz:8759.got - 2010.04.01 11:42:41.
