data_PCOD8326399
_publ_section_title
;
Structure prediction by ZEFSAII (Michael W. Deem and Ramdas Pophale) SiO2 
 PCOD8326399
Probable space group: P 64 2 2
;
_chemical_formula_sum "Si O2"
_cell_formula_units_Z 96
_cell_length_a 14.505598
_cell_length_b 14.505598
_cell_length_c 25.714670
_cell_angle_alpha 90.000000
_cell_angle_beta 90.000000
_cell_angle_gamma 120.000000
_cell_volume 4685.790440
_symmetry_space_group_name_H-M "P 64 2 2"
_symmetry_group_IT_number 181
_symmetry_cell_setting 'hexagonal'
loop_
_space_group_symop_operation_xyz
x,y,z
x-y,x,2/3+z
-y,x-y,1/3+z
-x,-y,z
-x+y,-x,2/3+z
y,-x+y,1/3+z
x-y,-y,-z
-x,-x+y,2/3-z
y,x,1/3-z
-y,-x,1/3-z
-x+y,y,-z
x,x-y,2/3-z
loop_
_atom_site_type_symbol
_atom_site_label
_atom_site_fract_x
_atom_site_fract_y
_atom_site_fract_z
Si Si1 0.076382 0.622926 0.587702
Si Si2 0.176125 0.873545 0.003823
Si Si3 0.384208 0.985162 0.440488
Si Si4 0.629751 0.338310 0.892062
Si Si5 0.303098 0.253548 0.317913
Si Si6 0.614905 0.835669 0.888680
Si Si7 0.770094 0.517501 0.259837
Si Si8 0.414192 0.035617 0.144226
O O1 0.198779 0.652714 0.577163
O O2 0.059334 0.675598 0.637709
O O3 0.038138 0.661700 0.536710
O O4 0.000000 0.500000 0.598593
O O5 0.255988 0.836997 0.977959
O O6 0.060369 0.808708 0.978049
O O7 0.150407 0.832749 0.063191
O O8 0.224392 0.000000 0.000000
O O9 0.303222 0.867607 0.422596
O O10 0.500000 0.000000 0.433235
O O11 0.360667 0.000000 0.500000
O O12 0.366168 0.066355 0.403689
O O13 0.672018 0.336009 0.833334
O O14 0.504267 0.259785 0.893424
O O15 0.689518 0.300238 0.933243
O O16 0.269622 0.134811 0.333334
O O17 0.665237 0.832619 0.833334
O O18 0.627109 0.951581 0.893368
O O19 0.848719 0.534632 0.212902
O O20 0.500000 0.000000 0.151464
#
# Coordination Sequence:
#
# PCOD8326399 Si02
#       8
#    12  12  12  12  12  12  12  12
#     4  11  22  39  63  91 135 173 212 269 321 395
#     4  11  24  45  66  91 127 170 216 285 344 389
#     4  10  25  43  67  91 129 172 217 273 325 398
#     4  11  21  36  62  95 134 176 217 256 323 403
#     4  11  26  44  64  95 124 163 229 279 338 401
#     4  11  21  38  61  94 130 168 214 260 326 398
#     4  11  23  39  63  94 130 166 222 256 325 399
#     4  11  19  36  61  95 130 170 212 261 315 400
#
# _framework density 20.487472
#
# number of rings (size 3 to 8) (size 9 to 14) (size 15 to 20)
#    0.000    1.125    3.750    4.125    5.250    1.750 
#    0.000    1.250    0.000    0.000    0.000    1.750 
#    0.000    0.000    0.000    0.000    0.000    0.000 
#
# Total GULP energy -1189778.718433 kJ/mol
# GULP energy per Si atom -12393.528317 kJ/mol
# Density = 2.044084 g / cm^3
# Si number density = 20.487472 Si / 1000 Ang^3
#
#
#
# Elastic Constant Matrix: (Units=GPa)
#
#
# Indices 1 2 3 4 5 6 
#
# 1 76.9064 24.0119 33.1182 0.0000 0.0000 0.0000
# 2 24.0119 76.9064 33.1182 0.0000 0.0000 0.0000
# 3 33.1182 33.1182 125.4637 0.0000 0.0000 0.0000
# 4 0.0000 0.0000 0.0000 37.9209 0.0000 0.0000
# 5 0.0000 0.0000 0.0000 0.0000 37.9209 0.0000
# 6 0.0000 0.0000 0.0000 0.0000 0.0000 26.4472
#
#
#
# Elastic Compliance Matrix: (Units=1/GPa)
#
#
# Indices 1 2 3 4 5 6 
#
# 1 0.015446 -0.003460 -0.003164 0.000000 0.000000 0.000000
# 2 -0.003460 0.015446 -0.003164 0.000000 0.000000 0.000000
# 3 -0.003164 -0.003164 0.009641 0.000000 0.000000 0.000000
# 4 0.000000 0.000000 0.000000 0.026371 0.000000 0.000000
# 5 0.000000 0.000000 0.000000 0.000000 0.026371 0.000000
# 6 0.000000 0.000000 0.000000 0.000000 0.000000 0.037811
#
#
# Mechanical properties :
#
#
# Convention : Reuss Voigt Hill
#
# Bulk Modulus (GPa) = 47.71760 51.08589 49.40175
# Shear Modulus (GPa) = 31.71683 33.05967 32.38825
#
# Velocity S-wave (km/s) = 3.93887 4.02139 3.98034
# Velocity P-wave (km/s) = 6.63535 6.82286 6.72976
#
# Compressibility (1/GPa) = 0.02095663
#
# Stress axis : x y z
#
# Youngs Moduli (GPa) = 64.74361 64.74361 103.72704
#
# Poissons Ratio (x) = 0.22401 0.32817
# Poissons Ratio (y) = 0.22401 0.32817
# Poissons Ratio (z) = 0.20483 0.20483
#
# Static dielectric constant tensor:
#      x y z
#    x 3.771640 0.000000 0.000000 
#    y 0.000000 3.771640 0.000000 
#    z 0.000000 0.000000 4.484880 
# 
# 
# High freq. dielectric constant tensor:
#      x y z
#    x 1.793860 0.000000 0.000000 
#    y 0.000000 1.793860 0.000000 
#    z 0.000000 0.000000 1.810780 
# 
# From -- ./inp_files/11404.got.cif
#   From: 2010.03.12/outbox.cif.g09.slc.cpg/sg181_6_cif.got.tgz:11404.got - 2010.04.01 11:42:41.
