data_PCOD8326402
_publ_section_title
;
Structure prediction by ZEFSAII (Michael W. Deem and Ramdas Pophale) SiO2 
 PCOD8326402
Probable space group: P 64 2 2
;
_chemical_formula_sum "Si O2"
_cell_formula_units_Z 84
_cell_length_a 21.273534
_cell_length_b 21.273534
_cell_length_c 12.043037
_cell_angle_alpha 90.000000
_cell_angle_beta 90.000000
_cell_angle_gamma 120.000000
_cell_volume 4720.042790
_symmetry_space_group_name_H-M "P 64 2 2"
_symmetry_group_IT_number 181
_symmetry_cell_setting 'hexagonal'
loop_
_space_group_symop_operation_xyz
x,y,z
x-y,x,2/3+z
-y,x-y,1/3+z
-x,-y,z
-x+y,-x,2/3+z
y,-x+y,1/3+z
x-y,-y,-z
-x,-x+y,2/3-z
y,x,1/3-z
-y,-x,1/3-z
-x+y,y,-z
x,x-y,2/3-z
loop_
_atom_site_type_symbol
_atom_site_label
_atom_site_fract_x
_atom_site_fract_y
_atom_site_fract_z
Si Si1 0.229090 0.636406 0.209332
Si Si2 0.429036 0.056000 0.419110
Si Si3 0.233494 0.367727 0.811164
Si Si4 0.317184 0.984565 0.235972
Si Si5 0.272957 0.849145 0.101090
Si Si6 0.810186 0.491181 0.047233
Si Si7 0.928682 0.236390 0.882531
O O1 0.309975 0.690026 0.166667
O O2 0.236785 0.618393 0.333334
O O3 0.180459 0.673597 0.202998
O O4 0.189190 0.563091 0.137949
O O5 0.500109 0.131860 0.383416
O O6 0.377729 0.076225 0.490139
O O7 0.440662 0.000000 0.500000
O O8 0.391899 0.015007 0.304471
O O9 0.265388 0.315159 0.837991
O O10 0.258099 0.410104 0.695446
O O11 0.261144 0.429981 0.904248
O O12 0.146919 0.311849 0.811619
O O13 0.314516 0.931619 0.140765
O O14 0.248839 0.941191 0.318617
O O15 0.197674 0.802327 0.166667
O O16 0.728667 0.457333 0.000000
O O17 0.000000 0.235729 0.833334
#
# Coordination Sequence:
#
# PCOD8326402 Si02
#       7
#    12  12  12  12  12  12  12
#     4  11  24  41  57  80 105 139 190 250 297 347
#     4   8  17  32  55  81 111 133 177 226 275 335
#     4  11  19  33  57  81 111 148 185 223 280 340
#     4   9  19  31  53  81 106 147 186 218 273 335
#     4  11  21  36  56  74 108 147 183 230 289 331
#     4  11  20  35  60  84 105 145 189 233 293 349
#     4   9  17  31  52  84 117 138 172 227 272 323
#
# _framework density 17.796448999999999
#
# number of rings (size 3 to 8) (size 9 to 14) (size 15 to 20)
#    0.000    2.286    4.286    0.857    0.000    0.000 
#    0.000    2.857    0.000    3.429    0.000    0.000 
#    0.000    0.571    0.857    0.000    0.000    0.000 
#
# Total GULP energy -1040959.764766 kJ/mol
# GULP energy per Si atom -12392.378152 kJ/mol
# Density = 1.775594 g / cm^3
# Si number density = 17.796449 Si / 1000 Ang^3
#
#
#
# Elastic Constant Matrix: (Units=GPa)
#
#
# Indices 1 2 3 4 5 6 
#
# 1 65.6506 65.8050 32.4713 0.0000 0.0000 0.0000
# 2 65.8050 65.6506 32.4713 0.0000 0.0000 0.0000
# 3 32.4713 32.4713 88.9754 0.0000 0.0000 0.0000
# 4 0.0000 0.0000 0.0000 10.9790 0.0000 0.0000
# 5 0.0000 0.0000 0.0000 0.0000 10.9790 0.0000
# 6 0.0000 0.0000 0.0000 0.0000 0.0000 -0.0772
#
#
#
# Elastic Compliance Matrix: (Units=1/GPa)
#
#
# Indices 1 2 3 4 5 6 
#
# 1 -3.233299 3.242579 -0.003387 0.000000 0.000000 0.000000
# 2 3.242579 -3.233299 -0.003387 0.000000 0.000000 0.000000
# 3 -0.003387 -0.003387 0.013711 0.000000 0.000000 0.000000
# 4 0.000000 0.000000 0.000000 0.091083 0.000000 0.000000
# 5 0.000000 0.000000 0.000000 0.000000 0.091083 0.000000
# 6 0.000000 0.000000 0.000000 0.000000 0.000000-12.951755
#
#
# Mechanical properties :
#
#
# Convention : Reuss Voigt Hill
#
# Bulk Modulus (GPa) = 53.40615 53.53016 53.46816
# Shear Modulus (GPa) = -0.19464 10.34474 5.07505
#
# Velocity S-wave (km/s) = -0.33107 2.41359 1.69054
# Velocity P-wave (km/s) = 5.47069 6.15724 5.82409
#
# Compressibility (1/GPa) = 0.01872443
#
# Stress axis : x y z
#
# Youngs Moduli (GPa) = -0.30928 -0.30928 72.93371
#
# Poissons Ratio (x) = 1.00287 0.24701
# Poissons Ratio (y) = 1.00287 0.24701
# Poissons Ratio (z) = -0.00105 -0.00105
#
# Static dielectric constant tensor:
#      x y z
#    x 3.175920 0.000000 0.000000 
#    y 0.000000 3.175920 0.000000 
#    z 0.000000 0.000000 3.466440 
# 
# 
# High freq. dielectric constant tensor:
#      x y z
#    x 1.665940 0.000000 0.000000 
#    y 0.000000 1.665940 0.000000 
#    z 0.000000 0.000000 1.706290 
# 
# From -- ./inp_files/5090.got.cif
#   From: 2010.03.12/outbox.cif.g09.slc.cpg/sg181_3_cif.got.tgz:5090.got - 2010.04.01 11:42:41.
