data_PCOD8326636
_publ_section_title
;
Structure prediction by ZEFSAII (Michael W. Deem and Ramdas Pophale) SiO2 
 PCOD8326636
Probable space group: P 63 C M
;
_chemical_formula_sum "Si O2"
_cell_formula_units_Z 60
_cell_length_a 29.000072
_cell_length_b 29.000072
_cell_length_c 4.907217
_cell_angle_alpha 90.000000
_cell_angle_beta 90.000000
_cell_angle_gamma 120.000000
_cell_volume 3574.078172
_symmetry_space_group_name_H-M "P 63 C M"
_symmetry_group_IT_number 185
_symmetry_cell_setting 'hexagonal'
loop_
_space_group_symop_operation_xyz
x,y,z
x-y,x,1/2+z
-y,x-y,z
-x,-y,1/2+z
-x+y,-x,z
y,-x+y,1/2+z
-x+y,y,1/2+z
x,x-y,1/2+z
-y,-x,1/2+z
y,x,z
x-y,-y,z
-x,-x+y,z
loop_
_atom_site_type_symbol
_atom_site_label
_atom_site_fract_x
_atom_site_fract_y
_atom_site_fract_z
Si Si1 0.721425 0.499875 0.461750
Si Si2 0.841504 0.216956 0.486872
Si Si3 0.570770 0.940851 0.711017
Si Si4 0.393675 0.545068 0.732283
Si Si5 0.308119 0.940645 0.720229
O O1 0.727093 0.485525 0.771951
O O2 0.740035 0.562061 0.468073
O O3 0.663321 0.466712 0.336720
O O4 0.807252 0.166260 0.685237
O O5 0.901864 0.248698 0.601823
O O6 0.507680 0.905845 0.736326
O O7 0.598646 0.918220 0.501464
O O8 0.586125 0.000000 0.609676
O O9 0.592500 0.943660 0.010241
O O10 0.406956 0.564010 0.420730
O O11 0.316378 0.000000 0.764791
#
# Coordination Sequence:
#
# PCOD8326636 Si02
#       5
#    12  12  12  12  12
#     4  10  21  36  55  72  92 112 140 186 236 275
#     4  10  19  30  52  77  95 118 159 199 226 263
#     4  10  21  35  51  71 102 132 154 180 219 279
#     4  12  24  36  55  75  96 118 153 186 222 283
#     4  10  19  33  51  71 103 134 155 185 236 284
#
# _framework density 16.787545000000001
#
# number of rings (size 3 to 8) (size 9 to 14) (size 15 to 20)
#    0.000    1.600    2.000    3.600    5.600    0.800 
#    0.000    0.000    0.000    8.000    0.000    0.000 
#    0.000    0.000    0.000    0.000    0.000    0.000 
#
# Total GULP energy -743622.645005 kJ/mol
# GULP energy per Si atom -12393.710750 kJ/mol
# Density = 1.674934 g / cm^3
# Si number density = 16.787545 Si / 1000 Ang^3
#
#
#
# Elastic Constant Matrix: (Units=GPa)
#
#
# Indices 1 2 3 4 5 6 
#
# 1 58.0964 19.4161 2.2440 0.0000 0.0000 0.0000
# 2 19.4161 58.0964 2.2440 0.0000 0.0000 0.0000
# 3 2.2440 2.2440 56.9455 0.0000 0.0000 0.0000
# 4 0.0000 0.0000 0.0000 20.5981 0.0000 0.0000
# 5 0.0000 0.0000 0.0000 0.0000 20.5981 0.0000
# 6 0.0000 0.0000 0.0000 0.0000 0.0000 19.3402
#
#
#
# Elastic Compliance Matrix: (Units=1/GPa)
#
#
# Indices 1 2 3 4 5 6 
#
# 1 0.019392 -0.006461 -0.000510 0.000000 0.000000 0.000000
# 2 -0.006461 0.019392 -0.000510 0.000000 0.000000 0.000000
# 3 -0.000510 -0.000510 0.017601 0.000000 0.000000 0.000000
# 4 0.000000 0.000000 0.000000 0.048548 0.000000 0.000000
# 5 0.000000 0.000000 0.000000 0.000000 0.048548 0.000000
# 6 0.000000 0.000000 0.000000 0.000000 0.000000 0.051706
#
#
# Mechanical properties :
#
#
# Convention : Reuss Voigt Hill
#
# Bulk Modulus (GPa) = 24.14064 24.54961 24.34512
# Shear Modulus (GPa) = 21.37165 22.05624 21.71395
#
# Velocity S-wave (km/s) = 3.57188 3.62863 3.60037
# Velocity P-wave (km/s) = 5.60557 5.67551 5.64065
#
# Compressibility (1/GPa) = 0.04142392
#
# Stress axis : x y z
#
# Youngs Moduli (GPa) = 51.56822 51.56822 56.81556
#
# Poissons Ratio (x) = 0.33319 0.02895
# Poissons Ratio (y) = 0.33319 0.02895
# Poissons Ratio (z) = 0.02628 0.02628
#
# Static dielectric constant tensor:
#      x y z
#    x 2.991220 0.000000 0.000000 
#    y 0.000000 2.991220 0.000000 
#    z 0.000000 0.000000 3.453000 
# 
# 
# High freq. dielectric constant tensor:
#      x y z
#    x 1.610430 0.000000 0.000000 
#    y 0.000000 1.610430 0.000000 
#    z 0.000000 0.000000 1.678750 
# 
# From -- ./inp_files/130.got.cif
#   From: 2010.03.12/outbox.cif.g09.slc.cpg/sg185_cif.got.tgz:130.got - 2010.04.01 11:55:19.
