data_PCOD8326698
_publ_section_title
;
Structure prediction by ZEFSAII (Michael W. Deem and Ramdas Pophale) SiO2 
 PCOD8326698
Probable space group: P 63 C M
;
_chemical_formula_sum "Si O2"
_cell_formula_units_Z 60
_cell_length_a 15.010828
_cell_length_b 15.010828
_cell_length_c 13.636830
_cell_angle_alpha 90.000000
_cell_angle_beta 90.000000
_cell_angle_gamma 120.000000
_cell_volume 2661.051965
_symmetry_space_group_name_H-M "P 63 C M"
_symmetry_group_IT_number 185
_symmetry_cell_setting 'hexagonal'
loop_
_space_group_symop_operation_xyz
x,y,z
x-y,x,1/2+z
-y,x-y,z
-x,-y,1/2+z
-x+y,-x,z
y,-x+y,1/2+z
-x+y,y,1/2+z
x,x-y,1/2+z
-y,-x,1/2+z
y,x,z
x-y,-y,z
-x,-x+y,z
loop_
_atom_site_type_symbol
_atom_site_label
_atom_site_fract_x
_atom_site_fract_y
_atom_site_fract_z
Si Si1 0.887488 0.774412 0.847520
Si Si2 0.408281 0.527824 0.944963
Si Si3 0.885459 0.113692 0.616379
Si Si4 0.260023 0.802710 0.853407
Si Si5 0.120114 0.426940 0.638810
O O1 0.851937 0.851937 0.889148
O O2 0.892158 0.780015 0.732048
O O3 0.807009 0.661296 0.883566
O O4 0.000000 0.807879 0.891152
O O5 0.448973 0.448973 0.921815
O O6 0.318938 0.508895 0.869021
O O7 0.497241 0.644231 0.927837
O O8 0.369938 0.514914 0.058094
O O9 0.848391 0.195522 0.590581
O O10 0.000000 0.152713 0.574489
O O11 0.806843 0.000000 0.573289
O O12 0.295588 0.819233 0.739577
O O13 0.000000 0.364522 0.667296
#
# Coordination Sequence:
#
# PCOD8326698 Si02
#       5
#    12  12  12  12  12
#     4   9  16  29  54  88 124 160 199 246 304 371
#     4  11  24  42  65  94 128 168 215 267 321 376
#     4   8  13  24  46  78 117 161 205 250 303 363
#     4  11  22  40  64  91 123 167 216 263 317 375
#     4   9  20  39  61  89 128 166 208 266 319 373
#
# _framework density 22.547474000000001
#
# number of rings (size 3 to 8) (size 9 to 14) (size 15 to 20)
#    0.000    2.400    0.000    4.400    0.000    4.000 
#    0.000    3.000    0.000    0.000    0.000    2.800 
#    0.000    0.000    0.000    0.000    0.000    2.200 
#
# Total GULP energy -743756.397157 kJ/mol
# GULP energy per Si atom -12395.939953 kJ/mol
# Density = 2.249615 g / cm^3
# Si number density = 22.547474 Si / 1000 Ang^3
#
#
#
# Elastic Constant Matrix: (Units=GPa)
#
#
# Indices 1 2 3 4 5 6 
#
# 1 96.8606 112.4984 54.1690 0.0000 0.0000 0.0000
# 2 112.4984 96.8606 54.1690 0.0000 0.0000 0.0000
# 3 54.1690 54.1690 127.8820 0.0000 0.0000 0.0000
# 4 0.0000 0.0000 0.0000 -45.1109 0.0000 0.0000
# 5 0.0000 0.0000 0.0000 0.0000 -45.1109 0.0000
# 6 0.0000 0.0000 0.0000 0.0000 0.0000 -7.8189
#
#
#
# Elastic Compliance Matrix: (Units=1/GPa)
#
#
# Indices 1 2 3 4 5 6 
#
# 1 -0.028915 0.035032 -0.002591 0.000000 0.000000 0.000000
# 2 0.035032 -0.028915 -0.002591 0.000000 0.000000 0.000000
# 3 -0.002591 -0.002591 0.010015 0.000000 0.000000 0.000000
# 4 0.000000 0.000000 0.000000 -0.022168 0.000000 0.000000
# 5 0.000000 0.000000 0.000000 0.000000 -0.022168 0.000000
# 6 0.000000 0.000000 0.000000 0.000000 0.000000 -0.127895
#
#
# Mechanical properties :
#
#
# Convention : Reuss Voigt Hill
#
# Bulk Modulus (GPa) = 84.14146 84.80847 84.47496
# Shear Modulus (GPa) = -18.13012 -12.89034 -15.51023
#
# Velocity S-wave (km/s) = -2.83872 -2.39361 -2.62562
# Velocity P-wave (km/s) = 5.16276 5.48231 5.32493
#
# Compressibility (1/GPa) = 0.01188475
#
# Stress axis : x y z
#
# Youngs Moduli (GPa) = -34.58400 -34.58400 99.85096
#
# Poissons Ratio (x) = 1.21156 0.25874
# Poissons Ratio (y) = 1.21156 0.25874
# Poissons Ratio (z) = -0.08962 -0.08962
#
# Static dielectric constant tensor:
#      x y z
#    x 4.387990 0.000000 0.000000 
#    y 0.000000 4.387990 0.000000 
#    z 0.000000 0.000000 3.912690 
# 
# 
# High freq. dielectric constant tensor:
#      x y z
#    x 1.884550 0.000000 0.000000 
#    y 0.000000 1.884550 0.000000 
#    z 0.000000 0.000000 1.892560 
# 
# From -- ./inp_files/1345.got.cif
#   From: 2010.03.12/outbox.cif.g09.slc.cpg/sg185_cif.got.tgz:1345.got - 2010.04.01 11:55:19.
