data_PCOD8326208
_publ_section_title
;
Structure prediction by ZEFSAII (Michael W. Deem and Ramdas Pophale) SiO2 
 PCOD8326208
Probable space group: P 62 2 2
;
_chemical_formula_sum "Si O2"
_cell_formula_units_Z 84
_cell_length_a 20.386641
_cell_length_b 20.386641
_cell_length_c 10.897842
_cell_angle_alpha 90.000000
_cell_angle_beta 90.000000
_cell_angle_gamma 120.000000
_cell_volume 3922.495818
_symmetry_space_group_name_H-M "P 62 2 2"
_symmetry_group_IT_number 180
_symmetry_cell_setting 'hexagonal'
loop_
_space_group_symop_operation_xyz
x,y,z
x-y,x,1/3+z
-y,x-y,2/3+z
-x,-y,z
-x+y,-x,1/3+z
y,-x+y,2/3+z
x-y,-y,-z
-x,-x+y,1/3-z
y,x,2/3-z
-y,-x,2/3-z
-x+y,y,-z
x,x-y,1/3-z
loop_
_atom_site_type_symbol
_atom_site_label
_atom_site_fract_x
_atom_site_fract_y
_atom_site_fract_z
Si Si1 0.316346 0.100069 0.897687
Si Si2 0.936096 0.208349 0.832282
Si Si3 0.884891 0.499266 0.259358
Si Si4 0.334263 0.475037 0.259843
Si Si5 0.573339 0.297577 0.025133
Si Si6 0.493389 0.924541 0.152511
Si Si7 0.257550 0.336369 0.764536
O O1 0.395152 0.105761 0.853040
O O2 0.313843 0.174058 0.852336
O O3 0.240559 0.026456 0.847195
O O4 0.324246 0.095558 0.044951
O O5 0.884865 0.115136 0.833334
O O6 0.926015 0.249200 0.951215
O O7 0.912006 0.456003 0.166667
O O8 0.803410 0.436847 0.313078
O O9 0.939422 0.528270 0.378162
O O10 0.892532 0.575850 0.201886
O O11 0.280141 0.509826 0.278304
O O12 0.361428 0.463076 0.393515
O O13 0.403178 0.538518 0.179795
O O14 0.552869 0.276435 0.166667
O O15 0.658651 0.317302 0.000000
O O16 0.500000 0.000000 0.098313
O O17 0.282430 0.282430 0.833334
#
# Coordination Sequence:
#
# PCOD8326208 Si02
#       7
#    12  12  12  12  12  12  12
#     4  10  21  39  69  95 125 159 208 274 319 384
#     4   9  21  39  67  99 124 159 205 261 325 385
#     4  12  27  42  57  85 127 176 216 261 330 398
#     4  11  20  38  61  94 113 152 214 275 327 364
#     4  12  22  42  66  85 117 160 222 281 330 377
#     4  11  25  38  59  88 123 160 206 274 329 381
#     4  11  25  42  62  91 131 177 214 255 322 401
#
# _framework density 21.414937999999999
#
# number of rings (size 3 to 8) (size 9 to 14) (size 15 to 20)
#    0.000    1.143    4.286    2.143    8.000    0.571 
#    0.000    0.000    0.000    0.429    0.000    4.000 
#    0.000    0.000    0.000    0.000    0.000    0.000 
#
# Total GULP energy -1040842.615505 kJ/mol
# GULP energy per Si atom -12390.983518 kJ/mol
# Density = 2.136620 g / cm^3
# Si number density = 21.414938 Si / 1000 Ang^3
#
#
#
# Elastic Constant Matrix: (Units=GPa)
#
#
# Indices 1 2 3 4 5 6 
#
# 1 117.7841 60.0166 17.4545 0.0000 0.0000 0.0000
# 2 60.0166 117.7841 17.4545 0.0000 0.0000 0.0000
# 3 17.4545 17.4545 52.5659 0.0000 0.0000 0.0000
# 4 0.0000 0.0000 0.0000 9.4778 0.0000 0.0000
# 5 0.0000 0.0000 0.0000 0.0000 9.4778 0.0000
# 6 0.0000 0.0000 0.0000 0.0000 0.0000 28.8838
#
#
#
# Elastic Compliance Matrix: (Units=1/GPa)
#
#
# Indices 1 2 3 4 5 6 
#
# 1 0.011664 -0.005647 -0.001998 0.000000 0.000000 0.000000
# 2 -0.005647 0.011664 -0.001998 0.000000 0.000000 0.000000
# 3 -0.001998 -0.001998 0.020350 0.000000 0.000000 0.000000
# 4 0.000000 0.000000 0.000000 0.105509 0.000000 0.000000
# 5 0.000000 0.000000 0.000000 0.000000 0.105509 0.000000
# 6 0.000000 0.000000 0.000000 0.000000 0.000000 0.034622
#
#
# Mechanical properties :
#
#
# Convention : Reuss Voigt Hill
#
# Bulk Modulus (GPa) = 40.99644 53.10949 47.05296
# Shear Modulus (GPa) = 15.78612 22.44845 19.11728
#
# Velocity S-wave (km/s) = 2.71800 3.24120 2.99106
# Velocity P-wave (km/s) = 5.38846 6.23388 5.82652
#
# Compressibility (1/GPa) = 0.02439236
#
# Stress axis : x y z
#
# Youngs Moduli (GPa) = 85.73651 85.73651 49.13888
#
# Poissons Ratio (x) = 0.48416 0.09817
# Poissons Ratio (y) = 0.48416 0.09817
# Poissons Ratio (z) = 0.17128 0.17128
#
# Static dielectric constant tensor:
#      x y z
#    x 3.897990 0.000000 0.000000 
#    y 0.000000 3.897990 0.000000 
#    z 0.000000 0.000000 3.727310 
# 
# 
# High freq. dielectric constant tensor:
#      x y z
#    x 1.833080 0.000000 0.000000 
#    y 0.000000 1.833080 0.000000 
#    z 0.000000 0.000000 1.825820 
# 
# From -- ./inp_files/5040.got.cif
#   From: 2010.03.12/outbox.cif.g09.slc.cpg/sg180_3_cif.got.tgz:5040.got - 2010.04.01 11:35:50.
