data_PCOD8326272
_publ_section_title
;
Structure prediction by ZEFSAII (Michael W. Deem and Ramdas Pophale) SiO2 
 PCOD8326272
Probable space group: P 62 2 2
;
_chemical_formula_sum "Si O2"
_cell_formula_units_Z 45
_cell_length_a 12.415887
_cell_length_b 12.415887
_cell_length_c 16.128302
_cell_angle_alpha 90.000000
_cell_angle_beta 90.000000
_cell_angle_gamma 120.000000
_cell_volume 2153.152455
_symmetry_space_group_name_H-M "P 62 2 2"
_symmetry_group_IT_number 180
_symmetry_cell_setting 'hexagonal'
loop_
_space_group_symop_operation_xyz
x,y,z
x-y,x,1/3+z
-y,x-y,2/3+z
-x,-y,z
-x+y,-x,1/3+z
y,-x+y,2/3+z
x-y,-y,-z
-x,-x+y,1/3-z
y,x,2/3-z
-y,-x,2/3-z
-x+y,y,-z
x,x-y,1/3-z
loop_
_atom_site_type_symbol
_atom_site_label
_atom_site_fract_x
_atom_site_fract_y
_atom_site_fract_z
Si Si1 0.625296 0.770395 0.823882
Si Si2 0.732390 0.464780 0.000000
Si Si3 0.760600 0.797776 0.100405
Si Si4 0.529633 0.891796 0.349667
Si Si5 0.000000 0.000000 0.666667
O O1 0.717608 0.717608 0.833334
O O2 0.548346 0.724842 0.739484
O O3 0.535492 0.719012 0.903314
O O4 0.709742 0.917947 0.822208
O O5 0.788509 0.379860 0.965927
O O6 0.703932 0.851966 0.166667
O O7 0.656187 0.712049 0.034832
O O8 0.881169 0.909876 0.056056
O O9 0.500000 0.000000 0.375002
#
# Coordination Sequence:
#
# PCOD8326272 Si02
#       5
#    12   6  12  12   3
#     4  12  22  40  70 100 137 184 242 300 362 432
#     4  12  25  42  66 104 138 187 240 308 356 436
#     4  12  25  43  72 104 150 189 239 308 374 437
#     4  12  25  45  67 103 144 188 244 302 364 443
#     4  12  24  48  72 112 148 186 254 300 368 426
#
# _framework density 20.899587
#
# number of rings (size 3 to 8) (size 9 to 14) (size 15 to 20)
#    0.000    0.000    5.333    6.800    0.000    2.133 
#    0.000    0.000    0.000    1.600    0.000    0.000 
#    0.000    0.000    0.000    0.000    0.000    0.000 
#
# Total GULP energy -557768.703296 kJ/mol
# GULP energy per Si atom -12394.860073 kJ/mol
# Density = 2.085202 g / cm^3
# Si number density = 20.899587 Si / 1000 Ang^3
#
#
#
# Elastic Constant Matrix: (Units=GPa)
#
#
# Indices 1 2 3 4 5 6 
#
# 1 125.7571 74.9782 60.3585 0.0000 0.0000 0.0000
# 2 74.9782 125.7571 60.3585 0.0000 0.0000 0.0000
# 3 60.3585 60.3585 132.9069 0.0000 0.0000 0.0000
# 4 0.0000 0.0000 0.0000 20.8455 0.0000 0.0000
# 5 0.0000 0.0000 0.0000 0.0000 20.8455 0.0000
# 6 0.0000 0.0000 0.0000 0.0000 0.0000 25.3894
#
#
#
# Elastic Compliance Matrix: (Units=1/GPa)
#
#
# Indices 1 2 3 4 5 6 
#
# 1 0.013273 -0.006420 -0.003112 0.000000 0.000000 0.000000
# 2 -0.006420 0.013273 -0.003112 0.000000 0.000000 0.000000
# 3 -0.003112 -0.003112 0.010351 0.000000 0.000000 0.000000
# 4 0.000000 0.000000 0.000000 0.047972 0.000000 0.000000
# 5 0.000000 0.000000 0.000000 0.000000 0.047972 0.000000
# 6 0.000000 0.000000 0.000000 0.000000 0.000000 0.039386
#
#
# Mechanical properties :
#
#
# Convention : Reuss Voigt Hill
#
# Bulk Modulus (GPa) = 86.14622 86.20130 86.17376
# Shear Modulus (GPa) = 24.82780 25.99779 25.41280
#
# Velocity S-wave (km/s) = 3.45041 3.53078 3.49083
# Velocity P-wave (km/s) = 7.56190 7.61294 7.58746
#
# Compressibility (1/GPa) = 0.01160817
#
# Stress axis : x y z
#
# Youngs Moduli (GPa) = 75.33911 75.33911 96.60882
#
# Poissons Ratio (x) = 0.48367 0.30069
# Poissons Ratio (y) = 0.48367 0.30069
# Poissons Ratio (z) = 0.23449 0.23449
#
# Static dielectric constant tensor:
#      x y z
#    x 4.119610 0.000000 0.000000 
#    y 0.000000 4.119610 0.000000 
#    z 0.000000 0.000000 4.157040 
# 
# 
# High freq. dielectric constant tensor:
#      x y z
#    x 1.827700 0.000000 0.000000 
#    y 0.000000 1.827700 0.000000 
#    z 0.000000 0.000000 1.812050 
# 
# From -- ./inp_files/7410.got.cif
#   From: 2010.03.12/outbox.cif.g09.slc.cpg/sg180_4_cif.got.tgz:7410.got - 2010.04.01 11:35:50.
