data_PCOD8326086
_publ_section_title
;
Structure prediction by ZEFSAII (Michael W. Deem and Ramdas Pophale) SiO2 
 PCOD8326086
Probable space group: P 65 2 2
;
_chemical_formula_sum "Si O2"
_cell_formula_units_Z 84
_cell_length_a 14.481283
_cell_length_b 14.481283
_cell_length_c 23.119154
_cell_angle_alpha 90.000000
_cell_angle_beta 90.000000
_cell_angle_gamma 120.000000
_cell_volume 4198.717461
_symmetry_space_group_name_H-M "P 65 2 2"
_symmetry_group_IT_number 179
_symmetry_cell_setting 'hexagonal'
loop_
_space_group_symop_operation_xyz
x,y,z
x-y,x,5/6+z
-y,x-y,2/3+z
-x,-y,1/2+z
-x+y,-x,1/3+z
y,-x+y,1/6+z
x-y,-y,-z
-x,-x+y,1/3-z
y,x,2/3-z
-y,-x,1/6-z
-x+y,y,1/2-z
x,x-y,5/6-z
loop_
_atom_site_type_symbol
_atom_site_label
_atom_site_fract_x
_atom_site_fract_y
_atom_site_fract_z
Si Si1 0.948711 0.525212 0.503480
Si Si2 0.723538 0.252568 0.756680
Si Si3 0.151262 0.471743 0.396256
Si Si4 0.802537 0.496520 0.197313
Si Si5 0.894878 0.544050 0.631463
Si Si6 0.402559 0.066873 0.151546
Si Si7 0.770727 0.039841 0.562657
O O1 0.857320 0.504313 0.457155
O O2 0.920003 0.555311 0.563995
O O3 0.058269 0.623997 0.483265
O O4 0.967270 0.423902 0.511163
O O5 0.657372 0.314744 0.750000
O O6 0.749009 0.229659 0.691508
O O7 0.830569 0.333635 0.789578
O O8 0.190062 0.595031 0.416667
O O9 0.236878 0.449877 0.363703
O O10 0.103377 0.391420 0.451041
O O11 0.717674 0.435347 0.250000
O O12 0.862683 0.434550 0.176843
O O13 0.890920 0.605196 0.224370
O O14 0.000000 0.632923 0.666667
O O15 0.300126 0.045357 0.112305
O O16 0.892401 0.107600 0.583334
O O17 0.780183 0.000000 0.500000
#
# Coordination Sequence:
#
# PCOD8326086 Si02
#       7
#    12  12  12  12  12  12  12
#     4  11  24  41  60  90 129 174 219 269 317 403
#     4  12  24  37  63  91 130 177 216 255 327 388
#     4  10  24  40  60  88 128 172 223 264 317 396
#     4  11  23  35  59  90 131 168 215 261 318 386
#     4  12  23  41  61  88 131 173 221 273 317 380
#     4  11  22  41  58  89 130 167 218 259 319 393
#     4  11  23  38  61  91 125 161 208 270 334 388
#
# _framework density 20.006108999999999
#
# number of rings (size 3 to 8) (size 9 to 14) (size 15 to 20)
#    0.000    0.857    4.286    3.857   10.000    0.571 
#    0.000    0.000    0.000    0.000    0.000    4.000 
#    0.000    0.000    0.000    0.000    0.000    0.000 
#
# Total GULP energy -1040793.920109 kJ/mol
# GULP energy per Si atom -12390.403811 kJ/mol
# Density = 1.996057 g / cm^3
# Si number density = 20.006109 Si / 1000 Ang^3
#
#
#
# Elastic Constant Matrix: (Units=GPa)
#
#
# Indices 1 2 3 4 5 6 
#
# 1 78.4027 34.0143 39.9190 0.0000 0.0000 0.0000
# 2 34.0143 78.4027 39.9190 0.0000 0.0000 0.0000
# 3 39.9190 39.9190 123.8826 0.0000 0.0000 0.0000
# 4 0.0000 0.0000 0.0000 27.7841 0.0000 0.0000
# 5 0.0000 0.0000 0.0000 0.0000 27.7841 0.0000
# 6 0.0000 0.0000 0.0000 0.0000 0.0000 22.1942
#
#
#
# Elastic Compliance Matrix: (Units=1/GPa)
#
#
# Indices 1 2 3 4 5 6 
#
# 1 0.017032 -0.005497 -0.003717 0.000000 0.000000 0.000000
# 2 -0.005497 0.017032 -0.003717 0.000000 0.000000 0.000000
# 3 -0.003717 -0.003717 0.010468 0.000000 0.000000 0.000000
# 4 0.000000 0.000000 0.000000 0.035992 0.000000 0.000000
# 5 0.000000 0.000000 0.000000 0.000000 0.035992 0.000000
# 6 0.000000 0.000000 0.000000 0.000000 0.000000 0.045057
#
#
# Mechanical properties :
#
#
# Convention : Reuss Voigt Hill
#
# Bulk Modulus (GPa) = 53.56171 56.48805 55.02488
# Shear Modulus (GPa) = 25.81891 26.67486 26.24689
#
# Velocity S-wave (km/s) = 3.59632 3.65545 3.62601
# Velocity P-wave (km/s) = 6.63894 6.79066 6.71523
#
# Compressibility (1/GPa) = 0.01867005
#
# Stress axis : x y z
#
# Youngs Moduli (GPa) = 58.71352 58.71352 95.53241
#
# Poissons Ratio (x) = 0.32272 0.35510
# Poissons Ratio (y) = 0.32272 0.35510
# Poissons Ratio (z) = 0.21824 0.21824
#
# Static dielectric constant tensor:
#      x y z
#    x 3.720540 0.000000 0.000000 
#    y 0.000000 3.720540 0.000000 
#    z 0.000000 0.000000 5.234580 
# 
# 
# High freq. dielectric constant tensor:
#      x y z
#    x 1.752860 0.000000 0.000000 
#    y 0.000000 1.752860 0.000000 
#    z 0.000000 0.000000 1.806680 
# 
# From -- ./inp_files/8369.got.cif
#   From: 2010.03.12/outbox.cif.g09.slc.cpg/sg179_5_cif.got.tgz:8369.got - 2010.04.02 07:08:42.
