data_PCOD8326754
_publ_section_title
;
Structure prediction by ZEFSAII (Michael W. Deem and Ramdas Pophale) SiO2 
 PCOD8326754
Probable space group: P 63 M C
;
_chemical_formula_sum "Si O2"
_cell_formula_units_Z 84
_cell_length_a 17.551833
_cell_length_b 17.551833
_cell_length_c 17.296390
_cell_angle_alpha 90.000000
_cell_angle_beta 90.000000
_cell_angle_gamma 120.000000
_cell_volume 4614.568074
_symmetry_space_group_name_H-M "P 63 M C"
_symmetry_group_IT_number 186
_symmetry_cell_setting 'hexagonal'
loop_
_space_group_symop_operation_xyz
x,y,z
x-y,x,1/2+z
-y,x-y,z
-x,-y,1/2+z
-x+y,-x,z
y,-x+y,1/2+z
-x+y,y,z
x,x-y,z
-y,-x,z
y,x,1/2+z
x-y,-y,1/2+z
-x,-x+y,1/2+z
loop_
_atom_site_type_symbol
_atom_site_label
_atom_site_fract_x
_atom_site_fract_y
_atom_site_fract_z
Si Si1 0.647661 0.910095 0.629250
Si Si2 0.365238 0.096351 0.394975
Si Si3 0.331689 0.490258 0.324741
Si Si4 0.159814 0.668156 0.039280
Si Si5 0.097345 0.369550 0.181693
Si Si6 0.157917 0.489526 0.755201
Si Si7 0.737096 0.090373 0.949893
O O1 0.682941 0.841471 0.640876
O O2 0.553010 0.872441 0.670455
O O3 0.633945 0.922925 0.539607
O O4 0.718559 0.002113 0.668363
O O5 0.329775 0.164888 0.388439
O O6 0.430497 0.118877 0.465923
O O7 0.416291 0.097239 0.317723
O O8 0.281580 0.000260 0.409771
O O9 0.261756 0.523512 0.312457
O O10 0.428845 0.571156 0.313862
O O11 0.313300 0.414186 0.263346
O O12 0.321542 0.448341 0.409582
O O13 0.142993 0.571497 0.029200
O O14 0.263649 0.736351 0.045202
O O15 0.111935 0.671818 0.116406
O O16 0.169142 0.338283 0.176092
O O17 0.260108 0.520215 0.770218
O O18 0.144069 0.572035 0.763070
O O19 0.840389 0.159612 0.937704
#
# Coordination Sequence:
#
# PCOD8326754 Si02
#       7
#    12  12  12  12  12  12  12
#     4  10  21  37  54  75 104 139 177 219 266 312
#     4  10  20  35  55  78 103 135 174 216 268 319
#     4  10  21  36  54  77 107 142 179 217 259 308
#     4  10  19  30  47  74 106 138 168 204 253 306
#     4  10  20  35  55  78 103 135 174 216 268 319
#     4  10  21  36  54  77 107 142 179 217 259 308
#     4  10  21  37  54  75 104 139 177 219 266 312
#
# _framework density 18.203220999999999
#
# number of rings (size 3 to 8) (size 9 to 14) (size 15 to 20)
#    0.000    2.000    1.429    2.143    0.000    4.000 
#    0.000    2.857    0.000    2.286    0.000    0.000 
#    0.000    6.857    0.000    0.000    0.000    0.000 
#
# Total GULP energy -1041695.233584 kJ/mol
# GULP energy per Si atom -12401.133733 kJ/mol
# Density = 1.816179 g / cm^3
# Si number density = 18.203221 Si / 1000 Ang^3
#
#
#
# Elastic Constant Matrix: (Units=GPa)
#
#
# Indices 1 2 3 4 5 6 
#
# 1 97.5412 67.2043 44.1585 0.0000 0.0000 0.0000
# 2 67.2043 97.5412 44.1585 0.0000 0.0000 0.0000
# 3 44.1585 44.1585 100.9109 0.0000 0.0000 0.0000
# 4 0.0000 0.0000 0.0000 21.1975 0.0000 0.0000
# 5 0.0000 0.0000 0.0000 0.0000 21.1975 0.0000
# 6 0.0000 0.0000 0.0000 0.0000 0.0000 15.1684
#
#
#
# Elastic Compliance Matrix: (Units=1/GPa)
#
#
# Indices 1 2 3 4 5 6 
#
# 1 0.020447 -0.012516 -0.003470 0.000000 0.000000 0.000000
# 2 -0.012516 0.020447 -0.003470 0.000000 0.000000 0.000000
# 3 -0.003470 -0.003470 0.012947 0.000000 0.000000 0.000000
# 4 0.000000 0.000000 0.000000 0.047175 0.000000 0.000000
# 5 0.000000 0.000000 0.000000 0.000000 0.047175 0.000000
# 6 0.000000 0.000000 0.000000 0.000000 0.000000 0.065926
#
#
# Mechanical properties :
#
#
# Convention : Reuss Voigt Hill
#
# Bulk Modulus (GPa) = 66.99548 67.44845 67.22197
# Shear Modulus (GPa) = 19.37928 20.87745 20.12837
#
# Velocity S-wave (km/s) = 3.26637 3.39028 3.32890
# Velocity P-wave (km/s) = 7.14910 7.24284 7.19613
#
# Compressibility (1/GPa) = 0.01492638
#
# Stress axis : x y z
#
# Youngs Moduli (GPa) = 48.90744 48.90744 77.23827
#
# Poissons Ratio (x) = 0.61215 0.26804
# Poissons Ratio (y) = 0.61215 0.26804
# Poissons Ratio (z) = 0.16972 0.16972
#
# Static dielectric constant tensor:
#      x y z
#    x 3.298460 0.000000 0.000000 
#    y 0.000000 3.298460 0.000000 
#    z 0.000000 0.000000 3.653850 
# 
# 
# High freq. dielectric constant tensor:
#      x y z
#    x 1.691500 0.000000 0.000000 
#    y 0.000000 1.691500 0.000000 
#    z 0.000000 0.000000 1.726970 
# 
# From -- ./inp_files/2571.got.cif
#   From: 2010.03.12/outbox.cif.g09.slc.cpg/sg186_2_cif.got.tgz:2571.got - 2010.04.01 11:56:34.
