data_PCOD8326922
_publ_section_title
;
Structure prediction by ZEFSAII (Michael W. Deem and Ramdas Pophale) SiO2 
 PCOD8326922
Probable space group: P -6 M 2
;
_chemical_formula_sum "Si O2"
_cell_formula_units_Z 78
_cell_length_a 17.693776
_cell_length_b 17.693776
_cell_length_c 17.457591
_cell_angle_alpha 90.000000
_cell_angle_beta 90.000000
_cell_angle_gamma 120.000000
_cell_volume 4733.212426
_symmetry_space_group_name_H-M "P -6 M 2"
_symmetry_group_IT_number 187
_symmetry_cell_setting 'hexagonal'
loop_
_space_group_symop_operation_xyz
x,y,z
-x+y,-x,-z
-y,x-y,z
x,y,-z
-x+y,-x,z
-y,x-y,-z
-y,-x,-z
-x+y,y,-z
x,x-y,-z
-x+y,y,z
x,x-y,z
-y,-x,z
loop_
_atom_site_type_symbol
_atom_site_label
_atom_site_fract_x
_atom_site_fract_y
_atom_site_fract_z
Si Si1 0.491599 0.158068 0.825022
Si Si2 0.177270 0.999281 0.500000
Si Si3 0.405561 0.425389 0.412366
Si Si4 0.000248 0.820882 0.205064
Si Si5 0.497961 0.333283 0.649562
Si Si6 0.709861 0.942579 0.647232
Si Si7 0.749172 0.071676 0.914312
O O1 0.576140 0.152279 0.848536
O O2 0.511455 0.255728 0.842639
O O3 0.465928 0.134580 0.736344
O O4 0.410401 0.085526 0.874003
O O5 0.077312 0.922689 0.500000
O O6 0.227734 0.994413 0.425983
O O7 0.178238 0.089119 0.500000
O O8 0.379105 0.428242 0.500000
O O9 0.476611 0.523390 0.384230
O O10 0.448055 0.363756 0.407532
O O11 0.320753 0.384383 0.357955
O O12 0.915412 0.830824 0.212906
O O13 0.996288 0.764141 0.131566
O O14 0.005317 0.769315 0.278730
O O15 0.083481 0.916520 0.197414
O O16 0.476772 0.238386 0.622250
O O17 0.601818 0.398183 0.645870
O O18 0.688284 0.844142 0.649191
O O19 0.836376 0.163625 0.916104
O O20 0.718688 0.034843 0.000000
#
# Coordination Sequence:
#
# PCOD8326922 Si02
#       7
#    12   6  12  12  12  12  12
#     4   9  16  27  44  65  91 124 161 199 239 284
#     4  10  19  30  45  68  98 130 160 192 233 282
#     4  10  20  33  47  66  91 122 160 197 233 278
#     4  10  20  34  52  72  95 124 160 199 239 287
#     4   9  17  28  42  61  87 120 158 196 232 270
#     4  10  20  34  51  71  95 123 154 192 242 286
#     4   9  18  31  45  64  92 123 156 198 244 285
#
# _framework density 16.479295
#
# number of rings (size 3 to 8) (size 9 to 14) (size 15 to 20)
#    0.000    2.462    0.769    1.923    0.000    4.615 
#    0.000    1.538    0.000    3.077    0.000    0.000 
#    0.000    0.000    0.000    0.462    0.000    2.462 
#
# Total GULP energy -967097.717114 kJ/mol
# GULP energy per Si atom -12398.688681 kJ/mol
# Density = 1.644179 g / cm^3
# Si number density = 16.479295 Si / 1000 Ang^3
#
#
#
# Elastic Constant Matrix: (Units=GPa)
#
#
# Indices 1 2 3 4 5 6 
#
# 1 76.4104 38.5304 26.6240 0.0000 0.0001 0.0000
# 2 38.5304 76.4104 26.6240 0.0000 -0.0001 0.0000
# 3 26.6240 26.6240 65.6310 0.0000 0.0000 0.0000
# 4 0.0000 0.0000 0.0000 19.2948 0.0000 -0.0001
# 5 0.0001 -0.0001 0.0000 0.0000 19.2948 0.0000
# 6 0.0000 0.0000 0.0000 -0.0001 0.0000 18.9400
#
#
#
# Elastic Compliance Matrix: (Units=1/GPa)
#
#
# Indices 1 2 3 4 5 6 
#
# 1 0.018556 -0.007843 -0.004346 0.000000 0.000000 0.000000
# 2 -0.007843 0.018556 -0.004346 0.000000 0.000000 0.000000
# 3 -0.004346 -0.004346 0.018763 0.000000 0.000000 0.000000
# 4 0.000000 0.000000 0.000000 0.051827 0.000000 0.000000
# 5 0.000000 0.000000 0.000000 0.000000 0.051827 0.000000
# 6 0.000000 0.000000 0.000000 0.000000 0.000000 0.052798
#
#
# Mechanical properties :
#
#
# Convention : Reuss Voigt Hill
#
# Bulk Modulus (GPa) = 43.84901 44.66761 44.25831
# Shear Modulus (GPa) = 19.76284 19.95084 19.85684
#
# Velocity S-wave (km/s) = 3.46678 3.48323 3.47501
# Velocity P-wave (km/s) = 6.53384 6.58341 6.55867
#
# Compressibility (1/GPa) = 0.02280553
#
# Stress axis : x y z
#
# Youngs Moduli (GPa) = 53.88999 53.88999 53.29708
#
# Poissons Ratio (x) = 0.42265 0.23163
# Poissons Ratio (y) = 0.42265 0.23163
# Poissons Ratio (z) = 0.23421 0.23421
#
# Static dielectric constant tensor:
#      x y z
#    x 3.014300 0.000000 0.000000 
#    y 0.000000 3.014300 0.000000 
#    z 0.000000 0.000000 3.220920 
# 
# 
# High freq. dielectric constant tensor:
#      x y z
#    x 1.619690 0.000000 0.000000 
#    y 0.000000 1.619690 0.000000 
#    z 0.000000 0.000000 1.631820 
# 
# From -- ./inp_files/3157.got.cif
#   From: 2010.03.12/outbox.cif.g09.slc.cpg/sg187_2_cif.got.tgz:3157.got - 2010.04.01 11:58:23.
