data_PCOD8326829
_publ_section_title
;
Structure prediction by ZEFSAII (Michael W. Deem and Ramdas Pophale) SiO2 
 PCOD8326829
Probable space group: P -6 M 2
;
_chemical_formula_sum "Si O2"
_cell_formula_units_Z 66
_cell_length_a 16.464828
_cell_length_b 16.464828
_cell_length_c 21.458386
_cell_angle_alpha 90.000000
_cell_angle_beta 90.000000
_cell_angle_gamma 120.000000
_cell_volume 5037.813448
_symmetry_space_group_name_H-M "P -6 M 2"
_symmetry_group_IT_number 187
_symmetry_cell_setting 'hexagonal'
loop_
_space_group_symop_operation_xyz
x,y,z
-x+y,-x,-z
-y,x-y,z
x,y,-z
-x+y,-x,z
-y,x-y,-z
-y,-x,-z
-x+y,y,-z
x,x-y,-z
-x+y,y,z
x,x-y,z
-y,-x,z
loop_
_atom_site_type_symbol
_atom_site_label
_atom_site_fract_x
_atom_site_fract_y
_atom_site_fract_z
Si Si1 0.526938 0.667459 0.500000
Si Si2 0.145392 0.668790 0.749099
Si Si3 0.475703 0.331743 0.312668
Si Si4 0.666762 0.143248 0.930872
Si Si5 0.573554 0.955308 0.625193
Si Si6 0.616367 0.040690 0.189191
O O1 0.424460 0.575541 0.500000
O O2 0.512087 0.756044 0.500000
O O3 0.588557 0.671072 0.440361
O O4 0.161486 0.580743 0.753132
O O5 0.239862 0.760139 0.769370
O O6 0.064120 0.659051 0.796088
O O7 0.115955 0.680878 0.679506
O O8 0.476387 0.238194 0.331883
O O9 0.580956 0.419045 0.316802
O O10 0.405970 0.344408 0.360131
O O11 0.434330 0.320551 0.242812
O O12 0.579831 0.159662 0.921525
O O13 0.757619 0.242382 0.920894
O O14 0.665454 0.072147 0.878486
O O15 0.665188 0.102540 0.000000
O O16 0.478731 0.957462 0.623360
O O17 0.518350 0.036699 0.189506
#
# Coordination Sequence:
#
# PCOD8326829 Si02
#       6
#     6  12  12  12  12  12
#     4  10  17  26  39  54  72  94 118 142 175 220
#     4   9  15  24  37  52  69  91 120 149 177 210
#     4   9  15  24  37  52  71  98 129 152 169 195
#     4   9  15  22  33  50  72  97 122 145 170 204
#     4   8  16  26  35  51  74  94 113 145 184 211
#     4   8  15  24  33  49  72  94 117 148 183 209
#
# _framework density 13.100922000000001
#
# number of rings (size 3 to 8) (size 9 to 14) (size 15 to 20)
#    0.000    3.273    0.000    3.909    0.000    0.727 
#    0.000    4.091    0.000    0.545    0.000    1.273 
#    0.000    1.455    0.000  116.182    0.000    6.364 
#
# Total GULP energy -817838.016547 kJ/mol
# GULP energy per Si atom -12391.485099 kJ/mol
# Density = 1.307110 g / cm^3
# Si number density = 13.100922 Si / 1000 Ang^3
#
#
#
# Elastic Constant Matrix: (Units=GPa)
#
#
# Indices 1 2 3 4 5 6 
#
# 1 64.6802 25.8071 37.6634 0.0000 0.0001 0.0000
# 2 25.8071 64.6802 37.6634 0.0000 -0.0001 0.0000
# 3 37.6634 37.6634 110.8172 0.0000 0.0000 0.0000
# 4 0.0000 0.0000 0.0000 14.9300 0.0000 -0.0001
# 5 0.0001 -0.0001 0.0000 0.0000 14.9300 0.0000
# 6 0.0000 0.0000 0.0000 -0.0001 0.0000 19.4365
#
#
#
# Elastic Compliance Matrix: (Units=1/GPa)
#
#
# Indices 1 2 3 4 5 6 
#
# 1 0.020568 -0.005157 -0.005238 0.000000 0.000000 0.000000
# 2 -0.005157 0.020568 -0.005238 0.000000 0.000000 0.000000
# 3 -0.005238 -0.005238 0.012584 0.000000 0.000000 0.000000
# 4 0.000000 0.000000 0.000000 0.066979 0.000000 0.000000
# 5 0.000000 0.000000 0.000000 0.000000 0.066979 0.000000
# 6 0.000000 0.000000 0.000000 0.000000 0.000000 0.051450
#
#
# Mechanical properties :
#
#
# Convention : Reuss Voigt Hill
#
# Bulk Modulus (GPa) = 44.53196 49.16063 46.84630
# Shear Modulus (GPa) = 17.99346 19.12889 18.56117
#
# Velocity S-wave (km/s) = 3.71003 3.82529 3.76810
# Velocity P-wave (km/s) = 7.24001 7.55755 7.40048
#
# Compressibility (1/GPa) = 0.02245578
#
# Stress axis : x y z
#
# Youngs Moduli (GPa) = 48.61875 48.61875 79.46401
#
# Poissons Ratio (x) = 0.25071 0.41623
# Poissons Ratio (y) = 0.25071 0.41623
# Poissons Ratio (z) = 0.25466 0.25466
#
# Static dielectric constant tensor:
#      x y z
#    x 2.479690 0.000000 0.000000 
#    y 0.000000 2.479690 0.000000 
#    z 0.000000 0.000000 3.102960 
# 
# 
# High freq. dielectric constant tensor:
#      x y z
#    x 1.470500 0.000000 0.000000 
#    y 0.000000 1.470500 0.000000 
#    z 0.000000 0.000000 1.502010 
# 
# From -- ./inp_files/3533.got.cif
#   From: 2010.03.12/outbox.cif.g09.slc.cpg/sg187_2_cif.got.tgz:3533.got - 2010.04.01 11:58:23.
