data_PCOD8326577
_publ_section_title
;
Structure prediction by ZEFSAII (Michael W. Deem and Ramdas Pophale) SiO2 
 PCOD8326577
Probable space group: P 6 C C
;
_chemical_formula_sum "Si O2"
_cell_formula_units_Z 84
_cell_length_a 17.053680
_cell_length_b 17.053680
_cell_length_c 15.129199
_cell_angle_alpha 90.000000
_cell_angle_beta 90.000000
_cell_angle_gamma 120.000000
_cell_volume 3810.507195
_symmetry_space_group_name_H-M "P 6 C C"
_symmetry_group_IT_number 184
_symmetry_cell_setting 'hexagonal'
loop_
_space_group_symop_operation_xyz
x,y,z
x-y,x,z
-y,x-y,z
-x,-y,z
-x+y,-x,z
y,-x+y,z
-x+y,y,1/2+z
x,x-y,1/2+z
-y,-x,1/2+z
y,x,1/2+z
x-y,-y,1/2+z
-x,-x+y,1/2+z
loop_
_atom_site_type_symbol
_atom_site_label
_atom_site_fract_x
_atom_site_fract_y
_atom_site_fract_z
Si Si1 0.764211 0.594796 0.022990
Si Si2 0.133771 0.203669 0.749836
Si Si3 0.095475 0.512990 0.294099
Si Si4 0.204991 0.115015 0.458971
Si Si5 0.298131 0.462796 0.374988
Si Si6 0.231645 0.405252 0.711919
Si Si7 0.418730 0.014752 0.963008
O O1 0.777938 0.563582 0.118052
O O2 0.839843 0.695489 0.998695
O O3 0.757717 0.522784 0.946497
O O4 0.670498 0.596260 0.034869
O O5 0.167207 0.135607 0.715661
O O6 0.130105 0.211453 0.854496
O O7 0.206423 0.300923 0.708595
O O8 0.163874 0.613564 0.333814
O O9 0.141699 0.479819 0.222752
O O10 0.072732 0.443950 0.373766
O O11 0.000000 0.500000 0.257240
O O12 0.145186 0.157436 0.493312
O O13 0.240415 0.409508 0.289545
O O14 0.327692 0.404678 0.437544
O O15 0.500000 0.000000 0.995909
#
# Coordination Sequence:
#
# PCOD8326577 Si02
#       7
#    12  12  12  12  12  12  12
#     4  12  23  40  68 105 137 178 246 290 360 437
#     4  10  22  38  67  97 143 191 238 293 350 426
#     4   9  21  45  70  92 132 181 238 290 366 425
#     4  10  20  37  60  94 138 187 235 289 345 418
#     4  10  22  44  68  93 139 181 228 295 359 434
#     4  12  25  41  69 105 140 186 243 298 365 440
#     4   9  20  43  69  95 129 182 232 285 363 428
#
# _framework density 22.044311
#
# number of rings (size 3 to 8) (size 9 to 14) (size 15 to 20)
#    0.000    2.000    2.857    1.143    6.000    3.429 
#    6.000    1.429    0.000    1.714    0.000    0.000 
#    0.000    0.000    0.000    0.000    0.000    0.000 
#
# Total GULP energy -1040703.082152 kJ/mol
# GULP energy per Si atom -12389.322407 kJ/mol
# Density = 2.199414 g / cm^3
# Si number density = 22.044311 Si / 1000 Ang^3
#
#
#
# Elastic Constant Matrix: (Units=GPa)
#
#
# Indices 1 2 3 4 5 6 
#
# 1 117.3126 57.4169 38.5911 0.0000 0.0000 0.0000
# 2 57.4169 117.3126 38.5911 0.0000 0.0000 0.0000
# 3 38.5911 38.5911 77.8837 0.0000 0.0000 0.0000
# 4 0.0000 0.0000 0.0000 19.8090 0.0000 0.0000
# 5 0.0000 0.0000 0.0000 0.0000 19.8090 0.0000
# 6 0.0000 0.0000 0.0000 0.0000 0.0000 29.9478
#
#
#
# Elastic Compliance Matrix: (Units=1/GPa)
#
#
# Indices 1 2 3 4 5 6 
#
# 1 0.012011 -0.004684 -0.003630 0.000000 0.000000 0.000000
# 2 -0.004684 0.012011 -0.003630 0.000000 0.000000 0.000000
# 3 -0.003630 -0.003630 0.016437 0.000000 0.000000 0.000000
# 4 0.000000 0.000000 0.000000 0.050482 0.000000 0.000000
# 5 0.000000 0.000000 0.000000 0.000000 0.050482 0.000000
# 6 0.000000 0.000000 0.000000 0.000000 0.000000 0.033391
#
#
# Mechanical properties :
#
#
# Convention : Reuss Voigt Hill
#
# Bulk Modulus (GPa) = 60.35248 64.63411 62.49330
# Shear Modulus (GPa) = 24.48235 25.77384 25.12809
#
# Velocity S-wave (km/s) = 3.33618 3.42304 3.37989
# Velocity P-wave (km/s) = 6.50210 6.70870 6.60621
#
# Compressibility (1/GPa) = 0.01656933
#
# Stress axis : x y z
#
# Youngs Moduli (GPa) = 83.25544 83.25544 60.83718
#
# Poissons Ratio (x) = 0.39001 0.22086
# Poissons Ratio (y) = 0.39001 0.22086
# Poissons Ratio (z) = 0.30225 0.30225
#
# Static dielectric constant tensor:
#      x y z
#    x 4.029400 0.000000 0.000000 
#    y 0.000000 4.029400 0.000000 
#    z 0.000000 0.000000 3.719790 
# 
# 
# High freq. dielectric constant tensor:
#      x y z
#    x 1.866780 0.000000 0.000000 
#    y 0.000000 1.866780 0.000000 
#    z 0.000000 0.000000 1.847820 
# 
# From -- ./inp_files/928.got.cif
#   From: 2010.03.12/outbox.cif.g09.slc.cpg/sg184_cif.got.tgz:928.got - 2010.04.01 11:54:36.
