data_PCOD8326812
_publ_section_title
;
Structure prediction by ZEFSAII (Michael W. Deem and Ramdas Pophale) SiO2 
 PCOD8326812
Probable space group: P 63 M C
;
_chemical_formula_sum "Si O2"
_cell_formula_units_Z 40
_cell_length_a 11.661775
_cell_length_b 11.661775
_cell_length_c 16.325274
_cell_angle_alpha 90.000000
_cell_angle_beta 90.000000
_cell_angle_gamma 120.000000
_cell_volume 1922.739404
_symmetry_space_group_name_H-M "P 63 M C"
_symmetry_group_IT_number 186
_symmetry_cell_setting 'hexagonal'
loop_
_space_group_symop_operation_xyz
x,y,z
x-y,x,1/2+z
-y,x-y,z
-x,-y,1/2+z
-x+y,-x,z
y,-x+y,1/2+z
-x+y,y,z
x,x-y,z
-y,-x,z
y,x,1/2+z
x-y,-y,1/2+z
-x,-x+y,1/2+z
loop_
_atom_site_type_symbol
_atom_site_label
_atom_site_fract_x
_atom_site_fract_y
_atom_site_fract_z
Si Si1 0.255712 0.000439 0.013800
Si Si2 0.666667 0.333333 0.539373
Si Si3 0.954856 0.477428 0.460320
Si Si4 0.743690 0.743876 0.707062
Si Si5 0.333334 0.666667 0.239961
Si Si6 0.514276 0.485725 0.775953
O O1 0.236756 0.118378 0.977506
O O2 0.243919 0.997576 0.110431
O O3 0.139841 0.860160 0.977703
O O4 0.401011 0.030415 0.988360
O O5 0.813427 0.406714 0.504512
O O6 0.666667 0.333334 0.639485
O O7 0.954319 0.477160 0.362621
O O8 0.756725 0.878363 0.743607
O O9 0.601118 0.622500 0.728900
O O10 0.862346 0.724691 0.743614
O O11 0.187297 0.593649 0.277729
#
# Coordination Sequence:
#
# PCOD8326812 Si02
#       6
#    12   2   6  12   2   6
#     4  10  21  40  66  94 125 167 220 272 330 408
#     4  12  24  48  78  96 127 194 250 273 330 450
#     4  12  26  40  66  96 136 168 224 286 344 391
#     4  10  21  40  66  94 125 167 220 272 330 408
#     4  12  24  48  78  96 127 194 250 273 330 450
#     4  12  26  40  66  96 136 168 224 286 344 391
#
# _framework density 20.803652
#
# number of rings (size 3 to 8) (size 9 to 14) (size 15 to 20)
#    0.000    1.200    3.000    3.300    4.200    2.400 
#    1.800    0.000    0.000    3.600    0.000    0.000 
#    0.000    0.000    0.000    0.000    0.000    0.000 
#
# Total GULP energy -495945.245590 kJ/mol
# GULP energy per Si atom -12398.631140 kJ/mol
# Density = 2.075630 g / cm^3
# Si number density = 20.803652 Si / 1000 Ang^3
#
#
#
# Elastic Constant Matrix: (Units=GPa)
#
#
# Indices 1 2 3 4 5 6 
#
# 1 147.8013 54.9232 22.3596 0.0000 0.0000 0.0001
# 2 54.9232 147.8014 22.3596 0.0000 0.0000 -0.0003
# 3 22.3596 22.3596 33.1892 0.0000 0.0000 -0.0003
# 4 0.0000 0.0000 0.0000 0.8381 0.0001 0.0000
# 5 0.0000 0.0000 0.0000 0.0001 0.8380 0.0000
# 6 0.0001 -0.0003 -0.0003 0.0000 0.0000 46.4391
#
#
#
# Elastic Compliance Matrix: (Units=1/GPa)
#
#
# Indices 1 2 3 4 5 6 
#
# 1 0.008280 -0.002486 -0.003903 0.000000 0.000000 0.000000
# 2 -0.002486 0.008280 -0.003903 0.000000 0.000000 0.000000
# 3 -0.003903 -0.003903 0.035390 0.000000 0.000000 0.000000
# 4 0.000000 0.000000 0.000000 1.193241 -0.000116 0.000000
# 5 0.000000 0.000000 0.000000 -0.000116 1.193371 0.000000
# 6 0.000000 0.000000 0.000000 0.000000 0.000000 0.021534
#
#
# Mechanical properties :
#
#
# Convention : Reuss Voigt Hill
#
# Bulk Modulus (GPa) = 31.88368 58.67519 45.27943
# Shear Modulus (GPa) = 2.00712 24.89966 13.45339
#
# Velocity S-wave (km/s) = 0.98330 3.46336 2.54576
# Velocity P-wave (km/s) = 4.08025 6.65272 5.51847
#
# Compressibility (1/GPa) = 0.03136401
#
# Stress axis : x y z
#
# Youngs Moduli (GPa) = 120.76838 120.76834 28.25691
#
# Poissons Ratio (x) = 0.30029 0.11030
# Poissons Ratio (y) = 0.30029 0.11030
# Poissons Ratio (z) = 0.47139 0.47140
#
# Static dielectric constant tensor:
#      x y z
#    x 4.953580 0.000030 0.000000 
#    y 0.000030 4.953560 0.000000 
#    z 0.000000 0.000000 3.533740 
# 
# 
# High freq. dielectric constant tensor:
#      x y z
#    x 1.826770 0.000000 0.000000 
#    y 0.000000 1.826770 0.000000 
#    z 0.000000 0.000000 1.792670 
# 
# From -- ./inp_files/2792.got.cif
#   From: 2010.03.12/outbox.cif.g09.slc.cpg/sg186_2_cif.got.tgz:2792.got - 2010.04.01 11:56:34.
