data_PCOD8326959
_publ_section_title
;
Structure prediction by ZEFSAII (Michael W. Deem and Ramdas Pophale) SiO2 
 PCOD8326959
Probable space group: P -6 M 2
;
_chemical_formula_sum "Si O2"
_cell_formula_units_Z 72
_cell_length_a 22.896084
_cell_length_b 22.896084
_cell_length_c 9.153857
_cell_angle_alpha 90.000000
_cell_angle_beta 90.000000
_cell_angle_gamma 120.000000
_cell_volume 4155.824268
_symmetry_space_group_name_H-M "P -6 M 2"
_symmetry_group_IT_number 187
_symmetry_cell_setting 'hexagonal'
loop_
_space_group_symop_operation_xyz
x,y,z
-x+y,-x,-z
-y,x-y,z
x,y,-z
-x+y,-x,z
-y,x-y,-z
-y,-x,-z
-x+y,y,-z
x,x-y,-z
-x+y,y,z
x,x-y,z
-y,-x,z
loop_
_atom_site_type_symbol
_atom_site_label
_atom_site_fract_x
_atom_site_fract_y
_atom_site_fract_z
Si Si1 0.331517 0.918794 0.172889
Si Si2 0.856616 0.275274 0.330091
Si Si3 0.198818 0.532106 0.332605
Si Si4 0.594493 0.538213 0.827892
Si Si5 0.211302 0.921855 0.328451
Si Si6 0.803751 0.069838 0.326816
O O1 0.347932 0.862302 0.226789
O O2 0.262523 0.905809 0.244746
O O3 0.393187 0.990507 0.222929
O O4 0.322837 0.914123 0.000000
O O5 0.870118 0.292658 0.500000
O O6 0.777950 0.222051 0.300831
O O7 0.877502 0.343724 0.243568
O O8 0.902122 0.244350 0.271136
O O9 0.178039 0.508999 0.500000
O O10 0.263167 0.526333 0.287024
O O11 0.217672 0.608836 0.310217
O O12 0.524871 0.475130 0.772185
O O13 0.600922 0.535893 0.000000
O O14 0.226967 0.924289 0.500000
O O15 0.135409 0.864592 0.291583
O O16 0.219341 0.992957 0.273135
O O17 0.805752 0.073122 0.500000
O O18 0.880369 0.119632 0.267551
#
# Coordination Sequence:
#
# PCOD8326959 Si02
#       6
#    12  12  12  12  12  12
#     4  11  22  35  50  71 102 136 166 205 255 301
#     4   9  17  31  53  78 100 125 161 204 248 294
#     4  10  21  37  55  72  91 121 165 214 259 304
#     4  10  21  35  50  72 104 138 169 203 246 297
#     4  10  19  31  50  75 102 134 172 209 246 295
#     4   8  14  27  48  72  99 128 159 200 247 292
#
# _framework density 17.325081999999998
#
# number of rings (size 3 to 8) (size 9 to 14) (size 15 to 20)
#    0.000    2.333    1.667    2.667    0.000    5.667 
#    0.000    0.000    0.000    2.167    0.000    2.333 
#    0.000    0.000    0.000    0.000    0.000    0.000 
#
# Total GULP energy -892734.795603 kJ/mol
# GULP energy per Si atom -12399.094383 kJ/mol
# Density = 1.728565 g / cm^3
# Si number density = 17.325082 Si / 1000 Ang^3
#
#
#
# Elastic Constant Matrix: (Units=GPa)
#
#
# Indices 1 2 3 4 5 6 
#
# 1 102.5619 43.5169 33.2041 0.0000 0.0000 0.0000
# 2 43.5169 102.5619 33.2041 0.0000 0.0000 0.0000
# 3 33.2041 33.2041 34.7479 0.0000 0.0000 0.0000
# 4 0.0000 0.0000 0.0000 20.9381 0.0000 0.0000
# 5 0.0000 0.0000 0.0000 0.0000 20.9381 0.0000
# 6 0.0000 0.0000 0.0000 0.0000 0.0000 29.5225
#
#
#
# Elastic Compliance Matrix: (Units=1/GPa)
#
#
# Indices 1 2 3 4 5 6 
#
# 1 0.014520 -0.002416 -0.011566 0.000000 0.000000 0.000000
# 2 -0.002416 0.014520 -0.011566 0.000000 0.000000 0.000000
# 3 -0.011566 -0.011566 0.050883 0.000000 0.000000 0.000000
# 4 0.000000 0.000000 0.000000 0.047760 0.000000 0.000000
# 5 0.000000 0.000000 0.000000 0.000000 0.047760 0.000000
# 6 0.000000 0.000000 0.000000 0.000000 0.000000 0.033872
#
#
# Mechanical properties :
#
#
# Convention : Reuss Voigt Hill
#
# Bulk Modulus (GPa) = 34.69032 51.08022 42.88527
# Shear Modulus (GPa) = 18.51721 22.94283 20.73002
#
# Velocity S-wave (km/s) = 3.27281 3.64298 3.46285
# Velocity P-wave (km/s) = 5.86075 6.87332 6.38713
#
# Compressibility (1/GPa) = 0.02882648
#
# Stress axis : x y z
#
# Youngs Moduli (GPa) = 68.87121 68.87121 19.65312
#
# Poissons Ratio (x) = 0.16642 0.22730
# Poissons Ratio (y) = 0.16642 0.22730
# Poissons Ratio (z) = 0.79655 0.79655
#
# Static dielectric constant tensor:
#      x y z
#    x 3.355490 0.000000 0.000000 
#    y 0.000000 3.355490 0.000000 
#    z 0.000000 0.000000 3.000270 
# 
# 
# High freq. dielectric constant tensor:
#      x y z
#    x 1.665680 0.000000 0.000000 
#    y 0.000000 1.665680 0.000000 
#    z 0.000000 0.000000 1.648150 
# 
# From -- ./inp_files/949.got.cif
#   From: 2010.03.12/outbox.cif.g09.slc.cpg/sg187_1_cif.got.tgz:949.got - 2010.04.01 11:58:23.
