data_PCOD8326893
_publ_section_title
;
Structure prediction by ZEFSAII (Michael W. Deem and Ramdas Pophale) SiO2 
 PCOD8326893
Probable space group: P -6 M 2
;
_chemical_formula_sum "Si O2"
_cell_formula_units_Z 78
_cell_length_a 17.322127
_cell_length_b 17.322127
_cell_length_c 20.125617
_cell_angle_alpha 90.000000
_cell_angle_beta 90.000000
_cell_angle_gamma 120.000000
_cell_volume 5229.766178
_symmetry_space_group_name_H-M "P -6 M 2"
_symmetry_group_IT_number 187
_symmetry_cell_setting 'hexagonal'
loop_
_space_group_symop_operation_xyz
x,y,z
-x+y,-x,-z
-y,x-y,z
x,y,-z
-x+y,-x,z
-y,x-y,-z
-y,-x,-z
-x+y,y,-z
x,x-y,-z
-x+y,y,z
x,x-y,z
-y,-x,z
loop_
_atom_site_type_symbol
_atom_site_label
_atom_site_fract_x
_atom_site_fract_y
_atom_site_fract_z
Si Si1 0.665200 0.151611 0.244187
Si Si2 0.070884 0.754887 0.422644
Si Si3 0.819368 0.998048 0.688836
Si Si4 0.961967 0.393345 0.623669
Si Si5 0.301630 0.241356 0.192101
Si Si6 0.666720 0.513020 0.500000
Si Si7 0.819514 0.999489 0.075114
O O1 0.578381 0.156762 0.221525
O O2 0.748316 0.251685 0.252339
O O3 0.648554 0.097871 0.311898
O O4 0.686143 0.093759 0.191376
O O5 0.042256 0.738694 0.500000
O O6 0.176536 0.823465 0.415982
O O7 0.015578 0.794084 0.385050
O O8 0.050515 0.665016 0.383220
O O9 0.914234 0.085767 0.687888
O O10 0.751762 0.003195 0.742344
O O11 0.832414 0.916207 0.710347
O O12 0.994726 0.497363 0.616791
O O13 0.899719 0.334282 0.564313
O O14 0.288903 0.144452 0.193931
O O15 0.256879 0.250831 0.124424
O O16 0.586690 0.413311 0.500000
O O17 0.754079 0.508158 0.500000
O O18 0.822094 0.911047 0.092791
O O19 0.786035 0.997199 0.000000
O O20 0.918880 0.081121 0.085078
#
# Coordination Sequence:
#
# PCOD8326893 Si02
#       7
#    12  12  12  12  12   6  12
#     4  10  19  31  46  65  88 115 148 185 226 269
#     4  10  20  33  46  62  84 114 148 183 223 267
#     4  10  19  30  43  60  84 115 152 187 216 247
#     4  10  19  31  47  65  83 108 141 180 228 277
#     4   9  17  28  43  63  87 116 148 181 216 257
#     4  10  19  28  41  62  88 114 140 176 225 278
#     4   9  16  26  42  66  96 127 155 183 216 255
#
# _framework density 14.914624
#
# number of rings (size 3 to 8) (size 9 to 14) (size 15 to 20)
#    0.000    2.308    2.308    1.462    0.000    1.538 
#    0.000    3.077    0.000    1.692    0.000    0.000 
#    0.000    1.231    0.000    0.615    0.000    4.000 
#
# Total GULP energy -966686.791670 kJ/mol
# GULP energy per Si atom -12393.420406 kJ/mol
# Density = 1.488068 g / cm^3
# Si number density = 14.914624 Si / 1000 Ang^3
#
#
#
# Elastic Constant Matrix: (Units=GPa)
#
#
# Indices 1 2 3 4 5 6 
#
# 1 99.9281 47.4295 39.6917 0.0000 -0.0009 0.0000
# 2 47.4295 99.9281 39.6917 0.0000 0.0009 0.0000
# 3 39.6917 39.6917 80.4740 0.0000 0.0000 0.0000
# 4 0.0000 0.0000 0.0000 20.5159 0.0000 0.0009
# 5 -0.0009 0.0009 0.0000 0.0000 20.5159 0.0000
# 6 0.0000 0.0000 0.0000 0.0009 0.0000 26.2493
#
#
#
# Elastic Compliance Matrix: (Units=1/GPa)
#
#
# Indices 1 2 3 4 5 6 
#
# 1 0.014145 -0.004903 -0.004558 0.000000 0.000001 0.000000
# 2 -0.004903 0.014145 -0.004558 0.000000 -0.000001 0.000000
# 3 -0.004558 -0.004558 0.016923 0.000000 0.000000 0.000000
# 4 0.000000 0.000000 0.000000 0.048743 0.000000 -0.000002
# 5 0.000001 -0.000001 0.000000 0.000000 0.048743 0.000000
# 6 0.000000 0.000000 0.000000 -0.000002 0.000000 0.038096
#
#
# Mechanical properties :
#
#
# Convention : Reuss Voigt Hill
#
# Bulk Modulus (GPa) = 58.22963 59.32841 58.77902
# Shear Modulus (GPa) = 23.30368 23.69070 23.49719
#
# Velocity S-wave (km/s) = 3.95710 3.98982 3.97350
# Velocity P-wave (km/s) = 7.74628 7.81601 7.78122
#
# Compressibility (1/GPa) = 0.01717339
#
# Stress axis : x y z
#
# Youngs Moduli (GPa) = 70.69650 70.69650 59.09162
#
# Poissons Ratio (x) = 0.34664 0.26936
# Poissons Ratio (y) = 0.34664 0.26936
# Poissons Ratio (z) = 0.32225 0.32225
#
# Static dielectric constant tensor:
#      x y z
#    x 2.836840 0.000000 0.000000 
#    y 0.000000 2.836840 0.000000 
#    z 0.000000 0.000000 3.019350 
# 
# 
# High freq. dielectric constant tensor:
#      x y z
#    x 1.558340 0.000000 0.000000 
#    y 0.000000 1.558340 0.000000 
#    z 0.000000 0.000000 1.564820 
# 
# From -- ./inp_files/3196.got.cif
#   From: 2010.03.12/outbox.cif.g09.slc.cpg/sg187_2_cif.got.tgz:3196.got - 2010.04.01 11:58:23.
