data_PCOD8326539
_publ_section_title
;
Structure prediction by ZEFSAII (Michael W. Deem and Ramdas Pophale) SiO2 
 PCOD8326539
Probable space group: P 6 M M
;
_chemical_formula_sum "Si O2"
_cell_formula_units_Z 96
_cell_length_a 18.447114
_cell_length_b 18.447114
_cell_length_c 20.038479
_cell_angle_alpha 90.000000
_cell_angle_beta 90.000000
_cell_angle_gamma 120.000000
_cell_volume 5905.439828
_symmetry_space_group_name_H-M "P 6 M M"
_symmetry_group_IT_number 183
_symmetry_cell_setting 'hexagonal'
loop_
_space_group_symop_operation_xyz
x,y,z
x-y,x,z
-y,x-y,z
-x,-y,z
-x+y,-x,z
y,-x+y,z
-x+y,y,z
x,x-y,z
-y,-x,z
y,x,z
x-y,-y,z
-x,-x+y,z
loop_
_atom_site_type_symbol
_atom_site_label
_atom_site_fract_x
_atom_site_fract_y
_atom_site_fract_z
Si Si1 0.835078 0.501551 0.995920
Si Si2 0.737195 0.639282 0.599977
Si Si3 0.499733 0.167809 0.494237
Si Si4 0.743965 0.092953 0.092491
Si Si5 0.629846 0.096555 0.352334
Si Si6 0.333482 0.832277 0.847827
Si Si7 0.531418 0.626882 0.710479
Si Si8 0.652142 0.746101 0.245025
O O1 0.738312 0.476624 0.001168
O O2 0.842485 0.421243 0.014319
O O3 0.869387 0.535700 0.921072
O O4 0.892449 0.573445 0.047408
O O5 0.838264 0.676527 0.592975
O O6 0.714106 0.714106 0.605590
O O7 0.687479 0.581726 0.536978
O O8 0.708938 0.577587 0.664490
O O9 0.575518 0.151036 0.511533
O O10 0.527982 0.263991 0.510089
O O11 0.474430 0.150832 0.416880
O O12 0.840452 0.159549 0.074950
O O13 0.722869 0.101797 0.168975
O O14 0.728646 0.000000 0.078865
O O15 0.557557 0.115114 0.328366
O O16 0.694063 0.122398 0.291349
O O17 0.591499 0.000000 0.371985
O O18 0.400777 0.801554 0.849040
O O19 0.245403 0.754598 0.829295
O O20 0.351532 0.898829 0.789271
O O21 0.430552 0.569449 0.696677
O O22 0.572000 0.572000 0.690319
O O23 0.689691 0.844846 0.257903
O O24 0.725406 0.725406 0.261601
#
# Coordination Sequence:
#
# PCOD8326539 Si02
#       8
#    12  12  12  12  12  12  12  12
#     4   9  17  28  42  61  87 119 152 183 214 248
#     4  10  20  33  49  67  87 113 145 181 220 263
#     4  10  19  30  45  66  93 123 153 183 213 246
#     4   9  18  31  46  64  85 110 140 177 221 265
#     4   9  17  28  43  64  89 118 151 184 215 246
#     4   9  16  26  40  58  82 113 147 179 208 240
#     4   9  17  28  42  62  88 116 144 174 210 251
#     4   9  17  30  47  65  86 112 143 178 217 262
#
# _framework density 16.256198999999999
#
# number of rings (size 3 to 8) (size 9 to 14) (size 15 to 20)
#    0.000    2.750    0.000    1.875    0.000    3.500 
#    0.000    2.500    0.000    4.625    0.000    1.750 
#    0.000    0.000    0.000    4.000    0.000   19.000 
#
# Total GULP energy -1189803.212704 kJ/mol
# GULP energy per Si atom -12393.783466 kJ/mol
# Density = 1.621920 g / cm^3
# Si number density = 16.256199 Si / 1000 Ang^3
#
#
#
# Elastic Constant Matrix: (Units=GPa)
#
#
# Indices 1 2 3 4 5 6 
#
# 1 77.2448 44.5314 39.6277 0.0000 0.0000 0.0000
# 2 44.5314 77.2448 39.6277 0.0000 0.0000 0.0000
# 3 39.6277 39.6277 79.9514 0.0000 0.0000 0.0000
# 4 0.0000 0.0000 0.0000 22.6347 0.0000 0.0000
# 5 0.0000 0.0000 0.0000 0.0000 22.6347 0.0000
# 6 0.0000 0.0000 0.0000 0.0000 0.0000 16.3567
#
#
#
# Elastic Compliance Matrix: (Units=1/GPa)
#
#
# Indices 1 2 3 4 5 6 
#
# 1 0.021345 -0.009223 -0.006008 0.000000 0.000000 0.000000
# 2 -0.009223 0.021345 -0.006008 0.000000 0.000000 0.000000
# 3 -0.006008 -0.006008 0.018464 0.000000 0.000000 0.000000
# 4 0.000000 0.000000 0.000000 0.044180 0.000000 0.000000
# 5 0.000000 0.000000 0.000000 0.000000 0.044180 0.000000
# 6 0.000000 0.000000 0.000000 0.000000 0.000000 0.061137
#
#
# Mechanical properties :
#
#
# Convention : Reuss Voigt Hill
#
# Bulk Modulus (GPa) = 53.54846 53.55717 53.55281
# Shear Modulus (GPa) = 19.27855 19.70218 19.49037
#
# Velocity S-wave (km/s) = 3.44745 3.48513 3.46634
# Velocity P-wave (km/s) = 6.98988 7.01513 7.00252
#
# Compressibility (1/GPa) = 0.01867467
#
# Stress axis : x y z
#
# Youngs Moduli (GPa) = 46.84867 46.84867 54.16062
#
# Poissons Ratio (x) = 0.43209 0.32541
# Poissons Ratio (y) = 0.43209 0.32541
# Poissons Ratio (z) = 0.28148 0.28148
#
# Static dielectric constant tensor:
#      x y z
#    x 2.973990 0.000000 0.000000 
#    y 0.000000 2.973990 0.000000 
#    z 0.000000 0.000000 3.225440 
# 
# 
# High freq. dielectric constant tensor:
#      x y z
#    x 1.606200 0.000000 0.000000 
#    y 0.000000 1.606200 0.000000 
#    z 0.000000 0.000000 1.636660 
# 
# From -- ./inp_files/3030.got.cif
#   From: 2010.03.12/outbox.cif.g09.slc.cpg/sg183_2_cif.got.tgz:3030.got - 2010.04.01 11:53:02.
