data_PCOD8326710
_publ_section_title
;
Structure prediction by ZEFSAII (Michael W. Deem and Ramdas Pophale) SiO2 
 PCOD8326710
Probable space group: P 63 M C
;
_chemical_formula_sum "Si O2"
_cell_formula_units_Z 72
_cell_length_a 25.657879
_cell_length_b 25.657879
_cell_length_c 8.071100
_cell_angle_alpha 90.000000
_cell_angle_beta 90.000000
_cell_angle_gamma 120.000000
_cell_volume 4601.557628
_symmetry_space_group_name_H-M "P 63 M C"
_symmetry_group_IT_number 186
_symmetry_cell_setting 'hexagonal'
loop_
_space_group_symop_operation_xyz
x,y,z
x-y,x,1/2+z
-y,x-y,z
-x,-y,1/2+z
-x+y,-x,z
y,-x+y,1/2+z
-x+y,y,z
x,x-y,z
-y,-x,z
y,x,1/2+z
x-y,-y,1/2+z
-x,-x+y,1/2+z
loop_
_atom_site_type_symbol
_atom_site_label
_atom_site_fract_x
_atom_site_fract_y
_atom_site_fract_z
Si Si1 0.577374 0.541688 0.983520
Si Si2 0.270341 0.845797 0.990671
Si Si3 0.514477 0.603193 0.124549
Si Si4 0.706331 0.911715 0.116438
Si Si5 0.726328 0.019746 0.917382
Si Si6 0.315217 0.935111 0.707023
O O1 0.525375 0.474626 0.033734
O O2 0.603598 0.542495 0.803128
O O3 0.548829 0.585684 0.985658
O O4 0.627535 0.563450 0.125284
O O5 0.225711 0.774290 0.978650
O O6 0.279937 0.872738 0.805722
O O7 0.331499 0.856694 0.077496
O O8 0.242248 0.876499 0.105204
O O9 0.443189 0.556812 0.122938
O O10 0.731701 0.865851 0.090684
O O11 0.722911 0.940522 0.298830
O O12 0.734934 0.964566 0.980126
O O13 0.660628 0.992396 0.827742
O O14 0.728032 0.062103 0.066182
#
# Coordination Sequence:
#
# PCOD8326710 Si02
#       6
#    12  12  12  12  12  12
#     4  10  18  27  44  69  90 110 134 165 214 269
#     4  10  20  31  43  61  85 114 149 183 211 249
#     4  10  19  30  45  65  89 113 138 174 219 264
#     4   9  17  29  44  62  87 119 150 178 209 248
#     4   9  17  28  43  61  86 120 148 172 207 245
#     4  10  17  27  41  60  88 116 141 172 210 253
#
# _framework density 15.646875
#
# number of rings (size 3 to 8) (size 9 to 14) (size 15 to 20)
#    0.000    2.333    0.000    6.000    0.000    2.667 
#    0.000    3.333    0.000    0.333    0.000    0.000 
#    0.000    1.333    0.000    5.000    0.000    0.000 
#
# Total GULP energy -892639.544659 kJ/mol
# GULP energy per Si atom -12397.771454 kJ/mol
# Density = 1.561126 g / cm^3
# Si number density = 15.646875 Si / 1000 Ang^3
#
#
#
# Elastic Constant Matrix: (Units=GPa)
#
#
# Indices 1 2 3 4 5 6 
#
# 1 90.4408 50.6662 47.5658 0.0000 0.0000 0.0000
# 2 50.6662 90.4408 47.5658 0.0000 0.0000 0.0000
# 3 47.5658 47.5658 95.0598 0.0000 0.0000 0.0000
# 4 0.0000 0.0000 0.0000 18.1982 0.0000 0.0000
# 5 0.0000 0.0000 0.0000 0.0000 18.1982 0.0000
# 6 0.0000 0.0000 0.0000 0.0000 0.0000 19.8873
#
#
#
# Elastic Compliance Matrix: (Units=1/GPa)
#
#
# Indices 1 2 3 4 5 6 
#
# 1 0.017918 -0.007224 -0.005351 0.000000 0.000000 0.000000
# 2 -0.007224 0.017918 -0.005351 0.000000 0.000000 0.000000
# 3 -0.005351 -0.005351 0.015875 0.000000 0.000000 0.000000
# 4 0.000000 0.000000 0.000000 0.054950 0.000000 0.000000
# 5 0.000000 0.000000 0.000000 0.000000 0.054950 0.000000
# 6 0.000000 0.000000 0.000000 0.000000 0.000000 0.050283
#
#
# Mechanical properties :
#
#
# Convention : Reuss Voigt Hill
#
# Bulk Modulus (GPa) = 63.05604 63.05967 63.05785
# Shear Modulus (GPa) = 19.76017 19.93299 19.84658
#
# Velocity S-wave (km/s) = 3.55756 3.57308 3.56533
# Velocity P-wave (km/s) = 7.56716 7.57706 7.57211
#
# Compressibility (1/GPa) = 0.01585891
#
# Stress axis : x y z
#
# Youngs Moduli (GPa) = 55.80940 55.80940 62.99179
#
# Poissons Ratio (x) = 0.40314 0.33709
# Poissons Ratio (y) = 0.40314 0.33709
# Poissons Ratio (z) = 0.29866 0.29866
#
# Static dielectric constant tensor:
#      x y z
#    x 2.798760 0.000000 0.000000 
#    y 0.000000 2.798760 0.000000 
#    z 0.000000 0.000000 3.149440 
# 
# 
# High freq. dielectric constant tensor:
#      x y z
#    x 1.567060 0.000000 0.000000 
#    y 0.000000 1.567060 0.000000 
#    z 0.000000 0.000000 1.617890 
# 
# From -- ./inp_files/1216.got.cif
#   From: 2010.03.12/outbox.cif.g09.slc.cpg/sg186_1_cif.got.tgz:1216.got - 2010.04.01 11:56:34.
