data_PCOD8326769
_publ_section_title
;
Structure prediction by ZEFSAII (Michael W. Deem and Ramdas Pophale) SiO2 
 PCOD8326769
Probable space group: P 63 M C
;
_chemical_formula_sum "Si O2"
_cell_formula_units_Z 72
_cell_length_a 16.562479
_cell_length_b 16.562479
_cell_length_c 18.829808
_cell_angle_alpha 90.000000
_cell_angle_beta 90.000000
_cell_angle_gamma 120.000000
_cell_volume 4473.291551
_symmetry_space_group_name_H-M "P 63 M C"
_symmetry_group_IT_number 186
_symmetry_cell_setting 'hexagonal'
loop_
_space_group_symop_operation_xyz
x,y,z
x-y,x,1/2+z
-y,x-y,z
-x,-y,1/2+z
-x+y,-x,z
y,-x+y,1/2+z
-x+y,y,z
x,x-y,z
-y,-x,z
y,x,1/2+z
x-y,-y,1/2+z
-x,-x+y,1/2+z
loop_
_atom_site_type_symbol
_atom_site_label
_atom_site_fract_x
_atom_site_fract_y
_atom_site_fract_z
Si Si1 0.667227 0.519772 0.963210
Si Si2 0.913855 0.644549 0.688702
Si Si3 0.033795 0.424591 0.050509
Si Si4 0.146646 0.480663 0.911480
Si Si5 0.362785 0.334385 0.835486
Si Si6 0.997365 0.814412 0.776934
O O1 0.760260 0.520519 0.986896
O O2 0.585575 0.414426 0.951961
O O3 0.683288 0.573699 0.889501
O O4 0.641153 0.569330 0.025073
O O5 0.803170 0.606340 0.684399
O O6 0.949230 0.624109 0.616572
O O7 0.935555 0.596345 0.755971
O O8 0.969678 0.756610 0.702549
O O9 0.050925 0.525463 0.073093
O O10 0.104695 0.435766 0.987875
O O11 0.234131 0.468262 0.893760
O O12 0.179023 0.589512 0.910679
O O13 0.067200 0.429350 0.851923
O O14 0.256344 0.247022 0.839528
O O15 0.100497 0.899504 0.771240
O O16 0.925200 0.850400 0.793935
#
# Coordination Sequence:
#
# PCOD8326769 Si02
#       6
#    12  12  12  12  12  12
#     4  10  19  33  50  72  99 132 170 209 249 295
#     4   9  18  32  50  71  97 125 160 204 247 294
#     4   9  19  32  49  71  97 130 167 204 251 297
#     4  10  19  32  50  73 100 132 168 207 247 293
#     4   9  18  32  50  71  98 127 163 204 250 299
#     4   9  17  29  47  70  95 122 154 194 242 294
#
# _framework density 16.095531000000001
#
# number of rings (size 3 to 8) (size 9 to 14) (size 15 to 20)
#    1.000    1.667    0.000    4.000    0.000    2.000 
#    0.000    0.000    0.000    0.333    0.000    2.333 
#    0.000   10.667    0.000    0.000    0.000    0.000 
#
# Total GULP energy -892302.263843 kJ/mol
# GULP energy per Si atom -12393.086998 kJ/mol
# Density = 1.605890 g / cm^3
# Si number density = 16.095531 Si / 1000 Ang^3
#
#
#
# Elastic Constant Matrix: (Units=GPa)
#
#
# Indices 1 2 3 4 5 6 
#
# 1 89.8980 38.1694 37.8223 0.0000 0.0000 0.0000
# 2 38.1694 89.8980 37.8223 0.0000 0.0000 0.0000
# 3 37.8223 37.8223 87.5374 0.0000 0.0000 0.0000
# 4 0.0000 0.0000 0.0000 15.7260 0.0000 0.0000
# 5 0.0000 0.0000 0.0000 0.0000 15.7260 0.0000
# 6 0.0000 0.0000 0.0000 0.0000 0.0000 25.8643
#
#
#
# Elastic Compliance Matrix: (Units=1/GPa)
#
#
# Indices 1 2 3 4 5 6 
#
# 1 0.014908 -0.004424 -0.004530 0.000000 0.000000 0.000000
# 2 -0.004424 0.014908 -0.004530 0.000000 0.000000 0.000000
# 3 -0.004530 -0.004530 0.015338 0.000000 0.000000 0.000000
# 4 0.000000 0.000000 0.000000 0.063589 0.000000 0.000000
# 5 0.000000 0.000000 0.000000 0.000000 0.063589 0.000000
# 6 0.000000 0.000000 0.000000 0.000000 0.000000 0.038663
#
#
# Mechanical properties :
#
#
# Convention : Reuss Voigt Hill
#
# Bulk Modulus (GPa) = 54.98498 54.99571 54.99034
# Shear Modulus (GPa) = 20.48977 21.69788 21.09382
#
# Velocity S-wave (km/s) = 3.57180 3.67559 3.62406
# Velocity P-wave (km/s) = 7.15864 7.22881 7.19381
#
# Compressibility (1/GPa) = 0.01818679
#
# Stress axis : x y z
#
# Youngs Moduli (GPa) = 67.07886 67.07886 65.19716
#
# Poissons Ratio (x) = 0.29675 0.29533
# Poissons Ratio (y) = 0.29675 0.29533
# Poissons Ratio (z) = 0.30385 0.30385
#
# Static dielectric constant tensor:
#      x y z
#    x 2.979410 0.000000 0.000000 
#    y 0.000000 2.979410 0.000000 
#    z 0.000000 0.000000 2.811060 
# 
# 
# High freq. dielectric constant tensor:
#      x y z
#    x 1.619970 0.000000 0.000000 
#    y 0.000000 1.619970 0.000000 
#    z 0.000000 0.000000 1.598420 
# 
# From -- ./inp_files/3004.got.cif
#   From: 2010.03.12/outbox.cif.g09.slc.cpg/sg186_2_cif.got.tgz:3004.got - 2010.04.01 11:56:34.
