data_PCOD8326012
_publ_section_title
;
Structure prediction by ZEFSAII (Michael W. Deem and Ramdas Pophale) SiO2 
 PCOD8326012
Probable space group: P 65 2 2
;
_chemical_formula_sum "Si O2"
_cell_formula_units_Z 60
_cell_length_a 27.918878
_cell_length_b 27.918878
_cell_length_c 5.150853
_cell_angle_alpha 90.000000
_cell_angle_beta 90.000000
_cell_angle_gamma 120.000000
_cell_volume 3477.008155
_symmetry_space_group_name_H-M "P 65 2 2"
_symmetry_group_IT_number 179
_symmetry_cell_setting 'hexagonal'
loop_
_space_group_symop_operation_xyz
x,y,z
x-y,x,5/6+z
-y,x-y,2/3+z
-x,-y,1/2+z
-x+y,-x,1/3+z
y,-x+y,1/6+z
x-y,-y,-z
-x,-x+y,1/3-z
y,x,2/3-z
-y,-x,1/6-z
-x+y,y,1/2-z
x,x-y,5/6-z
loop_
_atom_site_type_symbol
_atom_site_label
_atom_site_fract_x
_atom_site_fract_y
_atom_site_fract_z
Si Si1 0.938141 0.669251 0.672440
Si Si2 0.522880 0.872009 0.496154
Si Si3 0.555159 0.937795 0.989715
Si Si4 0.362961 0.236169 0.843415
Si Si5 0.238937 0.650786 0.160270
O O1 0.940456 0.613458 0.688019
O O2 0.913436 0.674431 0.402863
O O3 0.000000 0.721485 0.666667
O O4 0.900029 0.669806 0.908623
O O5 0.519144 0.900963 0.232390
O O6 0.577239 0.867088 0.500562
O O7 0.473050 0.810705 0.543965
O O8 0.521495 0.909511 0.729339
O O9 0.565313 0.000000 0.000000
O O10 0.371925 0.185963 0.916667
O O11 0.251320 0.625660 0.416667
O O12 0.293084 0.706917 0.083334
O O13 0.220480 0.610240 0.916667
#
# Coordination Sequence:
#
# PCOD8326012 Si02
#       5
#    12  12  12  12  12
#     4   9  17  28  43  65  94 127 159 189 229 282
#     4  10  20  34  54  77 101 126 154 192 234 282
#     4   9  17  31  53  78 102 130 158 183 219 275
#     4  10  18  29  46  70  96 120 153 197 243 279
#     4  12  25  42  61  78  98 123 157 197 243 294
#
# _framework density 17.256214
#
# number of rings (size 3 to 8) (size 9 to 14) (size 15 to 20)
#    0.000    2.000    0.000    4.800    0.000    4.800 
#    0.000    6.000    0.000   12.000    0.000    0.000 
#    0.000    0.000    0.000    0.000    0.000    0.000 
#
# Total GULP energy -743893.719427 kJ/mol
# GULP energy per Si atom -12398.228657 kJ/mol
# Density = 1.721694 g / cm^3
# Si number density = 17.256214 Si / 1000 Ang^3
#
#
#
# Elastic Constant Matrix: (Units=GPa)
#
#
# Indices 1 2 3 4 5 6 
#
# 1 87.6811 22.1600 47.1155 0.0000 0.0000 0.0000
# 2 22.1600 87.6811 47.1155 0.0000 0.0000 0.0000
# 3 47.1155 47.1155 147.3620 0.0000 0.0000 0.0000
# 4 0.0000 0.0000 0.0000 23.6010 0.0000 0.0000
# 5 0.0000 0.0000 0.0000 0.0000 23.6010 0.0000
# 6 0.0000 0.0000 0.0000 0.0000 0.0000 32.7605
#
#
#
# Elastic Compliance Matrix: (Units=1/GPa)
#
#
# Indices 1 2 3 4 5 6 
#
# 1 0.013904 -0.001359 -0.004011 0.000000 0.000000 0.000000
# 2 -0.001359 0.013904 -0.004011 0.000000 0.000000 0.000000
# 3 -0.004011 -0.004011 0.009351 0.000000 0.000000 0.000000
# 4 0.000000 0.000000 0.000000 0.042371 0.000000 0.000000
# 5 0.000000 0.000000 0.000000 0.000000 0.042371 0.000000
# 6 0.000000 0.000000 0.000000 0.000000 0.000000 0.030525
#
#
# Mechanical properties :
#
#
# Convention : Reuss Voigt Hill
#
# Bulk Modulus (GPa) = 54.35678 61.72294 58.03986
# Shear Modulus (GPa) = 28.19788 29.74805 28.97296
#
# Velocity S-wave (km/s) = 4.04675 4.15650 4.10199
# Velocity P-wave (km/s) = 7.30774 7.67343 7.49282
#
# Compressibility (1/GPa) = 0.01839697
#
# Stress axis : x y z
#
# Youngs Moduli (GPa) = 71.92363 71.92363 106.94226
#
# Poissons Ratio (x) = 0.09772 0.42894
# Poissons Ratio (y) = 0.09772 0.42894
# Poissons Ratio (z) = 0.28848 0.28848
#
# Static dielectric constant tensor:
#      x y z
#    x 3.103400 0.000000 0.000000 
#    y 0.000000 3.103400 0.000000 
#    z 0.000000 0.000000 3.593670 
# 
# 
# High freq. dielectric constant tensor:
#      x y z
#    x 1.640260 0.000000 0.000000 
#    y 0.000000 1.640260 0.000000 
#    z 0.000000 0.000000 1.692340 
# 
# From -- ./inp_files/1475.got.cif
#   From: 2010.03.12/outbox.cif.g09.slc.cpg/sg179_1_cif.got.tgz:1475.got - 2010.04.02 07:08:42.
