data_PCOD8326174
_publ_section_title
;
Structure prediction by ZEFSAII (Michael W. Deem and Ramdas Pophale) SiO2 
 PCOD8326174
Probable space group: P 62 2 2
;
_chemical_formula_sum "Si O2"
_cell_formula_units_Z 48
_cell_length_a 10.859295
_cell_length_b 10.859295
_cell_length_c 24.008258
_cell_angle_alpha 90.000000
_cell_angle_beta 90.000000
_cell_angle_gamma 120.000000
_cell_volume 2451.853649
_symmetry_space_group_name_H-M "P 62 2 2"
_symmetry_group_IT_number 180
_symmetry_cell_setting 'hexagonal'
loop_
_space_group_symop_operation_xyz
x,y,z
x-y,x,1/3+z
-y,x-y,2/3+z
-x,-y,z
-x+y,-x,1/3+z
y,-x+y,2/3+z
x-y,-y,-z
-x,-x+y,1/3-z
y,x,2/3-z
-y,-x,2/3-z
-x+y,y,-z
x,x-y,1/3-z
loop_
_atom_site_type_symbol
_atom_site_label
_atom_site_fract_x
_atom_site_fract_y
_atom_site_fract_z
Si Si1 0.302606 0.806681 0.200726
Si Si2 0.363650 0.846102 0.574127
Si Si3 0.727169 0.161877 0.994154
Si Si4 0.387247 0.109324 0.213156
O O1 0.257715 0.687837 0.249110
O O2 0.199863 0.734317 0.147813
O O3 0.465216 0.859967 0.184617
O O4 0.289316 0.939781 0.223479
O O5 0.264015 0.836023 0.625350
O O6 0.500000 0.000000 0.567942
O O7 0.804239 0.218563 0.935972
O O8 0.583230 0.166459 0.000000
O O9 0.693513 0.000000 0.000000
O O10 0.309930 0.154965 0.166667
#
# Coordination Sequence:
#
# PCOD8326174 Si02
#       4
#    12  12  12  12
#     4  10  20  36  55  87 114 154 204 247 320 368
#     4  11  22  38  62  86 125 158 208 261 312 380
#     4  11  22  37  59  91 126 161 204 258 323 376
#     4  11  20  35  59  82 122 155 199 261 308 382
#
# _framework density 19.577023000000001
#
# number of rings (size 3 to 8) (size 9 to 14) (size 15 to 20)
#    0.000    1.250    5.000    3.000    3.500    4.000 
#    0.000    0.000    0.000   12.000    0.000    0.000 
#    0.000    0.000    0.000    0.000    0.000    0.000 
#
# Total GULP energy -594853.637969 kJ/mol
# GULP energy per Si atom -12392.784124 kJ/mol
# Density = 1.953246 g / cm^3
# Si number density = 19.577023 Si / 1000 Ang^3
#
#
#
# Elastic Constant Matrix: (Units=GPa)
#
#
# Indices 1 2 3 4 5 6 
#
# 1 112.7891 53.6849 52.9237 0.0000 0.0000 0.0000
# 2 53.6849 112.7891 52.9237 0.0000 0.0000 0.0000
# 3 52.9237 52.9237 142.2522 0.0000 0.0000 0.0000
# 4 0.0000 0.0000 0.0000 19.5594 0.0000 0.0000
# 5 0.0000 0.0000 0.0000 0.0000 19.5594 0.0000
# 6 0.0000 0.0000 0.0000 0.0000 0.0000 29.5521
#
#
#
# Elastic Compliance Matrix: (Units=1/GPa)
#
#
# Indices 1 2 3 4 5 6 
#
# 1 0.012394 -0.004526 -0.002927 0.000000 0.000000 0.000000
# 2 -0.004526 0.012394 -0.002927 0.000000 0.000000 0.000000
# 3 -0.002927 -0.002927 0.009208 0.000000 0.000000 0.000000
# 4 0.000000 0.000000 0.000000 0.051126 0.000000 0.000000
# 5 0.000000 0.000000 0.000000 0.000000 0.051126 0.000000
# 6 0.000000 0.000000 0.000000 0.000000 0.000000 0.033839
#
#
# Mechanical properties :
#
#
# Convention : Reuss Voigt Hill
#
# Bulk Modulus (GPa) = 75.55658 76.32164 75.93911
# Shear Modulus (GPa) = 25.60707 27.62072 26.61389
#
# Velocity S-wave (km/s) = 3.62057 3.76024 3.69107
# Velocity P-wave (km/s) = 7.49376 7.61068 7.55244
#
# Compressibility (1/GPa) = 0.01323511
#
# Stress axis : x y z
#
# Youngs Moduli (GPa) = 80.68602 80.68602 108.60237
#
# Poissons Ratio (x) = 0.36515 0.31791
# Poissons Ratio (y) = 0.36515 0.31791
# Poissons Ratio (z) = 0.23619 0.23619
#
# Static dielectric constant tensor:
#      x y z
#    x 3.749780 0.000000 0.000000 
#    y 0.000000 3.749780 0.000000 
#    z 0.000000 0.000000 3.440090 
# 
# 
# High freq. dielectric constant tensor:
#      x y z
#    x 1.753020 0.000000 0.000000 
#    y 0.000000 1.753020 0.000000 
#    z 0.000000 0.000000 1.755940 
# 
# From -- ./inp_files/8698.got.cif
#   From: 2010.03.12/outbox.cif.g09.slc.cpg/sg180_5_cif.got.tgz:8698.got - 2010.04.01 11:35:50.
