data_PCOD8326129
_publ_section_title
;
Structure prediction by ZEFSAII (Michael W. Deem and Ramdas Pophale) SiO2 
 PCOD8326129
Probable space group: P 62 2 2
;
_chemical_formula_sum "Si O2"
_cell_formula_units_Z 84
_cell_length_a 37.898917
_cell_length_b 37.898917
_cell_length_c 5.146735
_cell_angle_alpha 90.000000
_cell_angle_beta 90.000000
_cell_angle_gamma 120.000000
_cell_volume 6402.005437
_symmetry_space_group_name_H-M "P 62 2 2"
_symmetry_group_IT_number 180
_symmetry_cell_setting 'hexagonal'
loop_
_space_group_symop_operation_xyz
x,y,z
x-y,x,1/3+z
-y,x-y,2/3+z
-x,-y,z
-x+y,-x,1/3+z
y,-x+y,2/3+z
x-y,-y,-z
-x,-x+y,1/3-z
y,x,2/3-z
-y,-x,2/3-z
-x+y,y,-z
x,x-y,1/3-z
loop_
_atom_site_type_symbol
_atom_site_label
_atom_site_fract_x
_atom_site_fract_y
_atom_site_fract_z
Si Si1 0.571230 0.026173 0.742682
Si Si2 0.114487 0.720057 0.835150
Si Si3 0.205545 0.716899 0.342972
Si Si4 0.347548 0.973712 0.744371
Si Si5 0.837302 0.510999 0.503761
Si Si6 0.579046 0.112311 0.752425
Si Si7 0.605722 0.763835 0.649808
O O1 0.618300 0.039182 0.699406
O O2 0.566810 0.065519 0.760512
O O3 0.544605 0.000000 0.500000
O O4 0.553076 0.000000 0.000000
O O5 0.066349 0.696185 0.888902
O O6 0.128648 0.686838 0.791957
O O7 0.124879 0.749175 0.582474
O O8 0.135984 0.748893 0.077651
O O9 0.254659 0.745342 0.333334
O O10 0.189635 0.682280 0.567235
O O11 0.186422 0.744870 0.419396
O O12 0.193041 0.698256 0.059976
O O13 0.346954 0.000000 0.500000
O O14 0.356447 0.000000 0.000000
O O15 0.859105 0.486213 0.424461
O O16 0.561071 0.122142 0.500000
O O17 0.561607 0.123214 0.000000
O O18 0.625966 0.812983 0.666667
#
# Coordination Sequence:
#
# PCOD8326129 Si02
#       7
#    12  12  12  12  12  12  12
#     4  10  21  35  48  59  74  99 143 189 210 221
#     4  10  17  29  45  57  79 106 126 157 200 223
#     4   9  17  29  48  67  84 102 120 143 168 205
#     4  10  19  30  44  60  76  99 138 177 207 230
#     4  10  19  32  45  63  85 106 129 149 179 223
#     4  12  24  35  47  62  83 112 140 162 201 234
#     4   9  17  26  41  64  83  99 122 146 179 233
#
# _framework density 13.120889
#
# number of rings (size 3 to 8) (size 9 to 14) (size 15 to 20)
#    0.000    2.000    1.429    3.429    0.000    5.143 
#    0.000    0.000    0.000    0.000    0.000    0.000 
#    0.000    0.000    0.000   54.000    0.000    0.000 
#
# Total GULP energy -1041615.170151 kJ/mol
# GULP energy per Si atom -12400.180597 kJ/mol
# Density = 1.309103 g / cm^3
# Si number density = 13.120889 Si / 1000 Ang^3
#
#
#
# Elastic Constant Matrix: (Units=GPa)
#
#
# Indices 1 2 3 4 5 6 
#
# 1 49.3528 19.5529 14.5575 0.0000 0.0000 0.0000
# 2 19.5529 49.3528 14.5575 0.0000 0.0000 0.0000
# 3 14.5575 14.5575 81.1580 0.0000 0.0000 0.0000
# 4 0.0000 0.0000 0.0000 16.9926 0.0000 0.0000
# 5 0.0000 0.0000 0.0000 0.0000 16.9926 0.0000
# 6 0.0000 0.0000 0.0000 0.0000 0.0000 14.8999
#
#
#
# Elastic Compliance Matrix: (Units=1/GPa)
#
#
# Indices 1 2 3 4 5 6 
#
# 1 0.024630 -0.008927 -0.002817 0.000000 0.000000 0.000000
# 2 -0.008927 0.024630 -0.002817 0.000000 0.000000 0.000000
# 3 -0.002817 -0.002817 0.013332 0.000000 0.000000 0.000000
# 4 0.000000 0.000000 0.000000 0.058849 0.000000 0.000000
# 5 0.000000 0.000000 0.000000 0.000000 0.058849 0.000000
# 6 0.000000 0.000000 0.000000 0.000000 0.000000 0.067114
#
#
# Mechanical properties :
#
#
# Convention : Reuss Voigt Hill
#
# Bulk Modulus (GPa) = 29.87664 30.79995 30.33830
# Shear Modulus (GPa) = 17.38028 18.52342 17.95185
#
# Velocity S-wave (km/s) = 3.64349 3.76140 3.70292
# Velocity P-wave (km/s) = 6.36551 6.51069 6.43851
#
# Compressibility (1/GPa) = 0.03347097
#
# Stress axis : x y z
#
# Youngs Moduli (GPa) = 40.60098 40.60098 75.00690
#
# Poissons Ratio (x) = 0.36245 0.21127
# Poissons Ratio (y) = 0.36245 0.21127
# Poissons Ratio (z) = 0.11436 0.11436
#
# Static dielectric constant tensor:
#      x y z
#    x 2.456410 0.000000 0.000000 
#    y 0.000000 2.456410 0.000000 
#    z 0.000000 0.000000 2.812210 
# 
# 
# High freq. dielectric constant tensor:
#      x y z
#    x 1.464310 0.000000 0.000000 
#    y 0.000000 1.464310 0.000000 
#    z 0.000000 0.000000 1.525700 
# 
# From -- ./inp_files/1708.got.cif
#   From: 2010.03.12/outbox.cif.g09.slc.cpg/sg180_1_cif.got.tgz:1708.got - 2010.04.01 11:35:50.
