data_PCOD8326014
_publ_section_title
;
Structure prediction by ZEFSAII (Michael W. Deem and Ramdas Pophale) SiO2 
 PCOD8326014
Probable space group: P 65 2 2
;
_chemical_formula_sum "Si O2"
_cell_formula_units_Z 84
_cell_length_a 14.805649
_cell_length_b 14.805649
_cell_length_c 26.803000
_cell_angle_alpha 90.000000
_cell_angle_beta 90.000000
_cell_angle_gamma 120.000000
_cell_volume 5088.255803
_symmetry_space_group_name_H-M "P 65 2 2"
_symmetry_group_IT_number 179
_symmetry_cell_setting 'hexagonal'
loop_
_space_group_symop_operation_xyz
x,y,z
x-y,x,5/6+z
-y,x-y,2/3+z
-x,-y,1/2+z
-x+y,-x,1/3+z
y,-x+y,1/6+z
x-y,-y,-z
-x,-x+y,1/3-z
y,x,2/3-z
-y,-x,1/6-z
-x+y,y,1/2-z
x,x-y,5/6-z
loop_
_atom_site_type_symbol
_atom_site_label
_atom_site_fract_x
_atom_site_fract_y
_atom_site_fract_z
Si Si1 0.503189 0.694441 0.283298
Si Si2 0.480321 0.480321 0.833334
Si Si3 0.656596 0.581328 0.477111
Si Si4 0.114936 0.486817 0.077989
Si Si5 0.471529 0.314955 0.583254
Si Si6 0.298410 0.454262 0.706053
Si Si7 0.547930 0.273965 0.416667
Si Si8 0.368766 0.443256 0.186300
O O1 0.548678 0.625411 0.305436
O O2 0.559601 0.728403 0.228647
O O3 0.535290 0.793438 0.318277
O O4 0.377913 0.624276 0.280801
O O5 0.514406 0.574348 0.795729
O O6 0.700449 0.592859 0.532854
O O7 0.643179 0.680366 0.462972
O O8 0.542905 0.482075 0.475252
O O9 0.210239 0.472762 0.093440
O O10 0.159688 0.596667 0.049454
O O11 0.031833 0.385978 0.045365
O O12 0.589749 0.410252 0.583334
O O13 0.411361 0.333258 0.537490
O O14 0.215563 0.431126 0.750000
O O15 0.469838 0.181682 0.380161
#
# Coordination Sequence:
#
# PCOD8326014 Si02
#       8
#    12   6  12  12  12  12   6  12
#     4  11  20  31  49  69 100 138 173 212 244 305
#     4  12  18  34  48  70 106 126 178 226 248 288
#     4   9  20  36  43  70 103 131 172 221 249 286
#     4  11  21  32  51  75  99 139 175 217 253 298
#     4  10  21  34  51  68 102 142 175 204 252 315
#     4  11  20  31  51  74  96 139 180 206 252 297
#     4  10  18  32  46  72  96 132 174 208 250 306
#     4   9  19  33  46  68 101 130 167 216 253 288
#
# _framework density 16.508603999999998
#
# number of rings (size 3 to 8) (size 9 to 14) (size 15 to 20)
#    0.000    1.714    5.714    1.286    6.000    1.143 
#    3.857    0.000    0.000    0.000    0.000    0.000 
#    0.000    0.000   34.000    0.000    0.000    0.000 
#
# Total GULP energy -1041163.334801 kJ/mol
# GULP energy per Si atom -12394.801605 kJ/mol
# Density = 1.647103 g / cm^3
# Si number density = 16.508604 Si / 1000 Ang^3
#
#
#
# Elastic Constant Matrix: (Units=GPa)
#
#
# Indices 1 2 3 4 5 6 
#
# 1 61.6575 20.0165 34.5710 0.0000 0.0000 0.0000
# 2 20.0165 61.6575 34.5710 0.0000 0.0000 0.0000
# 3 34.5710 34.5710 133.9039 0.0000 0.0000 0.0000
# 4 0.0000 0.0000 0.0000 23.1575 0.0000 0.0000
# 5 0.0000 0.0000 0.0000 0.0000 23.1575 0.0000
# 6 0.0000 0.0000 0.0000 0.0000 0.0000 20.8205
#
#
#
# Elastic Compliance Matrix: (Units=1/GPa)
#
#
# Indices 1 2 3 4 5 6 
#
# 1 0.019842 -0.004173 -0.004045 0.000000 0.000000 0.000000
# 2 -0.004173 0.019842 -0.004045 0.000000 0.000000 0.000000
# 3 -0.004045 -0.004045 0.009557 0.000000 0.000000 0.000000
# 4 0.000000 0.000000 0.000000 0.043183 0.000000 0.000000
# 5 0.000000 0.000000 0.000000 0.000000 0.043183 0.000000
# 6 0.000000 0.000000 0.000000 0.000000 0.000000 0.048030
#
#
# Mechanical properties :
#
#
# Convention : Reuss Voigt Hill
#
# Bulk Modulus (GPa) = 40.46516 48.39285 44.42901
# Shear Modulus (GPa) = 23.10544 24.63115 23.86830
#
# Velocity S-wave (km/s) = 3.74518 3.86686 3.80651
# Velocity P-wave (km/s) = 6.57774 7.02240 6.80370
#
# Compressibility (1/GPa) = 0.02471262
#
# Stress axis : x y z
#
# Youngs Moduli (GPa) = 50.39930 50.39930 104.63754
#
# Poissons Ratio (x) = 0.21033 0.42328
# Poissons Ratio (y) = 0.21033 0.42328
# Poissons Ratio (z) = 0.20388 0.20388
#
# Static dielectric constant tensor:
#      x y z
#    x 3.017430 0.000000 0.000000 
#    y 0.000000 3.017430 0.000000 
#    z 0.000000 0.000000 3.589370 
# 
# 
# High freq. dielectric constant tensor:
#      x y z
#    x 1.603390 0.000000 0.000000 
#    y 0.000000 1.603390 0.000000 
#    z 0.000000 0.000000 1.662210 
# 
# From -- ./inp_files/9028.got.cif
#   From: 2010.03.12/outbox.cif.g09.slc.cpg/sg179_5_cif.got.tgz:9028.got - 2010.04.02 07:08:42.
