data_PCOD8326140
_publ_section_title
;
Structure prediction by ZEFSAII (Michael W. Deem and Ramdas Pophale) SiO2 
 PCOD8326140
Probable space group: P 62 2 2
;
_chemical_formula_sum "Si O2"
_cell_formula_units_Z 54
_cell_length_a 11.664376
_cell_length_b 11.664376
_cell_length_c 22.330983
_cell_angle_alpha 90.000000
_cell_angle_beta 90.000000
_cell_angle_gamma 120.000000
_cell_volume 2631.246248
_symmetry_space_group_name_H-M "P 62 2 2"
_symmetry_group_IT_number 180
_symmetry_cell_setting 'hexagonal'
loop_
_space_group_symop_operation_xyz
x,y,z
x-y,x,1/3+z
-y,x-y,2/3+z
-x,-y,z
-x+y,-x,1/3+z
y,-x+y,2/3+z
x-y,-y,-z
-x,-x+y,1/3-z
y,x,2/3-z
-y,-x,2/3-z
-x+y,y,-z
x,x-y,1/3-z
loop_
_atom_site_type_symbol
_atom_site_label
_atom_site_fract_x
_atom_site_fract_y
_atom_site_fract_z
Si Si1 0.351344 0.393477 0.894352
Si Si2 0.166078 0.513102 0.902610
Si Si3 0.221705 0.418154 0.430186
Si Si4 0.000000 0.500000 0.539301
Si Si5 0.276281 0.269040 0.652916
O O1 0.500000 0.500000 0.888852
O O2 0.306131 0.306131 0.833334
O O3 0.282925 0.481166 0.903429
O O4 0.330545 0.293330 0.948058
O O5 0.215968 0.665333 0.918752
O O6 0.099461 0.479345 0.837143
O O7 0.063953 0.416831 0.952370
O O8 0.188855 0.377710 0.500000
O O9 0.371552 0.450311 0.418278
O O10 0.120227 0.295355 0.387261
O O11 0.228283 0.114142 0.666667
#
# Coordination Sequence:
#
# PCOD8326140 Si02
#       5
#    12  12  12   6  12
#     4  10  22  32  52  88 129 170 210 268 329 379
#     4  10  18  34  58  90 131 169 211 264 327 399
#     4  10  18  32  59  93 137 171 218 262 328 395
#     4  10  20  30  60  91 133 178 206 266 328 398
#     4  10  19  36  60  94 127 169 219 266 326 398
#
# _framework density 20.522593000000001
#
# number of rings (size 3 to 8) (size 9 to 14) (size 15 to 20)
#    0.000    2.000    4.444    1.333    9.333    0.000 
#    0.000    0.000    0.000    2.667    0.000   17.111 
#    0.000    0.000    8.000    0.000    0.000    0.000 
#
# Total GULP energy -668990.791253 kJ/mol
# GULP energy per Si atom -12388.718357 kJ/mol
# Density = 2.047588 g / cm^3
# Si number density = 20.522593 Si / 1000 Ang^3
#
#
#
# Elastic Constant Matrix: (Units=GPa)
#
#
# Indices 1 2 3 4 5 6 
#
# 1 81.8393 55.2002 41.9878 0.0000 0.0000 0.0000
# 2 55.2002 81.8393 41.9878 0.0000 0.0000 0.0000
# 3 41.9878 41.9878 140.0990 0.0000 0.0000 0.0000
# 4 0.0000 0.0000 0.0000 35.2694 0.0000 0.0000
# 5 0.0000 0.0000 0.0000 0.0000 35.2694 0.0000
# 6 0.0000 0.0000 0.0000 0.0000 0.0000 13.3195
#
#
#
# Elastic Compliance Matrix: (Units=1/GPa)
#
#
# Indices 1 2 3 4 5 6 
#
# 1 0.023239 -0.014300 -0.002679 0.000000 0.000000 0.000000
# 2 -0.014300 0.023239 -0.002679 0.000000 0.000000 0.000000
# 3 -0.002679 -0.002679 0.008744 0.000000 0.000000 0.000000
# 4 0.000000 0.000000 0.000000 0.028353 0.000000 0.000000
# 5 0.000000 0.000000 0.000000 0.000000 0.028353 0.000000
# 6 0.000000 0.000000 0.000000 0.000000 0.000000 0.075078
#
#
# Mechanical properties :
#
#
# Convention : Reuss Voigt Hill
#
# Bulk Modulus (GPa) = 62.87208 64.68104 63.77656
# Shear Modulus (GPa) = 21.58679 27.74512 24.66595
#
# Velocity S-wave (km/s) = 3.24675 3.68085 3.47059
# Velocity P-wave (km/s) = 6.69008 7.04630 6.87050
#
# Compressibility (1/GPa) = 0.01590531
#
# Stress axis : x y z
#
# Youngs Moduli (GPa) = 43.03140 43.03140 114.36952
#
# Poissons Ratio (x) = 0.61535 0.30639
# Poissons Ratio (y) = 0.61535 0.30639
# Poissons Ratio (z) = 0.11528 0.11528
#
# Static dielectric constant tensor:
#      x y z
#    x 3.608970 0.000000 0.000000 
#    y 0.000000 3.608970 0.000000 
#    z 0.000000 0.000000 3.188590 
# 
# 
# High freq. dielectric constant tensor:
#      x y z
#    x 1.783280 0.000000 0.000000 
#    y 0.000000 1.783280 0.000000 
#    z 0.000000 0.000000 1.803130 
# 
# From -- ./inp_files/8895.got.cif
#   From: 2010.03.12/outbox.cif.g09.slc.cpg/sg180_5_cif.got.tgz:8895.got - 2010.04.01 11:35:50.
