data_PCOD8326008
_publ_section_title
;
Structure prediction by ZEFSAII (Michael W. Deem and Ramdas Pophale) SiO2 
 PCOD8326008
Probable space group: P 65 2 2
;
_chemical_formula_sum "Si O2"
_cell_formula_units_Z 60
_cell_length_a 20.394835
_cell_length_b 20.394835
_cell_length_c 8.332363
_cell_angle_alpha 90.000000
_cell_angle_beta 90.000000
_cell_angle_gamma 120.000000
_cell_volume 3001.505930
_symmetry_space_group_name_H-M "P 65 2 2"
_symmetry_group_IT_number 179
_symmetry_cell_setting 'hexagonal'
loop_
_space_group_symop_operation_xyz
x,y,z
x-y,x,5/6+z
-y,x-y,2/3+z
-x,-y,1/2+z
-x+y,-x,1/3+z
y,-x+y,1/6+z
x-y,-y,-z
-x,-x+y,1/3-z
y,x,2/3-z
-y,-x,1/6-z
-x+y,y,1/2-z
x,x-y,5/6-z
loop_
_atom_site_type_symbol
_atom_site_label
_atom_site_fract_x
_atom_site_fract_y
_atom_site_fract_z
Si Si1 0.146167 0.310362 0.434257
Si Si2 0.000000 0.446741 0.666667
Si Si3 0.852063 0.902591 0.676534
Si Si4 0.687691 0.572348 0.937255
Si Si5 0.947769 0.331448 0.933863
Si Si6 0.554300 0.108599 0.750000
O O1 0.143885 0.287769 0.250000
O O2 0.135061 0.237371 0.533049
O O3 0.223488 0.387920 0.477723
O O4 0.076775 0.324932 0.465767
O O5 0.055330 0.433358 0.550840
O O6 0.055388 0.521304 0.762759
O O7 0.894966 0.888056 0.530849
O O8 0.863006 0.863006 0.833334
O O9 0.674032 0.564947 0.744241
O O10 0.661786 0.628725 0.006037
O O11 0.643651 0.490394 0.032943
#
# Coordination Sequence:
#
# PCOD8326008 Si02
#       6
#    12   6  12  12  12   6
#     4  10  17  29  49  73  98 128 174 225 270 309
#     4  10  18  32  50  72 104 132 156 202 246 316
#     4  10  18  28  47  68  93 137 191 242 274 309
#     4   9  18  29  50  75 101 128 163 210 254 314
#     4   9  18  30  48  72 104 130 168 206 254 306
#     4  10  18  32  48  74 102 128 158 190 256 308
#
# _framework density 19.989965000000002
#
# number of rings (size 3 to 8) (size 9 to 14) (size 15 to 20)
#    0.000    2.400    2.000    3.600    2.800    0.000 
#    0.000    4.000   11.000    0.000    0.000    0.000 
#   60.000    0.000    0.000    0.000    0.000    0.000 
#
# Total GULP energy -743475.047022 kJ/mol
# GULP energy per Si atom -12391.250784 kJ/mol
# Density = 1.994447 g / cm^3
# Si number density = 19.989965 Si / 1000 Ang^3
#
#
#
# Elastic Constant Matrix: (Units=GPa)
#
#
# Indices 1 2 3 4 5 6 
#
# 1 98.3657 42.2889 21.1797 0.0000 0.0000 0.0000
# 2 42.2889 98.3657 21.1797 0.0000 0.0000 0.0000
# 3 21.1797 21.1797 58.6559 0.0000 0.0000 0.0000
# 4 0.0000 0.0000 0.0000 17.7286 0.0000 0.0000
# 5 0.0000 0.0000 0.0000 0.0000 17.7286 0.0000
# 6 0.0000 0.0000 0.0000 0.0000 0.0000 28.0384
#
#
#
# Elastic Compliance Matrix: (Units=1/GPa)
#
#
# Indices 1 2 3 4 5 6 
#
# 1 0.012905 -0.004928 -0.002880 0.000000 0.000000 0.000000
# 2 -0.004928 0.012905 -0.002880 0.000000 0.000000 0.000000
# 3 -0.002880 -0.002880 0.019129 0.000000 0.000000 0.000000
# 4 0.000000 0.000000 0.000000 0.056406 0.000000 0.000000
# 5 0.000000 0.000000 0.000000 0.000000 0.056406 0.000000
# 6 0.000000 0.000000 0.000000 0.000000 0.000000 0.035665
#
#
# Mechanical properties :
#
#
# Convention : Reuss Voigt Hill
#
# Bulk Modulus (GPa) = 42.44250 47.18709 44.81480
# Shear Modulus (GPa) = 22.45707 24.08170 23.26939
#
# Velocity S-wave (km/s) = 3.35538 3.47463 3.41552
# Velocity P-wave (km/s) = 6.02407 6.30508 6.16618
#
# Compressibility (1/GPa) = 0.02356129
#
# Stress axis : x y z
#
# Youngs Moduli (GPa) = 77.49004 77.49004 52.27737
#
# Poissons Ratio (x) = 0.38186 0.15058
# Poissons Ratio (y) = 0.38186 0.15058
# Poissons Ratio (z) = 0.22320 0.22320
#
# Static dielectric constant tensor:
#      x y z
#    x 3.643000 0.000000 0.000000 
#    y 0.000000 3.643000 0.000000 
#    z 0.000000 0.000000 4.146280 
# 
# 
# High freq. dielectric constant tensor:
#      x y z
#    x 1.759410 0.000000 0.000000 
#    y 0.000000 1.759410 0.000000 
#    z 0.000000 0.000000 1.763640 
# 
# From -- ./inp_files/3257.got.cif
#   From: 2010.03.12/outbox.cif.g09.slc.cpg/sg179_2_cif.got.tgz:3257.got - 2010.04.02 07:08:42.
