data_PCOD8326042
_publ_section_title
;
Structure prediction by ZEFSAII (Michael W. Deem and Ramdas Pophale) SiO2 
 PCOD8326042
Probable space group: P 65 2 2
;
_chemical_formula_sum "Si O2"
_cell_formula_units_Z 48
_cell_length_a 16.157991
_cell_length_b 16.157991
_cell_length_c 10.995762
_cell_angle_alpha 90.000000
_cell_angle_beta 90.000000
_cell_angle_gamma 120.000000
_cell_volume 2486.169227
_symmetry_space_group_name_H-M "P 65 2 2"
_symmetry_group_IT_number 179
_symmetry_cell_setting 'hexagonal'
loop_
_space_group_symop_operation_xyz
x,y,z
x-y,x,5/6+z
-y,x-y,2/3+z
-x,-y,1/2+z
-x+y,-x,1/3+z
y,-x+y,1/6+z
x-y,-y,-z
-x,-x+y,1/3-z
y,x,2/3-z
-y,-x,1/6-z
-x+y,y,1/2-z
x,x-y,5/6-z
loop_
_atom_site_type_symbol
_atom_site_label
_atom_site_fract_x
_atom_site_fract_y
_atom_site_fract_z
Si Si1 0.140762 0.000000 0.000000
Si Si2 0.643941 0.962943 0.206760
Si Si3 0.000000 0.536241 0.666667
Si Si4 0.469212 0.144004 0.949059
Si Si5 0.877813 0.675949 0.016373
O O1 0.101988 0.050994 0.916667
O O2 0.152501 0.918445 0.936411
O O3 0.591181 0.918748 0.334382
O O4 0.654515 0.880708 0.136396
O O5 0.747498 0.054179 0.234827
O O6 0.591416 0.003131 0.122557
O O7 0.899255 0.435596 0.655313
O O8 0.518456 0.259228 0.916667
O O9 0.408132 0.127817 0.068665
#
# Coordination Sequence:
#
# PCOD8326042 Si02
#       5
#     6  12   6  12  12
#     4  12  19  34  63  92 116 158 202 248 305 360
#     4  11  22  36  64  92 126 164 216 259 329 400
#     4  12  23  38  63  92 130 176 198 274 349 376
#     4  10  20  37  65  94 115 160 225 268 306 385
#     4  11  19  37  65  94 114 160 220 259 300 392
#
# _framework density 19.306812000000001
#
# number of rings (size 3 to 8) (size 9 to 14) (size 15 to 20)
#    0.000    1.000    7.500    1.500    0.000    1.000 
#    0.000    1.250   22.000    0.000    0.000    0.000 
#    0.000    0.000    0.000    0.000    0.000    0.000 
#
# Total GULP energy -594659.012421 kJ/mol
# GULP energy per Si atom -12388.729425 kJ/mol
# Density = 1.926287 g / cm^3
# Si number density = 19.306812 Si / 1000 Ang^3
#
#
#
# Elastic Constant Matrix: (Units=GPa)
#
#
# Indices 1 2 3 4 5 6 
#
# 1 117.2509 56.1739 43.2243 0.0000 0.0000 0.0000
# 2 56.1739 117.2509 43.2243 0.0000 0.0000 0.0000
# 3 43.2243 43.2243 44.6120 0.0000 0.0000 0.0000
# 4 0.0000 0.0000 0.0000 31.7047 0.0000 0.0000
# 5 0.0000 0.0000 0.0000 0.0000 31.7047 0.0000
# 6 0.0000 0.0000 0.0000 0.0000 0.0000 30.5385
#
#
#
# Elastic Compliance Matrix: (Units=1/GPa)
#
#
# Indices 1 2 3 4 5 6 
#
# 1 0.013763 -0.002610 -0.010806 0.000000 0.000000 0.000000
# 2 -0.002610 0.013763 -0.010806 0.000000 0.000000 0.000000
# 3 -0.010806 -0.010806 0.043355 0.000000 0.000000 0.000000
# 4 0.000000 0.000000 0.000000 0.031541 0.000000 0.000000
# 5 0.000000 0.000000 0.000000 0.000000 0.031541 0.000000
# 6 0.000000 0.000000 0.000000 0.000000 0.000000 0.032746
#
#
# Mechanical properties :
#
#
# Convention : Reuss Voigt Hill
#
# Bulk Modulus (GPa) = 44.56912 62.70655 53.63784
# Shear Modulus (GPa) = 22.45884 27.88899 25.17391
#
# Velocity S-wave (km/s) = 3.41436 3.80480 3.61486
# Velocity P-wave (km/s) = 6.21921 7.20080 6.72793
#
# Compressibility (1/GPa) = 0.02243706
#
# Stress axis : x y z
#
# Youngs Moduli (GPa) = 72.66027 72.66027 23.06563
#
# Poissons Ratio (x) = 0.18965 0.24924
# Poissons Ratio (y) = 0.18965 0.24924
# Poissons Ratio (z) = 0.78514 0.78514
#
# Static dielectric constant tensor:
#      x y z
#    x 3.668500 0.000000 0.000000 
#    y 0.000000 3.668500 0.000000 
#    z 0.000000 0.000000 3.365870 
# 
# 
# High freq. dielectric constant tensor:
#      x y z
#    x 1.747220 0.000000 0.000000 
#    y 0.000000 1.747220 0.000000 
#    z 0.000000 0.000000 1.737170 
# 
# From -- ./inp_files/4303.got.cif
#   From: 2010.03.12/outbox.cif.g09.slc.cpg/sg179_3_cif.got.tgz:4303.got - 2010.04.02 07:08:42.
