data_PCOD8326191
_publ_section_title
;
Structure prediction by ZEFSAII (Michael W. Deem and Ramdas Pophale) SiO2 
 PCOD8326191
Probable space group: P 62 2 2
;
_chemical_formula_sum "Si O2"
_cell_formula_units_Z 45
_cell_length_a 11.753862
_cell_length_b 11.753862
_cell_length_c 19.403496
_cell_angle_alpha 90.000000
_cell_angle_beta 90.000000
_cell_angle_gamma 120.000000
_cell_volume 2321.516592
_symmetry_space_group_name_H-M "P 62 2 2"
_symmetry_group_IT_number 180
_symmetry_cell_setting 'hexagonal'
loop_
_space_group_symop_operation_xyz
x,y,z
x-y,x,1/3+z
-y,x-y,2/3+z
-x,-y,z
-x+y,-x,1/3+z
y,-x+y,2/3+z
x-y,-y,-z
-x,-x+y,1/3-z
y,x,2/3-z
-y,-x,2/3-z
-x+y,y,-z
x,x-y,1/3-z
loop_
_atom_site_type_symbol
_atom_site_label
_atom_site_fract_x
_atom_site_fract_y
_atom_site_fract_z
Si Si1 0.090730 0.438328 0.363264
Si Si2 0.711006 0.422012 0.000000
Si Si3 0.068217 0.362908 0.097592
Si Si4 0.000000 0.000000 0.666667
Si Si5 0.190175 0.009492 0.227085
O O1 0.238384 0.562245 0.358905
O O2 0.074974 0.346193 0.427770
O O3 0.000000 0.500000 0.378294
O O4 0.045704 0.350873 0.293505
O O5 0.806318 0.508914 0.063579
O O6 0.117831 0.263698 0.119618
O O7 0.000000 0.383767 0.166667
O O8 0.908569 0.868151 0.626390
O O9 0.159789 0.079895 0.166667
#
# Coordination Sequence:
#
# PCOD8326191 Si02
#       5
#    12   6  12   3  12
#     4  10  20  42  62  88 130 166 213 271 329 391
#     4  10  21  40  68  88 134 175 212 278 322 394
#     4  11  20  38  64  97 123 163 222 269 326 394
#     4  12  20  40  64  92 124 166 214 266 326 378
#     4  12  23  37  63  95 127 168 210 273 332 390
#
# _framework density 19.383882
#
# number of rings (size 3 to 8) (size 9 to 14) (size 15 to 20)
#    0.000    1.067    8.000    2.000    0.000    4.800 
#    4.800    0.000    0.000    0.000    0.000    0.000 
#    0.000    0.000    0.000    0.000    0.000    0.000 
#
# Total GULP energy -557517.198791 kJ/mol
# GULP energy per Si atom -12389.271084 kJ/mol
# Density = 1.933976 g / cm^3
# Si number density = 19.383882 Si / 1000 Ang^3
#
#
#
# Elastic Constant Matrix: (Units=GPa)
#
#
# Indices 1 2 3 4 5 6 
#
# 1 105.1082 44.2854 31.9694 0.0000 0.0000 0.0000
# 2 44.2854 105.1082 31.9694 0.0000 0.0000 0.0000
# 3 31.9694 31.9694 90.1079 0.0000 0.0000 0.0000
# 4 0.0000 0.0000 0.0000 31.5948 0.0000 0.0000
# 5 0.0000 0.0000 0.0000 0.0000 31.5948 0.0000
# 6 0.0000 0.0000 0.0000 0.0000 0.0000 30.4114
#
#
#
# Elastic Compliance Matrix: (Units=1/GPa)
#
#
# Indices 1 2 3 4 5 6 
#
# 1 0.012167 -0.004275 -0.002800 0.000000 0.000000 0.000000
# 2 -0.004275 0.012167 -0.002800 0.000000 0.000000 0.000000
# 3 -0.002800 -0.002800 0.013085 0.000000 0.000000 0.000000
# 4 0.000000 0.000000 0.000000 0.031651 0.000000 0.000000
# 5 0.000000 0.000000 0.000000 0.000000 0.031651 0.000000
# 6 0.000000 0.000000 0.000000 0.000000 0.000000 0.032882
#
#
# Mechanical properties :
#
#
# Convention : Reuss Voigt Hill
#
# Bulk Modulus (GPa) = 56.59723 57.41921 57.00822
# Shear Modulus (GPa) = 31.39898 31.52686 31.46292
#
# Velocity S-wave (km/s) = 4.02910 4.03730 4.03320
# Velocity P-wave (km/s) = 7.13487 7.17074 7.15283
#
# Compressibility (1/GPa) = 0.01766871
#
# Stress axis : x y z
#
# Youngs Moduli (GPa) = 82.19181 82.19181 76.42534
#
# Poissons Ratio (x) = 0.35133 0.21399
# Poissons Ratio (y) = 0.35133 0.21399
# Poissons Ratio (z) = 0.23014 0.23014
#
# Static dielectric constant tensor:
#      x y z
#    x 3.533240 0.000000 0.000000 
#    y 0.000000 3.533240 0.000000 
#    z 0.000000 0.000000 3.359060 
# 
# 
# High freq. dielectric constant tensor:
#      x y z
#    x 1.750480 0.000000 0.000000 
#    y 0.000000 1.750480 0.000000 
#    z 0.000000 0.000000 1.742930 
# 
# From -- ./inp_files/7382.got.cif
#   From: 2010.03.12/outbox.cif.g09.slc.cpg/sg180_4_cif.got.tgz:7382.got - 2010.04.01 11:35:50.
