data_PCOD8326139
_publ_section_title
;
Structure prediction by ZEFSAII (Michael W. Deem and Ramdas Pophale) SiO2 
 PCOD8326139
Probable space group: P 62 2 2
;
_chemical_formula_sum "Si O2"
_cell_formula_units_Z 72
_cell_length_a 15.322208
_cell_length_b 15.322208
_cell_length_c 17.966069
_cell_angle_alpha 90.000000
_cell_angle_beta 90.000000
_cell_angle_gamma 120.000000
_cell_volume 3652.804273
_symmetry_space_group_name_H-M "P 62 2 2"
_symmetry_group_IT_number 180
_symmetry_cell_setting 'hexagonal'
loop_
_space_group_symop_operation_xyz
x,y,z
x-y,x,1/3+z
-y,x-y,2/3+z
-x,-y,z
-x+y,-x,1/3+z
y,-x+y,2/3+z
x-y,-y,-z
-x,-x+y,1/3-z
y,x,2/3-z
-y,-x,2/3-z
-x+y,y,-z
x,x-y,1/3-z
loop_
_atom_site_type_symbol
_atom_site_label
_atom_site_fract_x
_atom_site_fract_y
_atom_site_fract_z
Si Si1 0.643135 0.727105 0.652885
Si Si2 0.117360 0.560752 0.990442
Si Si3 0.127217 0.381644 0.565199
Si Si4 0.096826 0.377903 0.812531
Si Si5 0.619236 0.864599 0.374818
Si Si6 0.608183 0.404306 0.497445
O O1 0.689098 0.844549 0.666667
O O2 0.527410 0.666240 0.686009
O O3 0.642758 0.709496 0.565030
O O4 0.716849 0.698107 0.694474
O O5 0.146935 0.653943 0.046871
O O6 0.172901 0.611109 0.914948
O O7 0.000000 0.500000 0.970873
O O8 0.170023 0.340046 0.500000
O O9 0.168288 0.370397 0.644097
O O10 0.163920 0.498127 0.553709
O O11 0.005574 0.320336 0.567167
O O12 0.181048 0.349993 0.784889
O O13 0.154837 0.497557 0.796204
O O14 0.672798 0.345596 0.500000
#
# Coordination Sequence:
#
# PCOD8326139 Si02
#       6
#    12  12  12  12  12  12
#     4  10  22  40  60  80 113 161 198 247 308 359
#     4   9  17  34  55  78 111 156 193 229 295 359
#     4  11  18  36  59  84 121 159 190 239 303 360
#     4  11  23  35  58  90 117 154 204 245 298 368
#     4  11  21  36  60  89 116 152 201 249 298 363
#     4  10  18  32  55  82 124 163 190 233 289 361
#
# _framework density 19.710882999999999
#
# number of rings (size 3 to 8) (size 9 to 14) (size 15 to 20)
#    0.000    1.667    5.000    3.000    0.000    4.000 
#    0.000    1.667    0.000    5.000    0.000    0.000 
#    0.000    0.000    0.000    0.000    0.000    0.000 
#
# Total GULP energy -892171.816461 kJ/mol
# GULP energy per Si atom -12391.275229 kJ/mol
# Density = 1.966602 g / cm^3
# Si number density = 19.710883 Si / 1000 Ang^3
#
#
#
# Elastic Constant Matrix: (Units=GPa)
#
#
# Indices 1 2 3 4 5 6 
#
# 1 102.8143 58.9966 12.7884 0.0000 0.0000 0.0000
# 2 58.9966 102.8143 12.7884 0.0000 0.0000 0.0000
# 3 12.7884 12.7884 11.9690 0.0000 0.0000 0.0000
# 4 0.0000 0.0000 0.0000 27.4976 0.0000 0.0000
# 5 0.0000 0.0000 0.0000 0.0000 27.4976 0.0000
# 6 0.0000 0.0000 0.0000 0.0000 0.0000 21.9089
#
#
#
# Elastic Compliance Matrix: (Units=1/GPa)
#
#
# Indices 1 2 3 4 5 6 
#
# 1 0.015129 -0.007693 -0.007945 0.000000 0.000000 0.000000
# 2 -0.007693 0.015129 -0.007945 0.000000 0.000000 0.000000
# 3 -0.007945 -0.007945 0.100526 0.000000 0.000000 0.000000
# 4 0.000000 0.000000 0.000000 0.036367 0.000000 0.000000
# 5 0.000000 0.000000 0.000000 0.000000 0.036367 0.000000
# 6 0.000000 0.000000 0.000000 0.000000 0.000000 0.045644
#
#
# Mechanical properties :
#
#
# Convention : Reuss Voigt Hill
#
# Bulk Modulus (GPa) = 11.95907 42.97159 27.46533
# Shear Modulus (GPa) = 15.42260 24.24910 19.83585
#
# Velocity S-wave (km/s) = 2.80025 3.51128 3.17573
# Velocity P-wave (km/s) = 4.06640 6.18765 5.23558
#
# Compressibility (1/GPa) = 0.08361854
#
# Stress axis : x y z
#
# Youngs Moduli (GPa) = 66.09897 66.09897 9.94764
#
# Poissons Ratio (x) = 0.50850 0.07903
# Poissons Ratio (y) = 0.50850 0.07903
# Poissons Ratio (z) = 0.52515 0.52515
#
# Static dielectric constant tensor:
#      x y z
#    x 3.854310 0.000000 0.000000 
#    y 0.000000 3.854310 0.000000 
#    z 0.000000 0.000000 3.377440 
# 
# 
# High freq. dielectric constant tensor:
#      x y z
#    x 1.764780 0.000000 0.000000 
#    y 0.000000 1.764780 0.000000 
#    z 0.000000 0.000000 1.745650 
# 
# From -- ./inp_files/7764.got.cif
#   From: 2010.03.12/outbox.cif.g09.slc.cpg/sg180_4_cif.got.tgz:7764.got - 2010.04.01 11:35:50.
