data_PCOD8326650
_publ_section_title
;
Structure prediction by ZEFSAII (Michael W. Deem and Ramdas Pophale) SiO2 
 PCOD8326650
Probable space group: P 63 C M
;
_chemical_formula_sum "Si O2"
_cell_formula_units_Z 72
_cell_length_a 23.789441
_cell_length_b 23.789441
_cell_length_c 9.450966
_cell_angle_alpha 90.000000
_cell_angle_beta 90.000000
_cell_angle_gamma 120.000000
_cell_volume 4632.072059
_symmetry_space_group_name_H-M "P 63 C M"
_symmetry_group_IT_number 185
_symmetry_cell_setting 'hexagonal'
loop_
_space_group_symop_operation_xyz
x,y,z
x-y,x,1/2+z
-y,x-y,z
-x,-y,1/2+z
-x+y,-x,z
y,-x+y,1/2+z
-x+y,y,1/2+z
x,x-y,1/2+z
-y,-x,1/2+z
y,x,z
x-y,-y,z
-x,-x+y,z
loop_
_atom_site_type_symbol
_atom_site_label
_atom_site_fract_x
_atom_site_fract_y
_atom_site_fract_z
Si Si1 0.923021 0.287440 0.285450
Si Si2 0.181681 0.923886 0.462044
Si Si3 0.076955 0.487970 0.967097
Si Si4 0.588986 0.076955 0.786798
Si Si5 0.076979 0.364420 0.968446
Si Si6 0.257795 0.181681 0.291851
O O1 0.900014 0.229295 0.397476
O O2 0.897763 0.336507 0.335183
O O3 0.000000 0.327555 0.279827
O O4 0.897014 0.260221 0.126948
O O5 0.171025 0.905768 0.626948
O O6 0.113797 0.886203 0.376948
O O7 0.209686 0.000000 0.437907
O O8 0.108926 0.554463 0.876948
O O9 0.102237 0.438743 0.918712
O O10 0.000000 0.451075 0.950915
O O11 0.098347 0.509425 0.126948
O O12 0.548925 0.000000 0.802980
O O13 0.099986 0.329281 0.856420
O O14 0.000000 0.327554 0.974068
O O15 0.209686 0.209686 0.315989
#
# Coordination Sequence:
#
# PCOD8326650 Si02
#       6
#    12  12  12  12  12  12
#     4   8  14  25  39  55  78 107 136 166 200 238
#     4  10  20  32  47  66  84 105 135 171 215 268
#     4   8  13  20  31  49  74 105 137 164 189 216
#     4   8  13  20  31  49  74 105 137 164 189 216
#     4   8  14  25  39  55  78 107 136 166 200 238
#     4  10  20  32  47  66  84 105 135 171 215 268
#
# _framework density 15.543801
#
# number of rings (size 3 to 8) (size 9 to 14) (size 15 to 20)
#    0.000    3.333    0.000    3.000    0.000    3.333 
#    0.000    6.667    0.000    0.333    0.000    0.000 
#    0.000    0.000    0.000    1.000    0.000   16.667 
#
# Total GULP energy -892032.378691 kJ/mol
# GULP energy per Si atom -12389.338593 kJ/mol
# Density = 1.550842 g / cm^3
# Si number density = 15.543801 Si / 1000 Ang^3
#
#
#
# Elastic Constant Matrix: (Units=GPa)
#
#
# Indices 1 2 3 4 5 6 
#
# 1 60.1009 31.3515 48.6630 0.0000 0.0000 0.0000
# 2 31.3515 60.1009 48.6630 0.0000 0.0000 0.0000
# 3 48.6630 48.6630 111.3689 0.0000 0.0000 0.0000
# 4 0.0000 0.0000 0.0000 24.0386 0.0000 0.0000
# 5 0.0000 0.0000 0.0000 0.0000 24.0386 0.0000
# 6 0.0000 0.0000 0.0000 0.0000 0.0000 14.3747
#
#
#
# Elastic Compliance Matrix: (Units=1/GPa)
#
#
# Indices 1 2 3 4 5 6 
#
# 1 0.027611 -0.007172 -0.008931 0.000000 0.000000 0.000000
# 2 -0.007172 0.027611 -0.008931 0.000000 0.000000 0.000000
# 3 -0.008931 -0.008931 0.016784 0.000000 0.000000 0.000000
# 4 0.000000 0.000000 0.000000 0.041600 0.000000 0.000000
# 5 0.000000 0.000000 0.000000 0.000000 0.041600 0.000000
# 6 0.000000 0.000000 0.000000 0.000000 0.000000 0.069567
#
#
# Mechanical properties :
#
#
# Convention : Reuss Voigt Hill
#
# Bulk Modulus (GPa) = 45.58193 54.32508 49.95350
# Shear Modulus (GPa) = 17.72086 19.34994 18.53540
#
# Velocity S-wave (km/s) = 3.38014 3.53209 3.45695
# Velocity P-wave (km/s) = 6.67999 7.18747 6.93837
#
# Compressibility (1/GPa) = 0.02193852
#
# Stress axis : x y z
#
# Youngs Moduli (GPa) = 36.21711 36.21711 59.58062
#
# Poissons Ratio (x) = 0.25975 0.53211
# Poissons Ratio (y) = 0.25975 0.53211
# Poissons Ratio (z) = 0.32345 0.32345
#
# Static dielectric constant tensor:
#      x y z
#    x 2.931670 0.000000 0.000000 
#    y 0.000000 2.931670 0.000000 
#    z 0.000000 0.000000 3.105040 
# 
# 
# High freq. dielectric constant tensor:
#      x y z
#    x 1.561930 0.000000 0.000000 
#    y 0.000000 1.561930 0.000000 
#    z 0.000000 0.000000 1.603240 
# 
# From -- ./inp_files/610.got.cif
#   From: 2010.03.12/outbox.cif.g09.slc.cpg/sg185_cif.got.tgz:610.got - 2010.04.01 11:55:19.
