data_PCOD8326826
_publ_section_title
;
Structure prediction by ZEFSAII (Michael W. Deem and Ramdas Pophale) SiO2 
 PCOD8326826
Probable space group: P 63 M C
;
_chemical_formula_sum "Si O2"
_cell_formula_units_Z 72
_cell_length_a 22.644865
_cell_length_b 22.644865
_cell_length_c 9.570012
_cell_angle_alpha 90.000000
_cell_angle_beta 90.000000
_cell_angle_gamma 120.000000
_cell_volume 4249.937917
_symmetry_space_group_name_H-M "P 63 M C"
_symmetry_group_IT_number 186
_symmetry_cell_setting 'hexagonal'
loop_
_space_group_symop_operation_xyz
x,y,z
x-y,x,1/2+z
-y,x-y,z
-x,-y,1/2+z
-x+y,-x,z
y,-x+y,1/2+z
-x+y,y,z
x,x-y,z
-y,-x,z
y,x,1/2+z
x-y,-y,1/2+z
-x,-x+y,1/2+z
loop_
_atom_site_type_symbol
_atom_site_label
_atom_site_fract_x
_atom_site_fract_y
_atom_site_fract_z
Si Si1 0.533417 0.333135 0.665060
Si Si2 0.599442 0.664444 0.161301
Si Si3 0.934997 0.335555 0.336149
Si Si4 0.263127 0.064112 0.337293
Si Si5 0.263127 0.199015 0.660153
Si Si6 0.533417 0.200282 0.332394
O O1 0.529315 0.264658 0.725505
O O2 0.601937 0.398064 0.722091
O O3 0.468760 0.338309 0.717238
O O4 0.533594 0.330995 0.498727
O O5 0.609855 0.609855 0.248725
O O6 0.660673 0.740435 0.189247
O O7 0.593916 0.644639 0.998725
O O8 0.920237 0.259565 0.308202
O O9 0.869548 0.338308 0.280214
O O10 0.259061 0.129531 0.288369
O O11 0.243780 0.047281 0.498723
O O12 0.208506 0.000000 0.248723
O O13 0.259061 0.129531 0.709077
O O14 0.601937 0.203874 0.275363
O O15 0.529315 0.264658 0.271949
#
# Coordination Sequence:
#
# PCOD8326826 Si02
#       6
#    12  12  12  12  12  12
#     4   9  16  26  42  64  89 117 150 187 223 259
#     4   9  17  29  45  66  91 117 145 180 223 266
#     4   9  17  29  45  66  91 117 145 180 223 266
#     4   9  17  29  45  65  89 116 145 178 217 260
#     4   9  17  29  45  65  89 116 145 178 217 260
#     4   9  16  26  42  64  89 117 150 187 223 259
#
# _framework density 16.941423
#
# number of rings (size 3 to 8) (size 9 to 14) (size 15 to 20)
#    0.000    3.000    0.000    1.333    0.000    6.667 
#    0.000    0.000    0.000    3.333    0.000    0.000 
#    0.000    2.667    0.000    0.000    0.000    0.000 
#
# Total GULP energy -892821.683653 kJ/mol
# GULP energy per Si atom -12400.301162 kJ/mol
# Density = 1.690286 g / cm^3
# Si number density = 16.941423 Si / 1000 Ang^3
#
#
#
# Elastic Constant Matrix: (Units=GPa)
#
#
# Indices 1 2 3 4 5 6 
#
# 1 146.0249 90.5255 41.2218 0.0000 0.0000 0.0000
# 2 90.5255 146.0249 41.2218 0.0000 0.0000 0.0000
# 3 41.2218 41.2218 33.0282 0.0000 0.0000 0.0000
# 4 0.0000 0.0000 0.0000 19.2623 0.0000 0.0000
# 5 0.0000 0.0000 0.0000 0.0000 19.2623 0.0000
# 6 0.0000 0.0000 0.0000 0.0000 0.0000 27.7497
#
#
#
# Elastic Compliance Matrix: (Units=1/GPa)
#
#
# Indices 1 2 3 4 5 6 
#
# 1 0.012750 -0.005268 -0.009338 0.000000 0.000000 0.000000
# 2 -0.005268 0.012750 -0.009338 0.000000 0.000000 0.000000
# 3 -0.009338 -0.009338 0.053587 0.000000 0.000000 0.000000
# 4 0.000000 0.000000 0.000000 0.051915 0.000000 0.000000
# 5 0.000000 0.000000 0.000000 0.000000 0.051915 0.000000
# 6 0.000000 0.000000 0.000000 0.000000 0.000000 0.036036
#
#
# Mechanical properties :
#
#
# Convention : Reuss Voigt Hill
#
# Bulk Modulus (GPa) = 32.05318 74.55736 53.30527
# Shear Modulus (GPa) = 18.03484 23.39547 20.71515
#
# Velocity S-wave (km/s) = 3.26627 3.72016 3.50058
# Velocity P-wave (km/s) = 5.76071 7.90931 6.91892
#
# Compressibility (1/GPa) = 0.03119815
#
# Stress axis : x y z
#
# Youngs Moduli (GPa) = 78.43076 78.43076 18.66134
#
# Poissons Ratio (x) = 0.41318 0.17426
# Poissons Ratio (y) = 0.41318 0.17426
# Poissons Ratio (z) = 0.73240 0.73240
#
# Static dielectric constant tensor:
#      x y z
#    x 3.261250 0.000000 0.000000 
#    y 0.000000 3.261250 0.000000 
#    z 0.000000 0.000000 2.836690 
# 
# 
# High freq. dielectric constant tensor:
#      x y z
#    x 1.656630 0.000000 0.000000 
#    y 0.000000 1.656630 0.000000 
#    z 0.000000 0.000000 1.611000 
# 
# From -- ./inp_files/1231.got.cif
#   From: 2010.03.12/outbox.cif.g09.slc.cpg/sg186_1_cif.got.tgz:1231.got - 2010.04.01 11:56:34.
