data_PCOD8326415
_publ_section_title
;
Structure prediction by ZEFSAII (Michael W. Deem and Ramdas Pophale) SiO2 
 PCOD8326415
Probable space group: P 64 2 2
;
_chemical_formula_sum "Si O2"
_cell_formula_units_Z 78
_cell_length_a 17.268716
_cell_length_b 17.268716
_cell_length_c 14.933729
_cell_angle_alpha 90.000000
_cell_angle_beta 90.000000
_cell_angle_gamma 120.000000
_cell_volume 3856.727833
_symmetry_space_group_name_H-M "P 64 2 2"
_symmetry_group_IT_number 181
_symmetry_cell_setting 'hexagonal'
loop_
_space_group_symop_operation_xyz
x,y,z
x-y,x,2/3+z
-y,x-y,1/3+z
-x,-y,z
-x+y,-x,2/3+z
y,-x+y,1/3+z
x-y,-y,-z
-x,-x+y,2/3-z
y,x,1/3-z
-y,-x,1/3-z
-x+y,y,-z
x,x-y,2/3-z
loop_
_atom_site_type_symbol
_atom_site_label
_atom_site_fract_x
_atom_site_fract_y
_atom_site_fract_z
Si Si1 0.000000 0.188427 0.333334
Si Si2 0.175301 0.225146 0.256009
Si Si3 0.699974 0.045397 0.705634
Si Si4 0.601427 0.786243 0.517274
Si Si5 0.087078 0.457681 0.874409
Si Si6 0.533116 0.639475 0.663268
Si Si7 0.255412 0.339473 0.526724
O O1 0.083329 0.172596 0.313225
O O2 0.011908 0.253489 0.417038
O O3 0.170136 0.170136 0.166667
O O4 0.260413 0.237902 0.310899
O O5 0.184436 0.320962 0.241196
O O6 0.770030 0.133069 0.758161
O O7 0.634447 0.070294 0.648137
O O8 0.643860 0.964027 0.775218
O O9 0.532830 0.820175 0.491098
O O10 0.551285 0.694810 0.572483
O O11 0.087341 0.543671 0.833334
O O12 0.000000 0.370067 0.833334
O O13 0.584501 0.584501 0.666667
O O14 0.426765 0.573236 0.666667
O O15 0.568789 0.703971 0.749506
O O16 0.156744 0.313487 0.500000
#
# Coordination Sequence:
#
# PCOD8326415 Si02
#       7
#     6  12  12  12  12  12  12
#     4  12  22  40  63 103 146 176 220 300 336 384
#     4  12  23  39  66 101 138 182 234 289 332 399
#     4  12  21  38  71 100 124 178 234 268 331 415
#     4  12  21  42  70  96 130 177 225 268 343 413
#     4  11  25  45  63  96 134 164 217 290 334 383
#     4  11  22  42  62  96 136 164 211 281 328 392
#     4  12  21  37  69 101 130 173 227 276 335 405
#
# _framework density 20.224397
#
# number of rings (size 3 to 8) (size 9 to 14) (size 15 to 20)
#    0.000    0.308   10.000    0.462    0.000    0.000 
#    5.538    2.308    0.000   10.615    0.000    0.000 
#    0.000    0.000    0.000    0.000    0.000    0.000 
#
# Total GULP energy -966836.646763 kJ/mol
# GULP energy per Si atom -12395.341625 kJ/mol
# Density = 2.017837 g / cm^3
# Si number density = 20.224397 Si / 1000 Ang^3
#
#
#
# Elastic Constant Matrix: (Units=GPa)
#
#
# Indices 1 2 3 4 5 6 
#
# 1 97.2734 55.6848 53.3994 0.0000 0.0000 0.0000
# 2 55.6848 97.2734 53.3994 0.0000 0.0000 0.0000
# 3 53.3994 53.3994 131.1217 0.0000 0.0000 0.0000
# 4 0.0000 0.0000 0.0000 32.3537 0.0000 0.0000
# 5 0.0000 0.0000 0.0000 0.0000 32.3537 0.0000
# 6 0.0000 0.0000 0.0000 0.0000 0.0000 20.7943
#
#
#
# Elastic Compliance Matrix: (Units=1/GPa)
#
#
# Indices 1 2 3 4 5 6 
#
# 1 0.016590 -0.007455 -0.003720 0.000000 0.000000 0.000000
# 2 -0.007455 0.016590 -0.003720 0.000000 0.000000 0.000000
# 3 -0.003720 -0.003720 0.010657 0.000000 0.000000 0.000000
# 4 0.000000 0.000000 0.000000 0.030908 0.000000 0.000000
# 5 0.000000 0.000000 0.000000 0.000000 0.030908 0.000000
# 6 0.000000 0.000000 0.000000 0.000000 0.000000 0.048090
#
#
# Mechanical properties :
#
#
# Convention : Reuss Voigt Hill
#
# Bulk Modulus (GPa) = 71.19475 72.29284 71.74379
# Shear Modulus (GPa) = 26.56503 27.97933 27.27218
#
# Velocity S-wave (km/s) = 3.62818 3.72350 3.67615
# Velocity P-wave (km/s) = 7.26845 7.36946 7.31913
#
# Compressibility (1/GPa) = 0.01404598
#
# Stress axis : x y z
#
# Youngs Moduli (GPa) = 60.27643 60.27643 93.83708
#
# Poissons Ratio (x) = 0.44935 0.34911
# Poissons Ratio (y) = 0.44935 0.34911
# Poissons Ratio (z) = 0.22425 0.22425
#
# Static dielectric constant tensor:
#      x y z
#    x 3.670540 0.000000 0.000000 
#    y 0.000000 3.670540 0.000000 
#    z 0.000000 0.000000 3.972120 
# 
# 
# High freq. dielectric constant tensor:
#      x y z
#    x 1.774170 0.000000 0.000000 
#    y 0.000000 1.774170 0.000000 
#    z 0.000000 0.000000 1.804550 
# 
# From -- ./inp_files/6427.got.cif
#   From: 2010.03.12/outbox.cif.g09.slc.cpg/sg181_4_cif.got.tgz:6427.got - 2010.04.01 11:42:41.
