data_PCOD8326384
_publ_section_title
;
Structure prediction by ZEFSAII (Michael W. Deem and Ramdas Pophale) SiO2 
 PCOD8326384
Probable space group: P 64 2 2
;
_chemical_formula_sum "Si O2"
_cell_formula_units_Z 72
_cell_length_a 13.939257
_cell_length_b 13.939257
_cell_length_c 19.103069
_cell_angle_alpha 90.000000
_cell_angle_beta 90.000000
_cell_angle_gamma 120.000000
_cell_volume 3214.497014
_symmetry_space_group_name_H-M "P 64 2 2"
_symmetry_group_IT_number 181
_symmetry_cell_setting 'hexagonal'
loop_
_space_group_symop_operation_xyz
x,y,z
x-y,x,2/3+z
-y,x-y,1/3+z
-x,-y,z
-x+y,-x,2/3+z
y,-x+y,1/3+z
x-y,-y,-z
-x,-x+y,2/3-z
y,x,1/3-z
-y,-x,1/3-z
-x+y,y,-z
x,x-y,2/3-z
loop_
_atom_site_type_symbol
_atom_site_label
_atom_site_fract_x
_atom_site_fract_y
_atom_site_fract_z
Si Si1 0.500000 0.000000 0.653632
Si Si2 0.139158 0.728091 0.236334
Si Si3 0.737052 0.082525 0.703702
Si Si4 0.228157 0.107046 0.655793
Si Si5 0.530889 0.336632 0.101593
Si Si6 0.346468 0.098410 0.137665
Si Si7 0.375962 0.624039 0.666667
O O1 0.608123 0.050699 0.702967
O O2 0.471414 0.077108 0.604721
O O3 0.215901 0.784100 0.166667
O O4 0.144299 0.821602 0.287260
O O5 0.174886 0.655231 0.282867
O O6 0.011185 0.646892 0.215113
O O7 0.798313 0.201688 0.666667
O O8 0.778319 0.088190 0.782433
O O9 0.782223 0.012029 0.661259
O O10 0.117052 0.117052 0.666667
O O11 0.259698 0.147975 0.576474
O O12 0.588974 0.411027 0.166667
O O13 0.461398 0.209515 0.125370
O O14 0.615809 0.337901 0.046503
#
# Coordination Sequence:
#
# PCOD8326384 Si02
#       7
#     6  12  12  12  12  12   6
#     4  12  27  50  68  98 153 192 244 312 354 441
#     4  11  22  44  74 103 148 190 232 307 377 431
#     4  12  26  45  75 108 141 197 253 296 378 453
#     4  10  22  47  71 107 148 182 240 311 375 439
#     4  12  27  45  66  96 141 191 237 301 361 428
#     4  11  24  45  74 101 139 197 241 299 374 439
#     4  12  26  43  68 112 142 182 249 304 356 450
#
# _framework density 22.398527999999999
#
# number of rings (size 3 to 8) (size 9 to 14) (size 15 to 20)
#    0.000    0.667    5.000    1.750    3.500    3.667 
#    0.000    0.000    0.000    2.000    0.000    0.000 
#    0.000    0.000    0.000    0.000    0.000    0.000 
#
# Total GULP energy -891955.465999 kJ/mol
# GULP energy per Si atom -12388.270361 kJ/mol
# Density = 2.234755 g / cm^3
# Si number density = 22.398528 Si / 1000 Ang^3
#
#
#
# Elastic Constant Matrix: (Units=GPa)
#
#
# Indices 1 2 3 4 5 6 
#
# 1 499.4591 434.6453 351.5293 0.0000 0.0000 0.0000
# 2 434.6453 499.4591 351.5293 0.0000 0.0000 0.0000
# 3 351.5293 351.5293 402.4422 0.0000 0.0000 0.0000
# 4 0.0000 0.0000 0.0000 59.2303 0.0000 0.0000
# 5 0.0000 0.0000 0.0000 0.0000 59.2303 0.0000
# 6 0.0000 0.0000 0.0000 0.0000 0.0000 32.4069
#
#
#
# Elastic Compliance Matrix: (Units=1/GPa)
#
#
# Indices 1 2 3 4 5 6 
#
# 1 0.009277 -0.006152 -0.002730 0.000000 0.000000 0.000000
# 2 -0.006152 0.009277 -0.002730 0.000000 0.000000 0.000000
# 3 -0.002730 -0.002730 0.007254 0.000000 0.000000 0.000000
# 4 0.000000 0.000000 0.000000 0.016883 0.000000 0.000000
# 5 0.000000 0.000000 0.000000 0.000000 0.016883 0.000000
# 6 0.000000 0.000000 0.000000 0.000000 0.000000 0.030858
#
#
# Mechanical properties :
#
#
# Convention : Reuss Voigt Hill
#
# Bulk Modulus (GPa) = 386.86793 408.52984 397.69889
# Shear Modulus (GPa) = 43.66203 47.75061 45.70632
#
# Velocity S-wave (km/s) = 4.41991 4.62222 4.52220
# Velocity P-wave (km/s) = 14.11179 14.53526 14.32509
#
# Compressibility (1/GPa) = 0.00258486
#
# Stress axis : x y z
#
# Youngs Moduli (GPa) = 107.79398 107.79398 137.86182
#
# Poissons Ratio (x) = 0.66313 0.37633
# Poissons Ratio (y) = 0.66313 0.37633
# Poissons Ratio (z) = 0.29425 0.29425
#
# Static dielectric constant tensor:
#      x y z
#    x 3.979410 0.000000 0.000000 
#    y 0.000000 3.979410 0.000000 
#    z 0.000000 0.000000 4.308690 
# 
# 
# High freq. dielectric constant tensor:
#      x y z
#    x 1.880510 0.000000 0.000000 
#    y 0.000000 1.880510 0.000000 
#    z 0.000000 0.000000 1.900950 
# 
# From -- ./inp_files/7799.got.cif
#   From: 2010.03.12/outbox.cif.g09.slc.cpg/sg181_4_cif.got.tgz:7799.got - 2010.04.01 11:42:41.
