data_PCOD8326551
_publ_section_title
;
Structure prediction by ZEFSAII (Michael W. Deem and Ramdas Pophale) SiO2 
 PCOD8326551
Probable space group: P 6 M M
;
_chemical_formula_sum "Si O2"
_cell_formula_units_Z 96
_cell_length_a 17.839033
_cell_length_b 17.839033
_cell_length_c 20.245739
_cell_angle_alpha 90.000000
_cell_angle_beta 90.000000
_cell_angle_gamma 120.000000
_cell_volume 5579.649048
_symmetry_space_group_name_H-M "P 6 M M"
_symmetry_group_IT_number 183
_symmetry_cell_setting 'hexagonal'
loop_
_space_group_symop_operation_xyz
x,y,z
x-y,x,z
-y,x-y,z
-x,-y,z
-x+y,-x,z
y,-x+y,z
-x+y,y,z
x,x-y,z
-y,-x,z
y,x,z
x-y,-y,z
-x,-x+y,z
loop_
_atom_site_type_symbol
_atom_site_label
_atom_site_fract_x
_atom_site_fract_y
_atom_site_fract_z
Si Si1 0.331886 0.492670 0.762110
Si Si2 0.102111 0.633278 0.141136
Si Si3 0.266303 0.363503 0.406395
Si Si4 0.733699 0.636499 0.875878
Si Si5 0.492671 0.160786 0.520164
Si Si6 0.269008 0.366669 0.641137
Si Si7 0.902721 0.261844 0.256307
Si Si8 0.902721 0.640879 0.025967
O O1 0.262761 0.525522 0.758287
O O2 0.426875 0.573126 0.753096
O O3 0.326149 0.447359 0.832015
O O4 0.314151 0.424075 0.705088
O O5 0.145839 0.572920 0.141136
O O6 0.131510 0.691088 0.207151
O O7 0.131510 0.691089 0.075122
O O8 0.000000 0.573662 0.141136
O O9 0.164654 0.329307 0.421073
O O10 0.285924 0.285924 0.422329
O O11 0.326150 0.447360 0.450259
O O12 0.290620 0.393912 0.330644
O O13 0.835348 0.670695 0.861199
O O14 0.714078 0.714078 0.859944
O O15 0.709382 0.606091 0.951629
O O16 0.573126 0.146251 0.529180
O O17 0.525524 0.262762 0.523987
O O18 0.424075 0.109926 0.577186
O O19 0.165859 0.331718 0.641138
O O20 0.285065 0.285065 0.641137
O O21 0.841539 0.158462 0.248417
O O22 0.000000 0.284872 0.238336
O O23 0.841540 0.683079 0.033857
O O24 0.000000 0.715130 0.043938
#
# Coordination Sequence:
#
# PCOD8326551 Si02
#       8
#    12  12  12  12  12  12  12  12
#     4  10  20  33  49  70  97 127 157 189 228 274
#     4   9  17  28  43  64  88 114 146 185 225 264
#     4   9  18  31  47  68  93 122 155 192 233 274
#     4   9  18  31  47  68  93 122 155 192 233 274
#     4  10  20  33  49  70  97 127 157 189 228 274
#     4  10  21  35  51  72  97 125 156 192 233 273
#     4   9  17  30  48  69  93 121 154 190 229 274
#     4   9  17  30  48  69  93 121 154 190 229 274
#
# _framework density 17.205383999999999
#
# number of rings (size 3 to 8) (size 9 to 14) (size 15 to 20)
#    0.000    2.625    0.000    1.750    0.000    3.500 
#    0.000    3.750    0.000    2.625    0.000    3.500 
#    0.000    9.000    0.000    0.500    0.000    0.500 
#
# Total GULP energy -1190054.199866 kJ/mol
# GULP energy per Si atom -12396.397915 kJ/mol
# Density = 1.716622 g / cm^3
# Si number density = 17.205384 Si / 1000 Ang^3
#
#
#
# Elastic Constant Matrix: (Units=GPa)
#
#
# Indices 1 2 3 4 5 6 
#
# 1 101.5240 68.2058 43.8721 0.0000 0.0000 0.0000
# 2 68.2058 101.5240 43.8721 0.0000 0.0000 0.0000
# 3 43.8721 43.8721 97.5571 0.0000 0.0000 0.0000
# 4 0.0000 0.0000 0.0000 21.1111 0.0000 0.0000
# 5 0.0000 0.0000 0.0000 0.0000 21.1111 0.0000
# 6 0.0000 0.0000 0.0000 0.0000 0.0000 16.6591
#
#
#
# Elastic Compliance Matrix: (Units=1/GPa)
#
#
# Indices 1 2 3 4 5 6 
#
# 1 0.018845 -0.011169 -0.003452 0.000000 0.000000 0.000000
# 2 -0.011169 0.018845 -0.003452 0.000000 0.000000 0.000000
# 3 -0.003452 -0.003452 0.013355 0.000000 0.000000 0.000000
# 4 0.000000 0.000000 0.000000 0.047368 0.000000 0.000000
# 5 0.000000 0.000000 0.000000 0.000000 0.047368 0.000000
# 6 0.000000 0.000000 0.000000 0.000000 0.000000 0.060027
#
#
# Mechanical properties :
#
#
# Convention : Reuss Voigt Hill
#
# Bulk Modulus (GPa) = 67.11617 68.05611 67.58614
# Shear Modulus (GPa) = 20.24937 21.41996 20.83467
#
# Velocity S-wave (km/s) = 3.43435 3.53222 3.48363
# Velocity P-wave (km/s) = 7.40404 7.50176 7.45306
#
# Compressibility (1/GPa) = 0.01489954
#
# Stress axis : x y z
#
# Youngs Moduli (GPa) = 53.06462 53.06462 74.87682
#
# Poissons Ratio (x) = 0.59266 0.25848
# Poissons Ratio (y) = 0.59266 0.25848
# Poissons Ratio (z) = 0.18318 0.18318
#
# Static dielectric constant tensor:
#      x y z
#    x 3.174840 0.000000 0.000000 
#    y 0.000000 3.174840 0.000000 
#    z 0.000000 0.000000 3.480590 
# 
# 
# High freq. dielectric constant tensor:
#      x y z
#    x 1.646070 0.000000 0.000000 
#    y 0.000000 1.646070 0.000000 
#    z 0.000000 0.000000 1.685780 
# 
# From -- ./inp_files/3153.got.cif
#   From: 2010.03.12/outbox.cif.g09.slc.cpg/sg183_2_cif.got.tgz:3153.got - 2010.04.01 11:53:02.
