data_PCOD8326899
_publ_section_title
;
Structure prediction by ZEFSAII (Michael W. Deem and Ramdas Pophale) SiO2 
 PCOD8326899
Probable space group: P -6 M 2
;
_chemical_formula_sum "Si O2"
_cell_formula_units_Z 60
_cell_length_a 23.237374
_cell_length_b 23.237374
_cell_length_c 7.710630
_cell_angle_alpha 90.000000
_cell_angle_beta 90.000000
_cell_angle_gamma 120.000000
_cell_volume 3605.741523
_symmetry_space_group_name_H-M "P -6 M 2"
_symmetry_group_IT_number 187
_symmetry_cell_setting 'hexagonal'
loop_
_space_group_symop_operation_xyz
x,y,z
-x+y,-x,-z
-y,x-y,z
x,y,-z
-x+y,-x,z
-y,x-y,-z
-y,-x,-z
-x+y,y,-z
x,x-y,-z
-x+y,y,z
x,x-y,z
-y,-x,z
loop_
_atom_site_type_symbol
_atom_site_label
_atom_site_fract_x
_atom_site_fract_y
_atom_site_fract_z
Si Si1 0.715030 0.922275 0.807724
Si Si2 0.538928 0.592374 0.500000
Si Si3 0.616828 0.741390 0.500000
Si Si4 0.397755 0.135653 0.200754
Si Si5 0.937495 0.747937 0.304195
Si Si6 0.950044 0.539927 0.198833
O O1 0.738688 0.869344 0.768094
O O2 0.659808 0.913174 0.668960
O O3 0.780446 0.994558 0.802216
O O4 0.683473 0.911504 0.000000
O O5 0.459705 0.540296 0.500000
O O6 0.552044 0.667742 0.500000
O O7 0.572218 0.583050 0.672867
O O8 0.594419 0.797210 0.500000
O O9 0.427379 0.213690 0.248895
O O10 0.330805 0.090008 0.306031
O O11 0.450751 0.112538 0.246590
O O12 0.378009 0.123461 0.000000
O O13 0.953141 0.773882 0.500000
O O14 0.881305 0.762610 0.224173
O O15 0.924247 0.462124 0.224900
O O16 0.973984 0.562301 0.000000
#
# Coordination Sequence:
#
# PCOD8326899 Si02
#       6
#    12   6   6  12  12  12
#     4  10  20  33  50  71  95 126 160 194 237 283
#     4  10  20  32  49  72  95 121 155 185 223 281
#     4  10  20  34  51  72  99 125 151 191 235 279
#     4   9  17  28  43  64  90 121 156 193 234 278
#     4  10  19  29  44  68  95 122 153 190 233 277
#     4   9  18  31  46  66  94 125 156 194 236 275
#
# _framework density 16.640129000000002
#
# number of rings (size 3 to 8) (size 9 to 14) (size 15 to 20)
#    0.000    2.400    1.000    1.800    1.400    3.600 
#    0.000    0.000    0.000    1.000    0.000    2.800 
#    0.000    0.000    0.000   10.000    0.000    0.000 
#
# Total GULP energy -743704.208213 kJ/mol
# GULP energy per Si atom -12395.070137 kJ/mol
# Density = 1.660226 g / cm^3
# Si number density = 16.640129 Si / 1000 Ang^3
#
#
#
# Elastic Constant Matrix: (Units=GPa)
#
#
# Indices 1 2 3 4 5 6 
#
# 1 109.1770 56.0139 30.2923 0.0000 0.0000 0.0000
# 2 56.0139 109.1770 30.2923 0.0000 0.0000 0.0000
# 3 30.2923 30.2923 80.3307 0.0000 0.0000 0.0000
# 4 0.0000 0.0000 0.0000 16.9452 0.0000 0.0000
# 5 0.0000 0.0000 0.0000 0.0000 16.9452 0.0000
# 6 0.0000 0.0000 0.0000 0.0000 0.0000 26.5815
#
#
#
# Elastic Compliance Matrix: (Units=1/GPa)
#
#
# Indices 1 2 3 4 5 6 
#
# 1 0.012918 -0.005892 -0.002649 0.000000 0.000000 0.000000
# 2 -0.005892 0.012918 -0.002649 0.000000 0.000000 0.000000
# 3 -0.002649 -0.002649 0.014447 0.000000 0.000000 0.000000
# 4 0.000000 0.000000 0.000000 0.059014 0.000000 0.000000
# 5 0.000000 0.000000 0.000000 0.000000 0.059014 0.000000
# 6 0.000000 0.000000 0.000000 0.000000 0.000000 0.037620
#
#
# Mechanical properties :
#
#
# Convention : Reuss Voigt Hill
#
# Bulk Modulus (GPa) = 55.86515 59.09797 57.48156
# Shear Modulus (GPa) = 22.29378 24.23346 23.26362
#
# Velocity S-wave (km/s) = 3.66424 3.82032 3.74310
# Velocity P-wave (km/s) = 7.17967 7.41972 7.30068
#
# Compressibility (1/GPa) = 0.01790025
#
# Stress axis : x y z
#
# Youngs Moduli (GPa) = 77.41365 77.41365 69.22086
#
# Poissons Ratio (x) = 0.45615 0.18338
# Poissons Ratio (y) = 0.45615 0.18338
# Poissons Ratio (z) = 0.20508 0.20508
#
# Static dielectric constant tensor:
#      x y z
#    x 3.049070 0.000000 0.000000 
#    y 0.000000 3.049070 0.000000 
#    z 0.000000 0.000000 3.313800 
# 
# 
# High freq. dielectric constant tensor:
#      x y z
#    x 1.618460 0.000000 0.000000 
#    y 0.000000 1.618460 0.000000 
#    z 0.000000 0.000000 1.658480 
# 
# From -- ./inp_files/897.got.cif
#   From: 2010.03.12/outbox.cif.g09.slc.cpg/sg187_1_cif.got.tgz:897.got - 2010.04.01 11:58:23.
