data_PCOD8326985
_publ_section_title
;
Structure prediction by ZEFSAII (Michael W. Deem and Ramdas Pophale) SiO2 
 PCOD8326985
Probable space group: P -6 M 2
;
_chemical_formula_sum "Si O2"
_cell_formula_units_Z 84
_cell_length_a 17.212358
_cell_length_b 17.212358
_cell_length_c 17.987958
_cell_angle_alpha 90.000000
_cell_angle_beta 90.000000
_cell_angle_gamma 120.000000
_cell_volume 4615.228814
_symmetry_space_group_name_H-M "P -6 M 2"
_symmetry_group_IT_number 187
_symmetry_cell_setting 'hexagonal'
loop_
_space_group_symop_operation_xyz
x,y,z
-x+y,-x,-z
-y,x-y,z
x,y,-z
-x+y,-x,z
-y,x-y,-z
-y,-x,-z
-x+y,y,-z
x,x-y,-z
-x+y,y,z
x,x-y,z
-y,-x,z
loop_
_atom_site_type_symbol
_atom_site_label
_atom_site_fract_x
_atom_site_fract_y
_atom_site_fract_z
Si Si1 0.388659 0.433857 0.147659
Si Si2 0.512599 0.665499 0.000000
Si Si3 0.820830 0.819856 0.685837
Si Si4 0.740362 0.085289 0.214996
Si Si5 0.334655 0.485340 0.701201
Si Si6 0.847544 0.334716 0.339981
Si Si7 0.261875 0.921163 0.417173
Si Si8 0.491114 0.156654 0.500000
O O1 0.494908 0.505093 0.147029
O O2 0.342872 0.439244 0.072648
O O3 0.370851 0.332451 0.150097
O O4 0.341343 0.450444 0.217739
O O5 0.407898 0.592103 0.000000
O O6 0.523144 0.761572 0.000000
O O7 0.919350 0.838699 0.664845
O O8 0.783264 0.757986 0.759244
O O9 0.758029 0.770242 0.615280
O O10 0.823949 0.911975 0.705646
O O11 0.818076 0.181925 0.185813
O O12 0.688611 0.095187 0.285196
O O13 0.247303 0.494605 0.700115
O O14 0.418898 0.581103 0.682884
O O15 0.332098 0.416657 0.638887
O O16 0.850560 0.425280 0.312798
O O17 0.743990 0.256010 0.344120
O O18 0.896042 0.349358 0.421614
O O19 0.303535 0.954640 0.500000
O O20 0.177469 0.822532 0.423520
O O21 0.598593 0.197185 0.500000
O O22 0.466996 0.233498 0.500000
#
# Coordination Sequence:
#
# PCOD8326985 Si02
#       8
#    12   6  12  12  12  12  12   6
#     4  10  20  35  55  81 113 146 178 215 263 316
#     4  10  21  36  59  90 122 150 176 208 249 304
#     4  10  20  35  54  74  96 127 171 226 284 337
#     4  10  20  34  52  76 104 136 175 220 268 318
#     4  10  19  32  52  77 108 145 182 217 256 311
#     4   9  16  27  44  68 100 138 179 221 264 313
#     4   9  18  33  51  72 100 134 173 221 272 315
#     4   8  13  22  38  62  93 130 172 216 260 304
#
# _framework density 18.200614000000002
#
# number of rings (size 3 to 8) (size 9 to 14) (size 15 to 20)
#    0.000    2.429    1.429    1.429    0.000    2.286 
#    1.286    1.786    0.000    2.000    0.000    0.000 
#    0.000    0.000    0.000    0.000    0.000    1.571 
#
# Total GULP energy -1041336.226036 kJ/mol
# GULP energy per Si atom -12396.859834 kJ/mol
# Density = 1.815919 g / cm^3
# Si number density = 18.200614 Si / 1000 Ang^3
#
#
#
# Elastic Constant Matrix: (Units=GPa)
#
#
# Indices 1 2 3 4 5 6 
#
# 1 105.8398 56.5349 54.2592 0.0000 -0.0001 0.0000
# 2 56.5349 105.8398 54.2592 0.0000 0.0001 0.0000
# 3 54.2592 54.2592 109.0742 0.0000 0.0000 0.0000
# 4 0.0000 0.0000 0.0000 22.6553 0.0000 0.0001
# 5 -0.0001 0.0001 0.0000 0.0000 22.6553 0.0000
# 6 0.0000 0.0000 0.0000 0.0001 0.0000 24.6524
#
#
#
# Elastic Compliance Matrix: (Units=1/GPa)
#
#
# Indices 1 2 3 4 5 6 
#
# 1 0.014754 -0.005528 -0.004589 0.000000 0.000000 0.000000
# 2 -0.005528 0.014754 -0.004589 0.000000 0.000000 0.000000
# 3 -0.004589 -0.004589 0.013734 0.000000 0.000000 0.000000
# 4 0.000000 0.000000 0.000000 0.044140 0.000000 0.000000
# 5 0.000000 0.000000 0.000000 0.000000 0.044140 0.000000
# 6 0.000000 0.000000 0.000000 0.000000 0.000000 0.040564
#
#
# Mechanical properties :
#
#
# Convention : Reuss Voigt Hill
#
# Bulk Modulus (GPa) = 72.31658 72.31783 72.31720
# Shear Modulus (GPa) = 24.25906 24.37262 24.31584
#
# Velocity S-wave (km/s) = 3.65481 3.66335 3.65908
# Velocity P-wave (km/s) = 7.59141 7.59694 7.59418
#
# Compressibility (1/GPa) = 0.01382809
#
# Stress axis : x y z
#
# Youngs Moduli (GPa) = 67.77875 67.77875 72.81163
#
# Poissons Ratio (x) = 0.37469 0.33416
# Poissons Ratio (y) = 0.37469 0.33416
# Poissons Ratio (z) = 0.31106 0.31106
#
# Static dielectric constant tensor:
#      x y z
#    x 3.383990 0.000000 0.000000 
#    y 0.000000 3.383990 0.000000 
#    z 0.000000 0.000000 3.241990 
# 
# 
# High freq. dielectric constant tensor:
#      x y z
#    x 1.708570 0.000000 0.000000 
#    y 0.000000 1.708570 0.000000 
#    z 0.000000 0.000000 1.679710 
# 
# From -- ./inp_files/2662.got.cif
#   From: 2010.03.12/outbox.cif.g09.slc.cpg/sg187_2_cif.got.tgz:2662.got - 2010.04.01 11:58:23.
