data_PCOD8326316
_publ_section_title
;
Structure prediction by ZEFSAII (Michael W. Deem and Ramdas Pophale) SiO2 
 PCOD8326316
Probable space group: P 64 2 2
;
_chemical_formula_sum "Si O2"
_cell_formula_units_Z 81
_cell_length_a 27.568306
_cell_length_b 27.568306
_cell_length_c 8.703469
_cell_angle_alpha 90.000000
_cell_angle_beta 90.000000
_cell_angle_gamma 120.000000
_cell_volume 5728.529842
_symmetry_space_group_name_H-M "P 64 2 2"
_symmetry_group_IT_number 181
_symmetry_cell_setting 'hexagonal'
loop_
_space_group_symop_operation_xyz
x,y,z
x-y,x,2/3+z
-y,x-y,1/3+z
-x,-y,z
-x+y,-x,2/3+z
y,-x+y,1/3+z
x-y,-y,-z
-x,-x+y,2/3-z
y,x,1/3-z
-y,-x,1/3-z
-x+y,y,-z
x,x-y,2/3-z
loop_
_atom_site_type_symbol
_atom_site_label
_atom_site_fract_x
_atom_site_fract_y
_atom_site_fract_z
Si Si1 0.500000 0.000000 0.500000
Si Si2 0.652549 0.305098 0.000000
Si Si3 0.260347 0.418929 0.492039
Si Si4 0.063391 0.647074 0.309750
Si Si5 0.708157 0.234543 0.963328
Si Si6 0.830816 0.317343 0.891006
Si Si7 0.421477 0.911304 0.271447
Si Si8 0.506407 0.637240 0.435363
O O1 0.554345 0.038434 0.395543
O O2 0.661518 0.338483 0.166667
O O3 0.587176 0.266423 0.961738
O O4 0.192096 0.384192 0.500000
O O5 0.290321 0.387871 0.569820
O O6 0.280624 0.479770 0.573864
O O7 0.278609 0.428227 0.313890
O O8 0.070035 0.602028 0.206152
O O9 0.089936 0.652832 0.475892
O O10 0.000000 0.631419 0.333334
O O11 0.763899 0.281487 0.876217
O O12 0.664892 0.192458 0.839033
O O13 0.862800 0.336267 0.731216
O O14 0.852658 0.374006 0.990530
O O15 0.470277 0.899815 0.221011
#
# Coordination Sequence:
#
# PCOD8326316 Si02
#       8
#     3   6  12  12  12  12  12  12
#     4  12  20  36  46  68  76 104 134 168 188 288
#     4  12  28  38  48  66  83 110 136 188 226 256
#     4   8  17  35  53  65  86 116 138 171 207 264
#     4  10  21  33  48  69  91 109 135 174 214 259
#     4  10  23  36  51  64  89 105 150 174 218 266
#     4  10  19  34  48  65  76 111 136 170 201 256
#     4  11  22  32  49  60  88 105 136 162 219 256
#     4  11  21  33  50  66  82 113 132 174 208 268
#
# _framework density 14.139754
#
# number of rings (size 3 to 8) (size 9 to 14) (size 15 to 20)
#    0.000    1.778    1.481    3.111   10.370    0.593 
#    0.000    0.000    0.000    0.000    0.000    0.000 
#    0.000    0.000    0.000    0.000    0.000    0.000 
#
# Total GULP energy -1003563.663481 kJ/mol
# GULP energy per Si atom -12389.674858 kJ/mol
# Density = 1.410757 g / cm^3
# Si number density = 14.139754 Si / 1000 Ang^3
#
#
#
# Elastic Constant Matrix: (Units=GPa)
#
#
# Indices 1 2 3 4 5 6 
#
# 1 67.4472 30.4339 19.0876 0.0000 0.0000 0.0000
# 2 30.4339 67.4472 19.0876 0.0000 0.0000 0.0000
# 3 19.0876 19.0876 75.8198 0.0000 0.0000 0.0000
# 4 0.0000 0.0000 0.0000 18.4856 0.0000 0.0000
# 5 0.0000 0.0000 0.0000 0.0000 18.4856 0.0000
# 6 0.0000 0.0000 0.0000 0.0000 0.0000 18.5067
#
#
#
# Elastic Compliance Matrix: (Units=1/GPa)
#
#
# Indices 1 2 3 4 5 6 
#
# 1 0.019173 -0.007844 -0.002852 0.000000 0.000000 0.000000
# 2 -0.007844 0.019173 -0.002852 0.000000 0.000000 0.000000
# 3 -0.002852 -0.002852 0.014625 0.000000 0.000000 0.000000
# 4 0.000000 0.000000 0.000000 0.054096 0.000000 0.000000
# 5 0.000000 0.000000 0.000000 0.000000 0.054096 0.000000
# 6 0.000000 0.000000 0.000000 0.000000 0.000000 0.054035
#
#
# Mechanical properties :
#
#
# Convention : Reuss Voigt Hill
#
# Bulk Modulus (GPa) = 38.64779 38.65914 38.65347
# Shear Modulus (GPa) = 19.92672 20.56927 20.24800
#
# Velocity S-wave (km/s) = 3.75810 3.81821 3.78827
# Velocity P-wave (km/s) = 6.79876 6.84386 6.82134
#
# Compressibility (1/GPa) = 0.02587470
#
# Stress axis : x y z
#
# Youngs Moduli (GPa) = 52.15657 52.15657 68.37530
#
# Poissons Ratio (x) = 0.40913 0.19501
# Poissons Ratio (y) = 0.40913 0.19501
# Poissons Ratio (z) = 0.14875 0.14875
#
# Static dielectric constant tensor:
#      x y z
#    x 2.714540 0.000000 0.000000 
#    y 0.000000 2.714540 0.000000 
#    z 0.000000 0.000000 3.033370 
# 
# 
# High freq. dielectric constant tensor:
#      x y z
#    x 1.503070 0.000000 0.000000 
#    y 0.000000 1.503070 0.000000 
#    z 0.000000 0.000000 1.561380 
# 
# From -- ./inp_files/3471.got.cif
#   From: 2010.03.12/outbox.cif.g09.slc.cpg/sg181_2_cif.got.tgz:3471.got - 2010.04.01 11:42:41.
