data_PCOD8326783
_publ_section_title
;
Structure prediction by ZEFSAII (Michael W. Deem and Ramdas Pophale) SiO2 
 PCOD8326783
Probable space group: P 63 M C
;
_chemical_formula_sum "Si O2"
_cell_formula_units_Z 60
_cell_length_a 20.812699
_cell_length_b 20.812699
_cell_length_c 9.226721
_cell_angle_alpha 90.000000
_cell_angle_beta 90.000000
_cell_angle_gamma 120.000000
_cell_volume 3461.264809
_symmetry_space_group_name_H-M "P 63 M C"
_symmetry_group_IT_number 186
_symmetry_cell_setting 'hexagonal'
loop_
_space_group_symop_operation_xyz
x,y,z
x-y,x,1/2+z
-y,x-y,z
-x,-y,1/2+z
-x+y,-x,z
y,-x+y,1/2+z
-x+y,y,z
x,x-y,z
-y,-x,z
y,x,1/2+z
x-y,-y,1/2+z
-x,-x+y,1/2+z
loop_
_atom_site_type_symbol
_atom_site_label
_atom_site_fract_x
_atom_site_fract_y
_atom_site_fract_z
Si Si1 0.709766 0.780956 0.544390
Si Si2 0.460988 0.539013 0.042459
Si Si3 0.292677 0.852695 0.378771
Si Si4 0.560017 0.852695 0.043560
Si Si5 0.290235 0.219045 0.377941
Si Si6 0.460987 0.539014 0.379880
O O1 0.731209 0.865605 0.525380
O O2 0.630481 0.725515 0.475629
O O3 0.706948 0.758772 0.711165
O O4 0.772832 0.772832 0.461166
O O5 0.374790 0.503517 0.999789
O O6 0.470668 0.529333 0.211170
O O7 0.500001 0.499999 0.961172
O O8 0.234138 0.765863 0.410441
O O9 0.288471 0.871445 0.211165
O O10 0.374788 0.871272 0.422547
O O11 0.531724 0.765862 0.011891
O O12 0.630479 0.904964 0.946699
O O13 0.268792 0.134396 0.396950
#
# Coordination Sequence:
#
# PCOD8326783 Si02
#       6
#    12   6  12  12  12   6
#     4  10  20  33  51  75 100 127 160 198 241 289
#     4  10  20  32  48  72  98 128 166 206 252 298
#     4   9  18  33  50  70  98 130 166 207 250 295
#     4   9  18  33  50  70  98 130 166 207 250 295
#     4  10  20  33  51  75 100 127 160 198 241 289
#     4  10  20  32  48  72  98 128 166 206 252 298
#
# _framework density 17.334703999999999
#
# number of rings (size 3 to 8) (size 9 to 14) (size 15 to 20)
#    0.000    2.400    0.000    2.400    0.000    7.200 
#    1.200    0.000    0.000    0.400    0.000    0.000 
#    0.000    0.000    0.000    0.000    0.000    0.000 
#
# Total GULP energy -744080.277809 kJ/mol
# GULP energy per Si atom -12401.337963 kJ/mol
# Density = 1.729525 g / cm^3
# Si number density = 17.334704 Si / 1000 Ang^3
#
#
#
# Elastic Constant Matrix: (Units=GPa)
#
#
# Indices 1 2 3 4 5 6 
#
# 1 113.9337 70.2362 61.8828 0.0000 0.0000 0.0000
# 2 70.2362 113.9337 61.8828 0.0000 0.0000 0.0000
# 3 61.8828 61.8828 99.9645 0.0000 0.0000 0.0000
# 4 0.0000 0.0000 0.0000 26.8557 0.0000 0.0000
# 5 0.0000 0.0000 0.0000 0.0000 26.8557 0.0000
# 6 0.0000 0.0000 0.0000 0.0000 0.0000 21.8488
#
#
#
# Elastic Compliance Matrix: (Units=1/GPa)
#
#
# Indices 1 2 3 4 5 6 
#
# 1 0.016091 -0.006793 -0.005756 0.000000 0.000000 0.000000
# 2 -0.006793 0.016091 -0.005756 0.000000 0.000000 0.000000
# 3 -0.005756 -0.005756 0.017130 0.000000 0.000000 0.000000
# 4 0.000000 0.000000 0.000000 0.037236 0.000000 0.000000
# 5 0.000000 0.000000 0.000000 0.000000 0.037236 0.000000
# 6 0.000000 0.000000 0.000000 0.000000 0.000000 0.045769
#
#
# Mechanical properties :
#
#
# Convention : Reuss Voigt Hill
#
# Bulk Modulus (GPa) = 78.72642 79.53725 79.13184
# Shear Modulus (GPa) = 23.76459 24.03405 23.89932
#
# Velocity S-wave (km/s) = 3.70662 3.72757 3.71711
# Velocity P-wave (km/s) = 7.98954 8.03177 8.01068
#
# Compressibility (1/GPa) = 0.01270222
#
# Stress axis : x y z
#
# Youngs Moduli (GPa) = 62.14594 62.14594 58.37816
#
# Poissons Ratio (x) = 0.42218 0.33601
# Poissons Ratio (y) = 0.42218 0.33601
# Poissons Ratio (z) = 0.35770 0.35770
#
# Static dielectric constant tensor:
#      x y z
#    x 3.293510 0.000000 0.000000 
#    y 0.000000 3.293510 0.000000 
#    z 0.000000 0.000000 3.344950 
# 
# 
# High freq. dielectric constant tensor:
#      x y z
#    x 1.665510 0.000000 0.000000 
#    y 0.000000 1.665510 0.000000 
#    z 0.000000 0.000000 1.675820 
# 
# From -- ./inp_files/983.got.cif
#   From: 2010.03.12/outbox.cif.g09.slc.cpg/sg186_1_cif.got.tgz:983.got - 2010.04.01 11:56:34.
