data_PCOD8326312
_publ_section_title
;
Structure prediction by ZEFSAII (Michael W. Deem and Ramdas Pophale) SiO2 
 PCOD8326312
Probable space group: P 64 2 2
;
_chemical_formula_sum "Si O2"
_cell_formula_units_Z 60
_cell_length_a 29.382963
_cell_length_b 29.382963
_cell_length_c 5.146552
_cell_angle_alpha 90.000000
_cell_angle_beta 90.000000
_cell_angle_gamma 120.000000
_cell_volume 3848.027556
_symmetry_space_group_name_H-M "P 64 2 2"
_symmetry_group_IT_number 181
_symmetry_cell_setting 'hexagonal'
loop_
_space_group_symop_operation_xyz
x,y,z
x-y,x,2/3+z
-y,x-y,1/3+z
-x,-y,z
-x+y,-x,2/3+z
y,-x+y,1/3+z
x-y,-y,-z
-x,-x+y,2/3-z
y,x,1/3-z
-y,-x,1/3-z
-x+y,y,-z
x,x-y,2/3-z
loop_
_atom_site_type_symbol
_atom_site_label
_atom_site_fract_x
_atom_site_fract_y
_atom_site_fract_z
Si Si1 0.679794 0.060616 0.474300
Si Si2 0.769917 0.601076 0.252032
Si Si3 0.559830 0.119659 0.000000
Si Si4 0.230034 0.518625 0.744607
Si Si5 0.561303 0.620238 0.647018
Si Si6 0.408107 0.816214 0.500000
O O1 0.741880 0.105594 0.471331
O O2 0.648164 0.072285 0.697927
O O3 0.668204 0.000000 0.500000
O O4 0.663876 0.069801 0.191530
O O5 0.809689 0.619378 0.500000
O O6 0.722265 0.540859 0.292803
O O7 0.803413 0.606825 0.000000
O O8 0.589706 0.088505 0.062726
O O9 0.590455 0.151135 0.748161
O O10 0.267472 0.534943 0.500000
O O11 0.216352 0.564373 0.753370
O O12 0.260346 0.520691 0.000000
O O13 0.574183 0.574183 0.666667
#
# Coordination Sequence:
#
# PCOD8326312 Si02
#       6
#    12  12   6  12  12   6
#     4  10  20  34  50  71  96 124 153 185 226 270
#     4  10  19  32  52  71  92 119 150 187 224 267
#     4  12  21  32  50  70  92 112 142 176 210 276
#     4  10  21  37  51  67  86 107 142 181 224 275
#     4  10  20  32  47  68  96 124 147 174 217 266
#     4  12  24  36  53  70  84 110 142 180 234 272
#
# _framework density 15.592404999999999
#
# number of rings (size 3 to 8) (size 9 to 14) (size 15 to 20)
#    0.000    1.600    0.000    6.300    0.000    3.200 
#    1.800    4.000    0.000    0.000    0.000    0.000 
#    0.000    0.000    0.000    0.000    0.000    0.000 
#
# Total GULP energy -743508.845512 kJ/mol
# GULP energy per Si atom -12391.814092 kJ/mol
# Density = 1.555692 g / cm^3
# Si number density = 15.592405 Si / 1000 Ang^3
#
#
#
# Elastic Constant Matrix: (Units=GPa)
#
#
# Indices 1 2 3 4 5 6 
#
# 1 133.6471 -11.9570 25.2422 0.0000 0.0000 0.0000
# 2 -11.9570 133.6471 25.2422 0.0000 0.0000 0.0000
# 3 25.2422 25.2422 102.3588 0.0000 0.0000 0.0000
# 4 0.0000 0.0000 0.0000 14.3768 0.0000 0.0000
# 5 0.0000 0.0000 0.0000 0.0000 14.3768 0.0000
# 6 0.0000 0.0000 0.0000 0.0000 0.0000 72.8021
#
#
#
# Elastic Compliance Matrix: (Units=1/GPa)
#
#
# Indices 1 2 3 4 5 6 
#
# 1 0.008011 0.001143 -0.002257 0.000000 0.000000 0.000000
# 2 0.001143 0.008011 -0.002257 0.000000 0.000000 0.000000
# 3 -0.002257 -0.002257 0.010883 0.000000 0.000000 0.000000
# 4 0.000000 0.000000 0.000000 0.069556 0.000000 0.000000
# 5 0.000000 0.000000 0.000000 0.000000 0.069556 0.000000
# 6 0.000000 0.000000 0.000000 0.000000 0.000000 0.013736
#
#
# Mechanical properties :
#
#
# Convention : Reuss Voigt Hill
#
# Bulk Modulus (GPa) = 49.59975 49.63419 49.61697
# Shear Modulus (GPa) = 25.87757 42.38620 34.13189
#
# Velocity S-wave (km/s) = 4.07827 5.21947 4.68376
# Velocity P-wave (km/s) = 7.35225 8.25986 7.81924
#
# Compressibility (1/GPa) = 0.02016139
#
# Stress axis : x y z
#
# Youngs Moduli (GPa) = 124.82792 124.82792 91.88680
#
# Poissons Ratio (x) = -0.14269 0.20743
# Poissons Ratio (y) = -0.14269 0.20743
# Poissons Ratio (z) = 0.28179 0.28179
#
# Static dielectric constant tensor:
#      x y z
#    x 3.092880 0.000000 0.000000 
#    y 0.000000 3.092880 0.000000 
#    z 0.000000 0.000000 3.215260 
# 
# 
# High freq. dielectric constant tensor:
#      x y z
#    x 1.569970 0.000000 0.000000 
#    y 0.000000 1.569970 0.000000 
#    z 0.000000 0.000000 1.630450 
# 
# From -- ./inp_files/1478.got.cif
#   From: 2010.03.12/outbox.cif.g09.slc.cpg/sg181_1_cif.got.tgz:1478.got - 2010.04.01 11:42:41.
