data_PCOD8326360
_publ_section_title
;
Structure prediction by ZEFSAII (Michael W. Deem and Ramdas Pophale) SiO2 
 PCOD8326360
Probable space group: P 64 2 2
;
_chemical_formula_sum "Si O2"
_cell_formula_units_Z 54
_cell_length_a 14.421257
_cell_length_b 14.421257
_cell_length_c 14.688784
_cell_angle_alpha 90.000000
_cell_angle_beta 90.000000
_cell_angle_gamma 120.000000
_cell_volume 2645.591028
_symmetry_space_group_name_H-M "P 64 2 2"
_symmetry_group_IT_number 181
_symmetry_cell_setting 'hexagonal'
loop_
_space_group_symop_operation_xyz
x,y,z
x-y,x,2/3+z
-y,x-y,1/3+z
-x,-y,z
-x+y,-x,2/3+z
y,-x+y,1/3+z
x-y,-y,-z
-x,-x+y,2/3-z
y,x,1/3-z
-y,-x,1/3-z
-x+y,y,-z
x,x-y,2/3-z
loop_
_atom_site_type_symbol
_atom_site_label
_atom_site_fract_x
_atom_site_fract_y
_atom_site_fract_z
Si Si1 0.694732 0.511317 0.680373
Si Si2 0.186524 0.373047 0.500000
Si Si3 0.591530 0.795765 0.333334
Si Si4 0.942195 0.289429 0.506654
Si Si5 0.411309 0.840088 0.399522
Si Si6 0.500000 0.500000 0.928081
O O1 0.565876 0.434125 0.666667
O O2 0.755113 0.549015 0.584502
O O3 0.730394 0.620279 0.738890
O O4 0.731668 0.435211 0.732556
O O5 0.239480 0.297278 0.490353
O O6 0.665939 0.866883 0.248585
O O7 0.514341 0.837670 0.365034
O O8 0.944377 0.399155 0.529475
O O9 0.443618 0.887235 0.500000
O O10 0.402177 0.920532 0.328298
#
# Coordination Sequence:
#
# PCOD8326360 Si02
#       6
#    12   6   6  12  12   6
#     4  12  25  38  62  93 132 175 213 254 313 387
#     4  12  26  44  62  90 127 175 218 270 318 384
#     4  10  22  36  62  92 130 164 210 262 318 382
#     4  11  23  42  61  91 127 168 214 267 321 380
#     4  11  20  35  58  90 128 171 207 249 311 374
#     4  10  21  38  59  88 130 162 210 255 299 392
#
# _framework density 20.411318999999999
#
# number of rings (size 3 to 8) (size 9 to 14) (size 15 to 20)
#    0.000    0.889    5.556    2.333    4.667    0.889 
#    0.000    1.111    0.000    0.000    0.000    9.333 
#    0.000    0.000    0.000    0.000    0.000    0.000 
#
# Total GULP energy -669029.678975 kJ/mol
# GULP energy per Si atom -12389.438500 kJ/mol
# Density = 2.036486 g / cm^3
# Si number density = 20.411319 Si / 1000 Ang^3
#
#
#
# Elastic Constant Matrix: (Units=GPa)
#
#
# Indices 1 2 3 4 5 6 
#
# 1 81.8103 31.1583 37.5853 0.0000 0.0000 0.0000
# 2 31.1583 81.8103 37.5853 0.0000 0.0000 0.0000
# 3 37.5853 37.5853 137.5377 0.0000 0.0000 0.0000
# 4 0.0000 0.0000 0.0000 28.1707 0.0000 0.0000
# 5 0.0000 0.0000 0.0000 0.0000 28.1707 0.0000
# 6 0.0000 0.0000 0.0000 0.0000 0.0000 25.3260
#
#
#
# Elastic Compliance Matrix: (Units=1/GPa)
#
#
# Indices 1 2 3 4 5 6 
#
# 1 0.015281 -0.004462 -0.002957 0.000000 0.000000 0.000000
# 2 -0.004462 0.015281 -0.002957 0.000000 0.000000 0.000000
# 3 -0.002957 -0.002957 0.008887 0.000000 0.000000 0.000000
# 4 0.000000 0.000000 0.000000 0.035498 0.000000 0.000000
# 5 0.000000 0.000000 0.000000 0.000000 0.035498 0.000000
# 6 0.000000 0.000000 0.000000 0.000000 0.000000 0.039485
#
#
# Mechanical properties :
#
#
# Convention : Reuss Voigt Hill
#
# Bulk Modulus (GPa) = 53.47907 57.09066 55.28487
# Shear Modulus (GPa) = 28.26259 29.32209 28.79234
#
# Velocity S-wave (km/s) = 3.72513 3.79431 3.75988
# Velocity P-wave (km/s) = 6.69027 6.87216 6.78182
#
# Compressibility (1/GPa) = 0.01869890
#
# Stress axis : x y z
#
# Youngs Moduli (GPa) = 65.44081 65.44081 112.52803
#
# Poissons Ratio (x) = 0.29197 0.33271
# Poissons Ratio (y) = 0.29197 0.33271
# Poissons Ratio (z) = 0.19349 0.19349
#
# Static dielectric constant tensor:
#      x y z
#    x 3.693940 0.000000 0.000000 
#    y 0.000000 3.693940 0.000000 
#    z 0.000000 0.000000 4.049740 
# 
# 
# High freq. dielectric constant tensor:
#      x y z
#    x 1.768560 0.000000 0.000000 
#    y 0.000000 1.768560 0.000000 
#    z 0.000000 0.000000 1.828020 
# 
# From -- ./inp_files/6065.got.cif
#   From: 2010.03.12/outbox.cif.g09.slc.cpg/sg181_4_cif.got.tgz:6065.got - 2010.04.01 11:42:41.
