data_PCOD8326694
_publ_section_title
;
Structure prediction by ZEFSAII (Michael W. Deem and Ramdas Pophale) SiO2 
 PCOD8326694
Probable space group: P 63 C M
;
_chemical_formula_sum "Si O2"
_cell_formula_units_Z 72
_cell_length_a 23.653745
_cell_length_b 23.653745
_cell_length_c 8.558008
_cell_angle_alpha 90.000000
_cell_angle_beta 90.000000
_cell_angle_gamma 120.000000
_cell_volume 4146.705005
_symmetry_space_group_name_H-M "P 63 C M"
_symmetry_group_IT_number 185
_symmetry_cell_setting 'hexagonal'
loop_
_space_group_symop_operation_xyz
x,y,z
x-y,x,1/2+z
-y,x-y,z
-x,-y,1/2+z
-x+y,-x,z
y,-x+y,1/2+z
-x+y,y,1/2+z
x,x-y,1/2+z
-y,-x,1/2+z
y,x,z
x-y,-y,z
-x,-x+y,z
loop_
_atom_site_type_symbol
_atom_site_label
_atom_site_fract_x
_atom_site_fract_y
_atom_site_fract_z
Si Si1 0.072221 0.774711 0.154810
Si Si2 0.580615 0.655135 0.784512
Si Si3 0.770249 0.455838 0.618200
Si Si4 0.400766 0.140166 0.064855
Si Si5 0.859515 0.671917 0.851914
Si Si6 0.442668 0.797880 0.265680
O O1 0.084487 0.713349 0.169475
O O2 0.117089 0.832857 0.272408
O O3 0.000000 0.755240 0.204784
O O4 0.083201 0.797276 0.973941
O O5 0.593638 0.593638 0.768912
O O6 0.506441 0.636248 0.741051
O O7 0.597903 0.681317 0.963467
O O8 0.814907 0.531710 0.650180
O O9 0.696780 0.438536 0.652765
O O10 0.800325 0.422756 0.729765
O O11 0.773448 0.438154 0.440297
O O12 0.351405 0.111467 0.210912
O O13 0.385804 0.185841 0.950613
#
# Coordination Sequence:
#
# PCOD8326694 Si02
#       6
#    12  12  12  12  12  12
#     4   9  17  29  47  71  99 132 167 201 242 291
#     4   9  19  35  52  71  97 129 162 201 249 299
#     4  11  21  34  50  70  92 121 156 200 252 296
#     4   9  17  30  50  69  93 124 159 193 236 296
#     4   9  16  29  49  73  98 128 160 197 237 286
#     4  11  22  35  52  72  97 122 158 206 251 302
#
# _framework density 17.363182999999999
#
# number of rings (size 3 to 8) (size 9 to 14) (size 15 to 20)
#    0.000    2.333    0.000    5.333    0.000    2.000 
#    0.000    5.833    0.000    0.000    0.000    0.000 
#    0.000    0.000    0.000    5.000    0.000    0.000 
#
# Total GULP energy -892303.359118 kJ/mol
# GULP energy per Si atom -12393.102210 kJ/mol
# Density = 1.732366 g / cm^3
# Si number density = 17.363183 Si / 1000 Ang^3
#
#
#
# Elastic Constant Matrix: (Units=GPa)
#
#
# Indices 1 2 3 4 5 6 
#
# 1 61.0117 33.5260 24.6487 0.0000 0.0000 0.0000
# 2 33.5260 61.0117 24.6487 0.0000 0.0000 0.0000
# 3 24.6487 24.6487 88.6608 0.0000 0.0000 0.0000
# 4 0.0000 0.0000 0.0000 15.1829 0.0000 0.0000
# 5 0.0000 0.0000 0.0000 0.0000 15.1829 0.0000
# 6 0.0000 0.0000 0.0000 0.0000 0.0000 13.7429
#
#
#
# Elastic Compliance Matrix: (Units=1/GPa)
#
#
# Indices 1 2 3 4 5 6 
#
# 1 0.024377 -0.012006 -0.003439 0.000000 0.000000 0.000000
# 2 -0.012006 0.024377 -0.003439 0.000000 0.000000 0.000000
# 3 -0.003439 -0.003439 0.013191 0.000000 0.000000 0.000000
# 4 0.000000 0.000000 0.000000 0.065863 0.000000 0.000000
# 5 0.000000 0.000000 0.000000 0.000000 0.065863 0.000000
# 6 0.000000 0.000000 0.000000 0.000000 0.000000 0.072765
#
#
# Mechanical properties :
#
#
# Convention : Reuss Voigt Hill
#
# Bulk Modulus (GPa) = 41.36259 41.81453 41.58856
# Shear Modulus (GPa) = 16.01206 17.34579 16.67893
#
# Velocity S-wave (km/s) = 3.04004 3.16412 3.10270
# Velocity P-wave (km/s) = 6.01633 6.12237 6.06958
#
# Compressibility (1/GPa) = 0.02417644
#
# Stress axis : x y z
#
# Youngs Moduli (GPa) = 41.02244 41.02244 75.80754
#
# Poissons Ratio (x) = 0.49250 0.26073
# Poissons Ratio (y) = 0.49250 0.26073
# Poissons Ratio (z) = 0.14109 0.14109
#
# Static dielectric constant tensor:
#      x y z
#    x 3.124110 0.000000 0.000000 
#    y 0.000000 3.124110 0.000000 
#    z 0.000000 0.000000 3.357920 
# 
# 
# High freq. dielectric constant tensor:
#      x y z
#    x 1.645230 0.000000 0.000000 
#    y 0.000000 1.645230 0.000000 
#    z 0.000000 0.000000 1.683890 
# 
# From -- ./inp_files/612.got.cif
#   From: 2010.03.12/outbox.cif.g09.slc.cpg/sg185_cif.got.tgz:612.got - 2010.04.01 11:55:19.
