data_PCOD8326232
_publ_section_title
;
Structure prediction by ZEFSAII (Michael W. Deem and Ramdas Pophale) SiO2 
 PCOD8326232
Probable space group: P 62 2 2
;
_chemical_formula_sum "Si O2"
_cell_formula_units_Z 48
_cell_length_a 12.355373
_cell_length_b 12.355373
_cell_length_c 18.146063
_cell_angle_alpha 90.000000
_cell_angle_beta 90.000000
_cell_angle_gamma 120.000000
_cell_volume 2398.969729
_symmetry_space_group_name_H-M "P 62 2 2"
_symmetry_group_IT_number 180
_symmetry_cell_setting 'hexagonal'
loop_
_space_group_symop_operation_xyz
x,y,z
x-y,x,1/3+z
-y,x-y,2/3+z
-x,-y,z
-x+y,-x,1/3+z
y,-x+y,2/3+z
x-y,-y,-z
-x,-x+y,1/3-z
y,x,2/3-z
-y,-x,2/3-z
-x+y,y,-z
x,x-y,1/3-z
loop_
_atom_site_type_symbol
_atom_site_label
_atom_site_fract_x
_atom_site_fract_y
_atom_site_fract_z
Si Si1 0.888356 0.517021 0.387768
Si Si2 0.664794 0.677160 0.751203
Si Si3 0.311603 0.155802 0.166667
Si Si4 0.514600 0.257300 0.666667
Si Si5 0.955913 0.096861 0.585523
O O1 0.857630 0.602342 0.439279
O O2 0.771074 0.378857 0.380420
O O3 0.000000 0.500000 0.421528
O O4 0.919602 0.571339 0.304959
O O5 0.621539 0.621539 0.833334
O O6 0.575948 0.728675 0.724186
O O7 0.807651 0.786720 0.754378
O O8 0.221266 0.202222 0.201522
O O9 0.000000 0.147096 0.666667
O O10 0.000000 0.000000 0.561435
#
# Coordination Sequence:
#
# PCOD8326232 Si02
#       5
#    12  12   6   6  12
#     4  10  25  43  65  92 130 176 217 270 317 388
#     4  11  23  40  69  97 127 168 219 274 326 392
#     4  12  23  44  62 100 137 170 210 266 340 396
#     4  10  24  46  63  93 132 172 230 258 322 386
#     4  11  22  37  66 102 134 162 208 273 344 390
#
# _framework density 20.008589000000001
#
# number of rings (size 3 to 8) (size 9 to 14) (size 15 to 20)
#    0.000    1.250    2.500    3.375   10.500    6.500 
#    0.000    0.000    0.000    0.000    0.000    0.000 
#    0.000    0.000    0.000    0.000    0.000    0.000 
#
# Total GULP energy -595089.459389 kJ/mol
# GULP energy per Si atom -12397.697071 kJ/mol
# Density = 1.996305 g / cm^3
# Si number density = 20.008589 Si / 1000 Ang^3
#
#
#
# Elastic Constant Matrix: (Units=GPa)
#
#
# Indices 1 2 3 4 5 6 
#
# 1 123.8579 61.3092 47.3151 0.0000 0.0000 0.0000
# 2 61.3092 123.8579 47.3151 0.0000 0.0000 0.0000
# 3 47.3151 47.3151 152.4429 0.0000 0.0000 0.0000
# 4 0.0000 0.0000 0.0000 265.9386 0.0000 0.0000
# 5 0.0000 0.0000 0.0000 0.0000 265.9386 0.0000
# 6 0.0000 0.0000 0.0000 0.0000 0.0000 31.2744
#
#
#
# Elastic Compliance Matrix: (Units=1/GPa)
#
#
# Indices 1 2 3 4 5 6 
#
# 1 0.011203 -0.004784 -0.001992 0.000000 0.000000 0.000000
# 2 -0.004784 0.011203 -0.001992 0.000000 0.000000 0.000000
# 3 -0.001992 -0.001992 0.007797 0.000000 0.000000 0.000000
# 4 0.000000 0.000000 0.000000 0.003760 0.000000 0.000000
# 5 0.000000 0.000000 0.000000 0.000000 0.003760 0.000000
# 6 0.000000 0.000000 0.000000 0.000000 0.000000 0.031975
#
#
# Mechanical properties :
#
#
# Convention : Reuss Voigt Hill
#
# Bulk Modulus (GPa) = 78.95801 79.11529 79.03665
# Shear Modulus (GPa) = 54.67007 128.91159 91.79083
#
# Velocity S-wave (km/s) = 5.23284 8.03542 6.78051
# Velocity P-wave (km/s) = 8.72112 11.21237 10.04428
#
# Compressibility (1/GPa) = 0.01266496
#
# Stress axis : x y z
#
# Youngs Moduli (GPa) = 89.26103 89.26103 128.26236
#
# Poissons Ratio (x) = 0.42706 0.25553
# Poissons Ratio (y) = 0.42706 0.25553
# Poissons Ratio (z) = 0.17783 0.17783
#
# Static dielectric constant tensor:
#      x y z
#    x 3.049850 0.000000 0.000000 
#    y 0.000000 3.049850 0.000000 
#    z 0.000000 0.000000 4.021020 
# 
# 
# High freq. dielectric constant tensor:
#      x y z
#    x 1.781400 0.000000 0.000000 
#    y 0.000000 1.781400 0.000000 
#    z 0.000000 0.000000 1.794240 
# 
# From -- ./inp_files/8759.got.cif
#   From: 2010.03.12/outbox.cif.g09.slc.cpg/sg180_5_cif.got.tgz:8759.got - 2010.04.01 11:35:50.
