data_PCOD8326758
_publ_section_title
;
Structure prediction by ZEFSAII (Michael W. Deem and Ramdas Pophale) SiO2 
 PCOD8326758
Probable space group: P 63 M C
;
_chemical_formula_sum "Si O2"
_cell_formula_units_Z 96
_cell_length_a 16.869620
_cell_length_b 16.869620
_cell_length_c 22.037266
_cell_angle_alpha 90.000000
_cell_angle_beta 90.000000
_cell_angle_gamma 120.000000
_cell_volume 5431.239389
_symmetry_space_group_name_H-M "P 63 M C"
_symmetry_group_IT_number 186
_symmetry_cell_setting 'hexagonal'
loop_
_space_group_symop_operation_xyz
x,y,z
x-y,x,1/2+z
-y,x-y,z
-x,-y,1/2+z
-x+y,-x,z
y,-x+y,1/2+z
-x+y,y,z
x,x-y,z
-y,-x,z
y,x,1/2+z
x-y,-y,1/2+z
-x,-x+y,1/2+z
loop_
_atom_site_type_symbol
_atom_site_label
_atom_site_fract_x
_atom_site_fract_y
_atom_site_fract_z
Si Si1 0.149853 0.484247 0.599840
Si Si2 0.966756 0.575443 0.216377
Si Si3 0.426207 0.394530 0.535787
Si Si4 0.091187 0.358534 0.133548
Si Si5 0.668272 0.155891 0.429058
Si Si6 0.186225 0.999578 0.920337
Si Si7 0.737562 0.652436 0.328961
Si Si8 0.999763 0.182029 0.558556
O O1 0.235889 0.471777 0.587505
O O2 0.176981 0.588491 0.585762
O O3 0.118485 0.460790 0.670025
O O4 0.070309 0.414298 0.553273
O O5 0.980906 0.490453 0.236354
O O6 0.960365 0.632637 0.272147
O O7 0.055806 0.653670 0.183214
O O8 0.517162 0.482838 0.558929
O O9 0.418464 0.308662 0.572842
O O10 0.432212 0.371608 0.466110
O O11 0.183384 0.366768 0.159240
O O12 0.019518 0.255081 0.111783
O O13 0.594091 0.188182 0.424047
O O14 0.760713 0.239288 0.458103
O O15 0.690372 0.134556 0.363065
O O16 0.189689 0.094845 0.905940
O O17 0.253067 0.986979 0.873198
O O18 0.082589 0.917412 0.911618
O O19 0.218830 0.998622 0.989994
O O20 0.838746 0.677492 0.306752
O O21 0.924857 0.075144 0.560755
O O22 0.097254 0.194508 0.574161
#
# Coordination Sequence:
#
# PCOD8326758 Si02
#       8
#    12  12  12  12  12  12  12  12
#     4   9  17  30  49  72  97 125 157 192 231 278
#     4  10  21  36  51  68  92 124 160 199 246 293
#     4   9  18  31  47  69  97 124 149 185 236 289
#     4  10  19  31  49  70  93 123 159 199 237 276
#     4  10  19  32  50  71  95 122 154 195 244 296
#     4   9  17  30  49  74 104 137 170 201 235 280
#     4  10  20  33  50  71  96 125 159 201 243 286
#     4   9  17  29  47  73 104 136 166 196 232 276
#
# _framework density 17.675522999999998
#
# number of rings (size 3 to 8) (size 9 to 14) (size 15 to 20)
#    0.000    2.500    0.000    3.500    0.000    6.000 
#    0.000    0.625    0.000    6.750    0.000    4.375 
#    0.000    0.000    0.000    0.000    0.000    0.000 
#
# Total GULP energy -1189403.068122 kJ/mol
# GULP energy per Si atom -12389.615293 kJ/mol
# Density = 1.763529 g / cm^3
# Si number density = 17.675523 Si / 1000 Ang^3
#
#
#
# Elastic Constant Matrix: (Units=GPa)
#
#
# Indices 1 2 3 4 5 6 
#
# 1 71.0505 26.0047 14.1770 0.0000 0.0000 0.0000
# 2 26.0047 71.0505 14.1770 0.0000 0.0000 0.0000
# 3 14.1770 14.1770 41.6078 0.0000 0.0000 0.0000
# 4 0.0000 0.0000 0.0000 23.7231 0.0000 0.0000
# 5 0.0000 0.0000 0.0000 0.0000 23.7231 0.0000
# 6 0.0000 0.0000 0.0000 0.0000 0.0000 22.5229
#
#
#
# Elastic Compliance Matrix: (Units=1/GPa)
#
#
# Indices 1 2 3 4 5 6 
#
# 1 0.016821 -0.005379 -0.003899 0.000000 0.000000 0.000000
# 2 -0.005379 0.016821 -0.003899 0.000000 0.000000 0.000000
# 3 -0.003899 -0.003899 0.026691 0.000000 0.000000 0.000000
# 4 0.000000 0.000000 0.000000 0.042153 0.000000 0.000000
# 5 0.000000 0.000000 0.000000 0.000000 0.042153 0.000000
# 6 0.000000 0.000000 0.000000 0.000000 0.000000 0.044399
#
#
# Mechanical properties :
#
#
# Convention : Reuss Voigt Hill
#
# Bulk Modulus (GPa) = 29.42860 32.49180 30.96020
# Shear Modulus (GPa) = 22.05392 22.61717 22.33554
#
# Velocity S-wave (km/s) = 3.53613 3.58100 3.55863
# Velocity P-wave (km/s) = 5.77562 5.95989 5.86848
#
# Compressibility (1/GPa) = 0.03398055
#
# Stress axis : x y z
#
# Youngs Moduli (GPa) = 59.44943 59.44943 37.46614
#
# Poissons Ratio (x) = 0.31976 0.14607
# Poissons Ratio (y) = 0.31976 0.14607
# Poissons Ratio (z) = 0.23178 0.23178
#
# Static dielectric constant tensor:
#      x y z
#    x 3.285040 0.000000 0.000000 
#    y 0.000000 3.285040 0.000000 
#    z 0.000000 0.000000 3.113670 
# 
# 
# High freq. dielectric constant tensor:
#      x y z
#    x 1.683420 0.000000 0.000000 
#    y 0.000000 1.683420 0.000000 
#    z 0.000000 0.000000 1.662610 
# 
# From -- ./inp_files/3598.got.cif
#   From: 2010.03.12/outbox.cif.g09.slc.cpg/sg186_2_cif.got.tgz:3598.got - 2010.04.01 11:56:34.
