data_PCOD8326224
_publ_section_title
;
Structure prediction by ZEFSAII (Michael W. Deem and Ramdas Pophale) SiO2 
 PCOD8326224
Probable space group: P 62 2 2
;
_chemical_formula_sum "Si O2"
_cell_formula_units_Z 45
_cell_length_a 11.473506
_cell_length_b 11.473506
_cell_length_c 19.905707
_cell_angle_alpha 90.000000
_cell_angle_beta 90.000000
_cell_angle_gamma 120.000000
_cell_volume 2269.345042
_symmetry_space_group_name_H-M "P 62 2 2"
_symmetry_group_IT_number 180
_symmetry_cell_setting 'hexagonal'
loop_
_space_group_symop_operation_xyz
x,y,z
x-y,x,1/3+z
-y,x-y,2/3+z
-x,-y,z
-x+y,-x,1/3+z
y,-x+y,2/3+z
x-y,-y,-z
-x,-x+y,1/3-z
y,x,2/3-z
-y,-x,2/3-z
-x+y,y,-z
x,x-y,1/3-z
loop_
_atom_site_type_symbol
_atom_site_label
_atom_site_fract_x
_atom_site_fract_y
_atom_site_fract_z
Si Si1 0.000000 0.000000 0.500000
Si Si2 0.258663 0.029566 0.894788
Si Si3 0.581936 0.924828 0.761077
Si Si4 0.612768 0.782925 0.017799
Si Si5 0.699861 0.300140 0.333334
O O1 0.023080 0.904078 0.548971
O O2 0.349985 0.083563 0.829134
O O3 0.242974 0.886702 0.919657
O O4 0.317804 0.138322 0.951928
O O5 0.492603 0.772885 0.732179
O O6 0.500000 0.000000 0.779301
O O7 0.689650 0.014348 0.704164
O O8 0.458993 0.695786 0.994792
#
# Coordination Sequence:
#
# PCOD8326224 Si02
#       5
#     3  12  12  12   6
#     4  12  24  42  64  98 122 172 206 274 326 380
#     4  11  24  40  69  96 125 171 222 274 327 392
#     4  10  22  42  64  93 132 169 215 270 329 390
#     4  10  23  42  63  98 129 168 223 269 326 399
#     4  10  24  41  66  91 136 176 208 278 334 390
#
# _framework density 19.829508000000001
#
# number of rings (size 3 to 8) (size 9 to 14) (size 15 to 20)
#    0.000    1.600    2.667    0.000    7.467    4.267 
#    0.000    0.000    0.000    0.000    0.000    0.000 
#    0.000    0.000    0.000    0.000    0.000    0.000 
#
# Total GULP energy -557665.764363 kJ/mol
# GULP energy per Si atom -12392.572541 kJ/mol
# Density = 1.978437 g / cm^3
# Si number density = 19.829508 Si / 1000 Ang^3
#
#
#
# Elastic Constant Matrix: (Units=GPa)
#
#
# Indices 1 2 3 4 5 6 
#
# 1 116.5947 55.5810 74.3069 0.0000 0.0000 0.0000
# 2 55.5810 116.5947 74.3069 0.0000 0.0000 0.0000
# 3 74.3069 74.3069 122.2435 0.0000 0.0000 0.0000
# 4 0.0000 0.0000 0.0000 9.1646 0.0000 0.0000
# 5 0.0000 0.0000 0.0000 0.0000 9.1646 0.0000
# 6 0.0000 0.0000 0.0000 0.0000 0.0000 30.5069
#
#
#
# Elastic Compliance Matrix: (Units=1/GPa)
#
#
# Indices 1 2 3 4 5 6 
#
# 1 0.014304 -0.002085 -0.007427 0.000000 0.000000 0.000000
# 2 -0.002085 0.014304 -0.007427 0.000000 0.000000 0.000000
# 3 -0.007427 -0.007427 0.017210 0.000000 0.000000 0.000000
# 4 0.000000 0.000000 0.000000 0.109116 0.000000 0.000000
# 5 0.000000 0.000000 0.000000 0.000000 0.109116 0.000000
# 6 0.000000 0.000000 0.000000 0.000000 0.000000 0.032779
#
#
# Mechanical properties :
#
#
# Convention : Reuss Voigt Hill
#
# Bulk Modulus (GPa) = 83.76375 84.86919 84.31647
# Shear Modulus (GPa) = 14.93918 19.84974 17.39446
#
# Velocity S-wave (km/s) = 2.74776 3.16732 2.96497
# Velocity P-wave (km/s) = 7.23882 7.50122 7.37119
#
# Compressibility (1/GPa) = 0.01193834
#
# Stress axis : x y z
#
# Youngs Moduli (GPa) = 69.90852 69.90852 58.10525
#
# Poissons Ratio (x) = 0.14578 0.43158
# Poissons Ratio (y) = 0.14578 0.43158
# Poissons Ratio (z) = 0.51924 0.51924
#
# Static dielectric constant tensor:
#      x y z
#    x 3.825110 0.000000 0.000000 
#    y 0.000000 3.825110 0.000000 
#    z 0.000000 0.000000 3.628830 
# 
# 
# High freq. dielectric constant tensor:
#      x y z
#    x 1.780350 0.000000 0.000000 
#    y 0.000000 1.780350 0.000000 
#    z 0.000000 0.000000 1.777480 
# 
# From -- ./inp_files/7406.got.cif
#   From: 2010.03.12/outbox.cif.g09.slc.cpg/sg180_4_cif.got.tgz:7406.got - 2010.04.01 11:35:50.
