data_PCOD8326631
_publ_section_title
;
Structure prediction by ZEFSAII (Michael W. Deem and Ramdas Pophale) SiO2 
 PCOD8326631
Probable space group: P 63 C M
;
_chemical_formula_sum "Si O2"
_cell_formula_units_Z 72
_cell_length_a 22.932873
_cell_length_b 22.932873
_cell_length_c 8.881635
_cell_angle_alpha 90.000000
_cell_angle_beta 90.000000
_cell_angle_gamma 120.000000
_cell_volume 4045.204531
_symmetry_space_group_name_H-M "P 63 C M"
_symmetry_group_IT_number 185
_symmetry_cell_setting 'hexagonal'
loop_
_space_group_symop_operation_xyz
x,y,z
x-y,x,1/2+z
-y,x-y,z
-x,-y,1/2+z
-x+y,-x,z
y,-x+y,1/2+z
-x+y,y,1/2+z
x,x-y,1/2+z
-y,-x,1/2+z
y,x,z
x-y,-y,z
-x,-x+y,z
loop_
_atom_site_type_symbol
_atom_site_label
_atom_site_fract_x
_atom_site_fract_y
_atom_site_fract_z
Si Si1 0.391419 0.269120 0.295790
Si Si2 0.730504 0.803334 0.607616
Si Si3 0.315796 0.195677 0.790523
Si Si4 0.655037 0.452624 0.114221
Si Si5 0.540019 0.216395 0.760196
Si Si6 0.671046 0.075045 0.611163
O O1 0.338049 0.261943 0.168941
O O2 0.373087 0.193818 0.351121
O O3 0.464505 0.304935 0.220375
O O4 0.389005 0.311075 0.436070
O O5 0.793687 0.793687 0.653410
O O6 0.728174 0.803507 0.427994
O O7 0.735794 0.870839 0.678497
O O8 0.349756 0.266307 0.707011
O O9 0.584787 0.390688 0.165862
O O10 0.711777 0.448002 0.208836
O O11 0.653083 0.520520 0.152178
O O12 0.665794 0.446195 0.938084
O O13 0.608002 0.000000 0.643241
#
# Coordination Sequence:
#
# PCOD8326631 Si02
#       6
#    12  12  12  12  12  12
#     4   9  19  35  55  78 106 146 182 224 278 333
#     4  10  19  31  52  81 110 148 188 224 269 329
#     4  10  18  34  52  81 112 147 185 223 273 332
#     4  11  23  38  57  83 104 142 188 230 303 321
#     4  11  22  37  58  77 108 138 181 247 276 355
#     4  11  21  37  59  82 114 149 187 228 276 340
#
# _framework density 17.798852
#
# number of rings (size 3 to 8) (size 9 to 14) (size 15 to 20)
#    1.000    0.667    3.333    2.333    2.333    1.333 
#    0.000    4.167    0.000    0.000    0.000    0.000 
#    0.000    0.000    0.000   19.000    0.000    0.000 
#
# Total GULP energy -892376.442318 kJ/mol
# GULP energy per Si atom -12394.117254 kJ/mol
# Density = 1.775834 g / cm^3
# Si number density = 17.798852 Si / 1000 Ang^3
#
#
#
# Elastic Constant Matrix: (Units=GPa)
#
#
# Indices 1 2 3 4 5 6 
#
# 1 70.1963 44.2133 18.6424 0.0000 0.0000 0.0000
# 2 44.2133 70.1963 18.6424 0.0000 0.0000 0.0000
# 3 18.6424 18.6424 59.9383 0.0000 0.0000 0.0000
# 4 0.0000 0.0000 0.0000 13.8193 0.0000 0.0000
# 5 0.0000 0.0000 0.0000 0.0000 13.8193 0.0000
# 6 0.0000 0.0000 0.0000 0.0000 0.0000 12.9915
#
#
#
# Elastic Compliance Matrix: (Units=1/GPa)
#
#
# Indices 1 2 3 4 5 6 
#
# 1 0.024107 -0.014380 -0.003025 0.000000 0.000000 0.000000
# 2 -0.014380 0.024107 -0.003025 0.000000 0.000000 0.000000
# 3 -0.003025 -0.003025 0.018566 0.000000 0.000000 0.000000
# 4 0.000000 0.000000 0.000000 0.072362 0.000000 0.000000
# 5 0.000000 0.000000 0.000000 0.000000 0.072362 0.000000
# 6 0.000000 0.000000 0.000000 0.000000 0.000000 0.076973
#
#
# Mechanical properties :
#
#
# Convention : Reuss Voigt Hill
#
# Bulk Modulus (GPa) = 38.58357 40.36966 39.47662
# Shear Modulus (GPa) = 14.79391 16.04824 15.42108
#
# Velocity S-wave (km/s) = 2.88613 3.00600 2.94668
# Velocity P-wave (km/s) = 5.72983 5.89731 5.81418
#
# Compressibility (1/GPa) = 0.02591777
#
# Stress axis : x y z
#
# Youngs Moduli (GPa) = 41.48256 41.48256 53.86300
#
# Poissons Ratio (x) = 0.59652 0.16294
# Poissons Ratio (y) = 0.59652 0.16294
# Poissons Ratio (z) = 0.12549 0.12549
#
# Static dielectric constant tensor:
#      x y z
#    x 3.166920 0.000000 0.000000 
#    y 0.000000 3.166920 0.000000 
#    z 0.000000 0.000000 3.235850 
# 
# 
# High freq. dielectric constant tensor:
#      x y z
#    x 1.671790 0.000000 0.000000 
#    y 0.000000 1.671790 0.000000 
#    z 0.000000 0.000000 1.694780 
# 
# From -- ./inp_files/609.got.cif
#   From: 2010.03.12/outbox.cif.g09.slc.cpg/sg185_cif.got.tgz:609.got - 2010.04.01 11:55:19.
