data_PCOD8326072
_publ_section_title
;
Structure prediction by ZEFSAII (Michael W. Deem and Ramdas Pophale) SiO2 
 PCOD8326072
Probable space group: P 65 2 2
;
_chemical_formula_sum "Si O2"
_cell_formula_units_Z 66
_cell_length_a 25.827359
_cell_length_b 25.827359
_cell_length_c 5.424808
_cell_angle_alpha 90.000000
_cell_angle_beta 90.000000
_cell_angle_gamma 120.000000
_cell_volume 3133.826885
_symmetry_space_group_name_H-M "P 65 2 2"
_symmetry_group_IT_number 179
_symmetry_cell_setting 'hexagonal'
loop_
_space_group_symop_operation_xyz
x,y,z
x-y,x,5/6+z
-y,x-y,2/3+z
-x,-y,1/2+z
-x+y,-x,1/3+z
y,-x+y,1/6+z
x-y,-y,-z
-x,-x+y,1/3-z
y,x,2/3-z
-y,-x,1/6-z
-x+y,y,1/2-z
x,x-y,5/6-z
loop_
_atom_site_type_symbol
_atom_site_label
_atom_site_fract_x
_atom_site_fract_y
_atom_site_fract_z
Si Si1 0.352538 0.820065 0.768890
Si Si2 0.128795 0.434444 0.058412
Si Si3 0.313811 0.217395 0.419571
Si Si4 0.933405 0.517219 0.262705
Si Si5 0.937613 0.754563 0.246853
Si Si6 0.237816 0.762185 0.083334
O O1 0.395933 0.791865 0.750000
O O2 0.329817 0.829746 0.508093
O O3 0.389867 0.886778 0.875341
O O4 0.294427 0.774209 0.919760
O O5 0.100161 0.377998 0.240349
O O6 0.073398 0.433925 0.921971
O O7 0.176114 0.428717 0.883466
O O8 0.324145 0.162073 0.416667
O O9 0.289566 0.220437 0.688651
O O10 0.272630 0.212950 0.181634
O O11 0.917031 0.458516 0.416667
O O12 0.000000 0.546724 0.166667
O O13 0.886148 0.772295 0.250000
O O14 0.000000 0.813593 0.166667
#
# Coordination Sequence:
#
# PCOD8326072 Si02
#       6
#    12  12  12  12  12   6
#     4  11  22  42  65  87 120 158 203 255 323 390
#     4  11  24  41  64  89 118 163 206 262 320 394
#     4  10  22  38  64  91 132 167 215 265 323 382
#     4  11  24  41  62  89 122 161 203 255 319 390
#     4  10  22  41  63  96 133 179 218 268 319 380
#     4  10  24  38  68  88 114 156 210 256 324 392
#
# _framework density 21.060513
#
# number of rings (size 3 to 8) (size 9 to 14) (size 15 to 20)
#    0.000    1.455    1.818    2.727    8.909    0.727 
#    3.273    0.000   10.000    0.000    0.000    3.818 
#    0.000    0.000    0.000    0.000    0.000    0.000 
#
# Total GULP energy -818035.746295 kJ/mol
# GULP energy per Si atom -12394.481004 kJ/mol
# Density = 2.101258 g / cm^3
# Si number density = 21.060513 Si / 1000 Ang^3
#
#
#
# Elastic Constant Matrix: (Units=GPa)
#
#
# Indices 1 2 3 4 5 6 
#
# 1 78.8965 28.8824 16.3149 0.0000 0.0000 0.0000
# 2 28.8824 78.8965 16.3149 0.0000 0.0000 0.0000
# 3 16.3149 16.3149 93.2826 0.0000 0.0000 0.0000
# 4 0.0000 0.0000 0.0000 21.2617 0.0000 0.0000
# 5 0.0000 0.0000 0.0000 0.0000 21.2617 0.0000
# 6 0.0000 0.0000 0.0000 0.0000 0.0000 25.0071
#
#
#
# Elastic Compliance Matrix: (Units=1/GPa)
#
#
# Indices 1 2 3 4 5 6 
#
# 1 0.014896 -0.005099 -0.001713 0.000000 0.000000 0.000000
# 2 -0.005099 0.014896 -0.001713 0.000000 0.000000 0.000000
# 3 -0.001713 -0.001713 0.011319 0.000000 0.000000 0.000000
# 4 0.000000 0.000000 0.000000 0.047033 0.000000 0.000000
# 5 0.000000 0.000000 0.000000 0.000000 0.047033 0.000000
# 6 0.000000 0.000000 0.000000 0.000000 0.000000 0.039989
#
#
# Mechanical properties :
#
#
# Convention : Reuss Voigt Hill
#
# Bulk Modulus (GPa) = 41.56347 41.56668 41.56507
# Shear Modulus (GPa) = 24.97046 26.14364 25.55705
#
# Velocity S-wave (km/s) = 3.44707 3.52711 3.48732
# Velocity P-wave (km/s) = 5.96834 6.03051 5.99951
#
# Compressibility (1/GPa) = 0.02405959
#
# Stress axis : x y z
#
# Youngs Moduli (GPa) = 67.13359 67.13359 88.34323
#
# Poissons Ratio (x) = 0.34229 0.15137
# Poissons Ratio (y) = 0.34229 0.15137
# Poissons Ratio (z) = 0.11503 0.11503
#
# Static dielectric constant tensor:
#      x y z
#    x 3.867170 0.000000 0.000000 
#    y 0.000000 3.867170 0.000000 
#    z 0.000000 0.000000 4.191190 
# 
# 
# High freq. dielectric constant tensor:
#      x y z
#    x 1.815190 0.000000 0.000000 
#    y 0.000000 1.815190 0.000000 
#    z 0.000000 0.000000 1.841710 
# 
# From -- ./inp_files/1577.got.cif
#   From: 2010.03.12/outbox.cif.g09.slc.cpg/sg179_1_cif.got.tgz:1577.got - 2010.04.02 07:08:42.
