data_PCOD8326644
_publ_section_title
;
Structure prediction by ZEFSAII (Michael W. Deem and Ramdas Pophale) SiO2 
 PCOD8326644
Probable space group: P 63 C M
;
_chemical_formula_sum "Si O2"
_cell_formula_units_Z 84
_cell_length_a 33.405441
_cell_length_b 33.405441
_cell_length_c 5.262229
_cell_angle_alpha 90.000000
_cell_angle_beta 90.000000
_cell_angle_gamma 120.000000
_cell_volume 5085.513297
_symmetry_space_group_name_H-M "P 63 C M"
_symmetry_group_IT_number 185
_symmetry_cell_setting 'hexagonal'
loop_
_space_group_symop_operation_xyz
x,y,z
x-y,x,1/2+z
-y,x-y,z
-x,-y,1/2+z
-x+y,-x,z
y,-x+y,1/2+z
-x+y,y,1/2+z
x,x-y,1/2+z
-y,-x,1/2+z
y,x,z
x-y,-y,z
-x,-x+y,z
loop_
_atom_site_type_symbol
_atom_site_label
_atom_site_fract_x
_atom_site_fract_y
_atom_site_fract_z
Si Si1 0.250673 0.403816 0.644370
Si Si2 0.900957 0.628452 0.144157
Si Si3 0.722675 0.230479 0.643989
Si Si4 0.441035 0.929457 0.146094
Si Si5 0.591904 0.591904 0.111263
Si Si6 0.000000 0.357603 0.611143
Si Si7 0.820794 0.434477 0.646274
Si Si8 0.829726 0.146174 0.144096
O O1 0.277769 0.401039 0.396885
O O2 0.253134 0.452582 0.644134
O O3 0.196475 0.364463 0.644705
O O4 0.277824 0.401202 0.892108
O O5 0.896051 0.674019 0.143618
O O6 0.955047 0.647081 0.148240
O O7 0.737607 0.261836 0.392954
O O8 0.667942 0.200387 0.645962
O O9 0.472857 0.945659 0.395998
O O10 0.410357 0.953679 0.148495
O O11 0.406609 0.875269 0.146548
O O12 0.625846 0.625846 0.325507
O O13 0.608387 0.608387 0.825027
O O14 0.804820 0.402359 0.396473
O O15 0.856222 0.143650 0.394225
#
# Coordination Sequence:
#
# PCOD8326644 Si02
#       8
#    12  12  12  12   6   6  12  12
#     4  10  19  34  53  77  97 124 156 199 241 266
#     4  10  20  33  46  65 104 133 159 190 224 282
#     4  12  23  37  61  90 106 124 150 188 233 275
#     4  10  21  40  61  75  93 128 164 199 229 247
#     4  12  24  39  50  78  96 128 176 200 224 262
#     4  12  26  33  46  74 106 140 164 186 232 274
#     4  10  23  41  60  82 107 133 156 186 231 276
#     4   8  14  27  46  64  86 116 151 187 230 264
#
# _framework density 16.517506000000001
#
# number of rings (size 3 to 8) (size 9 to 14) (size 15 to 20)
#    0.000    1.714    0.000    6.429    4.000    0.000 
#    0.000    0.000    0.000    5.714    0.000    0.000 
#    0.000    0.000    0.000    0.000    0.000    0.000 
#
# Total GULP energy -1041401.935837 kJ/mol
# GULP energy per Si atom -12397.642093 kJ/mol
# Density = 1.647991 g / cm^3
# Si number density = 16.517506 Si / 1000 Ang^3
#
#
#
# Elastic Constant Matrix: (Units=GPa)
#
#
# Indices 1 2 3 4 5 6 
#
# 1 61.1149 12.4723 20.1155 0.0000 0.0000 0.0000
# 2 12.4723 61.1149 20.1155 0.0000 0.0000 0.0000
# 3 20.1155 20.1155 152.0562 0.0000 0.0000 0.0000
# 4 0.0000 0.0000 0.0000 -2.6459 0.0000 0.0000
# 5 0.0000 0.0000 0.0000 0.0000 -2.6459 0.0000
# 6 0.0000 0.0000 0.0000 0.0000 0.0000 24.3213
#
#
#
# Elastic Compliance Matrix: (Units=1/GPa)
#
#
# Indices 1 2 3 4 5 6 
#
# 1 0.017603 -0.002955 -0.001938 0.000000 0.000000 0.000000
# 2 -0.002955 0.017603 -0.001938 0.000000 0.000000 0.000000
# 3 -0.001938 -0.001938 0.007089 0.000000 0.000000 0.000000
# 4 0.000000 0.000000 0.000000 -0.377947 0.000000 0.000000
# 5 0.000000 0.000000 0.000000 0.000000 -0.377947 0.000000
# 6 0.000000 0.000000 0.000000 0.000000 0.000000 0.041116
#
#
# Mechanical properties :
#
#
# Convention : Reuss Voigt Hill
#
# Bulk Modulus (GPa) = 34.92197 42.18807 38.55502
# Shear Modulus (GPa) = -7.70089 18.57809 5.43860
#
# Velocity S-wave (km/s) = -2.16157 3.35737 1.81653
# Velocity P-wave (km/s) = 3.86762 6.37386 5.27184
#
# Compressibility (1/GPa) = 0.02863527
#
# Stress axis : x y z
#
# Youngs Moduli (GPa) = 56.80703 56.80703 141.05883
#
# Poissons Ratio (x) = 0.16785 0.27336
# Poissons Ratio (y) = 0.16785 0.27336
# Poissons Ratio (z) = 0.11009 0.11009
#
# Static dielectric constant tensor:
#      x y z
#    x 2.824870 0.000000 0.000000 
#    y 0.000000 2.824870 0.000000 
#    z 0.000000 0.000000 4.258880 
# 
# 
# High freq. dielectric constant tensor:
#      x y z
#    x 1.600380 0.000000 0.000000 
#    y 0.000000 1.600380 0.000000 
#    z 0.000000 0.000000 1.676190 
# 
# From -- ./inp_files/184.got.cif
#   From: 2010.03.12/outbox.cif.g09.slc.cpg/sg185_cif.got.tgz:184.got - 2010.04.01 11:55:19.
