data_PCOD8326153
_publ_section_title
;
Structure prediction by ZEFSAII (Michael W. Deem and Ramdas Pophale) SiO2 
 PCOD8326153
Probable space group: P 62 2 2
;
_chemical_formula_sum "Si O2"
_cell_formula_units_Z 48
_cell_length_a 16.791619
_cell_length_b 16.791619
_cell_length_c 9.770488
_cell_angle_alpha 90.000000
_cell_angle_beta 90.000000
_cell_angle_gamma 120.000000
_cell_volume 2385.788993
_symmetry_space_group_name_H-M "P 62 2 2"
_symmetry_group_IT_number 180
_symmetry_cell_setting 'hexagonal'
loop_
_space_group_symop_operation_xyz
x,y,z
x-y,x,1/3+z
-y,x-y,2/3+z
-x,-y,z
-x+y,-x,1/3+z
y,-x+y,2/3+z
x-y,-y,-z
-x,-x+y,1/3-z
y,x,2/3-z
-y,-x,2/3-z
-x+y,y,-z
x,x-y,1/3-z
loop_
_atom_site_type_symbol
_atom_site_label
_atom_site_fract_x
_atom_site_fract_y
_atom_site_fract_z
Si Si1 0.244062 0.934105 0.628099
Si Si2 0.199770 0.692385 0.956581
Si Si3 0.215137 0.316768 0.129790
Si Si4 0.314935 0.521798 0.131483
O O1 0.307788 0.888663 0.648276
O O2 0.138144 0.855585 0.592986
O O3 0.288836 0.000000 0.500000
O O4 0.248793 0.993347 0.763115
O O5 0.235404 0.764597 0.833334
O O6 0.170545 0.592379 0.895841
O O7 0.278468 0.722906 0.073142
O O8 0.299127 0.419734 0.161176
O O9 0.159875 0.319749 0.000000
O O10 0.258533 0.517065 0.000000
#
# Coordination Sequence:
#
# PCOD8326153 Si02
#       4
#    12  12  12  12
#     4   9  18  34  54  77 109 144 189 236 286 350
#     4  11  21  33  52  79 112 150 194 239 281 328
#     4   8  16  31  51  76 104 139 184 231 276 333
#     4  10  19  32  50  74 109 154 197 236 278 328
#
# _framework density 20.119129000000001
#
# number of rings (size 3 to 8) (size 9 to 14) (size 15 to 20)
#    0.000    2.500    0.000    4.500    0.000    1.000 
#    0.000   11.250    0.000    6.000    0.000    0.000 
#    0.000   85.000    0.000    0.000    0.000    0.000 
#
# Total GULP energy -594799.283916 kJ/mol
# GULP energy per Si atom -12391.651748 kJ/mol
# Density = 2.007334 g / cm^3
# Si number density = 20.119129 Si / 1000 Ang^3
#
#
#
# Elastic Constant Matrix: (Units=GPa)
#
#
# Indices 1 2 3 4 5 6 
#
# 1 174.6020 -1.3202 41.9028 0.0000 0.0000 0.0000
# 2 -1.3202 174.6020 41.9028 0.0000 0.0000 0.0000
# 3 41.9028 41.9028 79.9789 0.0000 0.0000 0.0000
# 4 0.0000 0.0000 0.0000 -3.6854 0.0000 0.0000
# 5 0.0000 0.0000 0.0000 0.0000 -3.6854 0.0000
# 6 0.0000 0.0000 0.0000 0.0000 0.0000 87.9611
#
#
#
# Elastic Compliance Matrix: (Units=1/GPa)
#
#
# Indices 1 2 3 4 5 6 
#
# 1 0.006707 0.001023 -0.004050 0.000000 0.000000 0.000000
# 2 0.001023 0.006707 -0.004050 0.000000 0.000000 0.000000
# 3 -0.004050 -0.004050 0.016747 0.000000 0.000000 0.000000
# 4 0.000000 0.000000 0.000000 -0.271338 0.000000 0.000000
# 5 0.000000 0.000000 0.000000 0.000000 -0.271338 0.000000
# 6 0.000000 0.000000 0.000000 0.000000 0.000000 0.011369
#
#
# Mechanical properties :
#
#
# Convention : Reuss Voigt Hill
#
# Bulk Modulus (GPa) = 62.47240 66.01710 64.24475
# Shear Modulus (GPa) = -10.38082 39.23120 14.42519
#
# Velocity S-wave (km/s) = -2.27396 4.42061 2.68057
# Velocity P-wave (km/s) = 4.92180 7.67724 6.44842
#
# Compressibility (1/GPa) = 0.01600707
#
# Stress axis : x y z
#
# Youngs Moduli (GPa) = 149.09957 149.09957 59.71316
#
# Poissons Ratio (x) = -0.15247 0.24182
# Poissons Ratio (y) = -0.15247 0.24182
# Poissons Ratio (z) = 0.60380 0.60380
#
# Static dielectric constant tensor:
#      x y z
#    x 3.851990 0.000000 0.000000 
#    y 0.000000 3.851990 0.000000 
#    z 0.000000 0.000000 3.962570 
# 
# 
# High freq. dielectric constant tensor:
#      x y z
#    x 1.761770 0.000000 0.000000 
#    y 0.000000 1.761770 0.000000 
#    z 0.000000 0.000000 1.790920 
# 
# From -- ./inp_files/2643.got.cif
#   From: 2010.03.12/outbox.cif.g09.slc.cpg/sg180_2_cif.got.tgz:2643.got - 2010.04.01 11:35:50.
