data_PCOD8326666
_publ_section_title
;
Structure prediction by ZEFSAII (Michael W. Deem and Ramdas Pophale) SiO2 
 PCOD8326666
Probable space group: P 63 C M
;
_chemical_formula_sum "Si O2"
_cell_formula_units_Z 96
_cell_length_a 14.215634
_cell_length_b 14.215634
_cell_length_c 25.502863
_cell_angle_alpha 90.000000
_cell_angle_beta 90.000000
_cell_angle_gamma 120.000000
_cell_volume 4463.258457
_symmetry_space_group_name_H-M "P 63 C M"
_symmetry_group_IT_number 185
_symmetry_cell_setting 'hexagonal'
loop_
_space_group_symop_operation_xyz
x,y,z
x-y,x,1/2+z
-y,x-y,z
-x,-y,1/2+z
-x+y,-x,z
y,-x+y,1/2+z
-x+y,y,1/2+z
x,x-y,1/2+z
-y,-x,1/2+z
y,x,z
x-y,-y,z
-x,-x+y,z
loop_
_atom_site_type_symbol
_atom_site_label
_atom_site_fract_x
_atom_site_fract_y
_atom_site_fract_z
Si Si1 0.120168 0.503897 0.830810
Si Si2 0.126285 0.457452 0.712606
Si Si3 0.128511 0.664051 0.666632
Si Si4 0.531876 0.820949 0.879362
Si Si5 0.717616 0.181220 0.550900
Si Si6 0.118875 0.237454 0.523501
Si Si7 0.122425 0.609086 0.993491
Si Si8 0.239908 0.121184 0.903696
O O1 0.144139 0.470513 0.774814
O O2 0.130174 0.622573 0.832455
O O3 0.209149 0.516491 0.873197
O O4 0.000000 0.414573 0.849690
O O5 0.149389 0.574483 0.693447
O O6 0.214379 0.426387 0.689692
O O7 0.000000 0.364920 0.699350
O O8 0.162067 0.660253 0.606752
O O9 0.000000 0.629801 0.672553
O O10 0.493820 0.842591 0.934904
O O11 0.660813 0.873716 0.870822
O O12 0.787865 0.121592 0.556615
O O13 0.628436 0.129151 0.504486
O O14 0.799515 0.306639 0.537266
O O15 0.131593 0.131593 0.527123
O O16 0.134935 0.279293 0.463820
O O17 0.000000 0.205003 0.544817
O O18 0.000000 0.584473 0.002233
O O19 0.135142 0.135142 0.895981
O O20 0.207543 0.000000 0.885646
#
# Coordination Sequence:
#
# PCOD8326666 Si02
#       8
#    12  12  12  12  12  12  12  12
#     4  11  24  42  65  93 123 159 202 256 319 382
#     4  10  23  44  70  97 128 163 205 266 338 398
#     4  11  23  42  69 100 127 166 215 267 326 389
#     4  12  23  39  61  88 124 164 209 256 305 365
#     4  12  24  40  60  88 128 167 212 255 305 368
#     4  10  20  36  57  83 117 163 213 260 303 351
#     4  12  25  41  59  87 127 173 214 252 301 361
#     4  10  20  36  57  84 118 163 212 258 301 350
#
# _framework density 21.508949000000001
#
# number of rings (size 3 to 8) (size 9 to 14) (size 15 to 20)
#    0.000    1.000    1.250    6.250    0.000    3.000 
#    0.000    1.250    0.000    0.250    0.000    0.000 
#    0.000    0.000    0.000    0.000    0.000    0.000 
#
# Total GULP energy -1189896.868711 kJ/mol
# GULP energy per Si atom -12394.759049 kJ/mol
# Density = 2.145999 g / cm^3
# Si number density = 21.508949 Si / 1000 Ang^3
#
#
#
# Elastic Constant Matrix: (Units=GPa)
#
#
# Indices 1 2 3 4 5 6 
#
# 1 117.2712 50.3968 45.7874 0.0000 0.0000 0.0000
# 2 50.3968 117.2712 45.7874 0.0000 0.0000 0.0000
# 3 45.7874 45.7874 60.3402 0.0000 0.0000 0.0000
# 4 0.0000 0.0000 0.0000 20.0820 0.0000 0.0000
# 5 0.0000 0.0000 0.0000 0.0000 20.0820 0.0000
# 6 0.0000 0.0000 0.0000 0.0000 0.0000 33.4372
#
#
#
# Elastic Compliance Matrix: (Units=1/GPa)
#
#
# Indices 1 2 3 4 5 6 
#
# 1 0.012569 -0.002384 -0.007729 0.000000 0.000000 0.000000
# 2 -0.002384 0.012569 -0.007729 0.000000 0.000000 0.000000
# 3 -0.007729 -0.007729 0.028302 0.000000 0.000000 0.000000
# 4 0.000000 0.000000 0.000000 0.049796 0.000000 0.000000
# 5 0.000000 0.000000 0.000000 0.000000 0.049796 0.000000
# 6 0.000000 0.000000 0.000000 0.000000 0.000000 0.029907
#
#
# Mechanical properties :
#
#
# Convention : Reuss Voigt Hill
#
# Bulk Modulus (GPa) = 56.31383 64.31395 60.31389
# Shear Modulus (GPa) = 22.26746 24.91429 23.59088
#
# Velocity S-wave (km/s) = 3.22104 3.40711 3.31538
# Velocity P-wave (km/s) = 6.33024 6.74120 6.53895
#
# Compressibility (1/GPa) = 0.01775763
#
# Stress axis : x y z
#
# Youngs Moduli (GPa) = 79.55808 79.55808 35.33265
#
# Poissons Ratio (x) = 0.18966 0.27308
# Poissons Ratio (y) = 0.18966 0.27308
# Poissons Ratio (z) = 0.61490 0.61490
#
# Static dielectric constant tensor:
#      x y z
#    x 4.041700 0.000000 0.000000 
#    y 0.000000 4.041700 0.000000 
#    z 0.000000 0.000000 3.649600 
# 
# 
# High freq. dielectric constant tensor:
#      x y z
#    x 1.854930 0.000000 0.000000 
#    y 0.000000 1.854930 0.000000 
#    z 0.000000 0.000000 1.814660 
# 
# From -- ./inp_files/2169.got.cif
#   From: 2010.03.12/outbox.cif.g09.slc.cpg/sg185_cif.got.tgz:2169.got - 2010.04.01 11:55:19.
