data_PCOD8326693
_publ_section_title
;
Structure prediction by ZEFSAII (Michael W. Deem and Ramdas Pophale) SiO2 
 PCOD8326693
Probable space group: P 63 C M
;
_chemical_formula_sum "Si O2"
_cell_formula_units_Z 52
_cell_length_a 13.730865
_cell_length_b 13.730865
_cell_length_c 13.697055
_cell_angle_alpha 90.000000
_cell_angle_beta 90.000000
_cell_angle_gamma 120.000000
_cell_volume 2236.421331
_symmetry_space_group_name_H-M "P 63 C M"
_symmetry_group_IT_number 185
_symmetry_cell_setting 'hexagonal'
loop_
_space_group_symop_operation_xyz
x,y,z
x-y,x,1/2+z
-y,x-y,z
-x,-y,1/2+z
-x+y,-x,z
y,-x+y,1/2+z
-x+y,y,1/2+z
x,x-y,1/2+z
-y,-x,1/2+z
y,x,z
x-y,-y,z
-x,-x+y,z
loop_
_atom_site_type_symbol
_atom_site_label
_atom_site_fract_x
_atom_site_fract_y
_atom_site_fract_z
Si Si1 0.000000 0.784465 0.182120
Si Si2 0.000000 0.000000 0.176519
Si Si3 0.876462 0.504570 0.868138
Si Si4 0.786741 0.786741 0.908292
Si Si5 0.289631 0.834472 0.964513
Si Si6 0.000000 0.000000 0.410108
Si Si7 0.870049 0.613880 0.672868
O O1 0.119779 0.788486 0.159468
O O2 0.000000 0.890536 0.132617
O O3 0.000000 0.803116 0.295138
O O4 0.000000 0.000000 0.293480
O O5 0.881560 0.390645 0.885010
O O6 0.789804 0.491566 0.951971
O O7 0.834613 0.525100 0.763074
O O8 0.000000 0.609570 0.886988
O O9 0.675538 0.787279 0.940112
O O10 0.892537 0.892537 0.956712
O O11 0.322397 0.859759 0.078482
O O12 0.000000 0.713837 0.684566
#
# Coordination Sequence:
#
# PCOD8326693 Si02
#       7
#     6   2  12   6  12   2  12
#     4  11  20  39  64 107 147 193 232 304 372 450
#     4   9  18  33  64  98 151 190 227 277 370 446
#     4  11  26  46  71 100 141 190 241 310 365 432
#     4  11  22  43  68 103 150 195 233 307 372 460
#     4  12  25  48  70 101 143 190 252 305 372 439
#     4   9  24  33  70 110 148 196 242 280 388 464
#     4  11  24  41  69 106 147 191 250 300 370 453
#
# _framework density 23.251435000000001
#
# number of rings (size 3 to 8) (size 9 to 14) (size 15 to 20)
#    0.000    0.923    5.769    0.462    3.231    1.846 
#    0.000    1.154    0.000    0.000    0.000    0.000 
#    0.000    0.000    0.000    0.000    0.000    0.000 
#
# Total GULP energy -644183.271539 kJ/mol
# GULP energy per Si atom -12388.139837 kJ/mol
# Density = 2.319851 g / cm^3
# Si number density = 23.251435 Si / 1000 Ang^3
#
#
#
# Elastic Constant Matrix: (Units=GPa)
#
#
# Indices 1 2 3 4 5 6 
#
# 1 110.9302 47.0087 47.4192 0.0000 0.0000 0.0000
# 2 47.0087 110.9302 47.4192 0.0000 0.0000 0.0000
# 3 47.4192 47.4192 116.4820 0.0000 0.0000 0.0000
# 4 0.0000 0.0000 0.0000 29.0042 0.0000 0.0000
# 5 0.0000 0.0000 0.0000 0.0000 29.0042 0.0000
# 6 0.0000 0.0000 0.0000 0.0000 0.0000 31.9608
#
#
#
# Elastic Compliance Matrix: (Units=1/GPa)
#
#
# Indices 1 2 3 4 5 6 
#
# 1 0.012012 -0.003632 -0.003411 0.000000 0.000000 0.000000
# 2 -0.003632 0.012012 -0.003411 0.000000 0.000000 0.000000
# 3 -0.003411 -0.003411 0.011363 0.000000 0.000000 0.000000
# 4 0.000000 0.000000 0.000000 0.034478 0.000000 0.000000
# 5 0.000000 0.000000 0.000000 0.000000 0.034478 0.000000
# 6 0.000000 0.000000 0.000000 0.000000 0.000000 0.031288
#
#
# Mechanical properties :
#
#
# Convention : Reuss Voigt Hill
#
# Bulk Modulus (GPa) = 69.07592 69.11518 69.09555
# Shear Modulus (GPa) = 30.98540 31.09354 31.03947
#
# Velocity S-wave (km/s) = 3.65447 3.66084 3.65766
# Velocity P-wave (km/s) = 6.89780 6.90353 6.90066
#
# Compressibility (1/GPa) = 0.01447682
#
# Stress axis : x y z
#
# Youngs Moduli (GPa) = 83.24923 83.24923 88.00801
#
# Poissons Ratio (x) = 0.30237 0.30024
# Poissons Ratio (y) = 0.30237 0.30024
# Poissons Ratio (z) = 0.28400 0.28400
#
# Static dielectric constant tensor:
#      x y z
#    x 4.118740 0.000000 0.000000 
#    y 0.000000 4.118740 0.000000 
#    z 0.000000 0.000000 4.210870 
# 
# 
# High freq. dielectric constant tensor:
#      x y z
#    x 1.913420 0.000000 0.000000 
#    y 0.000000 1.913420 0.000000 
#    z 0.000000 0.000000 1.916910 
# 
# From -- ./inp_files/1322.got.cif
#   From: 2010.03.12/outbox.cif.g09.slc.cpg/sg185_cif.got.tgz:1322.got - 2010.04.01 11:55:19.
