data_PCOD8326210
_publ_section_title
;
Structure prediction by ZEFSAII (Michael W. Deem and Ramdas Pophale) SiO2 
 PCOD8326210
Probable space group: P 62 2 2
;
_chemical_formula_sum "Si O2"
_cell_formula_units_Z 36
_cell_length_a 8.812519
_cell_length_b 8.812519
_cell_length_c 22.733456
_cell_angle_alpha 90.000000
_cell_angle_beta 90.000000
_cell_angle_gamma 120.000000
_cell_volume 1528.960366
_symmetry_space_group_name_H-M "P 62 2 2"
_symmetry_group_IT_number 180
_symmetry_cell_setting 'hexagonal'
loop_
_space_group_symop_operation_xyz
x,y,z
x-y,x,1/3+z
-y,x-y,2/3+z
-x,-y,z
-x+y,-x,1/3+z
y,-x+y,2/3+z
x-y,-y,-z
-x,-x+y,1/3-z
y,x,2/3-z
-y,-x,2/3-z
-x+y,y,-z
x,x-y,1/3-z
loop_
_atom_site_type_symbol
_atom_site_label
_atom_site_fract_x
_atom_site_fract_y
_atom_site_fract_z
Si Si1 0.826819 0.347355 0.732025
Si Si2 0.177948 0.153655 0.101764
Si Si3 0.690894 0.519446 0.935181
O O1 0.826024 0.413012 0.666667
O O2 0.819152 0.160896 0.729202
O O3 0.653183 0.325687 0.762931
O O4 0.000000 0.500000 0.764858
O O5 0.208468 0.104234 0.166667
O O6 0.151234 0.321123 0.104488
O O7 0.000000 0.000000 0.073328
O O8 0.500000 0.500000 0.936778
O O9 0.773567 0.547133 0.000000
#
# Coordination Sequence:
#
# PCOD8326210 Si02
#       3
#    12  12  12
#     4  10  21  40  65  98 131 169 220 272 330 396
#     4  11  25  44  64  95 137 182 226 276 337 401
#     4  11  22  41  70 103 134 172 224 282 337 402
#
# _framework density 23.545411000000001
#
# number of rings (size 3 to 8) (size 9 to 14) (size 15 to 20)
#    0.000    1.333    0.000    7.000    0.000    6.000 
#    0.000   10.000    0.000    0.000    0.000    0.000 
#    0.000    0.000    0.000    0.000    0.000    0.000 
#
# Total GULP energy -446266.972599 kJ/mol
# GULP energy per Si atom -12396.304794 kJ/mol
# Density = 2.349182 g / cm^3
# Si number density = 23.545411 Si / 1000 Ang^3
#
#
#
# Elastic Constant Matrix: (Units=GPa)
#
#
# Indices 1 2 3 4 5 6 
#
# 1 245.7327 118.8911 34.0540 0.0000 0.0000 0.0000
# 2 118.8911 245.7327 34.0540 0.0000 0.0000 0.0000
# 3 34.0540 34.0540 63.2905 0.0000 0.0000 0.0000
# 4 0.0000 0.0000 0.0000 17.6515 0.0000 0.0000
# 5 0.0000 0.0000 0.0000 0.0000 17.6515 0.0000
# 6 0.0000 0.0000 0.0000 0.0000 0.0000 63.4208
#
#
#
# Elastic Compliance Matrix: (Units=1/GPa)
#
#
# Indices 1 2 3 4 5 6 
#
# 1 0.005466 -0.002417 -0.001641 0.000000 0.000000 0.000000
# 2 -0.002417 0.005466 -0.001641 0.000000 0.000000 0.000000
# 3 -0.001641 -0.001641 0.017566 0.000000 0.000000 0.000000
# 4 0.000000 0.000000 0.000000 0.056652 0.000000 0.000000
# 5 0.000000 0.000000 0.000000 0.000000 0.056652 0.000000
# 6 0.000000 0.000000 0.000000 0.000000 0.000000 0.015768
#
#
# Mechanical properties :
#
#
# Convention : Reuss Voigt Hill
#
# Bulk Modulus (GPa) = 58.47470 103.19489 80.83480
# Shear Modulus (GPa) = 28.62571 44.26189 36.44380
#
# Velocity S-wave (km/s) = 3.49057 4.34043 3.93849
# Velocity P-wave (km/s) = 6.41359 8.30917 7.42214
#
# Compressibility (1/GPa) = 0.01710141
#
# Stress axis : x y z
#
# Youngs Moduli (GPa) = 182.93512 182.93512 56.92951
#
# Poissons Ratio (x) = 0.44223 0.09339
# Poissons Ratio (y) = 0.44223 0.09339
# Poissons Ratio (z) = 0.30011 0.30011
#
# Static dielectric constant tensor:
#      x y z
#    x 5.373650 0.000000 0.000000 
#    y 0.000000 5.373650 0.000000 
#    z 0.000000 0.000000 3.638510 
# 
# 
# High freq. dielectric constant tensor:
#      x y z
#    x 1.959360 0.000000 0.000000 
#    y 0.000000 1.959360 0.000000 
#    z 0.000000 0.000000 1.888580 
# 
# From -- ./inp_files/10731.got.cif
#   From: 2010.03.12/outbox.cif.g09.slc.cpg/sg180_6_cif.got.tgz:10731.got - 2010.04.01 11:35:50.
