data_PCOD8326049
_publ_section_title
;
Structure prediction by ZEFSAII (Michael W. Deem and Ramdas Pophale) SiO2 
 PCOD8326049
Probable space group: P 65 2 2
;
_chemical_formula_sum "Si O2"
_cell_formula_units_Z 84
_cell_length_a 19.564313
_cell_length_b 19.564313
_cell_length_c 11.834891
_cell_angle_alpha 90.000000
_cell_angle_beta 90.000000
_cell_angle_gamma 120.000000
_cell_volume 3923.052306
_symmetry_space_group_name_H-M "P 65 2 2"
_symmetry_group_IT_number 179
_symmetry_cell_setting 'hexagonal'
loop_
_space_group_symop_operation_xyz
x,y,z
x-y,x,5/6+z
-y,x-y,2/3+z
-x,-y,1/2+z
-x+y,-x,1/3+z
y,-x+y,1/6+z
x-y,-y,-z
-x,-x+y,1/3-z
y,x,2/3-z
-y,-x,1/6-z
-x+y,y,1/2-z
x,x-y,5/6-z
loop_
_atom_site_type_symbol
_atom_site_label
_atom_site_fract_x
_atom_site_fract_y
_atom_site_fract_z
Si Si1 0.332110 0.761884 0.337475
Si Si2 0.914304 0.352690 0.440741
Si Si3 0.061159 0.469859 0.334313
Si Si4 0.682674 0.864310 0.287247
Si Si5 0.713718 0.163654 0.327987
Si Si6 0.932725 0.069294 0.752303
Si Si7 0.466484 0.587178 0.350391
O O1 0.356207 0.712413 0.250000
O O2 0.329532 0.826610 0.256428
O O3 0.243706 0.716180 0.384021
O O4 0.395980 0.796224 0.437083
O O5 0.924079 0.276104 0.456837
O O6 0.936156 0.408248 0.552931
O O7 0.968941 0.405784 0.339040
O O8 0.087641 0.543821 0.416667
O O9 0.107079 0.426382 0.384681
O O10 0.079781 0.500708 0.206679
O O11 0.680187 0.840094 0.416667
O O12 0.627501 0.793541 0.201763
O O13 0.771928 0.907758 0.238813
O O14 0.656725 0.133988 0.434695
O O15 0.978591 0.082110 0.872840
O O16 0.000000 0.130603 0.666667
#
# Coordination Sequence:
#
# PCOD8326049 Si02
#       7
#    12  12  12  12  12  12  12
#     4   9  20  36  56  79 107 151 207 250 308 360
#     4  10  21  36  60  86 114 160 202 263 308 362
#     4  10  22  36  52  86 116 153 209 243 309 375
#     4  11  20  36  61  91 130 157 198 258 332 366
#     4  10  22  36  52  87 118 155 203 259 305 370
#     4  10  21  37  61 101 133 161 200 243 318 399
#     4  10  20  39  58  75 118 155 201 253 304 364
#
# _framework density 21.411898999999998
#
# number of rings (size 3 to 8) (size 9 to 14) (size 15 to 20)
#    0.000    2.000    2.857    1.286    2.000    5.714 
#    7.714    0.000    0.000    0.000   37.143    0.000 
#    0.000    0.000    0.000    0.000    0.000    0.000 
#
# Total GULP energy -1040615.593323 kJ/mol
# GULP energy per Si atom -12388.280873 kJ/mol
# Density = 2.136316 g / cm^3
# Si number density = 21.411899 Si / 1000 Ang^3
#
#
#
# Elastic Constant Matrix: (Units=GPa)
#
#
# Indices 1 2 3 4 5 6 
#
# 1 88.1290 44.8803 37.1239 0.0000 0.0000 0.0000
# 2 44.8803 88.1290 37.1239 0.0000 0.0000 0.0000
# 3 37.1239 37.1239 67.6161 0.0000 0.0000 0.0000
# 4 0.0000 0.0000 0.0000 19.1535 0.0000 0.0000
# 5 0.0000 0.0000 0.0000 0.0000 19.1535 0.0000
# 6 0.0000 0.0000 0.0000 0.0000 0.0000 21.6243
#
#
#
# Elastic Compliance Matrix: (Units=1/GPa)
#
#
# Indices 1 2 3 4 5 6 
#
# 1 0.016981 -0.006141 -0.005952 0.000000 0.000000 0.000000
# 2 -0.006141 0.016981 -0.005952 0.000000 0.000000 0.000000
# 3 -0.005952 -0.005952 0.021325 0.000000 0.000000 0.000000
# 4 0.000000 0.000000 0.000000 0.052210 0.000000 0.000000
# 5 0.000000 0.000000 0.000000 0.000000 0.052210 0.000000
# 6 0.000000 0.000000 0.000000 0.000000 0.000000 0.046244
#
#
# Mechanical properties :
#
#
# Convention : Reuss Voigt Hill
#
# Bulk Modulus (GPa) = 52.08698 53.57003 52.82851
# Shear Modulus (GPa) = 20.12552 20.30266 20.21409
#
# Velocity S-wave (km/s) = 3.06914 3.08262 3.07589
# Velocity P-wave (km/s) = 6.07771 6.14355 6.11072
#
# Compressibility (1/GPa) = 0.01919866
#
# Stress axis : x y z
#
# Youngs Moduli (GPa) = 58.88787 58.88787 46.89305
#
# Poissons Ratio (x) = 0.36161 0.27911
# Poissons Ratio (y) = 0.36161 0.27911
# Poissons Ratio (z) = 0.35050 0.35050
#
# Static dielectric constant tensor:
#      x y z
#    x 3.973430 0.000000 0.000000 
#    y 0.000000 3.973430 0.000000 
#    z 0.000000 0.000000 3.757140 
# 
# 
# High freq. dielectric constant tensor:
#      x y z
#    x 1.832910 0.000000 0.000000 
#    y 0.000000 1.832910 0.000000 
#    z 0.000000 0.000000 1.820470 
# 
# From -- ./inp_files/4941.got.cif
#   From: 2010.03.12/outbox.cif.g09.slc.cpg/sg179_3_cif.got.tgz:4941.got - 2010.04.02 07:08:42.
