data_PCOD8326687
_publ_section_title
;
Structure prediction by ZEFSAII (Michael W. Deem and Ramdas Pophale) SiO2 
 PCOD8326687
Probable space group: P 63 C M
;
_chemical_formula_sum "Si O2"
_cell_formula_units_Z 72
_cell_length_a 14.721115
_cell_length_b 14.721115
_cell_length_c 18.467935
_cell_angle_alpha 90.000000
_cell_angle_beta 90.000000
_cell_angle_gamma 120.000000
_cell_volume 3466.014536
_symmetry_space_group_name_H-M "P 63 C M"
_symmetry_group_IT_number 185
_symmetry_cell_setting 'hexagonal'
loop_
_space_group_symop_operation_xyz
x,y,z
x-y,x,1/2+z
-y,x-y,z
-x,-y,1/2+z
-x+y,-x,z
y,-x+y,1/2+z
-x+y,y,1/2+z
x,x-y,1/2+z
-y,-x,1/2+z
y,x,z
x-y,-y,z
-x,-x+y,z
loop_
_atom_site_type_symbol
_atom_site_label
_atom_site_fract_x
_atom_site_fract_y
_atom_site_fract_z
Si Si1 0.879384 0.124030 0.591210
Si Si2 0.225549 0.878142 0.442737
Si Si3 0.416210 0.537048 0.612573
Si Si4 0.554801 0.123595 0.453762
Si Si5 0.878221 0.297069 0.839442
Si Si6 0.442163 0.195753 0.681124
O O1 0.853684 0.169176 0.519922
O O2 0.851477 0.172054 0.660082
O O3 0.000000 0.154165 0.594161
O O4 0.808085 0.000000 0.591955
O O5 0.309676 0.838480 0.441770
O O6 0.140716 0.807046 0.382331
O O7 0.275923 0.000000 0.421780
O O8 0.445255 0.445255 0.617985
O O9 0.386027 0.551209 0.530602
O O10 0.318185 0.509611 0.663121
O O11 0.515502 0.644674 0.639017
O O12 0.637061 0.160275 0.388191
O O13 0.491684 0.000000 0.460617
O O14 0.811365 0.264255 0.766671
O O15 0.000000 0.366250 0.819691
#
# Coordination Sequence:
#
# PCOD8326687 Si02
#       6
#    12  12  12  12  12  12
#     4  11  22  41  68  99 132 172 221 275 331 395
#     4  10  21  40  65  92 126 170 222 271 327 394
#     4  11  23  43  66  92 126 167 215 268 324 386
#     4   9  20  40  64  90 124 167 211 266 323 383
#     4  11  24  41  62  93 133 173 216 267 329 395
#     4  12  25  41  64  94 130 173 216 271 331 391
#
# _framework density 20.773137999999999
#
# number of rings (size 3 to 8) (size 9 to 14) (size 15 to 20)
#    0.000    1.333    1.667    4.000    2.333    2.667 
#    1.000    0.000    0.000    0.333    0.000    0.000 
#    0.000    0.000    0.000    0.000    0.000    0.000 
#
# Total GULP energy -893076.714098 kJ/mol
# GULP energy per Si atom -12403.843251 kJ/mol
# Density = 2.072586 g / cm^3
# Si number density = 20.773138 Si / 1000 Ang^3
#
#
#
# Elastic Constant Matrix: (Units=GPa)
#
#
# Indices 1 2 3 4 5 6 
#
# 1 104.4097 36.1251 50.7198 0.0000 0.0000 0.0000
# 2 36.1251 104.4097 50.7198 0.0000 0.0000 0.0000
# 3 50.7198 50.7198 148.5852 0.0000 0.0000 0.0000
# 4 0.0000 0.0000 0.0000 28.4205 0.0000 0.0000
# 5 0.0000 0.0000 0.0000 0.0000 28.4205 0.0000
# 6 0.0000 0.0000 0.0000 0.0000 0.0000 34.1423
#
#
#
# Elastic Compliance Matrix: (Units=1/GPa)
#
#
# Indices 1 2 3 4 5 6 
#
# 1 0.012043 -0.002601 -0.003223 0.000000 0.000000 0.000000
# 2 -0.002601 0.012043 -0.003223 0.000000 0.000000 0.000000
# 3 -0.003223 -0.003223 0.008931 0.000000 0.000000 0.000000
# 4 0.000000 0.000000 0.000000 0.035186 0.000000 0.000000
# 5 0.000000 0.000000 0.000000 0.000000 0.035186 0.000000
# 6 0.000000 0.000000 0.000000 0.000000 0.000000 0.029289
#
#
# Mechanical properties :
#
#
# Convention : Reuss Voigt Hill
#
# Bulk Modulus (GPa) = 67.01301 70.28157 68.64729
# Shear Modulus (GPa) = 32.10330 32.85264 32.47797
#
# Velocity S-wave (km/s) = 3.93545 3.98112 3.95835
# Velocity P-wave (km/s) = 7.27873 7.41881 7.34910
#
# Compressibility (1/GPa) = 0.01492247
#
# Stress axis : x y z
#
# Youngs Moduli (GPa) = 83.03330 83.03330 111.97497
#
# Poissons Ratio (x) = 0.21599 0.36091
# Poissons Ratio (y) = 0.21599 0.36091
# Poissons Ratio (z) = 0.26762 0.26762
#
# Static dielectric constant tensor:
#      x y z
#    x 3.772030 0.000000 0.000000 
#    y 0.000000 3.772030 0.000000 
#    z 0.000000 0.000000 3.724510 
# 
# 
# High freq. dielectric constant tensor:
#      x y z
#    x 1.815800 0.000000 0.000000 
#    y 0.000000 1.815800 0.000000 
#    z 0.000000 0.000000 1.811200 
# 
# From -- ./inp_files/1690.got.cif
#   From: 2010.03.12/outbox.cif.g09.slc.cpg/sg185_cif.got.tgz:1690.got - 2010.04.01 11:55:19.
