data_PCOD8326367
_publ_section_title
;
Structure prediction by ZEFSAII (Michael W. Deem and Ramdas Pophale) SiO2 
 PCOD8326367
Probable space group: P 64 2 2
;
_chemical_formula_sum "Si O2"
_cell_formula_units_Z 66
_cell_length_a 19.089475
_cell_length_b 19.089475
_cell_length_c 9.901550
_cell_angle_alpha 90.000000
_cell_angle_beta 90.000000
_cell_angle_gamma 120.000000
_cell_volume 3124.796832
_symmetry_space_group_name_H-M "P 64 2 2"
_symmetry_group_IT_number 181
_symmetry_cell_setting 'hexagonal'
loop_
_space_group_symop_operation_xyz
x,y,z
x-y,x,2/3+z
-y,x-y,1/3+z
-x,-y,z
-x+y,-x,2/3+z
y,-x+y,1/3+z
x-y,-y,-z
-x,-x+y,2/3-z
y,x,1/3-z
-y,-x,1/3-z
-x+y,y,-z
x,x-y,2/3-z
loop_
_atom_site_type_symbol
_atom_site_label
_atom_site_fract_x
_atom_site_fract_y
_atom_site_fract_z
Si Si1 0.212965 0.189234 0.820163
Si Si2 0.269544 0.386041 0.450967
Si Si3 0.638802 0.443363 0.528835
Si Si4 0.573895 0.089552 0.645726
Si Si5 0.128587 0.257173 0.000000
Si Si6 0.090504 0.719030 0.816765
O O1 0.194644 0.194644 0.666667
O O2 0.203135 0.101568 0.833334
O O3 0.301538 0.266860 0.856906
O O4 0.152893 0.197855 0.924234
O O5 0.182015 0.364029 0.500000
O O6 0.334336 0.461636 0.539824
O O7 0.287932 0.415058 0.294279
O O8 0.600325 0.399676 0.666667
O O9 0.716172 0.432344 0.500000
O O10 0.570409 0.407598 0.413298
O O11 0.555829 0.111657 0.500000
O O12 0.659249 0.092046 0.630850
O O13 0.500000 0.000000 0.690830
O O14 0.187942 0.320530 0.110665
O O15 0.000000 0.697669 0.833334
#
# Coordination Sequence:
#
# PCOD8326367 Si02
#       6
#    12  12  12  12   6  12
#     4  11  25  44  70 100 141 185 234 301 364 432
#     4  10  21  42  67  95 137 177 227 292 354 415
#     4  11  26  47  70 101 148 192 240 299 369 446
#     4  11  22  44  74 102 136 186 236 301 366 426
#     4  12  26  40  73 106 136 186 248 286 367 454
#     4  12  22  42  71 101 135 179 239 297 349 431
#
# _framework density 21.121372000000001
#
# number of rings (size 3 to 8) (size 9 to 14) (size 15 to 20)
#    0.000    0.909    5.455    2.182    0.000    5.455 
#    1.636    1.364    0.000    0.000    0.000    0.000 
#    0.000    0.000    0.000    0.000    0.000    0.000 
#
# Total GULP energy -817774.177674 kJ/mol
# GULP energy per Si atom -12390.517844 kJ/mol
# Density = 2.107330 g / cm^3
# Si number density = 21.121372 Si / 1000 Ang^3
#
#
#
# Elastic Constant Matrix: (Units=GPa)
#
#
# Indices 1 2 3 4 5 6 
#
# 1 116.5208 64.1682 63.8506 0.0000 0.0000 0.0000
# 2 64.1682 116.5208 63.8506 0.0000 0.0000 0.0000
# 3 63.8506 63.8506 137.9545 0.0000 0.0000 0.0000
# 4 0.0000 0.0000 0.0000-1178.0952 0.0010 0.0000
# 5 0.0000 0.0000 0.0000 0.0010-1178.0963 0.0000
# 6 0.0000 0.0000 0.0000 0.0000 0.0000 26.1763
#
#
#
# Elastic Compliance Matrix: (Units=1/GPa)
#
#
# Indices 1 2 3 4 5 6 
#
# 1 0.013663 -0.005438 -0.003807 0.000000 0.000000 0.000000
# 2 -0.005438 0.013663 -0.003807 0.000000 0.000000 0.000000
# 3 -0.003807 -0.003807 0.010773 0.000000 0.000000 0.000000
# 4 0.000000 0.000000 0.000000 -0.000849 0.000000 0.000000
# 5 0.000000 0.000000 0.000000 0.000000 -0.000849 0.000000
# 6 0.000000 0.000000 0.000000 0.000000 0.000000 0.038203
#
#
# Mechanical properties :
#
#
# Convention : Reuss Voigt Hill
#
# Bulk Modulus (GPa) = 83.36695 83.85944 83.61320
# Shear Modulus (GPa) = 47.75306 -454.06128 -203.15411
#
# Velocity S-wave (km/s) = 4.76004 -14.67801 -9.81799
# Velocity P-wave (km/s) = 8.35265 15.73114 9.42608
#
# Compressibility (1/GPa) = 0.01199516
#
# Stress axis : x y z
#
# Youngs Moduli (GPa) = 73.19028 73.19028 92.82832
#
# Poissons Ratio (x) = 0.39803 0.35337
# Poissons Ratio (y) = 0.39803 0.35337
# Poissons Ratio (z) = 0.27862 0.27862
#
# Static dielectric constant tensor:
#      x y z
#    x 7.679910 0.000000 0.000000 
#    y 0.000000 7.679920 0.000000 
#    z 0.000000 0.000000 3.612670 
# 
# 
# High freq. dielectric constant tensor:
#      x y z
#    x 1.830770 0.000000 0.000000 
#    y 0.000000 1.830770 0.000000 
#    z 0.000000 0.000000 1.827650 
# 
# From -- ./inp_files/3165.got.cif
#   From: 2010.03.12/outbox.cif.g09.slc.cpg/sg181_2_cif.got.tgz:3165.got - 2010.04.01 11:42:41.
