data_PCOD8326073
_publ_section_title
;
Structure prediction by ZEFSAII (Michael W. Deem and Ramdas Pophale) SiO2 
 PCOD8326073
Probable space group: P 65 2 2
;
_chemical_formula_sum "Si O2"
_cell_formula_units_Z 36
_cell_length_a 14.099325
_cell_length_b 14.099325
_cell_length_c 11.001133
_cell_angle_alpha 90.000000
_cell_angle_beta 90.000000
_cell_angle_gamma 120.000000
_cell_volume 1893.933342
_symmetry_space_group_name_H-M "P 65 2 2"
_symmetry_group_IT_number 179
_symmetry_cell_setting 'hexagonal'
loop_
_space_group_symop_operation_xyz
x,y,z
x-y,x,5/6+z
-y,x-y,2/3+z
-x,-y,1/2+z
-x+y,-x,1/3+z
y,-x+y,1/6+z
x-y,-y,-z
-x,-x+y,1/3-z
y,x,2/3-z
-y,-x,1/6-z
-x+y,y,1/2-z
x,x-y,5/6-z
loop_
_atom_site_type_symbol
_atom_site_label
_atom_site_fract_x
_atom_site_fract_y
_atom_site_fract_z
Si Si1 0.310394 0.378888 0.944962
Si Si2 0.000000 0.167333 0.166667
Si Si3 0.907388 0.272798 0.332742
Si Si4 0.525836 0.000000 0.000000
O O1 0.296653 0.296653 0.833334
O O2 0.213380 0.409183 0.944074
O O3 0.422760 0.494657 0.922936
O O4 0.319144 0.323043 0.068496
O O5 0.064669 0.129338 0.250000
O O6 0.918112 0.188932 0.245209
O O7 0.916106 0.370776 0.248628
#
# Coordination Sequence:
#
# PCOD8326073 Si02
#       4
#    12   6  12   6
#     4  10  22  39  67  91 129 169 212 272 333 387
#     4  11  22  40  61  94 120 166 205 258 320 389
#     4  11  20  42  67  88 128 167 218 262 330 398
#     4   9  24  36  69  90 124 178 213 276 330 395
#
# _framework density 19.008058999999999
#
# number of rings (size 3 to 8) (size 9 to 14) (size 15 to 20)
#    1.000    0.667    3.333    2.000    0.000    0.000 
#    3.000    0.000   36.667    0.000    0.000    0.000 
#    0.000    0.000    0.000    0.000    0.000    0.000 
#
# Total GULP energy -446047.472643 kJ/mol
# GULP energy per Si atom -12390.207573 kJ/mol
# Density = 1.896480 g / cm^3
# Si number density = 19.008059 Si / 1000 Ang^3
#
#
#
# Elastic Constant Matrix: (Units=GPa)
#
#
# Indices 1 2 3 4 5 6 
#
# 1 117.6439 51.8395 39.9756 0.0000 0.0000 0.0000
# 2 51.8395 117.6439 39.9756 0.0000 0.0000 0.0000
# 3 39.9756 39.9756 102.7119 0.0000 0.0000 0.0000
# 4 0.0000 0.0000 0.0000 54.7173 0.0000 0.0000
# 5 0.0000 0.0000 0.0000 0.0000 54.7173 0.0000
# 6 0.0000 0.0000 0.0000 0.0000 0.0000 32.9022
#
#
#
# Elastic Compliance Matrix: (Units=1/GPa)
#
#
# Indices 1 2 3 4 5 6 
#
# 1 0.011212 -0.003985 -0.002813 0.000000 0.000000 0.000000
# 2 -0.003985 0.011212 -0.002813 0.000000 0.000000 0.000000
# 3 -0.002813 -0.002813 0.011925 0.000000 0.000000 0.000000
# 4 0.000000 0.000000 0.000000 0.018276 0.000000 0.000000
# 5 0.000000 0.000000 0.000000 0.000000 0.018276 0.000000
# 6 0.000000 0.000000 0.000000 0.000000 0.000000 0.030393
#
#
# Mechanical properties :
#
#
# Convention : Reuss Voigt Hill
#
# Bulk Modulus (GPa) = 66.10022 66.84234 66.47128
# Shear Modulus (GPa) = 39.82242 42.21463 41.01852
#
# Velocity S-wave (km/s) = 4.58211 4.71773 4.65042
# Velocity P-wave (km/s) = 7.92746 8.05715 7.99257
#
# Compressibility (1/GPa) = 0.01512854
#
# Stress axis : x y z
#
# Youngs Moduli (GPa) = 89.19111 89.19111 83.85404
#
# Poissons Ratio (x) = 0.35540 0.23587
# Poissons Ratio (y) = 0.35540 0.23587
# Poissons Ratio (z) = 0.25088 0.25088
#
# Static dielectric constant tensor:
#      x y z
#    x 3.270840 0.000000 0.000000 
#    y 0.000000 3.270840 0.000000 
#    z 0.000000 0.000000 3.682350 
# 
# 
# High freq. dielectric constant tensor:
#      x y z
#    x 1.723850 0.000000 0.000000 
#    y 0.000000 1.723850 0.000000 
#    z 0.000000 0.000000 1.759400 
# 
# From -- ./inp_files/3960.got.cif
#   From: 2010.03.12/outbox.cif.g09.slc.cpg/sg179_2_cif.got.tgz:3960.got - 2010.04.02 07:08:42.
