data_PCOD8326706
_publ_section_title
;
Structure prediction by ZEFSAII (Michael W. Deem and Ramdas Pophale) SiO2 
 PCOD8326706
Probable space group: P 63 M C
;
_chemical_formula_sum "Si O2"
_cell_formula_units_Z 60
_cell_length_a 28.892705
_cell_length_b 28.892705
_cell_length_c 5.292385
_cell_angle_alpha 90.000000
_cell_angle_beta 90.000000
_cell_angle_gamma 120.000000
_cell_volume 3826.118956
_symmetry_space_group_name_H-M "P 63 M C"
_symmetry_group_IT_number 186
_symmetry_cell_setting 'hexagonal'
loop_
_space_group_symop_operation_xyz
x,y,z
x-y,x,1/2+z
-y,x-y,z
-x,-y,1/2+z
-x+y,-x,z
y,-x+y,1/2+z
-x+y,y,z
x,x-y,z
-y,-x,z
y,x,1/2+z
x-y,-y,1/2+z
-x,-x+y,1/2+z
loop_
_atom_site_type_symbol
_atom_site_label
_atom_site_fract_x
_atom_site_fract_y
_atom_site_fract_z
Si Si1 0.137512 0.760313 0.383720
Si Si2 0.264696 0.529391 0.907182
Si Si3 0.398607 0.027179 0.423973
Si Si4 0.709197 0.982621 0.400689
Si Si5 0.700792 0.299209 0.907414
Si Si6 0.560468 0.853867 0.888630
O O1 0.177376 0.822625 0.433276
O O2 0.079192 0.751057 0.361075
O O3 0.141404 0.727322 0.615462
O O4 0.153179 0.745106 0.119564
O O5 0.285574 0.571148 0.680435
O O6 0.296165 0.496378 0.884094
O O7 0.278217 0.556434 0.180964
O O8 0.440869 0.090969 0.428209
O O9 0.407357 0.000159 0.674487
O O10 0.338136 0.016536 0.429406
O O11 0.742811 0.993979 0.659854
O O12 0.727571 0.363786 0.888105
#
# Coordination Sequence:
#
# PCOD8326706 Si02
#       6
#    12   6  12  12   6  12
#     4  12  19  28  38  63  97 140 160 205 254 276
#     4  12  22  36  56  90 108 116 154 209 256 278
#     4  10  16  27  42  58  90 143 172 182 214 288
#     4  10  16  27  41  52  78 136 188 189 219 296
#     4  10  24  46  68  76  96 134 154 177 230 324
#     4  12  20  28  45  72 107 126 150 202 243 279
#
# _framework density 15.681685999999999
#
# number of rings (size 3 to 8) (size 9 to 14) (size 15 to 20)
#    0.200    0.800   10.000    1.800    0.000    0.000 
#    0.000    0.000    0.000    0.000    0.000    0.000 
#    0.000   16.000    0.000    0.000    0.000    0.000 
#
# Total GULP energy -743394.961724 kJ/mol
# GULP energy per Si atom -12389.916029 kJ/mol
# Density = 1.564599 g / cm^3
# Si number density = 15.681686 Si / 1000 Ang^3
#
#
#
# Elastic Constant Matrix: (Units=GPa)
#
#
# Indices 1 2 3 4 5 6 
#
# 1 55.9469 34.6331 6.0158 0.0000 0.0000 0.0000
# 2 34.6331 55.9469 6.0158 0.0000 0.0000 0.0000
# 3 6.0158 6.0158 108.5836 0.0000 0.0000 0.0000
# 4 0.0000 0.0000 0.0000 80.5754 0.0000 0.0000
# 5 0.0000 0.0000 0.0000 0.0000 80.5754 0.0000
# 6 0.0000 0.0000 0.0000 0.0000 0.0000 10.6569
#
#
#
# Elastic Compliance Matrix: (Units=1/GPa)
#
#
# Indices 1 2 3 4 5 6 
#
# 1 0.029020 -0.017898 -0.000616 0.000000 0.000000 0.000000
# 2 -0.017898 0.029020 -0.000616 0.000000 0.000000 0.000000
# 3 -0.000616 -0.000616 0.009278 0.000000 0.000000 0.000000
# 4 0.000000 0.000000 0.000000 0.012411 0.000000 0.000000
# 5 0.000000 0.000000 0.000000 0.000000 0.012411 0.000000
# 6 0.000000 0.000000 0.000000 0.000000 0.000000 0.093836
#
#
# Mechanical properties :
#
#
# Convention : Reuss Voigt Hill
#
# Bulk Modulus (GPa) = 34.41550 34.86744 34.64147
# Shear Modulus (GPa) = 21.37472 45.94905 33.66188
#
# Velocity S-wave (km/s) = 3.69594 5.41892 4.63814
# Velocity P-wave (km/s) = 6.34092 7.83809 7.12892
#
# Compressibility (1/GPa) = 0.02905668
#
# Stress axis : x y z
#
# Youngs Moduli (GPa) = 34.45915 34.45915 107.78455
#
# Poissons Ratio (x) = 0.61675 0.06641
# Poissons Ratio (y) = 0.61675 0.06641
# Poissons Ratio (z) = 0.02123 0.02123
#
# Static dielectric constant tensor:
#      x y z
#    x 2.859170 0.000000 0.000000 
#    y 0.000000 2.859170 0.000000 
#    z 0.000000 0.000000 3.988050 
# 
# 
# High freq. dielectric constant tensor:
#      x y z
#    x 1.560690 0.000000 0.000000 
#    y 0.000000 1.560690 0.000000 
#    z 0.000000 0.000000 1.646980 
# 
# From -- ./inp_files/365.got.cif
#   From: 2010.03.12/outbox.cif.g09.slc.cpg/sg186_1_cif.got.tgz:365.got - 2010.04.01 11:56:34.
