data_PCOD8326196
_publ_section_title
;
Structure prediction by ZEFSAII (Michael W. Deem and Ramdas Pophale) SiO2 
 PCOD8326196
Probable space group: P 62 2 2
;
_chemical_formula_sum "Si O2"
_cell_formula_units_Z 90
_cell_length_a 17.459834
_cell_length_b 17.459834
_cell_length_c 17.505822
_cell_angle_alpha 90.000000
_cell_angle_beta 90.000000
_cell_angle_gamma 120.000000
_cell_volume 4621.610706
_symmetry_space_group_name_H-M "P 62 2 2"
_symmetry_group_IT_number 180
_symmetry_cell_setting 'hexagonal'
loop_
_space_group_symop_operation_xyz
x,y,z
x-y,x,1/3+z
-y,x-y,2/3+z
-x,-y,z
-x+y,-x,1/3+z
y,-x+y,2/3+z
x-y,-y,-z
-x,-x+y,1/3-z
y,x,2/3-z
-y,-x,2/3-z
-x+y,y,-z
x,x-y,1/3-z
loop_
_atom_site_type_symbol
_atom_site_label
_atom_site_fract_x
_atom_site_fract_y
_atom_site_fract_z
Si Si1 0.567816 0.473322 0.482381
Si Si2 0.380111 0.114537 0.209554
Si Si3 0.660485 0.470395 0.063753
Si Si4 0.483369 0.698428 0.991851
Si Si5 0.826842 0.413421 0.666667
Si Si6 0.691964 0.767896 0.775169
Si Si7 0.929381 0.254376 0.396448
Si Si8 0.824205 0.499336 0.153617
O O1 0.500000 0.500000 0.518987
O O2 0.664446 0.557897 0.479748
O O3 0.572259 0.398049 0.529201
O O4 0.534496 0.429647 0.400481
O O5 0.345236 0.172618 0.166667
O O6 0.432206 0.148680 0.290212
O O7 0.297030 0.018026 0.221571
O O8 0.681370 0.569896 0.048734
O O9 0.752314 0.471898 0.083419
O O10 0.599603 0.402798 0.996780
O O11 0.453152 0.765161 0.023528
O O12 0.510877 0.721799 0.902976
O O13 0.761759 0.761759 0.833334
O O14 0.693057 0.861331 0.778968
O O15 0.718153 0.763130 0.687737
O O16 0.594161 0.687717 0.797241
O O17 0.855257 0.427629 0.166667
#
# Coordination Sequence:
#
# PCOD8326196 Si02
#       8
#    12  12  12  12   6  12  12  12
#     4  11  21  36  52  77 114 158 199 242 295 353
#     4  11  22  38  59  86 114 153 201 246 296 355
#     4  10  21  34  54  77 113 161 202 242 301 345
#     4  11  22  32  53  80 118 160 208 249 284 338
#     4  12  21  34  50  78 118 166 202 250 290 329
#     4  10  22  40  63  89 114 151 193 238 311 371
#     4  10  21  41  64  85 119 151 192 249 300 366
#     4  11  21  35  53  81 117 155 201 253 290 349
#
# _framework density 19.473728999999999
#
# number of rings (size 3 to 8) (size 9 to 14) (size 15 to 20)
#    0.000    1.333    4.000    2.600    0.000    2.400 
#    0.000    2.667    0.000    0.400    0.000    1.867 
#    0.000    0.000    0.000    0.000    0.000    0.000 
#
# Total GULP energy -1115297.176297 kJ/mol
# GULP energy per Si atom -12392.190848 kJ/mol
# Density = 1.942941 g / cm^3
# Si number density = 19.473729 Si / 1000 Ang^3
#
#
#
# Elastic Constant Matrix: (Units=GPa)
#
#
# Indices 1 2 3 4 5 6 
#
# 1 84.6556 32.7746 5.6583 0.0000 0.0000 0.0000
# 2 32.7746 84.6556 5.6583 0.0000 0.0000 0.0000
# 3 5.6583 5.6583 21.5186 0.0000 0.0000 0.0000
# 4 0.0000 0.0000 0.0000 27.7378 0.0000 0.0000
# 5 0.0000 0.0000 0.0000 0.0000 27.7378 0.0000
# 6 0.0000 0.0000 0.0000 0.0000 0.0000 25.9405
#
#
#
# Elastic Compliance Matrix: (Units=1/GPa)
#
#
# Indices 1 2 3 4 5 6 
#
# 1 0.014006 -0.005269 -0.002297 0.000000 0.000000 0.000000
# 2 -0.005269 0.014006 -0.002297 0.000000 0.000000 0.000000
# 3 -0.002297 -0.002297 0.047680 0.000000 0.000000 0.000000
# 4 0.000000 0.000000 0.000000 0.036052 0.000000 0.000000
# 5 0.000000 0.000000 0.000000 0.000000 0.036052 0.000000
# 6 0.000000 0.000000 0.000000 0.000000 0.000000 0.038550
#
#
# Mechanical properties :
#
#
# Convention : Reuss Voigt Hill
#
# Bulk Modulus (GPa) = 17.86857 31.00136 24.43497
# Shear Modulus (GPa) = 22.24919 26.06580 24.15749
#
# Velocity S-wave (km/s) = 3.38379 3.66254 3.52592
# Velocity P-wave (km/s) = 4.94594 5.81719 5.39917
#
# Compressibility (1/GPa) = 0.05596417
#
# Stress axis : x y z
#
# Youngs Moduli (GPa) = 71.39804 71.39804 20.97331
#
# Poissons Ratio (x) = 0.37619 0.04818
# Poissons Ratio (y) = 0.37619 0.04818
# Poissons Ratio (z) = 0.16403 0.16403
#
# Static dielectric constant tensor:
#      x y z
#    x 3.448060 0.000000 0.000000 
#    y 0.000000 3.448060 0.000000 
#    z 0.000000 0.000000 3.658920 
# 
# 
# High freq. dielectric constant tensor:
#      x y z
#    x 1.735400 0.000000 0.000000 
#    y 0.000000 1.735400 0.000000 
#    z 0.000000 0.000000 1.774530 
# 
# From -- ./inp_files/7998.got.cif
#   From: 2010.03.12/outbox.cif.g09.slc.cpg/sg180_4_cif.got.tgz:7998.got - 2010.04.01 11:35:50.
