data_PCOD8326869
_publ_section_title
;
Structure prediction by ZEFSAII (Michael W. Deem and Ramdas Pophale) SiO2 
 PCOD8326869
Probable space group: P -6 M 2
;
_chemical_formula_sum "Si O2"
_cell_formula_units_Z 72
_cell_length_a 23.828425
_cell_length_b 23.828425
_cell_length_c 8.757594
_cell_angle_alpha 90.000000
_cell_angle_beta 90.000000
_cell_angle_gamma 120.000000
_cell_volume 4306.318169
_symmetry_space_group_name_H-M "P -6 M 2"
_symmetry_group_IT_number 187
_symmetry_cell_setting 'hexagonal'
loop_
_space_group_symop_operation_xyz
x,y,z
-x+y,-x,-z
-y,x-y,z
x,y,-z
-x+y,-x,z
-y,x-y,-z
-y,-x,-z
-x+y,y,-z
x,x-y,-z
-x+y,y,z
x,x-y,z
-y,-x,z
loop_
_atom_site_type_symbol
_atom_site_label
_atom_site_fract_x
_atom_site_fract_y
_atom_site_fract_z
Si Si1 0.363012 0.508771 0.821546
Si Si2 0.150864 0.301728 0.681357
Si Si3 0.005293 0.240384 0.677205
Si Si4 0.375552 0.308358 0.181792
Si Si5 0.879069 0.758137 0.673223
Si Si6 0.224665 0.449329 0.320144
Si Si7 0.374475 0.187238 0.823500
Si Si8 0.558834 0.989457 0.674701
O O1 0.418631 0.581370 0.775067
O O2 0.298290 0.490459 0.732432
O O3 0.385498 0.457953 0.777128
O O4 0.348725 0.503635 0.000000
O O5 0.151618 0.303236 0.500000
O O6 0.076797 0.262272 0.741248
O O7 0.187824 0.375648 0.746186
O O8 0.009398 0.259660 0.500000
O O9 0.979446 0.281013 0.768776
O O10 0.957540 0.161514 0.697971
O O11 0.401368 0.259865 0.240913
O O12 0.423510 0.374981 0.264119
O O13 0.379963 0.316703 0.000000
O O14 0.864896 0.729791 0.500000
O O15 0.851032 0.702063 0.796923
O O16 0.222684 0.445368 0.500000
O O17 0.388434 0.194217 0.000000
O O18 0.565322 0.972795 0.500000
O O19 0.505555 0.011109 0.692585
#
# Coordination Sequence:
#
# PCOD8326869 Si02
#       8
#    12   6  12  12   6   6   6  12
#     4  10  21  37  54  71  92 122 159 201 249 298
#     4   9  18  29  43  64  91 121 151 189 235 283
#     4   9  16  28  44  63  88 119 154 189 230 277
#     4  10  18  29  46  68  94 122 151 185 228 274
#     4   8  14  24  42  63  82 111 149 185 219 264
#     4  11  21  33  51  73  96 123 157 199 251 303
#     4   8  16  28  42  64  93 119 143 175 217 264
#     4  10  20  33  49  69  95 125 156 191 231 280
#
# _framework density 16.719619000000002
#
# number of rings (size 3 to 8) (size 9 to 14) (size 15 to 20)
#    0.000    2.500    0.000    2.750    0.000    4.000 
#    0.500    1.250    0.000    0.333    0.000    2.333 
#    0.833    0.000    0.500    2.500    0.667    3.000 
#
# Total GULP energy -892147.182100 kJ/mol
# GULP energy per Si atom -12390.933085 kJ/mol
# Density = 1.668156 g / cm^3
# Si number density = 16.719619 Si / 1000 Ang^3
#
#
#
# Elastic Constant Matrix: (Units=GPa)
#
#
# Indices 1 2 3 4 5 6 
#
# 1 -21.1142 197.7159 27.4879 0.0000 -0.0056 -0.0002
# 2 197.7159 -21.1142 27.4879 0.0000 0.0056 0.0002
# 3 27.4879 27.4879 36.4682 0.0000 0.0000 0.0000
# 4 0.0000 0.0000 0.0000 20.1842 0.0000 0.0056
# 5 -0.0056 0.0056 0.0000 0.0000 20.1842 0.0000
# 6 -0.0002 0.0002 0.0000 0.0056 0.0000 -109.4148
#
#
#
# Elastic Compliance Matrix: (Units=1/GPa)
#
#
# Indices 1 2 3 4 5 6 
#
# 1 0.001414 0.005984 -0.005577 0.000000 -0.000001 0.000000
# 2 0.005984 0.001414 -0.005577 0.000000 0.000001 0.000000
# 3 -0.005577 -0.005577 0.035828 0.000000 0.000000 0.000000
# 4 0.000000 0.000000 0.000000 0.049544 0.000000 0.000003
# 5 -0.000001 0.000001 0.000000 0.000000 0.049544 0.000000
# 6 0.000000 0.000000 0.000000 0.000003 0.000000 -0.009140
#
#
# Mechanical properties :
#
#
# Convention : Reuss Voigt Hill
#
# Bulk Modulus (GPa) = 35.31272 55.51368 45.41320
# Shear Modulus (GPa) = 33.69686 -31.03940 1.32873
#
# Velocity S-wave (km/s) = 4.49420 -4.31335 0.89243
# Velocity P-wave (km/s) = 6.93519 2.91001 5.31813
#
# Compressibility (1/GPa) = 0.02831841
#
# Stress axis : x y z
#
# Youngs Moduli (GPa) = 707.04530 707.04525 27.91131
#
# Poissons Ratio (x) = -4.23102 0.15565
# Poissons Ratio (y) = -4.23102 0.15565
# Poissons Ratio (z) = 3.94288 3.94288
#
# Static dielectric constant tensor:
#      x y z
#    x 15.638330 0.000020 0.000000 
#    y 0.000020 15.638350 0.000000 
#    z 0.000000 0.000000 3.125130 
# 
# 
# High freq. dielectric constant tensor:
#      x y z
#    x 1.632400 0.000000 0.000000 
#    y 0.000000 1.632400 0.000000 
#    z 0.000000 0.000000 1.644360 
# 
# From -- ./inp_files/1113.got.cif
#   From: 2010.03.12/outbox.cif.g09.slc.cpg/sg187_1_cif.got.tgz:1113.got - 2010.04.01 11:58:23.
