data_PCOD8326696
_publ_section_title
;
Structure prediction by ZEFSAII (Michael W. Deem and Ramdas Pophale) SiO2 
 PCOD8326696
Probable space group: P 63 C M
;
_chemical_formula_sum "Si O2"
_cell_formula_units_Z 48
_cell_length_a 25.451089
_cell_length_b 25.451089
_cell_length_c 5.218565
_cell_angle_alpha 90.000000
_cell_angle_beta 90.000000
_cell_angle_gamma 120.000000
_cell_volume 2927.483582
_symmetry_space_group_name_H-M "P 63 C M"
_symmetry_group_IT_number 185
_symmetry_cell_setting 'hexagonal'
loop_
_space_group_symop_operation_xyz
x,y,z
x-y,x,1/2+z
-y,x-y,z
-x,-y,1/2+z
-x+y,-x,z
y,-x+y,1/2+z
-x+y,y,1/2+z
x,x-y,1/2+z
-y,-x,1/2+z
y,x,z
x-y,-y,z
-x,-x+y,z
loop_
_atom_site_type_symbol
_atom_site_label
_atom_site_fract_x
_atom_site_fract_y
_atom_site_fract_z
Si Si1 0.387499 0.315085 0.321970
Si Si2 0.792063 0.863511 0.310380
Si Si3 0.671736 0.743864 0.321580
Si Si4 0.072322 0.566019 0.320963
O O1 0.350948 0.350948 0.321919
O O2 0.370585 0.272517 0.571426
O O3 0.459304 0.362168 0.321156
O O4 0.370174 0.272415 0.072726
O O5 0.808310 0.911610 0.537289
O O6 0.832187 0.832187 0.348367
O O7 0.720769 0.814760 0.322564
O O8 0.705268 0.705268 0.318396
O O9 0.097308 0.548611 0.570849
O O10 0.000000 0.529916 0.321013
#
# Coordination Sequence:
#
# PCOD8326696 Si02
#       4
#    12  12  12  12
#     4   9  15  24  37  54  79 108 139 174 207 237
#     4  11  22  37  56  75  93 111 134 169 221 288
#     4   9  17  28  43  62  81 104 133 166 209 255
#     4   9  15  21  30  47  73 107 144 177 207 230
#
# _framework density 16.396332999999998
#
# number of rings (size 3 to 8) (size 9 to 14) (size 15 to 20)
#    0.000    2.500    0.000    3.750    0.000   10.000 
#    0.000    0.000    0.000    5.000    0.000    0.000 
#    0.000    0.000    0.000    0.000    0.000    0.000 
#
# Total GULP energy -595185.827086 kJ/mol
# GULP energy per Si atom -12399.704731 kJ/mol
# Density = 1.635901 g / cm^3
# Si number density = 16.396333 Si / 1000 Ang^3
#
#
#
# Elastic Constant Matrix: (Units=GPa)
#
#
# Indices 1 2 3 4 5 6 
#
# 1 55.4135 16.6826 25.5759 0.0000 0.0000 0.0000
# 2 16.6826 55.4135 25.5759 0.0000 0.0000 0.0000
# 3 25.5759 25.5759 141.4447 0.0000 0.0000 0.0000
# 4 0.0000 0.0000 0.0000 23.6646 0.0000 0.0000
# 5 0.0000 0.0000 0.0000 0.0000 23.6646 0.0000
# 6 0.0000 0.0000 0.0000 0.0000 0.0000 19.3655
#
#
#
# Elastic Compliance Matrix: (Units=1/GPa)
#
#
# Indices 1 2 3 4 5 6 
#
# 1 0.020865 -0.004954 -0.002877 0.000000 0.000000 0.000000
# 2 -0.004954 0.020865 -0.002877 0.000000 0.000000 0.000000
# 3 -0.002877 -0.002877 0.008110 0.000000 0.000000 0.000000
# 4 0.000000 0.000000 0.000000 0.042257 0.000000 0.000000
# 5 0.000000 0.000000 0.000000 0.000000 0.042257 0.000000
# 6 0.000000 0.000000 0.000000 0.000000 0.000000 0.051638
#
#
# Mechanical properties :
#
#
# Convention : Reuss Voigt Hill
#
# Bulk Modulus (GPa) = 35.18002 43.10450 39.14226
# Shear Modulus (GPa) = 23.05369 25.63476 24.34422
#
# Velocity S-wave (km/s) = 3.75377 3.95833 3.85741
# Velocity P-wave (km/s) = 6.34747 6.87294 6.61542
#
# Compressibility (1/GPa) = 0.02842523
#
# Stress axis : x y z
#
# Youngs Moduli (GPa) = 47.92617 47.92617 123.29864
#
# Poissons Ratio (x) = 0.23741 0.35475
# Poissons Ratio (y) = 0.23741 0.35475
# Poissons Ratio (z) = 0.13789 0.13789
#
# Static dielectric constant tensor:
#      x y z
#    x 2.798470 0.000000 0.000000 
#    y 0.000000 2.798470 0.000000 
#    z 0.000000 0.000000 3.367480 
# 
# 
# High freq. dielectric constant tensor:
#      x y z
#    x 1.588560 0.000000 0.000000 
#    y 0.000000 1.588560 0.000000 
#    z 0.000000 0.000000 1.657760 
# 
# From -- ./inp_files/88.got.cif
#   From: 2010.03.12/outbox.cif.g09.slc.cpg/sg185_cif.got.tgz:88.got - 2010.04.01 11:55:19.
