data_PCOD8326550
_publ_section_title
;
Structure prediction by ZEFSAII (Michael W. Deem and Ramdas Pophale) SiO2 
 PCOD8326550
Probable space group: P 6 M M
;
_chemical_formula_sum "Si O2"
_cell_formula_units_Z 96
_cell_length_a 18.363906
_cell_length_b 18.363906
_cell_length_c 20.038756
_cell_angle_alpha 90.000000
_cell_angle_beta 90.000000
_cell_angle_gamma 120.000000
_cell_volume 5852.366437
_symmetry_space_group_name_H-M "P 6 M M"
_symmetry_group_IT_number 183
_symmetry_cell_setting 'hexagonal'
loop_
_space_group_symop_operation_xyz
x,y,z
x-y,x,z
-y,x-y,z
-x,-y,z
-x+y,-x,z
y,-x+y,z
-x+y,y,z
x,x-y,z
-y,-x,z
y,x,z
x-y,-y,z
-x,-x+y,z
loop_
_atom_site_type_symbol
_atom_site_label
_atom_site_fract_x
_atom_site_fract_y
_atom_site_fract_z
Si Si1 0.835949 0.502426 0.007750
Si Si2 0.094638 0.746881 0.623874
Si Si3 0.355818 0.095129 0.471562
Si Si4 0.743742 0.093166 0.105961
Si Si5 0.668462 0.164221 0.365177
Si Si6 0.333405 0.833402 0.859838
Si Si7 0.372888 0.468943 0.722227
Si Si8 0.644593 0.740162 0.259254
O O1 0.738805 0.477610 0.012879
O O2 0.842834 0.421417 0.025819
O O3 0.893391 0.573883 0.059800
O O4 0.870840 0.537227 0.933043
O O5 0.152216 0.847785 0.630067
O O6 0.098774 0.717973 0.548882
O O7 0.135184 0.706872 0.673277
O O8 0.000000 0.721902 0.644242
O O9 0.324109 0.162055 0.455667
O O10 0.439823 0.119561 0.430334
O O11 0.282157 0.000000 0.453000
O O12 0.840483 0.159518 0.087968
O O13 0.722961 0.104048 0.181913
O O14 0.729101 0.000000 0.093743
O O15 0.575741 0.151482 0.364963
O O16 0.736774 0.263227 0.364918
O O17 0.679792 0.119163 0.300247
O O18 0.401915 0.803829 0.860909
O O19 0.245443 0.754558 0.841842
O O20 0.349856 0.899297 0.800758
O O21 0.430042 0.569959 0.710487
O O22 0.426900 0.426900 0.701554
O O23 0.677022 0.838511 0.277199
O O24 0.717907 0.717907 0.276154
#
# Coordination Sequence:
#
# PCOD8326550 Si02
#       8
#    12  12  12  12  12  12  12  12
#     4   9  17  28  42  61  86 117 150 182 215 252
#     4   9  17  30  47  65  86 113 145 179 216 260
#     4   9  18  31  47  67  89 114 144 179 219 261
#     4   9  18  32  48  66  88 114 144 178 218 261
#     4  10  20  33  48  67  92 121 152 184 217 250
#     4   9  16  26  40  57  79 108 142 177 211 248
#     4   9  17  27  39  58  84 112 141 175 215 256
#     4   9  18  32  49  68  90 116 145 178 217 260
#
# _framework density 16.40362
#
# number of rings (size 3 to 8) (size 9 to 14) (size 15 to 20)
#    0.000    2.875    0.000    1.125    0.000    3.750 
#    0.000    3.750    0.000    2.250    0.000    3.500 
#    0.000    3.000    0.000    0.250    0.000   16.250 
#
# Total GULP energy -1189680.040376 kJ/mol
# GULP energy per Si atom -12392.500421 kJ/mol
# Density = 1.636628 g / cm^3
# Si number density = 16.403620 Si / 1000 Ang^3
#
#
#
# Elastic Constant Matrix: (Units=GPa)
#
#
# Indices 1 2 3 4 5 6 
#
# 1 94.4017 62.5997 46.7135 0.0000 0.0000 0.0000
# 2 62.5997 94.4017 46.7135 0.0000 0.0000 0.0000
# 3 46.7135 46.7135 87.8336 0.0000 0.0000 0.0000
# 4 0.0000 0.0000 0.0000 23.0767 0.0000 0.0000
# 5 0.0000 0.0000 0.0000 0.0000 23.0767 0.0000
# 6 0.0000 0.0000 0.0000 0.0000 0.0000 15.9010
#
#
#
# Elastic Compliance Matrix: (Units=1/GPa)
#
#
# Indices 1 2 3 4 5 6 
#
# 1 0.020382 -0.011063 -0.004956 0.000000 0.000000 0.000000
# 2 -0.011063 0.020382 -0.004956 0.000000 0.000000 0.000000
# 3 -0.004956 -0.004956 0.016657 0.000000 0.000000 0.000000
# 4 0.000000 0.000000 0.000000 0.043334 0.000000 0.000000
# 5 0.000000 0.000000 0.000000 0.000000 0.043334 0.000000
# 6 0.000000 0.000000 0.000000 0.000000 0.000000 0.062889
#
#
# Mechanical properties :
#
#
# Convention : Reuss Voigt Hill
#
# Bulk Modulus (GPa) = 64.64164 65.41004 65.02584
# Shear Modulus (GPa) = 19.67860 20.45155 20.06508
#
# Velocity S-wave (km/s) = 3.46735 3.53479 3.50124
# Velocity P-wave (km/s) = 7.45134 7.52473 7.48813
#
# Compressibility (1/GPa) = 0.01546990
#
# Stress axis : x y z
#
# Youngs Moduli (GPa) = 49.06401 49.06401 60.03572
#
# Poissons Ratio (x) = 0.54280 0.29754
# Poissons Ratio (y) = 0.54280 0.29754
# Poissons Ratio (z) = 0.24316 0.24316
#
# Static dielectric constant tensor:
#      x y z
#    x 3.061460 0.000000 0.000000 
#    y 0.000000 3.061460 0.000000 
#    z 0.000000 0.000000 3.308480 
# 
# 
# High freq. dielectric constant tensor:
#      x y z
#    x 1.614490 0.000000 0.000000 
#    y 0.000000 1.614490 0.000000 
#    z 0.000000 0.000000 1.645800 
# 
# From -- ./inp_files/3035.got.cif
#   From: 2010.03.12/outbox.cif.g09.slc.cpg/sg183_2_cif.got.tgz:3035.got - 2010.04.01 11:53:02.
