data_PCOD8326678
_publ_section_title
;
Structure prediction by ZEFSAII (Michael W. Deem and Ramdas Pophale) SiO2 
 PCOD8326678
Probable space group: P 63 C M
;
_chemical_formula_sum "Si O2"
_cell_formula_units_Z 72
_cell_length_a 14.964905
_cell_length_b 14.964905
_cell_length_c 18.080984
_cell_angle_alpha 90.000000
_cell_angle_beta 90.000000
_cell_angle_gamma 120.000000
_cell_volume 3506.716219
_symmetry_space_group_name_H-M "P 63 C M"
_symmetry_group_IT_number 185
_symmetry_cell_setting 'hexagonal'
loop_
_space_group_symop_operation_xyz
x,y,z
x-y,x,1/2+z
-y,x-y,z
-x,-y,1/2+z
-x+y,-x,z
y,-x+y,1/2+z
-x+y,y,1/2+z
x,x-y,1/2+z
-y,-x,1/2+z
y,x,z
x-y,-y,z
-x,-x+y,z
loop_
_atom_site_type_symbol
_atom_site_label
_atom_site_fract_x
_atom_site_fract_y
_atom_site_fract_z
Si Si1 0.566168 0.357381 0.388760
Si Si2 0.577182 0.457297 0.044037
Si Si3 0.237217 0.118720 0.858396
Si Si4 0.292245 0.881199 0.765552
Si Si5 0.762814 0.554058 0.607934
Si Si6 0.118309 0.882314 0.527588
O O1 0.555783 0.243571 0.386717
O O2 0.516044 0.374100 0.462167
O O3 0.506125 0.366763 0.318460
O O4 0.496327 0.496327 0.054917
O O5 0.670729 0.517147 0.101228
O O6 0.520449 0.335664 0.058374
O O7 0.189549 0.189549 0.834882
O O8 0.335381 0.149192 0.807404
O O9 0.149439 0.000000 0.847682
O O10 0.275793 0.137865 0.943147
O O11 0.268469 0.812380 0.693169
O O12 0.352061 0.000000 0.741796
O O13 0.810243 0.671089 0.581493
O O14 0.000000 0.809058 0.550602
O O15 0.145871 0.000000 0.537377
#
# Coordination Sequence:
#
# PCOD8326678 Si02
#       6
#    12  12  12  12  12  12
#     4  10  22  43  67  93 121 163 213 269 323 383
#     4  12  24  43  70  94 126 172 218 268 329 384
#     4   9  19  36  61  91 127 171 216 264 314 379
#     4  11  24  41  62  92 133 171 212 265 326 388
#     4  12  25  43  62  96 130 169 215 269 323 389
#     4  10  20  38  64  94 128 166 213 265 321 383
#
# _framework density 20.532029999999999
#
# number of rings (size 3 to 8) (size 9 to 14) (size 15 to 20)
#    0.333    1.000    1.667    4.167    2.333    4.000 
#    0.000    0.833    0.000    2.000    0.000    0.000 
#    0.000    0.000    0.000    0.000    0.000    0.000 
#
# Total GULP energy -893136.125730 kJ/mol
# GULP energy per Si atom -12404.668413 kJ/mol
# Density = 2.048530 g / cm^3
# Si number density = 20.532030 Si / 1000 Ang^3
#
#
#
# Elastic Constant Matrix: (Units=GPa)
#
#
# Indices 1 2 3 4 5 6 
#
# 1 77.9078 15.0536 30.1916 0.0000 0.0000 0.0000
# 2 15.0536 77.9078 30.1916 0.0000 0.0000 0.0000
# 3 30.1916 30.1916 119.1180 0.0000 0.0000 0.0000
# 4 0.0000 0.0000 0.0000 23.1059 0.0000 0.0000
# 5 0.0000 0.0000 0.0000 0.0000 23.1059 0.0000
# 6 0.0000 0.0000 0.0000 0.0000 0.0000 31.4271
#
#
#
# Elastic Compliance Matrix: (Units=1/GPa)
#
#
# Indices 1 2 3 4 5 6 
#
# 1 0.014394 -0.001516 -0.003264 0.000000 0.000000 0.000000
# 2 -0.001516 0.014394 -0.003264 0.000000 0.000000 0.000000
# 3 -0.003264 -0.003264 0.010050 0.000000 0.000000 0.000000
# 4 0.000000 0.000000 0.000000 0.043279 0.000000 0.000000
# 5 0.000000 0.000000 0.000000 0.000000 0.043279 0.000000
# 6 0.000000 0.000000 0.000000 0.000000 0.000000 0.031820
#
#
# Mechanical properties :
#
#
# Convention : Reuss Voigt Hill
#
# Bulk Modulus (GPa) = 43.95889 47.31192 45.63540
# Shear Modulus (GPa) = 27.64185 28.82756 28.23470
#
# Velocity S-wave (km/s) = 3.67315 3.75110 3.71233
# Velocity P-wave (km/s) = 6.28059 6.46947 6.37573
#
# Compressibility (1/GPa) = 0.02274853
#
# Stress axis : x y z
#
# Youngs Moduli (GPa) = 69.47577 69.47577 99.50698
#
# Poissons Ratio (x) = 0.10535 0.32478
# Poissons Ratio (y) = 0.10535 0.32478
# Poissons Ratio (z) = 0.22676 0.22676
#
# Static dielectric constant tensor:
#      x y z
#    x 3.633060 0.000000 0.000000 
#    y 0.000000 3.633060 0.000000 
#    z 0.000000 0.000000 3.596650 
# 
# 
# High freq. dielectric constant tensor:
#      x y z
#    x 1.804060 0.000000 0.000000 
#    y 0.000000 1.804060 0.000000 
#    z 0.000000 0.000000 1.797480 
# 
# From -- ./inp_files/1712.got.cif
#   From: 2010.03.12/outbox.cif.g09.slc.cpg/sg185_cif.got.tgz:1712.got - 2010.04.01 11:55:19.
