data_PCOD8326603
_publ_section_title
;
Structure prediction by ZEFSAII (Michael W. Deem and Ramdas Pophale) SiO2 
 PCOD8326603
Probable space group: P 6 C C
;
_chemical_formula_sum "Si O2"
_cell_formula_units_Z 84
_cell_length_a 19.634126
_cell_length_b 19.634126
_cell_length_c 12.468515
_cell_angle_alpha 90.000000
_cell_angle_beta 90.000000
_cell_angle_gamma 120.000000
_cell_volume 4162.636722
_symmetry_space_group_name_H-M "P 6 C C"
_symmetry_group_IT_number 184
_symmetry_cell_setting 'hexagonal'
loop_
_space_group_symop_operation_xyz
x,y,z
x-y,x,z
-y,x-y,z
-x,-y,z
-x+y,-x,z
y,-x+y,z
-x+y,y,1/2+z
x,x-y,1/2+z
-y,-x,1/2+z
y,x,1/2+z
x-y,-y,1/2+z
-x,-x+y,1/2+z
loop_
_atom_site_type_symbol
_atom_site_label
_atom_site_fract_x
_atom_site_fract_y
_atom_site_fract_z
Si Si1 0.583133 0.241431 0.345190
Si Si2 0.430847 0.377703 0.160166
Si Si3 0.752999 0.074719 0.316544
Si Si4 0.563325 0.699018 0.961360
Si Si5 0.602945 0.865006 0.037075
Si Si6 0.771066 0.095981 0.768722
Si Si7 0.608214 0.488344 0.163342
O O1 0.673605 0.259519 0.347666
O O2 0.531844 0.188115 0.445839
O O3 0.534873 0.193452 0.241030
O O4 0.393611 0.303964 0.239618
O O5 0.409067 0.350919 0.035144
O O6 0.523898 0.411729 0.156715
O O7 0.405107 0.439319 0.200184
O O8 0.729378 0.079456 0.438292
O O9 0.842790 0.138526 0.291853
O O10 0.746372 0.990804 0.295615
O O11 0.592687 0.780114 0.023162
O O12 0.601713 0.713566 0.843957
O O13 0.651510 0.903465 0.145699
O O14 0.517954 0.860092 0.052121
#
# Coordination Sequence:
#
# PCOD8326603 Si02
#       7
#    12  12  12  12  12  12  12
#     4  10  25  40  62  90 128 174 220 268 325 394
#     4  11  24  40  64  92 124 165 216 272 324 381
#     4  11  24  41  69  93 132 163 216 261 330 383
#     4  11  23  40  65  91 125 169 217 270 323 381
#     4  11  23  40  67  89 126 169 215 266 326 383
#     4  11  23  43  65  99 126 166 211 270 316 400
#     4  11  24  40  61  93 123 167 215 269 328 374
#
# _framework density 20.179518000000002
#
# number of rings (size 3 to 8) (size 9 to 14) (size 15 to 20)
#    0.286    0.857    4.286    0.857    8.000    0.000 
#    0.000    4.286    0.000    0.286    0.000    0.000 
#    0.000    2.571    0.000    0.000    0.000    0.000 
#
# Total GULP energy -1040864.160727 kJ/mol
# GULP energy per Si atom -12391.240009 kJ/mol
# Density = 2.013359 g / cm^3
# Si number density = 20.179518 Si / 1000 Ang^3
#
#
#
# Elastic Constant Matrix: (Units=GPa)
#
#
# Indices 1 2 3 4 5 6 
#
# 1 108.9549 51.2577 49.4187 0.0000 0.0000 0.0000
# 2 51.2577 108.9549 49.4187 0.0000 0.0000 0.0000
# 3 49.4187 49.4187 135.8128 0.0000 0.0000 0.0000
# 4 0.0000 0.0000 0.0000 29.7101 0.0000 0.0000
# 5 0.0000 0.0000 0.0000 0.0000 29.7101 0.0000
# 6 0.0000 0.0000 0.0000 0.0000 0.0000 28.8486
#
#
#
# Elastic Compliance Matrix: (Units=1/GPa)
#
#
# Indices 1 2 3 4 5 6 
#
# 1 0.012690 -0.004642 -0.002929 0.000000 0.000000 0.000000
# 2 -0.004642 0.012690 -0.002929 0.000000 0.000000 0.000000
# 3 -0.002929 -0.002929 0.009494 0.000000 0.000000 0.000000
# 4 0.000000 0.000000 0.000000 0.033659 0.000000 0.000000
# 5 0.000000 0.000000 0.000000 0.000000 0.033659 0.000000
# 6 0.000000 0.000000 0.000000 0.000000 0.000000 0.034664
#
#
# Mechanical properties :
#
#
# Convention : Reuss Voigt Hill
#
# Bulk Modulus (GPa) = 72.06296 72.65699 72.35998
# Shear Modulus (GPa) = 30.77321 31.22892 31.00107
#
# Velocity S-wave (km/s) = 3.90933 3.93817 3.92377
# Velocity P-wave (km/s) = 7.49437 7.53408 7.51425
#
# Compressibility (1/GPa) = 0.01387675
#
# Stress axis : x y z
#
# Youngs Moduli (GPa) = 78.80145 78.80145 105.32568
#
# Poissons Ratio (x) = 0.36577 0.30846
# Poissons Ratio (y) = 0.36577 0.30846
# Poissons Ratio (z) = 0.23078 0.23078
#
# Static dielectric constant tensor:
#      x y z
#    x 3.677940 0.000000 0.000000 
#    y 0.000000 3.677940 0.000000 
#    z 0.000000 0.000000 3.686760 
# 
# 
# High freq. dielectric constant tensor:
#      x y z
#    x 1.778570 0.000000 0.000000 
#    y 0.000000 1.778570 0.000000 
#    z 0.000000 0.000000 1.793770 
# 
# From -- ./inp_files/662.got.cif
#   From: 2010.03.12/outbox.cif.g09.slc.cpg/sg184_cif.got.tgz:662.got - 2010.04.01 11:54:36.
