data_PCOD8326884
_publ_section_title
;
Structure prediction by ZEFSAII (Michael W. Deem and Ramdas Pophale) SiO2 
 PCOD8326884
Probable space group: P -6 M 2
;
_chemical_formula_sum "Si O2"
_cell_formula_units_Z 60
_cell_length_a 20.494462
_cell_length_b 20.494462
_cell_length_c 9.087447
_cell_angle_alpha 90.000000
_cell_angle_beta 90.000000
_cell_angle_gamma 120.000000
_cell_volume 3305.563976
_symmetry_space_group_name_H-M "P -6 M 2"
_symmetry_group_IT_number 187
_symmetry_cell_setting 'hexagonal'
loop_
_space_group_symop_operation_xyz
x,y,z
-x+y,-x,-z
-y,x-y,z
x,y,-z
-x+y,-x,z
-y,x-y,-z
-y,-x,-z
-x+y,y,-z
x,x-y,-z
-x+y,y,z
x,x-y,z
-y,-x,z
loop_
_atom_site_type_symbol
_atom_site_label
_atom_site_fract_x
_atom_site_fract_y
_atom_site_fract_z
Si Si1 0.766630 0.808615 0.328701
Si Si2 0.628098 0.672659 0.174750
Si Si3 0.898837 0.523054 0.825561
Si Si4 0.791333 0.208668 0.826158
Si Si5 0.255641 0.127821 0.329530
Si Si6 0.188095 0.521528 0.175395
O O1 0.746537 0.794391 0.500000
O O2 0.786092 0.893046 0.283541
O O3 0.696287 0.747848 0.238035
O O4 0.836513 0.796576 0.289002
O O5 0.624317 0.596935 0.235053
O O6 0.553097 0.669303 0.232908
O O7 0.635403 0.677005 0.000000
O O8 0.891917 0.445959 0.759355
O O9 0.828437 0.532681 0.776617
O O10 0.903609 0.519874 0.000000
O O11 0.832903 0.167098 0.757502
O O12 0.798222 0.201779 0.000000
O O13 0.278153 0.139077 0.500000
O O14 0.261977 0.523954 0.239220
O O15 0.184559 0.592280 0.239996
O O16 0.189675 0.523654 0.000000
#
# Coordination Sequence:
#
# PCOD8326884 Si02
#       6
#    12  12  12   6   6  12
#     4  10  21  36  53  75 102 131 163 204 255 305
#     4  10  18  30  51  75  99 126 164 208 249 294
#     4   9  17  29  47  74 105 134 166 208 255 300
#     4  10  18  32  54  78 104 138 176 212 256 308
#     4  10  20  36  56  76 102 134 170 212 258 310
#     4   9  16  25  39  63  95 129 162 198 240 284
#
# _framework density 18.151214
#
# number of rings (size 3 to 8) (size 9 to 14) (size 15 to 20)
#    0.000    2.400    2.000    1.400    0.000    4.400 
#    1.200    0.000    0.000    4.200    0.000    0.000 
#    0.000    1.600    0.000    0.000    0.000    0.000 
#
# Total GULP energy -743805.080370 kJ/mol
# GULP energy per Si atom -12396.751339 kJ/mol
# Density = 1.810990 g / cm^3
# Si number density = 18.151214 Si / 1000 Ang^3
#
#
#
# Elastic Constant Matrix: (Units=GPa)
#
#
# Indices 1 2 3 4 5 6 
#
# 1 175.8252 96.5734 26.2803 0.0000 0.0002 0.0000
# 2 96.5734 175.8252 26.2803 0.0000 -0.0002 0.0000
# 3 26.2803 26.2803 18.0037 0.0000 0.0000 0.0000
# 4 0.0000 0.0000 0.0000 16.2276 0.0000 -0.0002
# 5 0.0002 -0.0002 0.0000 0.0000 16.2276 0.0000
# 6 0.0000 0.0000 0.0000 -0.0002 0.0000 39.6259
#
#
#
# Elastic Compliance Matrix: (Units=1/GPa)
#
#
# Indices 1 2 3 4 5 6 
#
# 1 0.008864 -0.003754 -0.007460 0.000000 0.000000 0.000000
# 2 -0.003754 0.008864 -0.007460 0.000000 0.000000 0.000000
# 3 -0.007460 -0.007460 0.077323 0.000000 0.000000 0.000000
# 4 0.000000 0.000000 0.000000 0.061623 0.000000 0.000000
# 5 0.000000 0.000000 0.000000 0.000000 0.061623 0.000000
# 6 0.000000 0.000000 0.000000 0.000000 0.000000 0.025236
#
#
# Mechanical properties :
#
#
# Convention : Reuss Voigt Hill
#
# Bulk Modulus (GPa) = 17.32970 74.21357 45.77164
# Shear Modulus (GPa) = 16.66021 29.11757 22.88889
#
# Velocity S-wave (km/s) = 3.03290 4.00955 3.55492
# Velocity P-wave (km/s) = 4.67256 7.90002 6.49011
#
# Compressibility (1/GPa) = 0.05770440
#
# Stress axis : x y z
#
# Youngs Moduli (GPa) = 112.81257 112.81257 12.93275
#
# Poissons Ratio (x) = 0.42347 0.09648
# Poissons Ratio (y) = 0.42347 0.09648
# Poissons Ratio (z) = 0.84157 0.84157
#
# Static dielectric constant tensor:
#      x y z
#    x 3.637720 0.000000 0.000000 
#    y 0.000000 3.637720 0.000000 
#    z 0.000000 0.000000 2.895950 
# 
# 
# High freq. dielectric constant tensor:
#      x y z
#    x 1.716430 0.000000 0.000000 
#    y 0.000000 1.716430 0.000000 
#    z 0.000000 0.000000 1.649590 
# 
# From -- ./inp_files/691.got.cif
#   From: 2010.03.12/outbox.cif.g09.slc.cpg/sg187_1_cif.got.tgz:691.got - 2010.04.01 11:58:23.
