data_PCOD8326964
_publ_section_title
;
Structure prediction by ZEFSAII (Michael W. Deem and Ramdas Pophale) SiO2 
 PCOD8326964
Probable space group: P -6 M 2
;
_chemical_formula_sum "Si O2"
_cell_formula_units_Z 96
_cell_length_a 17.685352
_cell_length_b 17.685352
_cell_length_c 24.735363
_cell_angle_alpha 90.000000
_cell_angle_beta 90.000000
_cell_angle_gamma 120.000000
_cell_volume 6700.023659
_symmetry_space_group_name_H-M "P -6 M 2"
_symmetry_group_IT_number 187
_symmetry_cell_setting 'hexagonal'
loop_
_space_group_symop_operation_xyz
x,y,z
-x+y,-x,-z
-y,x-y,z
x,y,-z
-x+y,-x,z
-y,x-y,-z
-y,-x,-z
-x+y,y,-z
x,x-y,-z
-x+y,y,z
x,x-y,z
-y,-x,z
loop_
_atom_site_type_symbol
_atom_site_label
_atom_site_fract_x
_atom_site_fract_y
_atom_site_fract_z
Si Si1 0.078392 0.741567 0.868237
Si Si2 0.333411 0.486115 0.343284
Si Si3 0.648553 0.914090 0.253039
Si Si4 0.160077 0.494871 0.062536
Si Si5 0.092286 0.730358 0.560382
Si Si6 0.999908 0.175920 0.061703
Si Si7 0.832374 0.831871 0.708265
Si Si8 0.830860 0.000203 0.418769
O O1 0.168324 0.831677 0.868691
O O2 0.055726 0.701350 0.808022
O O3 0.085372 0.670842 0.904787
O O4 0.004948 0.757805 0.895393
O O5 0.250361 0.500722 0.345049
O O6 0.420463 0.579538 0.343518
O O7 0.333073 0.433811 0.289220
O O8 0.334812 0.430453 0.395265
O O9 0.650113 0.825057 0.253965
O O10 0.738768 0.990132 0.278060
O O11 0.254896 0.509791 0.075644
O O12 0.160040 0.580020 0.082844
O O13 0.137037 0.475652 0.000000
O O14 0.091081 0.694058 0.500000
O O15 0.176701 0.823300 0.570727
O O16 0.010227 0.746653 0.566933
O O17 0.078440 0.156879 0.070668
O O18 0.002082 0.208186 0.000000
O O19 0.911507 0.088494 0.074454
O O20 0.908922 0.817843 0.733105
O O21 0.841712 0.841471 0.644741
O O22 0.841236 0.920618 0.733473
O O23 0.908111 0.091890 0.442829
O O24 0.839161 0.919581 0.443521
#
# Coordination Sequence:
#
# PCOD8326964 Si02
#       8
#    12  12  12  12  12  12  12  12
#     4   9  17  27  39  55  77 105 134 165 203 245
#     4  10  19  32  47  61  76  99 134 175 216 256
#     4   9  17  29  41  55  78 105 132 165 206 245
#     4   9  16  26  40  57  76  98 126 161 200 241
#     4   9  17  29  43  59  82 109 134 166 210 249
#     4   9  16  26  40  58  81 111 148 185 213 234
#     4   9  15  24  39  58  80 107 138 167 192 222
#     4   9  15  24  39  60  85 114 145 171 193 222
#
# _framework density 14.328308
#
# number of rings (size 3 to 8) (size 9 to 14) (size 15 to 20)
#    0.000    2.875    1.250    1.000    0.000    5.000 
#    0.000    0.000    0.000    4.500    0.000    0.000 
#    0.000    0.000    0.000    3.375    0.000   13.750 
#
# Total GULP energy -1189713.455911 kJ/mol
# GULP energy per Si atom -12392.848499 kJ/mol
# Density = 1.429570 g / cm^3
# Si number density = 14.328308 Si / 1000 Ang^3
#
#
#
# Elastic Constant Matrix: (Units=GPa)
#
#
# Indices 1 2 3 4 5 6 
#
# 1 75.5061 36.6089 40.8054 0.0000 -0.0001 0.0000
# 2 36.6089 75.5061 40.8054 0.0000 0.0001 0.0000
# 3 40.8054 40.8054 86.8319 0.0000 0.0000 0.0000
# 4 0.0000 0.0000 0.0000 8.9711 0.0000 0.0001
# 5 -0.0001 0.0001 0.0000 0.0000 8.9711 0.0000
# 6 0.0000 0.0000 0.0000 0.0001 0.0000 19.4486
#
#
#
# Elastic Compliance Matrix: (Units=1/GPa)
#
#
# Indices 1 2 3 4 5 6 
#
# 1 0.019633 -0.006076 -0.006371 0.000000 0.000000 0.000000
# 2 -0.006076 0.019633 -0.006371 0.000000 0.000000 0.000000
# 3 -0.006371 -0.006371 0.017504 0.000000 0.000000 0.000000
# 4 0.000000 0.000000 0.000000 0.111469 0.000000 -0.000001
# 5 0.000000 0.000000 0.000000 0.000000 0.111469 0.000000
# 6 0.000000 0.000000 0.000000 -0.000001 0.000000 0.051418
#
#
# Mechanical properties :
#
#
# Convention : Reuss Voigt Hill
#
# Bulk Modulus (GPa) = 52.26127 52.69815 52.47971
# Shear Modulus (GPa) = 13.32837 15.45312 14.39075
#
# Velocity S-wave (km/s) = 3.05325 3.28762 3.17260
# Velocity P-wave (km/s) = 6.99879 7.16032 7.08002
#
# Compressibility (1/GPa) = 0.01913463
#
# Stress axis : x y z
#
# Youngs Moduli (GPa) = 50.93507 50.93507 57.12888
#
# Poissons Ratio (x) = 0.30948 0.36396
# Poissons Ratio (y) = 0.30948 0.36396
# Poissons Ratio (z) = 0.32450 0.32450
#
# Static dielectric constant tensor:
#      x y z
#    x 2.681050 0.000000 0.000000 
#    y 0.000000 2.681050 0.000000 
#    z 0.000000 0.000000 2.953840 
# 
# 
# High freq. dielectric constant tensor:
#      x y z
#    x 1.514600 0.000000 0.000000 
#    y 0.000000 1.514600 0.000000 
#    z 0.000000 0.000000 1.558040 
# 
# From -- ./inp_files/4082.got.cif
#   From: 2010.03.12/outbox.cif.g09.slc.cpg/sg187_3_cif.got.tgz:4082.got - 2010.04.01 11:58:23.
