data_PCOD8326344
_publ_section_title
;
Structure prediction by ZEFSAII (Michael W. Deem and Ramdas Pophale) SiO2 
 PCOD8326344
Probable space group: P 64 2 2
;
_chemical_formula_sum "Si O2"
_cell_formula_units_Z 69
_cell_length_a 14.554334
_cell_length_b 14.554334
_cell_length_c 19.326384
_cell_angle_alpha 90.000000
_cell_angle_beta 90.000000
_cell_angle_gamma 120.000000
_cell_volume 3545.405469
_symmetry_space_group_name_H-M "P 64 2 2"
_symmetry_group_IT_number 181
_symmetry_cell_setting 'hexagonal'
loop_
_space_group_symop_operation_xyz
x,y,z
x-y,x,2/3+z
-y,x-y,1/3+z
-x,-y,z
-x+y,-x,2/3+z
y,-x+y,1/3+z
x-y,-y,-z
-x,-x+y,2/3-z
y,x,1/3-z
-y,-x,1/3-z
-x+y,y,-z
x,x-y,2/3-z
loop_
_atom_site_type_symbol
_atom_site_label
_atom_site_fract_x
_atom_site_fract_y
_atom_site_fract_z
Si Si1 0.000000 0.000000 0.666667
Si Si2 0.738315 0.491482 0.580378
Si Si3 0.787318 0.118104 0.981668
Si Si4 0.485174 0.888552 0.267169
Si Si5 0.180308 0.360616 0.000000
Si Si6 0.816488 0.999008 0.582433
Si Si7 0.503464 0.397263 0.560985
O O1 0.093470 0.020134 0.614766
O O2 0.760432 0.520864 0.500000
O O3 0.779821 0.604858 0.615996
O O4 0.797457 0.433423 0.612629
O O5 0.613155 0.409786 0.589408
O O6 0.901149 0.191986 0.946282
O O7 0.704202 0.111024 0.926183
O O8 0.764676 0.000000 0.000000
O O9 0.564969 0.865604 0.309949
O O10 0.512517 0.893298 0.187042
O O11 0.500000 0.000000 0.293267
O O12 0.176074 0.285326 0.062386
O O13 0.822997 0.000000 0.500000
O O14 0.500000 0.500000 0.586062
#
# Coordination Sequence:
#
# PCOD8326344 Si02
#       7
#     3  12  12  12   6  12  12
#     4  10  22  44  64  94 110 160 200 256 326 366
#     4  10  22  38  59  93 131 163 207 263 322 374
#     4  12  22  37  64  98 123 160 207 256 327 375
#     4  10  22  41  62  89 124 171 216 253 307 371
#     4  11  24  43  66  88 125 176 213 252 308 368
#     4  11  24  44  64  91 127 161 208 257 311 381
#     4  10  20  36  61  95 130 157 200 270 327 368
#
# _framework density 19.461807
#
# number of rings (size 3 to 8) (size 9 to 14) (size 15 to 20)
#    0.000    1.391    2.609    2.870    2.435    0.000 
#    6.261    0.000    0.000    1.043    0.000    0.000 
#    0.000    0.000    0.000    0.000    0.000    0.000 
#
# Total GULP energy -855677.944525 kJ/mol
# GULP energy per Si atom -12401.129631 kJ/mol
# Density = 1.941751 g / cm^3
# Si number density = 19.461807 Si / 1000 Ang^3
#
#
#
# Elastic Constant Matrix: (Units=GPa)
#
#
# Indices 1 2 3 4 5 6 
#
# 1 118.9099 50.6116 42.6753 0.0000 0.0000 0.0000
# 2 50.6116 118.9099 42.6753 0.0000 0.0000 0.0000
# 3 42.6753 42.6753 95.4073 0.0000 0.0000 0.0000
# 4 0.0000 0.0000 0.0000 43.3120 0.0000 0.0000
# 5 0.0000 0.0000 0.0000 0.0000 43.3120 0.0000
# 6 0.0000 0.0000 0.0000 0.0000 0.0000 34.1492
#
#
#
# Elastic Compliance Matrix: (Units=1/GPa)
#
#
# Indices 1 2 3 4 5 6 
#
# 1 0.011128 -0.003514 -0.003406 0.000000 0.000000 0.000000
# 2 -0.003514 0.011128 -0.003406 0.000000 0.000000 0.000000
# 3 -0.003406 -0.003406 0.013528 0.000000 0.000000 0.000000
# 4 0.000000 0.000000 0.000000 0.023088 0.000000 0.000000
# 5 0.000000 0.000000 0.000000 0.000000 0.023088 0.000000
# 6 0.000000 0.000000 0.000000 0.000000 0.000000 0.029283
#
#
# Mechanical properties :
#
#
# Convention : Reuss Voigt Hill
#
# Bulk Modulus (GPa) = 66.08082 67.23908 66.65995
# Shear Modulus (GPa) = 36.51302 37.30564 36.90933
#
# Velocity S-wave (km/s) = 4.33614 4.38295 4.35961
# Velocity P-wave (km/s) = 7.68748 7.76131 7.72448
#
# Compressibility (1/GPa) = 0.01513298
#
# Stress axis : x y z
#
# Youngs Moduli (GPa) = 89.86658 89.86658 73.92116
#
# Poissons Ratio (x) = 0.31580 0.25174
# Poissons Ratio (y) = 0.31580 0.25174
# Poissons Ratio (z) = 0.30604 0.30604
#
# Static dielectric constant tensor:
#      x y z
#    x 1.133080 0.000000 0.000000 
#    y 0.000000 1.133080 0.000000 
#    z 0.000000 0.000000 3.526040 
# 
# 
# High freq. dielectric constant tensor:
#      x y z
#    x 1.765440 0.000000 0.000000 
#    y 0.000000 1.765440 0.000000 
#    z 0.000000 0.000000 1.758270 
# 
# From -- ./inp_files/7811.got.cif
#   From: 2010.03.12/outbox.cif.g09.slc.cpg/sg181_4_cif.got.tgz:7811.got - 2010.04.01 11:42:41.
