data_PCOD8326537
_publ_section_title
;
Structure prediction by ZEFSAII (Michael W. Deem and Ramdas Pophale) SiO2 
 PCOD8326537
Probable space group: P 6 M M
;
_chemical_formula_sum "Si O2"
_cell_formula_units_Z 96
_cell_length_a 18.292582
_cell_length_b 18.292582
_cell_length_c 20.064543
_cell_angle_alpha 90.000000
_cell_angle_beta 90.000000
_cell_angle_gamma 120.000000
_cell_volume 5814.467203
_symmetry_space_group_name_H-M "P 6 M M"
_symmetry_group_IT_number 183
_symmetry_cell_setting 'hexagonal'
loop_
_space_group_symop_operation_xyz
x,y,z
x-y,x,z
-y,x-y,z
-x,-y,z
-x+y,-x,z
y,-x+y,z
-x+y,y,z
x,x-y,z
-y,-x,z
y,x,z
x-y,-y,z
-x,-x+y,z
loop_
_atom_site_type_symbol
_atom_site_label
_atom_site_fract_x
_atom_site_fract_y
_atom_site_fract_z
Si Si1 0.903646 0.637599 0.863040
Si Si2 0.092896 0.348973 0.506137
Si Si3 0.666139 0.165300 0.600828
Si Si4 0.333232 0.499096 0.753745
Si Si5 0.166338 0.668600 0.253832
Si Si6 0.668864 0.166755 0.974687
Si Si7 0.905878 0.257797 0.354036
Si Si8 0.633485 0.093928 0.114734
O O1 0.834888 0.669775 0.864550
O O2 0.892471 0.583445 0.796865
O O3 0.891555 0.578282 0.925847
O O4 0.000000 0.716847 0.864147
O O5 0.159609 0.319217 0.525110
O O6 0.102141 0.422671 0.554374
O O7 0.106103 0.382723 0.430489
O O8 0.000000 0.268537 0.515898
O O9 0.579090 0.158180 0.579145
O O10 0.739040 0.260961 0.588913
O O11 0.663801 0.138246 0.677381
O O12 0.264100 0.528199 0.764003
O O13 0.423252 0.576749 0.776549
O O14 0.150809 0.575405 0.261524
O O15 0.264466 0.735535 0.265456
O O16 0.108991 0.678692 0.309032
O O17 0.140156 0.685250 0.180968
O O18 0.574614 0.149227 0.962562
O O19 0.734933 0.265068 0.960823
O O20 0.683352 0.145349 0.049606
O O21 0.839478 0.160523 0.335406
O O22 0.000000 0.274112 0.341458
O O23 0.544475 0.088950 0.117510
O O24 0.620173 0.000000 0.111562
#
# Coordination Sequence:
#
# PCOD8326537 Si02
#       8
#    12  12  12  12  12  12  12  12
#     4  10  21  35  50  68  90 117 148 185 229 273
#     4   9  18  32  48  66  88 114 145 181 224 271
#     4   9  17  29  45  66  93 125 158 189 219 252
#     4   9  17  29  46  68  95 126 157 186 216 253
#     4  10  19  30  44  63  89 121 156 191 225 261
#     4  10  19  30  45  66  94 127 159 187 216 256
#     4   9  18  32  49  67  87 113 144 180 223 271
#     4   9  17  28  42  60  83 115 156 198 232 258
#
# _framework density 16.510542000000001
#
# number of rings (size 3 to 8) (size 9 to 14) (size 15 to 20)
#    0.000    2.625    0.000    2.000    0.000    4.500 
#    0.000    5.000    0.000    1.875    0.000    1.750 
#    0.000    0.000    0.000    6.250    0.000   29.250 
#
# Total GULP energy -1190209.234629 kJ/mol
# GULP energy per Si atom -12398.012861 kJ/mol
# Density = 1.647296 g / cm^3
# Si number density = 16.510542 Si / 1000 Ang^3
#
#
#
# Elastic Constant Matrix: (Units=GPa)
#
#
# Indices 1 2 3 4 5 6 
#
# 1 84.9203 56.8294 40.6344 0.0000 0.0000 0.0000
# 2 56.8294 84.9203 40.6344 0.0000 0.0000 0.0000
# 3 40.6344 40.6344 82.8089 0.0000 0.0000 0.0000
# 4 0.0000 0.0000 0.0000 21.0397 0.0000 0.0000
# 5 0.0000 0.0000 0.0000 0.0000 21.0397 0.0000
# 6 0.0000 0.0000 0.0000 0.0000 0.0000 14.0455
#
#
#
# Elastic Compliance Matrix: (Units=1/GPa)
#
#
# Indices 1 2 3 4 5 6 
#
# 1 0.022708 -0.012891 -0.004817 0.000000 0.000000 0.000000
# 2 -0.012891 0.022708 -0.004817 0.000000 0.000000 0.000000
# 3 -0.004817 -0.004817 0.016803 0.000000 0.000000 0.000000
# 4 0.000000 0.000000 0.000000 0.047529 0.000000 0.000000
# 5 0.000000 0.000000 0.000000 0.000000 0.047529 0.000000
# 6 0.000000 0.000000 0.000000 0.000000 0.000000 0.071197
#
#
# Mechanical properties :
#
#
# Convention : Reuss Voigt Hill
#
# Bulk Modulus (GPa) = 58.24644 58.76065 58.50355
# Shear Modulus (GPa) = 17.90532 18.86174 18.38353
#
# Velocity S-wave (km/s) = 3.29671 3.38362 3.34045
# Velocity P-wave (km/s) = 7.06017 7.13668 7.09853
#
# Compressibility (1/GPa) = 0.01716843
#
# Stress axis : x y z
#
# Youngs Moduli (GPa) = 44.03828 44.03828 59.51208
#
# Poissons Ratio (x) = 0.56771 0.28666
# Poissons Ratio (y) = 0.56771 0.28666
# Poissons Ratio (z) = 0.21213 0.21213
#
# Static dielectric constant tensor:
#      x y z
#    x 2.986500 0.000000 0.000000 
#    y 0.000000 2.986500 0.000000 
#    z 0.000000 0.000000 3.340640 
# 
# 
# High freq. dielectric constant tensor:
#      x y z
#    x 1.615280 0.000000 0.000000 
#    y 0.000000 1.615280 0.000000 
#    z 0.000000 0.000000 1.650390 
# 
# From -- ./inp_files/3067.got.cif
#   From: 2010.03.12/outbox.cif.g09.slc.cpg/sg183_2_cif.got.tgz:3067.got - 2010.04.01 11:53:02.
