data_PCOD8326535
_publ_section_title
;
Structure prediction by ZEFSAII (Michael W. Deem and Ramdas Pophale) SiO2 
 PCOD8326535
Probable space group: P 6 M M
;
_chemical_formula_sum "Si O2"
_cell_formula_units_Z 96
_cell_length_a 18.066415
_cell_length_b 18.066415
_cell_length_c 20.623325
_cell_angle_alpha 90.000000
_cell_angle_beta 90.000000
_cell_angle_gamma 120.000000
_cell_volume 5829.526511
_symmetry_space_group_name_H-M "P 6 M M"
_symmetry_group_IT_number 183
_symmetry_cell_setting 'hexagonal'
loop_
_space_group_symop_operation_xyz
x,y,z
x-y,x,z
-y,x-y,z
-x,-y,z
-x+y,-x,z
y,-x+y,z
-x+y,y,z
x,x-y,z
-y,-x,z
y,x,z
x-y,-y,z
-x,-x+y,z
loop_
_atom_site_type_symbol
_atom_site_label
_atom_site_fract_x
_atom_site_fract_y
_atom_site_fract_z
Si Si1 0.459846 0.095054 0.245240
Si Si2 0.098486 0.367150 0.768832
Si Si3 0.264119 0.904331 0.486388
Si Si4 0.494171 0.162346 0.881025
Si Si5 0.496702 0.165729 0.108406
Si Si6 0.496290 0.331289 0.380606
Si Si7 0.093134 0.746068 0.627590
Si Si8 0.097142 0.732179 0.997610
O O1 0.545896 0.091791 0.249493
O O2 0.462563 0.147865 0.182006
O O3 0.450665 0.138882 0.310345
O O4 0.379135 0.000000 0.239956
O O5 0.167301 0.334602 0.782670
O O6 0.121449 0.448822 0.812899
O O7 0.108192 0.401198 0.693993
O O8 0.000000 0.291310 0.782020
O O9 0.164664 0.835337 0.472527
O O10 0.324799 0.892969 0.436229
O O11 0.291382 0.892120 0.559980
O O12 0.279171 0.000000 0.478286
O O13 0.574578 0.149156 0.890410
O O14 0.525932 0.262966 0.883566
O O15 0.426084 0.112563 0.936998
O O16 0.573099 0.146198 0.096605
O O17 0.530115 0.265058 0.092790
O O18 0.418390 0.105814 0.062162
O O19 0.528246 0.264123 0.392997
O O20 0.574398 0.425603 0.384574
O O21 0.152650 0.847351 0.628038
O O22 0.000000 0.734690 0.628562
O O23 0.165701 0.834300 0.997351
O O24 0.000000 0.715213 0.994549
#
# Coordination Sequence:
#
# PCOD8326535 Si02
#       8
#    12  12  12  12  12  12  12  12
#     4   9  17  28  42  60  83 114 152 191 226 260
#     4   9  17  29  46  67  90 117 148 183 222 264
#     4   9  17  29  46  66  87 113 144 180 221 266
#     4  10  20  33  49  69  94 123 154 187 223 262
#     4  10  19  30  45  66  94 127 160 190 220 258
#     4  10  19  30  44  62  86 116 150 187 226 267
#     4   8  14  26  43  62  84 110 142 178 218 264
#     4  10  21  35  51  71  94 121 151 186 228 271
#
# _framework density 16.467890000000001
#
# number of rings (size 3 to 8) (size 9 to 14) (size 15 to 20)
#    0.000    2.625    0.000    2.250    0.000    3.000 
#    0.000    3.125    0.000    2.750    0.000    5.250 
#    0.000    3.000    0.000    0.125    0.000   26.500 
#
# Total GULP energy -1189418.371855 kJ/mol
# GULP energy per Si atom -12389.774707 kJ/mol
# Density = 1.643041 g / cm^3
# Si number density = 16.467890 Si / 1000 Ang^3
#
#
#
# Elastic Constant Matrix: (Units=GPa)
#
#
# Indices 1 2 3 4 5 6 
#
# 1 75.5347 49.0038 39.2021 0.0000 0.0000 0.0000
# 2 49.0038 75.5347 39.2021 0.0000 0.0000 0.0000
# 3 39.2021 39.2021 119.1695 0.0000 0.0000 0.0000
# 4 0.0000 0.0000 0.0000 22.2702 0.0000 0.0000
# 5 0.0000 0.0000 0.0000 0.0000 22.2702 0.0000
# 6 0.0000 0.0000 0.0000 0.0000 0.0000 13.2655
#
#
#
# Elastic Compliance Matrix: (Units=1/GPa)
#
#
# Indices 1 2 3 4 5 6 
#
# 1 0.023909 -0.013782 -0.003331 0.000000 0.000000 0.000000
# 2 -0.013782 0.023909 -0.003331 0.000000 0.000000 0.000000
# 3 -0.003331 -0.003331 0.010583 0.000000 0.000000 0.000000
# 4 0.000000 0.000000 0.000000 0.044903 0.000000 0.000000
# 5 0.000000 0.000000 0.000000 0.000000 0.044903 0.000000
# 6 0.000000 0.000000 0.000000 0.000000 0.000000 0.075384
#
#
# Mechanical properties :
#
#
# Convention : Reuss Voigt Hill
#
# Bulk Modulus (GPa) = 57.10502 58.33943 57.72222
# Shear Modulus (GPa) = 18.49666 21.08325 19.78995
#
# Velocity S-wave (km/s) = 3.35505 3.58196 3.47036
# Velocity P-wave (km/s) = 7.05410 7.25330 7.15439
#
# Compressibility (1/GPa) = 0.01751160
#
# Stress axis : x y z
#
# Youngs Moduli (GPa) = 41.82461 41.82461 94.48955
#
# Poissons Ratio (x) = 0.57645 0.31478
# Poissons Ratio (y) = 0.57645 0.31478
# Poissons Ratio (z) = 0.13933 0.13933
#
# Static dielectric constant tensor:
#      x y z
#    x 2.963730 0.000000 0.000000 
#    y 0.000000 2.963730 0.000000 
#    z 0.000000 0.000000 3.553190 
# 
# 
# High freq. dielectric constant tensor:
#      x y z
#    x 1.610400 0.000000 0.000000 
#    y 0.000000 1.610400 0.000000 
#    z 0.000000 0.000000 1.660510 
# 
# From -- ./inp_files/3073.got.cif
#   From: 2010.03.12/outbox.cif.g09.slc.cpg/sg183_2_cif.got.tgz:3073.got - 2010.04.01 11:53:02.
