data_PCOD8326258
_publ_section_title
;
Structure prediction by ZEFSAII (Michael W. Deem and Ramdas Pophale) SiO2 
 PCOD8326258
Probable space group: P 62 2 2
;
_chemical_formula_sum "Si O2"
_cell_formula_units_Z 72
_cell_length_a 14.934648
_cell_length_b 14.934648
_cell_length_c 17.297092
_cell_angle_alpha 90.000000
_cell_angle_beta 90.000000
_cell_angle_gamma 120.000000
_cell_volume 3341.132578
_symmetry_space_group_name_H-M "P 62 2 2"
_symmetry_group_IT_number 180
_symmetry_cell_setting 'hexagonal'
loop_
_space_group_symop_operation_xyz
x,y,z
x-y,x,1/3+z
-y,x-y,2/3+z
-x,-y,z
-x+y,-x,1/3+z
y,-x+y,2/3+z
x-y,-y,-z
-x,-x+y,1/3-z
y,x,2/3-z
-y,-x,2/3-z
-x+y,y,-z
x,x-y,1/3-z
loop_
_atom_site_type_symbol
_atom_site_label
_atom_site_fract_x
_atom_site_fract_y
_atom_site_fract_z
Si Si1 0.868359 0.240318 0.550379
Si Si2 0.391799 0.093776 0.346014
Si Si3 0.241356 0.873547 0.401595
Si Si4 0.623261 0.909874 0.168203
Si Si5 0.598023 0.385963 0.747311
Si Si6 0.402290 0.805662 0.086433
O O1 0.821142 0.180544 0.631918
O O2 0.817611 0.154928 0.483176
O O3 0.838201 0.328611 0.535562
O O4 0.992012 0.298919 0.549623
O O5 0.376482 0.058510 0.257059
O O6 0.513238 0.147593 0.361751
O O7 0.325135 0.994630 0.399560
O O8 0.156690 0.843311 0.333334
O O9 0.296591 0.807002 0.384163
O O10 0.671318 0.835659 0.166667
O O11 0.508362 0.849174 0.132717
O O12 0.583347 0.416654 0.833334
O O13 0.679876 0.343013 0.747044
O O14 0.426758 0.853515 0.000000
#
# Coordination Sequence:
#
# PCOD8326258 Si02
#       6
#    12  12  12  12  12  12
#     4  11  25  43  63  98 128 176 219 280 337 391
#     4  11  25  42  66  98 129 178 224 278 335 408
#     4  12  23  40  66  93 136 172 219 273 342 403
#     4  12  26  43  68  94 131 175 228 277 334 403
#     4  11  22  37  62  95 135 176 217 267 328 392
#     4  11  24  43  63  94 138 181 224 265 327 395
#
# _framework density 21.549579999999999
#
# number of rings (size 3 to 8) (size 9 to 14) (size 15 to 20)
#    0.000    0.667    5.000    4.500    2.333    5.333 
#    0.000    0.000    0.000    2.000    0.000    0.000 
#    0.000    0.000    0.000    0.000    0.000    0.000 
#
# Total GULP energy -892667.817698 kJ/mol
# GULP energy per Si atom -12398.164135 kJ/mol
# Density = 2.150053 g / cm^3
# Si number density = 21.549580 Si / 1000 Ang^3
#
#
#
# Elastic Constant Matrix: (Units=GPa)
#
#
# Indices 1 2 3 4 5 6 
#
# 1 91.6903 49.2594 7.3116 0.0000 0.0000 0.0000
# 2 49.2594 91.6903 7.3116 0.0000 0.0000 0.0000
# 3 7.3116 7.3116 75.3508 0.0000 0.0000 0.0000
# 4 0.0000 0.0000 0.0000 27.1114 0.0000 0.0000
# 5 0.0000 0.0000 0.0000 0.0000 27.1114 0.0000
# 6 0.0000 0.0000 0.0000 0.0000 0.0000 21.2155
#
#
#
# Elastic Compliance Matrix: (Units=1/GPa)
#
#
# Indices 1 2 3 4 5 6 
#
# 1 0.015367 -0.008200 -0.000695 0.000000 0.000000 0.000000
# 2 -0.008200 0.015367 -0.000695 0.000000 0.000000 0.000000
# 3 -0.000695 -0.000695 0.013406 0.000000 0.000000 0.000000
# 4 0.000000 0.000000 0.000000 0.036885 0.000000 0.000000
# 5 0.000000 0.000000 0.000000 0.000000 0.036885 0.000000
# 6 0.000000 0.000000 0.000000 0.000000 0.000000 0.047135
#
#
# Mechanical properties :
#
#
# Convention : Reuss Voigt Hill
#
# Bulk Modulus (GPa) = 40.06689 42.94404 41.50547
# Shear Modulus (GPa) = 25.96755 28.07757 27.02256
#
# Velocity S-wave (km/s) = 3.47510 3.61353 3.54499
# Velocity P-wave (km/s) = 5.89364 6.11403 6.00485
#
# Compressibility (1/GPa) = 0.02495826
#
# Stress axis : x y z
#
# Youngs Moduli (GPa) = 65.07326 65.07326 74.59226
#
# Poissons Ratio (x) = 0.53363 0.05187
# Poissons Ratio (y) = 0.53363 0.05187
# Poissons Ratio (z) = 0.04525 0.04525
#
# Static dielectric constant tensor:
#      x y z
#    x 3.791230 0.000000 0.000000 
#    y 0.000000 3.791230 0.000000 
#    z 0.000000 0.000000 4.069300 
# 
# 
# High freq. dielectric constant tensor:
#      x y z
#    x 1.826980 0.000000 0.000000 
#    y 0.000000 1.826980 0.000000 
#    z 0.000000 0.000000 1.864580 
# 
# From -- ./inp_files/7779.got.cif
#   From: 2010.03.12/outbox.cif.g09.slc.cpg/sg180_4_cif.got.tgz:7779.got - 2010.04.01 11:35:50.
