data_PCOD8326313
_publ_section_title
;
Structure prediction by ZEFSAII (Michael W. Deem and Ramdas Pophale) SiO2 
 PCOD8326313
Probable space group: P 64 2 2
;
_chemical_formula_sum "Si O2"
_cell_formula_units_Z 75
_cell_length_a 11.969956
_cell_length_b 11.969956
_cell_length_c 29.606793
_cell_angle_alpha 90.000000
_cell_angle_beta 90.000000
_cell_angle_gamma 120.000000
_cell_volume 3673.728919
_symmetry_space_group_name_H-M "P 64 2 2"
_symmetry_group_IT_number 181
_symmetry_cell_setting 'hexagonal'
loop_
_space_group_symop_operation_xyz
x,y,z
x-y,x,2/3+z
-y,x-y,1/3+z
-x,-y,z
-x+y,-x,2/3+z
y,-x+y,1/3+z
x-y,-y,-z
-x,-x+y,2/3-z
y,x,1/3-z
-y,-x,1/3-z
-x+y,y,-z
x,x-y,2/3-z
loop_
_atom_site_type_symbol
_atom_site_label
_atom_site_fract_x
_atom_site_fract_y
_atom_site_fract_z
Si Si1 0.005614 0.632828 0.158302
Si Si2 0.243973 0.419716 0.569577
Si Si3 0.000000 0.000000 0.000000
Si Si4 0.213981 0.961502 0.300554
Si Si5 0.686465 0.321502 0.946201
Si Si6 0.600857 0.799453 0.427009
Si Si7 0.598487 0.953820 0.612798
O O1 0.038167 0.681846 0.210221
O O2 0.126091 0.726457 0.127739
O O3 0.000000 0.500000 0.152392
O O4 0.867046 0.617140 0.143256
O O5 0.181575 0.349039 0.616210
O O6 0.347563 0.566009 0.583356
O O7 0.031512 0.914843 0.032906
O O8 0.274641 0.976722 0.349490
O O9 0.315717 0.078270 0.271235
O O10 0.718290 0.458763 0.926726
O O11 0.802465 0.292312 0.934387
O O12 0.656754 0.313507 0.000000
O O13 0.641204 0.951992 0.428074
O O14 0.500000 0.000000 0.630446
#
# Coordination Sequence:
#
# PCOD8326313 Si02
#       7
#    12  12   3  12  12  12  12
#     4  10  20  39  62  84 122 175 230 272 309 404
#     4  10  22  37  60  93 120 173 226 271 338 410
#     4  12  24  40  60  84 136 188 216 270 336 424
#     4  11  21  37  58  88 127 172 217 269 338 415
#     4  11  19  32  61 102 141 158 198 289 369 424
#     4  10  19  34  61  94 122 169 221 268 342 400
#     4  10  19  32  59 100 136 160 205 277 359 422
#
# _framework density 20.415223999999998
#
# number of rings (size 3 to 8) (size 9 to 14) (size 15 to 20)
#    0.000    1.600    4.800    1.920    0.000    0.000 
#    2.880    0.000    0.000   12.480    0.000    0.000 
#    0.000    0.000    0.000    0.000    0.000    0.000 
#
# Total GULP energy -929189.195628 kJ/mol
# GULP energy per Si atom -12389.189275 kJ/mol
# Density = 2.036876 g / cm^3
# Si number density = 20.415224 Si / 1000 Ang^3
#
#
#
# Elastic Constant Matrix: (Units=GPa)
#
#
# Indices 1 2 3 4 5 6 
#
# 1 111.4977 50.6355 38.4398 0.0000 0.0000 0.0000
# 2 50.6355 111.4977 38.4398 0.0000 0.0000 0.0000
# 3 38.4398 38.4398 65.2188 0.0000 0.0000 0.0000
# 4 0.0000 0.0000 0.0000 37.4208 0.0000 0.0000
# 5 0.0000 0.0000 0.0000 0.0000 37.4208 0.0000
# 6 0.0000 0.0000 0.0000 0.0000 0.0000 30.4311
#
#
#
# Elastic Compliance Matrix: (Units=1/GPa)
#
#
# Indices 1 2 3 4 5 6 
#
# 1 0.012495 -0.003935 -0.005045 0.000000 0.000000 0.000000
# 2 -0.003935 0.012495 -0.005045 0.000000 0.000000 0.000000
# 3 -0.005045 -0.005045 0.021280 0.000000 0.000000 0.000000
# 4 0.000000 0.000000 0.000000 0.026723 0.000000 0.000000
# 5 0.000000 0.000000 0.000000 0.000000 0.026723 0.000000
# 6 0.000000 0.000000 0.000000 0.000000 0.000000 0.032861
#
#
# Mechanical properties :
#
#
# Convention : Reuss Voigt Hill
#
# Bulk Modulus (GPa) = 54.88657 60.36047 57.62352
# Shear Modulus (GPa) = 29.99340 31.76780 30.88060
#
# Velocity S-wave (km/s) = 3.83713 3.94900 3.89347
# Velocity P-wave (km/s) = 6.82458 7.10094 6.96413
#
# Compressibility (1/GPa) = 0.01821939
#
# Stress axis : x y z
#
# Youngs Moduli (GPa) = 80.02977 80.02977 46.99160
#
# Poissons Ratio (x) = 0.31493 0.23709
# Poissons Ratio (y) = 0.31493 0.23709
# Poissons Ratio (z) = 0.40378 0.40378
#
# Static dielectric constant tensor:
#      x y z
#    x 4.272610 0.000000 0.000000 
#    y 0.000000 4.272610 0.000000 
#    z 0.000000 0.000000 3.780680 
# 
# 
# High freq. dielectric constant tensor:
#      x y z
#    x 1.801280 0.000000 0.000000 
#    y 0.000000 1.801280 0.000000 
#    z 0.000000 0.000000 1.771640 
# 
# From -- ./inp_files/12371.got.cif
#   From: 2010.03.12/outbox.cif.g09.slc.cpg/sg181_7_cif.got.tgz:12371.got - 2010.04.01 11:42:41.
