data_PCOD8326039
_publ_section_title
;
Structure prediction by ZEFSAII (Michael W. Deem and Ramdas Pophale) SiO2 
 PCOD8326039
Probable space group: P 65 2 2
;
_chemical_formula_sum "Si O2"
_cell_formula_units_Z 66
_cell_length_a 28.091543
_cell_length_b 28.091543
_cell_length_c 6.217255
_cell_angle_alpha 90.000000
_cell_angle_beta 90.000000
_cell_angle_gamma 120.000000
_cell_volume 4248.939049
_symmetry_space_group_name_H-M "P 65 2 2"
_symmetry_group_IT_number 179
_symmetry_cell_setting 'hexagonal'
loop_
_space_group_symop_operation_xyz
x,y,z
x-y,x,5/6+z
-y,x-y,2/3+z
-x,-y,1/2+z
-x+y,-x,1/3+z
y,-x+y,1/6+z
x-y,-y,-z
-x,-x+y,1/3-z
y,x,2/3-z
-y,-x,1/6-z
-x+y,y,1/2-z
x,x-y,5/6-z
loop_
_atom_site_type_symbol
_atom_site_label
_atom_site_fract_x
_atom_site_fract_y
_atom_site_fract_z
Si Si1 0.345274 0.877048 0.276754
Si Si2 0.607641 0.944168 0.593276
Si Si3 0.478079 0.786373 0.544377
Si Si4 0.361189 0.722378 0.750000
Si Si5 0.420290 0.157613 0.359157
Si Si6 0.571668 0.516684 0.719904
O O1 0.289067 0.856901 0.406661
O O2 0.396287 0.898320 0.436991
O O3 0.349387 0.924083 0.125243
O O4 0.346829 0.831460 0.128127
O O5 0.618859 0.898088 0.713642
O O6 0.571223 0.957552 0.755982
O O7 0.661734 0.000000 0.500000
O O8 0.489463 0.744732 0.416667
O O9 0.417125 0.760599 0.629136
O O10 0.521534 0.810415 0.737472
O O11 0.314244 0.685757 0.583334
O O12 0.394718 0.197359 0.416667
O O13 0.526253 0.526253 0.833334
O O14 0.538969 0.461032 0.583334
#
# Coordination Sequence:
#
# PCOD8326039 Si02
#       6
#    12  12  12   6  12  12
#     4  10  22  39  54  72  98 119 148 191 223 283
#     4  10  20  36  53  75  97 124 152 184 229 274
#     4  11  22  41  57  70  92 114 150 191 235 285
#     4  12  26  42  56  70  84 116 146 192 246 288
#     4  10  20  36  58  77  95 124 152 188 230 279
#     4  11  22  36  52  70  96 124 150 180 228 283
#
# _framework density 15.533289999999999
#
# number of rings (size 3 to 8) (size 9 to 14) (size 15 to 20)
#    0.000    1.455    4.545    1.091    0.000    0.000 
#   18.000    0.000    0.000    0.000    0.000    0.000 
#    0.000    0.000    0.000    0.000    0.000    0.000 
#
# Total GULP energy -817768.454531 kJ/mol
# GULP energy per Si atom -12390.431129 kJ/mol
# Density = 1.549794 g / cm^3
# Si number density = 15.533290 Si / 1000 Ang^3
#
#
#
# Elastic Constant Matrix: (Units=GPa)
#
#
# Indices 1 2 3 4 5 6 
#
# 1 73.2423 36.2423 33.4868 0.0000 0.0000 0.0000
# 2 36.2423 73.2423 33.4868 0.0000 0.0000 0.0000
# 3 33.4868 33.4868 91.1424 0.0000 0.0000 0.0000
# 4 0.0000 0.0000 0.0000 24.1067 0.0000 0.0000
# 5 0.0000 0.0000 0.0000 0.0000 24.1067 0.0000
# 6 0.0000 0.0000 0.0000 0.0000 0.0000 18.5000
#
#
#
# Elastic Compliance Matrix: (Units=1/GPa)
#
#
# Indices 1 2 3 4 5 6 
#
# 1 0.019404 -0.007623 -0.004329 0.000000 0.000000 0.000000
# 2 -0.007623 0.019404 -0.004329 0.000000 0.000000 0.000000
# 3 -0.004329 -0.004329 0.014153 0.000000 0.000000 0.000000
# 4 0.000000 0.000000 0.000000 0.041482 0.000000 0.000000
# 5 0.000000 0.000000 0.000000 0.000000 0.041482 0.000000
# 6 0.000000 0.000000 0.000000 0.000000 0.000000 0.054054
#
#
# Mechanical properties :
#
#
# Convention : Reuss Voigt Hill
#
# Bulk Modulus (GPa) = 49.01690 49.33985 49.17838
# Shear Modulus (GPa) = 21.80164 22.30342 22.05253
#
# Velocity S-wave (km/s) = 3.75045 3.79337 3.77197
# Velocity P-wave (km/s) = 7.09782 7.14276 7.12033
#
# Compressibility (1/GPa) = 0.02040113
#
# Stress axis : x y z
#
# Youngs Moduli (GPa) = 51.53491 51.53491 70.65806
#
# Poissons Ratio (x) = 0.39283 0.30586
# Poissons Ratio (y) = 0.39283 0.30586
# Poissons Ratio (z) = 0.22308 0.22308
#
# Static dielectric constant tensor:
#      x y z
#    x 2.938050 0.000000 0.000000 
#    y 0.000000 2.938050 0.000000 
#    z 0.000000 0.000000 3.363930 
# 
# 
# High freq. dielectric constant tensor:
#      x y z
#    x 1.562500 0.000000 0.000000 
#    y 0.000000 1.562500 0.000000 
#    z 0.000000 0.000000 1.631100 
# 
# From -- ./inp_files/1647.got.cif
#   From: 2010.03.12/outbox.cif.g09.slc.cpg/sg179_1_cif.got.tgz:1647.got - 2010.04.02 07:08:42.
