data_PCOD8326925
_publ_section_title
;
Structure prediction by ZEFSAII (Michael W. Deem and Ramdas Pophale) SiO2 
 PCOD8326925
Probable space group: P -6 M 2
;
_chemical_formula_sum "Si O2"
_cell_formula_units_Z 72
_cell_length_a 22.922257
_cell_length_b 22.922257
_cell_length_c 8.810460
_cell_angle_alpha 90.000000
_cell_angle_beta 90.000000
_cell_angle_gamma 120.000000
_cell_volume 4009.073057
_symmetry_space_group_name_H-M "P -6 M 2"
_symmetry_group_IT_number 187
_symmetry_cell_setting 'hexagonal'
loop_
_space_group_symop_operation_xyz
x,y,z
-x+y,-x,-z
-y,x-y,z
x,y,-z
-x+y,-x,z
-y,x-y,-z
-y,-x,-z
-x+y,y,-z
x,x-y,-z
-x+y,y,z
x,x-y,z
-y,-x,z
loop_
_atom_site_type_symbol
_atom_site_label
_atom_site_fract_x
_atom_site_fract_y
_atom_site_fract_z
Si Si1 0.725848 0.799270 0.178695
Si Si2 0.794059 0.074271 0.177586
Si Si3 0.334604 0.930678 0.180099
Si Si4 0.402227 0.331763 0.679339
Si Si5 0.333330 0.798296 0.819168
Si Si6 0.666653 0.201825 0.319322
O O1 0.739275 0.869638 0.253728
O O2 0.785104 0.783491 0.222789
O O3 0.654824 0.738238 0.236614
O O4 0.721927 0.804943 0.000000
O O5 0.869729 0.130272 0.220091
O O6 0.742251 0.087572 0.270275
O O7 0.778215 0.075348 0.000000
O O8 0.343079 0.869089 0.240677
O O9 0.391966 0.001082 0.249772
O O10 0.341102 0.937234 0.000000
O O11 0.400786 0.337127 0.500000
O O12 0.472984 0.341487 0.738242
O O13 0.395279 0.790558 0.758385
O O14 0.263817 0.736184 0.755807
O O15 0.331620 0.797454 0.000000
O O16 0.667983 0.203822 0.500000
O O17 0.603932 0.207864 0.256630
O O18 0.735710 0.264291 0.254924
#
# Coordination Sequence:
#
# PCOD8326925 Si02
#       6
#    12  12  12  12  12  12
#     4   8  13  23  41  62  83 111 148 184 214 251
#     4   9  17  29  46  68  93 121 151 181 219 271
#     4   9  17  29  45  66  91 120 152 186 229 277
#     4  10  19  30  46  69  93 116 146 187 231 270
#     4   9  16  26  43  68  96 124 156 195 235 275
#     4   9  17  29  45  64  86 113 145 180 218 262
#
# _framework density 17.959264000000001
#
# number of rings (size 3 to 8) (size 9 to 14) (size 15 to 20)
#    0.000    3.000    0.000    2.833    0.000    5.000 
#    0.000    0.000    0.000   14.333    0.000    2.333 
#    0.000    6.667    0.000    0.500    0.000    2.667 
#
# Total GULP energy -892467.312864 kJ/mol
# GULP energy per Si atom -12395.379345 kJ/mol
# Density = 1.791839 g / cm^3
# Si number density = 17.959264 Si / 1000 Ang^3
#
#
#
# Elastic Constant Matrix: (Units=GPa)
#
#
# Indices 1 2 3 4 5 6 
#
# 1 161.4745 99.7069 17.7284 0.0000 0.0001 0.0000
# 2 99.7069 161.4745 17.7284 0.0000 -0.0001 0.0000
# 3 17.7284 17.7284 19.5942 0.0000 0.0000 0.0000
# 4 0.0000 0.0000 0.0000 16.8500 0.0000 -0.0001
# 5 0.0001 -0.0001 0.0000 0.0000 16.8500 0.0000
# 6 0.0000 0.0000 0.0000 -0.0001 0.0000 30.8838
#
#
#
# Elastic Compliance Matrix: (Units=1/GPa)
#
#
# Indices 1 2 3 4 5 6 
#
# 1 0.010277 -0.005912 -0.003949 0.000000 0.000000 0.000000
# 2 -0.005912 0.010277 -0.003949 0.000000 0.000000 0.000000
# 3 -0.003949 -0.003949 0.058182 0.000000 0.000000 0.000000
# 4 0.000000 0.000000 0.000000 0.059347 0.000000 0.000000
# 5 0.000000 0.000000 0.000000 0.000000 0.059347 0.000000
# 6 0.000000 0.000000 0.000000 0.000000 0.000000 0.032379
#
#
# Mechanical properties :
#
#
# Convention : Reuss Voigt Hill
#
# Bulk Modulus (GPa) = 19.56388 68.09673 43.83030
# Shear Modulus (GPa) = 18.21691 26.74207 22.47949
#
# Velocity S-wave (km/s) = 3.18834 3.86299 3.54177
# Velocity P-wave (km/s) = 4.94683 7.60898 6.41746
#
# Compressibility (1/GPa) = 0.05111461
#
# Stress axis : x y z
#
# Youngs Moduli (GPa) = 97.30186 97.30186 17.18750
#
# Poissons Ratio (x) = 0.57529 0.06788
# Poissons Ratio (y) = 0.57529 0.06788
# Poissons Ratio (z) = 0.38427 0.38427
#
# Static dielectric constant tensor:
#      x y z
#    x 3.561240 0.000000 0.000000 
#    y 0.000000 3.561240 0.000000 
#    z 0.000000 0.000000 2.817080 
# 
# 
# High freq. dielectric constant tensor:
#      x y z
#    x 1.699580 0.000000 0.000000 
#    y 0.000000 1.699580 0.000000 
#    z 0.000000 0.000000 1.640830 
# 
# From -- ./inp_files/962.got.cif
#   From: 2010.03.12/outbox.cif.g09.slc.cpg/sg187_1_cif.got.tgz:962.got - 2010.04.01 11:58:23.
