data_PCOD8326237
_publ_section_title
;
Structure prediction by ZEFSAII (Michael W. Deem and Ramdas Pophale) SiO2 
 PCOD8326237
Probable space group: P 62 2 2
;
_chemical_formula_sum "Si O2"
_cell_formula_units_Z 30
_cell_length_a 11.406039
_cell_length_b 11.406039
_cell_length_c 12.939275
_cell_angle_alpha 90.000000
_cell_angle_beta 90.000000
_cell_angle_gamma 120.000000
_cell_volume 1457.841400
_symmetry_space_group_name_H-M "P 62 2 2"
_symmetry_group_IT_number 180
_symmetry_cell_setting 'hexagonal'
loop_
_space_group_symop_operation_xyz
x,y,z
x-y,x,1/3+z
-y,x-y,2/3+z
-x,-y,z
-x+y,-x,1/3+z
y,-x+y,2/3+z
x-y,-y,-z
-x,-x+y,1/3-z
y,x,2/3-z
-y,-x,2/3-z
-x+y,y,-z
x,x-y,1/3-z
loop_
_atom_site_type_symbol
_atom_site_label
_atom_site_fract_x
_atom_site_fract_y
_atom_site_fract_z
Si Si1 0.132161 0.490868 0.328034
Si Si2 0.150364 0.187875 0.714048
Si Si3 0.325174 0.674827 0.833334
O O1 0.103218 0.339899 0.323257
O O2 0.182423 0.554808 0.441992
O O3 0.254086 0.563925 0.248147
O O4 0.000000 0.500000 0.296656
O O5 0.157187 0.157187 0.833334
O O6 0.000000 0.128756 0.666667
O O7 0.223364 0.111682 0.666667
#
# Coordination Sequence:
#
# PCOD8326237 Si02
#       3
#    12  12   6
#     4  11  25  43  72  95 144 177 233 294 354 426
#     4  11  25  42  69 100 136 180 231 284 355 414
#     4  10  25  44  64 109 124 186 236 274 360 429
#
# _framework density 20.578368000000001
#
# number of rings (size 3 to 8) (size 9 to 14) (size 15 to 20)
#    0.000    1.200    0.000    5.400   16.800    0.000 
#    0.000    4.000    0.000    0.000    0.000    0.000 
#    0.000    0.000    0.000    0.000    0.000    0.000 
#
# Total GULP energy -371737.002587 kJ/mol
# GULP energy per Si atom -12391.233420 kJ/mol
# Density = 2.053153 g / cm^3
# Si number density = 20.578368 Si / 1000 Ang^3
#
#
#
# Elastic Constant Matrix: (Units=GPa)
#
#
# Indices 1 2 3 4 5 6 
#
# 1 151.8206 74.9280 68.0971 0.0000 0.0000 0.0000
# 2 74.9280 151.8206 68.0971 0.0000 0.0000 0.0000
# 3 68.0971 68.0971 147.5225 0.0000 0.0000 0.0000
# 4 0.0000 0.0000 0.0000 32.6059 0.0000 0.0000
# 5 0.0000 0.0000 0.0000 0.0000 32.6059 0.0000
# 6 0.0000 0.0000 0.0000 0.0000 0.0000 38.4463
#
#
#
# Elastic Compliance Matrix: (Units=1/GPa)
#
#
# Indices 1 2 3 4 5 6 
#
# 1 0.009554 -0.003452 -0.002817 0.000000 0.000000 0.000000
# 2 -0.003452 0.009554 -0.002817 0.000000 0.000000 0.000000
# 3 -0.002817 -0.002817 0.009379 0.000000 0.000000 0.000000
# 4 0.000000 0.000000 0.000000 0.030669 0.000000 0.000000
# 5 0.000000 0.000000 0.000000 0.000000 0.030669 0.000000
# 6 0.000000 0.000000 0.000000 0.000000 0.000000 0.026010
#
#
# Mechanical properties :
#
#
# Convention : Reuss Voigt Hill
#
# Bulk Modulus (GPa) = 96.93499 97.04535 96.99017
# Shear Modulus (GPa) = 36.37853 36.73441 36.55647
#
# Velocity S-wave (km/s) = 4.20909 4.22963 4.21937
# Velocity P-wave (km/s) = 8.41602 8.43293 8.42448
#
# Compressibility (1/GPa) = 0.01031619
#
# Stress axis : x y z
#
# Youngs Moduli (GPa) = 104.67288 104.67288 106.62069
#
# Poissons Ratio (x) = 0.36129 0.30032
# Poissons Ratio (y) = 0.36129 0.30032
# Poissons Ratio (z) = 0.29483 0.29483
#
# Static dielectric constant tensor:
#      x y z
#    x 3.903080 0.000000 0.000000 
#    y 0.000000 3.903080 0.000000 
#    z 0.000000 0.000000 4.118280 
# 
# 
# High freq. dielectric constant tensor:
#      x y z
#    x 1.813180 0.000000 0.000000 
#    y 0.000000 1.813180 0.000000 
#    z 0.000000 0.000000 1.824110 
# 
# From -- ./inp_files/5291.got.cif
#   From: 2010.03.12/outbox.cif.g09.slc.cpg/sg180_3_cif.got.tgz:5291.got - 2010.04.01 11:35:50.
