data_PCOD8326171
_publ_section_title
;
Structure prediction by ZEFSAII (Michael W. Deem and Ramdas Pophale) SiO2 
 PCOD8326171
Probable space group: P 62 2 2
;
_chemical_formula_sum "Si O2"
_cell_formula_units_Z 72
_cell_length_a 14.818940
_cell_length_b 14.818940
_cell_length_c 19.918473
_cell_angle_alpha 90.000000
_cell_angle_beta 90.000000
_cell_angle_gamma 120.000000
_cell_volume 3788.095787
_symmetry_space_group_name_H-M "P 62 2 2"
_symmetry_group_IT_number 180
_symmetry_cell_setting 'hexagonal'
loop_
_space_group_symop_operation_xyz
x,y,z
x-y,x,1/3+z
-y,x-y,2/3+z
-x,-y,z
-x+y,-x,1/3+z
y,-x+y,2/3+z
x-y,-y,-z
-x,-x+y,1/3-z
y,x,2/3-z
-y,-x,2/3-z
-x+y,y,-z
x,x-y,1/3-z
loop_
_atom_site_type_symbol
_atom_site_label
_atom_site_fract_x
_atom_site_fract_y
_atom_site_fract_z
Si Si1 0.648942 0.744128 0.624312
Si Si2 0.117229 0.561443 0.965844
Si Si3 0.068230 0.395742 0.606531
Si Si4 0.127025 0.373093 0.805302
Si Si5 0.618667 0.861771 0.346902
Si Si6 0.604050 0.415365 0.488349
O O1 0.698448 0.849224 0.666667
O O2 0.523186 0.678427 0.639223
O O3 0.669646 0.783473 0.547353
O O4 0.707425 0.682994 0.647337
O O5 0.173736 0.667792 0.010297
O O6 0.122832 0.594502 0.888109
O O7 0.000000 0.500000 0.990702
O O8 0.145097 0.357865 0.634469
O O9 0.135521 0.507706 0.573387
O O10 0.000000 0.404473 0.666667
O O11 0.991147 0.310319 0.553940
O O12 0.200637 0.347579 0.756904
O O13 0.185367 0.497831 0.803993
O O14 0.692150 0.384300 0.500000
#
# Coordination Sequence:
#
# PCOD8326171 Si02
#       6
#    12  12  12  12  12  12
#     4  10  22  39  58  78 110 154 194 248 296 347
#     4   9  18  34  53  74 107 148 189 227 285 350
#     4  10  20  34  54  84 120 149 184 238 291 350
#     4  10  23  35  54  86 115 149 199 236 287 362
#     4  10  20  36  58  86 113 149 194 238 298 361
#     4  11  19  31  52  81 119 159 186 229 285 352
#
# _framework density 19.006910999999999
#
# number of rings (size 3 to 8) (size 9 to 14) (size 15 to 20)
#    0.000    2.000    1.667    3.500    0.000    8.000 
#    0.000    0.000    0.000    7.500    0.000    7.000 
#    0.000    0.000    0.000    0.000    0.000    0.000 
#
# Total GULP energy -892043.705693 kJ/mol
# GULP energy per Si atom -12389.495912 kJ/mol
# Density = 1.896365 g / cm^3
# Si number density = 19.006911 Si / 1000 Ang^3
#
#
#
# Elastic Constant Matrix: (Units=GPa)
#
#
# Indices 1 2 3 4 5 6 
#
# 1 77.4183 38.4560 48.9896 0.0000 0.0000 0.0000
# 2 38.4560 77.4183 48.9896 0.0000 0.0000 0.0000
# 3 48.9896 48.9896 136.0351 0.0000 0.0000 0.0000
# 4 0.0000 0.0000 0.0000 29.1176 0.0000 0.0000
# 5 0.0000 0.0000 0.0000 0.0000 29.1176 0.0000
# 6 0.0000 0.0000 0.0000 0.0000 0.0000 19.4812
#
#
#
# Elastic Compliance Matrix: (Units=1/GPa)
#
#
# Indices 1 2 3 4 5 6 
#
# 1 0.019037 -0.006629 -0.004469 0.000000 0.000000 0.000000
# 2 -0.006629 0.019037 -0.004469 0.000000 0.000000 0.000000
# 3 -0.004469 -0.004469 0.010570 0.000000 0.000000 0.000000
# 4 0.000000 0.000000 0.000000 0.034344 0.000000 0.000000
# 5 0.000000 0.000000 0.000000 0.000000 0.034344 0.000000
# 6 0.000000 0.000000 0.000000 0.000000 0.000000 0.051332
#
#
# Mechanical properties :
#
#
# Convention : Reuss Voigt Hill
#
# Bulk Modulus (GPa) = 57.10315 62.63801 59.87058
# Shear Modulus (GPa) = 24.31530 25.83902 25.07716
#
# Velocity S-wave (km/s) = 3.58059 3.69108 3.63625
# Velocity P-wave (km/s) = 6.87043 7.15488 7.01410
#
# Compressibility (1/GPa) = 0.01751217
#
# Stress axis : x y z
#
# Youngs Moduli (GPa) = 52.52875 52.52875 94.61115
#
# Poissons Ratio (x) = 0.34819 0.42278
# Poissons Ratio (y) = 0.34819 0.42278
# Poissons Ratio (z) = 0.23473 0.23473
#
# Static dielectric constant tensor:
#      x y z
#    x 3.425040 0.000000 0.000000 
#    y 0.000000 3.425040 0.000000 
#    z 0.000000 0.000000 3.639640 
# 
# 
# High freq. dielectric constant tensor:
#      x y z
#    x 1.722340 0.000000 0.000000 
#    y 0.000000 1.722340 0.000000 
#    z 0.000000 0.000000 1.744520 
# 
# From -- ./inp_files/7765.got.cif
#   From: 2010.03.12/outbox.cif.g09.slc.cpg/sg180_4_cif.got.tgz:7765.got - 2010.04.01 11:35:50.
