data_PCOD8326791
_publ_section_title
;
Structure prediction by ZEFSAII (Michael W. Deem and Ramdas Pophale) SiO2 
 PCOD8326791
Probable space group: P 63 M C
;
_chemical_formula_sum "Si O2"
_cell_formula_units_Z 60
_cell_length_a 12.318099
_cell_length_b 12.318099
_cell_length_c 25.471983
_cell_angle_alpha 90.000000
_cell_angle_beta 90.000000
_cell_angle_gamma 120.000000
_cell_volume 3347.193105
_symmetry_space_group_name_H-M "P 63 M C"
_symmetry_group_IT_number 186
_symmetry_cell_setting 'hexagonal'
loop_
_space_group_symop_operation_xyz
x,y,z
x-y,x,1/2+z
-y,x-y,z
-x,-y,1/2+z
-x+y,-x,z
y,-x+y,1/2+z
-x+y,y,z
x,x-y,z
-y,-x,z
y,x,1/2+z
x-y,-y,1/2+z
-x,-x+y,1/2+z
loop_
_atom_site_type_symbol
_atom_site_label
_atom_site_fract_x
_atom_site_fract_y
_atom_site_fract_z
Si Si1 0.666675 0.585041 0.278080
Si Si2 0.585137 0.666834 0.377982
Si Si3 0.252076 0.250980 0.177554
Si Si4 0.250889 0.998773 0.477780
Si Si5 0.332231 0.918416 0.577848
O O1 0.794664 0.589328 0.292833
O O2 0.558538 0.441463 0.275991
O O3 0.640303 0.662582 0.321683
O O4 0.673036 0.646356 0.222101
O O5 0.547918 0.773959 0.377403
O O6 0.462638 0.537363 0.392371
O O7 0.690174 0.694279 0.421187
O O8 0.132669 0.265338 0.187669
O O9 0.311588 0.310550 0.121693
O O10 0.209244 0.104622 0.179090
O O11 0.266720 0.133360 0.487458
O O12 0.329568 0.973650 0.521316
O O13 0.104566 0.895434 0.481957
O O14 0.465658 0.931316 0.586899
O O15 0.227251 0.772750 0.582359
#
# Coordination Sequence:
#
# PCOD8326791 Si02
#       5
#    12  12  12  12  12
#     4  10  20  34  53  76 103 135 170 209 252 300
#     4  10  20  34  53  76 103 135 170 209 252 300
#     4  10  20  34  53  76 102 132 167 208 253 299
#     4  10  20  34  53  76 102 132 167 208 253 299
#     4  10  20  34  54  78 104 134 168 208 252 300
#
# _framework density 17.925466
#
# number of rings (size 3 to 8) (size 9 to 14) (size 15 to 20)
#    0.000    2.000    0.000    4.000    0.000    0.000 
#    0.000    6.000    0.000   20.000    0.000    0.000 
#    0.000    0.000    0.000    0.000    0.000    0.000 
#
# Total GULP energy -744297.503897 kJ/mol
# GULP energy per Si atom -12404.958398 kJ/mol
# Density = 1.788467 g / cm^3
# Si number density = 17.925466 Si / 1000 Ang^3
#
#
#
# Elastic Constant Matrix: (Units=GPa)
#
#
# Indices 1 2 3 4 5 6 
#
# 1 79.4010 32.3914 13.3966 0.0000 0.0000 0.0000
# 2 32.3914 79.4010 13.3966 0.0000 0.0000 0.0000
# 3 13.3966 13.3966 78.5084 0.0000 0.0000 0.0000
# 4 0.0000 0.0000 0.0000 23.0192 0.0000 0.0000
# 5 0.0000 0.0000 0.0000 0.0000 23.0192 0.0000
# 6 0.0000 0.0000 0.0000 0.0000 0.0000 23.5048
#
#
#
# Elastic Compliance Matrix: (Units=1/GPa)
#
#
# Indices 1 2 3 4 5 6 
#
# 1 0.015299 -0.005973 -0.001591 0.000000 0.000000 0.000000
# 2 -0.005973 0.015299 -0.001591 0.000000 0.000000 0.000000
# 3 -0.001591 -0.001591 0.013281 0.000000 0.000000 0.000000
# 4 0.000000 0.000000 0.000000 0.043442 0.000000 0.000000
# 5 0.000000 0.000000 0.000000 0.000000 0.043442 0.000000
# 6 0.000000 0.000000 0.000000 0.000000 0.000000 0.042544
#
#
# Mechanical properties :
#
#
# Convention : Reuss Voigt Hill
#
# Bulk Modulus (GPa) = 39.11158 39.51995 39.31576
# Shear Modulus (GPa) = 24.98223 25.78368 25.38296
#
# Velocity S-wave (km/s) = 3.73724 3.79672 3.76710
# Velocity P-wave (km/s) = 6.36310 6.42766 6.39546
#
# Compressibility (1/GPa) = 0.02556788
#
# Stress axis : x y z
#
# Youngs Moduli (GPa) = 65.36198 65.36198 75.29763
#
# Poissons Ratio (x) = 0.39040 0.11983
# Poissons Ratio (y) = 0.39040 0.11983
# Poissons Ratio (z) = 0.10402 0.10402
#
# Static dielectric constant tensor:
#      x y z
#    x 3.204610 0.000000 0.000000 
#    y 0.000000 3.204610 0.000000 
#    z 0.000000 0.000000 3.472880 
# 
# 
# High freq. dielectric constant tensor:
#      x y z
#    x 1.693100 0.000000 0.000000 
#    y 0.000000 1.693100 0.000000 
#    z 0.000000 0.000000 1.711620 
# 
# From -- ./inp_files/3954.got.cif
#   From: 2010.03.12/outbox.cif.g09.slc.cpg/sg186_2_cif.got.tgz:3954.got - 2010.04.01 11:56:34.
