data_PCOD8326529
_publ_section_title
;
Structure prediction by ZEFSAII (Michael W. Deem and Ramdas Pophale) SiO2 
 PCOD8326529
Probable space group: P 6 M M
;
_chemical_formula_sum "Si O2"
_cell_formula_units_Z 96
_cell_length_a 18.406601
_cell_length_b 18.406601
_cell_length_c 20.189555
_cell_angle_alpha 90.000000
_cell_angle_beta 90.000000
_cell_angle_gamma 120.000000
_cell_volume 5923.857117
_symmetry_space_group_name_H-M "P 6 M M"
_symmetry_group_IT_number 183
_symmetry_cell_setting 'hexagonal'
loop_
_space_group_symop_operation_xyz
x,y,z
x-y,x,z
-y,x-y,z
-x,-y,z
-x+y,-x,z
y,-x+y,z
-x+y,y,z
x,x-y,z
-y,-x,z
y,x,z
x-y,-y,z
-x,-x+y,z
loop_
_atom_site_type_symbol
_atom_site_label
_atom_site_fract_x
_atom_site_fract_y
_atom_site_fract_z
Si Si1 0.094501 0.745279 0.854410
Si Si2 0.095130 0.741452 0.005552
Si Si3 0.539807 0.907340 0.606085
Si Si4 0.093270 0.742929 0.374861
Si Si5 0.831361 0.331158 0.470347
Si Si6 0.098418 0.629754 0.114415
Si Si7 0.646613 0.742062 0.223014
Si Si8 0.900196 0.369616 0.749979
O O1 0.154599 0.845402 0.845918
O O2 0.098139 0.717523 0.929365
O O3 0.129685 0.699067 0.807629
O O4 0.000000 0.721795 0.835151
O O5 0.159254 0.840747 0.018018
O O6 0.000000 0.718745 0.024769
O O7 0.125190 0.687895 0.049056
O O8 0.457198 0.914395 0.607594
O O9 0.535846 0.849222 0.545387
O O10 0.545138 0.869740 0.677721
O O11 0.619841 0.000000 0.595124
O O12 0.160203 0.839798 0.391765
O O13 0.107825 0.680059 0.420137
O O14 0.102055 0.721128 0.299178
O O15 0.000000 0.727526 0.388068
O O16 0.849152 0.424576 0.460708
O O17 0.734827 0.265174 0.454123
O O18 0.140964 0.570482 0.114520
O O19 0.125031 0.687886 0.179727
O O20 0.000000 0.569713 0.114215
O O21 0.682393 0.841197 0.208876
O O22 0.718617 0.718617 0.204769
O O23 0.863019 0.431510 0.764343
O O24 0.000000 0.424209 0.748305
#
# Coordination Sequence:
#
# PCOD8326529 Si02
#       8
#    12  12  12  12  12  12  12  12
#     4   9  17  28  43  63  86 113 145 181 218 256
#     4   9  17  29  45  65  88 114 145 180 218 259
#     4   8  14  25  40  57  78 105 138 176 215 255
#     4   9  18  31  47  67  89 114 144 179 218 258
#     4  10  19  29  41  59  85 116 148 180 214 252
#     4   9  17  28  43  64  87 110 139 175 209 242
#     4   9  17  30  48  69  92 117 146 179 215 255
#     4   8  14  25  41  61  83 106 135 173 216 258
#
# _framework density 16.205658
#
# number of rings (size 3 to 8) (size 9 to 14) (size 15 to 20)
#    0.000    3.125    0.000    1.625    0.000    2.250 
#    0.000    3.750    0.000    2.750    0.000    3.500 
#    0.000    3.000    0.000    0.250    0.000   16.250 
#
# Total GULP energy -1189577.267148 kJ/mol
# GULP energy per Si atom -12391.429866 kJ/mol
# Density = 1.616877 g / cm^3
# Si number density = 16.205658 Si / 1000 Ang^3
#
#
#
# Elastic Constant Matrix: (Units=GPa)
#
#
# Indices 1 2 3 4 5 6 
#
# 1 82.0940 48.8256 45.0881 0.0000 0.0000 0.0000
# 2 48.8256 82.0940 45.0881 0.0000 0.0000 0.0000
# 3 45.0881 45.0881 95.6837 0.0000 0.0000 0.0000
# 4 0.0000 0.0000 0.0000 19.5244 0.0000 0.0000
# 5 0.0000 0.0000 0.0000 0.0000 19.5244 0.0000
# 6 0.0000 0.0000 0.0000 0.0000 0.0000 16.6342
#
#
#
# Elastic Compliance Matrix: (Units=1/GPa)
#
#
# Indices 1 2 3 4 5 6 
#
# 1 0.020684 -0.009375 -0.005329 0.000000 0.000000 0.000000
# 2 -0.009375 0.020684 -0.005329 0.000000 0.000000 0.000000
# 3 -0.005329 -0.005329 0.015473 0.000000 0.000000 0.000000
# 4 0.000000 0.000000 0.000000 0.051218 0.000000 0.000000
# 5 0.000000 0.000000 0.000000 0.000000 0.051218 0.000000
# 6 0.000000 0.000000 0.000000 0.000000 0.000000 0.060117
#
#
# Mechanical properties :
#
#
# Convention : Reuss Voigt Hill
#
# Bulk Modulus (GPa) = 59.61192 59.76389 59.68791
# Shear Modulus (GPa) = 18.86431 19.19460 19.02946
#
# Velocity S-wave (km/s) = 3.41553 3.44530 3.43045
# Velocity P-wave (km/s) = 7.24009 7.26535 7.25273
#
# Compressibility (1/GPa) = 0.01677517
#
# Stress axis : x y z
#
# Youngs Moduli (GPa) = 48.34736 48.34736 64.62747
#
# Poissons Ratio (x) = 0.45325 0.34440
# Poissons Ratio (y) = 0.45325 0.34440
# Poissons Ratio (z) = 0.25764 0.25764
#
# Static dielectric constant tensor:
#      x y z
#    x 2.987840 0.000000 0.000000 
#    y 0.000000 2.987840 0.000000 
#    z 0.000000 0.000000 3.372700 
# 
# 
# High freq. dielectric constant tensor:
#      x y z
#    x 1.597590 0.000000 0.000000 
#    y 0.000000 1.597590 0.000000 
#    z 0.000000 0.000000 1.639460 
# 
# From -- ./inp_files/3160.got.cif
#   From: 2010.03.12/outbox.cif.g09.slc.cpg/sg183_2_cif.got.tgz:3160.got - 2010.04.01 11:53:02.
