data_PCOD8326006
_publ_section_title
;
Structure prediction by ZEFSAII (Michael W. Deem and Ramdas Pophale) SiO2 
 PCOD8326006
Probable space group: P 61 2 2
;
_chemical_formula_sum "Si O2"
_cell_formula_units_Z 54
_cell_length_a 24.000000
_cell_length_b 24.000000
_cell_length_c 6.000000
_cell_angle_alpha 90.000000
_cell_angle_beta 90.000000
_cell_angle_gamma 120.000000
_cell_volume 2992.983795
_symmetry_space_group_name_H-M "P 61 2 2"
_symmetry_group_IT_number 178
_symmetry_cell_setting 'hexagonal'
loop_
_space_group_symop_operation_xyz
x,y,z
x-y,x,1/6+z
-y,x-y,1/3+z
-x,-y,1/2+z
-x+y,-x,2/3+z
y,-x+y,5/6+z
x-y,-y,-z
-x,-x+y,2/3-z
y,x,1/3-z
-y,-x,5/6-z
-x+y,y,1/2-z
x,x-y,1/6-z
loop_
_atom_site_type_symbol
_atom_site_label
_atom_site_fract_x
_atom_site_fract_y
_atom_site_fract_z
Si Si1 0.349666 0.470202 0.201646
Si Si2 0.386716 0.193358 0.583334
Si Si3 0.386538 0.193269 0.083334
Si Si4 0.386097 0.613904 0.916667
Si Si5 0.161502 0.497867 0.797868
Si Si6 0.300180 0.600359 0.250000
Si Si7 0.000000 0.518281 0.833334
O O1 0.267555 0.420124 0.216047
O O2 0.361695 0.500143 0.455622
O O3 0.394657 0.443503 0.188530
O O4 0.367864 0.507355 0.952052
O O5 0.341425 0.169509 0.339223
O O6 0.430151 0.268113 0.605288
O O7 0.352771 0.571010 0.696120
O O8 0.436837 0.677672 0.749746
O O9 0.349088 0.650913 0.416667
O O10 0.999998 0.499999 0.583334
#
# Coordination Sequence:
#
# PCOD8326006 Si02
#       7
#    12   6   6   6  12   6   6
#     4  10  22  40  55  78  91 126 154 201 239 300
#     4   8  16  30  44  68  82 110 136 189 216 271
#     4   8  16  35  55  70  92 110 156 184 232 276
#     4  11  24  32  49  58  86 116 148 201 234 310
#     4  10  22  33  54  66  90 114 157 184 240 284
#     4   9  22  37  40  60  86 114 148 190 252 293
#     4  12  26  40  60  78 112 134 168 206 260 322
#
# _framework density 18.042196000000001
#
# number of rings (size 3 to 8) (size 9 to 14) (size 15 to 20)
#    0.000    2.222    0.000    1.333   12.444    3.556 
#    0.000    0.000    0.000    0.000    0.000    0.000 
#    0.000    0.000    0.000    0.000    0.000    0.000 
#
# Total GULP energy -668983.817435 kJ/mol
# GULP energy per Si atom -12388.589212 kJ/mol
# Density = 1.800113 g / cm^3
# Si number density = 18.042196 Si / 1000 Ang^3
#
#
#
# Elastic Constant Matrix: (Units=GPa)
#
#
# Indices 1 2 3 4 5 6 
#
# 1 20.2579 2.3439 20.0414 0.0000 0.0000 0.0000
# 2 2.3439 20.2579 20.0414 0.0000 0.0000 0.0000
# 3 20.0414 20.0414 271.0812 0.0000 0.0000 0.0000
# 4 0.0000 0.0000 0.0000 1.2319 0.0000 0.0000
# 5 0.0000 0.0000 0.0000 0.0000 1.2319 0.0000
# 6 0.0000 0.0000 0.0000 0.0000 0.0000 8.9570
#
#
#
# Elastic Compliance Matrix: (Units=1/GPa)
#
#
# Indices 1 2 3 4 5 6 
#
# 1 0.053371 -0.002451 -0.003765 0.000000 0.000000 0.000000
# 2 -0.002451 0.053371 -0.003765 0.000000 0.000000 0.000000
# 3 -0.003765 -0.003765 0.004246 0.000000 0.000000 0.000000
# 4 0.000000 0.000000 0.000000 0.811759 0.000000 0.000000
# 5 0.000000 0.000000 0.000000 0.000000 0.811759 0.000000
# 6 0.000000 0.000000 0.000000 0.000000 0.000000 0.111645
#
#
# Mechanical properties :
#
#
# Convention : Reuss Voigt Hill
#
# Bulk Modulus (GPa) = 10.98561 44.05002 27.51782
# Shear Modulus (GPa) = 2.63650 20.22883 11.43267
#
# Velocity S-wave (km/s) = 1.21015 3.35206 2.52000
# Velocity P-wave (km/s) = 2.83808 6.28090 4.87362
#
# Compressibility (1/GPa) = 0.09102815
#
# Stress axis : x y z
#
# Youngs Moduli (GPa) = 18.73659 18.73659 235.53922
#
# Poissons Ratio (x) = 0.04592 0.88671
# Poissons Ratio (y) = 0.04592 0.88671
# Poissons Ratio (z) = 0.07054 0.07054
#
# Static dielectric constant tensor:
#      x y z
#    x 0.000000 0.000000 0.000000 
#    y 0.000000 0.000000 0.000000 
#    z 0.000000 0.000000 0.000000 
# 
# 
# High freq. dielectric constant tensor:
#      x y z
#    x 1.708300 0.000000 0.000000 
#    y 0.000000 1.708300 0.000000 
#    z 0.000000 0.000000 1.464980 
# 
# From -- ./inp_files/1285.got.cif
#   From: 2010.03.12/outbox.ucp.g09.slc.cvg/sg178_1_cif.got.tgz:1285.got - 2010.05.04 20:43:14.
