data_PCOD8326282
_publ_section_title
;
Structure prediction by ZEFSAII (Michael W. Deem and Ramdas Pophale) SiO2 
 PCOD8326282
Probable space group: P 64 2 2
;
_chemical_formula_sum "Si O2"
_cell_formula_units_Z 60
_cell_length_a 12.138041
_cell_length_b 12.138041
_cell_length_c 28.734268
_cell_angle_alpha 90.000000
_cell_angle_beta 90.000000
_cell_angle_gamma 120.000000
_cell_volume 3666.299757
_symmetry_space_group_name_H-M "P 64 2 2"
_symmetry_group_IT_number 181
_symmetry_cell_setting 'hexagonal'
loop_
_space_group_symop_operation_xyz
x,y,z
x-y,x,2/3+z
-y,x-y,1/3+z
-x,-y,z
-x+y,-x,2/3+z
y,-x+y,1/3+z
x-y,-y,-z
-x,-x+y,2/3-z
y,x,1/3-z
-y,-x,1/3-z
-x+y,y,-z
x,x-y,2/3-z
loop_
_atom_site_type_symbol
_atom_site_label
_atom_site_fract_x
_atom_site_fract_y
_atom_site_fract_z
Si Si1 0.335977 0.330103 0.573110
Si Si2 0.328759 0.978011 0.796531
Si Si3 0.627752 0.408297 0.454156
Si Si4 0.938700 0.857406 0.555303
Si Si5 0.192644 0.602765 0.388113
O O1 0.344494 0.342700 0.518130
O O2 0.193752 0.216928 0.583730
O O3 0.443619 0.304116 0.595389
O O4 0.358827 0.460475 0.594508
O O5 0.451294 0.102746 0.776231
O O6 0.207383 0.973518 0.770983
O O7 0.317390 0.841681 0.788777
O O8 0.702385 0.404770 0.500000
O O9 0.671505 0.352892 0.411481
O O10 0.926889 0.853778 0.500000
O O11 0.000000 0.000000 0.574706
O O12 0.206343 0.603172 0.333334
#
# Coordination Sequence:
#
# PCOD8326282 Si02
#       5
#    12  12  12  12  12
#     4  10  16  29  48  75 105 130 163 208 255 303
#     4  10  17  27  52  76 104 131 169 209 248 301
#     4  11  16  29  49  77 103 126 164 211 256 301
#     4   9  17  29  48  77 104 130 168 212 250 290
#     4  11  20  29  47  77 108 131 158 213 272 310
#
# _framework density 16.365273999999999
#
# number of rings (size 3 to 8) (size 9 to 14) (size 15 to 20)
#    0.000    1.800    6.000    3.000    0.000    0.000 
#    0.000    0.000    0.000    8.400    0.000    0.000 
#    0.000    0.000    0.000    0.000    0.000    0.000 
#
# Total GULP energy -743311.129410 kJ/mol
# GULP energy per Si atom -12388.518824 kJ/mol
# Density = 1.632803 g / cm^3
# Si number density = 16.365274 Si / 1000 Ang^3
#
#
#
# Elastic Constant Matrix: (Units=GPa)
#
#
# Indices 1 2 3 4 5 6 
#
# 1 117.9574 68.2706 31.6747 0.0000 0.0000 0.0000
# 2 68.2706 117.9574 31.6747 0.0000 0.0000 0.0000
# 3 31.6747 31.6747 73.2834 0.0000 0.0000 0.0000
# 4 0.0000 0.0000 0.0000 17.7175 0.0000 0.0000
# 5 0.0000 0.0000 0.0000 0.0000 17.7175 0.0000
# 6 0.0000 0.0000 0.0000 0.0000 0.0000 24.8434
#
#
#
# Elastic Compliance Matrix: (Units=1/GPa)
#
#
# Indices 1 2 3 4 5 6 
#
# 1 0.013211 -0.006915 -0.002721 0.000000 0.000000 0.000000
# 2 -0.006915 0.013211 -0.002721 0.000000 0.000000 0.000000
# 3 -0.002721 -0.002721 0.015998 0.000000 0.000000 0.000000
# 4 0.000000 0.000000 0.000000 0.056441 0.000000 0.000000
# 5 0.000000 0.000000 0.000000 0.000000 0.056441 0.000000
# 6 0.000000 0.000000 0.000000 0.000000 0.000000 0.040252
#
#
# Mechanical properties :
#
#
# Convention : Reuss Voigt Hill
#
# Bulk Modulus (GPa) = 56.48262 63.60422 60.04342
# Shear Modulus (GPa) = 22.10723 23.89422 23.00073
#
# Velocity S-wave (km/s) = 3.67939 3.82521 3.75301
# Velocity P-wave (km/s) = 7.25529 7.64588 7.45314
#
# Compressibility (1/GPa) = 0.01770456
#
# Stress axis : x y z
#
# Youngs Moduli (GPa) = 75.69612 75.69612 62.50858
#
# Poissons Ratio (x) = 0.52347 0.17009
# Poissons Ratio (y) = 0.52347 0.17009
# Poissons Ratio (z) = 0.20597 0.20597
#
# Static dielectric constant tensor:
#      x y z
#    x 3.361070 0.000000 0.000000 
#    y 0.000000 3.361070 0.000000 
#    z 0.000000 0.000000 5.683180 
# 
# 
# High freq. dielectric constant tensor:
#      x y z
#    x 1.620710 0.000000 0.000000 
#    y 0.000000 1.620710 0.000000 
#    z 0.000000 0.000000 1.595490 
# 
# From -- ./inp_files/12143.got.cif
#   From: 2010.03.12/outbox.cif.g09.slc.cpg/sg181_7_cif.got.tgz:12143.got - 2010.04.01 11:42:41.
