data_PCOD8326973
_publ_section_title
;
Structure prediction by ZEFSAII (Michael W. Deem and Ramdas Pophale) SiO2 
 PCOD8326973
Probable space group: P -6 M 2
;
_chemical_formula_sum "Si O2"
_cell_formula_units_Z 72
_cell_length_a 17.313730
_cell_length_b 17.313730
_cell_length_c 15.288543
_cell_angle_alpha 90.000000
_cell_angle_beta 90.000000
_cell_angle_gamma 120.000000
_cell_volume 3968.971789
_symmetry_space_group_name_H-M "P -6 M 2"
_symmetry_group_IT_number 187
_symmetry_cell_setting 'hexagonal'
loop_
_space_group_symop_operation_xyz
x,y,z
-x+y,-x,-z
-y,x-y,z
x,y,-z
-x+y,-x,z
-y,x-y,-z
-y,-x,-z
-x+y,y,-z
x,x-y,-z
-x+y,y,z
x,x-y,z
-y,-x,z
loop_
_atom_site_type_symbol
_atom_site_label
_atom_site_fract_x
_atom_site_fract_y
_atom_site_fract_z
Si Si1 0.640760 0.666745 0.598504
Si Si2 0.839951 0.332938 0.395902
Si Si3 0.174251 0.000057 0.640763
Si Si4 0.999509 0.823994 0.847290
Si Si5 0.091736 0.725569 0.096999
Si Si6 0.515179 0.848200 0.744144
O O1 0.601323 0.644146 0.500000
O O2 0.652342 0.586570 0.638072
O O3 0.735948 0.755366 0.593624
O O4 0.573743 0.681552 0.658207
O O5 0.837790 0.329570 0.500000
O O6 0.827294 0.413647 0.361291
O O7 0.759642 0.240359 0.357794
O O8 0.075597 0.924404 0.613351
O O9 0.188753 0.094377 0.607492
O O10 0.186885 0.000132 0.743931
O O11 0.907104 0.814208 0.880918
O O12 0.009975 0.744147 0.889078
O O13 0.079184 0.920817 0.876646
O O14 0.180601 0.819400 0.108607
O O15 0.093434 0.659428 0.169908
O O16 0.084976 0.685057 0.000000
O O17 0.422716 0.845431 0.734669
O O18 0.496135 0.748068 0.752869
#
# Coordination Sequence:
#
# PCOD8326973 Si02
#       6
#    12  12  12  12  12  12
#     4  11  22  36  54  76 105 142 180 217 264 323
#     4   9  17  30  49  73 100 131 169 215 265 314
#     4  10  19  32  50  74 105 143 186 228 266 307
#     4   9  16  28  48  76 110 147 184 219 257 305
#     4   9  18  34  55  78 105 135 167 208 260 313
#     4  11  23  40  59  79 102 131 170 218 272 328
#
# _framework density 18.140719000000001
#
# number of rings (size 3 to 8) (size 9 to 14) (size 15 to 20)
#    0.000    2.167    1.667    2.167    0.000    6.000 
#    0.000    0.000    0.000    4.000    0.000    0.000 
#    0.000    0.000    0.000    0.000    0.000    2.500 
#
# Total GULP energy -892815.732571 kJ/mol
# GULP energy per Si atom -12400.218508 kJ/mol
# Density = 1.809943 g / cm^3
# Si number density = 18.140719 Si / 1000 Ang^3
#
#
#
# Elastic Constant Matrix: (Units=GPa)
#
#
# Indices 1 2 3 4 5 6 
#
# 1 95.4122 30.5372 30.0495 0.0000 0.0002 0.0000
# 2 30.5372 95.4122 30.0495 0.0000 -0.0002 0.0000
# 3 30.0495 30.0495 74.4237 0.0000 0.0000 0.0000
# 4 0.0000 0.0000 0.0000 10.5435 0.0000 -0.0002
# 5 0.0002 -0.0002 0.0000 0.0000 10.5435 0.0000
# 6 0.0000 0.0000 0.0000 -0.0002 0.0000 32.4375
#
#
#
# Elastic Compliance Matrix: (Units=1/GPa)
#
#
# Indices 1 2 3 4 5 6 
#
# 1 0.012624 -0.002790 -0.003971 0.000000 0.000000 0.000000
# 2 -0.002790 0.012624 -0.003971 0.000000 0.000000 0.000000
# 3 -0.003971 -0.003971 0.016643 0.000000 0.000000 0.000000
# 4 0.000000 0.000000 0.000000 0.094845 0.000000 0.000001
# 5 0.000000 0.000000 0.000000 0.000000 0.094845 0.000000
# 6 0.000000 0.000000 0.000000 0.000001 0.000000 0.030828
#
#
# Mechanical properties :
#
#
# Convention : Reuss Voigt Hill
#
# Bulk Modulus (GPa) = 48.95044 49.61342 49.28193
# Shear Modulus (GPa) = 17.20090 22.34572 19.77331
#
# Velocity S-wave (km/s) = 3.08261 3.51351 3.30509
# Velocity P-wave (km/s) = 6.30177 6.62331 6.46454
#
# Compressibility (1/GPa) = 0.02042882
#
# Stress axis : x y z
#
# Youngs Moduli (GPa) = 79.21211 79.21211 60.08505
#
# Poissons Ratio (x) = 0.22099 0.23858
# Poissons Ratio (y) = 0.22099 0.23858
# Poissons Ratio (z) = 0.31453 0.31453
#
# Static dielectric constant tensor:
#      x y z
#    x 3.346540 0.000000 0.000000 
#    y 0.000000 3.346540 0.000000 
#    z 0.000000 0.000000 3.272540 
# 
# 
# High freq. dielectric constant tensor:
#      x y z
#    x 1.696220 0.000000 0.000000 
#    y 0.000000 1.696220 0.000000 
#    z 0.000000 0.000000 1.681270 
# 
# From -- ./inp_files/3036.got.cif
#   From: 2010.03.12/outbox.cif.g09.slc.cpg/sg187_2_cif.got.tgz:3036.got - 2010.04.01 11:58:23.
