data_PCOD8326976
_publ_section_title
;
Structure prediction by ZEFSAII (Michael W. Deem and Ramdas Pophale) SiO2 
 PCOD8326976
Probable space group: P -6 M 2
;
_chemical_formula_sum "Si O2"
_cell_formula_units_Z 78
_cell_length_a 23.392295
_cell_length_b 23.392295
_cell_length_c 8.316213
_cell_angle_alpha 90.000000
_cell_angle_beta 90.000000
_cell_angle_gamma 120.000000
_cell_volume 3940.958851
_symmetry_space_group_name_H-M "P -6 M 2"
_symmetry_group_IT_number 187
_symmetry_cell_setting 'hexagonal'
loop_
_space_group_symop_operation_xyz
x,y,z
-x+y,-x,-z
-y,x-y,z
x,y,-z
-x+y,-x,z
-y,x-y,-z
-y,-x,-z
-x+y,y,-z
x,x-y,-z
-x+y,y,z
x,x-y,z
-y,-x,z
loop_
_atom_site_type_symbol
_atom_site_label
_atom_site_fract_x
_atom_site_fract_y
_atom_site_fract_z
Si Si1 0.793871 0.458218 0.500000
Si Si2 0.263559 0.392321 0.678564
Si Si3 0.823687 0.514523 0.825269
Si Si4 0.129636 0.999953 0.686314
Si Si5 0.739607 0.982433 0.817464
Si Si6 0.333362 0.795710 0.691676
Si Si7 0.350811 0.111949 0.679375
O O1 0.741980 0.483959 0.500000
O O2 0.757998 0.378999 0.500000
O O3 0.836485 0.482081 0.666496
O O4 0.282962 0.379804 0.500000
O O5 0.198098 0.396196 0.666338
O O6 0.249384 0.331611 0.793181
O O7 0.319944 0.464604 0.746067
O O8 0.747257 0.494514 0.825869
O O9 0.870880 0.592892 0.810555
O O10 0.839403 0.492923 0.000000
O O11 0.149299 0.005366 0.500000
O O12 0.052623 0.947378 0.711809
O O13 0.170830 0.972352 0.781428
O O14 0.142566 0.071283 0.749184
O O15 0.744844 0.038087 0.698600
O O16 0.744319 0.005471 0.000000
O O17 0.332844 0.793926 0.500000
O O18 0.404232 0.808464 0.757961
O O19 0.275093 0.724908 0.756748
O O20 0.381517 0.121205 0.500000
O O21 0.320761 0.160381 0.702309
#
# Coordination Sequence:
#
# PCOD8326976 Si02
#       7
#     6  12  12  12  12  12  12
#     4  10  19  32  50  76 108 144 181 216 258 314
#     4   9  18  33  51  72 102 141 179 214 258 314
#     4   9  17  31  51  75 104 137 173 216 268 323
#     4  10  21  38  58  78 102 136 177 220 269 328
#     4  12  24  34  49  76 106 137 176 222 269 319
#     4   8  13  23  45  78 110 135 164 208 262 315
#     4  10  19  34  56  79 101 127 165 218 277 332
#
# _framework density 19.792137
#
# number of rings (size 3 to 8) (size 9 to 14) (size 15 to 20)
#    0.000    2.308    0.769    4.077    0.000    7.077 
#    0.000    0.000    0.000    3.231    0.000    0.000 
#    0.000    1.231    0.000    0.000    0.000    0.000 
#
# Total GULP energy -966422.337884 kJ/mol
# GULP energy per Si atom -12390.029973 kJ/mol
# Density = 1.974709 g / cm^3
# Si number density = 19.792137 Si / 1000 Ang^3
#
#
#
# Elastic Constant Matrix: (Units=GPa)
#
#
# Indices 1 2 3 4 5 6 
#
# 1 94.5330 45.0532 26.7217 0.0000 -0.0001 0.0000
# 2 45.0532 94.5330 26.7217 0.0000 0.0001 0.0000
# 3 26.7217 26.7217 109.8451 0.0000 0.0000 0.0000
# 4 0.0000 0.0000 0.0000 -1.9392 0.0000 0.0001
# 5 -0.0001 0.0001 0.0000 0.0000 -1.9392 0.0000
# 6 0.0000 0.0000 0.0000 0.0001 0.0000 24.7399
#
#
#
# Elastic Compliance Matrix: (Units=1/GPa)
#
#
# Indices 1 2 3 4 5 6 
#
# 1 0.014055 -0.006155 -0.001922 0.000000 -0.000001 0.000000
# 2 -0.006155 0.014055 -0.001922 0.000000 0.000001 0.000000
# 3 -0.001922 -0.001922 0.010039 0.000000 0.000000 0.000000
# 4 0.000000 0.000000 0.000000 -0.515676 0.000000 0.000002
# 5 -0.000001 0.000001 0.000000 0.000000 -0.515676 0.000000
# 6 0.000000 0.000000 0.000000 0.000002 0.000000 0.040421
#
#
# Mechanical properties :
#
#
# Convention : Reuss Voigt Hill
#
# Bulk Modulus (GPa) = 55.09244 55.10047 55.09646
# Shear Modulus (GPa) = -5.39529 17.53328 6.06899
#
# Velocity S-wave (km/s) = -1.65284 2.97959 1.75300
# Velocity P-wave (km/s) = 4.92478 6.30375 5.65644
#
# Compressibility (1/GPa) = 0.01815131
#
# Stress axis : x y z
#
# Youngs Moduli (GPa) = 71.14888 71.14888 99.61417
#
# Poissons Ratio (x) = 0.43794 0.19144
# Poissons Ratio (y) = 0.43794 0.19144
# Poissons Ratio (z) = 0.13673 0.13673
#
# Static dielectric constant tensor:
#      x y z
#    x 3.572240 0.000000 0.000000 
#    y 0.000000 3.572240 0.000000 
#    z 0.000000 0.000000 3.630060 
# 
# 
# High freq. dielectric constant tensor:
#      x y z
#    x 1.751760 0.000000 0.000000 
#    y 0.000000 1.751760 0.000000 
#    z 0.000000 0.000000 1.761970 
# 
# From -- ./inp_files/1160.got.cif
#   From: 2010.03.12/outbox.cif.g09.slc.cpg/sg187_1_cif.got.tgz:1160.got - 2010.04.01 11:58:23.
