data_PCOD8326885
_publ_section_title
;
Structure prediction by ZEFSAII (Michael W. Deem and Ramdas Pophale) SiO2 
 PCOD8326885
Probable space group: P -6 M 2
;
_chemical_formula_sum "Si O2"
_cell_formula_units_Z 54
_cell_length_a 20.788876
_cell_length_b 20.788876
_cell_length_c 7.975621
_cell_angle_alpha 90.000000
_cell_angle_beta 90.000000
_cell_angle_gamma 120.000000
_cell_volume 2985.088130
_symmetry_space_group_name_H-M "P -6 M 2"
_symmetry_group_IT_number 187
_symmetry_cell_setting 'hexagonal'
loop_
_space_group_symop_operation_xyz
x,y,z
-x+y,-x,-z
-y,x-y,z
x,y,-z
-x+y,-x,z
-y,x-y,-z
-y,-x,-z
-x+y,y,-z
x,x-y,-z
-x+y,y,z
x,x-y,z
-y,-x,z
loop_
_atom_site_type_symbol
_atom_site_label
_atom_site_fract_x
_atom_site_fract_y
_atom_site_fract_z
Si Si1 0.743257 0.945948 0.189633
Si Si2 0.021548 0.510774 0.810872
Si Si3 0.152808 0.153188 0.500000
Si Si4 0.355994 0.985581 0.304352
Si Si5 0.849052 0.289713 0.694349
Si Si6 0.577117 0.154233 0.809866
O O1 0.725975 0.862988 0.217800
O O2 0.663712 0.940910 0.212342
O O3 0.802242 0.998423 0.331293
O O4 0.773976 0.973837 0.000000
O O5 0.051059 0.459202 0.726854
O O6 0.933941 0.466971 0.790766
O O7 0.049484 0.524742 0.000000
O O8 0.150863 0.075432 0.500000
O O9 0.068839 0.137677 0.500000
O O10 0.342038 0.985650 0.500000
O O11 0.393986 0.069145 0.225105
O O12 0.856514 0.279614 0.500000
O O13 0.790972 0.209029 0.773537
O O14 0.814903 0.343705 0.721205
O O15 0.590451 0.180902 0.000000
#
# Coordination Sequence:
#
# PCOD8326885 Si02
#       6
#    12   6   6  12  12   6
#     4  10  21  37  56  80 111 145 180 223 277 333
#     4   9  17  29  47  71 101 133 167 208 255 309
#     4  10  21  38  58  79 106 142 186 234 284 339
#     4  10  18  31  51  77 104 136 174 218 265 316
#     4   9  18  31  46  64  88 121 162 206 252 302
#     4   9  17  29  43  59  83 115 153 199 248 292
#
# _framework density 18.089917
#
# number of rings (size 3 to 8) (size 9 to 14) (size 15 to 20)
#    0.000    2.444    1.111    1.444    0.000    5.333 
#    0.667    0.000    0.000    1.333    0.000    0.000 
#    1.111    0.000    2.000    0.000    2.000    0.000 
#
# Total GULP energy -669145.573220 kJ/mol
# GULP energy per Si atom -12391.584689 kJ/mol
# Density = 1.804874 g / cm^3
# Si number density = 18.089917 Si / 1000 Ang^3
#
#
#
# Elastic Constant Matrix: (Units=GPa)
#
#
# Indices 1 2 3 4 5 6 
#
# 1 70.2652 43.9502 33.4878 0.0000 0.0000 0.0000
# 2 43.9502 70.2652 33.4878 0.0000 0.0000 0.0000
# 3 33.4878 33.4878 90.3119 0.0000 0.0000 0.0000
# 4 0.0000 0.0000 0.0000 19.4108 0.0000 0.0000
# 5 0.0000 0.0000 0.0000 0.0000 19.4108 0.0000
# 6 0.0000 0.0000 0.0000 0.0000 0.0000 13.1575
#
#
#
# Elastic Compliance Matrix: (Units=1/GPa)
#
#
# Indices 1 2 3 4 5 6 
#
# 1 0.024595 -0.013407 -0.004149 0.000000 0.000000 0.000000
# 2 -0.013407 0.024595 -0.004149 0.000000 0.000000 0.000000
# 3 -0.004149 -0.004149 0.014149 0.000000 0.000000 0.000000
# 4 0.000000 0.000000 0.000000 0.051518 0.000000 0.000000
# 5 0.000000 0.000000 0.000000 0.000000 0.051518 0.000000
# 6 0.000000 0.000000 0.000000 0.000000 0.000000 0.076002
#
#
# Mechanical properties :
#
#
# Convention : Reuss Voigt Hill
#
# Bulk Modulus (GPa) = 50.17246 50.29934 50.23590
# Shear Modulus (GPa) = 17.09828 18.39027 17.74427
#
# Velocity S-wave (km/s) = 3.07772 3.19188 3.13532
# Velocity P-wave (km/s) = 6.35807 6.43814 6.39823
#
# Compressibility (1/GPa) = 0.01993125
#
# Stress axis : x y z
#
# Youngs Moduli (GPa) = 40.65931 40.65931 70.67469
#
# Poissons Ratio (x) = 0.54510 0.29320
# Poissons Ratio (y) = 0.54510 0.29320
# Poissons Ratio (z) = 0.16868 0.16868
#
# Static dielectric constant tensor:
#      x y z
#    x 3.400750 0.000000 0.000000 
#    y 0.000000 3.400750 0.000000 
#    z 0.000000 0.000000 3.427930 
# 
# 
# High freq. dielectric constant tensor:
#      x y z
#    x 1.677190 0.000000 0.000000 
#    y 0.000000 1.677190 0.000000 
#    z 0.000000 0.000000 1.706480 
# 
# From -- ./inp_files/624.got.cif
#   From: 2010.03.12/outbox.cif.g09.slc.cpg/sg187_1_cif.got.tgz:624.got - 2010.04.01 11:58:23.
