data_PCOD8326218
_publ_section_title
;
Structure prediction by ZEFSAII (Michael W. Deem and Ramdas Pophale) SiO2 
 PCOD8326218
Probable space group: P 62 2 2
;
_chemical_formula_sum "Si O2"
_cell_formula_units_Z 54
_cell_length_a 10.433205
_cell_length_b 10.433205
_cell_length_c 27.218030
_cell_angle_alpha 90.000000
_cell_angle_beta 90.000000
_cell_angle_gamma 120.000000
_cell_volume 2565.800006
_symmetry_space_group_name_H-M "P 62 2 2"
_symmetry_group_IT_number 180
_symmetry_cell_setting 'hexagonal'
loop_
_space_group_symop_operation_xyz
x,y,z
x-y,x,1/3+z
-y,x-y,2/3+z
-x,-y,z
-x+y,-x,1/3+z
y,-x+y,2/3+z
x-y,-y,-z
-x,-x+y,1/3-z
y,x,2/3-z
-y,-x,2/3-z
-x+y,y,-z
x,x-y,1/3-z
loop_
_atom_site_type_symbol
_atom_site_label
_atom_site_fract_x
_atom_site_fract_y
_atom_site_fract_z
Si Si1 0.000000 0.000000 0.166667
Si Si2 0.500000 0.500000 0.333334
Si Si3 0.494876 0.242325 0.772839
Si Si4 0.500000 0.500000 0.833334
Si Si5 0.500000 0.500000 0.493666
Si Si6 0.198966 0.206619 0.081077
Si Si7 0.000000 0.000000 0.666667
Si Si8 0.287012 0.799011 0.919203
O O1 0.104627 0.137091 0.131050
O O2 0.462365 0.356802 0.301267
O O3 0.469713 0.364480 0.798849
O O4 0.656174 0.310693 0.747649
O O5 0.467449 0.112365 0.810214
O O6 0.357578 0.161184 0.734872
O O7 0.642707 0.544198 0.461021
O O8 0.371060 0.256109 0.086105
O O9 0.138900 0.097823 0.034754
#
# Coordination Sequence:
#
# PCOD8326218 Si02
#       8
#     3   3  12   3   6  12   3  12
#     4  10  22  36  64 100 128 170 224 266 338 396
#     4  10  26  42  64  90 120 174 228 276 318 382
#     4  12  23  40  67  99 137 168 217 282 348 403
#     4  12  26  42  60 116 144 162 216 290 374 390
#     4  11  20  39  68  99 128 174 214 280 332 423
#     4  11  22  42  66  96 133 179 224 281 336 412
#     4  10  26  44  60  96 140 182 232 286 346 406
#     4  11  22  41  67  92 128 172 229 269 330 413
#
# _framework density 21.046067000000001
#
# number of rings (size 3 to 8) (size 9 to 14) (size 15 to 20)
#    0.000    0.889    4.444    2.667    0.000    2.667 
#    4.000    0.000    0.000    0.000    0.000    0.000 
#    0.000    0.000    0.000    0.000    0.000    0.000 
#
# Total GULP energy -669415.905014 kJ/mol
# GULP energy per Si atom -12396.590834 kJ/mol
# Density = 2.099817 g / cm^3
# Si number density = 21.046067 Si / 1000 Ang^3
#
#
#
# Elastic Constant Matrix: (Units=GPa)
#
#
# Indices 1 2 3 4 5 6 
#
# 1 140.9995 53.8987 41.5169 0.0000 0.0000 0.0000
# 2 53.8987 140.9995 41.5169 0.0000 0.0000 0.0000
# 3 41.5169 41.5169 90.6735 0.0000 0.0000 0.0000
# 4 0.0000 0.0000 0.0000 32.8191 0.0000 0.0000
# 5 0.0000 0.0000 0.0000 0.0000 32.8191 0.0000
# 6 0.0000 0.0000 0.0000 0.0000 0.0000 43.5504
#
#
#
# Elastic Compliance Matrix: (Units=1/GPa)
#
#
# Indices 1 2 3 4 5 6 
#
# 1 0.008928 -0.002553 -0.002919 0.000000 0.000000 0.000000
# 2 -0.002553 0.008928 -0.002919 0.000000 0.000000 0.000000
# 3 -0.002919 -0.002919 0.013701 0.000000 0.000000 0.000000
# 4 0.000000 0.000000 0.000000 0.030470 0.000000 0.000000
# 5 0.000000 0.000000 0.000000 0.000000 0.030470 0.000000
# 6 0.000000 0.000000 0.000000 0.000000 0.000000 0.022962
#
#
# Mechanical properties :
#
#
# Convention : Reuss Voigt Hill
#
# Bulk Modulus (GPa) = 67.67987 71.83748 69.75868
# Shear Modulus (GPa) = 36.45247 37.55371 37.00309
#
# Velocity S-wave (km/s) = 4.16628 4.22875 4.19763
# Velocity P-wave (km/s) = 7.44121 7.61910 7.53068
#
# Compressibility (1/GPa) = 0.01477544
#
# Stress axis : x y z
#
# Youngs Moduli (GPa) = 112.01173 112.01173 72.98584
#
# Poissons Ratio (x) = 0.28600 0.21302
# Poissons Ratio (y) = 0.28600 0.21302
# Poissons Ratio (z) = 0.32692 0.32692
#
# Static dielectric constant tensor:
#      x y z
#    x 3.785600 0.000000 0.000000 
#    y 0.000000 3.785600 0.000000 
#    z 0.000000 0.000000 3.947210 
# 
# 
# High freq. dielectric constant tensor:
#      x y z
#    x 1.838050 0.000000 0.000000 
#    y 0.000000 1.838050 0.000000 
#    z 0.000000 0.000000 1.808970 
# 
# From -- ./inp_files/10166.got.cif
#   From: 2010.03.12/outbox.cif.g09.slc.cpg/sg180_6_cif.got.tgz:10166.got - 2010.04.01 11:35:50.
