data_PCOD8326125
_publ_section_title
;
Structure prediction by ZEFSAII (Michael W. Deem and Ramdas Pophale) SiO2 
 PCOD8326125
Probable space group: P 62 2 2
;
_chemical_formula_sum "Si O2"
_cell_formula_units_Z 48
_cell_length_a 10.874525
_cell_length_b 10.874525
_cell_length_c 26.136331
_cell_angle_alpha 90.000000
_cell_angle_beta 90.000000
_cell_angle_gamma 120.000000
_cell_volume 2676.676249
_symmetry_space_group_name_H-M "P 62 2 2"
_symmetry_group_IT_number 180
_symmetry_cell_setting 'hexagonal'
loop_
_space_group_symop_operation_xyz
x,y,z
x-y,x,1/3+z
-y,x-y,2/3+z
-x,-y,z
-x+y,-x,1/3+z
y,-x+y,2/3+z
x-y,-y,-z
-x,-x+y,1/3-z
y,x,2/3-z
-y,-x,2/3-z
-x+y,y,-z
x,x-y,1/3-z
loop_
_atom_site_type_symbol
_atom_site_label
_atom_site_fract_x
_atom_site_fract_y
_atom_site_fract_z
Si Si1 0.987552 0.361032 0.296714
Si Si2 0.445266 0.280899 0.324360
Si Si3 0.705778 0.171865 0.778620
Si Si4 0.422437 0.129615 0.742204
O O1 0.917876 0.350465 0.351778
O O2 0.879729 0.227859 0.260609
O O3 0.000000 0.500000 0.269713
O O4 0.143186 0.379653 0.304693
O O5 0.358903 0.358903 0.333334
O O6 0.613899 0.386102 0.333334
O O7 0.419315 0.243068 0.264797
O O8 0.765835 0.234166 0.833334
O O9 0.581361 0.207118 0.764800
O O10 0.662659 0.006217 0.778891
#
# Coordination Sequence:
#
# PCOD8326125 Si02
#       4
#    12  12  12  12
#     4  10  16  31  56  77 108 133 187 244 275 329
#     4  10  20  33  54  85 109 142 192 244 292 333
#     4  10  19  34  54  78 114 146 180 228 293 353
#     4   9  18  31  52  81 102 144 187 219 286 341
#
# _framework density 17.932689
#
# number of rings (size 3 to 8) (size 9 to 14) (size 15 to 20)
#    0.000    2.250    5.000    1.500    0.000    4.000 
#    0.000   10.000    0.000   15.750    0.000    0.000 
#    0.000    0.000    0.000    0.000    0.000    0.000 
#
# Total GULP energy -594668.918927 kJ/mol
# GULP energy per Si atom -12388.935811 kJ/mol
# Density = 1.789187 g / cm^3
# Si number density = 17.932689 Si / 1000 Ang^3
#
#
#
# Elastic Constant Matrix: (Units=GPa)
#
#
# Indices 1 2 3 4 5 6 
#
# 1 116.3250 56.6019 38.0311 0.0000 0.0000 0.0000
# 2 56.6019 116.3250 38.0311 0.0000 0.0000 0.0000
# 3 38.0311 38.0311 67.6814 0.0000 0.0000 0.0000
# 4 0.0000 0.0000 0.0000 20.2833 0.0000 0.0000
# 5 0.0000 0.0000 0.0000 0.0000 20.2833 0.0000
# 6 0.0000 0.0000 0.0000 0.0000 0.0000 29.8616
#
#
#
# Elastic Compliance Matrix: (Units=1/GPa)
#
#
# Indices 1 2 3 4 5 6 
#
# 1 0.012213 -0.004531 -0.004316 0.000000 0.000000 0.000000
# 2 -0.004531 0.012213 -0.004316 0.000000 0.000000 0.000000
# 3 -0.004316 -0.004316 0.019626 0.000000 0.000000 0.000000
# 4 0.000000 0.000000 0.000000 0.049302 0.000000 0.000000
# 5 0.000000 0.000000 0.000000 0.000000 0.049302 0.000000
# 6 0.000000 0.000000 0.000000 0.000000 0.000000 0.033488
#
#
# Mechanical properties :
#
#
# Convention : Reuss Voigt Hill
#
# Bulk Modulus (GPa) = 56.42230 62.85107 59.63668
# Shear Modulus (GPa) = 23.99491 25.26345 24.62918
#
# Velocity S-wave (km/s) = 3.66191 3.75746 3.70999
# Velocity P-wave (km/s) = 7.02931 7.34501 7.18889
#
# Compressibility (1/GPa) = 0.01772349
#
# Stress axis : x y z
#
# Youngs Moduli (GPa) = 81.88259 81.88259 50.95342
#
# Poissons Ratio (x) = 0.37104 0.21993
# Poissons Ratio (y) = 0.37104 0.21993
# Poissons Ratio (z) = 0.35342 0.35342
#
# Static dielectric constant tensor:
#      x y z
#    x 3.517000 0.000000 0.000000 
#    y 0.000000 3.517000 0.000000 
#    z 0.000000 0.000000 2.983450 
# 
# 
# High freq. dielectric constant tensor:
#      x y z
#    x 1.694830 0.000000 0.000000 
#    y 0.000000 1.694830 0.000000 
#    z 0.000000 0.000000 1.655960 
# 
# From -- ./inp_files/9930.got.cif
#   From: 2010.03.12/outbox.cif.g09.slc.cpg/sg180_5_cif.got.tgz:9930.got - 2010.04.01 11:35:50.
