data_PCOD8326852
_publ_section_title
;
Structure prediction by ZEFSAII (Michael W. Deem and Ramdas Pophale) SiO2 
 PCOD8326852
Probable space group: P -6 M 2
;
_chemical_formula_sum "Si O2"
_cell_formula_units_Z 96
_cell_length_a 17.248287
_cell_length_b 17.248287
_cell_length_c 23.746287
_cell_angle_alpha 90.000000
_cell_angle_beta 90.000000
_cell_angle_gamma 120.000000
_cell_volume 6118.124129
_symmetry_space_group_name_H-M "P -6 M 2"
_symmetry_group_IT_number 187
_symmetry_cell_setting 'hexagonal'
loop_
_space_group_symop_operation_xyz
x,y,z
-x+y,-x,-z
-y,x-y,z
x,y,-z
-x+y,-x,z
-y,x-y,-z
-y,-x,-z
-x+y,y,-z
x,x-y,-z
-x+y,y,z
x,x-y,z
-y,-x,z
loop_
_atom_site_type_symbol
_atom_site_label
_atom_site_fract_x
_atom_site_fract_y
_atom_site_fract_z
Si Si1 0.170734 0.000608 0.224107
Si Si2 0.272046 0.904329 0.236369
Si Si3 0.848888 0.334050 0.280108
Si Si4 0.960635 0.569683 0.169698
Si Si5 0.370650 0.095190 0.937474
Si Si6 0.825109 0.000178 0.092058
Si Si7 0.333269 0.846342 0.435735
Si Si8 0.029835 0.605226 0.336180
O O1 0.065379 0.934621 0.234637
O O2 0.229069 0.965129 0.255194
O O3 0.197079 0.098540 0.247283
O O4 0.191971 0.003866 0.158377
O O5 0.195292 0.804709 0.218899
O O6 0.324150 0.901743 0.291218
O O7 0.337934 0.948498 0.183316
O O8 0.823077 0.411539 0.286790
O O9 0.761468 0.238533 0.291504
O O10 0.886199 0.335998 0.217402
O O11 0.926241 0.347963 0.325328
O O12 0.986582 0.493291 0.169515
O O13 0.923475 0.572894 0.108449
O O14 0.379673 0.189837 0.922131
O O15 0.266323 0.019102 0.937561
O O16 0.409108 0.096899 0.000000
O O17 0.925638 0.074363 0.074508
O O18 0.807608 0.903804 0.072092
O O19 0.330503 0.874009 0.500000
O O20 0.410212 0.820423 0.427133
O O21 0.239350 0.760651 0.418141
O O22 0.354048 0.933175 0.398090
O O23 0.035625 0.517813 0.324832
#
# Coordination Sequence:
#
# PCOD8326852 Si02
#       8
#    12  12  12  12  12  12  12  12
#     4   9  16  25  40  62  88 116 142 169 201 241
#     4  10  18  28  44  64  88 117 145 176 214 258
#     4   9  17  29  47  68  89 113 145 185 227 271
#     4  10  20  33  48  65  84 109 142 182 226 271
#     4  10  20  32  46  64  86 111 140 175 215 263
#     4   9  16  27  42  63  89 116 142 166 197 240
#     4   9  16  27  45  68  94 124 157 190 222 260
#     4   9  18  30  43  65  94 122 150 183 226 269
#
# _framework density 15.691084
#
# number of rings (size 3 to 8) (size 9 to 14) (size 15 to 20)
#    0.000    2.625    1.250    2.375    0.000    4.000 
#    0.000    0.000    0.000    4.125    0.000    0.000 
#    0.000    1.000    0.000    0.000    0.000    3.375 
#
# Total GULP energy -1189931.226970 kJ/mol
# GULP energy per Si atom -12395.116948 kJ/mol
# Density = 1.565537 g / cm^3
# Si number density = 15.691084 Si / 1000 Ang^3
#
#
#
# Elastic Constant Matrix: (Units=GPa)
#
#
# Indices 1 2 3 4 5 6 
#
# 1 80.3795 44.6300 39.2989 0.0000 0.0000 0.0000
# 2 44.6300 80.3795 39.2989 0.0000 0.0000 0.0000
# 3 39.2989 39.2989 80.6674 0.0000 0.0000 0.0000
# 4 0.0000 0.0000 0.0000 18.9269 0.0000 0.0000
# 5 0.0000 0.0000 0.0000 0.0000 18.9269 0.0000
# 6 0.0000 0.0000 0.0000 0.0000 0.0000 17.8748
#
#
#
# Elastic Compliance Matrix: (Units=1/GPa)
#
#
# Indices 1 2 3 4 5 6 
#
# 1 0.019752 -0.008220 -0.005618 0.000000 0.000000 0.000000
# 2 -0.008220 0.019752 -0.005618 0.000000 0.000000 0.000000
# 3 -0.005618 -0.005618 0.017870 0.000000 0.000000 0.000000
# 4 0.000000 0.000000 0.000000 0.052835 0.000000 0.000000
# 5 0.000000 0.000000 0.000000 0.000000 0.052835 0.000000
# 6 0.000000 0.000000 0.000000 0.000000 0.000000 0.055945
#
#
# Mechanical properties :
#
#
# Convention : Reuss Voigt Hill
#
# Bulk Modulus (GPa) = 54.16534 54.20910 54.18722
# Shear Modulus (GPa) = 18.93547 19.02564 18.98055
#
# Velocity S-wave (km/s) = 3.47762 3.48589 3.48176
# Velocity P-wave (km/s) = 7.12179 7.12914 7.12547
#
# Compressibility (1/GPa) = 0.01846199
#
# Stress axis : x y z
#
# Youngs Moduli (GPa) = 50.62789 50.62789 55.95882
#
# Poissons Ratio (x) = 0.41618 0.31437
# Poissons Ratio (y) = 0.41618 0.31437
# Poissons Ratio (z) = 0.28442 0.28442
#
# Static dielectric constant tensor:
#      x y z
#    x 2.994470 0.000000 0.000000 
#    y 0.000000 2.994470 0.000000 
#    z 0.000000 0.000000 2.903620 
# 
# 
# High freq. dielectric constant tensor:
#      x y z
#    x 1.596370 0.000000 0.000000 
#    y 0.000000 1.596370 0.000000 
#    z 0.000000 0.000000 1.576570 
# 
# From -- ./inp_files/4063.got.cif
#   From: 2010.03.12/outbox.cif.g09.slc.cpg/sg187_3_cif.got.tgz:4063.got - 2010.04.01 11:58:23.
