data_PCOD8326350
_publ_section_title
;
Structure prediction by ZEFSAII (Michael W. Deem and Ramdas Pophale) SiO2 
 PCOD8326350
Probable space group: P 64 2 2
;
_chemical_formula_sum "Si O2"
_cell_formula_units_Z 84
_cell_length_a 20.001527
_cell_length_b 20.001527
_cell_length_c 11.981481
_cell_angle_alpha 90.000000
_cell_angle_beta 90.000000
_cell_angle_gamma 120.000000
_cell_volume 4151.140575
_symmetry_space_group_name_H-M "P 64 2 2"
_symmetry_group_IT_number 181
_symmetry_cell_setting 'hexagonal'
loop_
_space_group_symop_operation_xyz
x,y,z
x-y,x,2/3+z
-y,x-y,1/3+z
-x,-y,z
-x+y,-x,2/3+z
y,-x+y,1/3+z
x-y,-y,-z
-x,-x+y,2/3-z
y,x,1/3-z
-y,-x,1/3-z
-x+y,y,-z
x,x-y,2/3-z
loop_
_atom_site_type_symbol
_atom_site_label
_atom_site_fract_x
_atom_site_fract_y
_atom_site_fract_z
Si Si1 0.280685 0.575482 0.767365
Si Si2 0.578519 0.384985 0.893459
Si Si3 0.094615 0.439834 0.058647
Si Si4 0.770250 0.097548 0.896278
Si Si5 0.845937 0.584863 0.834649
Si Si6 0.582378 0.658977 0.951191
Si Si7 0.216412 0.284941 0.522772
O O1 0.252136 0.626068 0.833334
O O2 0.260279 0.580421 0.639165
O O3 0.373008 0.608911 0.782425
O O4 0.239512 0.490127 0.822742
O O5 0.616360 0.468785 0.950271
O O6 0.489088 0.356527 0.870533
O O7 0.094796 0.399623 0.175250
O O8 0.006148 0.417514 0.044949
O O9 0.120526 0.403523 0.958797
O O10 0.842825 0.179760 0.859475
O O11 0.779173 0.023403 0.859262
O O12 0.760583 0.094284 0.029489
O O13 0.897098 0.569645 0.746481
O O14 0.656586 0.736171 0.908858
O O15 0.123979 0.247957 0.500000
#
# Coordination Sequence:
#
# PCOD8326350 Si02
#       7
#    12  12  12  12  12  12  12
#     4  11  22  37  54  77 108 153 199 244 300 352
#     4  11  23  39  55  78 114 148 203 252 304 361
#     4  11  21  38  60  83 116 149 191 246 314 363
#     4  10  21  35  63  83 110 161 185 238 303 348
#     4  11  20  37  60  84 117 145 187 249 302 354
#     4  10  23  37  59  86 109 154 195 251 298 355
#     4  10  20  40  58  84 118 149 199 234 288 358
#
# _framework density 20.235402000000001
#
# number of rings (size 3 to 8) (size 9 to 14) (size 15 to 20)
#    0.000    1.429    4.286    1.714    0.000    0.571 
#    2.571    2.143    0.000    3.429    0.000    0.000 
#    0.000    2.286    2.857    0.571    0.000    0.000 
#
# Total GULP energy -1040917.067163 kJ/mol
# GULP energy per Si atom -12391.869847 kJ/mol
# Density = 2.018935 g / cm^3
# Si number density = 20.235402 Si / 1000 Ang^3
#
#
#
# Elastic Constant Matrix: (Units=GPa)
#
#
# Indices 1 2 3 4 5 6 
#
# 1 96.7784 48.6666 22.2079 0.0000 0.0000 0.0000
# 2 48.6666 96.7784 22.2079 0.0000 0.0000 0.0000
# 3 22.2079 22.2079 56.2525 0.0000 0.0000 0.0000
# 4 0.0000 0.0000 0.0000 24.3677 0.0000 0.0000
# 5 0.0000 0.0000 0.0000 0.0000 24.3677 0.0000
# 6 0.0000 0.0000 0.0000 0.0000 0.0000 24.0559
#
#
#
# Elastic Compliance Matrix: (Units=1/GPa)
#
#
# Indices 1 2 3 4 5 6 
#
# 1 0.014301 -0.006483 -0.003086 0.000000 0.000000 0.000000
# 2 -0.006483 0.014301 -0.003086 0.000000 0.000000 0.000000
# 3 -0.003086 -0.003086 0.020214 0.000000 0.000000 0.000000
# 4 0.000000 0.000000 0.000000 0.041038 0.000000 0.000000
# 5 0.000000 0.000000 0.000000 0.000000 0.041038 0.000000
# 6 0.000000 0.000000 0.000000 0.000000 0.000000 0.041570
#
#
# Mechanical properties :
#
#
# Convention : Reuss Voigt Hill
#
# Bulk Modulus (GPa) = 42.54571 48.44158 45.49364
# Shear Modulus (GPa) = 24.31789 25.00674 24.66231
#
# Velocity S-wave (km/s) = 3.47039 3.51920 3.49488
# Velocity P-wave (km/s) = 6.09337 6.36427 6.23029
#
# Compressibility (1/GPa) = 0.02350413
#
# Stress axis : x y z
#
# Youngs Moduli (GPa) = 69.92297 69.92297 49.47064
#
# Poissons Ratio (x) = 0.45334 0.15269
# Poissons Ratio (y) = 0.45334 0.15269
# Poissons Ratio (z) = 0.21581 0.21581
#
# Static dielectric constant tensor:
#      x y z
#    x 3.772800 0.000000 0.000000 
#    y 0.000000 3.772800 0.000000 
#    z 0.000000 0.000000 3.559990 
# 
# 
# High freq. dielectric constant tensor:
#      x y z
#    x 1.775920 0.000000 0.000000 
#    y 0.000000 1.775920 0.000000 
#    z 0.000000 0.000000 1.789810 
# 
# From -- ./inp_files/5086.got.cif
#   From: 2010.03.12/outbox.cif.g09.slc.cpg/sg181_3_cif.got.tgz:5086.got - 2010.04.01 11:42:41.
