data_PCOD8326564
_publ_section_title
;
Structure prediction by ZEFSAII (Michael W. Deem and Ramdas Pophale) SiO2 
 PCOD8326564
Probable space group: P 6 C C
;
_chemical_formula_sum "Si O2"
_cell_formula_units_Z 60
_cell_length_a 28.891823
_cell_length_b 28.891823
_cell_length_c 5.146273
_cell_angle_alpha 90.000000
_cell_angle_beta 90.000000
_cell_angle_gamma 120.000000
_cell_volume 3720.260438
_symmetry_space_group_name_H-M "P 6 C C"
_symmetry_group_IT_number 184
_symmetry_cell_setting 'hexagonal'
loop_
_space_group_symop_operation_xyz
x,y,z
x-y,x,z
-y,x-y,z
-x,-y,z
-x+y,-x,z
y,-x+y,z
-x+y,y,1/2+z
x,x-y,1/2+z
-y,-x,1/2+z
y,x,1/2+z
x-y,-y,1/2+z
-x,-x+y,1/2+z
loop_
_atom_site_type_symbol
_atom_site_label
_atom_site_fract_x
_atom_site_fract_y
_atom_site_fract_z
Si Si1 0.726649 0.512185 0.283250
Si Si2 0.457038 0.601909 0.735001
Si Si3 0.211083 0.363187 0.275869
Si Si4 0.438865 0.033416 0.297714
Si Si5 0.034134 0.702489 0.276015
O O1 0.747019 0.496476 0.537788
O O2 0.663464 0.477967 0.283670
O O3 0.744767 0.574486 0.281088
O O4 0.432006 0.587405 0.449044
O O5 0.504442 0.589019 0.753701
O O6 0.170193 0.347466 0.512660
O O7 0.240952 0.329159 0.294579
O O8 0.393279 0.049493 0.279445
O O9 0.439565 0.010400 0.580339
O O10 0.995846 0.696796 0.512507
#
# Coordination Sequence:
#
# PCOD8326564 Si02
#       5
#    12  12  12  12  12
#     4  10  21  38  57  73  94 117 149 196 248 287
#     4  12  24  37  56  78  99 123 161 193 233 298
#     4  10  19  32  53  76  96 125 170 209 238 280
#     4  10  21  35  50  71 105 137 160 186 228 291
#     4  10  19  32  50  72 105 137 161 197 252 298
#
# _framework density 16.127901999999999
#
# number of rings (size 3 to 8) (size 9 to 14) (size 15 to 20)
#    0.000    1.600    2.000    3.600    0.000    2.400 
#    0.000    0.000    0.000    8.000    0.000    0.000 
#    0.000    0.000    0.000    0.000    0.000    0.000 
#
# Total GULP energy -744322.770212 kJ/mol
# GULP energy per Si atom -12405.379504 kJ/mol
# Density = 1.609119 g / cm^3
# Si number density = 16.127902 Si / 1000 Ang^3
#
#
#
# Elastic Constant Matrix: (Units=GPa)
#
#
# Indices 1 2 3 4 5 6 
#
# 1 68.2747 24.9916 12.9285 0.0000 0.0000 0.0000
# 2 24.9916 68.2747 12.9285 0.0000 0.0000 0.0000
# 3 12.9285 12.9285 88.4304 0.0000 0.0000 0.0000
# 4 0.0000 0.0000 0.0000 2.2458 0.0000 0.0000
# 5 0.0000 0.0000 0.0000 0.0000 2.2458 0.0000
# 6 0.0000 0.0000 0.0000 0.0000 0.0000 21.6416
#
#
#
# Elastic Compliance Matrix: (Units=1/GPa)
#
#
# Indices 1 2 3 4 5 6 
#
# 1 0.017139 -0.005964 -0.001634 0.000000 0.000000 0.000000
# 2 -0.005964 0.017139 -0.001634 0.000000 0.000000 0.000000
# 3 -0.001634 -0.001634 0.011786 0.000000 0.000000 0.000000
# 4 0.000000 0.000000 0.000000 0.445271 0.000000 0.000000
# 5 0.000000 0.000000 0.000000 0.000000 0.445271 0.000000
# 6 0.000000 0.000000 0.000000 0.000000 0.000000 0.046207
#
#
# Mechanical properties :
#
#
# Convention : Reuss Voigt Hill
#
# Bulk Modulus (GPa) = 36.23084 36.29747 36.26415
# Shear Modulus (GPa) = 4.94815 16.83539 10.89177
#
# Velocity S-wave (km/s) = 1.75349 3.23440 2.60154
# Velocity P-wave (km/s) = 5.15879 6.04180 5.61767
#
# Compressibility (1/GPa) = 0.02760080
#
# Stress axis : x y z
#
# Youngs Moduli (GPa) = 58.34542 58.34542 84.84613
#
# Poissons Ratio (x) = 0.34799 0.13862
# Poissons Ratio (y) = 0.34799 0.13862
# Poissons Ratio (z) = 0.09532 0.09532
#
# Static dielectric constant tensor:
#      x y z
#    x 2.863720 0.000000 0.000000 
#    y 0.000000 2.863720 0.000000 
#    z 0.000000 0.000000 3.308780 
# 
# 
# High freq. dielectric constant tensor:
#      x y z
#    x 1.598200 0.000000 0.000000 
#    y 0.000000 1.598200 0.000000 
#    z 0.000000 0.000000 1.645230 
# 
# From -- ./inp_files/31.got.cif
#   From: 2010.03.12/outbox.cif.g09.slc.cpg/sg184_cif.got.tgz:31.got - 2010.04.01 11:54:36.
