data_PCOD8326371
_publ_section_title
;
Structure prediction by ZEFSAII (Michael W. Deem and Ramdas Pophale) SiO2 
 PCOD8326371
Probable space group: P 64 2 2
;
_chemical_formula_sum "Si O2"
_cell_formula_units_Z 69
_cell_length_a 15.932653
_cell_length_b 15.932653
_cell_length_c 17.342858
_cell_angle_alpha 90.000000
_cell_angle_beta 90.000000
_cell_angle_gamma 120.000000
_cell_volume 3812.654883
_symmetry_space_group_name_H-M "P 64 2 2"
_symmetry_group_IT_number 181
_symmetry_cell_setting 'hexagonal'
loop_
_space_group_symop_operation_xyz
x,y,z
x-y,x,2/3+z
-y,x-y,1/3+z
-x,-y,z
-x+y,-x,2/3+z
y,-x+y,1/3+z
x-y,-y,-z
-x,-x+y,2/3-z
y,x,1/3-z
-y,-x,1/3-z
-x+y,y,-z
x,x-y,2/3-z
loop_
_atom_site_type_symbol
_atom_site_label
_atom_site_fract_x
_atom_site_fract_y
_atom_site_fract_z
Si Si1 0.622238 0.491634 0.460015
Si Si2 0.333519 0.928224 0.785417
Si Si3 0.000000 0.000000 0.333334
Si Si4 0.977493 0.814905 0.745032
Si Si5 0.092943 0.332029 0.280098
Si Si6 0.162489 0.324978 0.000000
Si Si7 0.519774 0.213842 0.956926
O O1 0.518898 0.395749 0.466373
O O2 0.626277 0.588346 0.425730
O O3 0.658063 0.511657 0.548182
O O4 0.683043 0.464998 0.401900
O O5 0.282771 0.938763 0.861749
O O6 0.250269 0.860610 0.724656
O O7 0.064949 0.090128 0.279448
O O8 0.876359 0.721900 0.724212
O O9 0.000000 0.823562 0.833334
O O10 0.059858 0.801347 0.705820
O O11 0.162994 0.436337 0.314309
O O12 0.000000 0.271332 0.333334
O O13 0.615782 0.231564 0.000000
#
# Coordination Sequence:
#
# PCOD8326371 Si02
#       7
#    12  12   3  12  12   6  12
#     4  10  23  39  61  90 125 154 204 260 313 374
#     4  11  22  41  62  91 120 164 203 253 315 367
#     4  10  22  36  56  82 114 168 198 248 292 348
#     4  11  22  39  56  85 122 159 208 244 294 356
#     4  12  22  38  64  93 122 159 204 259 310 361
#     4  11  24  39  62  84 124 168 203 246 297 374
#     4  11  22  38  61  93 123 158 199 257 317 375
#
# _framework density 18.097626000000002
#
# number of rings (size 3 to 8) (size 9 to 14) (size 15 to 20)
#    0.000    1.043    6.087    1.304    1.217    0.348 
#    0.000    0.000    0.000    0.000    0.000    0.000 
#    0.000    0.000    0.000    0.000    0.000    0.000 
#
# Total GULP energy -855485.745348 kJ/mol
# GULP energy per Si atom -12398.344135 kJ/mol
# Density = 1.805643 g / cm^3
# Si number density = 18.097626 Si / 1000 Ang^3
#
#
#
# Elastic Constant Matrix: (Units=GPa)
#
#
# Indices 1 2 3 4 5 6 
#
# 1 105.1721 53.0337 36.6336 0.0000 0.0000 0.0000
# 2 53.0337 105.1721 36.6336 0.0000 0.0000 0.0000
# 3 36.6336 36.6336 94.1854 0.0000 0.0000 0.0000
# 4 0.0000 0.0000 0.0000 31.9092 0.0000 0.0000
# 5 0.0000 0.0000 0.0000 0.0000 31.9092 0.0000
# 6 0.0000 0.0000 0.0000 0.0000 0.0000 26.0692
#
#
#
# Elastic Compliance Matrix: (Units=1/GPa)
#
#
# Indices 1 2 3 4 5 6 
#
# 1 0.013445 -0.005735 -0.002999 0.000000 0.000000 0.000000
# 2 -0.005735 0.013445 -0.002999 0.000000 0.000000 0.000000
# 3 -0.002999 -0.002999 0.012950 0.000000 0.000000 0.000000
# 4 0.000000 0.000000 0.000000 0.031339 0.000000 0.000000
# 5 0.000000 0.000000 0.000000 0.000000 0.031339 0.000000
# 6 0.000000 0.000000 0.000000 0.000000 0.000000 0.038359
#
#
# Mechanical properties :
#
#
# Convention : Reuss Voigt Hill
#
# Bulk Modulus (GPa) = 61.07027 61.90346 61.48687
# Shear Modulus (GPa) = 29.44646 29.85942 29.65294
#
# Velocity S-wave (km/s) = 4.03810 4.06631 4.05223
# Velocity P-wave (km/s) = 7.45384 7.50507 7.47950
#
# Compressibility (1/GPa) = 0.01637458
#
# Stress axis : x y z
#
# Youngs Moduli (GPa) = 74.37894 74.37894 77.21991
#
# Poissons Ratio (x) = 0.42657 0.23156
# Poissons Ratio (y) = 0.42657 0.23156
# Poissons Ratio (z) = 0.22304 0.22304
#
# Static dielectric constant tensor:
#      x y z
#    x 3.366790 0.000000 0.000000 
#    y 0.000000 3.366790 0.000000 
#    z 0.000000 0.000000 3.371100 
# 
# 
# High freq. dielectric constant tensor:
#      x y z
#    x 1.710360 0.000000 0.000000 
#    y 0.000000 1.710360 0.000000 
#    z 0.000000 0.000000 1.703450 
# 
# From -- ./inp_files/7832.got.cif
#   From: 2010.03.12/outbox.cif.g09.slc.cpg/sg181_4_cif.got.tgz:7832.got - 2010.04.01 11:42:41.
