data_PCOD8326733
_publ_section_title
;
Structure prediction by ZEFSAII (Michael W. Deem and Ramdas Pophale) SiO2 
 PCOD8326733
Probable space group: P 63 M C
;
_chemical_formula_sum "Si O2"
_cell_formula_units_Z 72
_cell_length_a 16.882917
_cell_length_b 16.882917
_cell_length_c 18.384955
_cell_angle_alpha 90.000000
_cell_angle_beta 90.000000
_cell_angle_gamma 120.000000
_cell_volume 4538.247464
_symmetry_space_group_name_H-M "P 63 M C"
_symmetry_group_IT_number 186
_symmetry_cell_setting 'hexagonal'
loop_
_space_group_symop_operation_xyz
x,y,z
x-y,x,1/2+z
-y,x-y,z
-x,-y,1/2+z
-x+y,-x,z
y,-x+y,1/2+z
-x+y,y,z
x,x-y,z
-y,-x,z
y,x,1/2+z
x-y,-y,1/2+z
-x,-x+y,1/2+z
loop_
_atom_site_type_symbol
_atom_site_label
_atom_site_fract_x
_atom_site_fract_y
_atom_site_fract_z
Si Si1 0.619308 0.562823 0.014530
Si Si2 0.930412 0.249201 0.275898
Si Si3 0.666174 0.516325 0.168632
Si Si4 0.758107 0.066335 0.523526
Si Si5 0.999561 0.175375 0.154622
Si Si6 0.750712 0.066161 0.905058
O O1 0.522089 0.477912 0.993996
O O2 0.662613 0.545693 0.086148
O O3 0.608147 0.652814 0.026827
O O4 0.689309 0.586382 0.946286
O O5 0.833235 0.166766 0.306487
O O6 0.912616 0.315728 0.224249
O O7 0.980421 0.205718 0.231480
O O8 0.001805 0.309655 0.338166
O O9 0.745622 0.491244 0.173237
O O10 0.571345 0.428656 0.191687
O O11 0.827363 0.172638 0.504908
O O12 0.781638 0.041655 0.600788
O O13 0.764609 0.000259 0.461868
O O14 0.069416 0.138831 0.168374
O O15 0.906021 0.093980 0.121078
O O16 0.848066 0.151935 0.881219
#
# Coordination Sequence:
#
# PCOD8326733 Si02
#       6
#    12  12  12  12  12  12
#     4   9  19  33  53  74  97 126 161 206 252 296
#     4  10  19  31  47  68 100 134 164 195 236 287
#     4  10  19  33  52  75  98 124 159 206 256 300
#     4   9  18  31  51  71  96 131 165 203 246 288
#     4  10  18  29  45  67  95 129 167 204 237 276
#     4  10  19  31  50  73 100 132 164 198 237 287
#
# _framework density 15.865156000000001
#
# number of rings (size 3 to 8) (size 9 to 14) (size 15 to 20)
#    1.000    1.333    1.667    2.333    0.000    0.667 
#    0.000    0.000    0.000    5.333    0.000    0.000 
#    0.000    1.333    0.000    0.000    0.000    0.000 
#
# Total GULP energy -891953.604439 kJ/mol
# GULP energy per Si atom -12388.244506 kJ/mol
# Density = 1.582905 g / cm^3
# Si number density = 15.865156 Si / 1000 Ang^3
#
#
#
# Elastic Constant Matrix: (Units=GPa)
#
#
# Indices 1 2 3 4 5 6 
#
# 1 79.0536 29.6295 32.6495 0.0000 0.0000 0.0000
# 2 29.6295 79.0536 32.6495 0.0000 0.0000 0.0000
# 3 32.6495 32.6495 81.4776 0.0000 0.0000 0.0000
# 4 0.0000 0.0000 0.0000 21.3082 0.0000 0.0000
# 5 0.0000 0.0000 0.0000 0.0000 21.3082 0.0000
# 6 0.0000 0.0000 0.0000 0.0000 0.0000 24.7120
#
#
#
# Elastic Compliance Matrix: (Units=1/GPa)
#
#
# Indices 1 2 3 4 5 6 
#
# 1 0.016176 -0.004057 -0.004856 0.000000 0.000000 0.000000
# 2 -0.004057 0.016176 -0.004856 0.000000 0.000000 0.000000
# 3 -0.004856 -0.004856 0.016165 0.000000 0.000000 0.000000
# 4 0.000000 0.000000 0.000000 0.046930 0.000000 0.000000
# 5 0.000000 0.000000 0.000000 0.000000 0.046930 0.000000
# 6 0.000000 0.000000 0.000000 0.000000 0.000000 0.040466
#
#
# Mechanical properties :
#
#
# Convention : Reuss Voigt Hill
#
# Bulk Modulus (GPa) = 47.66904 47.71573 47.69239
# Shear Modulus (GPa) = 23.00168 23.10945 23.05556
#
# Velocity S-wave (km/s) = 3.81179 3.82070 3.81625
# Velocity P-wave (km/s) = 7.03453 7.04307 7.03880
#
# Compressibility (1/GPa) = 0.02097798
#
# Stress axis : x y z
#
# Youngs Moduli (GPa) = 61.82033 61.82033 61.86118
#
# Poissons Ratio (x) = 0.25081 0.30041
# Poissons Ratio (y) = 0.25081 0.30041
# Poissons Ratio (z) = 0.30021 0.30021
#
# Static dielectric constant tensor:
#      x y z
#    x 2.953800 0.000000 0.000000 
#    y 0.000000 2.953800 0.000000 
#    z 0.000000 0.000000 2.923230 
# 
# 
# High freq. dielectric constant tensor:
#      x y z
#    x 1.597120 0.000000 0.000000 
#    y 0.000000 1.597120 0.000000 
#    z 0.000000 0.000000 1.607660 
# 
# From -- ./inp_files/3009.got.cif
#   From: 2010.03.12/outbox.cif.g09.slc.cpg/sg186_2_cif.got.tgz:3009.got - 2010.04.01 11:56:34.
