data_PCOD8326017
_publ_section_title
;
Structure prediction by ZEFSAII (Michael W. Deem and Ramdas Pophale) SiO2 
 PCOD8326017
Probable space group: P 65 2 2
;
_chemical_formula_sum "Si O2"
_cell_formula_units_Z 54
_cell_length_a 17.300798
_cell_length_b 17.300798
_cell_length_c 13.570617
_cell_angle_alpha 90.000000
_cell_angle_beta 90.000000
_cell_angle_gamma 120.000000
_cell_volume 3517.729949
_symmetry_space_group_name_H-M "P 65 2 2"
_symmetry_group_IT_number 179
_symmetry_cell_setting 'hexagonal'
loop_
_space_group_symop_operation_xyz
x,y,z
x-y,x,5/6+z
-y,x-y,2/3+z
-x,-y,1/2+z
-x+y,-x,1/3+z
y,-x+y,1/6+z
x-y,-y,-z
-x,-x+y,1/3-z
y,x,2/3-z
-y,-x,1/6-z
-x+y,y,1/2-z
x,x-y,5/6-z
loop_
_atom_site_type_symbol
_atom_site_label
_atom_site_fract_x
_atom_site_fract_y
_atom_site_fract_z
Si Si1 0.000000 0.575460 0.166667
Si Si2 0.564225 0.043149 0.150625
Si Si3 0.143651 0.657885 0.814387
Si Si4 0.304277 0.762635 0.686494
Si Si5 0.675231 0.516639 0.201757
O O1 0.063372 0.554104 0.235562
O O2 0.069916 0.657800 0.097665
O O3 0.504484 0.008967 0.250000
O O4 0.656929 0.132443 0.167989
O O5 0.577215 0.960399 0.116172
O O6 0.211534 0.734801 0.741412
O O7 0.167717 0.579904 0.802114
O O8 0.154251 0.701040 0.922261
O O9 0.288932 0.711069 0.583334
O O10 0.372587 0.745173 0.750000
O O11 0.754520 0.509040 0.250000
#
# Coordination Sequence:
#
# PCOD8326017 Si02
#       5
#     6  12  12  12  12
#     4  10  18  34  48  60  92 122 152 196 246 286
#     4  10  19  34  46  62  89 124 154 195 246 291
#     4  10  20  33  46  65  92 117 157 200 239 277
#     4  11  24  32  48  69  90 121 163 209 243 284
#     4  10  20  29  47  66  86 119 155 198 239 277
#
# _framework density 15.350808000000001
#
# number of rings (size 3 to 8) (size 9 to 14) (size 15 to 20)
#    0.000    1.778    4.444    3.333   12.444    0.000 
#    0.000    0.000    0.000    0.000    0.000    0.000 
#    0.000    0.000    0.000    0.000    0.000   33.333 
#
# Total GULP energy -669177.843094 kJ/mol
# GULP energy per Si atom -12392.182280 kJ/mol
# Density = 1.531587 g / cm^3
# Si number density = 15.350808 Si / 1000 Ang^3
#
#
#
# Elastic Constant Matrix: (Units=GPa)
#
#
# Indices 1 2 3 4 5 6 
#
# 1 75.3168 46.0598 36.5599 0.0000 0.0000 0.0000
# 2 46.0598 75.3168 36.5599 0.0000 0.0000 0.0000
# 3 36.5599 36.5599 108.0110 0.0000 0.0000 0.0000
# 4 0.0000 0.0000 0.0000 25.1314 0.0000 0.0000
# 5 0.0000 0.0000 0.0000 0.0000 25.1314 0.0000
# 6 0.0000 0.0000 0.0000 0.0000 0.0000 14.6285
#
#
#
# Elastic Compliance Matrix: (Units=1/GPa)
#
#
# Indices 1 2 3 4 5 6 
#
# 1 0.022264 -0.011915 -0.003503 0.000000 0.000000 0.000000
# 2 -0.011915 0.022264 -0.003503 0.000000 0.000000 0.000000
# 3 -0.003503 -0.003503 0.011630 0.000000 0.000000 0.000000
# 4 0.000000 0.000000 0.000000 0.039791 0.000000 0.000000
# 5 0.000000 0.000000 0.000000 0.000000 0.039791 0.000000
# 6 0.000000 0.000000 0.000000 0.000000 0.000000 0.068360
#
#
# Mechanical properties :
#
#
# Convention : Reuss Voigt Hill
#
# Bulk Modulus (GPa) = 54.59721 55.22260 54.90990
# Shear Modulus (GPa) = 20.15739 22.27594 21.21666
#
# Velocity S-wave (km/s) = 3.62762 3.81350 3.72172
# Velocity P-wave (km/s) = 7.29313 7.44595 7.36994
#
# Compressibility (1/GPa) = 0.01831596
#
# Stress axis : x y z
#
# Youngs Moduli (GPa) = 44.91460 44.91460 85.98655
#
# Poissons Ratio (x) = 0.53517 0.30121
# Poissons Ratio (y) = 0.53517 0.30121
# Poissons Ratio (z) = 0.15734 0.15734
#
# Static dielectric constant tensor:
#      x y z
#    x 2.747510 0.000000 0.000000 
#    y 0.000000 2.747510 0.000000 
#    z 0.000000 0.000000 3.527730 
# 
# 
# High freq. dielectric constant tensor:
#      x y z
#    x 1.548780 0.000000 0.000000 
#    y 0.000000 1.548780 0.000000 
#    z 0.000000 0.000000 1.623840 
# 
# From -- ./inp_files/4530.got.cif
#   From: 2010.03.12/outbox.cif.g09.slc.cpg/sg179_3_cif.got.tgz:4530.got - 2010.04.02 07:08:42.
