data_PCOD8326164
_publ_section_title
;
Structure prediction by ZEFSAII (Michael W. Deem and Ramdas Pophale) SiO2 
 PCOD8326164
Probable space group: P 62 2 2
;
_chemical_formula_sum "Si O2"
_cell_formula_units_Z 66
_cell_length_a 19.636476
_cell_length_b 19.636476
_cell_length_c 9.601875
_cell_angle_alpha 90.000000
_cell_angle_beta 90.000000
_cell_angle_gamma 120.000000
_cell_volume 3206.371073
_symmetry_space_group_name_H-M "P 62 2 2"
_symmetry_group_IT_number 180
_symmetry_cell_setting 'hexagonal'
loop_
_space_group_symop_operation_xyz
x,y,z
x-y,x,1/3+z
-y,x-y,2/3+z
-x,-y,z
-x+y,-x,1/3+z
y,-x+y,2/3+z
x-y,-y,-z
-x,-x+y,1/3-z
y,x,2/3-z
-y,-x,2/3-z
-x+y,y,-z
x,x-y,1/3-z
loop_
_atom_site_type_symbol
_atom_site_label
_atom_site_fract_x
_atom_site_fract_y
_atom_site_fract_z
Si Si1 0.873436 0.126565 0.333334
Si Si2 0.352658 0.793011 0.364630
Si Si3 0.520277 0.084848 0.158480
Si Si4 0.280945 0.387204 0.908283
Si Si5 0.636514 0.954312 0.272533
Si Si6 0.027090 0.816847 0.823684
O O1 0.880753 0.193214 0.225798
O O2 0.953363 0.150490 0.415365
O O3 0.300871 0.699130 0.333334
O O4 0.404559 0.809117 0.500000
O O5 0.411053 0.841860 0.239872
O O6 0.287029 0.817663 0.391805
O O7 0.437581 0.084016 0.167734
O O8 0.500000 0.000000 0.221546
O O9 0.546887 0.093773 0.000000
O O10 0.318565 0.395862 0.758582
O O11 0.323109 0.371449 0.040265
O O12 0.700534 0.933836 0.212933
O O13 0.091345 0.908656 0.833334
O O14 0.000000 0.791822 0.666667
#
# Coordination Sequence:
#
# PCOD8326164 Si02
#       6
#     6  12  12  12  12  12
#     4  10  22  42  71  98 138 168 226 278 331 414
#     4  12  25  43  67  95 136 186 235 282 351 425
#     4  11  24  40  66 102 138 175 231 292 349 414
#     4  10  19  37  68  97 125 169 223 280 335 394
#     4  10  21  38  64 101 127 167 222 286 334 401
#     4  11  25  44  69 101 138 177 223 280 346 411
#
# _framework density 20.584016999999999
#
# number of rings (size 3 to 8) (size 9 to 14) (size 15 to 20)
#    0.000    1.273    4.545    1.091    2.545    3.273 
#    3.273    2.273    0.000    0.000    0.000    0.000 
#    0.000    0.000    0.000    0.000    0.000    0.000 
#
# Total GULP energy -818119.487383 kJ/mol
# GULP energy per Si atom -12395.749809 kJ/mol
# Density = 2.053717 g / cm^3
# Si number density = 20.584017 Si / 1000 Ang^3
#
#
#
# Elastic Constant Matrix: (Units=GPa)
#
#
# Indices 1 2 3 4 5 6 
#
# 1 125.6095 57.1409 47.1301 0.0000 0.0000 0.0000
# 2 57.1409 125.6095 47.1301 0.0000 0.0000 0.0000
# 3 47.1301 47.1301 109.8568 0.0000 0.0000 0.0000
# 4 0.0000 0.0000 0.0000 28.8023 0.0000 0.0000
# 5 0.0000 0.0000 0.0000 0.0000 28.8023 0.0000
# 6 0.0000 0.0000 0.0000 0.0000 0.0000 34.2343
#
#
#
# Elastic Compliance Matrix: (Units=1/GPa)
#
#
# Indices 1 2 3 4 5 6 
#
# 1 0.010816 -0.003789 -0.003015 0.000000 0.000000 0.000000
# 2 -0.003789 0.010816 -0.003015 0.000000 0.000000 0.000000
# 3 -0.003015 -0.003015 0.011689 0.000000 0.000000 0.000000
# 4 0.000000 0.000000 0.000000 0.034719 0.000000 0.000000
# 5 0.000000 0.000000 0.000000 0.000000 0.034719 0.000000
# 6 0.000000 0.000000 0.000000 0.000000 0.000000 0.029211
#
#
# Mechanical properties :
#
#
# Convention : Reuss Voigt Hill
#
# Bulk Modulus (GPa) = 73.07476 73.76421 73.41948
# Shear Modulus (GPa) = 32.01654 32.34608 32.18131
#
# Velocity S-wave (km/s) = 3.94814 3.96841 3.95829
# Velocity P-wave (km/s) = 7.50744 7.54395 7.52571
#
# Compressibility (1/GPa) = 0.01368462
#
# Stress axis : x y z
#
# Youngs Moduli (GPa) = 92.45522 92.45522 85.54771
#
# Poissons Ratio (x) = 0.35033 0.25789
# Poissons Ratio (y) = 0.35033 0.25789
# Poissons Ratio (z) = 0.27872 0.27872
#
# Static dielectric constant tensor:
#      x y z
#    x 3.777250 0.000000 0.000000 
#    y 0.000000 3.777250 0.000000 
#    z 0.000000 0.000000 3.530770 
# 
# 
# High freq. dielectric constant tensor:
#      x y z
#    x 1.804510 0.000000 0.000000 
#    y 0.000000 1.804510 0.000000 
#    z 0.000000 0.000000 1.802620 
# 
# From -- ./inp_files/3247.got.cif
#   From: 2010.03.12/outbox.cif.g09.slc.cpg/sg180_2_cif.got.tgz:3247.got - 2010.04.01 11:35:50.
