data_PCOD8326657
_publ_section_title
;
Structure prediction by ZEFSAII (Michael W. Deem and Ramdas Pophale) SiO2 
 PCOD8326657
Probable space group: P 63 C M
;
_chemical_formula_sum "Si O2"
_cell_formula_units_Z 96
_cell_length_a 13.791361
_cell_length_b 13.791361
_cell_length_c 30.602527
_cell_angle_alpha 90.000000
_cell_angle_beta 90.000000
_cell_angle_gamma 120.000000
_cell_volume 5040.831433
_symmetry_space_group_name_H-M "P 63 C M"
_symmetry_group_IT_number 185
_symmetry_cell_setting 'hexagonal'
loop_
_space_group_symop_operation_xyz
x,y,z
x-y,x,1/2+z
-y,x-y,z
-x,-y,1/2+z
-x+y,-x,z
y,-x+y,1/2+z
-x+y,y,1/2+z
x,x-y,1/2+z
-y,-x,1/2+z
y,x,z
x-y,-y,z
-x,-x+y,z
loop_
_atom_site_type_symbol
_atom_site_label
_atom_site_fract_x
_atom_site_fract_y
_atom_site_fract_z
Si Si1 0.874322 0.468685 0.655760
Si Si2 0.873251 0.746900 0.629908
Si Si3 0.464068 0.127029 0.433536
Si Si4 0.541738 0.673582 0.974614
Si Si5 0.127000 0.470550 0.332569
Si Si6 0.872231 0.321166 0.795333
Si Si7 0.433649 0.182653 0.696681
Si Si8 0.308291 0.436001 0.571520
O O1 0.875856 0.356105 0.664029
O O2 0.803612 0.486401 0.694092
O O3 0.821364 0.464556 0.607847
O O4 0.000000 0.575201 0.656710
O O5 0.800245 0.800245 0.615237
O O6 0.835997 0.687233 0.677312
O O7 0.858009 0.664136 0.590520
O O8 0.000000 0.843657 0.635511
O O9 0.424207 0.215953 0.445422
O O10 0.572617 0.151486 0.461147
O O11 0.502289 0.141575 0.383278
O O12 0.362669 0.000000 0.442065
O O13 0.637053 0.637053 0.969412
O O14 0.528132 0.709981 0.023715
O O15 0.158267 0.581931 0.304627
O O16 0.208485 0.422423 0.320459
O O17 0.000000 0.374395 0.321790
O O18 0.863384 0.292001 0.744510
O O19 0.000000 0.364222 0.811006
O O20 0.401483 0.401483 0.563841
#
# Coordination Sequence:
#
# PCOD8326657 Si02
#       8
#    12  12  12  12  12  12  12  12
#     4  10  20  35  51  71 106 141 172 213 256 301
#     4  10  20  35  54  77 109 147 188 227 265 313
#     4  10  21  36  57  83 106 137 178 215 268 338
#     4  10  20  36  57  82 114 143 175 225 274 319
#     4  10  22  38  56  80 108 138 174 218 271 333
#     4  11  22  36  57  83 108 139 181 226 276 328
#     4  11  21  34  53  78 102 136 180 219 263 315
#     4   8  18  34  51  74 103 139 176 211 257 307
#
# _framework density 19.044477000000001
#
# number of rings (size 3 to 8) (size 9 to 14) (size 15 to 20)
#    0.000    2.000    0.000    4.625    0.000    6.000 
#    0.000    1.250    0.000    0.500    0.000    0.000 
#    0.000    0.000    0.000    0.000    0.000    0.000 
#
# Total GULP energy -1190127.696320 kJ/mol
# GULP energy per Si atom -12397.163503 kJ/mol
# Density = 1.900113 g / cm^3
# Si number density = 19.044477 Si / 1000 Ang^3
#
#
#
# Elastic Constant Matrix: (Units=GPa)
#
#
# Indices 1 2 3 4 5 6 
#
# 1 93.9426 35.4485 38.5823 0.0000 0.0000 0.0000
# 2 35.4485 93.9426 38.5823 0.0000 0.0000 0.0000
# 3 38.5823 38.5823 103.1395 0.0000 0.0000 0.0000
# 4 0.0000 0.0000 0.0000 24.6217 0.0000 0.0000
# 5 0.0000 0.0000 0.0000 0.0000 24.6217 0.0000
# 6 0.0000 0.0000 0.0000 0.0000 0.0000 29.2470
#
#
#
# Elastic Compliance Matrix: (Units=1/GPa)
#
#
# Indices 1 2 3 4 5 6 
#
# 1 0.013522 -0.003574 -0.003721 0.000000 0.000000 0.000000
# 2 -0.003574 0.013522 -0.003721 0.000000 0.000000 0.000000
# 3 -0.003721 -0.003721 0.012480 0.000000 0.000000 0.000000
# 4 0.000000 0.000000 0.000000 0.040615 0.000000 0.000000
# 5 0.000000 0.000000 0.000000 0.000000 0.040615 0.000000
# 6 0.000000 0.000000 0.000000 0.000000 0.000000 0.034192
#
#
# Mechanical properties :
#
#
# Convention : Reuss Voigt Hill
#
# Bulk Modulus (GPa) = 57.17491 57.36124 57.26807
# Shear Modulus (GPa) = 27.35127 27.59218 27.47172
#
# Velocity S-wave (km/s) = 3.79381 3.81048 3.80215
# Velocity P-wave (km/s) = 7.01980 7.03880 7.02930
#
# Compressibility (1/GPa) = 0.01749019
#
# Stress axis : x y z
#
# Youngs Moduli (GPa) = 73.95496 73.95496 80.13024
#
# Poissons Ratio (x) = 0.26432 0.29818
# Poissons Ratio (y) = 0.26432 0.29818
# Poissons Ratio (z) = 0.27520 0.27520
#
# Static dielectric constant tensor:
#      x y z
#    x 3.470990 0.000000 0.000000 
#    y 0.000000 3.470990 0.000000 
#    z 0.000000 0.000000 3.545210 
# 
# 
# High freq. dielectric constant tensor:
#      x y z
#    x 1.734410 0.000000 0.000000 
#    y 0.000000 1.734410 0.000000 
#    z 0.000000 0.000000 1.741360 
# 
# From -- ./inp_files/2228.got.cif
#   From: 2010.03.12/outbox.cif.g09.slc.cpg/sg185_cif.got.tgz:2228.got - 2010.04.01 11:55:19.
