data_PCOD8326469
_publ_section_title
;
Structure prediction by ZEFSAII (Michael W. Deem and Ramdas Pophale) SiO2 
 PCOD8326469
Probable space group: P 63 2 2
;
_chemical_formula_sum "Si O2"
_cell_formula_units_Z 42
_cell_length_a 8.626514
_cell_length_b 8.626514
_cell_length_c 30.780913
_cell_angle_alpha 90.000000
_cell_angle_beta 90.000000
_cell_angle_gamma 120.000000
_cell_volume 1983.731054
_symmetry_space_group_name_H-M "P 63 2 2"
_symmetry_group_IT_number 182
_symmetry_cell_setting 'hexagonal'
loop_
_space_group_symop_operation_xyz
x,y,z
x-y,x,1/2+z
-y,x-y,z
-x,-y,1/2+z
-x+y,-x,z
y,-x+y,1/2+z
x-y,-y,-z
-x,-x+y,-z
y,x,-z
-y,-x,1/2-z
-x+y,y,1/2-z
x,x-y,1/2-z
loop_
_atom_site_type_symbol
_atom_site_label
_atom_site_fract_x
_atom_site_fract_y
_atom_site_fract_z
Si Si1 0.332833 0.984536 0.132283
Si Si2 0.137837 0.470460 0.035403
Si Si3 0.114699 0.229397 0.750000
Si Si4 0.664954 0.969876 0.836450
O O1 0.330226 0.922385 0.083851
O O2 0.150878 0.854111 0.158088
O O3 0.492813 0.986913 0.159719
O O4 0.354456 0.180672 0.127214
O O5 0.333097 0.489996 0.029009
O O6 0.000000 0.334030 0.000000
O O7 0.209566 0.351111 0.792135
O O8 0.203826 0.101913 0.750000
#
# Coordination Sequence:
#
# PCOD8326469 Si02
#       4
#    12  12   6  12
#     4  12  24  45  69 104 141 189 237 290 357 434
#     4  10  23  41  65 102 140 182 233 284 349 418
#     4  10  20  44  66 100 132 172 228 286 354 412
#     4  12  24  44  73 101 143 186 234 297 357 428
#
# _framework density 21.172225000000001
#
# number of rings (size 3 to 8) (size 9 to 14) (size 15 to 20)
#    0.857    0.000    5.714    1.714    4.000    1.143 
#    0.000    0.000    0.000    0.571    0.000    0.000 
#    0.000    0.000    0.000    0.000    0.000    0.000 
#
# Total GULP energy -520426.638351 kJ/mol
# GULP energy per Si atom -12391.110437 kJ/mol
# Density = 2.112404 g / cm^3
# Si number density = 21.172225 Si / 1000 Ang^3
#
#
#
# Elastic Constant Matrix: (Units=GPa)
#
#
# Indices 1 2 3 4 5 6 
#
# 1 89.5583 16.0275 25.8588 0.0000 0.0000 0.0000
# 2 16.0275 89.5583 25.8588 0.0000 0.0000 0.0000
# 3 25.8588 25.8588 125.6811 0.0000 0.0000 0.0000
# 4 0.0000 0.0000 0.0000 33.5399 0.0000 0.0000
# 5 0.0000 0.0000 0.0000 0.0000 33.5399 0.0000
# 6 0.0000 0.0000 0.0000 0.0000 0.0000 36.7654
#
#
#
# Elastic Compliance Matrix: (Units=1/GPa)
#
#
# Indices 1 2 3 4 5 6 
#
# 1 0.012066 -0.001534 -0.002167 0.000000 0.000000 0.000000
# 2 -0.001534 0.012066 -0.002167 0.000000 0.000000 0.000000
# 3 -0.002167 -0.002167 0.008848 0.000000 0.000000 0.000000
# 4 0.000000 0.000000 0.000000 0.029815 0.000000 0.000000
# 5 0.000000 0.000000 0.000000 0.000000 0.029815 0.000000
# 6 0.000000 0.000000 0.000000 0.000000 0.000000 0.027199
#
#
# Mechanical properties :
#
#
# Convention : Reuss Voigt Hill
#
# Bulk Modulus (GPa) = 47.06976 48.92089 47.99533
# Shear Modulus (GPa) = 36.06781 36.57252 36.32017
#
# Velocity S-wave (km/s) = 4.13188 4.16069 4.14631
# Velocity P-wave (km/s) = 6.71143 6.79986 6.75579
#
# Compressibility (1/GPa) = 0.02124506
#
# Stress axis : x y z
#
# Youngs Moduli (GPa) = 82.87694 82.87694 113.01501
#
# Poissons Ratio (x) = 0.12711 0.24491
# Poissons Ratio (y) = 0.12711 0.24491
# Poissons Ratio (z) = 0.17960 0.17960
#
# Static dielectric constant tensor:
#      x y z
#    x 3.872560 0.000000 0.000000 
#    y 0.000000 3.872560 0.000000 
#    z 0.000000 0.000000 3.667020 
# 
# 
# High freq. dielectric constant tensor:
#      x y z
#    x 1.824910 0.000000 0.000000 
#    y 0.000000 1.824910 0.000000 
#    z 0.000000 0.000000 1.829900 
# 
# From -- ./inp_files/5666.got.cif
#   From: 2010.03.12/outbox.cif.g09.slc.cpg/sg182_3_cif.got.tgz:5666.got - 2010.04.01 11:49:36.
