data_PCOD8326103
_publ_section_title
;
Structure prediction by ZEFSAII (Michael W. Deem and Ramdas Pophale) SiO2 
 PCOD8326103
Probable space group: P 65 2 2
;
_chemical_formula_sum "Si O2"
_cell_formula_units_Z 42
_cell_length_a 12.691425
_cell_length_b 12.691425
_cell_length_c 13.057939
_cell_angle_alpha 90.000000
_cell_angle_beta 90.000000
_cell_angle_gamma 120.000000
_cell_volume 1821.486859
_symmetry_space_group_name_H-M "P 65 2 2"
_symmetry_group_IT_number 179
_symmetry_cell_setting 'hexagonal'
loop_
_space_group_symop_operation_xyz
x,y,z
x-y,x,5/6+z
-y,x-y,2/3+z
-x,-y,1/2+z
-x+y,-x,1/3+z
y,-x+y,1/6+z
x-y,-y,-z
-x,-x+y,1/3-z
y,x,2/3-z
-y,-x,1/6-z
-x+y,y,1/2-z
x,x-y,5/6-z
loop_
_atom_site_type_symbol
_atom_site_label
_atom_site_fract_x
_atom_site_fract_y
_atom_site_fract_z
Si Si1 0.954429 0.151294 0.323468
Si Si2 0.768877 0.360387 0.174917
Si Si3 0.343522 0.000000 0.500000
Si Si4 0.132127 0.369802 0.647661
O O1 0.028063 0.281101 0.264231
O O2 0.838764 0.142986 0.380676
O O3 0.043323 0.138367 0.404892
O O4 0.732962 0.267039 0.083334
O O5 0.652387 0.304774 0.250000
O O6 0.893016 0.366221 0.210545
O O7 0.780252 0.486709 0.136518
O O8 0.157778 0.315555 0.750000
O O9 0.000000 0.351571 0.666667
#
# Coordination Sequence:
#
# PCOD8326103 Si02
#       4
#    12  12   6  12
#     4  12  26  47  70 102 141 187 234 294 363 433
#     4  11  24  45  73 104 141 188 238 300 364 430
#     4  12  26  48  70 104 146 182 242 302 362 442
#     4  11  22  44  70 105 139 182 239 288 350 435
#
# _framework density 23.058084999999998
#
# number of rings (size 3 to 8) (size 9 to 14) (size 15 to 20)
#    0.000    0.571    4.286    4.286    0.000    0.000 
#   12.857    4.286    0.000    0.000    0.000    0.000 
#    0.000    0.000    0.000    0.000    0.000    0.000 
#
# Total GULP energy -520337.812385 kJ/mol
# GULP energy per Si atom -12388.995533 kJ/mol
# Density = 2.300560 g / cm^3
# Si number density = 23.058085 Si / 1000 Ang^3
#
#
#
# Elastic Constant Matrix: (Units=GPa)
#
#
# Indices 1 2 3 4 5 6 
#
# 1 91.5095 20.3642 49.3659 0.0000 0.0000 0.0000
# 2 20.3642 91.5095 49.3659 0.0000 0.0000 0.0000
# 3 49.3659 49.3659 123.4751 0.0000 0.0000 0.0000
# 4 0.0000 0.0000 0.0000 36.5704 0.0000 0.0000
# 5 0.0000 0.0000 0.0000 0.0000 36.5704 0.0000
# 6 0.0000 0.0000 0.0000 0.0000 0.0000 35.5727
#
#
#
# Elastic Compliance Matrix: (Units=1/GPa)
#
#
# Indices 1 2 3 4 5 6 
#
# 1 0.013934 -0.000122 -0.005522 0.000000 0.000000 0.000000
# 2 -0.000122 0.013934 -0.005522 0.000000 0.000000 0.000000
# 3 -0.005522 -0.005522 0.012514 0.000000 0.000000 0.000000
# 4 0.000000 0.000000 0.000000 0.027345 0.000000 0.000000
# 5 0.000000 0.000000 0.000000 0.000000 0.027345 0.000000
# 6 0.000000 0.000000 0.000000 0.000000 0.000000 0.028111
#
#
# Mechanical properties :
#
#
# Convention : Reuss Voigt Hill
#
# Bulk Modulus (GPa) = 55.40172 60.52070 57.96121
# Shear Modulus (GPa) = 32.99642 34.23589 33.61615
#
# Velocity S-wave (km/s) = 3.78698 3.85745 3.82237
# Velocity P-wave (km/s) = 6.57273 6.79293 6.68374
#
# Compressibility (1/GPa) = 0.01804998
#
# Stress axis : x y z
#
# Youngs Moduli (GPa) = 71.76734 71.76734 79.90828
#
# Poissons Ratio (x) = 0.00874 0.44126
# Poissons Ratio (y) = 0.00874 0.44126
# Poissons Ratio (z) = 0.39631 0.39631
#
# Static dielectric constant tensor:
#      x y z
#    x 4.033520 0.000000 0.000000 
#    y 0.000000 4.033520 0.000000 
#    z 0.000000 0.000000 4.318550 
# 
# 
# High freq. dielectric constant tensor:
#      x y z
#    x 1.917550 0.000000 0.000000 
#    y 0.000000 1.917550 0.000000 
#    z 0.000000 0.000000 1.908070 
# 
# From -- ./inp_files/4118.got.cif
#   From: 2010.03.12/outbox.cif.g09.slc.cpg/sg179_3_cif.got.tgz:4118.got - 2010.04.02 07:08:42.
