data_PCOD8326247
_publ_section_title
;
Structure prediction by ZEFSAII (Michael W. Deem and Ramdas Pophale) SiO2 
 PCOD8326247
Probable space group: P 62 2 2
;
_chemical_formula_sum "Si O2"
_cell_formula_units_Z 72
_cell_length_a 11.750488
_cell_length_b 11.750488
_cell_length_c 31.126671
_cell_angle_alpha 90.000000
_cell_angle_beta 90.000000
_cell_angle_gamma 120.000000
_cell_volume 3721.989243
_symmetry_space_group_name_H-M "P 62 2 2"
_symmetry_group_IT_number 180
_symmetry_cell_setting 'hexagonal'
loop_
_space_group_symop_operation_xyz
x,y,z
x-y,x,1/3+z
-y,x-y,2/3+z
-x,-y,z
-x+y,-x,1/3+z
y,-x+y,2/3+z
x-y,-y,-z
-x,-x+y,1/3-z
y,x,2/3-z
-y,-x,2/3-z
-x+y,y,-z
x,x-y,1/3-z
loop_
_atom_site_type_symbol
_atom_site_label
_atom_site_fract_x
_atom_site_fract_y
_atom_site_fract_z
Si Si1 0.200330 0.525741 0.956094
Si Si2 0.643881 0.045071 0.411604
Si Si3 0.996468 0.197078 0.467823
Si Si4 0.721313 0.000000 0.500000
Si Si5 0.080283 0.385506 0.392766
Si Si6 0.822665 0.785814 0.679984
Si Si7 0.000000 0.000000 0.930942
O O1 0.266542 0.471123 0.922375
O O2 0.192707 0.652854 0.938392
O O3 0.050724 0.414510 0.964617
O O4 0.282625 0.565250 0.000000
O O5 0.635057 0.989590 0.459215
O O6 0.500000 0.000000 0.394817
O O7 0.690491 0.966322 0.381976
O O8 0.863117 0.134999 0.495585
O O9 0.111459 0.222918 0.500000
O O10 0.043036 0.332675 0.442016
O O11 0.965203 0.089198 0.431330
O O12 0.122119 0.299998 0.361673
O O13 0.964673 0.874932 0.704217
O O14 0.772028 0.886014 0.666667
#
# Coordination Sequence:
#
# PCOD8326247 Si02
#       7
#    12  12  12   6  12  12   6
#     4  11  20  38  59  87 119 157 198 254 317 369
#     4  12  22  36  58  85 120 159 204 257 307 366
#     4  12  21  37  57  85 118 159 195 250 316 365
#     4  12  20  38  52  86 120 151 205 256 302 368
#     4  11  22  34  60  88 119 153 198 252 308 385
#     4  12  19  32  54  91 120 143 189 253 316 371
#     4  12  20  32  56  86 125 145 190 260 312 368
#
# _framework density 19.344494999999998
#
# number of rings (size 3 to 8) (size 9 to 14) (size 15 to 20)
#    0.000    0.333   10.000    1.500    0.000    0.000 
#    0.000    1.667    0.000    0.000    0.000    5.833 
#    0.000    0.000    0.000    0.000    0.000    0.000 
#
# Total GULP energy -892113.296232 kJ/mol
# GULP energy per Si atom -12390.462448 kJ/mol
# Density = 1.930047 g / cm^3
# Si number density = 19.344495 Si / 1000 Ang^3
#
#
#
# Elastic Constant Matrix: (Units=GPa)
#
#
# Indices 1 2 3 4 5 6 
#
# 1 74.0939 14.6680 20.7319 0.0000 0.0000 0.0000
# 2 14.6680 74.0939 20.7319 0.0000 0.0000 0.0000
# 3 20.7319 20.7319 99.6756 0.0000 0.0000 0.0000
# 4 0.0000 0.0000 0.0000 17.7372 0.0000 0.0000
# 5 0.0000 0.0000 0.0000 0.0000 17.7372 0.0000
# 6 0.0000 0.0000 0.0000 0.0000 0.0000 29.7130
#
#
#
# Elastic Compliance Matrix: (Units=1/GPa)
#
#
# Indices 1 2 3 4 5 6 
#
# 1 0.014653 -0.002175 -0.002595 0.000000 0.000000 0.000000
# 2 -0.002175 0.014653 -0.002595 0.000000 0.000000 0.000000
# 3 -0.002595 -0.002595 0.011112 0.000000 0.000000 0.000000
# 4 0.000000 0.000000 0.000000 0.056379 0.000000 0.000000
# 5 0.000000 0.000000 0.000000 0.000000 0.056379 0.000000
# 6 0.000000 0.000000 0.000000 0.000000 0.000000 0.033655
#
#
# Mechanical properties :
#
#
# Convention : Reuss Voigt Hill
#
# Bulk Modulus (GPa) = 38.92950 40.01409 39.47180
# Shear Modulus (GPa) = 23.79539 25.81957 24.80748
#
# Velocity S-wave (km/s) = 3.51106 3.65735 3.58495
# Velocity P-wave (km/s) = 6.05019 6.21006 6.13065
#
# Compressibility (1/GPa) = 0.02568746
#
# Stress axis : x y z
#
# Youngs Moduli (GPa) = 68.24494 68.24494 89.99098
#
# Poissons Ratio (x) = 0.14840 0.23357
# Poissons Ratio (y) = 0.14840 0.23357
# Poissons Ratio (z) = 0.17713 0.17713
#
# Static dielectric constant tensor:
#      x y z
#    x 3.525840 0.000000 0.000000 
#    y 0.000000 3.525840 0.000000 
#    z 0.000000 0.000000 3.776170 
# 
# 
# High freq. dielectric constant tensor:
#      x y z
#    x 1.729300 0.000000 0.000000 
#    y 0.000000 1.729300 0.000000 
#    z 0.000000 0.000000 1.768490 
# 
# From -- ./inp_files/12361.got.cif
#   From: 2010.03.12/outbox.cif.g09.slc.cpg/sg180_7_cif.got.tgz:12361.got - 2010.04.01 11:35:50.
