data_PCOD8326538
_publ_section_title
;
Structure prediction by ZEFSAII (Michael W. Deem and Ramdas Pophale) SiO2 
 PCOD8326538
Probable space group: P 6 M M
;
_chemical_formula_sum "Si O2"
_cell_formula_units_Z 96
_cell_length_a 18.200576
_cell_length_b 18.200576
_cell_length_c 20.432409
_cell_angle_alpha 90.000000
_cell_angle_beta 90.000000
_cell_angle_gamma 120.000000
_cell_volume 5861.657922
_symmetry_space_group_name_H-M "P 6 M M"
_symmetry_group_IT_number 183
_symmetry_cell_setting 'hexagonal'
loop_
_space_group_symop_operation_xyz
x,y,z
x-y,x,z
-y,x-y,z
-x,-y,z
-x+y,-x,z
y,-x+y,z
-x+y,y,z
x,x-y,z
-y,-x,z
y,x,z
x-y,-y,z
-x,-x+y,z
loop_
_atom_site_type_symbol
_atom_site_label
_atom_site_fract_x
_atom_site_fract_y
_atom_site_fract_z
Si Si1 0.741378 0.093382 0.862030
Si Si2 0.631422 0.531979 0.601408
Si Si3 0.167130 0.669052 0.373361
Si Si4 0.098570 0.365177 0.482313
Si Si5 0.093416 0.633688 0.237461
Si Si6 0.356957 0.096371 0.712696
Si Si7 0.167468 0.668735 0.105717
Si Si8 0.163147 0.668211 0.961792
O O1 0.838467 0.161534 0.879597
O O2 0.718510 0.104589 0.787888
O O3 0.676217 0.102626 0.909201
O O4 0.729298 0.000000 0.871619
O O5 0.570950 0.429051 0.598594
O O6 0.571520 0.571520 0.595761
O O7 0.697931 0.567988 0.542022
O O8 0.682841 0.559248 0.669600
O O9 0.147013 0.573507 0.386044
O O10 0.264887 0.735114 0.390861
O O11 0.104727 0.686939 0.417326
O O12 0.153122 0.685239 0.297903
O O13 0.164150 0.328300 0.478898
O O14 0.000000 0.289038 0.490070
O O15 0.093721 0.546861 0.229488
O O16 0.122977 0.684915 0.168414
O O17 0.000000 0.616862 0.253104
O O18 0.321067 0.160534 0.698329
O O19 0.283004 0.000000 0.695711
O O20 0.149673 0.574837 0.109822
O O21 0.267670 0.732331 0.110296
O O22 0.133568 0.679485 0.034885
O O23 0.154789 0.577395 0.953237
O O24 0.260370 0.739630 0.948971
#
# Coordination Sequence:
#
# PCOD8326538 Si02
#       8
#    12  12  12  12  12  12  12  12
#     4   9  18  31  46  65  88 114 145 182 225 269
#     4   9  17  29  46  68  92 118 148 180 213 250
#     4  10  19  30  45  65  89 117 150 187 225 265
#     4  10  20  33  50  71  94 121 152 186 225 269
#     4   9  17  27  38  54  78 109 144 181 220 259
#     4   9  17  30  48  68  90 117 149 184 222 266
#     4   9  16  26  40  57  78 105 138 176 216 257
#     4   9  17  28  42  61  86 116 148 181 218 260
#
# _framework density 16.377618999999999
#
# number of rings (size 3 to 8) (size 9 to 14) (size 15 to 20)
#    0.000    2.750    0.000    1.875    0.000    3.500 
#    0.000    3.750    0.000    3.125    0.000    1.750 
#    0.000    3.000    0.000    0.125    0.000    0.000 
#
# Total GULP energy -1189572.205318 kJ/mol
# GULP energy per Si atom -12391.377139 kJ/mol
# Density = 1.634034 g / cm^3
# Si number density = 16.377619 Si / 1000 Ang^3
#
#
#
# Elastic Constant Matrix: (Units=GPa)
#
#
# Indices 1 2 3 4 5 6 
#
# 1 69.9287 39.4152 36.8104 0.0000 0.0000 0.0000
# 2 39.4152 69.9287 36.8104 0.0000 0.0000 0.0000
# 3 36.8104 36.8104 99.6663 0.0000 0.0000 0.0000
# 4 0.0000 0.0000 0.0000 21.5295 0.0000 0.0000
# 5 0.0000 0.0000 0.0000 0.0000 21.5295 0.0000
# 6 0.0000 0.0000 0.0000 0.0000 0.0000 15.2568
#
#
#
# Elastic Compliance Matrix: (Units=1/GPa)
#
#
# Indices 1 2 3 4 5 6 
#
# 1 0.022472 -0.010300 -0.004496 0.000000 0.000000 0.000000
# 2 -0.010300 0.022472 -0.004496 0.000000 0.000000 0.000000
# 3 -0.004496 -0.004496 0.013354 0.000000 0.000000 0.000000
# 4 0.000000 0.000000 0.000000 0.046448 0.000000 0.000000
# 5 0.000000 0.000000 0.000000 0.000000 0.046448 0.000000
# 6 0.000000 0.000000 0.000000 0.000000 0.000000 0.065545
#
#
# Mechanical properties :
#
#
# Convention : Reuss Voigt Hill
#
# Bulk Modulus (GPa) = 50.71945 51.73286 51.22615
# Shear Modulus (GPa) = 19.09165 20.09566 19.59365
#
# Velocity S-wave (km/s) = 3.41796 3.50668 3.46261
# Velocity P-wave (km/s) = 6.82734 6.93195 6.87984
#
# Compressibility (1/GPa) = 0.01971630
#
# Stress axis : x y z
#
# Youngs Moduli (GPa) = 44.49905 44.49905 74.88198
#
# Poissons Ratio (x) = 0.45834 0.33665
# Poissons Ratio (y) = 0.45834 0.33665
# Poissons Ratio (z) = 0.20006 0.20006
#
# Static dielectric constant tensor:
#      x y z
#    x 2.959750 0.000000 0.000000 
#    y 0.000000 2.959750 0.000000 
#    z 0.000000 0.000000 3.453580 
# 
# 
# High freq. dielectric constant tensor:
#      x y z
#    x 1.601540 0.000000 0.000000 
#    y 0.000000 1.601540 0.000000 
#    z 0.000000 0.000000 1.651780 
# 
# From -- ./inp_files/3117.got.cif
#   From: 2010.03.12/outbox.cif.g09.slc.cpg/sg183_2_cif.got.tgz:3117.got - 2010.04.01 11:53:02.
