data_PCOD8326323
_publ_section_title
;
Structure prediction by ZEFSAII (Michael W. Deem and Ramdas Pophale) SiO2 
 PCOD8326323
Probable space group: P 64 2 2
;
_chemical_formula_sum "Si O2"
_cell_formula_units_Z 72
_cell_length_a 17.830309
_cell_length_b 17.830309
_cell_length_c 16.707806
_cell_angle_alpha 90.000000
_cell_angle_beta 90.000000
_cell_angle_gamma 120.000000
_cell_volume 4600.105529
_symmetry_space_group_name_H-M "P 64 2 2"
_symmetry_group_IT_number 181
_symmetry_cell_setting 'hexagonal'
loop_
_space_group_symop_operation_xyz
x,y,z
x-y,x,2/3+z
-y,x-y,1/3+z
-x,-y,z
-x+y,-x,2/3+z
y,-x+y,1/3+z
x-y,-y,-z
-x,-x+y,2/3-z
y,x,1/3-z
-y,-x,1/3-z
-x+y,y,-z
x,x-y,2/3-z
loop_
_atom_site_type_symbol
_atom_site_label
_atom_site_fract_x
_atom_site_fract_y
_atom_site_fract_z
Si Si1 0.125693 0.414122 0.496417
Si Si2 0.492608 0.160202 0.314091
Si Si3 0.604833 0.047231 0.837698
Si Si4 0.664684 0.159733 0.990916
Si Si5 0.590053 0.588359 0.255747
Si Si6 0.503171 0.329940 0.991148
O O1 0.181180 0.362360 0.500000
O O2 0.125583 0.450049 0.409155
O O3 0.174258 0.490429 0.561951
O O4 0.022472 0.363095 0.516140
O O5 0.477884 0.238942 0.333334
O O6 0.477439 0.128785 0.222001
O O7 0.589178 0.186615 0.341759
O O8 0.420794 0.082268 0.366607
O O9 0.635147 0.083162 0.926675
O O10 0.500000 0.000000 0.827503
O O11 0.594415 0.188829 0.000000
O O12 0.751859 0.245711 0.964753
O O13 0.500000 0.500000 0.255401
O O14 0.622558 0.622558 0.166667
O O15 0.659125 0.573399 0.303786
#
# Coordination Sequence:
#
# PCOD8326323 Si02
#       6
#    12  12  12  12  12  12
#     4  10  20  34  51  68  95 134 170 209 265 309
#     4  11  21  33  51  70  98 134 174 217 258 301
#     4  12  20  36  52  71 102 136 172 215 269 320
#     4  11  21  29  50  76  98 128 173 216 256 311
#     4   9  18  33  49  61  87 131 168 200 250 302
#     4  10  19  35  47  69 100 134 170 218 256 301
#
# _framework density 15.651814999999999
#
# number of rings (size 3 to 8) (size 9 to 14) (size 15 to 20)
#    0.000    1.500    5.000    1.500    2.333    0.000 
#    0.000    1.667    0.000    0.000    0.000    0.000 
#    0.000    0.000    0.000    4.500    0.000    0.000 
#
# Total GULP energy -892207.465280 kJ/mol
# GULP energy per Si atom -12391.770351 kJ/mol
# Density = 1.561619 g / cm^3
# Si number density = 15.651815 Si / 1000 Ang^3
#
#
#
# Elastic Constant Matrix: (Units=GPa)
#
#
# Indices 1 2 3 4 5 6 
#
# 1 86.2837 40.9442 25.4020 0.0000 0.0000 0.0000
# 2 40.9442 86.2837 25.4020 0.0000 0.0000 0.0000
# 3 25.4020 25.4020 96.0728 0.0000 0.0000 0.0000
# 4 0.0000 0.0000 0.0000 22.8355 0.0000 0.0000
# 5 0.0000 0.0000 0.0000 0.0000 22.8355 0.0000
# 6 0.0000 0.0000 0.0000 0.0000 0.0000 22.6697
#
#
#
# Elastic Compliance Matrix: (Units=1/GPa)
#
#
# Indices 1 2 3 4 5 6 
#
# 1 0.015422 -0.006634 -0.002324 0.000000 0.000000 0.000000
# 2 -0.006634 0.015422 -0.002324 0.000000 0.000000 0.000000
# 3 -0.002324 -0.002324 0.011637 0.000000 0.000000 0.000000
# 4 0.000000 0.000000 0.000000 0.043792 0.000000 0.000000
# 5 0.000000 0.000000 0.000000 0.000000 0.043792 0.000000
# 6 0.000000 0.000000 0.000000 0.000000 0.000000 0.044112
#
#
# Mechanical properties :
#
#
# Convention : Reuss Voigt Hill
#
# Bulk Modulus (GPa) = 50.20361 50.23739 50.22050
# Shear Modulus (GPa) = 24.58481 25.46092 25.02287
#
# Velocity S-wave (km/s) = 3.96755 4.03762 4.00274
# Velocity P-wave (km/s) = 7.28927 7.34187 7.31562
#
# Compressibility (1/GPa) = 0.01991888
#
# Stress axis : x y z
#
# Youngs Moduli (GPa) = 64.84334 64.84334 85.92941
#
# Poissons Ratio (x) = 0.43017 0.19966
# Poissons Ratio (y) = 0.43017 0.19966
# Poissons Ratio (z) = 0.15066 0.15066
#
# Static dielectric constant tensor:
#      x y z
#    x 2.957510 0.000000 0.000000 
#    y 0.000000 2.957510 0.000000 
#    z 0.000000 0.000000 3.205390 
# 
# 
# High freq. dielectric constant tensor:
#      x y z
#    x 1.572990 0.000000 0.000000 
#    y 0.000000 1.572990 0.000000 
#    z 0.000000 0.000000 1.620450 
# 
# From -- ./inp_files/7869.got.cif
#   From: 2010.03.12/outbox.cif.g09.slc.cpg/sg181_4_cif.got.tgz:7869.got - 2010.04.01 11:42:41.
