data_PCOD8326609
_publ_section_title
;
Structure prediction by ZEFSAII (Michael W. Deem and Ramdas Pophale) SiO2 
 PCOD8326609
Probable space group: P 6 C C
;
_chemical_formula_sum "Si O2"
_cell_formula_units_Z 56
_cell_length_a 13.049307
_cell_length_b 13.049307
_cell_length_c 17.797021
_cell_angle_alpha 90.000000
_cell_angle_beta 90.000000
_cell_angle_gamma 120.000000
_cell_volume 2624.537858
_symmetry_space_group_name_H-M "P 6 C C"
_symmetry_group_IT_number 184
_symmetry_cell_setting 'hexagonal'
loop_
_space_group_symop_operation_xyz
x,y,z
x-y,x,z
-y,x-y,z
-x,-y,z
-x+y,-x,z
y,-x+y,z
-x+y,y,1/2+z
x,x-y,1/2+z
-y,-x,1/2+z
y,x,1/2+z
x-y,-y,1/2+z
-x,-x+y,1/2+z
loop_
_atom_site_type_symbol
_atom_site_label
_atom_site_fract_x
_atom_site_fract_y
_atom_site_fract_z
Si Si1 0.596509 0.800954 0.037600
Si Si2 0.090433 0.630866 0.793125
Si Si3 0.615394 0.623183 0.947523
Si Si4 0.333335 0.666668 0.035949
Si Si5 0.333333 0.666666 0.855256
Si Si6 0.091374 0.273750 0.185019
O O1 0.464124 0.747576 0.070106
O O2 0.684324 0.796672 0.098888
O O3 0.586234 0.726666 0.962510
O O4 0.646579 0.932817 0.009287
O O5 0.026569 0.657235 0.862227
O O6 0.204076 0.628598 0.824345
O O7 0.125968 0.735171 0.733571
O O8 0.000000 0.500000 0.758938
O O9 0.500000 0.500000 0.965000
O O10 0.333334 0.666667 0.945273
O O11 0.175704 0.219415 0.202886
#
# Coordination Sequence:
#
# PCOD8326609 Si02
#       6
#    12  12  12   4   4  12
#     4  12  23  41  67 100 137 181 229 290 349 424
#     4  11  25  43  71 103 143 183 227 292 357 432
#     4  11  23  41  69 103 136 178 228 284 355 423
#     4  12  21  37  71 103 141 172 227 286 354 430
#     4  12  21  43  68 103 138 181 227 283 357 421
#     4  12  28  48  68  96 139 190 240 295 356 419
#
# _framework density 21.337088000000001
#
# number of rings (size 3 to 8) (size 9 to 14) (size 15 to 20)
#    0.000    0.429    6.429    2.786    3.000    4.286 
#    0.000    0.000    0.000    0.000    0.000    0.000 
#    0.000    0.000    0.000    0.000    0.000    0.000 
#
# Total GULP energy -694384.636259 kJ/mol
# GULP energy per Si atom -12399.725647 kJ/mol
# Density = 2.128852 g / cm^3
# Si number density = 21.337088 Si / 1000 Ang^3
#
#
#
# Elastic Constant Matrix: (Units=GPa)
#
#
# Indices 1 2 3 4 5 6 
#
# 1 87.5323 18.0094 22.8093 0.0000 0.0001 0.0001
# 2 18.0094 87.5326 22.8094 0.0000 0.0001 0.0001
# 3 22.8093 22.8094 78.4873 0.0000 0.0001 -0.0001
# 4 0.0000 0.0000 0.0000 41.9349 0.0000 0.0000
# 5 0.0001 0.0001 0.0001 0.0000 41.9349 0.0000
# 6 0.0001 0.0001 -0.0001 0.0000 0.0000 34.7616
#
#
#
# Elastic Compliance Matrix: (Units=1/GPa)
#
#
# Indices 1 2 3 4 5 6 
#
# 1 0.012610 -0.001774 -0.003149 0.000000 0.000000 0.000000
# 2 -0.001774 0.012610 -0.003149 0.000000 0.000000 0.000000
# 3 -0.003149 -0.003149 0.014571 0.000000 0.000000 0.000000
# 4 0.000000 0.000000 0.000000 0.023847 0.000000 0.000000
# 5 0.000000 0.000000 0.000000 0.000000 0.023847 0.000000
# 6 0.000000 0.000000 0.000000 0.000000 0.000000 0.028767
#
#
# Mechanical properties :
#
#
# Convention : Reuss Voigt Hill
#
# Bulk Modulus (GPa) = 42.28866 42.31205 42.30035
# Shear Modulus (GPa) = 35.64358 36.38787 36.01572
#
# Velocity S-wave (km/s) = 4.09161 4.13411 4.11291
# Velocity P-wave (km/s) = 6.49492 6.53155 6.51326
#
# Compressibility (1/GPa) = 0.02364700
#
# Stress axis : x y z
#
# Youngs Moduli (GPa) = 79.30275 79.30302 68.62839
#
# Poissons Ratio (x) = 0.14067 0.21612
# Poissons Ratio (y) = 0.14067 0.21612
# Poissons Ratio (z) = 0.24973 0.24973
#
# Static dielectric constant tensor:
#      x y z
#    x 3.692490 0.000010 -0.000010 
#    y 0.000010 3.692520 0.000000 
#    z -0.000010 0.000000 3.652330 
# 
# 
# High freq. dielectric constant tensor:
#      x y z
#    x 1.847060 0.000000 0.000000 
#    y 0.000000 1.847060 0.000000 
#    z 0.000000 0.000000 1.822910 
# 
# From -- ./inp_files/835.got.cif
#   From: 2010.03.12/outbox.cif.g09.slc.cpg/sg184_cif.got.tgz:835.got - 2010.04.01 11:54:36.
