data_PCOD8326785
_publ_section_title
;
Structure prediction by ZEFSAII (Michael W. Deem and Ramdas Pophale) SiO2 
 PCOD8326785
Probable space group: P 63 M C
;
_chemical_formula_sum "Si O2"
_cell_formula_units_Z 84
_cell_length_a 12.904214
_cell_length_b 12.904214
_cell_length_c 35.918916
_cell_angle_alpha 90.000000
_cell_angle_beta 90.000000
_cell_angle_gamma 120.000000
_cell_volume 5179.847413
_symmetry_space_group_name_H-M "P 63 M C"
_symmetry_group_IT_number 186
_symmetry_cell_setting 'hexagonal'
loop_
_space_group_symop_operation_xyz
x,y,z
x-y,x,1/2+z
-y,x-y,z
-x,-y,1/2+z
-x+y,-x,z
y,-x+y,1/2+z
-x+y,y,z
x,x-y,z
-y,-x,z
y,x,1/2+z
x-y,-y,1/2+z
-x,-x+y,1/2+z
loop_
_atom_site_type_symbol
_atom_site_label
_atom_site_fract_x
_atom_site_fract_y
_atom_site_fract_z
Si Si1 0.999634 0.757656 0.817750
Si Si2 0.100530 0.668402 0.605875
Si Si3 0.427517 0.333387 0.465342
Si Si4 0.669883 0.576818 0.025561
Si Si5 0.423750 0.331311 0.186697
Si Si6 0.571768 0.905361 0.880959
Si Si7 0.576319 0.908996 0.250908
O O1 0.892071 0.784141 0.823463
O O2 0.974387 0.665466 0.784728
O O3 0.013175 0.698181 0.855307
O O4 0.118884 0.881117 0.808250
O O5 0.066415 0.533208 0.605598
O O6 0.243995 0.756006 0.605661
O O7 0.049237 0.689199 0.566797
O O8 0.051383 0.688733 0.645279
O O9 0.424353 0.212177 0.474146
O O10 0.561188 0.438813 0.472764
O O11 0.335280 0.338878 0.493927
O O12 0.388399 0.339214 0.423108
O O13 0.778954 0.557907 0.014921
O O14 0.552167 0.447834 0.025742
O O15 0.422890 0.211445 0.200076
O O16 0.561144 0.438857 0.186095
O O17 0.343986 0.360542 0.213914
O O18 0.459701 0.919402 0.868534
O O19 0.531495 0.765748 0.877520
O O20 0.452584 0.905167 0.259414
O O21 0.549732 0.774866 0.245149
#
# Coordination Sequence:
#
# PCOD8326785 Si02
#       7
#    12  12  12  12  12  12  12
#     4  10  20  33  49  68  90 115 143 178 220 264
#     4   8  13  22  38  61  87 113 140 172 213 258
#     4   9  17  29  45  64  87 116 149 183 217 256
#     4   9  16  26  42  64  89 115 143 177 217 259
#     4   9  16  27  45  68  91 112 138 176 221 263
#     4   9  17  30  48  68  88 112 144 182 222 261
#     4  10  20  33  48  65  88 119 151 180 210 251
#
# _framework density 16.216695000000001
#
# number of rings (size 3 to 8) (size 9 to 14) (size 15 to 20)
#    0.000    2.857    0.000    1.857    0.000    4.000 
#    0.000    0.714    0.000    5.429    0.000    2.000 
#    0.000    0.000    0.000    0.000    0.000    0.000 
#
# Total GULP energy -1040878.997011 kJ/mol
# GULP energy per Si atom -12391.416631 kJ/mol
# Density = 1.617978 g / cm^3
# Si number density = 16.216695 Si / 1000 Ang^3
#
#
#
# Elastic Constant Matrix: (Units=GPa)
#
#
# Indices 1 2 3 4 5 6 
#
# 1 82.7139 44.0236 60.7066 0.0000 0.0000 0.0000
# 2 44.0236 82.7139 60.7066 0.0000 0.0000 0.0000
# 3 60.7066 60.7066 126.9789 0.0000 0.0000 0.0000
# 4 0.0000 0.0000 0.0000 24.9588 0.0000 0.0000
# 5 0.0000 0.0000 0.0000 0.0000 24.9588 0.0000
# 6 0.0000 0.0000 0.0000 0.0000 0.0000 19.3452
#
#
#
# Elastic Compliance Matrix: (Units=1/GPa)
#
#
# Indices 1 2 3 4 5 6 
#
# 1 0.020202 -0.005644 -0.006960 0.000000 0.000000 0.000000
# 2 -0.005644 0.020202 -0.006960 0.000000 0.000000 0.000000
# 3 -0.006960 -0.006960 0.014530 0.000000 0.000000 0.000000
# 4 0.000000 0.000000 0.000000 0.040066 0.000000 0.000000
# 5 0.000000 0.000000 0.000000 0.000000 0.040066 0.000000
# 6 0.000000 0.000000 0.000000 0.000000 0.000000 0.051693
#
#
# Mechanical properties :
#
#
# Convention : Reuss Voigt Hill
#
# Bulk Modulus (GPa) = 63.26592 69.25336 66.25964
# Shear Modulus (GPa) = 21.63048 22.31723 21.97385
#
# Velocity S-wave (km/s) = 3.65614 3.71373 3.68505
# Velocity P-wave (km/s) = 7.54458 7.82219 7.68464
#
# Compressibility (1/GPa) = 0.01580630
#
# Stress axis : x y z
#
# Youngs Moduli (GPa) = 49.49996 49.49996 68.82254
#
# Poissons Ratio (x) = 0.27939 0.47900
# Poissons Ratio (y) = 0.27939 0.47900
# Poissons Ratio (z) = 0.34451 0.34451
#
# Static dielectric constant tensor:
#      x y z
#    x 2.888640 0.000000 0.000000 
#    y 0.000000 2.888640 0.000000 
#    z 0.000000 0.000000 3.481770 
# 
# 
# High freq. dielectric constant tensor:
#      x y z
#    x 1.604540 0.000000 0.000000 
#    y 0.000000 1.604540 0.000000 
#    z 0.000000 0.000000 1.643050 
# 
# From -- ./inp_files/4389.got.cif
#   From: 2010.03.12/outbox.cif.g09.slc.cpg/sg186_3_cif.got.tgz:4389.got - 2010.04.01 11:56:34.
