data_PCOD8326157
_publ_section_title
;
Structure prediction by ZEFSAII (Michael W. Deem and Ramdas Pophale) SiO2 
 PCOD8326157
Probable space group: P 62 2 2
;
_chemical_formula_sum "Si O2"
_cell_formula_units_Z 84
_cell_length_a 14.570397
_cell_length_b 14.570397
_cell_length_c 24.739374
_cell_angle_alpha 90.000000
_cell_angle_beta 90.000000
_cell_angle_gamma 120.000000
_cell_volume 4548.436209
_symmetry_space_group_name_H-M "P 62 2 2"
_symmetry_group_IT_number 180
_symmetry_cell_setting 'hexagonal'
loop_
_space_group_symop_operation_xyz
x,y,z
x-y,x,1/3+z
-y,x-y,2/3+z
-x,-y,z
-x+y,-x,1/3+z
y,-x+y,2/3+z
x-y,-y,-z
-x,-x+y,1/3-z
y,x,2/3-z
-y,-x,2/3-z
-x+y,y,-z
x,x-y,1/3-z
loop_
_atom_site_type_symbol
_atom_site_label
_atom_site_fract_x
_atom_site_fract_y
_atom_site_fract_z
Si Si1 0.842509 0.161826 0.963075
Si Si2 0.214395 0.925681 0.073853
Si Si3 0.162130 0.041660 0.825149
Si Si4 0.916151 0.707375 0.946462
Si Si5 0.394109 0.894294 0.237475
Si Si6 0.266431 0.526377 0.438219
Si Si7 0.395360 0.497631 0.220139
O O1 0.765787 0.201302 0.939425
O O2 0.959288 0.247573 0.947013
O O3 0.799957 0.044695 0.940679
O O4 0.853825 0.156942 0.027527
O O5 0.155483 0.901598 0.130544
O O6 0.309097 0.901612 0.076503
O O7 0.079864 0.079864 0.833334
O O8 0.222971 0.090573 0.768805
O O9 0.088584 0.911417 0.833334
O O10 0.868627 0.581927 0.935914
O O11 0.861673 0.723345 0.000000
O O12 0.407758 0.791654 0.243074
O O13 0.374791 0.911990 0.175585
O O14 0.500000 0.000000 0.258954
O O15 0.239809 0.479618 0.500000
O O16 0.392860 0.603653 0.435042
O O17 0.500000 0.500000 0.240021
#
# Coordination Sequence:
#
# PCOD8326157 Si02
#       7
#    12  12  12  12  12  12  12
#     4  11  23  36  57  89 126 159 198 251 307 378
#     4  11  22  38  56  89 126 162 193 244 320 374
#     4  11  23  40  63  87 117 162 208 255 314 371
#     4  12  24  41  63  88 123 165 215 258 301 366
#     4  10  20  37  63  88 115 157 211 256 302 360
#     4  10  21  36  61  93 124 157 204 256 311 367
#     4  10  19  34  61  91 120 158 195 245 310 382
#
# _framework density 18.467884999999999
#
# number of rings (size 3 to 8) (size 9 to 14) (size 15 to 20)
#    0.000    1.286    5.714    0.857    2.000    0.571 
#    2.571    0.000    0.000    0.000    0.000    1.000 
#    0.000    0.000    0.000    0.000    0.000    0.000 
#
# Total GULP energy -1040761.732183 kJ/mol
# GULP energy per Si atom -12390.020621 kJ/mol
# Density = 1.842585 g / cm^3
# Si number density = 18.467885 Si / 1000 Ang^3
#
#
#
# Elastic Constant Matrix: (Units=GPa)
#
#
# Indices 1 2 3 4 5 6 
#
# 1 81.5676 31.7122 32.4506 0.0000 0.0000 0.0000
# 2 31.7122 81.5676 32.4506 0.0000 0.0000 0.0000
# 3 32.4506 32.4506 105.4981 0.0000 0.0000 0.0000
# 4 0.0000 0.0000 0.0000 26.6546 0.0000 0.0000
# 5 0.0000 0.0000 0.0000 0.0000 26.6546 0.0000
# 6 0.0000 0.0000 0.0000 0.0000 0.0000 24.9277
#
#
#
# Elastic Compliance Matrix: (Units=1/GPa)
#
#
# Indices 1 2 3 4 5 6 
#
# 1 0.015387 -0.004671 -0.003296 0.000000 0.000000 0.000000
# 2 -0.004671 0.015387 -0.003296 0.000000 0.000000 0.000000
# 3 -0.003296 -0.003296 0.011507 0.000000 0.000000 0.000000
# 4 0.000000 0.000000 0.000000 0.037517 0.000000 0.000000
# 5 0.000000 0.000000 0.000000 0.000000 0.037517 0.000000
# 6 0.000000 0.000000 0.000000 0.000000 0.000000 0.040116
#
#
# Mechanical properties :
#
#
# Convention : Reuss Voigt Hill
#
# Bulk Modulus (GPa) = 50.62239 51.31778 50.97009
# Shear Modulus (GPa) = 26.80356 27.11537 26.95946
#
# Velocity S-wave (km/s) = 3.81381 3.83592 3.82488
# Velocity P-wave (km/s) = 6.84573 6.88963 6.86772
#
# Compressibility (1/GPa) = 0.01975410
#
# Stress axis : x y z
#
# Youngs Moduli (GPa) = 64.98951 64.98951 86.90623
#
# Poissons Ratio (x) = 0.30356 0.28646
# Poissons Ratio (y) = 0.30356 0.28646
# Poissons Ratio (z) = 0.21422 0.21422
#
# Static dielectric constant tensor:
#      x y z
#    x 3.238570 0.000000 0.000000 
#    y 0.000000 3.238570 0.000000 
#    z 0.000000 0.000000 3.490940 
# 
# 
# High freq. dielectric constant tensor:
#      x y z
#    x 1.709870 0.000000 0.000000 
#    y 0.000000 1.709870 0.000000 
#    z 0.000000 0.000000 1.716030 
# 
# From -- ./inp_files/10252.got.cif
#   From: 2010.03.12/outbox.cif.g09.slc.cpg/sg180_6_cif.got.tgz:10252.got - 2010.04.01 11:35:50.
