data_PCOD8326259
_publ_section_title
;
Structure prediction by ZEFSAII (Michael W. Deem and Ramdas Pophale) SiO2 
 PCOD8326259
Probable space group: P 62 2 2
;
_chemical_formula_sum "Si O2"
_cell_formula_units_Z 84
_cell_length_a 18.170866
_cell_length_b 18.170866
_cell_length_c 14.492415
_cell_angle_alpha 90.000000
_cell_angle_beta 90.000000
_cell_angle_gamma 120.000000
_cell_volume 4144.027655
_symmetry_space_group_name_H-M "P 62 2 2"
_symmetry_group_IT_number 180
_symmetry_cell_setting 'hexagonal'
loop_
_space_group_symop_operation_xyz
x,y,z
x-y,x,1/3+z
-y,x-y,2/3+z
-x,-y,z
-x+y,-x,1/3+z
y,-x+y,2/3+z
x-y,-y,-z
-x,-x+y,1/3-z
y,x,2/3-z
-y,-x,2/3-z
-x+y,y,-z
x,x-y,1/3-z
loop_
_atom_site_type_symbol
_atom_site_label
_atom_site_fract_x
_atom_site_fract_y
_atom_site_fract_z
Si Si1 0.361922 0.259628 0.115921
Si Si2 0.930276 0.860552 0.500000
Si Si3 0.275408 0.948324 0.088314
Si Si4 0.899686 0.428365 0.923913
Si Si5 0.879966 0.879966 0.833334
Si Si6 0.637813 0.163201 0.078416
Si Si7 0.095451 0.239230 0.317088
Si Si8 0.249437 0.609230 0.274867
O O1 0.368266 0.184133 0.166667
O O2 0.298574 0.286364 0.160878
O O3 0.452390 0.340734 0.110852
O O4 0.322600 0.230316 0.014007
O O5 0.891005 0.803565 0.408954
O O6 0.029872 0.917390 0.483583
O O7 0.306911 0.881350 0.092421
O O8 0.174566 0.904633 0.083824
O O9 0.323456 0.000000 0.000000
O O10 0.848480 0.446047 0.845704
O O11 0.000000 0.500000 0.934861
O O12 0.847410 0.410613 0.019416
O O13 0.824289 0.836704 0.924950
O O14 0.705360 0.258453 0.047333
O O15 0.562539 0.125077 0.000000
O O16 0.303926 0.696075 0.333334
O O17 0.245188 0.622594 0.166667
#
# Coordination Sequence:
#
# PCOD8326259 Si02
#       8
#    12   6  12  12   6  12  12  12
#     4  12  25  39  66  98 133 173 224 278 350 410
#     4  11  22  38  62  92 126 176 230 280 322 388
#     4  12  22  39  62  96 134 172 211 280 346 402
#     4  12  26  46  69 105 142 181 230 283 349 418
#     4  11  24  38  60  88 129 176 230 274 323 382
#     4  11  25  40  69 105 141 172 224 286 353 409
#     4  12  23  41  62  94 129 175 225 275 337 398
#     4  11  24  46  74 104 138 182 230 284 339 411
#
# _framework density 20.270136000000001
#
# number of rings (size 3 to 8) (size 9 to 14) (size 15 to 20)
#    0.000    0.429    5.000    4.286    4.000    1.429 
#    0.000    2.857    3.143    0.000    0.000    0.000 
#    0.000    0.000    0.000    0.000    0.000    0.000 
#
# Total GULP energy -1041133.120425 kJ/mol
# GULP energy per Si atom -12394.441910 kJ/mol
# Density = 2.022400 g / cm^3
# Si number density = 20.270136 Si / 1000 Ang^3
#
#
#
# Elastic Constant Matrix: (Units=GPa)
#
#
# Indices 1 2 3 4 5 6 
#
# 1 116.5569 34.4447 38.5615 0.0000 0.0000 0.0000
# 2 34.4447 116.5569 38.5615 0.0000 0.0000 0.0000
# 3 38.5615 38.5615 116.8304 0.0000 0.0000 0.0000
# 4 0.0000 0.0000 0.0000 40.5479 0.0000 0.0000
# 5 0.0000 0.0000 0.0000 0.0000 40.5479 0.0000
# 6 0.0000 0.0000 0.0000 0.0000 0.0000 41.0561
#
#
#
# Elastic Compliance Matrix: (Units=1/GPa)
#
#
# Indices 1 2 3 4 5 6 
#
# 1 0.010072 -0.002107 -0.002629 0.000000 0.000000 0.000000
# 2 -0.002107 0.010072 -0.002629 0.000000 0.000000 0.000000
# 3 -0.002629 -0.002629 0.010295 0.000000 0.000000 0.000000
# 4 0.000000 0.000000 0.000000 0.024662 0.000000 0.000000
# 5 0.000000 0.000000 0.000000 0.000000 0.024662 0.000000
# 6 0.000000 0.000000 0.000000 0.000000 0.000000 0.024357
#
#
# Mechanical properties :
#
#
# Convention : Reuss Voigt Hill
#
# Bulk Modulus (GPa) = 63.65690 63.67549 63.66619
# Shear Modulus (GPa) = 40.29474 40.32213 40.30844
#
# Velocity S-wave (km/s) = 4.46341 4.46493 4.46417
# Velocity P-wave (km/s) = 7.61808 7.61987 7.61898
#
# Compressibility (1/GPa) = 0.01570922
#
# Stress axis : x y z
#
# Youngs Moduli (GPa) = 99.28680 99.28680 97.13547
#
# Poissons Ratio (x) = 0.20916 0.25537
# Poissons Ratio (y) = 0.20916 0.25537
# Poissons Ratio (z) = 0.26103 0.26103
#
# Static dielectric constant tensor:
#      x y z
#    x 3.810490 0.000000 0.000000 
#    y 0.000000 3.810490 0.000000 
#    z 0.000000 0.000000 3.774030 
# 
# 
# High freq. dielectric constant tensor:
#      x y z
#    x 1.798780 0.000000 0.000000 
#    y 0.000000 1.798780 0.000000 
#    z 0.000000 0.000000 1.785260 
# 
# From -- ./inp_files/6502.got.cif
#   From: 2010.03.12/outbox.cif.g09.slc.cpg/sg180_4_cif.got.tgz:6502.got - 2010.04.01 11:35:50.
