data_PCOD8326419
_publ_section_title
;
Structure prediction by ZEFSAII (Michael W. Deem and Ramdas Pophale) SiO2 
 PCOD8326419
Probable space group: P 64 2 2
;
_chemical_formula_sum "Si O2"
_cell_formula_units_Z 48
_cell_length_a 10.627157
_cell_length_b 10.627157
_cell_length_c 22.546212
_cell_angle_alpha 90.000000
_cell_angle_beta 90.000000
_cell_angle_gamma 120.000000
_cell_volume 2205.151395
_symmetry_space_group_name_H-M "P 64 2 2"
_symmetry_group_IT_number 181
_symmetry_cell_setting 'hexagonal'
loop_
_space_group_symop_operation_xyz
x,y,z
x-y,x,2/3+z
-y,x-y,1/3+z
-x,-y,z
-x+y,-x,2/3+z
y,-x+y,1/3+z
x-y,-y,-z
-x,-x+y,2/3-z
y,x,1/3-z
-y,-x,1/3-z
-x+y,y,-z
x,x-y,2/3-z
loop_
_atom_site_type_symbol
_atom_site_label
_atom_site_fract_x
_atom_site_fract_y
_atom_site_fract_z
Si Si1 0.740118 0.996864 0.898368
Si Si2 0.000000 0.000000 0.500000
Si Si3 0.790444 0.280834 0.932498
Si Si4 0.500000 0.000000 0.500000
Si Si5 0.487615 0.782382 0.729710
Si Si6 0.500000 0.500000 0.483518
O O1 0.784069 0.127738 0.944359
O O2 0.638525 0.014651 0.850419
O O3 0.894315 0.031197 0.873070
O O4 0.652153 0.836621 0.926361
O O5 0.623353 0.237524 0.921648
O O6 0.898005 0.367814 0.877792
O O7 0.835070 0.360112 0.996587
O O8 0.434942 0.860736 0.774851
#
# Coordination Sequence:
#
# PCOD8326419 Si02
#       6
#    12   3  12   3  12   6
#     4  12  23  42  70  98 140 180 233 285 354 433
#     4  12  26  42  66 110 140 190 228 288 370 436
#     4  11  24  42  68  97 136 177 236 295 352 423
#     4  12  24  42  64 102 136 178 220 292 372 414
#     4  11  23  42  68 101 130 181 241 291 348 424
#     4  12  21  40  71  99 132 183 234 288 344 432
#
# _framework density 21.767212000000001
#
# number of rings (size 3 to 8) (size 9 to 14) (size 15 to 20)
#    0.000    0.500    5.000    3.750    0.000    2.000 
#    0.000    2.500    0.000    0.000    0.000    0.000 
#    0.000    0.000    0.000    0.000    0.000    0.000 
#
# Total GULP energy -594710.188454 kJ/mol
# GULP energy per Si atom -12389.795593 kJ/mol
# Density = 2.171767 g / cm^3
# Si number density = 21.767212 Si / 1000 Ang^3
#
#
#
# Elastic Constant Matrix: (Units=GPa)
#
#
# Indices 1 2 3 4 5 6 
#
# 1 108.6338 26.2279 36.2159 0.0000 0.0000 0.0000
# 2 26.2279 108.6338 36.2159 0.0000 0.0000 0.0000
# 3 36.2159 36.2159 108.8095 0.0000 0.0000 0.0000
# 4 0.0000 0.0000 0.0000 28.4139 0.0000 0.0000
# 5 0.0000 0.0000 0.0000 0.0000 28.4139 0.0000
# 6 0.0000 0.0000 0.0000 0.0000 0.0000 41.2029
#
#
#
# Elastic Compliance Matrix: (Units=1/GPa)
#
#
# Indices 1 2 3 4 5 6 
#
# 1 0.010582 -0.001553 -0.003005 0.000000 0.000000 0.000000
# 2 -0.001553 0.010582 -0.003005 0.000000 0.000000 0.000000
# 3 -0.003005 -0.003005 0.011191 0.000000 0.000000 0.000000
# 4 0.000000 0.000000 0.000000 0.035194 0.000000 0.000000
# 5 0.000000 0.000000 0.000000 0.000000 0.035194 0.000000
# 6 0.000000 0.000000 0.000000 0.000000 0.000000 0.024270
#
#
# Mechanical properties :
#
#
# Convention : Reuss Voigt Hill
#
# Bulk Modulus (GPa) = 58.04461 58.15518 58.09990
# Shear Modulus (GPa) = 33.81056 34.76729 34.28892
#
# Velocity S-wave (km/s) = 3.94544 4.00087 3.97325
# Velocity P-wave (km/s) = 6.89052 6.93668 6.91364
#
# Compressibility (1/GPa) = 0.01722813
#
# Stress axis : x y z
#
# Youngs Moduli (GPa) = 94.49962 94.49962 89.35858
#
# Poissons Ratio (x) = 0.14676 0.26854
# Poissons Ratio (y) = 0.14676 0.26854
# Poissons Ratio (z) = 0.28399 0.28399
#
# Static dielectric constant tensor:
#      x y z
#    x 3.894180 0.000000 0.000000 
#    y 0.000000 3.894180 0.000000 
#    z 0.000000 0.000000 4.066600 
# 
# 
# High freq. dielectric constant tensor:
#      x y z
#    x 1.853600 0.000000 0.000000 
#    y 0.000000 1.853600 0.000000 
#    z 0.000000 0.000000 1.865880 
# 
# From -- ./inp_files/9973.got.cif
#   From: 2010.03.12/outbox.cif.g09.slc.cpg/sg181_5_cif.got.tgz:9973.got - 2010.04.01 11:42:41.
