data_PCOD8326090
_publ_section_title
;
Structure prediction by ZEFSAII (Michael W. Deem and Ramdas Pophale) SiO2 
 PCOD8326090
Probable space group: P 65 2 2
;
_chemical_formula_sum "Si O2"
_cell_formula_units_Z 60
_cell_length_a 17.551500
_cell_length_b 17.551500
_cell_length_c 9.965266
_cell_angle_alpha 90.000000
_cell_angle_beta 90.000000
_cell_angle_gamma 120.000000
_cell_volume 2658.569415
_symmetry_space_group_name_H-M "P 65 2 2"
_symmetry_group_IT_number 179
_symmetry_cell_setting 'hexagonal'
loop_
_space_group_symop_operation_xyz
x,y,z
x-y,x,5/6+z
-y,x-y,2/3+z
-x,-y,1/2+z
-x+y,-x,1/3+z
y,-x+y,1/6+z
x-y,-y,-z
-x,-x+y,1/3-z
y,x,2/3-z
-y,-x,1/6-z
-x+y,y,1/2-z
x,x-y,5/6-z
loop_
_atom_site_type_symbol
_atom_site_label
_atom_site_fract_x
_atom_site_fract_y
_atom_site_fract_z
Si Si1 0.959562 0.125200 0.948063
Si Si2 0.645909 0.710452 0.062666
Si Si3 0.825976 0.497404 0.701643
Si Si4 0.360824 0.892878 0.254228
Si Si5 0.526754 0.629156 0.300596
O O1 0.955479 0.211338 0.907501
O O2 0.916601 0.056246 0.823165
O O3 0.904428 0.095573 0.083334
O O4 0.657317 0.627264 0.042228
O O5 0.583772 0.701453 0.189236
O O6 0.596407 0.716804 0.930518
O O7 0.725468 0.450936 0.750000
O O8 0.822388 0.503789 0.540080
O O9 0.864473 0.436221 0.751250
O O10 0.466095 0.932189 0.250000
O O11 0.322085 0.850116 0.107552
O O12 0.570142 0.570142 0.333334
#
# Coordination Sequence:
#
# PCOD8326090 Si02
#       5
#    12  12  12  12  12
#     4  10  24  44  72  99 137 177 217 276 351 426
#     4  11  20  34  68 100 127 165 235 288 328 393
#     4  11  21  31  58  99 134 183 231 275 335 404
#     4   9  19  36  61  90 135 180 220 281 346 382
#     4   9  19  40  63  92 128 176 223 288 343 385
#
# _framework density 22.568527
#
# number of rings (size 3 to 8) (size 9 to 14) (size 15 to 20)
#    0.000    2.000    0.000    5.400    8.400    0.000 
#    0.000    1.000   44.000   18.000    0.000    0.000 
#    0.000    0.000    0.000    0.000    0.000    0.000 
#
# Total GULP energy -743445.636994 kJ/mol
# GULP energy per Si atom -12390.760617 kJ/mol
# Density = 2.251716 g / cm^3
# Si number density = 22.568527 Si / 1000 Ang^3
#
#
#
# Elastic Constant Matrix: (Units=GPa)
#
#
# Indices 1 2 3 4 5 6 
#
# 1 104.5041 64.3884 46.1707 0.0000 0.0000 0.0000
# 2 64.3884 104.5041 46.1707 0.0000 0.0000 0.0000
# 3 46.1707 46.1707 140.9466 0.0000 0.0000 0.0000
# 4 0.0000 0.0000 0.0000 17.8520 0.0000 0.0000
# 5 0.0000 0.0000 0.0000 0.0000 17.8520 0.0000
# 6 0.0000 0.0000 0.0000 0.0000 0.0000 20.0578
#
#
#
# Elastic Compliance Matrix: (Units=1/GPa)
#
#
# Indices 1 2 3 4 5 6 
#
# 1 0.016070 -0.008858 -0.002363 0.000000 0.000000 0.000000
# 2 -0.008858 0.016070 -0.002363 0.000000 0.000000 0.000000
# 3 -0.002363 -0.002363 0.008643 0.000000 0.000000 0.000000
# 4 0.000000 0.000000 0.000000 0.056016 0.000000 0.000000
# 5 0.000000 0.000000 0.000000 0.000000 0.056016 0.000000
# 6 0.000000 0.000000 0.000000 0.000000 0.000000 0.049856
#
#
# Mechanical properties :
#
#
# Convention : Reuss Voigt Hill
#
# Bulk Modulus (GPa) = 73.43535 73.71272 73.57404
# Shear Modulus (GPa) = 21.33316 24.03402 22.68359
#
# Velocity S-wave (km/s) = 3.07785 3.26687 3.17377
# Velocity P-wave (km/s) = 6.72609 6.85293 6.78981
#
# Compressibility (1/GPa) = 0.01361742
#
# Stress axis : x y z
#
# Youngs Moduli (GPa) = 62.22651 62.22651 115.70293
#
# Poissons Ratio (x) = 0.55118 0.27337
# Poissons Ratio (y) = 0.55118 0.27337
# Poissons Ratio (z) = 0.14702 0.14702
#
# Static dielectric constant tensor:
#      x y z
#    x 3.897650 0.000000 0.000000 
#    y 0.000000 3.897650 0.000000 
#    z 0.000000 0.000000 4.793280 
# 
# 
# High freq. dielectric constant tensor:
#      x y z
#    x 1.873760 0.000000 0.000000 
#    y 0.000000 1.873760 0.000000 
#    z 0.000000 0.000000 1.900490 
# 
# From -- ./inp_files/4694.got.cif
#   From: 2010.03.12/outbox.cif.g09.slc.cpg/sg179_3_cif.got.tgz:4694.got - 2010.04.02 07:08:42.
