data_PCOD8326166
_publ_section_title
;
Structure prediction by ZEFSAII (Michael W. Deem and Ramdas Pophale) SiO2 
 PCOD8326166
Probable space group: P 62 2 2
;
_chemical_formula_sum "Si O2"
_cell_formula_units_Z 54
_cell_length_a 11.805256
_cell_length_b 11.805256
_cell_length_c 22.063543
_cell_angle_alpha 90.000000
_cell_angle_beta 90.000000
_cell_angle_gamma 120.000000
_cell_volume 2662.911319
_symmetry_space_group_name_H-M "P 62 2 2"
_symmetry_group_IT_number 180
_symmetry_cell_setting 'hexagonal'
loop_
_space_group_symop_operation_xyz
x,y,z
x-y,x,1/3+z
-y,x-y,2/3+z
-x,-y,z
-x+y,-x,1/3+z
y,-x+y,2/3+z
x-y,-y,-z
-x,-x+y,1/3-z
y,x,2/3-z
-y,-x,2/3-z
-x+y,y,-z
x,x-y,1/3-z
loop_
_atom_site_type_symbol
_atom_site_label
_atom_site_fract_x
_atom_site_fract_y
_atom_site_fract_z
Si Si1 0.000000 0.300538 0.666667
Si Si2 0.275904 0.358056 0.047744
Si Si3 0.594147 0.271038 0.567317
Si Si4 0.798690 0.399345 0.666667
Si Si5 0.150622 0.074526 0.094787
Si Si6 0.500000 0.000000 0.630626
O O1 0.878311 0.323362 0.656962
O O2 0.989404 0.215883 0.726829
O O3 0.299052 0.473888 0.094171
O O4 0.226266 0.227160 0.083547
O O5 0.168700 0.337400 0.000000
O O6 0.402590 0.385724 0.009131
O O7 0.647196 0.294393 0.500000
O O8 0.709656 0.376893 0.608408
O O9 0.552870 0.125284 0.587986
O O10 0.155254 0.077627 0.166667
O O11 0.000000 0.000000 0.071953
#
# Coordination Sequence:
#
# PCOD8326166 Si02
#       6
#     6  12  12   6  12   6
#     4  11  25  44  70  88 141 181 216 272 340 409
#     4  10  21  41  65  92 129 169 214 274 336 389
#     4  11  23  40  67 100 133 170 224 283 338 410
#     4  11  24  46  64 104 135 180 214 272 347 412
#     4  11  25  44  65  98 128 176 233 278 331 401
#     4  10  19  42  64  96 126 171 214 270 340 395
#
# _framework density 20.278558
#
# number of rings (size 3 to 8) (size 9 to 14) (size 15 to 20)
#    0.000    1.333    3.333    3.333    3.111    2.667 
#    8.000    0.000    0.000    0.000    0.000    0.000 
#    0.000    0.000    0.000    0.000    0.000    0.000 
#
# Total GULP energy -669364.533582 kJ/mol
# GULP energy per Si atom -12395.639511 kJ/mol
# Density = 2.023240 g / cm^3
# Si number density = 20.278558 Si / 1000 Ang^3
#
#
#
# Elastic Constant Matrix: (Units=GPa)
#
#
# Indices 1 2 3 4 5 6 
#
# 1 135.1752 27.3070 47.4692 0.0000 0.0000 0.0000
# 2 27.3070 135.1752 47.4692 0.0000 0.0000 0.0000
# 3 47.4692 47.4692 134.7798 0.0000 0.0000 0.0000
# 4 0.0000 0.0000 0.0000 60.3853 0.0000 0.0000
# 5 0.0000 0.0000 0.0000 0.0000 60.3853 0.0000
# 6 0.0000 0.0000 0.0000 0.0000 0.0000 53.9341
#
#
#
# Elastic Compliance Matrix: (Units=1/GPa)
#
#
# Indices 1 2 3 4 5 6 
#
# 1 0.008510 -0.000761 -0.002729 0.000000 0.000000 0.000000
# 2 -0.000761 0.008510 -0.002729 0.000000 0.000000 0.000000
# 3 -0.002729 -0.002729 0.009342 0.000000 0.000000 0.000000
# 4 0.000000 0.000000 0.000000 0.016560 0.000000 0.000000
# 5 0.000000 0.000000 0.000000 0.000000 0.016560 0.000000
# 6 0.000000 0.000000 0.000000 0.000000 0.000000 0.018541
#
#
# Mechanical properties :
#
#
# Convention : Reuss Voigt Hill
#
# Bulk Modulus (GPa) = 71.82156 72.18011 72.00083
# Shear Modulus (GPa) = 52.57455 53.79996 53.18725
#
# Velocity S-wave (km/s) = 5.09730 5.15636 5.12692
# Velocity P-wave (km/s) = 8.37482 8.43340 8.40416
#
# Compressibility (1/GPa) = 0.01392340
#
# Stress axis : x y z
#
# Youngs Moduli (GPa) = 117.51024 117.51024 107.04361
#
# Poissons Ratio (x) = 0.08939 0.29215
# Poissons Ratio (y) = 0.08939 0.29215
# Poissons Ratio (z) = 0.32072 0.32072
#
# Static dielectric constant tensor:
#      x y z
#    x 3.426480 0.000000 0.000000 
#    y 0.000000 3.426480 0.000000 
#    z 0.000000 0.000000 3.323290 
# 
# 
# High freq. dielectric constant tensor:
#      x y z
#    x 1.805290 0.000000 0.000000 
#    y 0.000000 1.805290 0.000000 
#    z 0.000000 0.000000 1.789390 
# 
# From -- ./inp_files/10132.got.cif
#   From: 2010.03.12/outbox.cif.g09.slc.cpg/sg180_6_cif.got.tgz:10132.got - 2010.04.01 11:35:50.
