data_PCOD8326646
_publ_section_title
;
Structure prediction by ZEFSAII (Michael W. Deem and Ramdas Pophale) SiO2 
 PCOD8326646
Probable space group: P 63 C M
;
_chemical_formula_sum "Si O2"
_cell_formula_units_Z 48
_cell_length_a 16.288670
_cell_length_b 16.288670
_cell_length_c 10.392912
_cell_angle_alpha 90.000000
_cell_angle_beta 90.000000
_cell_angle_gamma 120.000000
_cell_volume 2388.026442
_symmetry_space_group_name_H-M "P 63 C M"
_symmetry_group_IT_number 185
_symmetry_cell_setting 'hexagonal'
loop_
_space_group_symop_operation_xyz
x,y,z
x-y,x,1/2+z
-y,x-y,z
-x,-y,1/2+z
-x+y,-x,z
y,-x+y,1/2+z
-x+y,y,1/2+z
x,x-y,1/2+z
-y,-x,1/2+z
y,x,z
x-y,-y,z
-x,-x+y,z
loop_
_atom_site_type_symbol
_atom_site_label
_atom_site_fract_x
_atom_site_fract_y
_atom_site_fract_z
Si Si1 0.395554 0.787709 0.858200
Si Si2 0.111747 0.507424 0.107691
Si Si3 0.887729 0.112365 0.855338
Si Si4 0.790881 0.112431 0.605532
O O1 0.280829 0.722135 0.853606
O O2 0.431544 0.857928 0.737672
O O3 0.426417 0.846956 0.989086
O O4 0.150747 0.433736 0.105735
O O5 0.000000 0.453894 0.097216
O O6 0.857342 0.149793 0.731008
O O7 0.000000 0.157141 0.855987
O O8 0.842066 0.000000 0.855327
O O9 0.850696 0.143507 0.979333
O O10 0.733320 0.000000 0.606799
#
# Coordination Sequence:
#
# PCOD8326646 Si02
#       4
#    12  12  12  12
#     4  10  23  41  66  92 122 158 194 247 301 356
#     4  11  22  41  63  91 122 158 199 245 299 367
#     4  10  19  35  56  84 120 164 210 251 297 350
#     4   9  21  35  53  83 118 152 199 253 296 345
#
# _framework density 20.100280999999999
#
# number of rings (size 3 to 8) (size 9 to 14) (size 15 to 20)
#    0.500    1.500    0.000    3.250    3.500    0.000 
#    0.000    2.500    0.000    0.000    0.000    0.000 
#    0.000    0.000    0.000    0.000    0.000    0.000 
#
# Total GULP energy -595178.109157 kJ/mol
# GULP energy per Si atom -12399.543941 kJ/mol
# Density = 2.005453 g / cm^3
# Si number density = 20.100281 Si / 1000 Ang^3
#
#
#
# Elastic Constant Matrix: (Units=GPa)
#
#
# Indices 1 2 3 4 5 6 
#
# 1 67.8005 33.1399 34.9194 0.0000 0.0000 0.0000
# 2 33.1399 67.8005 34.9194 0.0000 0.0000 0.0000
# 3 34.9194 34.9194 167.6031 0.0000 0.0000 0.0000
# 4 0.0000 0.0000 0.0000 19.6333 0.0000 0.0000
# 5 0.0000 0.0000 0.0000 0.0000 19.6333 0.0000
# 6 0.0000 0.0000 0.0000 0.0000 0.0000 17.3303
#
#
#
# Elastic Compliance Matrix: (Units=1/GPa)
#
#
# Indices 1 2 3 4 5 6 
#
# 1 0.020213 -0.008638 -0.002412 0.000000 0.000000 0.000000
# 2 -0.008638 0.020213 -0.002412 0.000000 0.000000 0.000000
# 3 -0.002412 -0.002412 0.006971 0.000000 0.000000 0.000000
# 4 0.000000 0.000000 0.000000 0.050934 0.000000 0.000000
# 5 0.000000 0.000000 0.000000 0.000000 0.050934 0.000000
# 6 0.000000 0.000000 0.000000 0.000000 0.000000 0.057702
#
#
# Mechanical properties :
#
#
# Convention : Reuss Voigt Hill
#
# Bulk Modulus (GPa) = 48.83879 56.57349 52.70614
# Shear Modulus (GPa) = 20.77139 24.66775 22.71957
#
# Velocity S-wave (km/s) = 3.21812 3.50699 3.36566
# Velocity P-wave (km/s) = 6.17728 6.67872 6.43289
#
# Compressibility (1/GPa) = 0.02047553
#
# Stress axis : x y z
#
# Youngs Moduli (GPa) = 49.47231 49.47231 143.44293
#
# Poissons Ratio (x) = 0.42734 0.34594
# Poissons Ratio (y) = 0.42734 0.34594
# Poissons Ratio (z) = 0.11931 0.11931
#
# Static dielectric constant tensor:
#      x y z
#    x 3.522710 0.000000 0.000000 
#    y 0.000000 3.522710 0.000000 
#    z 0.000000 0.000000 3.838860 
# 
# 
# High freq. dielectric constant tensor:
#      x y z
#    x 1.775430 0.000000 0.000000 
#    y 0.000000 1.775430 0.000000 
#    z 0.000000 0.000000 1.801780 
# 
# From -- ./inp_files/362.got.cif
#   From: 2010.03.12/outbox.cif.g09.slc.cpg/sg185_cif.got.tgz:362.got - 2010.04.01 11:55:19.
