data_PCOD8326148
_publ_section_title
;
Structure prediction by ZEFSAII (Michael W. Deem and Ramdas Pophale) SiO2 
 PCOD8326148
Probable space group: P 62 2 2
;
_chemical_formula_sum "Si O2"
_cell_formula_units_Z 51
_cell_length_a 12.454482
_cell_length_b 12.454482
_cell_length_c 20.049480
_cell_angle_alpha 90.000000
_cell_angle_beta 90.000000
_cell_angle_gamma 120.000000
_cell_volume 2693.302186
_symmetry_space_group_name_H-M "P 62 2 2"
_symmetry_group_IT_number 180
_symmetry_cell_setting 'hexagonal'
loop_
_space_group_symop_operation_xyz
x,y,z
x-y,x,1/3+z
-y,x-y,2/3+z
-x,-y,z
-x+y,-x,1/3+z
y,-x+y,2/3+z
x-y,-y,-z
-x,-x+y,1/3-z
y,x,2/3-z
-y,-x,2/3-z
-x+y,y,-z
x,x-y,1/3-z
loop_
_atom_site_type_symbol
_atom_site_label
_atom_site_fract_x
_atom_site_fract_y
_atom_site_fract_z
Si Si1 0.762188 0.237813 0.833334
Si Si2 0.500000 0.000000 0.000000
Si Si3 0.212039 0.424077 0.000000
Si Si4 0.168644 0.502408 0.772522
Si Si5 0.563933 0.426983 0.911849
Si Si6 0.367355 0.382880 0.099717
O O1 0.790759 0.354947 0.787660
O O2 0.880204 0.268330 0.880777
O O3 0.619354 0.074220 0.045595
O O4 0.299212 0.512684 0.941470
O O5 0.077584 0.346924 0.962695
O O6 0.280469 0.488066 0.741563
O O7 0.106139 0.416664 0.836707
O O8 0.500000 0.500000 0.943527
O O9 0.565990 0.434011 0.833334
O O10 0.500000 0.500000 0.078949
#
# Coordination Sequence:
#
# PCOD8326148 Si02
#       6
#     6   3   6  12  12  12
#     4  10  18  38  59  82 127 162 192 258 310 364
#     4  12  22  32  60  92 120 168 206 250 320 376
#     4  12  21  36  58  87 119 159 202 242 312 374
#     4  11  20  37  56  88 128 156 209 250 307 386
#     4  11  22  37  58  86 122 162 198 253 313 369
#     4  10  20  36  57  87 120 163 199 251 308 371
#
# _framework density 18.935863000000001
#
# number of rings (size 3 to 8) (size 9 to 14) (size 15 to 20)
#    0.000    1.176    7.059    2.824    0.000    1.882 
#    0.000    0.000    0.000    0.000    0.000    4.941 
#    0.000    0.000    0.000    0.000    0.000    0.000 
#
# Total GULP energy -631928.642958 kJ/mol
# GULP energy per Si atom -12390.757705 kJ/mol
# Density = 1.889276 g / cm^3
# Si number density = 18.935863 Si / 1000 Ang^3
#
#
#
# Elastic Constant Matrix: (Units=GPa)
#
#
# Indices 1 2 3 4 5 6 
#
# 1 99.9855 40.9458 37.5876 0.0000 0.0000 0.0000
# 2 40.9458 99.9855 37.5876 0.0000 0.0000 0.0000
# 3 37.5876 37.5876 95.7220 0.0000 0.0000 0.0000
# 4 0.0000 0.0000 0.0000 80.7180 0.0000 0.0000
# 5 0.0000 0.0000 0.0000 0.0000 80.7180 0.0000
# 6 0.0000 0.0000 0.0000 0.0000 0.0000 29.5198
#
#
#
# Elastic Compliance Matrix: (Units=1/GPa)
#
#
# Indices 1 2 3 4 5 6 
#
# 1 0.012957 -0.003981 -0.003525 0.000000 0.000000 0.000000
# 2 -0.003981 0.012957 -0.003525 0.000000 0.000000 0.000000
# 3 -0.003525 -0.003525 0.013215 0.000000 0.000000 0.000000
# 4 0.000000 0.000000 0.000000 0.012389 0.000000 0.000000
# 5 0.000000 0.000000 0.000000 0.000000 0.012389 0.000000
# 6 0.000000 0.000000 0.000000 0.000000 0.000000 0.033876
#
#
# Mechanical properties :
#
#
# Convention : Reuss Voigt Hill
#
# Bulk Modulus (GPa) = 58.58855 58.65947 58.62401
# Shear Modulus (GPa) = 39.83077 50.16262 44.99670
#
# Velocity S-wave (km/s) = 4.59132 5.15251 4.87999
# Velocity P-wave (km/s) = 7.68861 8.15126 7.92331
#
# Compressibility (1/GPa) = 0.01706818
#
# Stress axis : x y z
#
# Youngs Moduli (GPa) = 77.17999 77.17999 75.67213
#
# Poissons Ratio (x) = 0.30726 0.26671
# Poissons Ratio (y) = 0.30726 0.26671
# Poissons Ratio (z) = 0.27202 0.27202
#
# Static dielectric constant tensor:
#      x y z
#    x 2.751140 0.000000 0.000000 
#    y 0.000000 2.751140 0.000000 
#    z 0.000000 0.000000 3.574630 
# 
# 
# High freq. dielectric constant tensor:
#      x y z
#    x 1.709790 0.000000 0.000000 
#    y 0.000000 1.709790 0.000000 
#    z 0.000000 0.000000 1.756470 
# 
# From -- ./inp_files/8927.got.cif
#   From: 2010.03.12/outbox.cif.g09.slc.cpg/sg180_5_cif.got.tgz:8927.got - 2010.04.01 11:35:50.
