data_PCOD8326527
_publ_section_title
;
Structure prediction by ZEFSAII (Michael W. Deem and Ramdas Pophale) SiO2 
 PCOD8326527
Probable space group: P 6 M M
;
_chemical_formula_sum "Si O2"
_cell_formula_units_Z 60
_cell_length_a 18.227949
_cell_length_b 18.227949
_cell_length_c 11.770604
_cell_angle_alpha 90.000000
_cell_angle_beta 90.000000
_cell_angle_gamma 120.000000
_cell_volume 3386.920402
_symmetry_space_group_name_H-M "P 6 M M"
_symmetry_group_IT_number 183
_symmetry_cell_setting 'hexagonal'
loop_
_space_group_symop_operation_xyz
x,y,z
x-y,x,z
-y,x-y,z
-x,-y,z
-x+y,-x,z
y,-x+y,z
-x+y,y,z
x,x-y,z
-y,-x,z
y,x,z
x-y,-y,z
-x,-x+y,z
loop_
_atom_site_type_symbol
_atom_site_label
_atom_site_fract_x
_atom_site_fract_y
_atom_site_fract_z
Si Si1 0.903461 0.806921 0.203260
Si Si2 0.806715 0.193286 0.203962
Si Si3 0.465539 0.097024 0.595129
Si Si4 0.903461 0.096540 0.473703
Si Si5 0.902976 0.368515 0.081821
Si Si6 0.497139 0.162501 0.838475
Si Si7 0.806715 0.613429 0.472991
O O1 0.855017 0.855017 0.157010
O O2 0.855112 0.710223 0.157991
O O3 0.903955 0.807909 0.338482
O O4 0.851228 0.288701 0.161230
O O5 0.806699 0.193302 0.338477
O O6 0.564456 0.128911 0.571996
O O7 0.450963 0.107156 0.727833
O O8 0.437474 0.148773 0.515722
O O9 0.408559 0.000000 0.561004
O O10 0.855111 0.144890 0.518968
O O11 0.000000 0.144983 0.519955
O O12 0.871088 0.435544 0.104954
O O13 0.000000 0.408561 0.115945
O O14 0.892842 0.343805 0.949118
O O15 0.595977 0.191954 0.838476
O O16 0.487556 0.243778 0.838473
#
# Coordination Sequence:
#
# PCOD8326527 Si02
#       7
#     6   6  12   6  12  12   6
#     4   9  17  30  50  75 103 136 177 225 271 315
#     4  11  22  36  53  78 111 151 189 225 268 322
#     4  10  21  37  57  80 108 142 182 228 277 328
#     4   9  17  30  50  75 103 136 177 225 271 315
#     4  10  21  37  57  80 108 142 182 228 277 328
#     4  10  18  33  57  84 107 133 172 225 284 331
#     4  11  22  36  53  78 111 151 189 225 268 322
#
# _framework density 17.715208000000001
#
# number of rings (size 3 to 8) (size 9 to 14) (size 15 to 20)
#    0.000    2.000    2.000    2.200    0.000    6.400 
#    1.200    2.000    0.000    0.000    0.000    0.000 
#    0.000    0.000    0.000    8.600    0.000    3.800 
#
# Total GULP energy -744047.666307 kJ/mol
# GULP energy per Si atom -12400.794438 kJ/mol
# Density = 1.767489 g / cm^3
# Si number density = 17.715208 Si / 1000 Ang^3
#
#
#
# Elastic Constant Matrix: (Units=GPa)
#
#
# Indices 1 2 3 4 5 6 
#
# 1 118.0358 72.8510 43.0117 0.0000 0.0000 0.0000
# 2 72.8510 118.0358 43.0117 0.0000 0.0000 0.0000
# 3 43.0117 43.0117 68.8994 0.0000 0.0000 0.0000
# 4 0.0000 0.0000 0.0000 24.5505 0.0000 0.0000
# 5 0.0000 0.0000 0.0000 0.0000 24.5505 0.0000
# 6 0.0000 0.0000 0.0000 0.0000 0.0000 22.5924
#
#
#
# Elastic Compliance Matrix: (Units=1/GPa)
#
#
# Indices 1 2 3 4 5 6 
#
# 1 0.014710 -0.007421 -0.004551 0.000000 0.000000 0.000000
# 2 -0.007421 0.014710 -0.004551 0.000000 0.000000 0.000000
# 3 -0.004551 -0.004551 0.020195 0.000000 0.000000 0.000000
# 4 0.000000 0.000000 0.000000 0.040732 0.000000 0.000000
# 5 0.000000 0.000000 0.000000 0.000000 0.040732 0.000000
# 6 0.000000 0.000000 0.000000 0.000000 0.000000 0.044263
#
#
# Mechanical properties :
#
#
# Convention : Reuss Voigt Hill
#
# Bulk Modulus (GPa) = 60.34244 69.19108 64.76676
# Shear Modulus (GPa) = 23.37411 24.07844 23.72628
#
# Velocity S-wave (km/s) = 3.63635 3.69073 3.66364
# Velocity P-wave (km/s) = 7.19494 7.56995 7.38483
#
# Compressibility (1/GPa) = 0.01657208
#
# Stress axis : x y z
#
# Youngs Moduli (GPa) = 67.97924 67.97924 49.51611
#
# Poissons Ratio (x) = 0.50447 0.22533
# Poissons Ratio (y) = 0.50447 0.22533
# Poissons Ratio (z) = 0.30934 0.30934
#
# Static dielectric constant tensor:
#      x y z
#    x 3.405920 0.000000 0.000000 
#    y 0.000000 3.405920 0.000000 
#    z 0.000000 0.000000 3.104360 
# 
# 
# High freq. dielectric constant tensor:
#      x y z
#    x 1.693820 0.000000 0.000000 
#    y 0.000000 1.693820 0.000000 
#    z 0.000000 0.000000 1.660820 
# 
# From -- ./inp_files/1635.got.cif
#   From: 2010.03.12/outbox.cif.g09.slc.cpg/sg183_1_cif.got.tgz:1635.got - 2010.04.01 11:53:02.
