data_PCOD8326982
_publ_section_title
;
Structure prediction by ZEFSAII (Michael W. Deem and Ramdas Pophale) SiO2 
 PCOD8326982
Probable space group: P -6 M 2
;
_chemical_formula_sum "Si O2"
_cell_formula_units_Z 96
_cell_length_a 17.285810
_cell_length_b 17.285810
_cell_length_c 20.939323
_cell_angle_alpha 90.000000
_cell_angle_beta 90.000000
_cell_angle_gamma 120.000000
_cell_volume 5418.420903
_symmetry_space_group_name_H-M "P -6 M 2"
_symmetry_group_IT_number 187
_symmetry_cell_setting 'hexagonal'
loop_
_space_group_symop_operation_xyz
x,y,z
-x+y,-x,-z
-y,x-y,z
x,y,-z
-x+y,-x,z
-y,x-y,-z
-y,-x,-z
-x+y,y,-z
x,x-y,-z
-x+y,y,z
x,x-y,z
-y,-x,z
loop_
_atom_site_type_symbol
_atom_site_label
_atom_site_fract_x
_atom_site_fract_y
_atom_site_fract_z
Si Si1 0.332749 0.842989 0.616224
Si Si2 0.424619 0.392217 0.571096
Si Si3 0.847772 0.513726 0.313757
Si Si4 0.159046 0.492207 0.766670
Si Si5 0.366208 0.027704 0.794991
Si Si6 0.167054 0.999240 0.083094
Si Si7 0.726208 0.090906 0.930434
Si Si8 0.826780 0.000484 0.230543
O O1 0.412801 0.825602 0.596027
O O2 0.240506 0.759494 0.591947
O O3 0.332182 0.855852 0.691550
O O4 0.342918 0.932592 0.584293
O O5 0.414912 0.351868 0.500000
O O6 0.513596 0.486405 0.578627
O O7 0.428968 0.325334 0.622505
O O8 0.758937 0.517873 0.301868
O O9 0.822584 0.411292 0.321977
O O10 0.912978 0.555011 0.253668
O O11 0.238350 0.476699 0.790772
O O12 0.184851 0.592426 0.784569
O O13 0.069609 0.423603 0.802865
O O14 0.402169 0.073221 0.864902
O O15 0.274470 0.017458 0.765932
O O16 0.157636 0.078818 0.051590
O O17 0.262630 0.011829 0.065937
O O18 0.151020 0.998961 0.157483
O O19 0.093851 0.906150 0.052429
O O20 0.814186 0.185815 0.921339
O O21 0.680205 0.089411 0.000000
O O22 0.914664 0.085337 0.262738
O O23 0.808827 0.904414 0.260430
#
# Coordination Sequence:
#
# PCOD8326982 Si02
#       8
#    12  12  12  12  12  12  12  12
#     4   9  16  28  47  74 107 144 181 217 258 307
#     4   9  18  33  51  73 105 140 170 205 250 295
#     4  11  22  37  56  78 102 130 166 210 261 316
#     4  10  19  32  51  76 105 137 174 217 263 311
#     4  11  19  32  53  77 100 130 169 216 264 313
#     4   8  13  21  34  53  80 116 156 195 237 288
#     4   9  18  31  45  65  95 128 162 205 257 310
#     4   9  16  26  41  64  95 130 166 205 251 305
#
# _framework density 17.717338000000002
#
# number of rings (size 3 to 8) (size 9 to 14) (size 15 to 20)
#    0.000    2.500    1.250    3.250    0.000    3.250 
#    0.000    0.000    0.000    3.750    0.000    0.000 
#    0.000    2.000    0.000    0.000    0.000    1.875 
#
# Total GULP energy -1189317.390813 kJ/mol
# GULP energy per Si atom -12388.722821 kJ/mol
# Density = 1.767701 g / cm^3
# Si number density = 17.717338 Si / 1000 Ang^3
#
#
#
# Elastic Constant Matrix: (Units=GPa)
#
#
# Indices 1 2 3 4 5 6 
#
# 1 67.8627 17.7195 25.4994 0.0000 0.0001 0.0000
# 2 17.7195 67.8627 25.4994 0.0000 -0.0001 0.0000
# 3 25.4994 25.4994 86.7944 0.0000 0.0000 0.0000
# 4 0.0000 0.0000 0.0000 24.8941 0.0000 -0.0001
# 5 0.0001 -0.0001 0.0000 0.0000 24.8941 0.0000
# 6 0.0000 0.0000 0.0000 -0.0001 0.0000 25.0716
#
#
#
# Elastic Compliance Matrix: (Units=1/GPa)
#
#
# Indices 1 2 3 4 5 6 
#
# 1 0.017054 -0.002889 -0.004161 0.000000 0.000000 0.000000
# 2 -0.002889 0.017054 -0.004161 0.000000 0.000000 0.000000
# 3 -0.004161 -0.004161 0.013967 0.000000 0.000000 0.000000
# 4 0.000000 0.000000 0.000000 0.040170 0.000000 0.000000
# 5 0.000000 0.000000 0.000000 0.000000 0.040170 0.000000
# 6 0.000000 0.000000 0.000000 0.000000 0.000000 0.039886
#
#
# Mechanical properties :
#
#
# Convention : Reuss Voigt Hill
#
# Bulk Modulus (GPa) = 38.98634 39.99515 39.49075
# Shear Modulus (GPa) = 25.09108 25.22540 25.15824
#
# Velocity S-wave (km/s) = 3.76731 3.77738 3.77235
# Velocity P-wave (km/s) = 6.40124 6.45351 6.42743
#
# Compressibility (1/GPa) = 0.02565001
#
# Stress axis : x y z
#
# Youngs Moduli (GPa) = 58.63843 58.63843 71.59920
#
# Poissons Ratio (x) = 0.16942 0.29795
# Poissons Ratio (y) = 0.16942 0.29795
# Poissons Ratio (z) = 0.24402 0.24402
#
# Static dielectric constant tensor:
#      x y z
#    x 3.237030 0.000000 0.000000 
#    y 0.000000 3.237030 0.000000 
#    z 0.000000 0.000000 3.317460 
# 
# 
# High freq. dielectric constant tensor:
#      x y z
#    x 1.669980 0.000000 0.000000 
#    y 0.000000 1.669980 0.000000 
#    z 0.000000 0.000000 1.666280 
# 
# From -- ./inp_files/3804.got.cif
#   From: 2010.03.12/outbox.cif.g09.slc.cpg/sg187_2_cif.got.tgz:3804.got - 2010.04.01 11:58:23.
