data_PCOD8326718
_publ_section_title
;
Structure prediction by ZEFSAII (Michael W. Deem and Ramdas Pophale) SiO2 
 PCOD8326718
Probable space group: P 63 M C
;
_chemical_formula_sum "Si O2"
_cell_formula_units_Z 72
_cell_length_a 22.395254
_cell_length_b 22.395254
_cell_length_c 14.671677
_cell_angle_alpha 90.000000
_cell_angle_beta 90.000000
_cell_angle_gamma 120.000000
_cell_volume 6372.683855
_symmetry_space_group_name_H-M "P 63 M C"
_symmetry_group_IT_number 186
_symmetry_cell_setting 'hexagonal'
loop_
_space_group_symop_operation_xyz
x,y,z
x-y,x,1/2+z
-y,x-y,z
-x,-y,1/2+z
-x+y,-x,z
y,-x+y,1/2+z
-x+y,y,z
x,x-y,z
-y,-x,z
y,x,1/2+z
x-y,-y,1/2+z
-x,-x+y,1/2+z
loop_
_atom_site_type_symbol
_atom_site_label
_atom_site_fract_x
_atom_site_fract_y
_atom_site_fract_z
Si Si1 0.496163 0.133667 0.188670
Si Si2 0.538315 0.934710 0.382976
Si Si3 0.581718 0.560495 0.688670
Si Si4 0.805188 0.473437 0.379423
Si Si5 0.461685 0.396396 0.494363
Si Si6 0.668249 0.473437 0.997917
O O1 0.563751 0.127501 0.188669
O O2 0.430847 0.056384 0.188670
O O3 0.495119 0.174346 0.278034
O O4 0.495119 0.174346 0.099306
O O5 0.468763 0.937525 0.387373
O O6 0.525212 0.863850 0.428026
O O7 0.563177 0.938622 0.278595
O O8 0.596831 1.000000 0.438670
O O9 0.508806 0.491195 0.688671
O O10 0.624555 0.563177 0.598745
O O11 0.734510 0.469020 0.409109
O O12 0.794932 0.397466 0.383709
O O13 0.863851 0.525211 0.449314
O O14 0.531236 0.468764 0.489966
O O15 0.734510 0.469019 0.968232
O O16 0.602534 0.397467 0.993632
#
# Coordination Sequence:
#
# PCOD8326718 Si02
#       6
#    12  12  12  12  12  12
#     4   9  15  23  37  52  67  84 104 134 171 208
#     4   9  15  24  38  51  63  82 109 139 165 192
#     4   9  14  23  38  54  64  74 105 146 170 188
#     4  10  18  26  35  50  71  92 109 130 168 217
#     4   9  15  24  38  51  63  82 109 139 165 192
#     4  10  18  26  35  50  71  92 109 130 168 217
#
# _framework density 11.298223
#
# number of rings (size 3 to 8) (size 9 to 14) (size 15 to 20)
#    0.000    2.667    3.333    0.833    0.000    0.000 
#    0.000    2.500    0.000    0.000    0.000    2.333 
#    0.000    0.000    0.000    0.000    0.000    0.000 
#
# Total GULP energy -892436.449511 kJ/mol
# GULP energy per Si atom -12394.950688 kJ/mol
# Density = 1.127251 g / cm^3
# Si number density = 11.298223 Si / 1000 Ang^3
#
#
#
# Elastic Constant Matrix: (Units=GPa)
#
#
# Indices 1 2 3 4 5 6 
#
# 1 45.7388 27.9599 31.8048 0.0000 0.0000 0.0000
# 2 27.9599 45.7388 31.8048 0.0000 0.0000 0.0000
# 3 31.8048 31.8048 99.0423 0.0000 0.0000 0.0000
# 4 0.0000 0.0000 0.0000 12.7153 0.0000 0.0000
# 5 0.0000 0.0000 0.0000 0.0000 12.7153 0.0000
# 6 0.0000 0.0000 0.0000 0.0000 0.0000 8.8895
#
#
#
# Elastic Compliance Matrix: (Units=1/GPa)
#
#
# Indices 1 2 3 4 5 6 
#
# 1 0.037509 -0.018737 -0.006028 0.000000 0.000000 0.000000
# 2 -0.018737 0.037509 -0.006028 0.000000 0.000000 0.000000
# 3 -0.006028 -0.006028 0.013968 0.000000 0.000000 0.000000
# 4 0.000000 0.000000 0.000000 0.078645 0.000000 0.000000
# 5 0.000000 0.000000 0.000000 0.000000 0.078645 0.000000
# 6 0.000000 0.000000 0.000000 0.000000 0.000000 0.112493
#
#
# Mechanical properties :
#
#
# Convention : Reuss Voigt Hill
#
# Bulk Modulus (GPa) = 36.49728 41.51764 39.00746
# Shear Modulus (GPa) = 11.64175 13.46073 12.55124
#
# Velocity S-wave (km/s) = 3.21348 3.45541 3.33664
# Velocity P-wave (km/s) = 6.79281 7.26269 7.03168
#
# Compressibility (1/GPa) = 0.02739930
#
# Stress axis : x y z
#
# Youngs Moduli (GPa) = 26.66034 26.66034 71.59150
#
# Poissons Ratio (x) = 0.49954 0.43155
# Poissons Ratio (y) = 0.49954 0.43155
# Poissons Ratio (z) = 0.16071 0.16071
#
# Static dielectric constant tensor:
#      x y z
#    x 2.135670 0.000000 0.000000 
#    y 0.000000 2.135670 0.000000 
#    z 0.000000 0.000000 2.668790 
# 
# 
# High freq. dielectric constant tensor:
#      x y z
#    x 1.387250 0.000000 0.000000 
#    y 0.000000 1.387250 0.000000 
#    z 0.000000 0.000000 1.443530 
# 
# From -- ./inp_files/1948.got.cif
#   From: 2010.03.12/outbox.cif.g09.slc.cpg/sg186_1_cif.got.tgz:1948.got - 2010.04.01 11:56:34.
