data_PCOD8326106
_publ_section_title
;
Structure prediction by ZEFSAII (Michael W. Deem and Ramdas Pophale) SiO2 
 PCOD8326106
Probable space group: P 65 2 2
;
_chemical_formula_sum "Si O2"
_cell_formula_units_Z 72
_cell_length_a 11.360998
_cell_length_b 11.360998
_cell_length_c 30.254288
_cell_angle_alpha 90.000000
_cell_angle_beta 90.000000
_cell_angle_gamma 120.000000
_cell_volume 3381.820366
_symmetry_space_group_name_H-M "P 65 2 2"
_symmetry_group_IT_number 179
_symmetry_cell_setting 'hexagonal'
loop_
_space_group_symop_operation_xyz
x,y,z
x-y,x,5/6+z
-y,x-y,2/3+z
-x,-y,1/2+z
-x+y,-x,1/3+z
y,-x+y,1/6+z
x-y,-y,-z
-x,-x+y,1/3-z
y,x,2/3-z
-y,-x,1/6-z
-x+y,y,1/2-z
x,x-y,5/6-z
loop_
_atom_site_type_symbol
_atom_site_label
_atom_site_fract_x
_atom_site_fract_y
_atom_site_fract_z
Si Si1 0.286333 0.523739 0.943722
Si Si2 0.026779 0.053557 0.250000
Si Si3 0.000000 0.604900 0.666667
Si Si4 0.533511 0.547388 0.741944
Si Si5 0.993404 0.256222 0.404739
Si Si6 0.511917 0.229635 0.214574
Si Si7 0.703134 0.804817 0.975141
O O1 0.321623 0.660812 0.916667
O O2 0.389345 0.469901 0.933253
O O3 0.141825 0.408671 0.924650
O O4 0.315717 0.546972 0.996388
O O5 0.102569 0.964771 0.253104
O O6 0.066001 0.146467 0.293812
O O7 0.945614 0.501200 0.626503
O O8 0.127574 0.739684 0.648690
O O9 0.460446 0.617225 0.717168
O O10 0.693759 0.634421 0.729999
O O11 0.111499 0.357375 0.439238
O O12 0.032249 0.296925 0.354189
O O13 0.602537 0.205074 0.250000
#
# Coordination Sequence:
#
# PCOD8326106 Si02
#       7
#    12   6   6  12  12  12  12
#     4  12  29  47  70 102 146 185 237 299 362 422
#     4  12  20  36  70 102 136 172 226 294 348 412
#     4  12  20  36  70 102 136 162 228 302 344 400
#     4  12  25  42  69 102 134 183 234 289 355 412
#     4  12  23  42  68 100 140 187 233 289 354 426
#     4  12  26  46  76 101 140 191 242 290 355 433
#     4  12  17  37  66 107 128 164 229 293 339 405
#
# _framework density 21.290309000000001
#
# number of rings (size 3 to 8) (size 9 to 14) (size 15 to 20)
#    0.000    0.000    8.333    2.500    4.667    0.000 
#    1.500    0.000    3.667    0.000    0.000    0.000 
#    0.000    0.000    0.000    0.000    0.000    0.000 
#
# Total GULP energy -892015.368529 kJ/mol
# GULP energy per Si atom -12389.102341 kJ/mol
# Density = 2.124185 g / cm^3
# Si number density = 21.290309 Si / 1000 Ang^3
#
#
#
# Elastic Constant Matrix: (Units=GPa)
#
#
# Indices 1 2 3 4 5 6 
#
# 1 85.0697 10.2703 24.4888 0.0000 0.0000 0.0000
# 2 10.2703 85.0697 24.4888 0.0000 0.0000 0.0000
# 3 24.4888 24.4888 155.7387 0.0000 0.0000 0.0000
# 4 0.0000 0.0000 0.0000 20.6136 0.0000 0.0000
# 5 0.0000 0.0000 0.0000 0.0000 20.6136 0.0000
# 6 0.0000 0.0000 0.0000 0.0000 0.0000 37.3997
#
#
#
# Elastic Compliance Matrix: (Units=1/GPa)
#
#
# Indices 1 2 3 4 5 6 
#
# 1 0.012390 -0.000979 -0.001794 0.000000 0.000000 0.000000
# 2 -0.000979 0.012390 -0.001794 0.000000 0.000000 0.000000
# 3 -0.001794 -0.001794 0.006985 0.000000 0.000000 0.000000
# 4 0.000000 0.000000 0.000000 0.048512 0.000000 0.000000
# 5 0.000000 0.000000 0.000000 0.000000 0.048512 0.000000
# 6 0.000000 0.000000 0.000000 0.000000 0.000000 0.026738
#
#
# Mechanical properties :
#
#
# Convention : Reuss Voigt Hill
#
# Bulk Modulus (GPa) = 44.19033 49.37487 46.78260
# Shear Modulus (GPa) = 29.03515 33.50072 31.26794
#
# Velocity S-wave (km/s) = 3.69694 3.97107 3.83645
# Velocity P-wave (km/s) = 6.24694 6.65337 6.45336
#
# Compressibility (1/GPa) = 0.02262939
#
# Stress axis : x y z
#
# Youngs Moduli (GPa) = 80.71162 80.71162 143.15841
#
# Poissons Ratio (x) = 0.07904 0.25686
# Poissons Ratio (y) = 0.07904 0.25686
# Poissons Ratio (z) = 0.14481 0.14481
#
# Static dielectric constant tensor:
#      x y z
#    x 3.774190 0.000000 0.000000 
#    y 0.000000 3.774190 0.000000 
#    z 0.000000 0.000000 5.072550 
# 
# 
# High freq. dielectric constant tensor:
#      x y z
#    x 1.819960 0.000000 0.000000 
#    y 0.000000 1.819960 0.000000 
#    z 0.000000 0.000000 1.858010 
# 
# From -- ./inp_files/9608.got.cif
#   From: 2010.03.12/outbox.cif.g09.slc.cpg/sg179_5_cif.got.tgz:9608.got - 2010.04.02 07:08:42.
