data_PCOD8326689
_publ_section_title
;
Structure prediction by ZEFSAII (Michael W. Deem and Ramdas Pophale) SiO2 
 PCOD8326689
Probable space group: P 63 C M
;
_chemical_formula_sum "Si O2"
_cell_formula_units_Z 64
_cell_length_a 13.660334
_cell_length_b 13.660334
_cell_length_c 19.190804
_cell_angle_alpha 90.000000
_cell_angle_beta 90.000000
_cell_angle_gamma 120.000000
_cell_volume 3101.318986
_symmetry_space_group_name_H-M "P 63 C M"
_symmetry_group_IT_number 185
_symmetry_cell_setting 'hexagonal'
loop_
_space_group_symop_operation_xyz
x,y,z
x-y,x,1/2+z
-y,x-y,z
-x,-y,1/2+z
-x+y,-x,z
y,-x+y,1/2+z
-x+y,y,1/2+z
x,x-y,1/2+z
-y,-x,1/2+z
y,x,z
x-y,-y,z
-x,-x+y,z
loop_
_atom_site_type_symbol
_atom_site_label
_atom_site_fract_x
_atom_site_fract_y
_atom_site_fract_z
Si Si1 0.000000 0.000000 0.915446
Si Si2 0.753497 0.624052 0.921595
Si Si3 0.000000 0.000000 0.083262
Si Si4 0.870731 0.331936 0.780147
Si Si5 0.870555 0.624052 0.577114
Si Si6 0.785267 0.000000 0.080953
Si Si7 0.461205 0.331936 0.718561
Si Si8 0.214733 0.214733 0.917755
O O1 0.000000 0.891549 0.882593
O O2 0.000000 0.000000 0.999354
O O3 0.728327 0.728327 0.921472
O O4 0.673873 0.531061 0.864611
O O5 0.884169 0.670192 0.898666
O O6 0.729016 0.569305 0.999354
O O7 0.108451 0.108451 0.116116
O O8 0.792781 0.207219 0.749354
O O9 0.830533 0.415266 0.749354
O O10 0.000000 0.374260 0.758416
O O11 0.786022 0.670192 0.600043
O O12 0.857188 0.531061 0.634098
O O13 0.000000 0.728327 0.577237
O O14 0.803113 0.000000 0.999354
O O15 0.374260 0.374260 0.740292
#
# Coordination Sequence:
#
# PCOD8326689 Si02
#       8
#     2  12   2  12  12   6  12   6
#     4   9  12  18  36  69 109 152 196 219 274 371
#     4   9  17  30  51  80 115 153 194 242 291 347
#     4   9  12  18  36  69 109 152 196 219 274 371
#     4  10  22  40  61  83 113 156 200 245 300 359
#     4   9  17  30  51  80 115 153 194 242 291 347
#     4   9  14  22  42  75 113 152 189 231 288 355
#     4  10  22  40  61  83 113 156 200 245 300 359
#     4   9  14  22  42  75 113 152 189 231 288 355
#
# _framework density 20.636381
#
# number of rings (size 3 to 8) (size 9 to 14) (size 15 to 20)
#    0.000    2.625    1.875    0.375    2.625    0.000 
#    0.000    1.875    0.000    2.625    0.000    0.000 
#    0.000    0.000    0.000    0.000    0.000    0.000 
#
# Total GULP energy -792988.577567 kJ/mol
# GULP energy per Si atom -12390.446524 kJ/mol
# Density = 2.058941 g / cm^3
# Si number density = 20.636381 Si / 1000 Ang^3
#
#
#
# Elastic Constant Matrix: (Units=GPa)
#
#
# Indices 1 2 3 4 5 6 
#
# 1 78.4512 38.6723 51.2815 0.0000 0.0000 0.0000
# 2 38.6723 78.4512 51.2815 0.0000 0.0000 0.0000
# 3 51.2815 51.2815 126.9280 0.0000 0.0000 0.0000
# 4 0.0000 0.0000 0.0000 28.4864 0.0000 0.0000
# 5 0.0000 0.0000 0.0000 0.0000 28.4864 0.0000
# 6 0.0000 0.0000 0.0000 0.0000 0.0000 19.8895
#
#
#
# Elastic Compliance Matrix: (Units=1/GPa)
#
#
# Indices 1 2 3 4 5 6 
#
# 1 0.019176 -0.005963 -0.005338 0.000000 0.000000 0.000000
# 2 -0.005963 0.019176 -0.005338 0.000000 0.000000 0.000000
# 3 -0.005338 -0.005338 0.012192 0.000000 0.000000 0.000000
# 4 0.000000 0.000000 0.000000 0.035104 0.000000 0.000000
# 5 0.000000 0.000000 0.000000 0.000000 0.035104 0.000000
# 6 0.000000 0.000000 0.000000 0.000000 0.000000 0.050278
#
#
# Mechanical properties :
#
#
# Convention : Reuss Voigt Hill
#
# Bulk Modulus (GPa) = 57.92258 62.92231 60.42245
# Shear Modulus (GPa) = 23.80230 24.87881 24.34055
#
# Velocity S-wave (km/s) = 3.39988 3.47591 3.43811
# Velocity P-wave (km/s) = 6.59859 6.83128 6.71594
#
# Compressibility (1/GPa) = 0.01726442
#
# Stress axis : x y z
#
# Youngs Moduli (GPa) = 52.14931 52.14931 82.02175
#
# Poissons Ratio (x) = 0.31098 0.43784
# Poissons Ratio (y) = 0.31098 0.43784
# Poissons Ratio (z) = 0.27838 0.27838
#
# Static dielectric constant tensor:
#      x y z
#    x 3.587150 0.000000 0.000000 
#    y 0.000000 3.587150 0.000000 
#    z 0.000000 0.000000 3.714910 
# 
# 
# High freq. dielectric constant tensor:
#      x y z
#    x 1.781230 0.000000 0.000000 
#    y 0.000000 1.781230 0.000000 
#    z 0.000000 0.000000 1.796700 
# 
# From -- ./inp_files/1689.got.cif
#   From: 2010.03.12/outbox.cif.g09.slc.cpg/sg185_cif.got.tgz:1689.got - 2010.04.01 11:55:19.
