data_PCOD8326405
_publ_section_title
;
Structure prediction by ZEFSAII (Michael W. Deem and Ramdas Pophale) SiO2 
 PCOD8326405
Probable space group: P 64 2 2
;
_chemical_formula_sum "Si O2"
_cell_formula_units_Z 66
_cell_length_a 11.580594
_cell_length_b 11.580594
_cell_length_c 28.149172
_cell_angle_alpha 90.000000
_cell_angle_beta 90.000000
_cell_angle_gamma 120.000000
_cell_volume 3269.323744
_symmetry_space_group_name_H-M "P 64 2 2"
_symmetry_group_IT_number 181
_symmetry_cell_setting 'hexagonal'
loop_
_space_group_symop_operation_xyz
x,y,z
x-y,x,2/3+z
-y,x-y,1/3+z
-x,-y,z
-x+y,-x,2/3+z
y,-x+y,1/3+z
x-y,-y,-z
-x,-x+y,2/3-z
y,x,1/3-z
-y,-x,1/3-z
-x+y,y,-z
x,x-y,2/3-z
loop_
_atom_site_type_symbol
_atom_site_label
_atom_site_fract_x
_atom_site_fract_y
_atom_site_fract_z
Si Si1 0.873946 0.155779 0.856158
Si Si2 0.685469 0.192377 0.617671
Si Si3 0.000000 0.000000 0.428596
Si Si4 0.004557 0.786454 0.029993
Si Si5 0.078055 0.657237 0.556120
Si Si6 0.395690 0.284401 0.051468
O O1 0.747317 0.076652 0.821201
O O2 0.821140 0.194272 0.902469
O O3 0.000000 0.288976 0.833334
O O4 0.947219 0.074122 0.871318
O O5 0.764013 0.235988 0.666667
O O6 0.769498 0.289189 0.573439
O O7 0.551614 0.197955 0.625374
O O8 0.653434 0.043588 0.605382
O O9 0.086362 0.123080 0.394002
O O10 0.991645 0.671169 0.065077
O O11 0.121495 0.809907 0.992936
O O12 0.870112 0.740223 0.000000
O O13 0.000000 0.500000 0.542304
#
# Coordination Sequence:
#
# PCOD8326405 Si02
#       6
#    12  12   6  12  12  12
#     4  12  23  42  61  94 127 172 219 269 335 398
#     4  11  20  38  62  94 124 170 216 273 333 391
#     4  12  24  38  70  96 134 164 224 290 330 400
#     4  12  20  37  64 103 125 161 217 277 340 386
#     4  12  24  41  65  94 135 173 221 278 335 411
#     4  11  22  36  64  93 129 163 217 275 325 403
#
# _framework density 20.187662
#
# number of rings (size 3 to 8) (size 9 to 14) (size 15 to 20)
#    0.000    0.364    9.091    1.636    0.000    0.727 
#    0.000    5.455    0.000    0.000    0.000    0.000 
#    0.000    0.000    0.000    0.000    0.000    0.000 
#
# Total GULP energy -817705.225045 kJ/mol
# GULP energy per Si atom -12389.473107 kJ/mol
# Density = 2.014171 g / cm^3
# Si number density = 20.187662 Si / 1000 Ang^3
#
#
#
# Elastic Constant Matrix: (Units=GPa)
#
#
# Indices 1 2 3 4 5 6 
#
# 1 74.7612 15.1263 34.3600 0.0000 0.0000 0.0000
# 2 15.1263 74.7612 34.3600 0.0000 0.0000 0.0000
# 3 34.3600 34.3600 136.6347 0.0000 0.0000 0.0000
# 4 0.0000 0.0000 0.0000 27.2841 0.0000 0.0000
# 5 0.0000 0.0000 0.0000 0.0000 27.2841 0.0000
# 6 0.0000 0.0000 0.0000 0.0000 0.0000 29.8175
#
#
#
# Elastic Compliance Matrix: (Units=1/GPa)
#
#
# Indices 1 2 3 4 5 6 
#
# 1 0.015271 -0.001498 -0.003464 0.000000 0.000000 0.000000
# 2 -0.001498 0.015271 -0.003464 0.000000 0.000000 0.000000
# 3 -0.003464 -0.003464 0.009061 0.000000 0.000000 0.000000
# 4 0.000000 0.000000 0.000000 0.036651 0.000000 0.000000
# 5 0.000000 0.000000 0.000000 0.000000 0.036651 0.000000
# 6 0.000000 0.000000 0.000000 0.000000 0.000000 0.033537
#
#
# Mechanical properties :
#
#
# Convention : Reuss Voigt Hill
#
# Bulk Modulus (GPa) = 43.95120 50.42772 47.18946
# Shear Modulus (GPa) = 29.26091 30.36454 29.81272
#
# Velocity S-wave (km/s) = 3.81129 3.88250 3.84706
# Velocity P-wave (km/s) = 6.41767 6.71804 6.56957
#
# Compressibility (1/GPa) = 0.02275251
#
# Stress axis : x y z
#
# Youngs Moduli (GPa) = 65.48442 65.48442 110.36612
#
# Poissons Ratio (x) = 0.09809 0.38226
# Poissons Ratio (y) = 0.09809 0.38226
# Poissons Ratio (z) = 0.22681 0.22681
#
# Static dielectric constant tensor:
#      x y z
#    x 3.904820 0.000000 0.000000 
#    y 0.000000 3.904820 0.000000 
#    z 0.000000 0.000000 4.356760 
# 
# 
# High freq. dielectric constant tensor:
#      x y z
#    x 1.763960 0.000000 0.000000 
#    y 0.000000 1.763960 0.000000 
#    z 0.000000 0.000000 1.809670 
# 
# From -- ./inp_files/12285.got.cif
#   From: 2010.03.12/outbox.cif.g09.slc.cpg/sg181_7_cif.got.tgz:12285.got - 2010.04.01 11:42:41.
