data_PCOD8326808
_publ_section_title
;
Structure prediction by ZEFSAII (Michael W. Deem and Ramdas Pophale) SiO2 
 PCOD8326808
Probable space group: P 63 M C
;
_chemical_formula_sum "Si O2"
_cell_formula_units_Z 36
_cell_length_a 20.562364
_cell_length_b 20.562364
_cell_length_c 5.053223
_cell_angle_alpha 90.000000
_cell_angle_beta 90.000000
_cell_angle_gamma 120.000000
_cell_volume 1850.312921
_symmetry_space_group_name_H-M "P 63 M C"
_symmetry_group_IT_number 186
_symmetry_cell_setting 'hexagonal'
loop_
_space_group_symop_operation_xyz
x,y,z
x-y,x,1/2+z
-y,x-y,z
-x,-y,1/2+z
-x+y,-x,z
y,-x+y,1/2+z
-x+y,y,z
x,x-y,z
-y,-x,z
y,x,1/2+z
x-y,-y,1/2+z
-x,-x+y,1/2+z
loop_
_atom_site_type_symbol
_atom_site_label
_atom_site_fract_x
_atom_site_fract_y
_atom_site_fract_z
Si Si1 0.255897 0.204462 0.924410
Si Si2 0.047163 0.399649 0.364823
Si Si3 0.239334 0.619667 0.979742
Si Si4 0.426825 0.573176 0.479092
O O1 0.241950 0.120975 0.891575
O O2 0.211529 0.222530 0.702255
O O3 0.345802 0.263066 0.910049
O O4 0.102867 0.485200 0.429035
O O5 0.975880 0.371217 0.558915
O O6 0.290468 0.580936 0.931084
O O7 0.216831 0.608416 0.286016
O O8 0.168924 0.584462 0.785976
#
# Coordination Sequence:
#
# PCOD8326808 Si02
#       4
#    12  12   6   6
#     4  10  21  38  60  87 119 152 191 238 294 356
#     4  10  21  36  56  88 118 144 190 240 289 353
#     4  10  24  39  50  74 110 144 198 246 282 332
#     4  12  20  37  62  78 110 162 192 244 302 342
#
# _framework density 19.456167000000001
#
# number of rings (size 3 to 8) (size 9 to 14) (size 15 to 20)
#    0.333    1.333    0.000    5.000    0.000    2.667 
#    0.000    0.000    0.000    6.667    0.000    0.000 
#    0.000    0.000    0.000    0.000    0.000    0.000 
#
# Total GULP energy -446294.754620 kJ/mol
# GULP energy per Si atom -12397.076517 kJ/mol
# Density = 1.941188 g / cm^3
# Si number density = 19.456167 Si / 1000 Ang^3
#
#
#
# Elastic Constant Matrix: (Units=GPa)
#
#
# Indices 1 2 3 4 5 6 
#
# 1 93.6207 51.2380 9.6249 0.0000 0.0000 0.0000
# 2 51.2380 93.6207 9.6249 0.0000 0.0000 0.0000
# 3 9.6249 9.6249 78.8428 0.0000 0.0000 0.0000
# 4 0.0000 0.0000 0.0000 25.1675 0.0000 0.0000
# 5 0.0000 0.0000 0.0000 0.0000 25.1675 0.0000
# 6 0.0000 0.0000 0.0000 0.0000 0.0000 21.1914
#
#
#
# Elastic Compliance Matrix: (Units=1/GPa)
#
#
# Indices 1 2 3 4 5 6 
#
# 1 0.015306 -0.008289 -0.000857 0.000000 0.000000 0.000000
# 2 -0.008289 0.015306 -0.000857 0.000000 0.000000 0.000000
# 3 -0.000857 -0.000857 0.012893 0.000000 0.000000 0.000000
# 4 0.000000 0.000000 0.000000 0.039734 0.000000 0.000000
# 5 0.000000 0.000000 0.000000 0.000000 0.039734 0.000000
# 6 0.000000 0.000000 0.000000 0.000000 0.000000 0.047189
#
#
# Mechanical properties :
#
#
# Convention : Reuss Voigt Hill
#
# Bulk Modulus (GPa) = 42.55258 45.22885 43.89071
# Shear Modulus (GPa) = 25.25275 27.34503 26.29889
#
# Velocity S-wave (km/s) = 3.60659 3.75303 3.68054
# Velocity P-wave (km/s) = 6.26592 6.48670 6.37727
#
# Compressibility (1/GPa) = 0.02350034
#
# Stress axis : x y z
#
# Youngs Moduli (GPa) = 65.33469 65.33469 77.56377
#
# Poissons Ratio (x) = 0.54154 0.06644
# Poissons Ratio (y) = 0.54154 0.06644
# Poissons Ratio (z) = 0.05597 0.05597
#
# Static dielectric constant tensor:
#      x y z
#    x 3.395230 0.000000 0.000000 
#    y 0.000000 3.395230 0.000000 
#    z 0.000000 0.000000 3.843650 
# 
# 
# High freq. dielectric constant tensor:
#      x y z
#    x 1.746930 0.000000 0.000000 
#    y 0.000000 1.746930 0.000000 
#    z 0.000000 0.000000 1.782090 
# 
# From -- ./inp_files/166.got.cif
#   From: 2010.03.12/outbox.cif.g09.slc.cpg/sg186_1_cif.got.tgz:166.got - 2010.04.01 11:56:34.
