data_PCOD8326005
_publ_section_title
;
Structure prediction by ZEFSAII (Michael W. Deem and Ramdas Pophale) SiO2 
 PCOD8326005
Probable space group: P 61 2 2
;
_chemical_formula_sum "Si O2"
_cell_formula_units_Z 30
_cell_length_a 10.195101
_cell_length_b 10.195101
_cell_length_c 13.312098
_cell_angle_alpha 90.000000
_cell_angle_beta 90.000000
_cell_angle_gamma 120.000000
_cell_volume 1198.285221
_symmetry_space_group_name_H-M "P 61 2 2"
_symmetry_group_IT_number 178
_symmetry_cell_setting 'hexagonal'
loop_
_space_group_symop_operation_xyz
x,y,z
x-y,x,1/6+z
-y,x-y,1/3+z
-x,-y,1/2+z
-x+y,-x,2/3+z
y,-x+y,5/6+z
x-y,-y,-z
-x,-x+y,2/3-z
y,x,1/3-z
-y,-x,5/6-z
-x+y,y,1/2-z
x,x-y,1/6-z
loop_
_atom_site_type_symbol
_atom_site_label
_atom_site_fract_x
_atom_site_fract_y
_atom_site_fract_z
Si Si1 0.614764 0.000000 0.500000
Si Si2 0.367911 0.884297 0.345953
Si Si3 0.071146 0.233064 0.086029
O O1 0.518051 0.995262 0.597321
O O2 0.781757 0.145739 0.520876
O O3 0.252824 0.747177 0.416667
O O4 0.406305 0.812610 0.250000
O O5 0.298059 0.983617 0.308869
O O6 0.969440 0.116592 0.171475
#
# Coordination Sequence:
#
# PCOD8326005 Si02
#       3
#     6  12  12
#     4  12  28  50  84 122 156 224 270 344 418 486
#     4  12  29  55  82 120 168 221 279 347 424 507
#     4  12  28  54  82 120 166 214 277 343 415 495
#
# _framework density 25.035774
#
# number of rings (size 3 to 8) (size 9 to 14) (size 15 to 20)
#    0.000    0.000    4.000    3.600    0.000   11.200 
#    0.000    0.000    0.000    0.000    0.000    0.000 
#    0.000    0.000    0.000    0.000    0.000    0.000 
#
# Total GULP energy -371753.047835 kJ/mol
# GULP energy per Si atom -12391.768261 kJ/mol
# Density = 2.497879 g / cm^3
# Si number density = 25.035774 Si / 1000 Ang^3
#
#
#
# Elastic Constant Matrix: (Units=GPa)
#
#
# Indices 1 2 3 4 5 6 
#
# 1 123.0884 100.1509 110.0711 0.0000 0.0000 0.0000
# 2 100.1509 123.0884 110.0711 0.0000 0.0000 0.0000
# 3 110.0711 110.0711 244.2990 0.0000 0.0000 0.0000
# 4 0.0000 0.0000 0.0000 42.0895 0.0000 0.0000
# 5 0.0000 0.0000 0.0000 0.0000 42.0895 0.0000
# 6 0.0000 0.0000 0.0000 0.0000 0.0000 11.4688
#
#
#
# Elastic Compliance Matrix: (Units=1/GPa)
#
#
# Indices 1 2 3 4 5 6 
#
# 1 0.025829 -0.017768 -0.003632 0.000000 0.000000 0.000000
# 2 -0.017768 0.025829 -0.003632 0.000000 0.000000 0.000000
# 3 -0.003632 -0.003632 0.007366 0.000000 0.000000 0.000000
# 4 0.000000 0.000000 0.000000 0.023759 0.000000 0.000000
# 5 0.000000 0.000000 0.000000 0.000000 0.023759 0.000000
# 6 0.000000 0.000000 0.000000 0.000000 0.000000 0.087193
#
#
# Mechanical properties :
#
#
# Convention : Reuss Voigt Hill
#
# Bulk Modulus (GPa) = 111.60199 125.67356 118.63777
# Shear Modulus (GPa) = 20.26050 30.47506 25.36778
#
# Velocity S-wave (km/s) = 2.84784 3.49271 3.18663
# Velocity P-wave (km/s) = 7.44898 8.15916 7.81215
#
# Compressibility (1/GPa) = 0.00896041
#
# Stress axis : x y z
#
# Youngs Moduli (GPa) = 38.71630 38.71630 135.75489
#
# Poissons Ratio (x) = 0.68790 0.49306
# Poissons Ratio (y) = 0.68790 0.49306
# Poissons Ratio (z) = 0.14062 0.14062
#
# Static dielectric constant tensor:
#      x y z
#    x 4.657270 0.000000 0.000000 
#    y 0.000000 4.657270 0.000000 
#    z 0.000000 0.000000 5.020820 
# 
# 
# High freq. dielectric constant tensor:
#      x y z
#    x 1.996800 0.000000 0.000000 
#    y 0.000000 1.996800 0.000000 
#    z 0.000000 0.000000 2.038390 
# 
# From -- ./inp_files/5015.got.cif
#   From: 2010.03.12/outbox.cif.g09.slc.cpg/sg178_3_cif.got.tgz:5015.got - 2010.04.02 07:02:38.
