data_PCOD8326233
_publ_section_title
;
Structure prediction by ZEFSAII (Michael W. Deem and Ramdas Pophale) SiO2 
 PCOD8326233
Probable space group: P 62 2 2
;
_chemical_formula_sum "Si O2"
_cell_formula_units_Z 30
_cell_length_a 16.945364
_cell_length_b 16.945364
_cell_length_c 5.081044
_cell_angle_alpha 90.000000
_cell_angle_beta 90.000000
_cell_angle_gamma 120.000000
_cell_volume 1263.529517
_symmetry_space_group_name_H-M "P 62 2 2"
_symmetry_group_IT_number 180
_symmetry_cell_setting 'hexagonal'
loop_
_space_group_symop_operation_xyz
x,y,z
x-y,x,1/3+z
-y,x-y,2/3+z
-x,-y,z
-x+y,-x,1/3+z
y,-x+y,2/3+z
x-y,-y,-z
-x,-x+y,1/3-z
y,x,2/3-z
-y,-x,2/3-z
-x+y,y,-z
x,x-y,1/3-z
loop_
_atom_site_type_symbol
_atom_site_label
_atom_site_fract_x
_atom_site_fract_y
_atom_site_fract_z
Si Si1 0.334707 0.056495 0.765873
Si Si2 0.090677 0.181354 0.000000
Si Si3 0.785031 0.476348 0.762405
O O1 0.252722 0.076252 0.844345
O O2 0.433181 0.144531 0.746081
O O3 0.310313 0.000000 0.500000
O O4 0.345243 0.000000 0.000000
O O5 0.115391 0.115391 0.833334
O O6 0.752280 0.504560 0.500000
O O7 0.825056 0.412528 0.666667
O O8 0.711592 0.423183 0.000000
#
# Coordination Sequence:
#
# PCOD8326233 Si02
#       3
#    12   6  12
#     4  11  25  46  74 105 146 197 245 304 376 445
#     4  10  24  46  75 108 150 196 252 306 369 436
#     4  12  25  45  74 109 148 194 250 315 379 449
#
# _framework density 23.743012
#
# number of rings (size 3 to 8) (size 9 to 14) (size 15 to 20)
#    0.000    0.800    2.000    4.800    5.600    0.800 
#    0.000    9.000    0.000    0.000    0.000    0.000 
#    0.000    0.000    0.000    0.000    0.000    0.000 
#
# Total GULP energy -371718.097426 kJ/mol
# GULP energy per Si atom -12390.603248 kJ/mol
# Density = 2.368897 g / cm^3
# Si number density = 23.743012 Si / 1000 Ang^3
#
#
#
# Elastic Constant Matrix: (Units=GPa)
#
#
# Indices 1 2 3 4 5 6 
#
# 1 135.3248 78.9453 55.8561 0.0000 0.0000 0.0000
# 2 78.9453 135.3248 55.8561 0.0000 0.0000 0.0000
# 3 55.8561 55.8561 154.8112 0.0000 0.0000 0.0000
# 4 0.0000 0.0000 0.0000 53.8144 0.0000 0.0000
# 5 0.0000 0.0000 0.0000 0.0000 53.8144 0.0000
# 6 0.0000 0.0000 0.0000 0.0000 0.0000 28.1898
#
#
#
# Elastic Compliance Matrix: (Units=1/GPa)
#
#
# Indices 1 2 3 4 5 6 
#
# 1 0.011743 -0.005994 -0.002074 0.000000 0.000000 0.000000
# 2 -0.005994 0.011743 -0.002074 0.000000 0.000000 0.000000
# 3 -0.002074 -0.002074 0.007956 0.000000 0.000000 0.000000
# 4 0.000000 0.000000 0.000000 0.018582 0.000000 0.000000
# 5 0.000000 0.000000 0.000000 0.000000 0.018582 0.000000
# 6 0.000000 0.000000 0.000000 0.000000 0.000000 0.035474
#
#
# Mechanical properties :
#
#
# Convention : Reuss Voigt Hill
#
# Bulk Modulus (GPa) = 89.63216 89.64176 89.63696
# Shear Modulus (GPa) = 39.03702 42.81726 40.92714
#
# Velocity S-wave (km/s) = 4.05921 4.25121 4.15632
# Velocity P-wave (km/s) = 7.73321 7.86982 7.80181
#
# Compressibility (1/GPa) = 0.01115671
#
# Stress axis : x y z
#
# Youngs Moduli (GPa) = 85.15982 85.15982 125.68994
#
# Poissons Ratio (x) = 0.51047 0.26068
# Poissons Ratio (y) = 0.51047 0.26068
# Poissons Ratio (z) = 0.17662 0.17662
#
# Static dielectric constant tensor:
#      x y z
#    x 4.331740 0.000000 0.000000 
#    y 0.000000 4.331740 0.000000 
#    z 0.000000 0.000000 4.230710 
# 
# 
# High freq. dielectric constant tensor:
#      x y z
#    x 1.943680 0.000000 0.000000 
#    y 0.000000 1.943680 0.000000 
#    z 0.000000 0.000000 1.951400 
# 
# From -- ./inp_files/331.got.cif
#   From: 2010.03.12/outbox.cif.g09.slc.cpg/sg180_1_cif.got.tgz:331.got - 2010.04.01 11:35:50.
