data_PCOD8326131
_publ_section_title
;
Structure prediction by ZEFSAII (Michael W. Deem and Ramdas Pophale) SiO2 
 PCOD8326131
Probable space group: P 62 2 2
;
_chemical_formula_sum "Si O2"
_cell_formula_units_Z 48
_cell_length_a 15.501975
_cell_length_b 15.501975
_cell_length_c 11.309861
_cell_angle_alpha 90.000000
_cell_angle_beta 90.000000
_cell_angle_gamma 120.000000
_cell_volume 2353.758836
_symmetry_space_group_name_H-M "P 62 2 2"
_symmetry_group_IT_number 180
_symmetry_cell_setting 'hexagonal'
loop_
_space_group_symop_operation_xyz
x,y,z
x-y,x,1/3+z
-y,x-y,2/3+z
-x,-y,z
-x+y,-x,1/3+z
y,-x+y,2/3+z
x-y,-y,-z
-x,-x+y,1/3-z
y,x,2/3-z
-y,-x,2/3-z
-x+y,y,-z
x,x-y,1/3-z
loop_
_atom_site_type_symbol
_atom_site_label
_atom_site_fract_x
_atom_site_fract_y
_atom_site_fract_z
Si Si1 0.415021 0.807251 0.637712
Si Si2 0.942488 0.238828 0.784380
Si Si3 0.299451 0.803668 0.999786
Si Si4 0.277699 0.877997 0.247945
O O1 0.412161 0.824322 0.500000
O O2 0.435843 0.717921 0.666667
O O3 0.311272 0.779856 0.702197
O O4 0.515580 0.899298 0.693033
O O5 0.872697 0.127304 0.833334
O O6 0.878052 0.292316 0.758361
O O7 0.000000 0.235490 0.666667
O O8 0.017242 0.301519 0.889220
O O9 0.411603 0.823206 0.000000
O O10 0.264312 0.818573 0.127103
O O11 0.182793 0.817208 0.333334
#
# Coordination Sequence:
#
# PCOD8326131 Si02
#       4
#    12  12  12  12
#     4  10  17  31  57  93 132 174 210 249 309 370
#     4  10  24  44  66  93 126 169 216 271 328 380
#     4  10  21  35  59  93 134 178 218 249 296 384
#     4  10  20  38  61  92 129 168 212 270 324 371
#
# _framework density 20.392913
#
# number of rings (size 3 to 8) (size 9 to 14) (size 15 to 20)
#    0.000    2.000    5.000    0.000    3.500    4.500 
#    0.000    5.000    0.000    3.750    0.000    0.000 
#    0.000    0.000    0.000    0.000    0.000    0.000 
#
# Total GULP energy -594813.716875 kJ/mol
# GULP energy per Si atom -12391.952435 kJ/mol
# Density = 2.034650 g / cm^3
# Si number density = 20.392913 Si / 1000 Ang^3
#
#
#
# Elastic Constant Matrix: (Units=GPa)
#
#
# Indices 1 2 3 4 5 6 
#
# 1 124.1402 60.3000 58.5222 0.0000 0.0000 0.0000
# 2 60.3000 124.1402 58.5222 0.0000 0.0000 0.0000
# 3 58.5222 58.5222 95.5818 0.0000 0.0000 0.0000
# 4 0.0000 0.0000 0.0000 37.8747 0.0000 0.0000
# 5 0.0000 0.0000 0.0000 0.0000 37.8747 0.0000
# 6 0.0000 0.0000 0.0000 0.0000 0.0000 31.9201
#
#
#
# Elastic Compliance Matrix: (Units=1/GPa)
#
#
# Indices 1 2 3 4 5 6 
#
# 1 0.012266 -0.003399 -0.005429 0.000000 0.000000 0.000000
# 2 -0.003399 0.012266 -0.005429 0.000000 0.000000 0.000000
# 3 -0.005429 -0.005429 0.017110 0.000000 0.000000 0.000000
# 4 0.000000 0.000000 0.000000 0.026403 0.000000 0.000000
# 5 0.000000 0.000000 0.000000 0.000000 0.026403 0.000000
# 6 0.000000 0.000000 0.000000 0.000000 0.000000 0.031328
#
#
# Mechanical properties :
#
#
# Convention : Reuss Voigt Hill
#
# Bulk Modulus (GPa) = 76.17165 77.61677 76.89421
# Shear Modulus (GPa) = 31.51297 32.63508 32.07402
#
# Velocity S-wave (km/s) = 3.93528 4.00473 3.97016
# Velocity P-wave (km/s) = 7.62114 7.71538 7.66840
#
# Compressibility (1/GPa) = 0.01312824
#
# Stress axis : x y z
#
# Youngs Moduli (GPa) = 81.52894 81.52894 58.44409
#
# Poissons Ratio (x) = 0.27708 0.31730
# Poissons Ratio (y) = 0.27708 0.31730
# Poissons Ratio (z) = 0.44263 0.44263
#
# Static dielectric constant tensor:
#      x y z
#    x 3.673820 0.000000 0.000000 
#    y 0.000000 3.673820 0.000000 
#    z 0.000000 0.000000 3.945800 
# 
# 
# High freq. dielectric constant tensor:
#      x y z
#    x 1.773430 0.000000 0.000000 
#    y 0.000000 1.773430 0.000000 
#    z 0.000000 0.000000 1.812090 
# 
# From -- ./inp_files/2652.got.cif
#   From: 2010.03.12/outbox.cif.g09.slc.cpg/sg180_2_cif.got.tgz:2652.got - 2010.04.01 11:35:50.
