data_PCOD8326332
_publ_section_title
;
Structure prediction by ZEFSAII (Michael W. Deem and Ramdas Pophale) SiO2 
 PCOD8326332
Probable space group: P 64 2 2
;
_chemical_formula_sum "Si O2"
_cell_formula_units_Z 60
_cell_length_a 11.172139
_cell_length_b 11.172139
_cell_length_c 31.556553
_cell_angle_alpha 90.000000
_cell_angle_beta 90.000000
_cell_angle_gamma 120.000000
_cell_volume 3411.087427
_symmetry_space_group_name_H-M "P 64 2 2"
_symmetry_group_IT_number 181
_symmetry_cell_setting 'hexagonal'
loop_
_space_group_symop_operation_xyz
x,y,z
x-y,x,2/3+z
-y,x-y,1/3+z
-x,-y,z
-x+y,-x,2/3+z
y,-x+y,1/3+z
x-y,-y,-z
-x,-x+y,2/3-z
y,x,1/3-z
-y,-x,1/3-z
-x+y,y,-z
x,x-y,2/3-z
loop_
_atom_site_type_symbol
_atom_site_label
_atom_site_fract_x
_atom_site_fract_y
_atom_site_fract_z
Si Si1 0.443479 0.279618 0.121879
Si Si2 0.431681 0.147184 0.448500
Si Si3 0.716318 0.610919 0.965416
Si Si4 0.526724 0.374989 0.611722
Si Si5 0.503231 0.807276 0.691535
O O1 0.320408 0.309043 0.109837
O O2 0.582533 0.418959 0.109102
O O3 0.430055 0.232239 0.170509
O O4 0.440294 0.155238 0.095289
O O5 0.403274 0.236862 0.414823
O O6 0.606152 0.463074 0.984989
O O7 0.648598 0.708911 0.961869
O O8 0.839455 0.678910 0.000000
O O9 0.500000 0.500000 0.620455
O O10 0.477646 0.269173 0.651124
O O11 0.692681 0.443562 0.604328
#
# Coordination Sequence:
#
# PCOD8326332 Si02
#       5
#    12  12  12  12  12
#     4   9  17  32  52  78 105 143 174 211 270 316
#     4   9  17  31  53  78 110 131 175 228 259 318
#     4  11  18  30  53  76 102 130 164 229 272 307
#     4  11  20  36  52  72 106 145 177 209 262 334
#     4  10  20  31  48  75 103 129 170 216 265 315
#
# _framework density 17.589699
#
# number of rings (size 3 to 8) (size 9 to 14) (size 15 to 20)
#    0.000    2.000    4.000    3.600    0.000    3.200 
#    3.600    0.000    0.000    8.400    0.000    2.800 
#    0.000    0.000    0.000    0.000    0.000    0.000 
#
# Total GULP energy -743514.637185 kJ/mol
# GULP energy per Si atom -12391.910620 kJ/mol
# Density = 1.754966 g / cm^3
# Si number density = 17.589699 Si / 1000 Ang^3
#
#
#
# Elastic Constant Matrix: (Units=GPa)
#
#
# Indices 1 2 3 4 5 6 
#
# 1 91.3359 40.4407 52.4722 0.0000 0.0000 0.0000
# 2 40.4407 91.3359 52.4722 0.0000 0.0000 0.0000
# 3 52.4722 52.4722 120.1253 0.0000 0.0000 0.0000
# 4 0.0000 0.0000 0.0000 19.6832 0.0000 0.0000
# 5 0.0000 0.0000 0.0000 0.0000 19.6832 0.0000
# 6 0.0000 0.0000 0.0000 0.0000 0.0000 25.4476
#
#
#
# Elastic Compliance Matrix: (Units=1/GPa)
#
#
# Indices 1 2 3 4 5 6 
#
# 1 0.015642 -0.004006 -0.005083 0.000000 0.000000 0.000000
# 2 -0.004006 0.015642 -0.005083 0.000000 0.000000 0.000000
# 3 -0.005083 -0.005083 0.012765 0.000000 0.000000 0.000000
# 4 0.000000 0.000000 0.000000 0.050805 0.000000 0.000000
# 5 0.000000 0.000000 0.000000 0.000000 0.050805 0.000000
# 6 0.000000 0.000000 0.000000 0.000000 0.000000 0.039297
#
#
# Mechanical properties :
#
#
# Convention : Reuss Voigt Hill
#
# Bulk Modulus (GPa) = 63.66807 65.95192 64.81000
# Shear Modulus (GPa) = 22.87958 23.45691 23.16824
#
# Velocity S-wave (km/s) = 3.61049 3.65575 3.63319
# Velocity P-wave (km/s) = 7.32500 7.44281 7.38414
#
# Compressibility (1/GPa) = 0.01570646
#
# Stress axis : x y z
#
# Youngs Moduli (GPa) = 63.92867 63.92867 78.33748
#
# Poissons Ratio (x) = 0.25609 0.39819
# Poissons Ratio (y) = 0.25609 0.39819
# Poissons Ratio (z) = 0.32495 0.32495
#
# Static dielectric constant tensor:
#      x y z
#    x 3.235250 0.000000 0.000000 
#    y 0.000000 3.235250 0.000000 
#    z 0.000000 0.000000 3.233970 
# 
# 
# High freq. dielectric constant tensor:
#      x y z
#    x 1.659900 0.000000 0.000000 
#    y 0.000000 1.659900 0.000000 
#    z 0.000000 0.000000 1.676670 
# 
# From -- ./inp_files/12179.got.cif
#   From: 2010.03.12/outbox.cif.g09.slc.cpg/sg181_7_cif.got.tgz:12179.got - 2010.04.01 11:42:41.
