data_PCOD8326205
_publ_section_title
;
Structure prediction by ZEFSAII (Michael W. Deem and Ramdas Pophale) SiO2 
 PCOD8326205
Probable space group: P 62 2 2
;
_chemical_formula_sum "Si O2"
_cell_formula_units_Z 72
_cell_length_a 14.674976
_cell_length_b 14.674976
_cell_length_c 16.113679
_cell_angle_alpha 90.000000
_cell_angle_beta 90.000000
_cell_angle_gamma 120.000000
_cell_volume 3005.246769
_symmetry_space_group_name_H-M "P 62 2 2"
_symmetry_group_IT_number 180
_symmetry_cell_setting 'hexagonal'
loop_
_space_group_symop_operation_xyz
x,y,z
x-y,x,1/3+z
-y,x-y,2/3+z
-x,-y,z
-x+y,-x,1/3+z
y,-x+y,2/3+z
x-y,-y,-z
-x,-x+y,1/3-z
y,x,2/3-z
-y,-x,2/3-z
-x+y,y,-z
x,x-y,1/3-z
loop_
_atom_site_type_symbol
_atom_site_label
_atom_site_fract_x
_atom_site_fract_y
_atom_site_fract_z
Si Si1 0.646160 0.495400 0.511685
Si Si2 0.769300 0.307082 0.596802
Si Si3 0.384468 0.922505 0.635501
Si Si4 0.103770 0.159848 0.411817
Si Si5 0.287788 0.244425 0.630746
Si Si6 0.344479 0.036700 0.881097
O O1 0.769985 0.539969 0.500000
O O2 0.581558 0.372268 0.488059
O O3 0.613034 0.501018 0.604268
O O4 0.622475 0.569390 0.452476
O O5 0.749599 0.374800 0.666667
O O6 0.673310 0.187584 0.584861
O O7 0.873297 0.297173 0.611521
O O8 0.500000 0.000000 0.599022
O O9 0.330826 0.995544 0.632494
O O10 0.080486 0.080486 0.333334
O O11 0.050591 0.101182 0.500000
O O12 0.228717 0.230494 0.419355
O O13 0.056554 0.233901 0.392339
O O14 0.277301 0.138651 0.666667
O O15 0.357376 0.276692 0.546932
#
# Coordination Sequence:
#
# PCOD8326205 Si02
#       6
#    12  12  12  12  12  12
#     4  11  21  41  66 104 145 176 232 298 376 454
#     4  12  25  41  69 109 140 180 243 306 367 460
#     4  11  24  46  67  95 138 193 235 297 377 443
#     4  10  21  39  66 100 143 188 242 309 383 462
#     4  10  22  45  72  95 135 194 247 299 369 459
#     4  10  22  40  68 106 145 184 229 309 392 454
#
# _framework density 23.958099000000001
#
# number of rings (size 3 to 8) (size 9 to 14) (size 15 to 20)
#    0.000    1.333    1.667    6.000    2.333    1.667 
#    3.000   10.000    0.000    0.000    0.000    0.000 
#    0.000    0.000    0.000    0.000    0.000    0.000 
#
# Total GULP energy -892139.226919 kJ/mol
# GULP energy per Si atom -12390.822596 kJ/mol
# Density = 2.390357 g / cm^3
# Si number density = 23.958099 Si / 1000 Ang^3
#
#
#
# Elastic Constant Matrix: (Units=GPa)
#
#
# Indices 1 2 3 4 5 6 
#
# 1 139.3243 56.0453 16.8819 0.0000 0.0000 0.0000
# 2 56.0453 139.3243 16.8819 0.0000 0.0000 0.0000
# 3 16.8819 16.8819 78.0006 0.0000 0.0000 0.0000
# 4 0.0000 0.0000 0.0000 28.9744 0.0000 0.0000
# 5 0.0000 0.0000 0.0000 0.0000 28.9744 0.0000
# 6 0.0000 0.0000 0.0000 0.0000 0.0000 41.6395
#
#
#
# Elastic Compliance Matrix: (Units=1/GPa)
#
#
# Indices 1 2 3 4 5 6 
#
# 1 0.008663 -0.003345 -0.001151 0.000000 0.000000 0.000000
# 2 -0.003345 0.008663 -0.001151 0.000000 0.000000 0.000000
# 3 -0.001151 -0.001151 0.013319 0.000000 0.000000 0.000000
# 4 0.000000 0.000000 0.000000 0.034513 0.000000 0.000000
# 5 0.000000 0.000000 0.000000 0.000000 0.034513 0.000000
# 6 0.000000 0.000000 0.000000 0.000000 0.000000 0.024016
#
#
# Mechanical properties :
#
#
# Convention : Reuss Voigt Hill
#
# Bulk Modulus (GPa) = 51.67974 59.58524 55.63249
# Shear Modulus (GPa) = 35.35325 37.70701 36.53013
#
# Velocity S-wave (km/s) = 3.84556 3.97151 3.90904
# Velocity P-wave (km/s) = 6.42927 6.77902 6.60646
#
# Compressibility (1/GPa) = 0.01934994
#
# Stress axis : x y z
#
# Youngs Moduli (GPa) = 115.43863 115.43863 75.08304
#
# Poissons Ratio (x) = 0.38617 0.08641
# Poissons Ratio (y) = 0.38617 0.08641
# Poissons Ratio (z) = 0.13285 0.13285
#
# Static dielectric constant tensor:
#      x y z
#    x 4.613420 0.000000 0.000000 
#    y 0.000000 4.613420 0.000000 
#    z 0.000000 0.000000 4.576720 
# 
# 
# High freq. dielectric constant tensor:
#      x y z
#    x 1.953400 0.000000 0.000000 
#    y 0.000000 1.953400 0.000000 
#    z 0.000000 0.000000 1.932150 
# 
# From -- ./inp_files/7774.got.cif
#   From: 2010.03.12/outbox.cif.g09.slc.cpg/sg180_4_cif.got.tgz:7774.got - 2010.04.01 11:35:50.
