data_PCOD8326451
_publ_section_title
;
Structure prediction by ZEFSAII (Michael W. Deem and Ramdas Pophale) SiO2 
 PCOD8326451
Probable space group: P 63 2 2
;
_chemical_formula_sum "Si O2"
_cell_formula_units_Z 48
_cell_length_a 18.197259
_cell_length_b 18.197259
_cell_length_c 8.201730
_cell_angle_alpha 90.000000
_cell_angle_beta 90.000000
_cell_angle_gamma 120.000000
_cell_volume 2352.058140
_symmetry_space_group_name_H-M "P 63 2 2"
_symmetry_group_IT_number 182
_symmetry_cell_setting 'hexagonal'
loop_
_space_group_symop_operation_xyz
x,y,z
x-y,x,1/2+z
-y,x-y,z
-x,-y,1/2+z
-x+y,-x,z
y,-x+y,1/2+z
x-y,-y,-z
-x,-x+y,-z
y,x,-z
-y,-x,1/2-z
-x+y,y,1/2-z
x,x-y,1/2-z
loop_
_atom_site_type_symbol
_atom_site_label
_atom_site_fract_x
_atom_site_fract_y
_atom_site_fract_z
Si Si1 0.160216 0.000024 0.690817
Si Si2 0.522251 0.922687 0.383903
Si Si3 0.664974 0.978532 0.810884
Si Si4 0.827531 0.494464 0.306584
O O1 0.066708 0.933293 0.750000
O O2 0.228929 0.975718 0.755592
O O3 0.160063 0.000000 0.500000
O O4 0.187100 0.093550 0.750000
O O5 0.449153 0.898306 0.250000
O O6 0.501822 0.841295 0.496786
O O7 0.532637 0.000000 0.500000
O O8 0.609413 0.949152 0.291904
O O9 0.583246 0.887223 0.781781
O O10 0.671607 0.000000 0.000000
O O11 0.731854 0.463708 0.250000
O O12 0.853883 0.426942 0.250000
#
# Coordination Sequence:
#
# PCOD8326451 Si02
#       4
#    12  12  12  12
#     4  11  24  40  60  85 119 157 196 241 295 358
#     4  10  19  35  61  88 117 153 198 253 310 362
#     4  10  21  38  63  91 117 150 200 255 304 358
#     4  11  23  39  60  86 122 164 204 249 303 360
#
# _framework density 20.407658999999999
#
# number of rings (size 3 to 8) (size 9 to 14) (size 15 to 20)
#    0.000    1.500    0.000    7.250    0.000   10.000 
#    0.000    3.750    0.000    0.000    0.000    0.000 
#    0.000    0.000    0.000    0.000    0.000    0.000 
#
# Total GULP energy -595295.902254 kJ/mol
# GULP energy per Si atom -12401.997964 kJ/mol
# Density = 2.036121 g / cm^3
# Si number density = 20.407659 Si / 1000 Ang^3
#
#
#
# Elastic Constant Matrix: (Units=GPa)
#
#
# Indices 1 2 3 4 5 6 
#
# 1 107.7009 59.6192 40.3118 0.0000 0.0000 0.0000
# 2 59.6192 107.7009 40.3118 0.0000 0.0000 0.0000
# 3 40.3118 40.3118 114.6054 0.0000 0.0000 0.0000
# 4 0.0000 0.0000 0.0000 33.5623 0.0000 0.0000
# 5 0.0000 0.0000 0.0000 0.0000 33.5623 0.0000
# 6 0.0000 0.0000 0.0000 0.0000 0.0000 24.0408
#
#
#
# Elastic Compliance Matrix: (Units=1/GPa)
#
#
# Indices 1 2 3 4 5 6 
#
# 1 0.013997 -0.006801 -0.002531 0.000000 0.000000 0.000000
# 2 -0.006801 0.013997 -0.002531 0.000000 0.000000 0.000000
# 3 -0.002531 -0.002531 0.010506 0.000000 0.000000 0.000000
# 4 0.000000 0.000000 0.000000 0.029795 0.000000 0.000000
# 5 0.000000 0.000000 0.000000 0.000000 0.029795 0.000000
# 6 0.000000 0.000000 0.000000 0.000000 0.000000 0.041596
#
#
# Mechanical properties :
#
#
# Convention : Reuss Voigt Hill
#
# Bulk Modulus (GPa) = 67.68725 67.83254 67.75990
# Shear Modulus (GPa) = 29.70210 30.88406 30.29308
#
# Velocity S-wave (km/s) = 3.81916 3.89441 3.85697
# Velocity P-wave (km/s) = 7.25862 7.31661 7.28767
#
# Compressibility (1/GPa) = 0.01477383
#
# Stress axis : x y z
#
# Youngs Moduli (GPa) = 71.44336 71.44336 95.18102
#
# Poissons Ratio (x) = 0.48588 0.24093
# Poissons Ratio (y) = 0.48588 0.24093
# Poissons Ratio (z) = 0.18084 0.18084
#
# Static dielectric constant tensor:
#      x y z
#    x 3.613920 0.000000 0.000000 
#    y 0.000000 3.613920 0.000000 
#    z 0.000000 0.000000 3.940470 
# 
# 
# High freq. dielectric constant tensor:
#      x y z
#    x 1.793300 0.000000 0.000000 
#    y 0.000000 1.793300 0.000000 
#    z 0.000000 0.000000 1.811560 
# 
# From -- ./inp_files/1454.got.cif
#   From: 2010.03.12/outbox.cif.g09.slc.cpg/sg182_1_cif.got.tgz:1454.got - 2010.04.01 11:49:36.
