data_PCOD8326145
_publ_section_title
;
Structure prediction by ZEFSAII (Michael W. Deem and Ramdas Pophale) SiO2 
 PCOD8326145
Probable space group: P 62 2 2
;
_chemical_formula_sum "Si O2"
_cell_formula_units_Z 66
_cell_length_a 25.482799
_cell_length_b 25.482799
_cell_length_c 6.457423
_cell_angle_alpha 90.000000
_cell_angle_beta 90.000000
_cell_angle_gamma 120.000000
_cell_volume 3631.483918
_symmetry_space_group_name_H-M "P 62 2 2"
_symmetry_group_IT_number 180
_symmetry_cell_setting 'hexagonal'
loop_
_space_group_symop_operation_xyz
x,y,z
x-y,x,1/3+z
-y,x-y,2/3+z
-x,-y,z
-x+y,-x,1/3+z
y,-x+y,2/3+z
x-y,-y,-z
-x,-x+y,1/3-z
y,x,2/3-z
-y,-x,2/3-z
-x+y,y,-z
x,x-y,1/3-z
loop_
_atom_site_type_symbol
_atom_site_label
_atom_site_fract_x
_atom_site_fract_y
_atom_site_fract_z
Si Si1 0.291928 0.000000 0.500000
Si Si2 0.057332 0.377367 0.796322
Si Si3 0.817208 0.281603 0.974740
Si Si4 0.490981 0.622306 0.359359
Si Si5 0.222437 0.892297 0.782294
Si Si6 0.662574 0.437554 0.968801
O O1 0.348663 0.040745 0.644509
O O2 0.283005 0.047731 0.353216
O O3 0.095055 0.449314 0.833522
O O4 0.090694 0.347612 0.669401
O O5 0.000000 0.367332 0.666667
O O6 0.758942 0.241059 0.833334
O O7 0.858803 0.345915 0.862899
O O8 0.854443 0.246577 0.015112
O O9 0.796655 0.294258 0.193425
O O10 0.451128 0.548873 0.333334
O O11 0.447154 0.641359 0.475171
O O12 0.150473 0.849528 0.833334
O O13 0.604046 0.395955 0.833334
O O14 0.702603 0.405206 0.000000
#
# Coordination Sequence:
#
# PCOD8326145 Si02
#       6
#     6  12  12  12  12  12
#     4  10  18  36  54  75 116 132 164 218 255 304
#     4   9  20  36  55  77 102 136 166 213 269 310
#     4  10  19  35  51  69  92 118 163 211 261 324
#     4  11  21  35  54  68  94 123 163 215 263 327
#     4   9  19  33  55  82 102 134 173 211 257 304
#     4  12  24  34  49  70  92 124 162 205 274 342
#
# _framework density 18.174389000000001
#
# number of rings (size 3 to 8) (size 9 to 14) (size 15 to 20)
#    0.000    1.818    3.636    1.091    0.000    2.545 
#    0.000    0.000    0.000    1.091    0.000    0.000 
#    0.000    0.000    0.000    0.000    0.000    0.000 
#
# Total GULP energy -818061.411062 kJ/mol
# GULP energy per Si atom -12394.869865 kJ/mol
# Density = 1.813302 g / cm^3
# Si number density = 18.174389 Si / 1000 Ang^3
#
#
#
# Elastic Constant Matrix: (Units=GPa)
#
#
# Indices 1 2 3 4 5 6 
#
# 1 75.0020 38.0317 23.0113 0.0000 0.0000 0.0000
# 2 38.0317 75.0020 23.0113 0.0000 0.0000 0.0000
# 3 23.0113 23.0113 66.2787 0.0000 0.0000 0.0000
# 4 0.0000 0.0000 0.0000 22.8694 0.0000 0.0000
# 5 0.0000 0.0000 0.0000 0.0000 22.8694 0.0000
# 6 0.0000 0.0000 0.0000 0.0000 0.0000 18.4851
#
#
#
# Elastic Compliance Matrix: (Units=1/GPa)
#
#
# Indices 1 2 3 4 5 6 
#
# 1 0.018676 -0.008373 -0.003577 0.000000 0.000000 0.000000
# 2 -0.008373 0.018676 -0.003577 0.000000 0.000000 0.000000
# 3 -0.003577 -0.003577 0.017572 0.000000 0.000000 0.000000
# 4 0.000000 0.000000 0.000000 0.043727 0.000000 0.000000
# 5 0.000000 0.000000 0.000000 0.000000 0.043727 0.000000
# 6 0.000000 0.000000 0.000000 0.000000 0.000000 0.054098
#
#
# Mechanical properties :
#
#
# Convention : Reuss Voigt Hill
#
# Bulk Modulus (GPa) = 41.89422 42.71014 42.30218
# Shear Modulus (GPa) = 21.23271 21.65998 21.44635
#
# Velocity S-wave (km/s) = 3.42171 3.45597 3.43888
# Velocity P-wave (km/s) = 6.22191 6.28301 6.25253
#
# Compressibility (1/GPa) = 0.02386964
#
# Stress axis : x y z
#
# Youngs Moduli (GPa) = 53.54435 53.54435 56.90941
#
# Poissons Ratio (x) = 0.44831 0.20358
# Poissons Ratio (y) = 0.44831 0.20358
# Poissons Ratio (z) = 0.19154 0.19154
#
# Static dielectric constant tensor:
#      x y z
#    x 3.314020 0.000000 0.000000 
#    y 0.000000 3.314020 0.000000 
#    z 0.000000 0.000000 3.347090 
# 
# 
# High freq. dielectric constant tensor:
#      x y z
#    x 1.676890 0.000000 0.000000 
#    y 0.000000 1.676890 0.000000 
#    z 0.000000 0.000000 1.710100 
# 
# From -- ./inp_files/1567.got.cif
#   From: 2010.03.12/outbox.cif.g09.slc.cpg/sg180_1_cif.got.tgz:1567.got - 2010.04.01 11:35:50.
