data_PCOD8326447
_publ_section_title
;
Structure prediction by ZEFSAII (Michael W. Deem and Ramdas Pophale) SiO2 
 PCOD8326447
Probable space group: P 63 2 2
;
_chemical_formula_sum "Si O2"
_cell_formula_units_Z 28
_cell_length_a 8.357735
_cell_length_b 8.357735
_cell_length_c 24.075725
_cell_angle_alpha 90.000000
_cell_angle_beta 90.000000
_cell_angle_gamma 120.000000
_cell_volume 1456.421895
_symmetry_space_group_name_H-M "P 63 2 2"
_symmetry_group_IT_number 182
_symmetry_cell_setting 'hexagonal'
loop_
_space_group_symop_operation_xyz
x,y,z
x-y,x,1/2+z
-y,x-y,z
-x,-y,1/2+z
-x+y,-x,z
y,-x+y,1/2+z
x-y,-y,-z
-x,-x+y,-z
y,x,-z
-y,-x,1/2-z
-x+y,y,1/2-z
x,x-y,1/2-z
loop_
_atom_site_type_symbol
_atom_site_label
_atom_site_fract_x
_atom_site_fract_y
_atom_site_fract_z
Si Si1 0.666667 0.333334 0.315507
Si Si2 0.050890 0.673480 0.607306
Si Si3 0.333335 0.666668 0.098269
Si Si4 0.333334 0.666668 0.532847
Si Si5 0.000000 0.000000 0.433500
O O1 0.666668 0.333334 0.250000
O O2 0.467251 0.292890 0.337742
O O3 0.129337 0.604963 0.556511
O O4 0.066156 0.864251 0.589737
O O5 0.842118 0.518002 0.620769
O O6 0.333334 0.666667 0.032241
O O7 0.000000 0.000000 0.500000
#
# Coordination Sequence:
#
# PCOD8326447 Si02
#       5
#     4  12   4   4   4
#     4  10  23  46  63  78 108 148 200 262 298 326
#     4  10  22  35  56  85 115 152 196 230 281 348
#     4  12  19  34  55  86 121 148 181 228 280 350
#     4  10  19  33  52  83 121 159 184 223 277 338
#     4  12  21  36  58  92 130 159 183 231 292 362
#
# _framework density 19.225199
#
# number of rings (size 3 to 8) (size 9 to 14) (size 15 to 20)
#    0.000    1.714    0.000    9.000    0.000    0.000 
#    0.000    8.571    0.000    0.000    0.000    0.000 
#    0.000    0.000    0.000    0.000    0.000    0.000 
#
# Total GULP energy -347254.652779 kJ/mol
# GULP energy per Si atom -12401.951885 kJ/mol
# Density = 1.918144 g / cm^3
# Si number density = 19.225199 Si / 1000 Ang^3
#
#
#
# Elastic Constant Matrix: (Units=GPa)
#
#
# Indices 1 2 3 4 5 6 
#
# 1 110.2441 25.4303 51.4284 -0.0007 -0.0016 0.0006
# 2 25.4303 110.2439 51.4293 -0.0007 -0.0002 -0.0002
# 3 51.4284 51.4293 147.0245 -0.0002 0.0005 0.0002
# 4 -0.0007 -0.0007 -0.0002 -7.5286 0.0046 -0.0007
# 5 -0.0016 -0.0002 0.0005 0.0046 -7.5346 0.0000
# 6 0.0006 -0.0002 0.0002 -0.0007 0.0000 42.4071
#
#
#
# Elastic Compliance Matrix: (Units=1/GPa)
#
#
# Indices 1 2 3 4 5 6 
#
# 1 0.010911 -0.000880 -0.003509 -0.000001 -0.000003 0.000000
# 2 -0.000880 0.010911 -0.003509 -0.000001 0.000000 0.000000
# 3 -0.003509 -0.003509 0.009256 0.000000 0.000001 0.000000
# 4 -0.000001 -0.000001 0.000000 -0.132827 -0.000081 -0.000002
# 5 -0.000003 0.000000 0.000001 -0.000081 -0.132721 0.000000
# 6 0.000000 0.000000 0.000000 -0.000002 0.000000 0.023581
#
#
# Mechanical properties :
#
#
# Convention : Reuss Voigt Hill
#
# Bulk Modulus (GPa) = 65.43336 69.34316 67.38826
# Shear Modulus (GPa) = -26.31575 21.41707 -2.44934
#
# Velocity S-wave (km/s) = -3.70376 3.34130 -1.12995
# Velocity P-wave (km/s) = 3.97726 7.14373 5.78150
#
# Compressibility (1/GPa) = 0.01528272
#
# Stress axis : x y z
#
# Youngs Moduli (GPa) = 91.65455 91.65383 108.03518
#
# Poissons Ratio (x) = 0.08065 0.37906
# Poissons Ratio (y) = 0.08065 0.37907
# Poissons Ratio (z) = 0.32158 0.32159
#
# Static dielectric constant tensor:
#      x y z
#    x 3.698730 0.000010 0.000000 
#    y 0.000010 3.698730 -0.000010 
#    z 0.000000 -0.000010 3.096360 
# 
# 
# High freq. dielectric constant tensor:
#      x y z
#    x 1.763250 0.000000 0.000000 
#    y 0.000000 1.763250 0.000000 
#    z 0.000000 0.000000 1.704200 
# 
# From -- ./inp_files/5059.got.cif
#   From: 2010.03.12/outbox.cif.g09.slc.cpg/sg182_3_cif.got.tgz:5059.got - 2010.04.01 11:49:36.
