data_PCOD8326918
_publ_section_title
;
Structure prediction by ZEFSAII (Michael W. Deem and Ramdas Pophale) SiO2 
 PCOD8326918
Probable space group: P -6 M 2
;
_chemical_formula_sum "Si O2"
_cell_formula_units_Z 78
_cell_length_a 17.733387
_cell_length_b 17.733387
_cell_length_c 17.824069
_cell_angle_alpha 90.000000
_cell_angle_beta 90.000000
_cell_angle_gamma 120.000000
_cell_volume 4854.235815
_symmetry_space_group_name_H-M "P -6 M 2"
_symmetry_group_IT_number 187
_symmetry_cell_setting 'hexagonal'
loop_
_space_group_symop_operation_xyz
x,y,z
-x+y,-x,-z
-y,x-y,z
x,y,-z
-x+y,-x,z
-y,x-y,-z
-y,-x,-z
-x+y,y,-z
x,x-y,-z
-x+y,y,z
x,x-y,z
-y,-x,z
loop_
_atom_site_type_symbol
_atom_site_label
_atom_site_fract_x
_atom_site_fract_y
_atom_site_fract_z
Si Si1 0.428219 0.401777 0.411343
Si Si2 0.497523 0.830222 0.411046
Si Si3 0.757194 0.693659 0.083398
Si Si4 0.178308 0.000177 0.500000
Si Si5 0.767349 0.056060 0.643387
Si Si6 0.666475 0.164532 0.089274
Si Si7 0.179512 0.179533 0.786579
O O1 0.426578 0.384937 0.500000
O O2 0.527284 0.472717 0.387245
O O3 0.362021 0.434563 0.386870
O O4 0.388535 0.312147 0.364838
O O5 0.493851 0.825611 0.500000
O O6 0.401953 0.803905 0.380223
O O7 0.525113 0.762557 0.377890
O O8 0.845377 0.690754 0.080367
O O9 0.682830 0.597756 0.112474
O O10 0.768244 0.769905 0.138744
O O11 0.734930 0.713542 0.000000
O O12 0.160877 0.080439 0.500000
O O13 0.232350 0.000968 0.427712
O O14 0.086381 0.913620 0.500000
O O15 0.850712 0.149289 0.646085
O O16 0.763642 0.002958 0.717442
O O17 0.573495 0.146990 0.121216
O O18 0.743334 0.256666 0.121446
O O19 0.667765 0.170049 0.000000
O O20 0.086636 0.173271 0.782984
O O21 0.163679 0.081840 0.785046
#
# Coordination Sequence:
#
# PCOD8326918 Si02
#       7
#    12  12  12   6  12  12  12
#     4   9  17  30  46  65  87 113 146 182 219 260
#     4   8  13  20  32  52  78 105 131 160 197 242
#     4   8  15  28  44  63  89 120 156 199 243 283
#     4  10  19  30  45  66  92 122 154 186 221 264
#     4  10  20  33  48  67  90 118 151 187 232 278
#     4   8  12  19  35  61  92 124 155 185 221 271
#     4  10  20  33  48  66  90 121 157 196 238 285
#
# _framework density 16.068442000000001
#
# number of rings (size 3 to 8) (size 9 to 14) (size 15 to 20)
#    0.000    3.077    0.769    2.846    0.000    2.769 
#    0.000    2.308    0.000    1.231    0.000    0.000 
#    0.000    0.000    0.000    0.462    0.000   12.000 
#
# Total GULP energy -966440.477542 kJ/mol
# GULP energy per Si atom -12390.262533 kJ/mol
# Density = 1.603187 g / cm^3
# Si number density = 16.068442 Si / 1000 Ang^3
#
#
#
# Elastic Constant Matrix: (Units=GPa)
#
#
# Indices 1 2 3 4 5 6 
#
# 1 65.0461 33.3930 33.8609 0.0000 0.0000 0.0000
# 2 33.3930 65.0461 33.8609 0.0000 0.0000 0.0000
# 3 33.8609 33.8609 73.9399 0.0000 0.0000 0.0000
# 4 0.0000 0.0000 0.0000 15.5219 0.0000 0.0000
# 5 0.0000 0.0000 0.0000 0.0000 15.5219 0.0000
# 6 0.0000 0.0000 0.0000 0.0000 0.0000 15.8266
#
#
#
# Elastic Compliance Matrix: (Units=1/GPa)
#
#
# Indices 1 2 3 4 5 6 
#
# 1 0.023212 -0.008381 -0.006792 0.000000 0.000000 0.000000
# 2 -0.008381 0.023212 -0.006792 0.000000 0.000000 0.000000
# 3 -0.006792 -0.006792 0.019745 0.000000 0.000000 0.000000
# 4 0.000000 0.000000 0.000000 0.064425 0.000000 0.000000
# 5 0.000000 0.000000 0.000000 0.000000 0.064425 0.000000
# 6 0.000000 0.000000 0.000000 0.000000 0.000000 0.063185
#
#
# Mechanical properties :
#
#
# Convention : Reuss Voigt Hill
#
# Bulk Modulus (GPa) = 44.96454 45.14020 45.05237
# Shear Modulus (GPa) = 16.15265 16.23521 16.19393
#
# Velocity S-wave (km/s) = 3.17399 3.18209 3.17805
# Velocity P-wave (km/s) = 6.44020 6.45402 6.44712
#
# Compressibility (1/GPa) = 0.02223975
#
# Stress axis : x y z
#
# Youngs Moduli (GPa) = 43.08153 43.08153 50.64507
#
# Poissons Ratio (x) = 0.36105 0.34398
# Poissons Ratio (y) = 0.36105 0.34398
# Poissons Ratio (z) = 0.29261 0.29261
#
# Static dielectric constant tensor:
#      x y z
#    x 3.568780 0.000000 0.000000 
#    y 0.000000 3.568780 0.000000 
#    z 0.000000 0.000000 2.987980 
# 
# 
# High freq. dielectric constant tensor:
#      x y z
#    x 1.607560 0.000000 0.000000 
#    y 0.000000 1.607560 0.000000 
#    z 0.000000 0.000000 1.578970 
# 
# From -- ./inp_files/3153.got.cif
#   From: 2010.03.12/outbox.cif.g09.slc.cpg/sg187_2_cif.got.tgz:3153.got - 2010.04.01 11:58:23.
