data_PCOD8326632
_publ_section_title
;
Structure prediction by ZEFSAII (Michael W. Deem and Ramdas Pophale) SiO2 
 PCOD8326632
Probable space group: P 63 C M
;
_chemical_formula_sum "Si O2"
_cell_formula_units_Z 84
_cell_length_a 13.461014
_cell_length_b 13.461014
_cell_length_c 27.599138
_cell_angle_alpha 90.000000
_cell_angle_beta 90.000000
_cell_angle_gamma 120.000000
_cell_volume 4330.935357
_symmetry_space_group_name_H-M "P 63 C M"
_symmetry_group_IT_number 185
_symmetry_cell_setting 'hexagonal'
loop_
_space_group_symop_operation_xyz
x,y,z
x-y,x,1/2+z
-y,x-y,z
-x,-y,1/2+z
-x+y,-x,z
y,-x+y,1/2+z
-x+y,y,1/2+z
x,x-y,1/2+z
-y,-x,1/2+z
y,x,z
x-y,-y,z
-x,-x+y,z
loop_
_atom_site_type_symbol
_atom_site_label
_atom_site_fract_x
_atom_site_fract_y
_atom_site_fract_z
Si Si1 0.124178 0.585478 0.079770
Si Si2 0.469510 0.133576 0.273872
Si Si3 0.455365 0.133357 0.824420
Si Si4 0.326637 0.462657 0.663870
Si Si5 0.868853 0.133711 0.108918
Si Si6 0.705789 0.229679 0.428467
Si Si7 0.752466 0.180233 0.529689
O O1 0.175951 0.578410 0.132252
O O2 0.211890 0.693208 0.048832
O O3 0.097664 0.470857 0.050563
O O4 0.000000 0.578127 0.085410
O O5 0.582201 0.162326 0.304883
O O6 0.412863 0.205318 0.294550
O O7 0.502836 0.174794 0.218546
O O8 0.375296 0.000000 0.277154
O O9 0.457769 0.169791 0.879745
O O10 0.363664 0.000000 0.817229
O O11 0.386135 0.386135 0.659809
O O12 0.198304 0.382430 0.641244
O O13 0.858684 0.160576 0.051858
O O14 0.000000 0.175301 0.122156
O O15 0.795012 0.000000 0.120245
O O16 0.792799 0.367829 0.431029
O O17 0.744001 0.174451 0.471433
#
# Coordination Sequence:
#
# PCOD8326632 Si02
#       7
#    12  12  12  12  12  12  12
#     4  10  19  32  49  75 107 137 171 212 270 329
#     4  10  20  38  58  83 119 153 194 246 294 352
#     4  11  22  36  60  86 115 154 193 240 303 362
#     4   8  18  34  54  78 109 145 182 232 284 329
#     4  10  21  37  55  78 111 153 196 235 274 327
#     4  10  18  36  57  79 112 141 184 235 284 345
#     4  11  19  33  53  79 106 141 176 226 275 332
#
# _framework density 19.395349
#
# number of rings (size 3 to 8) (size 9 to 14) (size 15 to 20)
#    0.286    1.714    2.857    2.429    0.000    4.000 
#    0.000    2.857    0.000    0.286    0.000    0.000 
#    0.000    0.000    0.000    0.000    0.000    0.000 
#
# Total GULP energy -1040965.186553 kJ/mol
# GULP energy per Si atom -12392.442697 kJ/mol
# Density = 1.935120 g / cm^3
# Si number density = 19.395349 Si / 1000 Ang^3
#
#
#
# Elastic Constant Matrix: (Units=GPa)
#
#
# Indices 1 2 3 4 5 6 
#
# 1 73.9146 26.0048 33.2570 0.0000 0.0000 0.0000
# 2 26.0048 73.9146 33.2570 0.0000 0.0000 0.0000
# 3 33.2570 33.2570 162.5140 0.0000 0.0000 0.0000
# 4 0.0000 0.0000 0.0000 20.7278 0.0000 0.0000
# 5 0.0000 0.0000 0.0000 0.0000 20.7278 0.0000
# 6 0.0000 0.0000 0.0000 0.0000 0.0000 23.9549
#
#
#
# Elastic Compliance Matrix: (Units=1/GPa)
#
#
# Indices 1 2 3 4 5 6 
#
# 1 0.016229 -0.004643 -0.002371 0.000000 0.000000 0.000000
# 2 -0.004643 0.016229 -0.002371 0.000000 0.000000 0.000000
# 3 -0.002371 -0.002371 0.007124 0.000000 0.000000 0.000000
# 4 0.000000 0.000000 0.000000 0.048244 0.000000 0.000000
# 5 0.000000 0.000000 0.000000 0.000000 0.048244 0.000000
# 6 0.000000 0.000000 0.000000 0.000000 0.000000 0.041745
#
#
# Mechanical properties :
#
#
# Convention : Reuss Voigt Hill
#
# Bulk Modulus (GPa) = 48.04836 55.04232 51.54534
# Shear Modulus (GPa) = 24.56706 27.60371 26.08538
#
# Velocity S-wave (km/s) = 3.56286 3.77664 3.67131
# Velocity P-wave (km/s) = 6.46159 6.88898 6.67871
#
# Compressibility (1/GPa) = 0.02081237
#
# Stress axis : x y z
#
# Youngs Moduli (GPa) = 61.61621 61.61621 140.37555
#
# Poissons Ratio (x) = 0.28609 0.33284
# Poissons Ratio (y) = 0.28609 0.33284
# Poissons Ratio (z) = 0.14610 0.14610
#
# Static dielectric constant tensor:
#      x y z
#    x 3.350920 0.000000 0.000000 
#    y 0.000000 3.350920 0.000000 
#    z 0.000000 0.000000 3.646460 
# 
# 
# High freq. dielectric constant tensor:
#      x y z
#    x 1.739210 0.000000 0.000000 
#    y 0.000000 1.739210 0.000000 
#    z 0.000000 0.000000 1.754180 
# 
# From -- ./inp_files/2155.got.cif
#   From: 2010.03.12/outbox.cif.g09.slc.cpg/sg185_cif.got.tgz:2155.got - 2010.04.01 11:55:19.
