data_PCOD8326383
_publ_section_title
;
Structure prediction by ZEFSAII (Michael W. Deem and Ramdas Pophale) SiO2 
 PCOD8326383
Probable space group: P 64 2 2
;
_chemical_formula_sum "Si O2"
_cell_formula_units_Z 69
_cell_length_a 13.741779
_cell_length_b 13.741779
_cell_length_c 18.489391
_cell_angle_alpha 90.000000
_cell_angle_beta 90.000000
_cell_angle_gamma 120.000000
_cell_volume 3023.703189
_symmetry_space_group_name_H-M "P 64 2 2"
_symmetry_group_IT_number 181
_symmetry_cell_setting 'hexagonal'
loop_
_space_group_symop_operation_xyz
x,y,z
x-y,x,2/3+z
-y,x-y,1/3+z
-x,-y,z
-x+y,-x,2/3+z
y,-x+y,1/3+z
x-y,-y,-z
-x,-x+y,2/3-z
y,x,1/3-z
-y,-x,1/3-z
-x+y,y,-z
x,x-y,2/3-z
loop_
_atom_site_type_symbol
_atom_site_label
_atom_site_fract_x
_atom_site_fract_y
_atom_site_fract_z
Si Si1 0.392470 0.878878 0.204603
Si Si2 0.000000 0.000000 0.333334
Si Si3 0.356986 0.713971 0.500000
Si Si4 0.248110 0.965461 0.167710
Si Si5 0.858436 0.784692 0.237847
Si Si6 0.327069 0.049281 0.327104
Si Si7 0.178430 0.598395 0.686854
O O1 0.412687 0.777647 0.178988
O O2 0.301362 0.885366 0.150776
O O3 0.357318 0.855024 0.291071
O O4 0.500000 0.000000 0.194321
O O5 0.926485 0.897593 0.281930
O O6 0.369622 0.798785 0.434547
O O7 0.112567 0.887434 0.166667
O O8 0.274645 0.067373 0.113224
O O9 0.303574 0.013644 0.244535
O O10 0.811678 0.811678 0.166667
O O11 0.754479 0.700407 0.287581
O O12 0.305115 0.152558 0.333334
O O13 0.450691 0.079435 0.351693
O O14 0.294121 0.705880 0.666667
#
# Coordination Sequence:
#
# PCOD8326383 Si02
#       7
#    12   3   6  12  12  12  12
#     4  11  22  45  71  99 136 182 229 292 358 420
#     4  12  22  40  60  90 142 180 226 264 322 418
#     4  10  22  46  77 104 135 184 242 290 366 440
#     4  12  24  41  67  95 138 194 228 267 355 438
#     4  12  22  37  62  95 136 182 219 274 339 412
#     4  11  21  42  64  98 136 172 231 292 334 405
#     4   9  21  42  74  97 129 177 232 299 358 403
#
# _framework density 22.819699
#
# number of rings (size 3 to 8) (size 9 to 14) (size 15 to 20)
#    0.000    1.043    5.217    2.348    0.000    0.000 
#    6.261    0.435    0.000    4.696    0.000    0.000 
#    0.000    0.000    0.000    0.000    0.000    0.000 
#
# Total GULP energy -854838.480724 kJ/mol
# GULP energy per Si atom -12388.963489 kJ/mol
# Density = 2.276776 g / cm^3
# Si number density = 22.819699 Si / 1000 Ang^3
#
#
#
# Elastic Constant Matrix: (Units=GPa)
#
#
# Indices 1 2 3 4 5 6 
#
# 1 89.1811 19.8639 36.2511 0.0000 0.0000 0.0000
# 2 19.8639 89.1811 36.2511 0.0000 0.0000 0.0000
# 3 36.2511 36.2511 110.0238 0.0000 0.0000 0.0000
# 4 0.0000 0.0000 0.0000 37.3646 0.0000 0.0000
# 5 0.0000 0.0000 0.0000 0.0000 37.3646 0.0000
# 6 0.0000 0.0000 0.0000 0.0000 0.0000 34.6586
#
#
#
# Elastic Compliance Matrix: (Units=1/GPa)
#
#
# Indices 1 2 3 4 5 6 
#
# 1 0.013085 -0.001342 -0.003869 0.000000 0.000000 0.000000
# 2 -0.001342 0.013085 -0.003869 0.000000 0.000000 0.000000
# 3 -0.003869 -0.003869 0.011639 0.000000 0.000000 0.000000
# 4 0.000000 0.000000 0.000000 0.026763 0.000000 0.000000
# 5 0.000000 0.000000 0.000000 0.000000 0.026763 0.000000
# 6 0.000000 0.000000 0.000000 0.000000 0.000000 0.028853
#
#
# Mechanical properties :
#
#
# Convention : Reuss Voigt Hill
#
# Bulk Modulus (GPa) = 50.89552 52.56871 51.73212
# Shear Modulus (GPa) = 34.50729 34.94556 34.72642
#
# Velocity S-wave (km/s) = 3.89288 3.91753 3.90522
# Velocity P-wave (km/s) = 6.52363 6.59918 6.56152
#
# Compressibility (1/GPa) = 0.01964810
#
# Stress axis : x y z
#
# Youngs Moduli (GPa) = 76.42484 76.42484 85.92097
#
# Poissons Ratio (x) = 0.10254 0.33244
# Poissons Ratio (y) = 0.10254 0.33244
# Poissons Ratio (z) = 0.29570 0.29570
#
# Static dielectric constant tensor:
#      x y z
#    x 4.575680 0.000000 0.000000 
#    y 0.000000 4.575680 0.000000 
#    z 0.000000 0.000000 4.567640 
# 
# 
# High freq. dielectric constant tensor:
#      x y z
#    x 1.905610 0.000000 0.000000 
#    y 0.000000 1.905610 0.000000 
#    z 0.000000 0.000000 1.891700 
# 
# From -- ./inp_files/7836.got.cif
#   From: 2010.03.12/outbox.cif.g09.slc.cpg/sg181_4_cif.got.tgz:7836.got - 2010.04.01 11:42:41.
