data_PCOD8326110
_publ_section_title
;
Structure prediction by ZEFSAII (Michael W. Deem and Ramdas Pophale) SiO2 
 PCOD8326110
Probable space group: P 65 2 2
;
_chemical_formula_sum "Si O2"
_cell_formula_units_Z 42
_cell_length_a 14.733213
_cell_length_b 14.733213
_cell_length_c 10.208147
_cell_angle_alpha 90.000000
_cell_angle_beta 90.000000
_cell_angle_gamma 120.000000
_cell_volume 1918.988986
_symmetry_space_group_name_H-M "P 65 2 2"
_symmetry_group_IT_number 179
_symmetry_cell_setting 'hexagonal'
loop_
_space_group_symop_operation_xyz
x,y,z
x-y,x,5/6+z
-y,x-y,2/3+z
-x,-y,1/2+z
-x+y,-x,1/3+z
y,-x+y,1/6+z
x-y,-y,-z
-x,-x+y,1/3-z
y,x,2/3-z
-y,-x,1/6-z
-x+y,y,1/2-z
x,x-y,5/6-z
loop_
_atom_site_type_symbol
_atom_site_label
_atom_site_fract_x
_atom_site_fract_y
_atom_site_fract_z
Si Si1 0.482716 0.965432 0.250000
Si Si2 0.770071 0.229930 0.083334
Si Si3 0.000000 0.817559 0.166667
Si Si4 0.432635 0.624246 0.353895
Si Si5 0.895038 0.614543 0.993974
O O1 0.448366 0.894616 0.123200
O O2 0.608558 0.028951 0.259290
O O3 0.816381 0.354771 0.085088
O O4 0.794694 0.184783 0.214376
O O5 0.050610 0.780439 0.279390
O O6 0.919706 0.839411 0.250000
O O7 0.384909 0.692455 0.416667
O O8 0.538527 0.706108 0.281007
#
# Coordination Sequence:
#
# PCOD8326110 Si02
#       5
#     6   6   6  12  12
#     4  12  23  40  70 102 160 202 241 296 350 446
#     4  12  25  40  66 114 154 196 239 288 360 466
#     4  12  30  60  84 104 138 192 264 342 414 458
#     4  12  23  41  67 104 156 203 243 289 359 447
#     4  12  25  45  71 112 151 199 249 305 381 459
#
# _framework density 21.886526
#
# number of rings (size 3 to 8) (size 9 to 14) (size 15 to 20)
#    0.000    0.000    5.714    5.143    4.000    0.000 
#    2.571    0.000    0.000    0.000    0.000    0.000 
#    0.000    0.000    0.000    0.000    0.000    0.000 
#
# Total GULP energy -520626.920126 kJ/mol
# GULP energy per Si atom -12395.879051 kJ/mol
# Density = 2.183671 g / cm^3
# Si number density = 21.886526 Si / 1000 Ang^3
#
#
#
# Elastic Constant Matrix: (Units=GPa)
#
#
# Indices 1 2 3 4 5 6 
#
# 1 115.8487 41.5270 58.6001 0.0000 0.0000 0.0000
# 2 41.5270 115.8487 58.6001 0.0000 0.0000 0.0000
# 3 58.6001 58.6001 146.8605 0.0000 0.0000 0.0000
# 4 0.0000 0.0000 0.0000 43.5884 0.0000 0.0000
# 5 0.0000 0.0000 0.0000 0.0000 43.5884 0.0000
# 6 0.0000 0.0000 0.0000 0.0000 0.0000 37.1609
#
#
#
# Elastic Compliance Matrix: (Units=1/GPa)
#
#
# Indices 1 2 3 4 5 6 
#
# 1 0.011248 -0.002207 -0.003607 0.000000 0.000000 0.000000
# 2 -0.002207 0.011248 -0.003607 0.000000 0.000000 0.000000
# 3 -0.003607 -0.003607 0.009688 0.000000 0.000000 0.000000
# 4 0.000000 0.000000 0.000000 0.022942 0.000000 0.000000
# 5 0.000000 0.000000 0.000000 0.000000 0.022942 0.000000
# 6 0.000000 0.000000 0.000000 0.000000 0.000000 0.026910
#
#
# Mechanical properties :
#
#
# Convention : Reuss Voigt Hill
#
# Bulk Modulus (GPa) = 74.96358 77.33469 76.14914
# Shear Modulus (GPa) = 38.98085 39.52292 39.25189
#
# Velocity S-wave (km/s) = 4.22482 4.25409 4.23948
# Velocity P-wave (km/s) = 7.62392 7.71627 7.67023
#
# Compressibility (1/GPa) = 0.01333981
#
# Stress axis : x y z
#
# Youngs Moduli (GPa) = 88.90576 88.90576 103.22016
#
# Poissons Ratio (x) = 0.19623 0.37236
# Poissons Ratio (y) = 0.19623 0.37236
# Poissons Ratio (z) = 0.32072 0.32072
#
# Static dielectric constant tensor:
#      x y z
#    x 4.102170 0.000000 0.000000 
#    y 0.000000 4.102170 0.000000 
#    z 0.000000 0.000000 4.114100 
# 
# 
# High freq. dielectric constant tensor:
#      x y z
#    x 1.850880 0.000000 0.000000 
#    y 0.000000 1.850880 0.000000 
#    z 0.000000 0.000000 1.884650 
# 
# From -- ./inp_files/4161.got.cif
#   From: 2010.03.12/outbox.cif.g09.slc.cpg/sg179_3_cif.got.tgz:4161.got - 2010.04.02 07:08:42.
