data_PCOD8326116
_publ_section_title
;
Structure prediction by ZEFSAII (Michael W. Deem and Ramdas Pophale) SiO2 
 PCOD8326116
Probable space group: P 65 2 2
;
_chemical_formula_sum "Si O2"
_cell_formula_units_Z 42
_cell_length_a 7.701689
_cell_length_b 7.701689
_cell_length_c 36.122334
_cell_angle_alpha 90.000000
_cell_angle_beta 90.000000
_cell_angle_gamma 120.000000
_cell_volume 1855.574479
_symmetry_space_group_name_H-M "P 65 2 2"
_symmetry_group_IT_number 179
_symmetry_cell_setting 'hexagonal'
loop_
_space_group_symop_operation_xyz
x,y,z
x-y,x,5/6+z
-y,x-y,2/3+z
-x,-y,1/2+z
-x+y,-x,1/3+z
y,-x+y,1/6+z
x-y,-y,-z
-x,-x+y,1/3-z
y,x,2/3-z
-y,-x,1/6-z
-x+y,y,1/2-z
x,x-y,5/6-z
loop_
_atom_site_type_symbol
_atom_site_label
_atom_site_fract_x
_atom_site_fract_y
_atom_site_fract_z
Si Si1 0.409992 0.932715 0.146417
Si Si2 0.845818 0.089585 0.895033
Si Si3 0.000000 0.184068 0.666667
Si Si4 0.560575 0.678001 0.613795
O O1 0.546445 0.877879 0.121233
O O2 0.496016 0.986633 0.187963
O O3 0.169118 0.770958 0.148551
O O4 0.404962 0.123088 0.131991
O O5 0.006950 0.112607 0.863871
O O6 0.943646 0.246718 0.927759
O O7 0.755533 0.877767 0.916667
O O8 0.386775 0.613226 0.583334
#
# Coordination Sequence:
#
# PCOD8326116 Si02
#       4
#    12  12   6  12
#     4  12  25  48  75 111 155 199 263 323 384 475
#     4  12  24  49  79 111 156 208 253 329 395 455
#     4  12  24  48  76 108 158 200 264 314 388 486
#     4  12  24  47  72 111 157 202 262 320 396 473
#
# _framework density 22.634499999999999
#
# number of rings (size 3 to 8) (size 9 to 14) (size 15 to 20)
#    0.000    0.000    8.571    0.857    0.000    0.000 
#   15.429    1.429    0.000    0.000    0.000    0.000 
#    0.000    0.000    0.000    0.000    0.000    0.000 
#
# Total GULP energy -520392.270257 kJ/mol
# GULP energy per Si atom -12390.292149 kJ/mol
# Density = 2.258298 g / cm^3
# Si number density = 22.634500 Si / 1000 Ang^3
#
#
#
# Elastic Constant Matrix: (Units=GPa)
#
#
# Indices 1 2 3 4 5 6 
#
# 1 145.2180 85.1676 78.3898 0.0000 0.0000 0.0000
# 2 85.1676 145.2180 78.3898 0.0000 0.0000 0.0000
# 3 78.3898 78.3898 147.0813 0.0000 0.0000 0.0000
# 4 0.0000 0.0000 0.0000 50.7840 0.0000 0.0000
# 5 0.0000 0.0000 0.0000 0.0000 50.7840 0.0000
# 6 0.0000 0.0000 0.0000 0.0000 0.0000 30.0252
#
#
#
# Elastic Compliance Matrix: (Units=1/GPa)
#
#
# Indices 1 2 3 4 5 6 
#
# 1 0.011732 -0.004921 -0.003630 0.000000 0.000000 0.000000
# 2 -0.004921 0.011732 -0.003630 0.000000 0.000000 0.000000
# 3 -0.003630 -0.003630 0.010668 0.000000 0.000000 0.000000
# 4 0.000000 0.000000 0.000000 0.019691 0.000000 0.000000
# 5 0.000000 0.000000 0.000000 0.000000 0.019691 0.000000
# 6 0.000000 0.000000 0.000000 0.000000 0.000000 0.033305
#
#
# Mechanical properties :
#
#
# Convention : Reuss Voigt Hill
#
# Bulk Modulus (GPa) = 102.35363 102.37907 102.36635
# Shear Modulus (GPa) = 37.19192 39.35665 38.27428
#
# Velocity S-wave (km/s) = 4.05798 4.17440 4.11660
# Velocity P-wave (km/s) = 8.20211 8.28033 8.24131
#
# Compressibility (1/GPa) = 0.00977005
#
# Stress axis : x y z
#
# Youngs Moduli (GPa) = 85.23900 85.23900 93.73627
#
# Poissons Ratio (x) = 0.41946 0.34025
# Poissons Ratio (y) = 0.41946 0.34025
# Poissons Ratio (z) = 0.30941 0.30941
#
# Static dielectric constant tensor:
#      x y z
#    x 3.961730 0.000000 0.000000 
#    y 0.000000 3.961730 0.000000 
#    z 0.000000 0.000000 2.491680 
# 
# 
# High freq. dielectric constant tensor:
#      x y z
#    x 1.890860 0.000000 0.000000 
#    y 0.000000 1.890860 0.000000 
#    z 0.000000 0.000000 1.919270 
# 
# From -- ./inp_files/9281.got.cif
#   From: 2010.03.12/outbox.cif.g09.slc.cpg/sg179_5_cif.got.tgz:9281.got - 2010.04.02 07:08:42.
