data_PCOD8326320
_publ_section_title
;
Structure prediction by ZEFSAII (Michael W. Deem and Ramdas Pophale) SiO2 
 PCOD8326320
Probable space group: P 64 2 2
;
_chemical_formula_sum "Si O2"
_cell_formula_units_Z 54
_cell_length_a 23.212726
_cell_length_b 23.212726
_cell_length_c 6.147229
_cell_angle_alpha 90.000000
_cell_angle_beta 90.000000
_cell_angle_gamma 120.000000
_cell_volume 2868.549271
_symmetry_space_group_name_H-M "P 64 2 2"
_symmetry_group_IT_number 181
_symmetry_cell_setting 'hexagonal'
loop_
_space_group_symop_operation_xyz
x,y,z
x-y,x,2/3+z
-y,x-y,1/3+z
-x,-y,z
-x+y,-x,2/3+z
y,-x+y,1/3+z
x-y,-y,-z
-x,-x+y,2/3-z
y,x,1/3-z
-y,-x,1/3-z
-x+y,y,-z
x,x-y,2/3-z
loop_
_atom_site_type_symbol
_atom_site_label
_atom_site_fract_x
_atom_site_fract_y
_atom_site_fract_z
Si Si1 0.220949 0.610475 0.833334
Si Si2 0.717281 0.645715 0.780978
Si Si3 0.837253 0.162748 0.166667
Si Si4 0.512424 0.816647 0.218117
Si Si5 0.930099 0.181052 0.783451
Si Si6 0.276870 0.723131 0.166667
O O1 0.178069 0.634689 0.693879
O O2 0.268476 0.601161 0.668020
O O3 0.668547 0.668547 0.666667
O O4 0.767983 0.633999 0.628064
O O5 0.677931 0.571991 0.884197
O O6 0.757385 0.698426 0.968009
O O7 0.820295 0.102374 0.323594
O O8 0.533773 0.766887 0.333334
O O9 0.489966 0.791005 0.970787
O O10 0.888707 0.111294 0.666667
O O11 0.000000 0.186916 0.833334
#
# Coordination Sequence:
#
# PCOD8326320 Si02
#       6
#     6  12   6  12  12   6
#     4  10  22  37  57  87 114 147 193 240 297 346
#     4  11  21  36  58  86 118 152 190 235 291 344
#     4  10  19  34  55  80 121 146 188 236 282 344
#     4  10  21  36  56  86 117 151 188 240 294 351
#     4  10  20  34  54  86 118 149 188 234 287 340
#     4  10  21  37  60  84 114 145 191 243 294 348
#
# _framework density 18.824846999999998
#
# number of rings (size 3 to 8) (size 9 to 14) (size 15 to 20)
#    0.000    1.778    2.222    3.333    0.000   10.667 
#    0.000    0.000    0.000    4.000    0.000    3.889 
#    0.000    0.000    0.000    0.000    0.000    0.000 
#
# Total GULP energy -669077.466288 kJ/mol
# GULP energy per Si atom -12390.323450 kJ/mol
# Density = 1.878200 g / cm^3
# Si number density = 18.824847 Si / 1000 Ang^3
#
#
#
# Elastic Constant Matrix: (Units=GPa)
#
#
# Indices 1 2 3 4 5 6 
#
# 1 108.8707 63.3251 39.0267 0.0000 0.0000 0.0000
# 2 63.3251 108.8707 39.0267 0.0000 0.0000 0.0000
# 3 39.0267 39.0267 103.2393 0.0000 0.0000 0.0000
# 4 0.0000 0.0000 0.0000 23.8520 0.0000 0.0000
# 5 0.0000 0.0000 0.0000 0.0000 23.8520 0.0000
# 6 0.0000 0.0000 0.0000 0.0000 0.0000 22.7728
#
#
#
# Elastic Compliance Matrix: (Units=1/GPa)
#
#
# Indices 1 2 3 4 5 6 
#
# 1 0.014482 -0.007474 -0.002649 0.000000 0.000000 0.000000
# 2 -0.007474 0.014482 -0.002649 0.000000 0.000000 0.000000
# 3 -0.002649 -0.002649 0.011689 0.000000 0.000000 0.000000
# 4 0.000000 0.000000 0.000000 0.041925 0.000000 0.000000
# 5 0.000000 0.000000 0.000000 0.000000 0.041925 0.000000
# 6 0.000000 0.000000 0.000000 0.000000 0.000000 0.043912
#
#
# Mechanical properties :
#
#
# Convention : Reuss Voigt Hill
#
# Bulk Modulus (GPa) = 66.18755 67.08195 66.63475
# Shear Modulus (GPa) = 25.12604 26.06886 25.59745
#
# Velocity S-wave (km/s) = 3.65736 3.72534 3.69151
# Velocity P-wave (km/s) = 7.28499 7.36318 7.32419
#
# Compressibility (1/GPa) = 0.01510858
#
# Stress axis : x y z
#
# Youngs Moduli (GPa) = 69.05070 69.05070 85.54921
#
# Poissons Ratio (x) = 0.51608 0.22664
# Poissons Ratio (y) = 0.51608 0.22664
# Poissons Ratio (z) = 0.18293 0.18293
#
# Static dielectric constant tensor:
#      x y z
#    x 3.237330 0.000000 0.000000 
#    y 0.000000 3.237330 0.000000 
#    z 0.000000 0.000000 3.863320 
# 
# 
# High freq. dielectric constant tensor:
#      x y z
#    x 1.710570 0.000000 0.000000 
#    y 0.000000 1.710570 0.000000 
#    z 0.000000 0.000000 1.757260 
# 
# From -- ./inp_files/1292.got.cif
#   From: 2010.03.12/outbox.cif.g09.slc.cpg/sg181_1_cif.got.tgz:1292.got - 2010.04.01 11:42:41.
