data_PCOD8326623
_publ_section_title
;
Structure prediction by ZEFSAII (Michael W. Deem and Ramdas Pophale) SiO2 
 PCOD8326623
Probable space group: P 63 C M
;
_chemical_formula_sum "Si O2"
_cell_formula_units_Z 72
_cell_length_a 21.312170
_cell_length_b 21.312170
_cell_length_c 10.109844
_cell_angle_alpha 90.000000
_cell_angle_beta 90.000000
_cell_angle_gamma 120.000000
_cell_volume 3976.769592
_symmetry_space_group_name_H-M "P 63 C M"
_symmetry_group_IT_number 185
_symmetry_cell_setting 'hexagonal'
loop_
_space_group_symop_operation_xyz
x,y,z
x-y,x,1/2+z
-y,x-y,z
-x,-y,1/2+z
-x+y,-x,z
y,-x+y,1/2+z
-x+y,y,1/2+z
x,x-y,1/2+z
-y,-x,1/2+z
y,x,z
x-y,-y,z
-x,-x+y,z
loop_
_atom_site_type_symbol
_atom_site_label
_atom_site_fract_x
_atom_site_fract_y
_atom_site_fract_z
Si Si1 0.708500 0.565260 0.028460
Si Si2 0.329453 0.512228 0.787290
Si Si3 0.082410 0.279303 0.633679
Si Si4 0.279302 0.082410 0.940903
Si Si5 0.813171 0.473912 0.287290
Si Si6 0.708500 0.143240 0.046121
O O1 0.666440 0.534447 0.165612
O O2 0.779523 0.559046 0.037290
O O3 0.733180 0.648446 0.996699
O O4 0.654528 0.514713 0.915175
O O5 0.259972 0.522263 0.787290
O O6 0.393428 0.594459 0.787291
O O7 0.333560 0.465553 0.908969
O O8 0.128830 0.257659 0.537291
O O9 0.110725 0.291229 0.787291
O O10 0.084734 0.351554 0.577882
O O11 0.000000 0.214404 0.627748
O O12 0.214404 0.000000 0.946833
O O13 0.860185 0.514713 0.159405
#
# Coordination Sequence:
#
# PCOD8326623 Si02
#       6
#    12  12  12  12  12  12
#     4   9  18  31  48  72 101 143 182 226 275 319
#     4  10  19  28  47  71 104 137 190 240 289 335
#     4  10  21  38  61  88 115 141 174 216 259 308
#     4  10  21  38  61  88 115 141 174 216 259 308
#     4  10  17  30  45  69 102 141 182 238 291 331
#     4   9  18  31  48  72 101 143 182 226 275 319
#
# _framework density 18.105149000000001
#
# number of rings (size 3 to 8) (size 9 to 14) (size 15 to 20)
#    0.000    2.333    1.667    1.333    7.000    0.667 
#    0.000    3.333    0.000    6.333    0.000    0.000 
#    0.000    0.000    0.000    0.000    0.000    0.000 
#
# Total GULP energy -892264.743229 kJ/mol
# GULP energy per Si atom -12392.565878 kJ/mol
# Density = 1.806394 g / cm^3
# Si number density = 18.105149 Si / 1000 Ang^3
#
#
#
# Elastic Constant Matrix: (Units=GPa)
#
#
# Indices 1 2 3 4 5 6 
#
# 1 63.3669 24.6297 48.4552 0.0000 0.0000 0.0000
# 2 24.6297 63.3669 48.4552 0.0000 0.0000 0.0000
# 3 48.4552 48.4552 172.8836 0.0000 0.0000 0.0000
# 4 0.0000 0.0000 0.0000 25.7597 0.0000 0.0000
# 5 0.0000 0.0000 0.0000 0.0000 25.7597 0.0000
# 6 0.0000 0.0000 0.0000 0.0000 0.0000 19.3686
#
#
#
# Elastic Compliance Matrix: (Units=1/GPa)
#
#
# Indices 1 2 3 4 5 6 
#
# 1 0.021126 -0.004689 -0.004607 0.000000 0.000000 0.000000
# 2 -0.004689 0.021126 -0.004607 0.000000 0.000000 0.000000
# 3 -0.004607 -0.004607 0.008367 0.000000 0.000000 0.000000
# 4 0.000000 0.000000 0.000000 0.038820 0.000000 0.000000
# 5 0.000000 0.000000 0.000000 0.000000 0.038820 0.000000
# 6 0.000000 0.000000 0.000000 0.000000 0.000000 0.051630
#
#
# Mechanical properties :
#
#
# Convention : Reuss Voigt Hill
#
# Bulk Modulus (GPa) = 43.83270 60.29972 52.06621
# Shear Modulus (GPa) = 23.22334 26.04943 24.63638
#
# Velocity S-wave (km/s) = 3.58536 3.79725 3.69282
# Velocity P-wave (km/s) = 6.43446 7.25280 6.85585
#
# Compressibility (1/GPa) = 0.02281402
#
# Stress axis : x y z
#
# Youngs Moduli (GPa) = 47.33400 47.33400 119.52005
#
# Poissons Ratio (x) = 0.22193 0.55065
# Poissons Ratio (y) = 0.22193 0.55065
# Poissons Ratio (z) = 0.21808 0.21808
#
# Static dielectric constant tensor:
#      x y z
#    x 3.032380 0.000000 0.000000 
#    y 0.000000 3.032380 0.000000 
#    z 0.000000 0.000000 3.954420 
# 
# 
# High freq. dielectric constant tensor:
#      x y z
#    x 1.670830 0.000000 0.000000 
#    y 0.000000 1.670830 0.000000 
#    z 0.000000 0.000000 1.727830 
# 
# From -- ./inp_files/635.got.cif
#   From: 2010.03.12/outbox.cif.g09.slc.cpg/sg185_cif.got.tgz:635.got - 2010.04.01 11:55:19.
