data_PCOD8326369
_publ_section_title
;
Structure prediction by ZEFSAII (Michael W. Deem and Ramdas Pophale) SiO2 
 PCOD8326369
Probable space group: P 64 2 2
;
_chemical_formula_sum "Si O2"
_cell_formula_units_Z 48
_cell_length_a 17.420746
_cell_length_b 17.420746
_cell_length_c 8.194072
_cell_angle_alpha 90.000000
_cell_angle_beta 90.000000
_cell_angle_gamma 120.000000
_cell_volume 2153.594358
_symmetry_space_group_name_H-M "P 64 2 2"
_symmetry_group_IT_number 181
_symmetry_cell_setting 'hexagonal'
loop_
_space_group_symop_operation_xyz
x,y,z
x-y,x,2/3+z
-y,x-y,1/3+z
-x,-y,z
-x+y,-x,2/3+z
y,-x+y,1/3+z
x-y,-y,-z
-x,-x+y,2/3-z
y,x,1/3-z
-y,-x,1/3-z
-x+y,y,-z
x,x-y,2/3-z
loop_
_atom_site_type_symbol
_atom_site_label
_atom_site_fract_x
_atom_site_fract_y
_atom_site_fract_z
Si Si1 0.802237 0.425650 0.004778
Si Si2 0.082542 0.822842 0.504301
Si Si3 0.891003 0.782005 0.500000
Si Si4 0.750747 0.501494 0.500000
Si Si5 0.571143 0.660044 0.592273
O O1 0.758714 0.323447 0.045530
O O2 0.875042 0.489052 0.134801
O O3 0.727045 0.454090 0.000000
O O4 0.847516 0.423758 0.833334
O O5 0.137186 0.862815 0.666667
O O6 0.138727 0.865700 0.337330
O O7 0.056899 0.720440 0.504186
O O8 0.998072 0.837955 0.502840
O O9 0.840669 0.560232 0.398204
O O10 0.578951 0.578951 0.666667
#
# Coordination Sequence:
#
# PCOD8326369 Si02
#       5
#    12  12   6   6  12
#     4  12  23  46  77 109 138 187 247 298 361 443
#     4  11  23  43  72 105 146 193 253 298 372 442
#     4  10  21  44  67  99 146 192 243 304 360 438
#     4  12  25  44  76 101 146 192 235 304 374 427
#     4  12  26  45  73 108 152 192 240 305 378 444
#
# _framework density 22.288319000000001
#
# number of rings (size 3 to 8) (size 9 to 14) (size 15 to 20)
#    0.000    0.500    6.250    3.000    0.000    2.000 
#    0.000   10.000    0.000    0.000    0.000    0.000 
#    0.000    0.000    0.000    0.000    0.000    0.000 
#
# Total GULP energy -594740.134912 kJ/mol
# GULP energy per Si atom -12390.419477 kJ/mol
# Density = 2.223759 g / cm^3
# Si number density = 22.288319 Si / 1000 Ang^3
#
#
#
# Elastic Constant Matrix: (Units=GPa)
#
#
# Indices 1 2 3 4 5 6 
#
# 1 101.8335 37.2057 43.5863 0.0000 0.0000 0.0000
# 2 37.2057 101.8335 43.5863 0.0000 0.0000 0.0000
# 3 43.5863 43.5863 188.0297 0.0000 0.0000 0.0000
# 4 0.0000 0.0000 0.0000 14.5072 0.0000 0.0000
# 5 0.0000 0.0000 0.0000 0.0000 14.5072 0.0000
# 6 0.0000 0.0000 0.0000 0.0000 0.0000 32.3139
#
#
#
# Elastic Compliance Matrix: (Units=1/GPa)
#
#
# Indices 1 2 3 4 5 6 
#
# 1 0.011944 -0.003529 -0.001951 0.000000 0.000000 0.000000
# 2 -0.003529 0.011944 -0.001951 0.000000 0.000000 0.000000
# 3 -0.001951 -0.001951 0.006223 0.000000 0.000000 0.000000
# 4 0.000000 0.000000 0.000000 0.068931 0.000000 0.000000
# 5 0.000000 0.000000 0.000000 0.000000 0.068931 0.000000
# 6 0.000000 0.000000 0.000000 0.000000 0.000000 0.030946
#
#
# Mechanical properties :
#
#
# Convention : Reuss Voigt Hill
#
# Bulk Modulus (GPa) = 65.57227 71.16148 68.36687
# Shear Modulus (GPa) = 22.84518 30.08687 26.46603
#
# Velocity S-wave (km/s) = 3.20501 3.67808 3.44966
# Velocity P-wave (km/s) = 6.57115 7.07352 6.82696
#
# Compressibility (1/GPa) = 0.01525035
#
# Stress axis : x y z
#
# Youngs Moduli (GPa) = 83.72244 83.72244 160.70266
#
# Poissons Ratio (x) = 0.29546 0.31348
# Poissons Ratio (y) = 0.29546 0.31348
# Poissons Ratio (z) = 0.16332 0.16332
#
# Static dielectric constant tensor:
#      x y z
#    x 3.862000 0.000000 0.000000 
#    y 0.000000 3.862000 0.000000 
#    z 0.000000 0.000000 4.263530 
# 
# 
# High freq. dielectric constant tensor:
#      x y z
#    x 1.868260 0.000000 0.000000 
#    y 0.000000 1.868260 0.000000 
#    z 0.000000 0.000000 1.898620 
# 
# From -- ./inp_files/2777.got.cif
#   From: 2010.03.12/outbox.cif.g09.slc.cpg/sg181_2_cif.got.tgz:2777.got - 2010.04.01 11:42:41.
