data_PCOD8326078
_publ_section_title
;
Structure prediction by ZEFSAII (Michael W. Deem and Ramdas Pophale) SiO2 
 PCOD8326078
Probable space group: P 65 2 2
;
_chemical_formula_sum "Si O2"
_cell_formula_units_Z 42
_cell_length_a 7.601244
_cell_length_b 7.601244
_cell_length_c 41.249716
_cell_angle_alpha 90.000000
_cell_angle_beta 90.000000
_cell_angle_gamma 120.000000
_cell_volume 2064.053461
_symmetry_space_group_name_H-M "P 65 2 2"
_symmetry_group_IT_number 179
_symmetry_cell_setting 'hexagonal'
loop_
_space_group_symop_operation_xyz
x,y,z
x-y,x,5/6+z
-y,x-y,2/3+z
-x,-y,1/2+z
-x+y,-x,1/3+z
y,-x+y,1/6+z
x-y,-y,-z
-x,-x+y,1/3-z
y,x,2/3-z
-y,-x,1/6-z
-x+y,y,1/2-z
x,x-y,5/6-z
loop_
_atom_site_type_symbol
_atom_site_label
_atom_site_fract_x
_atom_site_fract_y
_atom_site_fract_z
Si Si1 0.816798 0.803256 0.086549
Si Si2 0.288465 0.516045 0.962060
Si Si3 0.348318 0.117508 0.823904
Si Si4 0.631127 0.815564 0.916667
O O1 0.759914 0.756496 0.124138
O O2 0.719810 0.593548 0.066872
O O3 0.728116 0.946688 0.073245
O O4 0.064478 0.935523 0.083334
O O5 0.292525 0.335407 0.980915
O O6 0.500998 0.682739 0.946806
O O7 0.229521 0.639663 0.986706
O O8 0.279150 0.279150 0.833334
#
# Coordination Sequence:
#
# PCOD8326078 Si02
#       4
#    12  12  12   6
#     4  10  22  45  69  91 142 175 217 295 333 390
#     4  12  24  43  70  99 135 181 231 271 354 410
#     4  12  24  42  66 101 138 175 224 288 332 411
#     4  10  22  42  70  96 130 178 224 280 340 406
#
# _framework density 20.348310999999999
#
# number of rings (size 3 to 8) (size 9 to 14) (size 15 to 20)
#    0.857    0.000    5.714    1.714    0.000    2.286 
#    0.000    2.857    0.000    0.000    0.000    0.000 
#    0.000    0.000    0.000    0.000    0.000    0.000 
#
# Total GULP energy -520517.747382 kJ/mol
# GULP energy per Si atom -12393.279700 kJ/mol
# Density = 2.030200 g / cm^3
# Si number density = 20.348311 Si / 1000 Ang^3
#
#
#
# Elastic Constant Matrix: (Units=GPa)
#
#
# Indices 1 2 3 4 5 6 
#
# 1 98.2714 51.1915 36.4616 0.0000 0.0000 0.0000
# 2 51.1915 98.2714 36.4616 0.0000 0.0000 0.0000
# 3 36.4616 36.4616 101.6267 0.0000 0.0000 0.0000
# 4 0.0000 0.0000 0.0000 32.5449 0.0000 0.0000
# 5 0.0000 0.0000 0.0000 0.0000 32.5449 0.0000
# 6 0.0000 0.0000 0.0000 0.0000 0.0000 23.5399
#
#
#
# Elastic Compliance Matrix: (Units=1/GPa)
#
#
# Indices 1 2 3 4 5 6 
#
# 1 0.014675 -0.006565 -0.002910 0.000000 0.000000 0.000000
# 2 -0.006565 0.014675 -0.002910 0.000000 0.000000 0.000000
# 3 -0.002910 -0.002910 0.011928 0.000000 0.000000 0.000000
# 4 0.000000 0.000000 0.000000 0.030727 0.000000 0.000000
# 5 0.000000 0.000000 0.000000 0.000000 0.030727 0.000000
# 6 0.000000 0.000000 0.000000 0.000000 0.000000 0.042481
#
#
# Mechanical properties :
#
#
# Convention : Reuss Voigt Hill
#
# Bulk Modulus (GPa) = 60.57203 60.71101 60.64152
# Shear Modulus (GPa) = 28.49233 29.32959 28.91096
#
# Velocity S-wave (km/s) = 3.74602 3.80067 3.77344
# Velocity P-wave (km/s) = 6.96724 7.01147 6.98939
#
# Compressibility (1/GPa) = 0.01650927
#
# Stress axis : x y z
#
# Youngs Moduli (GPa) = 68.14119 68.14119 83.83695
#
# Poissons Ratio (x) = 0.44735 0.24395
# Poissons Ratio (y) = 0.44735 0.24395
# Poissons Ratio (z) = 0.19828 0.19828
#
# Static dielectric constant tensor:
#      x y z
#    x 3.658910 0.000000 0.000000 
#    y 0.000000 3.658910 0.000000 
#    z 0.000000 0.000000 3.627740 
# 
# 
# High freq. dielectric constant tensor:
#      x y z
#    x 1.794310 0.000000 0.000000 
#    y 0.000000 1.794310 0.000000 
#    z 0.000000 0.000000 1.797060 
# 
# From -- ./inp_files/9282.got.cif
#   From: 2010.03.12/outbox.cif.g09.slc.cpg/sg179_5_cif.got.tgz:9282.got - 2010.04.02 07:08:42.
