data_PCOD8326547
_publ_section_title
;
Structure prediction by ZEFSAII (Michael W. Deem and Ramdas Pophale) SiO2 
 PCOD8326547
Probable space group: P 6 M M
;
_chemical_formula_sum "Si O2"
_cell_formula_units_Z 96
_cell_length_a 17.480590
_cell_length_b 17.480590
_cell_length_c 20.665013
_cell_angle_alpha 90.000000
_cell_angle_beta 90.000000
_cell_angle_gamma 120.000000
_cell_volume 5468.629337
_symmetry_space_group_name_H-M "P 6 M M"
_symmetry_group_IT_number 183
_symmetry_cell_setting 'hexagonal'
loop_
_space_group_symop_operation_xyz
x,y,z
x-y,x,z
-y,x-y,z
-x,-y,z
-x+y,-x,z
y,-x+y,z
-x+y,y,z
x,x-y,z
-y,-x,z
y,x,z
x-y,-y,z
-x,-x+y,z
loop_
_atom_site_type_symbol
_atom_site_label
_atom_site_fract_x
_atom_site_fract_y
_atom_site_fract_z
Si Si1 0.899390 0.270875 0.505130
Si Si2 0.896367 0.363771 0.128479
Si Si3 0.636348 0.103650 0.875248
Si Si4 0.636348 0.103650 0.381711
Si Si5 0.729576 0.626707 0.254547
Si Si6 0.899391 0.270875 0.751828
Si Si7 0.729576 0.102869 0.002411
Si Si8 0.332174 0.845095 0.628479
O O1 0.834595 0.165406 0.515219
O O2 0.863546 0.298667 0.442835
O O3 0.895031 0.324922 0.565976
O O4 0.000000 0.291466 0.496215
O O5 0.851764 0.425882 0.128480
O O6 0.868231 0.303969 0.192064
O O7 0.868230 0.303970 0.064894
O O8 0.000000 0.426617 0.128479
O O9 0.573979 0.147957 0.874693
O O10 0.701333 0.136454 0.814123
O O11 0.574548 0.000000 0.869997
O O12 0.691004 0.128400 0.941211
O O13 0.573979 0.147957 0.382265
O O14 0.691004 0.128400 0.315747
O O15 0.574548 0.000000 0.386961
O O16 0.836500 0.672999 0.256365
O O17 0.702861 0.702861 0.253794
O O18 0.834595 0.165406 0.741740
O O19 0.895031 0.324922 0.690983
O O20 0.000000 0.291466 0.760743
O O21 0.836500 0.163501 0.000594
O O22 0.702861 0.000000 0.003165
O O23 0.426666 0.853331 0.628479
O O24 0.257379 0.742622 0.628479
#
# Coordination Sequence:
#
# PCOD8326547 Si02
#       8
#    12  12  12  12  12  12  12  12
#     4  10  20  33  50  72  97 127 163 201 239 280
#     4   9  17  30  49  70  90 116 152 193 237 286
#     4   9  17  30  49  71  93 119 153 192 234 283
#     4   9  17  30  49  71  93 119 153 192 234 283
#     4  10  19  31  49  72  97 127 164 203 240 280
#     4  10  20  33  50  72  97 127 163 201 239 280
#     4  10  19  31  49  72  97 127 164 203 240 280
#     4  10  20  33  50  73 100 128 157 192 236 285
#
# _framework density 17.554673000000001
#
# number of rings (size 3 to 8) (size 9 to 14) (size 15 to 20)
#    0.000    2.375    0.000    3.125    0.000    5.000 
#    0.000    0.000    0.000   14.000    0.000    0.000 
#    0.000   12.000    0.000    0.000    0.000    2.000 
#
# Total GULP energy -1190056.478314 kJ/mol
# GULP energy per Si atom -12396.421649 kJ/mol
# Density = 1.751472 g / cm^3
# Si number density = 17.554673 Si / 1000 Ang^3
#
#
#
# Elastic Constant Matrix: (Units=GPa)
#
#
# Indices 1 2 3 4 5 6 
#
# 1 96.0972 59.0518 31.9222 0.0000 0.0000 0.0000
# 2 59.0518 96.0972 31.9222 0.0000 0.0000 0.0000
# 3 31.9222 31.9222 145.4912 0.0000 0.0000 0.0000
# 4 0.0000 0.0000 0.0000 30.1917 0.0000 0.0000
# 5 0.0000 0.0000 0.0000 0.0000 30.1917 0.0000
# 6 0.0000 0.0000 0.0000 0.0000 0.0000 18.5227
#
#
#
# Elastic Compliance Matrix: (Units=1/GPa)
#
#
# Indices 1 2 3 4 5 6 
#
# 1 0.017040 -0.009954 -0.001555 0.000000 0.000000 0.000000
# 2 -0.009954 0.017040 -0.001555 0.000000 0.000000 0.000000
# 3 -0.001555 -0.001555 0.007555 0.000000 0.000000 0.000000
# 4 0.000000 0.000000 0.000000 0.033122 0.000000 0.000000
# 5 0.000000 0.000000 0.000000 0.000000 0.033122 0.000000
# 6 0.000000 0.000000 0.000000 0.000000 0.000000 0.053988
#
#
# Mechanical properties :
#
#
# Convention : Reuss Voigt Hill
#
# Bulk Modulus (GPa) = 64.48501 64.83093 64.65797
# Shear Modulus (GPa) = 25.88505 30.10052 27.99279
#
# Velocity S-wave (km/s) = 3.84414 4.14535 3.99758
# Velocity P-wave (km/s) = 7.51776 7.74099 7.63019
#
# Compressibility (1/GPa) = 0.01550748
#
# Stress axis : x y z
#
# Youngs Moduli (GPa) = 58.68713 58.68713 132.35512
#
# Poissons Ratio (x) = 0.58419 0.20575
# Poissons Ratio (y) = 0.58419 0.20575
# Poissons Ratio (z) = 0.09123 0.09123
#
# Static dielectric constant tensor:
#      x y z
#    x 3.122100 0.000000 0.000000 
#    y 0.000000 3.122100 0.000000 
#    z 0.000000 0.000000 3.549980 
# 
# 
# High freq. dielectric constant tensor:
#      x y z
#    x 1.657180 0.000000 0.000000 
#    y 0.000000 1.657180 0.000000 
#    z 0.000000 0.000000 1.703680 
# 
# From -- ./inp_files/3151.got.cif
#   From: 2010.03.12/outbox.cif.g09.slc.cpg/sg183_2_cif.got.tgz:3151.got - 2010.04.01 11:53:02.
