data_PCOD8326486
_publ_section_title
;
Structure prediction by ZEFSAII (Michael W. Deem and Ramdas Pophale) SiO2 
 PCOD8326486
Probable space group: P 63 2 2
;
_chemical_formula_sum "Si O2"
_cell_formula_units_Z 48
_cell_length_a 18.481111
_cell_length_b 18.481111
_cell_length_c 8.344956
_cell_angle_alpha 90.000000
_cell_angle_beta 90.000000
_cell_angle_gamma 120.000000
_cell_volume 2468.373264
_symmetry_space_group_name_H-M "P 63 2 2"
_symmetry_group_IT_number 182
_symmetry_cell_setting 'hexagonal'
loop_
_space_group_symop_operation_xyz
x,y,z
x-y,x,1/2+z
-y,x-y,z
-x,-y,1/2+z
-x+y,-x,z
y,-x+y,1/2+z
x-y,-y,-z
-x,-x+y,-z
y,x,-z
-y,-x,1/2-z
-x+y,y,1/2-z
x,x-y,1/2-z
loop_
_atom_site_type_symbol
_atom_site_label
_atom_site_fract_x
_atom_site_fract_y
_atom_site_fract_z
Si Si1 0.908989 0.663342 0.315393
Si Si2 0.337425 0.093845 0.823272
Si Si3 0.080035 0.476850 0.618297
Si Si4 0.510747 0.335812 0.819571
O O1 0.845574 0.691147 0.250000
O O2 0.880729 0.630434 0.495255
O O3 0.915197 0.595168 0.211801
O O4 0.001586 0.743693 0.312062
O O5 0.306072 0.153036 0.750000
O O6 0.417495 0.103212 0.728138
O O7 0.081530 0.540765 0.750000
O O8 0.165782 0.517887 0.511378
O O9 0.000000 0.445012 0.500000
O O10 0.575532 0.424469 0.750000
O O11 0.528873 0.264437 0.750000
#
# Coordination Sequence:
#
# PCOD8326486 Si02
#       4
#    12  12  12  12
#     4  11  23  38  63  94 123 164 214 264 323 383
#     4  10  22  39  62  89 127 165 207 263 324 385
#     4  12  25  39  63  94 130 173 219 274 329 398
#     4  11  22  40  63  88 125 167 212 269 328 385
#
# _framework density 19.446005
#
# number of rings (size 3 to 8) (size 9 to 14) (size 15 to 20)
#    0.000    1.000    2.500    5.500    3.500    0.000 
#    0.000    0.000    0.000    1.000    0.000    0.000 
#    0.000    0.000    0.000    0.000    0.000    0.000 
#
# Total GULP energy -594846.283214 kJ/mol
# GULP energy per Si atom -12392.630900 kJ/mol
# Density = 1.940175 g / cm^3
# Si number density = 19.446005 Si / 1000 Ang^3
#
#
#
# Elastic Constant Matrix: (Units=GPa)
#
#
# Indices 1 2 3 4 5 6 
#
# 1 83.1118 80.6970 59.3238 0.0000 0.0000 0.0000
# 2 80.6970 83.1118 59.3238 0.0000 0.0000 0.0000
# 3 59.3238 59.3238 162.3720 0.0000 0.0000 0.0000
# 4 0.0000 0.0000 0.0000 33.0639 0.0000 0.0000
# 5 0.0000 0.0000 0.0000 0.0000 33.0639 0.0000
# 6 0.0000 0.0000 0.0000 0.0000 0.0000 1.2074
#
#
#
# Elastic Compliance Matrix: (Units=1/GPa)
#
#
# Indices 1 2 3 4 5 6 
#
# 1 0.211210 -0.202909 -0.003033 0.000000 0.000000 0.000000
# 2 -0.202909 0.211210 -0.003033 0.000000 0.000000 0.000000
# 3 -0.003033 -0.003033 0.008375 0.000000 0.000000 0.000000
# 4 0.000000 0.000000 0.000000 0.030244 0.000000 0.000000
# 5 0.000000 0.000000 0.000000 0.000000 0.030244 0.000000
# 6 0.000000 0.000000 0.000000 0.000000 0.000000 0.828237
#
#
# Mechanical properties :
#
#
# Convention : Reuss Voigt Hill
#
# Bulk Modulus (GPa) = 77.84577 80.80945 79.32761
# Shear Modulus (GPa) = 2.87067 22.08377 12.47722
#
# Velocity S-wave (km/s) = 1.21632 3.37359 2.53580
# Velocity P-wave (km/s) = 6.48778 7.53796 7.03250
#
# Compressibility (1/GPa) = 0.01284591
#
# Stress axis : x y z
#
# Youngs Moduli (GPa) = 4.73462 4.73462 119.40344
#
# Poissons Ratio (x) = 0.96070 0.36215
# Poissons Ratio (y) = 0.96070 0.36215
# Poissons Ratio (z) = 0.01436 0.01436
#
# Static dielectric constant tensor:
#      x y z
#    x 3.608070 0.000000 0.000000 
#    y 0.000000 3.608070 0.000000 
#    z 0.000000 0.000000 3.983610 
# 
# 
# High freq. dielectric constant tensor:
#      x y z
#    x 1.746350 0.000000 0.000000 
#    y 0.000000 1.746350 0.000000 
#    z 0.000000 0.000000 1.784030 
# 
# From -- ./inp_files/1403.got.cif
#   From: 2010.03.12/outbox.cif.g09.slc.cpg/sg182_1_cif.got.tgz:1403.got - 2010.04.01 11:49:36.
