data_PCOD8326182
_publ_section_title
;
Structure prediction by ZEFSAII (Michael W. Deem and Ramdas Pophale) SiO2 
 PCOD8326182
Probable space group: P 62 2 2
;
_chemical_formula_sum "Si O2"
_cell_formula_units_Z 72
_cell_length_a 17.050704
_cell_length_b 17.050704
_cell_length_c 18.520389
_cell_angle_alpha 90.000000
_cell_angle_beta 90.000000
_cell_angle_gamma 120.000000
_cell_volume 4662.999472
_symmetry_space_group_name_H-M "P 62 2 2"
_symmetry_group_IT_number 180
_symmetry_cell_setting 'hexagonal'
loop_
_space_group_symop_operation_xyz
x,y,z
x-y,x,1/3+z
-y,x-y,2/3+z
-x,-y,z
-x+y,-x,1/3+z
y,-x+y,2/3+z
x-y,-y,-z
-x,-x+y,1/3-z
y,x,2/3-z
-y,-x,2/3-z
-x+y,y,-z
x,x-y,1/3-z
loop_
_atom_site_type_symbol
_atom_site_label
_atom_site_fract_x
_atom_site_fract_y
_atom_site_fract_z
Si Si1 0.537795 0.198073 0.852651
Si Si2 0.583043 0.600818 0.412463
Si Si3 0.683080 0.155415 0.310370
Si Si4 0.682050 0.142371 0.825274
Si Si5 0.170840 0.618598 0.092269
Si Si6 0.565122 0.959140 0.317735
O O1 0.452965 0.120830 0.897182
O O2 0.511765 0.187746 0.769211
O O3 0.626446 0.187680 0.859228
O O4 0.559819 0.293001 0.888617
O O5 0.500000 0.500000 0.416590
O O6 0.626260 0.626260 0.333334
O O7 0.660753 0.609299 0.465856
O O8 0.787297 0.212704 0.333334
O O9 0.624242 0.180746 0.364639
O O10 0.662112 0.051321 0.315993
O O11 0.787761 0.212240 0.833334
O O12 0.661998 0.115546 0.741940
O O13 0.130096 0.565048 0.166667
O O14 0.094080 0.639518 0.060803
O O15 0.500000 0.000000 0.300609
#
# Coordination Sequence:
#
# PCOD8326182 Si02
#       6
#    12  12  12  12  12  12
#     4  11  20  34  48  71 101 128 172 214 249 294
#     4   9  19  33  46  65  92 128 161 202 249 296
#     4  11  21  36  53  68  98 137 169 210 260 294
#     4  11  20  31  51  70  95 132 166 207 250 298
#     4  11  22  32  50  73  94 125 173 215 245 292
#     4  10  20  37  51  65 100 134 166 205 263 301
#
# _framework density 15.440704999999999
#
# number of rings (size 3 to 8) (size 9 to 14) (size 15 to 20)
#    0.000    1.500    6.667    1.000    2.333    3.000 
#    3.000    0.000    0.000    0.000    0.000    0.000 
#    0.000    0.000    0.000    4.500    0.000    0.000 
#
# Total GULP energy -892207.885837 kJ/mol
# GULP energy per Si atom -12391.776192 kJ/mol
# Density = 1.540556 g / cm^3
# Si number density = 15.440705 Si / 1000 Ang^3
#
#
#
# Elastic Constant Matrix: (Units=GPa)
#
#
# Indices 1 2 3 4 5 6 
#
# 1 71.9611 28.4457 33.0650 0.0000 0.0000 0.0000
# 2 28.4457 71.9611 33.0650 0.0000 0.0000 0.0000
# 3 33.0650 33.0650 119.1017 0.0000 0.0000 0.0000
# 4 0.0000 0.0000 0.0000 24.4748 0.0000 0.0000
# 5 0.0000 0.0000 0.0000 0.0000 24.4748 0.0000
# 6 0.0000 0.0000 0.0000 0.0000 0.0000 21.7577
#
#
#
# Elastic Compliance Matrix: (Units=1/GPa)
#
#
# Indices 1 2 3 4 5 6 
#
# 1 0.017584 -0.005396 -0.003384 0.000000 0.000000 0.000000
# 2 -0.005396 0.017584 -0.003384 0.000000 0.000000 0.000000
# 3 -0.003384 -0.003384 0.010275 0.000000 0.000000 0.000000
# 4 0.000000 0.000000 0.000000 0.040858 0.000000 0.000000
# 5 0.000000 0.000000 0.000000 0.000000 0.040858 0.000000
# 6 0.000000 0.000000 0.000000 0.000000 0.000000 0.045961
#
#
# Mechanical properties :
#
#
# Convention : Reuss Voigt Hill
#
# Bulk Modulus (GPa) = 47.35658 50.24173 48.79916
# Shear Modulus (GPa) = 24.45148 25.37132 24.91140
#
# Velocity S-wave (km/s) = 3.98373 4.05797 4.02102
# Velocity P-wave (km/s) = 7.20393 7.38683 7.29596
#
# Compressibility (1/GPa) = 0.02111639
#
# Stress axis : x y z
#
# Youngs Moduli (GPa) = 56.86926 56.86926 97.32442
#
# Poissons Ratio (x) = 0.30688 0.32931
# Poissons Ratio (y) = 0.30688 0.32931
# Poissons Ratio (z) = 0.19242 0.19242
#
# Static dielectric constant tensor:
#      x y z
#    x 3.128250 0.000000 0.000000 
#    y 0.000000 3.128250 0.000000 
#    z 0.000000 0.000000 3.223690 
# 
# 
# High freq. dielectric constant tensor:
#      x y z
#    x 1.559410 0.000000 0.000000 
#    y 0.000000 1.559410 0.000000 
#    z 0.000000 0.000000 1.614180 
# 
# From -- ./inp_files/7926.got.cif
#   From: 2010.03.12/outbox.cif.g09.slc.cpg/sg180_4_cif.got.tgz:7926.got - 2010.04.01 11:35:50.
