data_PCOD8326220
_publ_section_title
;
Structure prediction by ZEFSAII (Michael W. Deem and Ramdas Pophale) SiO2 
 PCOD8326220
Probable space group: P 62 2 2
;
_chemical_formula_sum "Si O2"
_cell_formula_units_Z 48
_cell_length_a 15.064890
_cell_length_b 15.064890
_cell_length_c 12.226476
_cell_angle_alpha 90.000000
_cell_angle_beta 90.000000
_cell_angle_gamma 120.000000
_cell_volume 2403.055832
_symmetry_space_group_name_H-M "P 62 2 2"
_symmetry_group_IT_number 180
_symmetry_cell_setting 'hexagonal'
loop_
_space_group_symop_operation_xyz
x,y,z
x-y,x,1/3+z
-y,x-y,2/3+z
-x,-y,z
-x+y,-x,1/3+z
y,-x+y,2/3+z
x-y,-y,-z
-x,-x+y,1/3-z
y,x,2/3-z
-y,-x,2/3-z
-x+y,y,-z
x,x-y,1/3-z
loop_
_atom_site_type_symbol
_atom_site_label
_atom_site_fract_x
_atom_site_fract_y
_atom_site_fract_z
Si Si1 0.995864 0.801721 0.796290
Si Si2 0.349068 0.698135 0.500000
Si Si3 0.346555 0.349761 0.038848
Si Si4 0.780612 0.000000 0.500000
Si Si5 0.579240 0.418860 0.629240
O O1 0.091267 0.908734 0.833334
O O2 0.000000 0.793127 0.666667
O O3 0.997684 0.704748 0.848273
O O4 0.893103 0.795733 0.840755
O O5 0.397617 0.625609 0.520386
O O6 0.405991 0.768235 0.397446
O O7 0.351603 0.457401 0.018539
O O8 0.461548 0.374026 0.050217
O O9 0.285970 0.275567 0.939224
#
# Coordination Sequence:
#
# PCOD8326220 Si02
#       5
#    12   6  12   6  12
#     4  12  27  45  66  98 136 176 222 279 336 407
#     4  10  22  39  72  92 142 169 218 286 336 402
#     4  11  25  44  69 100 132 177 228 280 335 409
#     4  12  25  41  76  94 130 176 224 285 335 412
#     4  10  24  43  64 102 133 175 225 280 337 404
#
# _framework density 19.974568999999999
#
# number of rings (size 3 to 8) (size 9 to 14) (size 15 to 20)
#    0.000    1.000    2.500    2.625   12.250    3.000 
#    4.500    1.250    0.000    0.000    0.000    0.000 
#    0.000    0.000    0.000    0.000    0.000    0.000 
#
# Total GULP energy -595305.471614 kJ/mol
# GULP energy per Si atom -12402.197325 kJ/mol
# Density = 1.992911 g / cm^3
# Si number density = 19.974569 Si / 1000 Ang^3
#
#
#
# Elastic Constant Matrix: (Units=GPa)
#
#
# Indices 1 2 3 4 5 6 
#
# 1 121.7970 83.8866 58.7458 0.0000 0.0000 0.0000
# 2 83.8866 121.7970 58.7458 0.0000 0.0000 0.0000
# 3 58.7458 58.7458 125.8421 0.0000 0.0000 0.0000
# 4 0.0000 0.0000 0.0000 20.6182 0.0000 0.0000
# 5 0.0000 0.0000 0.0000 0.0000 20.6182 0.0000
# 6 0.0000 0.0000 0.0000 0.0000 0.0000 18.9552
#
#
#
# Elastic Compliance Matrix: (Units=1/GPa)
#
#
# Indices 1 2 3 4 5 6 
#
# 1 0.016504 -0.009874 -0.003095 0.000000 0.000000 0.000000
# 2 -0.009874 0.016504 -0.003095 0.000000 0.000000 0.000000
# 3 -0.003095 -0.003095 0.010836 0.000000 0.000000 0.000000
# 4 0.000000 0.000000 0.000000 0.048501 0.000000 0.000000
# 5 0.000000 0.000000 0.000000 0.000000 0.048501 0.000000
# 6 0.000000 0.000000 0.000000 0.000000 0.000000 0.052756
#
#
# Mechanical properties :
#
#
# Convention : Reuss Voigt Hill
#
# Bulk Modulus (GPa) = 85.35446 85.79917 85.57681
# Shear Modulus (GPa) = 21.77371 23.24216 22.50793
#
# Velocity S-wave (km/s) = 3.30520 3.41484 3.36047
# Velocity P-wave (km/s) = 7.57563 7.65478 7.61531
#
# Compressibility (1/GPa) = 0.01171585
#
# Stress axis : x y z
#
# Youngs Moduli (GPa) = 60.59180 60.59180 92.28499
#
# Poissons Ratio (x) = 0.59829 0.28561
# Poissons Ratio (y) = 0.59829 0.28561
# Poissons Ratio (z) = 0.18753 0.18753
#
# Static dielectric constant tensor:
#      x y z
#    x 3.969830 0.000000 0.000000 
#    y 0.000000 3.969830 0.000000 
#    z 0.000000 0.000000 3.859240 
# 
# 
# High freq. dielectric constant tensor:
#      x y z
#    x 1.797060 0.000000 0.000000 
#    y 0.000000 1.797060 0.000000 
#    z 0.000000 0.000000 1.784170 
# 
# From -- ./inp_files/4452.got.cif
#   From: 2010.03.12/outbox.cif.g09.slc.cpg/sg180_3_cif.got.tgz:4452.got - 2010.04.01 11:35:50.
