data_PCOD8326481
_publ_section_title
;
Structure prediction by ZEFSAII (Michael W. Deem and Ramdas Pophale) SiO2 
 PCOD8326481
Probable space group: P 63 2 2
;
_chemical_formula_sum "Si O2"
_cell_formula_units_Z 42
_cell_length_a 8.714172
_cell_length_b 8.714172
_cell_length_c 31.583700
_cell_angle_alpha 90.000000
_cell_angle_beta 90.000000
_cell_angle_gamma 120.000000
_cell_volume 2077.044939
_symmetry_space_group_name_H-M "P 63 2 2"
_symmetry_group_IT_number 182
_symmetry_cell_setting 'hexagonal'
loop_
_space_group_symop_operation_xyz
x,y,z
x-y,x,1/2+z
-y,x-y,z
-x,-y,1/2+z
-x+y,-x,z
y,-x+y,1/2+z
x-y,-y,-z
-x,-x+y,-z
y,x,-z
-y,-x,1/2-z
-x+y,y,1/2-z
x,x-y,1/2-z
loop_
_atom_site_type_symbol
_atom_site_label
_atom_site_fract_x
_atom_site_fract_y
_atom_site_fract_z
Si Si1 0.999421 0.682405 0.951934
Si Si2 0.356539 0.997825 0.920876
Si Si3 0.554116 0.445885 0.250000
Si Si4 0.889407 0.414069 0.834486
O O1 0.814884 0.628099 0.929050
O O2 0.155810 0.843700 0.926412
O O3 0.027435 0.512971 0.953086
O O4 0.000000 0.744396 0.000000
O O5 0.425209 0.983115 0.874090
O O6 0.464560 0.232280 0.250000
O O7 0.469127 0.477325 0.290934
O O8 0.794193 0.533016 0.836570
#
# Coordination Sequence:
#
# PCOD8326481 Si02
#       4
#    12  12   6  12
#     4  12  24  42  64  95 135 178 232 290 348 410
#     4  12  25  43  67  99 133 185 232 288 352 424
#     4  10  24  36  68 106 130 162 226 278 334 416
#     4  10  21  44  68  93 134 182 222 272 352 411
#
# _framework density 20.221036999999999
#
# number of rings (size 3 to 8) (size 9 to 14) (size 15 to 20)
#    0.857    0.000    2.857    5.143    4.000    0.000 
#    0.000    0.000    0.000    4.571    0.000    0.000 
#    0.000    0.000    0.000    0.000    0.000    0.000 
#
# Total GULP energy -520629.097354 kJ/mol
# GULP energy per Si atom -12395.930889 kJ/mol
# Density = 2.017501 g / cm^3
# Si number density = 20.221037 Si / 1000 Ang^3
#
#
#
# Elastic Constant Matrix: (Units=GPa)
#
#
# Indices 1 2 3 4 5 6 
#
# 1 93.3636 25.0192 44.0337 0.0000 0.0000 0.0000
# 2 25.0192 93.3636 44.0337 0.0000 0.0000 0.0000
# 3 44.0337 44.0337 175.6700 0.0000 0.0000 0.0000
# 4 0.0000 0.0000 0.0000 35.9501 0.0000 0.0000
# 5 0.0000 0.0000 0.0000 0.0000 35.9501 0.0000
# 6 0.0000 0.0000 0.0000 0.0000 0.0000 34.1722
#
#
#
# Elastic Compliance Matrix: (Units=1/GPa)
#
#
# Indices 1 2 3 4 5 6 
#
# 1 0.012508 -0.002124 -0.002603 0.000000 0.000000 0.000000
# 2 -0.002124 0.012508 -0.002603 0.000000 0.000000 0.000000
# 3 -0.002603 -0.002603 0.006997 0.000000 0.000000 0.000000
# 4 0.000000 0.000000 0.000000 0.027816 0.000000 0.000000
# 5 0.000000 0.000000 0.000000 0.000000 0.027816 0.000000
# 6 0.000000 0.000000 0.000000 0.000000 0.000000 0.029264
#
#
# Mechanical properties :
#
#
# Convention : Reuss Voigt Hill
#
# Bulk Modulus (GPa) = 57.62623 65.39671 61.51147
# Shear Modulus (GPa) = 36.40273 37.83518 37.11895
#
# Velocity S-wave (km/s) = 4.24753 4.33029 4.28911
# Velocity P-wave (km/s) = 7.25364 7.57714 7.41715
#
# Compressibility (1/GPa) = 0.01735321
#
# Stress axis : x y z
#
# Youngs Moduli (GPa) = 79.95151 79.95151 142.91232
#
# Poissons Ratio (x) = 0.16983 0.37196
# Poissons Ratio (y) = 0.16983 0.37196
# Poissons Ratio (z) = 0.20809 0.20809
#
# Static dielectric constant tensor:
#      x y z
#    x 3.601490 0.000000 0.000000 
#    y 0.000000 3.601490 0.000000 
#    z 0.000000 0.000000 5.660250 
# 
# 
# High freq. dielectric constant tensor:
#      x y z
#    x 1.786100 0.000000 0.000000 
#    y 0.000000 1.786100 0.000000 
#    z 0.000000 0.000000 1.799960 
# 
# From -- ./inp_files/5672.got.cif
#   From: 2010.03.12/outbox.cif.g09.slc.cpg/sg182_3_cif.got.tgz:5672.got - 2010.04.01 11:49:36.
