data_PCOD8326581
_publ_section_title
;
Structure prediction by ZEFSAII (Michael W. Deem and Ramdas Pophale) SiO2 
 PCOD8326581
Probable space group: P 6 C C
;
_chemical_formula_sum "Si O2"
_cell_formula_units_Z 62
_cell_length_a 15.983968
_cell_length_b 15.983968
_cell_length_c 13.306760
_cell_angle_alpha 90.000000
_cell_angle_beta 90.000000
_cell_angle_gamma 120.000000
_cell_volume 2944.232881
_symmetry_space_group_name_H-M "P 6 C C"
_symmetry_group_IT_number 184
_symmetry_cell_setting 'hexagonal'
loop_
_space_group_symop_operation_xyz
x,y,z
x-y,x,z
-y,x-y,z
-x,-y,z
-x+y,-x,z
y,-x+y,z
-x+y,y,1/2+z
x,x-y,1/2+z
-y,-x,1/2+z
y,x,1/2+z
x-y,-y,1/2+z
-x,-x+y,1/2+z
loop_
_atom_site_type_symbol
_atom_site_label
_atom_site_fract_x
_atom_site_fract_y
_atom_site_fract_z
Si Si1 0.500000 0.000000 0.751190
Si Si2 0.652991 0.179326 0.140916
Si Si3 0.296561 0.331043 0.304121
Si Si4 0.333334 0.666667 0.773606
Si Si5 0.056406 0.216043 0.975214
Si Si6 0.808099 0.675234 0.674524
Si Si7 0.666667 0.333334 0.506023
O O1 0.467685 0.912092 0.675890
O O2 0.403755 0.976385 0.816297
O O3 0.695654 0.256632 0.232511
O O4 0.734345 0.153777 0.112239
O O5 0.629042 0.224763 0.044690
O O6 0.237086 0.307970 0.408556
O O7 0.312033 0.242075 0.273703
O O8 0.234424 0.337705 0.211588
O O9 0.333334 0.666667 0.889891
O O10 0.130775 0.180492 0.946273
O O11 0.074109 0.239603 0.094080
#
# Coordination Sequence:
#
# PCOD8326581 Si02
#       7
#     6  12  12   4  12  12   4
#     4  10  22  42  64  90 130 178 226 282 344 416
#     4   9  21  39  61  91 124 169 215 275 333 405
#     4  11  22  42  66  97 136 177 230 284 355 420
#     4  10  20  40  64  89 121 166 218 265 343 398
#     4  12  25  43  69 105 137 181 232 290 360 439
#     4  11  22  40  67  93 135 177 219 287 352 422
#     4  10  20  40  64  92 124 163 221 280 337 398
#
# _framework density 21.058115999999998
#
# number of rings (size 3 to 8) (size 9 to 14) (size 15 to 20)
#    0.000    1.548    3.871    2.516    0.000    3.097 
#    0.000    4.839    0.000    0.000    0.000    0.000 
#    0.000    0.000    0.000    0.000    0.000    0.000 
#
# Total GULP energy -768376.026206 kJ/mol
# GULP energy per Si atom -12393.161713 kJ/mol
# Density = 2.101019 g / cm^3
# Si number density = 21.058116 Si / 1000 Ang^3
#
#
#
# Elastic Constant Matrix: (Units=GPa)
#
#
# Indices 1 2 3 4 5 6 
#
# 1 113.6206 35.7498 26.1751 0.0001 0.0000 0.0000
# 2 35.7498 113.6203 26.1750 0.0000 0.0000 0.0001
# 3 26.1751 26.1750 108.9330 -0.0001 -0.0001 0.0000
# 4 0.0001 0.0000 -0.0001 23.6219 0.0000 0.0000
# 5 0.0000 0.0000 -0.0001 0.0000 23.6221 0.0000
# 6 0.0000 0.0001 0.0000 0.0000 0.0000 38.9354
#
#
#
# Elastic Compliance Matrix: (Units=1/GPa)
#
#
# Indices 1 2 3 4 5 6 
#
# 1 0.010076 -0.002766 -0.001757 0.000000 0.000000 0.000000
# 2 -0.002766 0.010076 -0.001757 0.000000 0.000000 0.000000
# 3 -0.001757 -0.001757 0.010024 0.000000 0.000000 0.000000
# 4 0.000000 0.000000 0.000000 0.042334 0.000000 0.000000
# 5 0.000000 0.000000 0.000000 0.000000 0.042333 0.000000
# 6 0.000000 0.000000 0.000000 0.000000 0.000000 0.025684
#
#
# Mechanical properties :
#
#
# Convention : Reuss Voigt Hill
#
# Bulk Modulus (GPa) = 56.75823 56.93040 56.84432
# Shear Modulus (GPa) = 31.45500 33.77416 32.61458
#
# Velocity S-wave (km/s) = 3.86906 4.00916 3.93974
# Velocity P-wave (km/s) = 6.85355 6.96597 6.90999
#
# Compressibility (1/GPa) = 0.01761859
#
# Stress axis : x y z
#
# Youngs Moduli (GPa) = 99.24480 99.24459 99.75935
#
# Poissons Ratio (x) = 0.27448 0.17524
# Poissons Ratio (y) = 0.27448 0.17524
# Poissons Ratio (z) = 0.17433 0.17433
#
# Static dielectric constant tensor:
#      x y z
#    x 3.882340 0.000000 0.000000 
#    y 0.000000 3.882340 0.000000 
#    z 0.000000 0.000000 3.383600 
# 
# 
# High freq. dielectric constant tensor:
#      x y z
#    x 1.834630 0.000000 0.000000 
#    y 0.000000 1.834630 0.000000 
#    z 0.000000 0.000000 1.799330 
# 
# From -- ./inp_files/632.got.cif
#   From: 2010.03.12/outbox.cif.g09.slc.cpg/sg184_cif.got.tgz:632.got - 2010.04.01 11:54:36.
