data_PCOD8326936
_publ_section_title
;
Structure prediction by ZEFSAII (Michael W. Deem and Ramdas Pophale) SiO2 
 PCOD8326936
Probable space group: P -6 M 2
;
_chemical_formula_sum "Si O2"
_cell_formula_units_Z 90
_cell_length_a 17.603709
_cell_length_b 17.603709
_cell_length_c 17.139773
_cell_angle_alpha 90.000000
_cell_angle_beta 90.000000
_cell_angle_gamma 120.000000
_cell_volume 4599.854125
_symmetry_space_group_name_H-M "P -6 M 2"
_symmetry_group_IT_number 187
_symmetry_cell_setting 'hexagonal'
loop_
_space_group_symop_operation_xyz
x,y,z
-x+y,-x,-z
-y,x-y,z
x,y,-z
-x+y,-x,z
-y,x-y,-z
-y,-x,-z
-x+y,y,-z
x,x-y,-z
-x+y,y,z
x,x-y,z
-y,-x,z
loop_
_atom_site_type_symbol
_atom_site_label
_atom_site_fract_x
_atom_site_fract_y
_atom_site_fract_z
Si Si1 0.510973 0.843027 0.000000
Si Si2 0.099008 0.373420 0.849706
Si Si3 0.504500 0.170220 0.589467
Si Si4 0.745592 0.082229 0.090222
Si Si5 0.081147 0.336921 0.589891
Si Si6 0.157588 0.668466 0.298855
Si Si7 0.914072 0.258593 0.677461
Si Si8 0.841598 0.510496 0.191760
O O1 0.566452 0.890475 0.076396
O O2 0.425788 0.851576 0.000000
O O3 0.481877 0.740939 0.000000
O O4 0.172559 0.345117 0.848046
O O5 0.101602 0.425481 0.772062
O O6 0.004847 0.284164 0.857336
O O7 0.526381 0.187282 0.500000
O O8 0.572002 0.144003 0.629159
O O9 0.520941 0.260471 0.630456
O O10 0.403787 0.098672 0.600710
O O11 0.846462 0.153539 0.112513
O O12 0.683864 0.124752 0.108246
O O13 0.736946 0.057080 0.000000
O O14 0.048506 0.329437 0.500000
O O15 0.154243 0.308485 0.594322
O O16 0.121339 0.437275 0.619624
O O17 0.009451 0.273594 0.655223
O O18 0.145531 0.572766 0.299614
O O19 0.259949 0.740052 0.287244
O O20 0.845070 0.154931 0.684677
O O21 0.901720 0.312448 0.747812
O O22 0.738591 0.477182 0.203386
O O23 0.858704 0.429352 0.198425
#
# Coordination Sequence:
#
# PCOD8326936 Si02
#       8
#     6  12  12  12  12  12  12  12
#     4  10  19  30  47  76 112 146 176 212 265 328
#     4  10  20  35  56  82 110 142 181 226 283 340
#     4   9  16  25  39  63  96 131 162 192 232 286
#     4  10  21  37  54  75 105 144 188 233 278 323
#     4  10  22  39  56  76 105 141 180 224 275 326
#     4  10  21  37  57  81 111 147 185 224 267 319
#     4  10  20  34  54  78 102 131 170 218 272 328
#     4  10  21  36  54  78 110 147 185 223 265 314
#
# _framework density 19.565837999999999
#
# number of rings (size 3 to 8) (size 9 to 14) (size 15 to 20)
#    0.000    2.133    0.667    2.467    0.000    5.067 
#    0.000    2.667    0.000    2.133    0.000    0.000 
#    0.000    6.400    0.000    0.000    0.000    0.000 
#
# Total GULP energy -1115005.734947 kJ/mol
# GULP energy per Si atom -12388.952611 kJ/mol
# Density = 1.952131 g / cm^3
# Si number density = 19.565838 Si / 1000 Ang^3
#
#
#
# Elastic Constant Matrix: (Units=GPa)
#
#
# Indices 1 2 3 4 5 6 
#
# 1 88.6716 52.1311 22.0513 0.0000 0.0002 0.0000
# 2 52.1311 88.6716 22.0513 0.0000 -0.0002 0.0000
# 3 22.0513 22.0513 53.0146 0.0000 0.0000 0.0000
# 4 0.0000 0.0000 0.0000 21.3399 0.0000 -0.0002
# 5 0.0002 -0.0002 0.0000 0.0000 21.3399 0.0000
# 6 0.0000 0.0000 0.0000 -0.0002 0.0000 18.2702
#
#
#
# Elastic Compliance Matrix: (Units=1/GPa)
#
#
# Indices 1 2 3 4 5 6 
#
# 1 0.017766 -0.009600 -0.003397 0.000000 0.000000 0.000000
# 2 -0.009600 0.017766 -0.003397 0.000000 0.000000 0.000000
# 3 -0.003397 -0.003397 0.021688 0.000000 0.000000 0.000000
# 4 0.000000 0.000000 0.000000 0.046861 0.000000 0.000000
# 5 0.000000 0.000000 0.000000 0.000000 0.046861 0.000000
# 6 0.000000 0.000000 0.000000 0.000000 0.000000 0.054734
#
#
# Mechanical properties :
#
#
# Convention : Reuss Voigt Hill
#
# Bulk Modulus (GPa) = 40.92679 46.98059 43.95369
# Shear Modulus (GPa) = 20.27504 21.13159 20.70332
#
# Velocity S-wave (km/s) = 3.22257 3.28994 3.25643
# Velocity P-wave (km/s) = 5.89996 6.20445 6.05412
#
# Compressibility (1/GPa) = 0.02443387
#
# Stress axis : x y z
#
# Youngs Moduli (GPa) = 56.28575 56.28575 46.10760
#
# Poissons Ratio (x) = 0.54037 0.15661
# Poissons Ratio (y) = 0.54037 0.15661
# Poissons Ratio (z) = 0.19118 0.19118
#
# Static dielectric constant tensor:
#      x y z
#    x 3.581450 0.000000 0.000000 
#    y 0.000000 3.581450 0.000000 
#    z 0.000000 0.000000 3.860760 
# 
# 
# High freq. dielectric constant tensor:
#      x y z
#    x 1.746760 0.000000 0.000000 
#    y 0.000000 1.746760 0.000000 
#    z 0.000000 0.000000 1.776700 
# 
# From -- ./inp_files/3274.got.cif
#   From: 2010.03.12/outbox.cif.g09.slc.cpg/sg187_2_cif.got.tgz:3274.got - 2010.04.01 11:58:23.
