data_PCOD8326043
_publ_section_title
;
Structure prediction by ZEFSAII (Michael W. Deem and Ramdas Pophale) SiO2 
 PCOD8326043
Probable space group: P 65 2 2
;
_chemical_formula_sum "Si O2"
_cell_formula_units_Z 72
_cell_length_a 11.855198
_cell_length_b 11.855198
_cell_length_c 28.965515
_cell_angle_alpha 90.000000
_cell_angle_beta 90.000000
_cell_angle_gamma 120.000000
_cell_volume 3525.571362
_symmetry_space_group_name_H-M "P 65 2 2"
_symmetry_group_IT_number 179
_symmetry_cell_setting 'hexagonal'
loop_
_space_group_symop_operation_xyz
x,y,z
x-y,x,5/6+z
-y,x-y,2/3+z
-x,-y,1/2+z
-x+y,-x,1/3+z
y,-x+y,1/6+z
x-y,-y,-z
-x,-x+y,1/3-z
y,x,2/3-z
-y,-x,1/6-z
-x+y,y,1/2-z
x,x-y,5/6-z
loop_
_atom_site_type_symbol
_atom_site_label
_atom_site_fract_x
_atom_site_fract_y
_atom_site_fract_z
Si Si1 0.825632 0.174369 0.583334
Si Si2 0.162374 0.551688 0.536417
Si Si3 0.961723 0.495570 0.218196
Si Si4 0.407278 0.592722 0.583334
Si Si5 0.741045 0.956512 0.649321
Si Si6 0.265306 0.975835 0.247132
Si Si7 0.777751 0.282187 0.949662
O O1 0.676838 0.113325 0.571310
O O2 0.835837 0.093155 0.625345
O O3 0.312648 0.590045 0.543179
O O4 0.173080 0.657681 0.500221
O O5 0.089761 0.556302 0.583585
O O6 0.079872 0.409105 0.514564
O O7 0.862822 0.343055 0.216808
O O8 0.000000 0.546038 0.166667
O O9 0.556661 0.658631 0.565622
O O10 0.793409 0.988628 0.702127
O O11 0.747129 0.843199 0.620239
O O12 0.367873 0.112623 0.266102
O O13 0.751564 0.375782 0.916667
#
# Coordination Sequence:
#
# PCOD8326043 Si02
#       7
#     6  12  12   6  12  12  12
#     4  10  24  39  66  97 132 166 218 284 356 408
#     4  10  22  37  60  98 132 183 213 282 341 409
#     4  11  25  42  67 101 137 177 226 287 354 413
#     4  10  20  37  66  93 138 172 224 280 354 410
#     4  10  23  38  63  93 131 170 226 283 336 415
#     4  11  23  40  65  98 133 181 227 281 341 414
#     4  12  23  40  65  95 139 183 231 279 340 417
#
# _framework density 20.422222999999999
#
# number of rings (size 3 to 8) (size 9 to 14) (size 15 to 20)
#    0.000    1.333    3.333    1.000   11.667    0.000 
#    0.000    0.000    3.667    0.000    0.000    0.000 
#    0.000    0.000    0.000    0.000    0.000    0.000 
#
# Total GULP energy -892198.713847 kJ/mol
# GULP energy per Si atom -12391.648803 kJ/mol
# Density = 2.037574 g / cm^3
# Si number density = 20.422223 Si / 1000 Ang^3
#
#
#
# Elastic Constant Matrix: (Units=GPa)
#
#
# Indices 1 2 3 4 5 6 
#
# 1 58.3210 6.9192 19.6101 0.0000 0.0000 0.0000
# 2 6.9192 58.3210 19.6101 0.0000 0.0000 0.0000
# 3 19.6101 19.6101 128.9283 0.0000 0.0000 0.0000
# 4 0.0000 0.0000 0.0000 11.0750 0.0000 0.0000
# 5 0.0000 0.0000 0.0000 0.0000 11.0750 0.0000
# 6 0.0000 0.0000 0.0000 0.0000 0.0000 25.7009
#
#
#
# Elastic Compliance Matrix: (Units=1/GPa)
#
#
# Indices 1 2 3 4 5 6 
#
# 1 0.018163 -0.001292 -0.002566 0.000000 0.000000 0.000000
# 2 -0.001292 0.018163 -0.002566 0.000000 0.000000 0.000000
# 3 -0.002566 -0.002566 0.008537 0.000000 0.000000 0.000000
# 4 0.000000 0.000000 0.000000 0.090294 0.000000 0.000000
# 5 0.000000 0.000000 0.000000 0.000000 0.090294 0.000000
# 6 0.000000 0.000000 0.000000 0.000000 0.000000 0.038909
#
#
# Mechanical properties :
#
#
# Convention : Reuss Voigt Hill
#
# Bulk Modulus (GPa) = 31.23645 37.53880 34.38762
# Shear Modulus (GPa) = 17.36849 22.86556 20.11703
#
# Velocity S-wave (km/s) = 2.91945 3.34973 3.14196
# Velocity P-wave (km/s) = 5.16650 5.77773 5.48065
#
# Compressibility (1/GPa) = 0.03201388
#
# Stress axis : x y z
#
# Youngs Moduli (GPa) = 55.05827 55.05827 117.13928
#
# Poissons Ratio (x) = 0.07113 0.30058
# Poissons Ratio (y) = 0.07113 0.30058
# Poissons Ratio (z) = 0.14128 0.14128
#
# Static dielectric constant tensor:
#      x y z
#    x 3.731700 0.000000 0.000000 
#    y 0.000000 3.731700 0.000000 
#    z 0.000000 0.000000 3.615620 
# 
# 
# High freq. dielectric constant tensor:
#      x y z
#    x 1.790910 0.000000 0.000000 
#    y 0.000000 1.790910 0.000000 
#    z 0.000000 0.000000 1.807490 
# 
# From -- ./inp_files/9612.got.cif
#   From: 2010.03.12/outbox.cif.g09.slc.cpg/sg179_5_cif.got.tgz:9612.got - 2010.04.02 07:08:42.
