data_PCOD8326634
_publ_section_title
;
Structure prediction by ZEFSAII (Michael W. Deem and Ramdas Pophale) SiO2 
 PCOD8326634
Probable space group: P 63 C M
;
_chemical_formula_sum "Si O2"
_cell_formula_units_Z 96
_cell_length_a 18.050024
_cell_length_b 18.050024
_cell_length_c 20.590868
_cell_angle_alpha 90.000000
_cell_angle_beta 90.000000
_cell_angle_gamma 120.000000
_cell_volume 5809.795604
_symmetry_space_group_name_H-M "P 63 C M"
_symmetry_group_IT_number 185
_symmetry_cell_setting 'hexagonal'
loop_
_space_group_symop_operation_xyz
x,y,z
x-y,x,1/2+z
-y,x-y,z
-x,-y,1/2+z
-x+y,-x,z
y,-x+y,1/2+z
-x+y,y,1/2+z
x,x-y,1/2+z
-y,-x,1/2+z
y,x,z
x-y,-y,z
-x,-x+y,z
loop_
_atom_site_type_symbol
_atom_site_label
_atom_site_fract_x
_atom_site_fract_y
_atom_site_fract_z
Si Si1 0.669176 0.503142 0.132540
Si Si2 0.366745 0.468411 0.356713
Si Si3 0.459462 0.365301 0.997545
Si Si4 0.264607 0.902038 0.740062
Si Si5 0.634698 0.094161 0.497545
Si Si6 0.735393 0.637432 0.240062
Si Si7 0.633256 0.101667 0.856713
Si Si8 0.496858 0.330824 0.132540
O O1 0.684392 0.582031 0.177529
O O2 0.573031 0.426969 0.143534
O O3 0.735884 0.471768 0.151004
O O4 0.687888 0.535262 0.057967
O O5 0.422670 0.422670 0.359020
O O6 0.294967 0.425845 0.301851
O O7 0.321277 0.455199 0.427616
O O8 0.430562 0.569438 0.341373
O O9 0.376943 0.376943 0.007451
O O10 0.542620 0.457379 0.995660
O O11 0.455199 0.321277 0.927616
O O12 0.464738 0.312112 0.057968
O O13 0.162211 0.837789 0.732605
O O14 0.315609 0.897639 0.677529
O O15 0.285365 0.000000 0.747755
O O16 0.623056 0.000000 0.507451
O O17 0.714635 0.714635 0.247755
O O18 0.705033 0.574156 0.301850
O O19 0.577330 0.000000 0.859022
#
# Coordination Sequence:
#
# PCOD8326634 Si02
#       8
#    12  12  12  12  12  12  12  12
#     4  10  19  29  42  62  90 122 153 183 214 248
#     4   8  14  26  44  65  88 114 145 178 210 246
#     4   8  14  25  41  60  83 114 151 185 212 241
#     4  10  20  32  47  66  86 110 141 180 223 265
#     4   8  14  25  41  60  83 114 151 185 212 241
#     4  10  20  32  47  66  86 110 141 180 223 265
#     4   8  14  26  44  65  88 114 145 178 210 246
#     4  10  19  29  42  62  90 122 153 183 214 248
#
# _framework density 16.523817999999999
#
# number of rings (size 3 to 8) (size 9 to 14) (size 15 to 20)
#    0.000    3.000    0.000    3.250    0.000    3.500 
#    0.000    0.000    0.000    0.750    0.000    0.000 
#    0.000    0.000    0.000    0.000    0.000   32.500 
#
# Total GULP energy -1189526.626780 kJ/mol
# GULP energy per Si atom -12390.902362 kJ/mol
# Density = 1.648621 g / cm^3
# Si number density = 16.523818 Si / 1000 Ang^3
#
#
#
# Elastic Constant Matrix: (Units=GPa)
#
#
# Indices 1 2 3 4 5 6 
#
# 1 60.5048 33.1325 25.3143 0.0000 0.0000 0.0000
# 2 33.1325 60.5048 25.3143 0.0000 0.0000 0.0000
# 3 25.3143 25.3143 110.1687 0.0000 0.0000 0.0000
# 4 0.0000 0.0000 0.0000 12.1883 0.0000 0.0000
# 5 0.0000 0.0000 0.0000 0.0000 12.1883 0.0000
# 6 0.0000 0.0000 0.0000 0.0000 0.0000 13.6862
#
#
#
# Elastic Compliance Matrix: (Units=1/GPa)
#
#
# Indices 1 2 3 4 5 6 
#
# 1 0.024364 -0.012169 -0.002802 0.000000 0.000000 0.000000
# 2 -0.012169 0.024364 -0.002802 0.000000 0.000000 0.000000
# 3 -0.002802 -0.002802 0.010365 0.000000 0.000000 0.000000
# 4 0.000000 0.000000 0.000000 0.082046 0.000000 0.000000
# 5 0.000000 0.000000 0.000000 0.000000 0.082046 0.000000
# 6 0.000000 0.000000 0.000000 0.000000 0.000000 0.073067
#
#
# Mechanical properties :
#
#
# Convention : Reuss Voigt Hill
#
# Bulk Modulus (GPa) = 42.47073 44.30003 43.38538
# Shear Modulus (GPa) = 14.72117 17.44035 16.08076
#
# Velocity S-wave (km/s) = 2.98804 3.25232 3.12298
# Velocity P-wave (km/s) = 6.13702 6.40089 6.27035
#
# Compressibility (1/GPa) = 0.02354563
#
# Stress axis : x y z
#
# Youngs Moduli (GPa) = 41.04433 41.04433 96.48155
#
# Poissons Ratio (x) = 0.49948 0.27034
# Poissons Ratio (y) = 0.49948 0.27034
# Poissons Ratio (z) = 0.11501 0.11501
#
# Static dielectric constant tensor:
#      x y z
#    x 2.768650 0.000000 0.000000 
#    y 0.000000 2.768650 0.000000 
#    z 0.000000 0.000000 3.673780 
# 
# 
# High freq. dielectric constant tensor:
#      x y z
#    x 1.597430 0.000000 0.000000 
#    y 0.000000 1.597430 0.000000 
#    z 0.000000 0.000000 1.660760 
# 
# From -- ./inp_files/1996.got.cif
#   From: 2010.03.12/outbox.cif.g09.slc.cpg/sg185_cif.got.tgz:1996.got - 2010.04.01 11:55:19.
