data_PCOD8326939
_publ_section_title
;
Structure prediction by ZEFSAII (Michael W. Deem and Ramdas Pophale) SiO2 
 PCOD8326939
Probable space group: P -6 M 2
;
_chemical_formula_sum "Si O2"
_cell_formula_units_Z 84
_cell_length_a 17.754097
_cell_length_b 17.754097
_cell_length_c 18.709805
_cell_angle_alpha 90.000000
_cell_angle_beta 90.000000
_cell_angle_gamma 120.000000
_cell_volume 5107.367041
_symmetry_space_group_name_H-M "P -6 M 2"
_symmetry_group_IT_number 187
_symmetry_cell_setting 'hexagonal'
loop_
_space_group_symop_operation_xyz
x,y,z
-x+y,-x,-z
-y,x-y,z
x,y,-z
-x+y,-x,z
-y,x-y,-z
-y,-x,-z
-x+y,y,-z
x,x-y,-z
-x+y,y,z
x,x-y,z
-y,-x,z
loop_
_atom_site_type_symbol
_atom_site_label
_atom_site_fract_x
_atom_site_fract_y
_atom_site_fract_z
Si Si1 0.163913 0.163161 0.915111
Si Si2 0.091200 0.745508 0.582997
Si Si3 0.898339 0.272574 0.417975
Si Si4 0.160436 0.491633 0.310718
Si Si5 0.015505 0.596057 0.199346
Si Si6 0.844066 0.511338 0.282806
Si Si7 0.642773 0.907315 0.084082
O O1 0.065201 0.130402 0.891033
O O2 0.226067 0.259442 0.886484
O O3 0.192355 0.096178 0.883890
O O4 0.169205 0.166053 0.000000
O O5 0.098126 0.736401 0.500000
O O6 0.152786 0.847215 0.607153
O O7 0.130343 0.688205 0.614435
O O8 0.990901 0.708228 0.604735
O O9 0.899499 0.304411 0.500000
O O10 0.829286 0.170714 0.410472
O O11 0.874018 0.327905 0.363778
O O12 0.253042 0.506083 0.284781
O O13 0.167215 0.583608 0.319171
O O14 0.087465 0.428649 0.255312
O O15 0.013960 0.506980 0.191109
O O16 0.049765 0.643318 0.123396
O O17 0.919466 0.574025 0.226325
O O18 0.755528 0.511056 0.262102
O O19 0.827139 0.413570 0.279763
O O20 0.610784 0.805392 0.101362
O O21 0.633956 0.917441 0.000000
#
# Coordination Sequence:
#
# PCOD8326939 Si02
#       7
#    12  12  12  12  12  12  12
#     4   8  13  22  39  64  92 118 141 165 200 251
#     4   9  17  29  46  69  97 128 160 195 237 283
#     4   9  17  30  49  72  98 129 166 208 251 295
#     4  10  19  31  46  66  92 123 157 192 230 276
#     4  10  20  33  49  69  91 120 159 196 236 288
#     4  10  20  34  50  71  98 129 164 203 250 300
#     4   9  18  32  49  70  95 121 150 190 238 282
#
# _framework density 16.446829999999999
#
# number of rings (size 3 to 8) (size 9 to 14) (size 15 to 20)
#    0.000    2.714    1.429    1.714    0.000    2.000 
#    0.000    1.429    0.000    2.286    0.000    2.000 
#    0.000    1.143    0.000    0.000    0.000    0.000 
#
# Total GULP energy -1040714.339564 kJ/mol
# GULP energy per Si atom -12389.456423 kJ/mol
# Density = 1.640940 g / cm^3
# Si number density = 16.446830 Si / 1000 Ang^3
#
#
#
# Elastic Constant Matrix: (Units=GPa)
#
#
# Indices 1 2 3 4 5 6 
#
# 1 78.2958 38.4623 30.5223 0.0000 0.0000 0.0000
# 2 38.4623 78.2958 30.5223 0.0000 0.0000 0.0000
# 3 30.5223 30.5223 44.6293 0.0000 0.0000 0.0000
# 4 0.0000 0.0000 0.0000 22.1290 0.0000 0.0000
# 5 0.0000 0.0000 0.0000 0.0000 22.1290 0.0000
# 6 0.0000 0.0000 0.0000 0.0000 0.0000 19.9167
#
#
#
# Elastic Compliance Matrix: (Units=1/GPa)
#
#
# Indices 1 2 3 4 5 6 
#
# 1 0.019218 -0.005886 -0.009118 0.000000 0.000000 0.000000
# 2 -0.005886 0.019218 -0.009118 0.000000 0.000000 0.000000
# 3 -0.009118 -0.009118 0.034878 0.000000 0.000000 0.000000
# 4 0.000000 0.000000 0.000000 0.045190 0.000000 0.000000
# 5 0.000000 0.000000 0.000000 0.000000 0.045190 0.000000
# 6 0.000000 0.000000 0.000000 0.000000 0.000000 0.050209
#
#
# Mechanical properties :
#
#
# Convention : Reuss Voigt Hill
#
# Bulk Modulus (GPa) = 39.88693 44.47052 42.17873
# Shear Modulus (GPa) = 18.48409 19.61586 19.04997
#
# Velocity S-wave (km/s) = 3.35605 3.45727 3.40704
# Velocity P-wave (km/s) = 6.27074 6.56008 6.41704
#
# Compressibility (1/GPa) = 0.02507087
#
# Stress axis : x y z
#
# Youngs Moduli (GPa) = 52.03426 52.03426 28.67134
#
# Poissons Ratio (x) = 0.30630 0.26141
# Poissons Ratio (y) = 0.30630 0.26141
# Poissons Ratio (z) = 0.47443 0.47443
#
# Static dielectric constant tensor:
#      x y z
#    x 3.257170 0.000000 0.000000 
#    y 0.000000 3.257170 0.000000 
#    z 0.000000 0.000000 2.928080 
# 
# 
# High freq. dielectric constant tensor:
#      x y z
#    x 1.632670 0.000000 0.000000 
#    y 0.000000 1.632670 0.000000 
#    z 0.000000 0.000000 1.611500 
# 
# From -- ./inp_files/2611.got.cif
#   From: 2010.03.12/outbox.cif.g09.slc.cpg/sg187_2_cif.got.tgz:2611.got - 2010.04.01 11:58:23.
