data_PCOD8326767
_publ_section_title
;
Structure prediction by ZEFSAII (Michael W. Deem and Ramdas Pophale) SiO2 
 PCOD8326767
Probable space group: P 63 M C
;
_chemical_formula_sum "Si O2"
_cell_formula_units_Z 84
_cell_length_a 17.131701
_cell_length_b 17.131701
_cell_length_c 17.579887
_cell_angle_alpha 90.000000
_cell_angle_beta 90.000000
_cell_angle_gamma 120.000000
_cell_volume 4468.355139
_symmetry_space_group_name_H-M "P 63 M C"
_symmetry_group_IT_number 186
_symmetry_cell_setting 'hexagonal'
loop_
_space_group_symop_operation_xyz
x,y,z
x-y,x,1/2+z
-y,x-y,z
-x,-y,1/2+z
-x+y,-x,z
y,-x+y,1/2+z
-x+y,y,z
x,x-y,z
-y,-x,z
y,x,1/2+z
x-y,-y,1/2+z
-x,-x+y,1/2+z
loop_
_atom_site_type_symbol
_atom_site_label
_atom_site_fract_x
_atom_site_fract_y
_atom_site_fract_z
Si Si1 0.617075 0.563462 0.971910
Si Si2 0.000513 0.819119 0.787643
Si Si3 0.976739 0.647879 0.700384
Si Si4 0.735099 0.644698 0.536486
Si Si5 0.484585 0.333801 0.821152
Si Si6 0.666520 0.149448 0.129278
Si Si7 0.000557 0.827616 0.959226
O O1 0.517950 0.482051 0.961851
O O2 0.676189 0.569815 0.898928
O O3 0.603012 0.649836 0.979704
O O4 0.667787 0.553056 0.044623
O O5 0.920510 0.841020 0.776112
O O6 0.984626 0.737618 0.734313
O O7 0.002524 0.790483 0.875032
O O8 0.093345 0.906656 0.763627
O O9 0.920191 0.623145 0.622803
O O10 0.920925 0.562466 0.754272
O O11 0.075594 0.660502 0.689065
O O12 0.803709 0.607417 0.517877
O O13 0.785322 0.751704 0.523567
O O14 0.479930 0.239965 0.803670
O O15 0.588442 0.411559 0.828310
O O16 0.582443 0.164885 0.141037
O O17 0.757100 0.242901 0.144137
O O18 0.900962 0.801923 0.983514
O O19 0.064368 0.935633 0.957350
#
# Coordination Sequence:
#
# PCOD8326767 Si02
#       7
#    12  12  12  12  12  12  12
#     4   9  20  36  57  82 108 136 171 219 276 322
#     4  10  19  32  49  72 101 138 181 227 272 318
#     4  11  22  35  51  75 109 145 179 215 264 321
#     4  10  20  34  51  74 103 140 179 213 249 303
#     4  11  22  38  59  84 110 138 172 217 271 329
#     4  10  20  36  57  82 109 140 177 222 273 330
#     4   9  18  31  49  71  98 131 171 215 260 303
#
# _framework density 18.798863999999998
#
# number of rings (size 3 to 8) (size 9 to 14) (size 15 to 20)
#    0.000    2.000    0.000    4.000    0.000    6.286 
#    0.000    2.143    0.000    2.000    0.000    0.000 
#    0.000    0.000    0.000    0.429    0.000    0.000 
#
# Total GULP energy -1041612.306761 kJ/mol
# GULP energy per Si atom -12400.146509 kJ/mol
# Density = 1.875608 g / cm^3
# Si number density = 18.798864 Si / 1000 Ang^3
#
#
#
# Elastic Constant Matrix: (Units=GPa)
#
#
# Indices 1 2 3 4 5 6 
#
# 1 94.2541 32.7253 28.0356 0.0000 0.0000 0.0000
# 2 32.7253 94.2541 28.0356 0.0000 0.0000 0.0000
# 3 28.0356 28.0356 75.3116 0.0000 0.0000 0.0000
# 4 0.0000 0.0000 0.0000 25.3542 0.0000 0.0000
# 5 0.0000 0.0000 0.0000 0.0000 25.3542 0.0000
# 6 0.0000 0.0000 0.0000 0.0000 0.0000 30.7644
#
#
#
# Elastic Compliance Matrix: (Units=1/GPa)
#
#
# Indices 1 2 3 4 5 6 
#
# 1 0.012839 -0.003414 -0.003508 0.000000 0.000000 0.000000
# 2 -0.003414 0.012839 -0.003508 0.000000 0.000000 0.000000
# 3 -0.003508 -0.003508 0.015890 0.000000 0.000000 0.000000
# 4 0.000000 0.000000 0.000000 0.039441 0.000000 0.000000
# 5 0.000000 0.000000 0.000000 0.000000 0.039441 0.000000
# 6 0.000000 0.000000 0.000000 0.000000 0.000000 0.032505
#
#
# Mechanical properties :
#
#
# Convention : Reuss Voigt Hill
#
# Bulk Modulus (GPa) = 48.29576 49.04583 48.67079
# Shear Modulus (GPa) = 27.66737 27.96278 27.81508
#
# Velocity S-wave (km/s) = 3.84051 3.86096 3.85075
# Velocity P-wave (km/s) = 6.73889 6.78398 6.76147
#
# Compressibility (1/GPa) = 0.02070575
#
# Stress axis : x y z
#
# Youngs Moduli (GPa) = 77.89050 77.89050 62.93171
#
# Poissons Ratio (x) = 0.26592 0.22079
# Poissons Ratio (y) = 0.26592 0.22079
# Poissons Ratio (z) = 0.27327 0.27327
#
# Static dielectric constant tensor:
#      x y z
#    x 3.456040 0.000000 0.000000 
#    y 0.000000 3.456040 0.000000 
#    z 0.000000 0.000000 3.485860 
# 
# 
# High freq. dielectric constant tensor:
#      x y z
#    x 1.730830 0.000000 0.000000 
#    y 0.000000 1.730830 0.000000 
#    z 0.000000 0.000000 1.726600 
# 
# From -- ./inp_files/2562.got.cif
#   From: 2010.03.12/outbox.cif.g09.slc.cpg/sg186_2_cif.got.tgz:2562.got - 2010.04.01 11:56:34.
