data_PCOD8326461
_publ_section_title
;
Structure prediction by ZEFSAII (Michael W. Deem and Ramdas Pophale) SiO2 
 PCOD8326461
Probable space group: P 63 2 2
;
_chemical_formula_sum "Si O2"
_cell_formula_units_Z 96
_cell_length_a 14.607096
_cell_length_b 14.607096
_cell_length_c 26.031405
_cell_angle_alpha 90.000000
_cell_angle_beta 90.000000
_cell_angle_gamma 120.000000
_cell_volume 4810.121072
_symmetry_space_group_name_H-M "P 63 2 2"
_symmetry_group_IT_number 182
_symmetry_cell_setting 'hexagonal'
loop_
_space_group_symop_operation_xyz
x,y,z
x-y,x,1/2+z
-y,x-y,z
-x,-y,1/2+z
-x+y,-x,z
y,-x+y,1/2+z
x-y,-y,-z
-x,-x+y,-z
y,x,-z
-y,-x,1/2-z
-x+y,y,1/2-z
x,x-y,1/2-z
loop_
_atom_site_type_symbol
_atom_site_label
_atom_site_fract_x
_atom_site_fract_y
_atom_site_fract_z
Si Si1 0.274312 0.444122 0.019730
Si Si2 0.062491 0.241142 0.415909
Si Si3 0.510402 0.599981 0.042959
Si Si4 0.840420 0.796785 0.056399
Si Si5 0.051859 0.578877 0.632760
Si Si6 0.677515 0.636314 0.343145
Si Si7 0.774685 0.198888 0.414334
Si Si8 0.452453 0.334101 0.259510
O O1 0.225144 0.321420 0.035609
O O2 0.387380 0.510935 0.045633
O O3 0.194716 0.484702 0.034542
O O4 0.289890 0.460305 0.957623
O O5 0.149917 0.206930 0.404815
O O6 0.957071 0.133093 0.428560
O O7 0.049365 0.301146 0.366052
O O8 0.563672 0.610034 0.098564
O O9 0.570127 0.570127 0.000000
O O10 0.764109 0.671439 0.059969
O O11 0.840750 0.840750 0.000000
O O12 0.032034 0.462736 0.638672
O O13 0.163648 0.654322 0.602223
O O14 0.061677 0.643969 0.684963
O O15 0.769694 0.615393 0.363354
O O16 0.673634 0.635524 0.281175
O O17 0.569573 0.430428 0.250000
O O18 0.459036 0.229518 0.250000
#
# Coordination Sequence:
#
# PCOD8326461 Si02
#       8
#    12  12  12  12  12  12  12  12
#     4  12  25  40  60  89 136 178 219 264 327 409
#     4  11  23  39  59  87 130 164 221 268 327 380
#     4  12  25  42  62  93 134 182 224 269 332 411
#     4  11  22  34  53  84 120 167 210 261 312 380
#     4  11  21  39  60  90 128 164 214 271 327 402
#     4  10  22  39  60  90 121 171 205 268 338 395
#     4  11  22  35  55  86 123 167 207 250 330 392
#     4  10  20  37  62  94 125 161 212 273 341 405
#
# _framework density 19.957917999999999
#
# number of rings (size 3 to 8) (size 9 to 14) (size 15 to 20)
#    0.000    1.000    5.000    2.500    3.500    0.000 
#    0.750    0.000    0.000    3.000    0.000    0.000 
#    0.000    0.000    0.000    0.000    0.000    0.000 
#
# Total GULP energy -1189441.224588 kJ/mol
# GULP energy per Si atom -12390.012756 kJ/mol
# Density = 1.991249 g / cm^3
# Si number density = 19.957918 Si / 1000 Ang^3
#
#
#
# Elastic Constant Matrix: (Units=GPa)
#
#
# Indices 1 2 3 4 5 6 
#
# 1 69.1197 8.5273 39.8007 0.0000 0.0000 0.0000
# 2 8.5273 69.1197 39.8007 0.0000 0.0000 0.0000
# 3 39.8007 39.8007 137.0314 0.0000 0.0000 0.0000
# 4 0.0000 0.0000 0.0000 25.4821 0.0000 0.0000
# 5 0.0000 0.0000 0.0000 0.0000 25.4821 0.0000
# 6 0.0000 0.0000 0.0000 0.0000 0.0000 30.2962
#
#
#
# Elastic Compliance Matrix: (Units=1/GPa)
#
#
# Indices 1 2 3 4 5 6 
#
# 1 0.017422 0.000918 -0.005327 0.000000 0.000000 0.000000
# 2 0.000918 0.017422 -0.005327 0.000000 0.000000 0.000000
# 3 -0.005327 -0.005327 0.010392 0.000000 0.000000 0.000000
# 4 0.000000 0.000000 0.000000 0.039243 0.000000 0.000000
# 5 0.000000 0.000000 0.000000 0.000000 0.039243 0.000000
# 6 0.000000 0.000000 0.000000 0.000000 0.000000 0.033007
#
#
# Mechanical properties :
#
#
# Convention : Reuss Voigt Hill
#
# Bulk Modulus (GPa) = 38.81356 50.16978 44.49167
# Shear Modulus (GPa) = 27.05799 28.72820 27.89310
#
# Velocity S-wave (km/s) = 3.68605 3.79811 3.74250
# Velocity P-wave (km/s) = 6.13236 6.66532 6.40439
#
# Compressibility (1/GPa) = 0.02576419
#
# Stress axis : x y z
#
# Youngs Moduli (GPa) = 57.39979 57.39979 96.22896
#
# Poissons Ratio (x) = -0.05269 0.51259
# Poissons Ratio (y) = -0.05269 0.51259
# Poissons Ratio (z) = 0.30575 0.30575
#
# Static dielectric constant tensor:
#      x y z
#    x 3.750600 0.000000 0.000000 
#    y 0.000000 3.750600 0.000000 
#    z 0.000000 0.000000 3.879070 
# 
# 
# High freq. dielectric constant tensor:
#      x y z
#    x 1.777220 0.000000 0.000000 
#    y 0.000000 1.777220 0.000000 
#    z 0.000000 0.000000 1.762470 
# 
# From -- ./inp_files/5585.got.cif
#   From: 2010.03.12/outbox.cif.g09.slc.cpg/sg182_3_cif.got.tgz:5585.got - 2010.04.01 11:49:36.
