data_PCOD8326845
_publ_section_title
;
Structure prediction by ZEFSAII (Michael W. Deem and Ramdas Pophale) SiO2 
 PCOD8326845
Probable space group: P -6 M 2
;
_chemical_formula_sum "Si O2"
_cell_formula_units_Z 96
_cell_length_a 18.181484
_cell_length_b 18.181484
_cell_length_c 23.928650
_cell_angle_alpha 90.000000
_cell_angle_beta 90.000000
_cell_angle_gamma 120.000000
_cell_volume 6850.266782
_symmetry_space_group_name_H-M "P -6 M 2"
_symmetry_group_IT_number 187
_symmetry_cell_setting 'hexagonal'
loop_
_space_group_symop_operation_xyz
x,y,z
-x+y,-x,-z
-y,x-y,z
x,y,-z
-x+y,-x,z
-y,x-y,-z
-y,-x,-z
-x+y,y,-z
x,x-y,-z
-x+y,y,z
x,x-y,z
-y,-x,z
loop_
_atom_site_type_symbol
_atom_site_label
_atom_site_fract_x
_atom_site_fract_y
_atom_site_fract_z
Si Si1 0.079150 0.745817 0.869323
Si Si2 0.336385 0.498294 0.323510
Si Si3 0.666666 0.920612 0.256783
Si Si4 0.163637 0.497296 0.065101
Si Si5 0.126972 0.698797 0.560823
Si Si6 0.999675 0.169372 0.065101
Si Si7 0.831626 0.828576 0.676489
Si Si8 0.761503 0.967868 0.439176
O O1 0.166667 0.833334 0.871127
O O2 0.048665 0.715331 0.806233
O O3 0.092085 0.674796 0.900648
O O4 0.008129 0.758752 0.900648
O O5 0.255175 0.510350 0.317961
O O6 0.417767 0.582234 0.299784
O O7 0.324209 0.417581 0.288185
O O8 0.356264 0.486890 0.388018
O O9 0.666665 0.833333 0.257215
O O10 0.750915 0.990875 0.288184
O O11 0.257603 0.515206 0.079445
O O12 0.158847 0.579424 0.083538
O O13 0.143666 0.476983 0.000000
O O14 0.120404 0.655280 0.500000
O O15 0.210860 0.789141 0.562936
O O16 0.047112 0.713776 0.568547
O O17 0.075731 0.151461 0.079445
O O18 0.000019 0.189686 0.000000
O O19 0.912757 0.087244 0.083536
O O20 0.915567 0.831134 0.700214
O O21 0.820219 0.797290 0.611982
O O22 0.843684 0.921842 0.682038
O O23 0.798453 0.011385 0.500000
O O24 0.755047 0.877524 0.437064
#
# Coordination Sequence:
#
# PCOD8326845 Si02
#       8
#    12  12  12  12  12  12  12  12
#     4   9  17  28  41  55  74 103 136 165 193 230
#     4  10  18  28  41  57  76 100 132 169 204 238
#     4   9  18  31  41  51  73 104 134 164 200 236
#     4   9  16  26  41  61  83 105 130 162 199 235
#     4   8  13  23  39  55  72  97 126 156 196 244
#     4   9  16  26  41  61  83 105 130 162 199 235
#     4  10  18  28  41  57  76 100 132 169 204 238
#     4   8  13  23  39  55  72  97 126 156 196 244
#
# _framework density 14.014054
#
# number of rings (size 3 to 8) (size 9 to 14) (size 15 to 20)
#    0.000    3.000    1.250    1.625    0.000    4.000 
#    0.000    0.000    0.000    4.500    0.000    0.000 
#    0.000    0.000    0.000    0.750    0.000    8.875 
#
# Total GULP energy -1189744.542111 kJ/mol
# GULP energy per Si atom -12393.172314 kJ/mol
# Density = 1.398216 g / cm^3
# Si number density = 14.014054 Si / 1000 Ang^3
#
#
#
# Elastic Constant Matrix: (Units=GPa)
#
#
# Indices 1 2 3 4 5 6 
#
# 1 70.7788 36.4679 42.2249 0.0000 -0.0001 0.0000
# 2 36.4679 70.7788 42.2249 0.0000 0.0001 0.0000
# 3 42.2249 42.2249 92.0872 0.0000 0.0000 0.0000
# 4 0.0000 0.0000 0.0000 11.0687 0.0000 0.0001
# 5 -0.0001 0.0001 0.0000 0.0000 11.0687 0.0000
# 6 0.0000 0.0000 0.0000 0.0001 0.0000 17.1554
#
#
#
# Elastic Compliance Matrix: (Units=1/GPa)
#
#
# Indices 1 2 3 4 5 6 
#
# 1 0.021869 -0.007276 -0.006692 0.000000 0.000000 0.000000
# 2 -0.007276 0.021869 -0.006692 0.000000 0.000000 0.000000
# 3 -0.006692 -0.006692 0.016996 0.000000 0.000000 0.000000
# 4 0.000000 0.000000 0.000000 0.090344 0.000000 -0.000001
# 5 0.000000 0.000000 0.000000 0.000000 0.090344 0.000000
# 6 0.000000 0.000000 0.000000 -0.000001 0.000000 0.058291
#
#
# Mechanical properties :
#
#
# Convention : Reuss Voigt Hill
#
# Bulk Modulus (GPa) = 51.50251 52.83115 52.16683
# Shear Modulus (GPa) = 14.38830 15.37371 14.88101
#
# Velocity S-wave (km/s) = 3.20770 3.31572 3.26216
# Velocity P-wave (km/s) = 7.10982 7.24149 7.17596
#
# Compressibility (1/GPa) = 0.01941653
#
# Stress axis : x y z
#
# Youngs Moduli (GPa) = 45.72600 45.72600 58.83783
#
# Poissons Ratio (x) = 0.33270 0.39372
# Poissons Ratio (y) = 0.33270 0.39372
# Poissons Ratio (z) = 0.30598 0.30598
#
# Static dielectric constant tensor:
#      x y z
#    x 2.508070 0.000000 0.000000 
#    y 0.000000 2.508070 0.000000 
#    z 0.000000 0.000000 3.020650 
# 
# 
# High freq. dielectric constant tensor:
#      x y z
#    x 1.497930 0.000000 0.000000 
#    y 0.000000 1.497930 0.000000 
#    z 0.000000 0.000000 1.548160 
# 
# From -- ./inp_files/4112.got.cif
#   From: 2010.03.12/outbox.cif.g09.slc.cpg/sg187_3_cif.got.tgz:4112.got - 2010.04.01 11:58:23.
