data_PCOD8326702
_publ_section_title
;
Structure prediction by ZEFSAII (Michael W. Deem and Ramdas Pophale) SiO2 
 PCOD8326702
Probable space group: P 63 M C
;
_chemical_formula_sum "Si O2"
_cell_formula_units_Z 48
_cell_length_a 26.135721
_cell_length_b 26.135721
_cell_length_c 5.308863
_cell_angle_alpha 90.000000
_cell_angle_beta 90.000000
_cell_angle_gamma 120.000000
_cell_volume 3140.516797
_symmetry_space_group_name_H-M "P 63 M C"
_symmetry_group_IT_number 186
_symmetry_cell_setting 'hexagonal'
loop_
_space_group_symop_operation_xyz
x,y,z
x-y,x,1/2+z
-y,x-y,z
-x,-y,1/2+z
-x+y,-x,z
y,-x+y,1/2+z
-x+y,y,z
x,x-y,z
-y,-x,z
y,x,1/2+z
x-y,-y,1/2+z
-x,-x+y,1/2+z
loop_
_atom_site_type_symbol
_atom_site_label
_atom_site_fract_x
_atom_site_fract_y
_atom_site_fract_z
Si Si1 0.736801 0.060632 0.757150
Si Si2 0.808250 0.964573 0.256135
Si Si3 0.070351 0.699466 0.757143
Si Si4 0.425161 0.961911 0.735426
O O1 0.789457 0.047067 0.755576
O O2 0.739469 0.097802 0.507712
O O3 0.674305 0.000135 0.755930
O O4 0.739889 0.097717 0.007319
O O5 0.806841 0.903421 0.255322
O O6 0.841842 0.999833 0.506554
O O7 0.083658 0.645102 0.756805
O O8 0.464904 0.929807 0.752154
O O9 0.435803 0.992552 0.464733
#
# Coordination Sequence:
#
# PCOD8326702 Si02
#       4
#    12  12  12  12
#     4  10  16  27  44  61  78 101 129 153 198 233
#     4  12  23  38  55  74  90 102 123 160 209 277
#     4  10  14  25  41  55  84 105 133 165 186 221
#     4  10  16  20  29  50  76 110 139 162 188 205
#
# _framework density 15.284108
#
# number of rings (size 3 to 8) (size 9 to 14) (size 15 to 20)
#    0.000    1.500   10.000    0.750    0.000    0.000 
#    0.000    0.000    0.000    5.000    0.000    0.000 
#    0.000    0.000    0.000    0.000    0.000    0.000 
#
# Total GULP energy -594627.954725 kJ/mol
# GULP energy per Si atom -12388.082390 kJ/mol
# Density = 1.524932 g / cm^3
# Si number density = 15.284108 Si / 1000 Ang^3
#
#
#
# Elastic Constant Matrix: (Units=GPa)
#
#
# Indices 1 2 3 4 5 6 
#
# 1 352.7833 -290.7617 15.8917 0.0000 0.0000 0.0001
# 2 -290.7617 352.7833 15.8918 0.0000 0.0000 -0.0001
# 3 15.8917 15.8918 145.8723 0.0000 0.0000 0.0000
# 4 0.0000 0.0000 0.0000 11.5587 0.0000 0.0000
# 5 0.0000 0.0000 0.0000 0.0000 11.5587 0.0000
# 6 0.0001 -0.0001 0.0000 0.0000 0.0000 321.7724
#
#
#
# Elastic Compliance Matrix: (Units=1/GPa)
#
#
# Indices 1 2 3 4 5 6 
#
# 1 0.009315 0.007761 -0.001860 0.000000 0.000000 0.000000
# 2 0.007761 0.009315 -0.001860 0.000000 0.000000 0.000000
# 3 -0.001860 -0.001860 0.007261 0.000000 0.000000 0.000000
# 4 0.000000 0.000000 0.000000 0.086515 0.000000 0.000000
# 5 0.000000 0.000000 0.000000 0.000000 0.086515 0.000000
# 6 0.000000 0.000000 0.000000 0.000000 0.000000 0.003108
#
#
# Mechanical properties :
#
#
# Convention : Reuss Voigt Hill
#
# Bulk Modulus (GPa) = 29.43544 37.05362 33.24453
# Shear Modulus (GPa) = 24.35801 143.00580 83.68191
#
# Velocity S-wave (km/s) = 3.99643 9.68340 7.40741
# Velocity P-wave (km/s) = 6.37149 12.21966 9.74464
#
# Compressibility (1/GPa) = 0.03397265
#
# Stress axis : x y z
#
# Youngs Moduli (GPa) = 107.34985 107.34985 137.72848
#
# Poissons Ratio (x) = -0.83319 0.25623
# Poissons Ratio (y) = -0.83319 0.25623
# Poissons Ratio (z) = 0.19971 0.19971
#
# Static dielectric constant tensor:
#      x y z
#    x 2.744360 0.000000 0.000000 
#    y 0.000000 2.744360 0.000000 
#    z 0.000000 0.000000 4.624250 
# 
# 
# High freq. dielectric constant tensor:
#      x y z
#    x 1.534350 0.000000 0.000000 
#    y 0.000000 1.534350 0.000000 
#    z 0.000000 0.000000 1.633060 
# 
# From -- ./inp_files/247.got.cif
#   From: 2010.03.12/outbox.cif.g09.slc.cpg/sg186_1_cif.got.tgz:247.got - 2010.04.01 11:56:34.
