data_PCOD8326238
_publ_section_title
;
Structure prediction by ZEFSAII (Michael W. Deem and Ramdas Pophale) SiO2 
 PCOD8326238
Probable space group: P 62 2 2
;
_chemical_formula_sum "Si O2"
_cell_formula_units_Z 69
_cell_length_a 13.805291
_cell_length_b 13.805291
_cell_length_c 17.886498
_cell_angle_alpha 90.000000
_cell_angle_beta 90.000000
_cell_angle_gamma 120.000000
_cell_volume 2952.208872
_symmetry_space_group_name_H-M "P 62 2 2"
_symmetry_group_IT_number 180
_symmetry_cell_setting 'hexagonal'
loop_
_space_group_symop_operation_xyz
x,y,z
x-y,x,1/3+z
-y,x-y,2/3+z
-x,-y,z
-x+y,-x,1/3+z
y,-x+y,2/3+z
x-y,-y,-z
-x,-x+y,1/3-z
y,x,2/3-z
-y,-x,2/3-z
-x+y,y,-z
x,x-y,1/3-z
loop_
_atom_site_type_symbol
_atom_site_label
_atom_site_fract_x
_atom_site_fract_y
_atom_site_fract_z
Si Si1 0.667969 0.886204 0.909644
Si Si2 0.762273 0.525003 0.382324
Si Si3 0.898437 0.101564 0.333334
Si Si4 0.500000 0.500000 0.833334
Si Si5 0.560744 0.933081 0.166956
Si Si6 0.137126 0.400076 0.106181
Si Si7 0.875555 0.875555 0.333334
Si Si8 0.709853 0.419706 0.000000
O O1 0.630038 0.778406 0.857918
O O2 0.798072 0.953567 0.927537
O O3 0.646588 0.971935 0.865295
O O4 0.605660 0.850412 0.988614
O O5 0.657090 0.491606 0.438750
O O6 0.878755 0.586407 0.427918
O O7 0.760363 0.421908 0.340376
O O8 0.801843 0.086274 0.392069
O O9 0.016832 0.126988 0.369610
O O10 0.538835 0.602974 0.775837
O O11 0.500000 0.000000 0.192740
O O12 0.253250 0.498354 0.071923
#
# Coordination Sequence:
#
# PCOD8326238 Si02
#       8
#    12  12   6   3  12  12   6   6
#     4  12  24  45  73 107 146 195 246 321 376 459
#     4  11  24  42  70 107 148 191 253 307 382 453
#     4  10  26  47  72 108 141 196 252 312 382 470
#     4  12  24  48  68 106 140 192 240 314 376 468
#     4  11  24  43  68 108 143 198 245 311 373 453
#     4  11  26  46  73 103 149 192 252 307 391 465
#     4  11  24  46  73 102 144 186 245 318 380 447
#     4  11  24  47  67 105 147 200 243 318 374 474
#
# _framework density 23.372329000000001
#
# number of rings (size 3 to 8) (size 9 to 14) (size 15 to 20)
#    0.000    0.870    1.739    4.174    2.435    4.174 
#    9.391    1.739    0.000    0.000    0.000    0.000 
#    0.000    0.000    0.000    0.000    0.000    0.000 
#
# Total GULP energy -854803.031772 kJ/mol
# GULP energy per Si atom -12388.449736 kJ/mol
# Density = 2.331913 g / cm^3
# Si number density = 23.372329 Si / 1000 Ang^3
#
#
#
# Elastic Constant Matrix: (Units=GPa)
#
#
# Indices 1 2 3 4 5 6 
#
# 1 140.3987 57.5305 41.8759 0.0000 0.0000 0.0000
# 2 57.5305 140.3987 41.8759 0.0000 0.0000 0.0000
# 3 41.8759 41.8759 103.7258 0.0000 0.0000 0.0000
# 4 0.0000 0.0000 0.0000 108.2098 0.0000 0.0000
# 5 0.0000 0.0000 0.0000 0.0000 108.2098 0.0000
# 6 0.0000 0.0000 0.0000 0.0000 0.0000 41.4341
#
#
#
# Elastic Compliance Matrix: (Units=1/GPa)
#
#
# Indices 1 2 3 4 5 6 
#
# 1 0.009080 -0.002987 -0.002460 0.000000 0.000000 0.000000
# 2 -0.002987 0.009080 -0.002460 0.000000 0.000000 0.000000
# 3 -0.002460 -0.002460 0.011627 0.000000 0.000000 0.000000
# 4 0.000000 0.000000 0.000000 0.009241 0.000000 0.000000
# 5 0.000000 0.000000 0.000000 0.000000 0.009241 0.000000
# 6 0.000000 0.000000 0.000000 0.000000 0.000000 0.024135
#
#
# Mechanical properties :
#
#
# Convention : Reuss Voigt Hill
#
# Bulk Modulus (GPa) = 71.56289 74.12085 72.84187
# Shear Modulus (GPa) = 53.83481 67.78680 60.81081
#
# Velocity S-wave (km/s) = 4.80454 5.39129 5.10635
# Velocity P-wave (km/s) = 7.83985 8.39860 8.12403
#
# Compressibility (1/GPa) = 0.01397372
#
# Stress axis : x y z
#
# Youngs Moduli (GPa) = 110.12876 110.12876 86.00637
#
# Poissons Ratio (x) = 0.32896 0.21157
# Poissons Ratio (y) = 0.32896 0.21157
# Poissons Ratio (z) = 0.27091 0.27091
#
# Static dielectric constant tensor:
#      x y z
#    x 3.225330 0.000000 0.000000 
#    y 0.000000 3.225330 0.000000 
#    z 0.000000 0.000000 4.422460 
# 
# 
# High freq. dielectric constant tensor:
#      x y z
#    x 1.937850 0.000000 0.000000 
#    y 0.000000 1.937850 0.000000 
#    z 0.000000 0.000000 1.915370 
# 
# From -- ./inp_files/7880.got.cif
#   From: 2010.03.12/outbox.cif.g09.slc.cpg/sg180_4_cif.got.tgz:7880.got - 2010.04.01 11:35:50.
