data_PCOD8326637
_publ_section_title
;
Structure prediction by ZEFSAII (Michael W. Deem and Ramdas Pophale) SiO2 
 PCOD8326637
Probable space group: P 63 C M
;
_chemical_formula_sum "Si O2"
_cell_formula_units_Z 72
_cell_length_a 22.778274
_cell_length_b 22.778274
_cell_length_c 8.692981
_cell_angle_alpha 90.000000
_cell_angle_beta 90.000000
_cell_angle_gamma 120.000000
_cell_volume 3906.078686
_symmetry_space_group_name_H-M "P 63 C M"
_symmetry_group_IT_number 185
_symmetry_cell_setting 'hexagonal'
loop_
_space_group_symop_operation_xyz
x,y,z
x-y,x,1/2+z
-y,x-y,z
-x,-y,1/2+z
-x+y,-x,z
y,-x+y,1/2+z
-x+y,y,1/2+z
x,x-y,1/2+z
-y,-x,1/2+z
y,x,z
x-y,-y,z
-x,-x+y,z
loop_
_atom_site_type_symbol
_atom_site_label
_atom_site_fract_x
_atom_site_fract_y
_atom_site_fract_z
Si Si1 0.131167 0.000000 0.295701
Si Si2 0.134295 0.743186 0.659616
Si Si3 0.131167 0.000000 0.662809
Si Si4 0.261123 0.000000 0.161393
Si Si5 0.542572 0.208197 0.797247
Si Si6 0.391109 0.134295 0.798894
Si Si7 0.738877 0.000000 0.297117
Si Si8 0.208197 0.665625 0.661263
O O1 0.133139 0.066569 0.229255
O O2 0.125660 0.000000 0.479255
O O3 0.199426 0.000000 0.249255
O O4 0.141410 0.750129 0.479255
O O5 0.184972 0.815028 0.729254
O O6 0.152247 0.685940 0.713626
O O7 0.061397 0.728238 0.714852
O O8 0.199426 0.000000 0.709255
O O9 0.247989 0.000000 0.979255
O O10 0.466307 0.152247 0.744884
O O11 0.591602 0.183204 0.729255
O O12 0.562650 0.281325 0.729255
O O13 0.550375 0.214815 0.979255
O O14 0.333160 0.061397 0.743658
#
# Coordination Sequence:
#
# PCOD8326637 Si02
#       8
#     6  12   6   6  12  12   6  12
#     4  12  25  41  60  85 114 144 176 216 263 312
#     4   9  19  34  53  75 103 135 171 213 258 305
#     4  12  25  41  60  85 114 144 176 216 263 312
#     4  10  20  37  58  81 107 140 178 216 257 308
#     4  10  19  32  50  74 102 135 171 213 261 312
#     4   9  19  34  53  75 103 135 171 213 258 305
#     4  10  20  37  58  81 107 140 178 216 257 308
#     4  10  19  32  50  74 102 135 171 213 261 312
#
# _framework density 18.432808000000001
#
# number of rings (size 3 to 8) (size 9 to 14) (size 15 to 20)
#    0.000    2.000    0.000    4.000    0.000    5.333 
#    0.000    0.833    0.000    0.000    0.000    0.000 
#    0.000    0.000    0.000    0.000    0.000    0.000 
#
# Total GULP energy -892662.089127 kJ/mol
# GULP energy per Si atom -12398.084571 kJ/mol
# Density = 1.839085 g / cm^3
# Si number density = 18.432808 Si / 1000 Ang^3
#
#
#
# Elastic Constant Matrix: (Units=GPa)
#
#
# Indices 1 2 3 4 5 6 
#
# 1 155.3489 98.1532 47.3170 0.0000 0.0000 0.0000
# 2 98.1532 155.3489 47.3170 0.0000 0.0000 0.0000
# 3 47.3170 47.3170 66.4379 0.0000 0.0000 0.0000
# 4 0.0000 0.0000 0.0000 23.0165 0.0000 0.0000
# 5 0.0000 0.0000 0.0000 0.0000 23.0165 0.0000
# 6 0.0000 0.0000 0.0000 0.0000 0.0000 28.5978
#
#
#
# Elastic Compliance Matrix: (Units=1/GPa)
#
#
# Indices 1 2 3 4 5 6 
#
# 1 0.011429 -0.006055 -0.003827 0.000000 0.000000 0.000000
# 2 -0.006055 0.011429 -0.003827 0.000000 0.000000 0.000000
# 3 -0.003827 -0.003827 0.020503 0.000000 0.000000 0.000000
# 4 0.000000 0.000000 0.000000 0.043447 0.000000 0.000000
# 5 0.000000 0.000000 0.000000 0.000000 0.043447 0.000000
# 6 0.000000 0.000000 0.000000 0.000000 0.000000 0.034968
#
#
# Mechanical properties :
#
#
# Convention : Reuss Voigt Hill
#
# Bulk Modulus (GPa) = 62.72821 84.74558 73.73689
# Shear Modulus (GPa) = 25.25842 27.21605 26.23724
#
# Velocity S-wave (km/s) = 3.70577 3.84669 3.77689
# Velocity P-wave (km/s) = 7.23981 8.11201 7.68829
#
# Compressibility (1/GPa) = 0.01594179
#
# Stress axis : x y z
#
# Youngs Moduli (GPa) = 87.49985 87.49985 48.77412
#
# Poissons Ratio (x) = 0.52983 0.18665
# Poissons Ratio (y) = 0.52983 0.18665
# Poissons Ratio (z) = 0.33485 0.33485
#
# Static dielectric constant tensor:
#      x y z
#    x 3.669990 0.000000 0.000000 
#    y 0.000000 3.669990 0.000000 
#    z 0.000000 0.000000 3.424700 
# 
# 
# High freq. dielectric constant tensor:
#      x y z
#    x 1.719060 0.000000 0.000000 
#    y 0.000000 1.719060 0.000000 
#    z 0.000000 0.000000 1.718660 
# 
# From -- ./inp_files/661.got.cif
#   From: 2010.03.12/outbox.cif.g09.slc.cpg/sg185_cif.got.tgz:661.got - 2010.04.01 11:55:19.
