data_PCOD8326699
_publ_section_title
;
Structure prediction by ZEFSAII (Michael W. Deem and Ramdas Pophale) SiO2 
 PCOD8326699
Probable space group: P 63 C M
;
_chemical_formula_sum "Si O2"
_cell_formula_units_Z 72
_cell_length_a 22.242478
_cell_length_b 22.242478
_cell_length_c 8.800779
_cell_angle_alpha 90.000000
_cell_angle_beta 90.000000
_cell_angle_gamma 120.000000
_cell_volume 3770.666187
_symmetry_space_group_name_H-M "P 63 C M"
_symmetry_group_IT_number 185
_symmetry_cell_setting 'hexagonal'
loop_
_space_group_symop_operation_xyz
x,y,z
x-y,x,1/2+z
-y,x-y,z
-x,-y,1/2+z
-x+y,-x,z
y,-x+y,1/2+z
-x+y,y,1/2+z
x,x-y,1/2+z
-y,-x,1/2+z
y,x,z
x-y,-y,z
-x,-x+y,z
loop_
_atom_site_type_symbol
_atom_site_label
_atom_site_fract_x
_atom_site_fract_y
_atom_site_fract_z
Si Si1 0.667167 0.207377 0.158340
Si Si2 0.796369 0.077115 0.657692
Si Si3 0.077115 0.280745 0.799620
Si Si4 0.920205 0.338868 0.801758
Si Si5 0.792623 0.332833 0.298971
Si Si6 0.661132 0.581337 0.155554
O O1 0.642256 0.128028 0.201508
O O2 0.743079 0.256921 0.228656
O O3 0.614753 0.229505 0.228656
O O4 0.669305 0.215946 0.978656
O O5 0.803290 0.081459 0.478656
O O6 0.869525 0.130475 0.728656
O O7 0.736586 0.093779 0.707388
O O8 0.775499 0.000000 0.714005
O O9 0.093779 0.357193 0.749924
O O10 0.000000 0.224501 0.743307
O O11 0.000000 0.396394 0.770530
O O12 0.902088 0.338545 0.978656
O O13 0.871972 0.357744 0.255803
O O14 0.603606 0.603606 0.186782
#
# Coordination Sequence:
#
# PCOD8326699 Si02
#       6
#    12  12  12  12  12  12
#     4  12  25  41  60  82 110 144 185 228 272 322
#     4   9  18  32  51  77 108 140 175 217 264 314
#     4   9  18  32  51  77 108 140 175 217 264 314
#     4   9  19  37  59  84 114 144 176 219 271 324
#     4  12  25  41  60  82 110 144 185 228 272 322
#     4   9  19  37  59  84 114 144 176 219 271 324
#
# _framework density 19.09477
#
# number of rings (size 3 to 8) (size 9 to 14) (size 15 to 20)
#    0.000    2.000    0.000    6.333    0.000    6.000 
#    0.000    3.333    0.000    0.333    0.000    0.000 
#    0.000    0.000    0.000    0.000    0.000    0.000 
#
# Total GULP energy -893022.525111 kJ/mol
# GULP energy per Si atom -12403.090627 kJ/mol
# Density = 1.905131 g / cm^3
# Si number density = 19.094770 Si / 1000 Ang^3
#
#
#
# Elastic Constant Matrix: (Units=GPa)
#
#
# Indices 1 2 3 4 5 6 
#
# 1 94.2059 38.7467 44.0518 0.0000 0.0000 0.0000
# 2 38.7467 94.2059 44.0518 0.0000 0.0000 0.0000
# 3 44.0518 44.0518 104.5587 0.0000 0.0000 0.0000
# 4 0.0000 0.0000 0.0000 33.4780 0.0000 0.0000
# 5 0.0000 0.0000 0.0000 0.0000 33.4780 0.0000
# 6 0.0000 0.0000 0.0000 0.0000 0.0000 27.7296
#
#
#
# Elastic Compliance Matrix: (Units=1/GPa)
#
#
# Indices 1 2 3 4 5 6 
#
# 1 0.014233 -0.003798 -0.004396 0.000000 0.000000 0.000000
# 2 -0.003798 0.014233 -0.004396 0.000000 0.000000 0.000000
# 3 -0.004396 -0.004396 0.013268 0.000000 0.000000 0.000000
# 4 0.000000 0.000000 0.000000 0.029870 0.000000 0.000000
# 5 0.000000 0.000000 0.000000 0.000000 0.029870 0.000000
# 6 0.000000 0.000000 0.000000 0.000000 0.000000 0.036063
#
#
# Mechanical properties :
#
#
# Convention : Reuss Voigt Hill
#
# Bulk Modulus (GPa) = 60.41273 60.74121 60.57697
# Shear Modulus (GPa) = 29.72000 30.01181 29.86590
#
# Velocity S-wave (km/s) = 3.94946 3.96881 3.95915
# Velocity P-wave (km/s) = 7.24601 7.27196 7.25900
#
# Compressibility (1/GPa) = 0.01655280
#
# Stress axis : x y z
#
# Youngs Moduli (GPa) = 70.25922 70.25922 75.36695
#
# Poissons Ratio (x) = 0.26686 0.33133
# Poissons Ratio (y) = 0.26686 0.33133
# Poissons Ratio (z) = 0.30888 0.30888
#
# Static dielectric constant tensor:
#      x y z
#    x 2.137360 0.000000 0.000000 
#    y 0.000000 2.137360 0.000000 
#    z 0.000000 0.000000 3.317950 
# 
# 
# High freq. dielectric constant tensor:
#      x y z
#    x 1.742220 0.000000 0.000000 
#    y 0.000000 1.742220 0.000000 
#    z 0.000000 0.000000 1.736850 
# 
# From -- ./inp_files/634.got.cif
#   From: 2010.03.12/outbox.cif.g09.slc.cpg/sg185_cif.got.tgz:634.got - 2010.04.01 11:55:19.
