data_PCOD8326298
_publ_section_title
;
Structure prediction by ZEFSAII (Michael W. Deem and Ramdas Pophale) SiO2 
 PCOD8326298
Probable space group: P 64 2 2
;
_chemical_formula_sum "Si O2"
_cell_formula_units_Z 48
_cell_length_a 25.311436
_cell_length_b 25.311436
_cell_length_c 4.970578
_cell_angle_alpha 90.000000
_cell_angle_beta 90.000000
_cell_angle_gamma 120.000000
_cell_volume 2757.852879
_symmetry_space_group_name_H-M "P 64 2 2"
_symmetry_group_IT_number 181
_symmetry_cell_setting 'hexagonal'
loop_
_space_group_symop_operation_xyz
x,y,z
x-y,x,2/3+z
-y,x-y,1/3+z
-x,-y,z
-x+y,-x,2/3+z
y,-x+y,1/3+z
x-y,-y,-z
-x,-x+y,2/3-z
y,x,1/3-z
-y,-x,1/3-z
-x+y,y,-z
x,x-y,2/3-z
loop_
_atom_site_type_symbol
_atom_site_label
_atom_site_fract_x
_atom_site_fract_y
_atom_site_fract_z
Si Si1 0.626413 0.135030 0.061644
Si Si2 0.505000 0.201342 0.456157
Si Si3 0.631857 0.848230 0.583578
Si Si4 0.624137 0.959667 0.745609
O O1 0.651398 0.189427 0.288935
O O2 0.633801 0.080094 0.172914
O O3 0.556171 0.112342 0.000000
O O4 0.662166 0.154823 0.783282
O O5 0.541384 0.270692 0.333334
O O6 0.441199 0.190748 0.570214
O O7 0.660687 0.830344 0.333334
O O8 0.652597 0.919322 0.627659
O O9 0.656354 0.828177 0.833334
O O10 0.623770 0.000000 0.500000
O O11 0.663485 0.000000 0.000000
#
# Coordination Sequence:
#
# PCOD8326298 Si02
#       4
#    12  12  12  12
#     4  11  22  35  50  71  96 127 159 186 238 318
#     4  10  18  33  54  71  85 109 152 202 238 274
#     4  10  18  32  52  72  90 116 156 194 230 275
#     4  11  21  34  50  72 101 128 157 198 245 287
#
# _framework density 17.404844000000001
#
# number of rings (size 3 to 8) (size 9 to 14) (size 15 to 20)
#    0.000    1.500    0.000   12.000    0.000    0.500 
#    0.000    3.750    0.000    7.500    0.000    0.000 
#    0.000    0.000    0.000    0.000    0.000    0.000 
#
# Total GULP energy -594797.362743 kJ/mol
# GULP energy per Si atom -12391.611724 kJ/mol
# Density = 1.736523 g / cm^3
# Si number density = 17.404844 Si / 1000 Ang^3
#
#
#
# Elastic Constant Matrix: (Units=GPa)
#
#
# Indices 1 2 3 4 5 6 
#
# 1 54.3350 38.1513 31.1160 0.0000 0.0000 0.0000
# 2 38.1513 54.3350 31.1160 0.0000 0.0000 0.0000
# 3 31.1160 31.1160 135.7556 0.0000 0.0000 0.0000
# 4 0.0000 0.0000 0.0000 28.4632 0.0000 0.0000
# 5 0.0000 0.0000 0.0000 0.0000 28.4632 0.0000
# 6 0.0000 0.0000 0.0000 0.0000 0.0000 8.0918
#
#
#
# Elastic Compliance Matrix: (Units=1/GPa)
#
#
# Indices 1 2 3 4 5 6 
#
# 1 0.037287 -0.024503 -0.002930 0.000000 0.000000 0.000000
# 2 -0.024503 0.037287 -0.002930 0.000000 0.000000 0.000000
# 3 -0.002930 -0.002930 0.008709 0.000000 0.000000 0.000000
# 4 0.000000 0.000000 0.000000 0.035133 0.000000 0.000000
# 5 0.000000 0.000000 0.000000 0.000000 0.035133 0.000000
# 6 0.000000 0.000000 0.000000 0.000000 0.000000 0.123581
#
#
# Mechanical properties :
#
#
# Convention : Reuss Voigt Hill
#
# Bulk Modulus (GPa) = 44.33249 49.46578 46.89913
# Shear Modulus (GPa) = 14.47690 22.60647 18.54169
#
# Velocity S-wave (km/s) = 2.88718 3.60788 3.26746
# Velocity P-wave (km/s) = 6.05318 6.77039 6.42181
#
# Compressibility (1/GPa) = 0.02255682
#
# Stress axis : x y z
#
# Youngs Moduli (GPa) = 26.81874 26.81874 114.81834
#
# Poissons Ratio (x) = 0.65715 0.33644
# Poissons Ratio (y) = 0.65715 0.33644
# Poissons Ratio (z) = 0.07858 0.07858
#
# Static dielectric constant tensor:
#      x y z
#    x 3.163850 0.000000 0.000000 
#    y 0.000000 3.163850 0.000000 
#    z 0.000000 0.000000 3.880210 
# 
# 
# High freq. dielectric constant tensor:
#      x y z
#    x 1.630510 0.000000 0.000000 
#    y 0.000000 1.630510 0.000000 
#    z 0.000000 0.000000 1.712940 
# 
# From -- ./inp_files/1113.got.cif
#   From: 2010.03.12/outbox.cif.g09.slc.cpg/sg181_1_cif.got.tgz:1113.got - 2010.04.01 11:42:41.
