data_PCOD8326897
_publ_section_title
;
Structure prediction by ZEFSAII (Michael W. Deem and Ramdas Pophale) SiO2 
 PCOD8326897
Probable space group: P -6 M 2
;
_chemical_formula_sum "Si O2"
_cell_formula_units_Z 60
_cell_length_a 17.998916
_cell_length_b 17.998916
_cell_length_c 12.647438
_cell_angle_alpha 90.000000
_cell_angle_beta 90.000000
_cell_angle_gamma 120.000000
_cell_volume 3548.345426
_symmetry_space_group_name_H-M "P -6 M 2"
_symmetry_group_IT_number 187
_symmetry_cell_setting 'hexagonal'
loop_
_space_group_symop_operation_xyz
x,y,z
-x+y,-x,-z
-y,x-y,z
x,y,-z
-x+y,-x,z
-y,x-y,-z
-y,-x,-z
-x+y,y,-z
x,x-y,-z
-x+y,y,z
x,x-y,z
-y,-x,z
loop_
_atom_site_type_symbol
_atom_site_label
_atom_site_fract_x
_atom_site_fract_y
_atom_site_fract_z
Si Si1 0.267098 0.902135 0.000000
Si Si2 0.161721 0.667237 0.187243
Si Si3 0.830498 0.496968 0.160537
Si Si4 0.357468 0.263540 0.000000
Si Si5 0.702622 0.568064 0.382474
Si Si6 0.561481 0.952694 0.617589
O O1 0.313000 0.891036 0.101892
O O2 0.278263 0.996952 0.000000
O O3 0.165756 0.834245 0.000000
O O4 0.154331 0.577166 0.158874
O O5 0.261186 0.738815 0.187430
O O6 0.122177 0.666478 0.301395
O O7 0.734523 0.469045 0.123583
O O8 0.853677 0.426839 0.119639
O O9 0.894997 0.587127 0.105476
O O10 0.834950 0.499898 0.287900
O O11 0.322543 0.161272 0.000000
O O12 0.675519 0.524722 0.500000
O O13 0.808122 0.616243 0.374035
O O14 0.659465 0.627714 0.368400
O O15 0.549938 0.913832 0.500000
O O16 0.492721 0.985442 0.636561
#
# Coordination Sequence:
#
# PCOD8326897 Si02
#       6
#     6  12  12   6  12  12
#     4  10  21  35  51  72  95 117 144 184 231 273
#     4  10  20  33  49  69  94 124 157 192 231 275
#     4  10  19  29  42  62  90 123 157 190 221 255
#     4  10  21  35  51  70  91 119 152 184 223 271
#     4   9  17  28  42  61  85 115 153 195 235 273
#     4   9  17  29  45  64  87 118 155 193 233 276
#
# _framework density 16.909289000000001
#
# number of rings (size 3 to 8) (size 9 to 14) (size 15 to 20)
#    0.000    2.400    0.000    2.800    0.000    4.800 
#    0.000    2.000    0.000    3.000    0.000    2.800 
#    0.000    0.000    0.000    0.600    0.000    8.400 
#
# Total GULP energy -743325.972980 kJ/mol
# GULP energy per Si atom -12388.766216 kJ/mol
# Density = 1.687080 g / cm^3
# Si number density = 16.909289 Si / 1000 Ang^3
#
#
#
# Elastic Constant Matrix: (Units=GPa)
#
#
# Indices 1 2 3 4 5 6 
#
# 1 82.9150 48.4200 31.7057 0.0000 -0.0002 0.0000
# 2 48.4200 82.9150 31.7057 0.0000 0.0002 0.0000
# 3 31.7057 31.7057 99.9576 0.0000 0.0000 0.0000
# 4 0.0000 0.0000 0.0000 19.2369 0.0000 0.0002
# 5 -0.0002 0.0002 0.0000 0.0000 19.2369 0.0000
# 6 0.0000 0.0000 0.0000 0.0002 0.0000 17.2475
#
#
#
# Elastic Compliance Matrix: (Units=1/GPa)
#
#
# Indices 1 2 3 4 5 6 
#
# 1 0.018990 -0.009999 -0.002852 0.000000 0.000000 0.000000
# 2 -0.009999 0.018990 -0.002852 0.000000 0.000000 0.000000
# 3 -0.002852 -0.002852 0.011813 0.000000 0.000000 0.000000
# 4 0.000000 0.000000 0.000000 0.051984 0.000000 -0.000001
# 5 0.000000 0.000000 0.000000 0.000000 0.051984 0.000000
# 6 0.000000 0.000000 0.000000 -0.000001 0.000000 0.057979
#
#
# Mechanical properties :
#
#
# Convention : Reuss Voigt Hill
#
# Bulk Modulus (GPa) = 54.38325 54.38337 54.38331
# Shear Modulus (GPa) = 20.05807 21.40800 20.73304
#
# Velocity S-wave (km/s) = 3.44789 3.56202 3.50542
# Velocity P-wave (km/s) = 6.93413 7.01063 6.97248
#
# Compressibility (1/GPa) = 0.01838801
#
# Stress axis : x y z
#
# Youngs Moduli (GPa) = 52.65825 52.65825 84.64941
#
# Poissons Ratio (x) = 0.52655 0.24141
# Poissons Ratio (y) = 0.52655 0.24141
# Poissons Ratio (z) = 0.15018 0.15018
#
# Static dielectric constant tensor:
#      x y z
#    x 2.967830 0.000000 0.000000 
#    y 0.000000 2.967830 0.000000 
#    z 0.000000 0.000000 3.519670 
# 
# 
# High freq. dielectric constant tensor:
#      x y z
#    x 1.619060 0.000000 0.000000 
#    y 0.000000 1.619060 0.000000 
#    z 0.000000 0.000000 1.680160 
# 
# From -- ./inp_files/1658.got.cif
#   From: 2010.03.12/outbox.cif.g09.slc.cpg/sg187_1_cif.got.tgz:1658.got - 2010.04.01 11:58:23.
