data_PCOD8326448
_publ_section_title
;
Structure prediction by ZEFSAII (Michael W. Deem and Ramdas Pophale) SiO2 
 PCOD8326448
Probable space group: P 63 2 2
;
_chemical_formula_sum "Si O2"
_cell_formula_units_Z 60
_cell_length_a 27.473198
_cell_length_b 27.473198
_cell_length_c 5.165155
_cell_angle_alpha 90.000000
_cell_angle_beta 90.000000
_cell_angle_gamma 120.000000
_cell_volume 3376.233095
_symmetry_space_group_name_H-M "P 63 2 2"
_symmetry_group_IT_number 182
_symmetry_cell_setting 'hexagonal'
loop_
_space_group_symop_operation_xyz
x,y,z
x-y,x,1/2+z
-y,x-y,z
-x,-y,1/2+z
-x+y,-x,z
y,-x+y,1/2+z
x-y,-y,-z
-x,-x+y,-z
y,x,-z
-y,-x,1/2-z
-x+y,y,1/2-z
x,x-y,1/2-z
loop_
_atom_site_type_symbol
_atom_site_label
_atom_site_fract_x
_atom_site_fract_y
_atom_site_fract_z
Si Si1 0.962464 0.706504 0.750000
Si Si2 0.148573 0.631494 0.250000
Si Si3 0.038938 0.639350 0.250000
Si Si4 0.961416 0.811241 0.750000
Si Si5 0.333496 0.551716 0.750000
O O1 0.929750 0.638329 0.749999
O O2 0.929781 0.742017 0.750000
O O3 0.000000 0.725215 0.500000
O O4 0.000000 0.725215 0.000000
O O5 0.138708 0.569354 0.250000
O O6 0.087262 0.623871 0.250000
O O7 0.183146 0.665575 0.500544
O O8 0.183146 0.665575 0.999457
O O9 0.000000 0.612735 0.500000
O O10 0.000000 0.612735 0.000000
O O11 0.914587 0.829173 0.750000
O O12 0.000000 0.837214 0.500000
O O13 0.000000 0.837214 0.000000
O O14 0.385004 0.614997 0.750000
O O15 0.277448 0.554896 0.750000
#
# Coordination Sequence:
#
# PCOD8326448 Si02
#       5
#    12  12  12  12  12
#     4   8  16  30  49  71  94 125 164 203 238 279
#     4  10  21  34  51  78 108 135 171 218 259 307
#     4  10  19  33  53  74 103 142 176 209 255 307
#     4  10  19  33  53  75  99 127 163 204 246 294
#     4  10  20  36  55  74  98 131 171 214 263 313
#
# _framework density 17.771286
#
# number of rings (size 3 to 8) (size 9 to 14) (size 15 to 20)
#    0.000    2.400    0.000    2.600    0.000    0.800 
#    0.000    4.000    0.000    4.000    0.000    0.000 
#    0.000    0.000    0.000    0.000    0.000    0.000 
#
# Total GULP energy -743349.804203 kJ/mol
# GULP energy per Si atom -12389.163403 kJ/mol
# Density = 1.773084 g / cm^3
# Si number density = 17.771286 Si / 1000 Ang^3
#
#
#
# Elastic Constant Matrix: (Units=GPa)
#
#
# Indices 1 2 3 4 5 6 
#
# 1 93.8093 44.3423 45.6961 0.0000 0.0000 0.0000
# 2 44.3423 93.8093 45.6961 0.0000 0.0000 0.0000
# 3 45.6961 45.6961 165.6829 0.0000 0.0000 0.0000
# 4 0.0000 0.0000 0.0000 -11.0176 0.0000 0.0000
# 5 0.0000 0.0000 0.0000 0.0000 -11.0176 0.0000
# 6 0.0000 0.0000 0.0000 0.0000 0.0000 24.7335
#
#
#
# Elastic Compliance Matrix: (Units=1/GPa)
#
#
# Indices 1 2 3 4 5 6 
#
# 1 0.014535 -0.005681 -0.002442 0.000000 0.000000 0.000000
# 2 -0.005681 0.014535 -0.002442 0.000000 0.000000 0.000000
# 3 -0.002442 -0.002442 0.007383 0.000000 0.000000 0.000000
# 4 0.000000 0.000000 0.000000 -0.090764 0.000000 0.000000
# 5 0.000000 0.000000 0.000000 0.000000 -0.090764 0.000000
# 6 0.000000 0.000000 0.000000 0.000000 0.000000 0.040431
#
#
# Mechanical properties :
#
#
# Convention : Reuss Voigt Hill
#
# Bulk Modulus (GPa) = 65.26315 69.41897 67.34106
# Shear Modulus (GPa) = -63.76934 15.04412 -24.36261
#
# Velocity S-wave (km/s) = -5.99677 2.91269 -3.70658
# Velocity P-wave (km/s) = 3.33837 7.10345 4.43364
#
# Compressibility (1/GPa) = 0.01532258
#
# Stress axis : x y z
#
# Youngs Moduli (GPa) = 68.80101 68.80101 135.45326
#
# Poissons Ratio (x) = 0.39085 0.33077
# Poissons Ratio (y) = 0.39085 0.33077
# Poissons Ratio (z) = 0.16801 0.16801
#
# Static dielectric constant tensor:
#      x y z
#    x 3.281450 0.000000 0.000000 
#    y 0.000000 3.281450 0.000000 
#    z 0.000000 0.000000 -9.901460 
# 
# 
# High freq. dielectric constant tensor:
#      x y z
#    x 1.673300 0.000000 0.000000 
#    y 0.000000 1.673300 0.000000 
#    z 0.000000 0.000000 1.719550 
# 
# From -- ./inp_files/718.got.cif
#   From: 2010.03.12/outbox.cif.g09.slc.cpg/sg182_1_cif.got.tgz:718.got - 2010.04.01 11:49:36.
