data_PCOD8326840
_publ_section_title
;
Structure prediction by ZEFSAII (Michael W. Deem and Ramdas Pophale) SiO2 
 PCOD8326840
Probable space group: P -6 M 2
;
_chemical_formula_sum "Si O2"
_cell_formula_units_Z 96
_cell_length_a 18.274892
_cell_length_b 18.274892
_cell_length_c 20.414853
_cell_angle_alpha 90.000000
_cell_angle_beta 90.000000
_cell_angle_gamma 120.000000
_cell_volume 5904.546225
_symmetry_space_group_name_H-M "P -6 M 2"
_symmetry_group_IT_number 187
_symmetry_cell_setting 'hexagonal'
loop_
_space_group_symop_operation_xyz
x,y,z
-x+y,-x,-z
-y,x-y,z
x,y,-z
-x+y,-x,z
-y,x-y,-z
-y,-x,-z
-x+y,y,-z
x,x-y,-z
-x+y,y,z
x,x-y,z
-y,-x,z
loop_
_atom_site_type_symbol
_atom_site_label
_atom_site_fract_x
_atom_site_fract_y
_atom_site_fract_z
Si Si1 0.865004 0.299098 0.763596
Si Si2 0.254841 0.212602 0.806061
Si Si3 0.828819 0.999603 0.330008
Si Si4 0.828631 0.333244 0.099559
Si Si5 0.413340 0.429481 0.927104
Si Si6 0.838951 0.335626 0.626606
Si Si7 0.235696 0.302870 0.924245
Si Si8 0.317197 0.072111 0.572658
O O1 0.795959 0.204042 0.742775
O O2 0.946942 0.293226 0.786545
O O3 0.833306 0.334867 0.821770
O O4 0.877382 0.355536 0.700213
O O5 0.265228 0.132614 0.821658
O O6 0.190795 0.194936 0.746412
O O7 0.218652 0.228838 0.873362
O O8 0.826201 0.913101 0.349235
O O9 0.759764 0.008666 0.374400
O O10 0.922746 0.077255 0.343237
O O11 0.802616 0.401308 0.076900
O O12 0.758697 0.241303 0.073324
O O13 0.918318 0.355704 0.070012
O O14 0.486693 0.513308 0.888658
O O15 0.319249 0.388074 0.898466
O O16 0.410444 0.458940 0.000000
O O17 0.839560 0.419780 0.600505
O O18 0.742947 0.257054 0.622449
O O19 0.904780 0.318455 0.586043
O O20 0.162052 0.324103 0.919729
O O21 0.245933 0.279583 0.000000
O O22 0.291471 0.031788 0.500000
O O23 0.315568 0.157784 0.577006
#
# Coordination Sequence:
#
# PCOD8326840 Si02
#       8
#    12  12  12  12  12  12  12  12
#     4   9  16  27  42  61  86 118 156 194 228 266
#     4  10  18  31  49  70  95 123 156 192 233 282
#     4  10  19  32  51  72  93 120 156 197 239 288
#     4  10  18  27  40  60  87 118 152 189 225 259
#     4   9  18  31  45  61  84 115 148 183 227 277
#     4  10  18  29  45  66  94 130 172 209 236 267
#     4  10  20  33  50  72  94 117 151 194 236 282
#     4   9  18  32  47  65  94 128 158 194 242 284
#
# _framework density 16.258658
#
# number of rings (size 3 to 8) (size 9 to 14) (size 15 to 20)
#    0.000    2.375    2.500    1.125    0.000    1.000 
#    0.000    2.500    0.000    2.750    0.000    1.750 
#    0.000    0.000    0.000    0.375    0.000    1.625 
#
# Total GULP energy -1189344.239626 kJ/mol
# GULP energy per Si atom -12389.002496 kJ/mol
# Density = 1.622165 g / cm^3
# Si number density = 16.258658 Si / 1000 Ang^3
#
#
#
# Elastic Constant Matrix: (Units=GPa)
#
#
# Indices 1 2 3 4 5 6 
#
# 1 83.4611 43.4427 29.4692 0.0000 0.0000 0.0000
# 2 43.4427 83.4611 29.4692 0.0000 0.0000 0.0000
# 3 29.4692 29.4692 83.5100 0.0000 0.0000 0.0000
# 4 0.0000 0.0000 0.0000 15.0641 0.0000 0.0000
# 5 0.0000 0.0000 0.0000 0.0000 15.0641 0.0000
# 6 0.0000 0.0000 0.0000 0.0000 0.0000 20.0092
#
#
#
# Elastic Compliance Matrix: (Units=1/GPa)
#
#
# Indices 1 2 3 4 5 6 
#
# 1 0.017207 -0.007782 -0.003326 0.000000 0.000000 0.000000
# 2 -0.007782 0.017207 -0.003326 0.000000 0.000000 0.000000
# 3 -0.003326 -0.003326 0.014322 0.000000 0.000000 0.000000
# 4 0.000000 0.000000 0.000000 0.066383 0.000000 0.000000
# 5 0.000000 0.000000 0.000000 0.000000 0.066383 0.000000
# 6 0.000000 0.000000 0.000000 0.000000 0.000000 0.049977
#
#
# Mechanical properties :
#
#
# Convention : Reuss Voigt Hill
#
# Bulk Modulus (GPa) = 50.33239 50.57714 50.45476
# Shear Modulus (GPa) = 18.72886 19.89755 19.31320
#
# Velocity S-wave (km/s) = 3.39769 3.50210 3.45029
# Velocity P-wave (km/s) = 6.81300 6.89408 6.85366
#
# Compressibility (1/GPa) = 0.01986792
#
# Stress axis : x y z
#
# Youngs Moduli (GPa) = 58.11745 58.11745 69.82354
#
# Poissons Ratio (x) = 0.45227 0.23222
# Poissons Ratio (y) = 0.45227 0.23222
# Poissons Ratio (z) = 0.19328 0.19328
#
# Static dielectric constant tensor:
#      x y z
#    x 2.970920 0.000000 0.000000 
#    y 0.000000 2.970920 0.000000 
#    z 0.000000 0.000000 3.170190 
# 
# 
# High freq. dielectric constant tensor:
#      x y z
#    x 1.599920 0.000000 0.000000 
#    y 0.000000 1.599920 0.000000 
#    z 0.000000 0.000000 1.625710 
# 
# From -- ./inp_files/3729.got.cif
#   From: 2010.03.12/outbox.cif.g09.slc.cpg/sg187_2_cif.got.tgz:3729.got - 2010.04.01 11:58:23.
