data_PCOD8326714
_publ_section_title
;
Structure prediction by ZEFSAII (Michael W. Deem and Ramdas Pophale) SiO2 
 PCOD8326714
Probable space group: P 63 M C
;
_chemical_formula_sum "Si O2"
_cell_formula_units_Z 72
_cell_length_a 32.638756
_cell_length_b 32.638756
_cell_length_c 5.358573
_cell_angle_alpha 90.000000
_cell_angle_beta 90.000000
_cell_angle_gamma 120.000000
_cell_volume 4943.641604
_symmetry_space_group_name_H-M "P 63 M C"
_symmetry_group_IT_number 186
_symmetry_cell_setting 'hexagonal'
loop_
_space_group_symop_operation_xyz
x,y,z
x-y,x,1/2+z
-y,x-y,z
-x,-y,1/2+z
-x+y,-x,z
y,-x+y,1/2+z
-x+y,y,z
x,x-y,z
-y,-x,z
y,x,1/2+z
x-y,-y,1/2+z
-x,-x+y,1/2+z
loop_
_atom_site_type_symbol
_atom_site_label
_atom_site_fract_x
_atom_site_fract_y
_atom_site_fract_z
Si Si1 0.167447 0.737808 0.505240
Si Si2 0.659467 0.463033 0.005238
Si Si3 0.054973 0.527487 0.005238
Si Si4 0.603111 0.025891 0.505240
Si Si5 0.534408 0.220780 0.505238
Si Si6 0.434542 0.128830 0.505240
Si Si7 0.442651 0.557350 0.505237
O O1 0.206822 0.793179 0.505238
O O2 0.193393 0.707025 0.505242
O O3 0.135216 0.725312 0.755635
O O4 0.135215 0.725312 0.254847
O O5 0.660935 0.435486 0.755512
O O6 0.613812 0.468618 0.005237
O O7 0.660934 0.435486 0.254966
O O8 0.023158 0.470896 0.005239
O O9 0.085148 0.542574 0.755101
O O10 0.085149 0.542575 0.255374
O O11 0.646758 0.078759 0.505238
O O12 0.606442 0.000000 0.755242
O O13 0.516506 0.258253 0.505235
O O14 0.489705 0.167992 0.505242
#
# Coordination Sequence:
#
# PCOD8326714 Si02
#       7
#    12  12   6  12  12  12   6
#     4  10  17  29  48  70  88 101 123 155 212 248
#     4  10  18  28  42  66  93 104 118 148 188 229
#     4  12  22  37  50  60  80 116 152 182 204 220
#     4  12  24  37  48  62  84 119 156 176 199 229
#     4  10  18  31  50  70  87 100 121 151 205 239
#     4  10  18  30  45  63  85 108 128 163 193 234
#     4  12  22  33  50  70  92 110 138 172 202 238
#
# _framework density 14.564162
#
# number of rings (size 3 to 8) (size 9 to 14) (size 15 to 20)
#    0.000    1.333    0.000   12.500    0.000    0.000 
#    0.000    0.000    0.000    0.000    0.000    0.000 
#   37.500    0.000    0.000    0.000    0.000    0.000 
#
# Total GULP energy -892191.951327 kJ/mol
# GULP energy per Si atom -12391.554880 kJ/mol
# Density = 1.453101 g / cm^3
# Si number density = 14.564162 Si / 1000 Ang^3
#
#
#
# Elastic Constant Matrix: (Units=GPa)
#
#
# Indices 1 2 3 4 5 6 
#
# 1 52.7795 11.3912 25.0544 0.0000 0.0000 0.0000
# 2 11.3912 52.7795 25.0544 0.0000 0.0000 0.0000
# 3 25.0544 25.0544 183.8822 0.0000 0.0000 0.0000
# 4 0.0000 0.0000 0.0000 23.1902 0.0000 0.0000
# 5 0.0000 0.0000 0.0000 0.0000 23.1902 0.0000
# 6 0.0000 0.0000 0.0000 0.0000 0.0000 20.6942
#
#
#
# Elastic Compliance Matrix: (Units=1/GPa)
#
#
# Indices 1 2 3 4 5 6 
#
# 1 0.020800 -0.003361 -0.002376 0.000000 0.000000 0.000000
# 2 -0.003361 0.020800 -0.002376 0.000000 0.000000 0.000000
# 3 -0.002376 -0.002376 0.006086 0.000000 0.000000 0.000000
# 4 0.000000 0.000000 0.000000 0.043122 0.000000 0.000000
# 5 0.000000 0.000000 0.000000 0.000000 0.043122 0.000000
# 6 0.000000 0.000000 0.000000 0.000000 0.000000 0.048323
#
#
# Mechanical properties :
#
#
# Convention : Reuss Voigt Hill
#
# Bulk Modulus (GPa) = 31.78732 45.82682 38.80707
# Shear Modulus (GPa) = 23.92742 28.61101 26.26921
#
# Velocity S-wave (km/s) = 4.05766 4.43705 4.25159
# Velocity P-wave (km/s) = 6.62012 7.60156 7.12775
#
# Compressibility (1/GPa) = 0.03145909
#
# Stress axis : x y z
#
# Youngs Moduli (GPa) = 48.07666 48.07666 164.31798
#
# Poissons Ratio (x) = 0.16160 0.39043
# Poissons Ratio (y) = 0.16160 0.39043
# Poissons Ratio (z) = 0.11423 0.11423
#
# Static dielectric constant tensor:
#      x y z
#    x 2.504660 0.000000 0.000000 
#    y 0.000000 2.504660 0.000000 
#    z 0.000000 0.000000 4.534850 
# 
# 
# High freq. dielectric constant tensor:
#      x y z
#    x 1.503850 0.000000 0.000000 
#    y 0.000000 1.503850 0.000000 
#    z 0.000000 0.000000 1.609340 
# 
# From -- ./inp_files/422.got.cif
#   From: 2010.03.12/outbox.cif.g09.slc.cpg/sg186_1_cif.got.tgz:422.got - 2010.04.01 11:56:34.
