data_PCOD8326137
_publ_section_title
;
Structure prediction by ZEFSAII (Michael W. Deem and Ramdas Pophale) SiO2 
 PCOD8326137
Probable space group: P 62 2 2
;
_chemical_formula_sum "Si O2"
_cell_formula_units_Z 72
_cell_length_a 18.617228
_cell_length_b 18.617228
_cell_length_c 17.248427
_cell_angle_alpha 90.000000
_cell_angle_beta 90.000000
_cell_angle_gamma 120.000000
_cell_volume 5177.381429
_symmetry_space_group_name_H-M "P 62 2 2"
_symmetry_group_IT_number 180
_symmetry_cell_setting 'hexagonal'
loop_
_space_group_symop_operation_xyz
x,y,z
x-y,x,1/3+z
-y,x-y,2/3+z
-x,-y,z
-x+y,-x,1/3+z
y,-x+y,2/3+z
x-y,-y,-z
-x,-x+y,1/3-z
y,x,2/3-z
-y,-x,2/3-z
-x+y,y,-z
x,x-y,1/3-z
loop_
_atom_site_type_symbol
_atom_site_label
_atom_site_fract_x
_atom_site_fract_y
_atom_site_fract_z
Si Si1 0.506618 0.183902 0.998219
Si Si2 0.585417 0.999984 0.587988
Si Si3 0.842645 0.325202 0.353214
Si Si4 0.913791 0.544469 0.817388
Si Si5 0.840113 0.346023 0.985399
Si Si6 0.901971 0.368547 0.820295
O O1 0.448519 0.125993 0.929276
O O2 0.596457 0.192914 0.000000
O O3 0.517720 0.272959 0.981473
O O4 0.460526 0.146668 0.079440
O O5 0.578750 0.919946 0.631684
O O6 0.500000 0.000000 0.590005
O O7 0.614607 0.000000 0.500000
O O8 0.649729 0.084530 0.631415
O O9 0.759298 0.240703 0.333334
O O10 0.862834 0.315606 0.442038
O O11 0.830735 0.403972 0.342079
O O12 0.914195 0.459305 0.815878
O O13 0.007027 0.621638 0.822932
O O14 0.851284 0.324544 0.897428
#
# Coordination Sequence:
#
# PCOD8326137 Si02
#       6
#    12  12  12  12  12  12
#     4  10  19  27  41  64  83 102 135 176 215 246
#     4   9  18  31  44  56  75 107 139 168 206 252
#     4  10  19  30  44  59  79 105 139 179 214 243
#     4   9  17  29  43  58  77 106 137 170 203 247
#     4  10  18  30  43  59  83 105 133 176 220 249
#     4   9  16  30  44  55  78 109 136 164 206 253
#
# _framework density 13.906643000000001
#
# number of rings (size 3 to 8) (size 9 to 14) (size 15 to 20)
#    0.000    2.500    1.667    1.500    2.333    2.000 
#    0.000    1.667    0.000    0.000    0.000    0.000 
#    0.000    0.000    0.000    0.000    0.000    3.333 
#
# Total GULP energy -892502.777444 kJ/mol
# GULP energy per Si atom -12395.871909 kJ/mol
# Density = 1.387499 g / cm^3
# Si number density = 13.906643 Si / 1000 Ang^3
#
#
#
# Elastic Constant Matrix: (Units=GPa)
#
#
# Indices 1 2 3 4 5 6 
#
# 1 58.8579 25.3860 29.3447 0.0000 0.0000 0.0000
# 2 25.3860 58.8579 29.3447 0.0000 0.0000 0.0000
# 3 29.3447 29.3447 111.9349 0.0000 0.0000 0.0000
# 4 0.0000 0.0000 0.0000 16.5010 0.0000 0.0000
# 5 0.0000 0.0000 0.0000 0.0000 16.5010 0.0000
# 6 0.0000 0.0000 0.0000 0.0000 0.0000 16.7359
#
#
#
# Elastic Compliance Matrix: (Units=1/GPa)
#
#
# Indices 1 2 3 4 5 6 
#
# 1 0.022199 -0.007677 -0.003807 0.000000 0.000000 0.000000
# 2 -0.007677 0.022199 -0.003807 0.000000 0.000000 0.000000
# 3 -0.003807 -0.003807 0.010930 0.000000 0.000000 0.000000
# 4 0.000000 0.000000 0.000000 0.060603 0.000000 0.000000
# 5 0.000000 0.000000 0.000000 0.000000 0.060603 0.000000
# 6 0.000000 0.000000 0.000000 0.000000 0.000000 0.059752
#
#
# Mechanical properties :
#
#
# Convention : Reuss Voigt Hill
#
# Bulk Modulus (GPa) = 40.41007 44.20017 42.30512
# Shear Modulus (GPa) = 18.17414 19.65259 18.91337
#
# Velocity S-wave (km/s) = 3.61898 3.76331 3.69185
# Velocity P-wave (km/s) = 6.82524 7.12291 6.97566
#
# Compressibility (1/GPa) = 0.02474631
#
# Stress axis : x y z
#
# Youngs Moduli (GPa) = 45.04659 45.04659 91.49163
#
# Poissons Ratio (x) = 0.34580 0.34833
# Poissons Ratio (y) = 0.34580 0.34833
# Poissons Ratio (z) = 0.17150 0.17150
#
# Static dielectric constant tensor:
#      x y z
#    x 2.515060 0.000000 0.000000 
#    y 0.000000 2.515060 0.000000 
#    z 0.000000 0.000000 3.038650 
# 
# 
# High freq. dielectric constant tensor:
#      x y z
#    x 1.495840 0.000000 0.000000 
#    y 0.000000 1.495840 0.000000 
#    z 0.000000 0.000000 1.553510 
# 
# From -- ./inp_files/7905.got.cif
#   From: 2010.03.12/outbox.cif.g09.slc.cpg/sg180_4_cif.got.tgz:7905.got - 2010.04.01 11:35:50.
