data_PCOD8326177
_publ_section_title
;
Structure prediction by ZEFSAII (Michael W. Deem and Ramdas Pophale) SiO2 
 PCOD8326177
Probable space group: P 62 2 2
;
_chemical_formula_sum "Si O2"
_cell_formula_units_Z 75
_cell_length_a 11.752736
_cell_length_b 11.752736
_cell_length_c 32.289052
_cell_angle_alpha 90.000000
_cell_angle_beta 90.000000
_cell_angle_gamma 120.000000
_cell_volume 3862.459046
_symmetry_space_group_name_H-M "P 62 2 2"
_symmetry_group_IT_number 180
_symmetry_cell_setting 'hexagonal'
loop_
_space_group_symop_operation_xyz
x,y,z
x-y,x,1/3+z
-y,x-y,2/3+z
-x,-y,z
-x+y,-x,1/3+z
y,-x+y,2/3+z
x-y,-y,-z
-x,-x+y,1/3-z
y,x,2/3-z
-y,-x,2/3-z
-x+y,y,-z
x,x-y,1/3-z
loop_
_atom_site_type_symbol
_atom_site_label
_atom_site_fract_x
_atom_site_fract_y
_atom_site_fract_z
Si Si1 0.500000 0.000000 0.786887
Si Si2 0.307933 0.277533 0.180863
Si Si3 0.139932 0.603890 0.756801
Si Si4 0.000000 0.500000 0.166667
Si Si5 0.183586 0.763910 0.116074
Si Si6 0.352593 0.402307 0.699871
Si Si7 0.558481 0.188861 0.286597
Si Si8 0.413976 0.206988 0.666667
O O1 0.604859 0.981939 0.813967
O O2 0.593397 0.122209 0.758075
O O3 0.252501 0.126251 0.166667
O O4 0.414322 0.295470 0.215374
O O5 0.184788 0.291463 0.198393
O O6 0.201711 0.536040 0.785594
O O7 0.237797 0.672407 0.718619
O O8 0.000000 0.500000 0.737279
O O9 0.090529 0.628617 0.139574
O O10 0.141169 0.750057 0.067758
O O11 0.500000 0.500000 0.716458
O O12 0.335870 0.451613 0.655286
O O13 0.325971 0.255902 0.690365
O O14 0.695886 0.202818 0.298190
#
# Coordination Sequence:
#
# PCOD8326177 Si02
#       8
#     6  12  12   3  12  12  12   6
#     4  12  20  35  64  94 127 169 216 256 325 386
#     4  11  23  40  63  96 132 172 214 266 327 398
#     4  10  21  38  61  93 130 163 198 266 326 378
#     4  12  28  38  62  96 120 172 208 260 338 376
#     4  11  24  41  60  93 130 165 209 272 321 387
#     4  10  20  40  56  93 129 161 217 266 321 376
#     4  11  21  35  63  94 124 168 210 259 324 382
#     4  10  20  36  59  90 125 166 212 266 310 378
#
# _framework density 19.417681999999999
#
# number of rings (size 3 to 8) (size 9 to 14) (size 15 to 20)
#    0.000    1.280    7.200    1.920    3.360    0.000 
#    0.000    9.600    0.000    1.920    0.000   10.080 
#    0.000    0.000    0.000    0.000    0.000    0.000 
#
# Total GULP energy -929374.067148 kJ/mol
# GULP energy per Si atom -12391.654229 kJ/mol
# Density = 1.937349 g / cm^3
# Si number density = 19.417682 Si / 1000 Ang^3
#
#
#
# Elastic Constant Matrix: (Units=GPa)
#
#
# Indices 1 2 3 4 5 6 
#
# 1 102.2627 42.1611 34.9614 0.0000 0.0000 0.0000
# 2 42.1611 102.2627 34.9614 0.0000 0.0000 0.0000
# 3 34.9614 34.9614 92.7544 0.0000 0.0000 0.0000
# 4 0.0000 0.0000 0.0000 27.7656 0.0000 0.0000
# 5 0.0000 0.0000 0.0000 0.0000 27.7656 0.0000
# 6 0.0000 0.0000 0.0000 0.0000 0.0000 30.0508
#
#
#
# Elastic Compliance Matrix: (Units=1/GPa)
#
#
# Indices 1 2 3 4 5 6 
#
# 1 0.012554 -0.004084 -0.003192 0.000000 0.000000 0.000000
# 2 -0.004084 0.012554 -0.003192 0.000000 0.000000 0.000000
# 3 -0.003192 -0.003192 0.013188 0.000000 0.000000 0.000000
# 4 0.000000 0.000000 0.000000 0.036016 0.000000 0.000000
# 5 0.000000 0.000000 0.000000 0.000000 0.036016 0.000000
# 6 0.000000 0.000000 0.000000 0.000000 0.000000 0.033277
#
#
# Mechanical properties :
#
#
# Convention : Reuss Voigt Hill
#
# Bulk Modulus (GPa) = 57.61225 57.93860 57.77543
# Shear Modulus (GPa) = 29.35499 29.46280 29.40889
#
# Velocity S-wave (km/s) = 3.89236 3.89950 3.89593
# Velocity P-wave (km/s) = 7.06647 7.08362 7.07505
#
# Compressibility (1/GPa) = 0.01735742
#
# Stress axis : x y z
#
# Youngs Moduli (GPa) = 79.65532 79.65532 75.82785
#
# Poissons Ratio (x) = 0.32534 0.24207
# Poissons Ratio (y) = 0.32534 0.24207
# Poissons Ratio (z) = 0.25429 0.25429
#
# Static dielectric constant tensor:
#      x y z
#    x 3.439710 0.000000 0.000000 
#    y 0.000000 3.439710 0.000000 
#    z 0.000000 0.000000 5.032050 
# 
# 
# High freq. dielectric constant tensor:
#      x y z
#    x 1.744910 0.000000 0.000000 
#    y 0.000000 1.744910 0.000000 
#    z 0.000000 0.000000 1.759820 
# 
# From -- ./inp_files/12407.got.cif
#   From: 2010.03.12/outbox.cif.g09.slc.cpg/sg180_7_cif.got.tgz:12407.got - 2010.04.01 11:35:50.
