data_PCOD8326458
_publ_section_title
;
Structure prediction by ZEFSAII (Michael W. Deem and Ramdas Pophale) SiO2 
 PCOD8326458
Probable space group: P 63 2 2
;
_chemical_formula_sum "Si O2"
_cell_formula_units_Z 46
_cell_length_a 17.012227
_cell_length_b 17.012227
_cell_length_c 8.816481
_cell_angle_alpha 90.000000
_cell_angle_beta 90.000000
_cell_angle_gamma 120.000000
_cell_volume 2209.775965
_symmetry_space_group_name_H-M "P 63 2 2"
_symmetry_group_IT_number 182
_symmetry_cell_setting 'hexagonal'
loop_
_space_group_symop_operation_xyz
x,y,z
x-y,x,1/2+z
-y,x-y,z
-x,-y,1/2+z
-x+y,-x,z
y,-x+y,1/2+z
x-y,-y,-z
-x,-x+y,-z
y,x,-z
-y,-x,1/2-z
-x+y,y,1/2-z
x,x-y,1/2-z
loop_
_atom_site_type_symbol
_atom_site_label
_atom_site_fract_x
_atom_site_fract_y
_atom_site_fract_z
Si Si1 0.159472 0.002112 0.331566
Si Si2 0.538593 0.135843 0.576251
Si Si3 0.666666 0.333333 0.929914
Si Si4 0.637461 0.725871 0.280880
Si Si5 0.408133 0.000000 0.000000
O O1 0.199018 0.099509 0.250000
O O2 0.125165 0.000000 0.500000
O O3 0.237503 0.976127 0.336328
O O4 0.070064 0.929937 0.250000
O O5 0.567165 0.134331 0.750000
O O6 0.586912 0.237287 0.509729
O O7 0.430026 0.095376 0.583620
O O8 0.570404 0.081436 0.464061
O O9 0.666668 0.333334 0.750000
O O10 0.618394 0.809197 0.250000
O O11 0.628669 0.664637 0.134755
#
# Coordination Sequence:
#
# PCOD8326458 Si02
#       5
#    12  12   4  12   6
#     4  11  25  43  68  95 131 170 219 269 335 403
#     4   9  17  32  53  86 119 164 211 270 328 390
#     4   9  15  30  57  84 118 158 220 267 322 404
#     4  10  22  37  62  89 130 174 223 272 338 406
#     4  10  20  34  58  88 132 166 222 280 326 392
#
# _framework density 20.816590000000001
#
# number of rings (size 3 to 8) (size 9 to 14) (size 15 to 20)
#    0.000    2.087    0.000    4.957    9.130    0.000 
#    0.000    0.000    0.000    0.000    0.000    0.000 
#    0.000    0.000    0.000    0.000    0.000    0.000 
#
# Total GULP energy -569892.354793 kJ/mol
# GULP energy per Si atom -12388.964235 kJ/mol
# Density = 2.076921 g / cm^3
# Si number density = 20.816590 Si / 1000 Ang^3
#
#
#
# Elastic Constant Matrix: (Units=GPa)
#
#
# Indices 1 2 3 4 5 6 
#
# 1 140.4559 65.6551 44.7880 0.0001 0.0000 -0.0001
# 2 65.6551 140.4555 44.7880 0.0000 0.0000 0.0000
# 3 44.7880 44.7880 81.7686 0.0000 0.0000 0.0000
# 4 0.0001 0.0000 0.0000 23.9398 0.0001 0.0000
# 5 0.0000 0.0000 0.0000 0.0001 23.9396 -0.0001
# 6 -0.0001 0.0000 0.0000 0.0000 -0.0001 37.4004
#
#
#
# Elastic Compliance Matrix: (Units=1/GPa)
#
#
# Indices 1 2 3 4 5 6 
#
# 1 0.009868 -0.003501 -0.003488 0.000000 0.000000 0.000000
# 2 -0.003501 0.009868 -0.003488 0.000000 0.000000 0.000000
# 3 -0.003488 -0.003488 0.016050 0.000000 0.000000 0.000000
# 4 0.000000 0.000000 0.000000 0.041771 0.000000 0.000000
# 5 0.000000 0.000000 0.000000 0.000000 0.041772 0.000000
# 6 0.000000 0.000000 0.000000 0.000000 0.000000 0.026738
#
#
# Mechanical properties :
#
#
# Convention : Reuss Voigt Hill
#
# Bulk Modulus (GPa) = 67.41066 74.79356 71.10211
# Shear Modulus (GPa) = 29.07570 30.88590 29.98080
#
# Velocity S-wave (km/s) = 3.74137 3.85608 3.79916
# Velocity P-wave (km/s) = 7.14964 7.47219 7.31269
#
# Compressibility (1/GPa) = 0.01483445
#
# Stress axis : x y z
#
# Youngs Moduli (GPa) = 101.33571 101.33539 62.30374
#
# Poissons Ratio (x) = 0.35474 0.21730
# Poissons Ratio (y) = 0.35474 0.21730
# Poissons Ratio (z) = 0.35343 0.35343
#
# Static dielectric constant tensor:
#      x y z
#    x 4.140360 0.000000 0.000000 
#    y 0.000000 4.140360 0.000000 
#    z 0.000000 0.000000 3.313630 
# 
# 
# High freq. dielectric constant tensor:
#      x y z
#    x 1.833470 0.000000 0.000000 
#    y 0.000000 1.833470 0.000000 
#    z 0.000000 0.000000 1.764960 
# 
# From -- ./inp_files/1488.got.cif
#   From: 2010.03.12/outbox.cif.g09.slc.cpg/sg182_1_cif.got.tgz:1488.got - 2010.04.01 11:49:36.
