data_PCOD8326766
_publ_section_title
;
Structure prediction by ZEFSAII (Michael W. Deem and Ramdas Pophale) SiO2 
 PCOD8326766
Probable space group: P 63 M C
;
_chemical_formula_sum "Si O2"
_cell_formula_units_Z 72
_cell_length_a 23.147267
_cell_length_b 23.147267
_cell_length_c 8.255064
_cell_angle_alpha 90.000000
_cell_angle_beta 90.000000
_cell_angle_gamma 120.000000
_cell_volume 3830.456359
_symmetry_space_group_name_H-M "P 63 M C"
_symmetry_group_IT_number 186
_symmetry_cell_setting 'hexagonal'
loop_
_space_group_symop_operation_xyz
x,y,z
x-y,x,1/2+z
-y,x-y,z
-x,-y,1/2+z
-x+y,-x,z
y,-x+y,1/2+z
-x+y,y,z
x,x-y,z
-y,-x,z
y,x,1/2+z
x-y,-y,1/2+z
-x,-x+y,1/2+z
loop_
_atom_site_type_symbol
_atom_site_label
_atom_site_fract_x
_atom_site_fract_y
_atom_site_fract_z
Si Si1 0.467442 0.668019 0.830370
Si Si2 0.314590 0.000515 0.007362
Si Si3 0.513622 0.486379 0.450103
Si Si4 0.449076 0.550925 0.295195
Si Si5 0.305673 0.822499 0.195302
Si Si6 0.902478 0.672455 0.752286
Si Si7 0.647296 0.069256 0.257626
O O1 0.450268 0.725134 0.787245
O O2 0.402960 0.597041 0.794148
O O3 0.531381 0.679951 0.722984
O O4 0.488938 0.670742 0.015999
O O5 0.314599 0.064893 0.930701
O O6 0.306415 0.946747 0.873367
O O7 0.387102 0.027746 0.094698
O O8 0.250296 0.962813 0.124958
O O9 0.473072 0.526929 0.453047
O O10 0.529026 0.470975 0.629250
O O11 0.469396 0.421510 0.344639
O O12 0.481881 0.630312 0.310574
O O13 0.250957 0.749044 0.257630
O O14 0.275188 0.870888 0.200462
O O15 0.848447 0.696893 0.747292
#
# Coordination Sequence:
#
# PCOD8326766 Si02
#       7
#    12  12   6   6  12  12  12
#     4  11  20  33  49  70  99 138 190 239 288 337
#     4  10  21  33  54  81 106 140 179 212 270 331
#     4  12  20  28  48  70 102 122 158 228 292 320
#     4  12  20  34  48  76  98 124 172 226 282 340
#     4  10  19  32  49  68  98 135 171 218 277 328
#     4  10  20  37  55  77 113 144 174 218 261 315
#     4  11  19  33  48  76 103 130 173 230 279 335
#
# _framework density 18.796716
#
# number of rings (size 3 to 8) (size 9 to 14) (size 15 to 20)
#    0.000    1.333    5.000    3.167    0.000    0.667 
#    0.500    2.500    0.000    0.000    0.000    0.000 
#    0.000    0.000    0.000    5.000    0.000    0.000 
#
# Total GULP energy -892451.385670 kJ/mol
# GULP energy per Si atom -12395.158134 kJ/mol
# Density = 1.875393 g / cm^3
# Si number density = 18.796716 Si / 1000 Ang^3
#
#
#
# Elastic Constant Matrix: (Units=GPa)
#
#
# Indices 1 2 3 4 5 6 
#
# 1 102.8958 46.2283 28.7521 0.0000 0.0000 0.0000
# 2 46.2283 102.8958 28.7521 0.0000 0.0000 0.0000
# 3 28.7521 28.7521 45.6587 0.0000 0.0000 0.0000
# 4 0.0000 0.0000 0.0000 20.3770 0.0000 0.0000
# 5 0.0000 0.0000 0.0000 0.0000 20.3770 0.0000
# 6 0.0000 0.0000 0.0000 0.0000 0.0000 28.3338
#
#
#
# Elastic Compliance Matrix: (Units=1/GPa)
#
#
# Indices 1 2 3 4 5 6 
#
# 1 0.013252 -0.004395 -0.005577 0.000000 0.000000 0.000000
# 2 -0.004395 0.013252 -0.005577 0.000000 0.000000 0.000000
# 3 -0.005577 -0.005577 0.028925 0.000000 0.000000 0.000000
# 4 0.000000 0.000000 0.000000 0.049075 0.000000 0.000000
# 5 0.000000 0.000000 0.000000 0.000000 0.049075 0.000000
# 6 0.000000 0.000000 0.000000 0.000000 0.000000 0.035294
#
#
# Mechanical properties :
#
#
# Convention : Reuss Voigt Hill
#
# Bulk Modulus (GPa) = 41.10116 50.99057 46.04587
# Shear Modulus (GPa) = 21.92209 23.66544 22.79376
#
# Velocity S-wave (km/s) = 3.41878 3.55212 3.48608
# Velocity P-wave (km/s) = 6.12353 6.63398 6.38386
#
# Compressibility (1/GPa) = 0.02433021
#
# Stress axis : x y z
#
# Youngs Moduli (GPa) = 75.46266 75.46266 34.57159
#
# Poissons Ratio (x) = 0.33167 0.19281
# Poissons Ratio (y) = 0.33167 0.19281
# Poissons Ratio (z) = 0.42086 0.42086
#
# Static dielectric constant tensor:
#      x y z
#    x 3.557770 0.000000 0.000000 
#    y 0.000000 3.557770 0.000000 
#    z 0.000000 0.000000 3.453540 
# 
# 
# High freq. dielectric constant tensor:
#      x y z
#    x 1.708980 0.000000 0.000000 
#    y 0.000000 1.708980 0.000000 
#    z 0.000000 0.000000 1.720500 
# 
# From -- ./inp_files/1246.got.cif
#   From: 2010.03.12/outbox.cif.g09.slc.cpg/sg186_1_cif.got.tgz:1246.got - 2010.04.01 11:56:34.
