data_PCOD8326180
_publ_section_title
;
Structure prediction by ZEFSAII (Michael W. Deem and Ramdas Pophale) SiO2 
 PCOD8326180
Probable space group: P 62 2 2
;
_chemical_formula_sum "Si O2"
_cell_formula_units_Z 42
_cell_length_a 13.670413
_cell_length_b 13.670413
_cell_length_c 12.825525
_cell_angle_alpha 90.000000
_cell_angle_beta 90.000000
_cell_angle_gamma 120.000000
_cell_volume 2075.721358
_symmetry_space_group_name_H-M "P 62 2 2"
_symmetry_group_IT_number 180
_symmetry_cell_setting 'hexagonal'
loop_
_space_group_symop_operation_xyz
x,y,z
x-y,x,1/3+z
-y,x-y,2/3+z
-x,-y,z
-x+y,-x,1/3+z
y,-x+y,2/3+z
x-y,-y,-z
-x,-x+y,1/3-z
y,x,2/3-z
-y,-x,2/3-z
-x+y,y,-z
x,x-y,1/3-z
loop_
_atom_site_type_symbol
_atom_site_label
_atom_site_fract_x
_atom_site_fract_y
_atom_site_fract_z
Si Si1 0.500000 0.000000 0.717116
Si Si2 0.161096 0.170313 0.594351
Si Si3 0.736478 0.579959 0.107343
Si Si4 0.636382 0.725721 0.923379
O O1 0.492509 0.093613 0.787682
O O2 0.609743 0.053887 0.646421
O O3 0.116336 0.058168 0.666667
O O4 0.285197 0.209779 0.550275
O O5 0.176675 0.274964 0.665915
O O6 0.073561 0.147121 0.500000
O O7 0.789383 0.550579 0.206032
O O8 0.773551 0.547101 0.000000
O O9 0.708415 0.708415 0.833334
#
# Coordination Sequence:
#
# PCOD8326180 Si02
#       4
#     6  12  12  12
#     4  10  21  36  68  91 126 164 211 278 325 362
#     4  10  21  39  60  90 126 162 206 252 312 381
#     4  10  20  36  61  94 119 156 216 259 316 385
#     4  11  19  38  65  92 119 166 209 266 317 383
#
# _framework density 20.233930000000001
#
# number of rings (size 3 to 8) (size 9 to 14) (size 15 to 20)
#    0.000    1.714    8.571    0.429    0.000    1.143 
#    0.000   11.429   25.143    6.857    0.000    0.000 
#    0.000    0.000    0.000    0.000    0.000    0.000 
#
# Total GULP energy -520443.611308 kJ/mol
# GULP energy per Si atom -12391.514555 kJ/mol
# Density = 2.018788 g / cm^3
# Si number density = 20.233930 Si / 1000 Ang^3
#
#
#
# Elastic Constant Matrix: (Units=GPa)
#
#
# Indices 1 2 3 4 5 6 
#
# 1 99.7828 41.4033 52.3633 0.0000 0.0000 0.0000
# 2 41.4033 99.7828 52.3633 0.0000 0.0000 0.0000
# 3 52.3633 52.3633 101.4800 0.0000 0.0000 0.0000
# 4 0.0000 0.0000 0.0000 22.7153 0.0000 0.0000
# 5 0.0000 0.0000 0.0000 0.0000 22.7153 0.0000
# 6 0.0000 0.0000 0.0000 0.0000 0.0000 29.1898
#
#
#
# Elastic Compliance Matrix: (Units=1/GPa)
#
#
# Indices 1 2 3 4 5 6 
#
# 1 0.014302 -0.002827 -0.005921 0.000000 0.000000 0.000000
# 2 -0.002827 0.014302 -0.005921 0.000000 0.000000 0.000000
# 3 -0.005921 -0.005921 0.015965 0.000000 0.000000 0.000000
# 4 0.000000 0.000000 0.000000 0.044023 0.000000 0.000000
# 5 0.000000 0.000000 0.000000 0.000000 0.044023 0.000000
# 6 0.000000 0.000000 0.000000 0.000000 0.000000 0.034259
#
#
# Mechanical properties :
#
#
# Convention : Reuss Voigt Hill
#
# Bulk Modulus (GPa) = 65.65848 65.92280 65.79064
# Shear Modulus (GPa) = 24.83994 25.25178 25.04586
#
# Velocity S-wave (km/s) = 3.50757 3.53653 3.52208
# Velocity P-wave (km/s) = 6.99458 7.02332 7.00897
#
# Compressibility (1/GPa) = 0.01523032
#
# Stress axis : x y z
#
# Youngs Moduli (GPa) = 69.92005 69.92005 62.63881
#
# Poissons Ratio (x) = 0.19768 0.37088
# Poissons Ratio (y) = 0.19768 0.37088
# Poissons Ratio (z) = 0.41399 0.41399
#
# Static dielectric constant tensor:
#      x y z
#    x 3.868540 0.000000 0.000000 
#    y 0.000000 3.868540 0.000000 
#    z 0.000000 0.000000 3.833380 
# 
# 
# High freq. dielectric constant tensor:
#      x y z
#    x 1.779730 0.000000 0.000000 
#    y 0.000000 1.779730 0.000000 
#    z 0.000000 0.000000 1.777930 
# 
# From -- ./inp_files/4239.got.cif
#   From: 2010.03.12/outbox.cif.g09.slc.cpg/sg180_3_cif.got.tgz:4239.got - 2010.04.01 11:35:50.
