data_PCOD8326408
_publ_section_title
;
Structure prediction by ZEFSAII (Michael W. Deem and Ramdas Pophale) SiO2 
 PCOD8326408
Probable space group: P 64 2 2
;
_chemical_formula_sum "Si O2"
_cell_formula_units_Z 48
_cell_length_a 13.409575
_cell_length_b 13.409575
_cell_length_c 15.071863
_cell_angle_alpha 90.000000
_cell_angle_beta 90.000000
_cell_angle_gamma 120.000000
_cell_volume 2347.078401
_symmetry_space_group_name_H-M "P 64 2 2"
_symmetry_group_IT_number 181
_symmetry_cell_setting 'hexagonal'
loop_
_space_group_symop_operation_xyz
x,y,z
x-y,x,2/3+z
-y,x-y,1/3+z
-x,-y,z
-x+y,-x,2/3+z
y,-x+y,1/3+z
x-y,-y,-z
-x,-x+y,2/3-z
y,x,1/3-z
-y,-x,1/3-z
-x+y,y,-z
x,x-y,2/3-z
loop_
_atom_site_type_symbol
_atom_site_label
_atom_site_fract_x
_atom_site_fract_y
_atom_site_fract_z
Si Si1 0.849736 0.381509 0.660174
Si Si2 0.378622 0.330758 0.069494
Si Si3 0.730376 0.598629 0.672025
Si Si4 0.810284 0.394546 0.194142
O O1 0.716734 0.283267 0.666667
O O2 0.879657 0.480852 0.733757
O O3 0.880106 0.443735 0.564447
O O4 0.933752 0.329289 0.675138
O O5 0.327936 0.327936 0.166667
O O6 0.337840 0.203945 0.029676
O O7 0.697531 0.697531 0.666667
O O8 0.697642 0.531859 0.578329
O O9 0.660551 0.506533 0.748226
O O10 0.674700 0.325301 0.166667
#
# Coordination Sequence:
#
# PCOD8326408 Si02
#       4
#    12  12  12  12
#     4  11  22  38  63  94 131 172 218 279 338 412
#     4  11  24  42  61  94 131 178 228 274 333 404
#     4  11  25  39  61  92 133 178 220 282 329 403
#     4  11  21  37  60  92 131 171 217 262 342 400
#
# _framework density 20.450956999999999
#
# number of rings (size 3 to 8) (size 9 to 14) (size 15 to 20)
#    0.000    1.000    2.500    6.000    7.000    2.000 
#    0.000    0.000    0.000    0.750    0.000    3.500 
#    0.000    0.000    0.000    0.000    0.000    0.000 
#
# Total GULP energy -594744.906785 kJ/mol
# GULP energy per Si atom -12390.518891 kJ/mol
# Density = 2.040441 g / cm^3
# Si number density = 20.450957 Si / 1000 Ang^3
#
#
#
# Elastic Constant Matrix: (Units=GPa)
#
#
# Indices 1 2 3 4 5 6 
#
# 1 101.9131 27.9729 36.7281 0.0000 0.0000 0.0000
# 2 27.9729 101.9131 36.7281 0.0000 0.0000 0.0000
# 3 36.7281 36.7281 137.1018 0.0000 0.0000 0.0000
# 4 0.0000 0.0000 0.0000 24.0752 0.0000 0.0000
# 5 0.0000 0.0000 0.0000 0.0000 24.0752 0.0000
# 6 0.0000 0.0000 0.0000 0.0000 0.0000 36.9701
#
#
#
# Elastic Compliance Matrix: (Units=1/GPa)
#
#
# Indices 1 2 3 4 5 6 
#
# 1 0.011299 -0.002225 -0.002431 0.000000 0.000000 0.000000
# 2 -0.002225 0.011299 -0.002431 0.000000 0.000000 0.000000
# 3 -0.002431 -0.002431 0.008596 0.000000 0.000000 0.000000
# 4 0.000000 0.000000 0.000000 0.041537 0.000000 0.000000
# 5 0.000000 0.000000 0.000000 0.000000 0.041537 0.000000
# 6 0.000000 0.000000 0.000000 0.000000 0.000000 0.027049
#
#
# Mechanical properties :
#
#
# Convention : Reuss Voigt Hill
#
# Bulk Modulus (GPa) = 58.75209 60.42069 59.58639
# Shear Modulus (GPa) = 31.02438 32.99071 32.00754
#
# Velocity S-wave (km/s) = 3.89911 4.02078 3.96041
# Velocity P-wave (km/s) = 7.00438 7.15289 7.07903
#
# Compressibility (1/GPa) = 0.01702067
#
# Stress axis : x y z
#
# Youngs Moduli (GPa) = 88.50266 88.50266 116.33044
#
# Poissons Ratio (x) = 0.19695 0.28277
# Poissons Ratio (y) = 0.19695 0.28277
# Poissons Ratio (z) = 0.21513 0.21513
#
# Static dielectric constant tensor:
#      x y z
#    x 3.721880 0.000000 0.000000 
#    y 0.000000 3.721880 0.000000 
#    z 0.000000 0.000000 4.123850 
# 
# 
# High freq. dielectric constant tensor:
#      x y z
#    x 1.771200 0.000000 0.000000 
#    y 0.000000 1.771200 0.000000 
#    z 0.000000 0.000000 1.819920 
# 
# From -- ./inp_files/5870.got.cif
#   From: 2010.03.12/outbox.cif.g09.slc.cpg/sg181_3_cif.got.tgz:5870.got - 2010.04.01 11:42:41.
