data_PCOD8326476
_publ_section_title
;
Structure prediction by ZEFSAII (Michael W. Deem and Ramdas Pophale) SiO2 
 PCOD8326476
Probable space group: P 63 2 2
;
_chemical_formula_sum "Si O2"
_cell_formula_units_Z 46
_cell_length_a 17.202531
_cell_length_b 17.202531
_cell_length_c 8.125875
_cell_angle_alpha 90.000000
_cell_angle_beta 90.000000
_cell_angle_gamma 120.000000
_cell_volume 2082.502192
_symmetry_space_group_name_H-M "P 63 2 2"
_symmetry_group_IT_number 182
_symmetry_cell_setting 'hexagonal'
loop_
_space_group_symop_operation_xyz
x,y,z
x-y,x,1/2+z
-y,x-y,z
-x,-y,1/2+z
-x+y,-x,z
y,-x+y,1/2+z
x-y,-y,-z
-x,-x+y,-z
y,x,-z
-y,-x,1/2-z
-x+y,y,1/2-z
x,x-y,1/2-z
loop_
_atom_site_type_symbol
_atom_site_label
_atom_site_fract_x
_atom_site_fract_y
_atom_site_fract_z
Si Si1 0.403707 0.000000 0.500000
Si Si2 0.000000 0.194194 0.000000
Si Si3 0.863360 0.406795 0.059204
Si Si4 0.369564 0.097263 0.202369
Si Si5 0.057756 0.115511 0.250000
Si Si6 0.333334 0.666668 0.553989
O O1 0.503980 0.079291 0.551488
O O2 0.367040 0.035680 0.354228
O O3 0.051576 0.269971 0.865834
O O4 0.924965 0.102722 0.909203
O O5 0.865173 0.432587 0.250000
O O6 0.900220 0.336637 0.058408
O O7 0.763854 0.358911 0.985054
O O8 0.401403 0.200702 0.250000
O O9 0.102274 0.051137 0.250000
O O10 0.333334 0.666667 0.750000
#
# Coordination Sequence:
#
# PCOD8326476 Si02
#       6
#     6   6  12  12   6   4
#     4  10  21  38  63  96 142 180 224 290 359 416
#     4  12  25  42  67  98 132 178 234 288 367 426
#     4   9  17  34  58  92 128 174 223 280 341 416
#     4  11  24  39  65  99 138 181 235 293 360 432
#     4  10  24  46  72  90 124 172 234 288 352 434
#     4   9  15  30  60  87 118 164 232 273 328 422
#
# _framework density 22.088812999999998
#
# number of rings (size 3 to 8) (size 9 to 14) (size 15 to 20)
#    0.261    1.565    0.000    6.261    3.652    0.000 
#    0.000    0.000    0.000    0.000    0.000    0.000 
#    0.000    0.000    0.000    0.000    0.000    0.000 
#
# Total GULP energy -569958.778297 kJ/mol
# GULP energy per Si atom -12390.408224 kJ/mol
# Density = 2.203854 g / cm^3
# Si number density = 22.088813 Si / 1000 Ang^3
#
#
#
# Elastic Constant Matrix: (Units=GPa)
#
#
# Indices 1 2 3 4 5 6 
#
# 1 135.4498 81.4797 59.0799 0.0000 0.0000 0.0003
# 2 81.4797 135.4504 59.0799 0.0000 0.0000 0.0001
# 3 59.0799 59.0799 77.7240 0.0000 0.0000 0.0000
# 4 0.0000 0.0000 0.0000 35.0570 0.0000 0.0000
# 5 0.0000 0.0000 0.0000 0.0000 35.0573 0.0000
# 6 0.0003 0.0001 0.0000 0.0000 0.0000 26.9848
#
#
#
# Elastic Compliance Matrix: (Units=1/GPa)
#
#
# Indices 1 2 3 4 5 6 
#
# 1 0.013198 -0.005331 -0.005980 0.000000 0.000000 0.000000
# 2 -0.005331 0.013198 -0.005980 0.000000 0.000000 0.000000
# 3 -0.005980 -0.005980 0.021957 0.000000 0.000000 0.000000
# 4 0.000000 0.000000 0.000000 0.028525 0.000000 0.000000
# 5 0.000000 0.000000 0.000000 0.000000 0.028525 0.000000
# 6 0.000000 0.000000 0.000000 0.000000 0.000000 0.037058
#
#
# Mechanical properties :
#
#
# Convention : Reuss Voigt Hill
#
# Bulk Modulus (GPa) = 72.61439 83.10036 77.85738
# Shear Modulus (GPa) = 27.52820 29.35212 28.44016
#
# Velocity S-wave (km/s) = 3.53406 3.64926 3.59212
# Velocity P-wave (km/s) = 7.04258 7.44707 7.24765
#
# Compressibility (1/GPa) = 0.01377137
#
# Stress axis : x y z
#
# Youngs Moduli (GPa) = 75.76977 75.77021 45.54372
#
# Poissons Ratio (x) = 0.40392 0.27235
# Poissons Ratio (y) = 0.40392 0.27234
# Poissons Ratio (z) = 0.45310 0.45309
#
# Static dielectric constant tensor:
#      x y z
#    x 4.247920 -0.000010 0.000000 
#    y -0.000010 4.247910 0.000000 
#    z 0.000000 0.000000 3.512790 
# 
# 
# High freq. dielectric constant tensor:
#      x y z
#    x 1.881890 0.000000 0.000000 
#    y 0.000000 1.881890 0.000000 
#    z 0.000000 0.000000 1.822270 
# 
# From -- ./inp_files/1555.got.cif
#   From: 2010.03.12/outbox.cif.g09.slc.cpg/sg182_1_cif.got.tgz:1555.got - 2010.04.01 11:49:36.
