data_PCOD8326928
_publ_section_title
;
Structure prediction by ZEFSAII (Michael W. Deem and Ramdas Pophale) SiO2 
 PCOD8326928
Probable space group: P -6 M 2
;
_chemical_formula_sum "Si O2"
_cell_formula_units_Z 84
_cell_length_a 17.729523
_cell_length_b 17.729523
_cell_length_c 19.075857
_cell_angle_alpha 90.000000
_cell_angle_beta 90.000000
_cell_angle_gamma 120.000000
_cell_volume 5192.886048
_symmetry_space_group_name_H-M "P -6 M 2"
_symmetry_group_IT_number 187
_symmetry_cell_setting 'hexagonal'
loop_
_space_group_symop_operation_xyz
x,y,z
-x+y,-x,-z
-y,x-y,z
x,y,-z
-x+y,-x,z
-y,x-y,-z
-y,-x,-z
-x+y,y,-z
x,x-y,-z
-x+y,y,z
x,x-y,z
-y,-x,z
loop_
_atom_site_type_symbol
_atom_site_label
_atom_site_fract_x
_atom_site_fract_y
_atom_site_fract_z
Si Si1 0.269080 0.906936 0.078831
Si Si2 0.417189 0.008172 0.178418
Si Si3 0.731987 0.093012 0.699693
Si Si4 0.999880 0.170528 0.116923
Si Si5 0.832126 0.331756 0.079982
Si Si6 0.839022 0.333550 0.420298
Si Si7 0.000099 0.831688 0.718133
O O1 0.186792 0.813209 0.095842
O O2 0.240267 0.980288 0.080390
O O3 0.338011 0.923283 0.141190
O O4 0.305044 0.907959 0.000000
O O5 0.494419 0.988838 0.199778
O O6 0.391084 0.046075 0.244261
O O7 0.445180 0.077849 0.117769
O O8 0.812612 0.187389 0.725445
O O9 0.689791 0.102505 0.628606
O O10 0.768658 0.028582 0.680557
O O11 0.072461 0.144922 0.096562
O O12 0.999963 0.184801 0.199586
O O13 0.906394 0.093607 0.090766
O O14 0.795386 0.397693 0.087713
O O15 0.759818 0.240182 0.113007
O O16 0.849641 0.319522 0.000000
O O17 0.871058 0.338092 0.500000
O O18 0.850219 0.425110 0.395851
O O19 0.737612 0.262389 0.412969
O O20 0.932291 0.864581 0.700657
O O21 0.095267 0.904734 0.691383
#
# Coordination Sequence:
#
# PCOD8326928 Si02
#       7
#    12  12  12  12  12  12  12
#     4  10  21  35  48  62  83 113 149 190 236 282
#     4  11  21  32  47  66  87 111 143 184 231 281
#     4  10  19  30  46  70  99 126 153 189 231 275
#     4   9  16  27  43  64  89 117 149 183 220 264
#     4   9  17  28  41  57  80 112 146 175 203 241
#     4   9  17  30  48  69  94 126 163 200 238 281
#     4   9  16  27  45  68  94 124 157 188 218 259
#
# _framework density 16.175975999999999
#
# number of rings (size 3 to 8) (size 9 to 14) (size 15 to 20)
#    0.000    2.429    1.429    1.857    0.000    4.000 
#    0.000    0.000    0.000    6.143    0.000    0.000 
#    0.000    1.143    0.000    0.000    0.000    1.429 
#
# Total GULP energy -1041183.657682 kJ/mol
# GULP energy per Si atom -12395.043544 kJ/mol
# Density = 1.613916 g / cm^3
# Si number density = 16.175976 Si / 1000 Ang^3
#
#
#
# Elastic Constant Matrix: (Units=GPa)
#
#
# Indices 1 2 3 4 5 6 
#
# 1 88.3766 45.4372 39.9895 0.0000 0.0000 0.0000
# 2 45.4372 88.3766 39.9895 0.0000 0.0000 0.0000
# 3 39.9895 39.9895 63.7063 0.0000 0.0000 0.0000
# 4 0.0000 0.0000 0.0000 19.4076 0.0000 0.0000
# 5 0.0000 0.0000 0.0000 0.0000 19.4076 0.0000
# 6 0.0000 0.0000 0.0000 0.0000 0.0000 21.4697
#
#
#
# Elastic Compliance Matrix: (Units=1/GPa)
#
#
# Indices 1 2 3 4 5 6 
#
# 1 0.017624 -0.005664 -0.007508 0.000000 0.000000 0.000000
# 2 -0.005664 0.017624 -0.007508 0.000000 0.000000 0.000000
# 3 -0.007508 -0.007508 0.025122 0.000000 0.000000 0.000000
# 4 0.000000 0.000000 0.000000 0.051526 0.000000 0.000000
# 5 0.000000 0.000000 0.000000 0.000000 0.051526 0.000000
# 6 0.000000 0.000000 0.000000 0.000000 0.000000 0.046577
#
#
# Mechanical properties :
#
#
# Convention : Reuss Voigt Hill
#
# Bulk Modulus (GPa) = 52.59747 54.58798 53.59273
# Shear Modulus (GPa) = 19.40260 19.72656 19.56458
#
# Velocity S-wave (km/s) = 3.46709 3.49592 3.48154
# Velocity P-wave (km/s) = 6.97238 7.07918 7.02598
#
# Compressibility (1/GPa) = 0.01901232
#
# Stress axis : x y z
#
# Youngs Moduli (GPa) = 56.73927 56.73927 39.80505
#
# Poissons Ratio (x) = 0.32138 0.29884
# Poissons Ratio (y) = 0.32138 0.29884
# Poissons Ratio (z) = 0.42598 0.42598
#
# Static dielectric constant tensor:
#      x y z
#    x 3.139700 0.000000 0.000000 
#    y 0.000000 3.139700 0.000000 
#    z 0.000000 0.000000 2.864540 
# 
# 
# High freq. dielectric constant tensor:
#      x y z
#    x 1.612850 0.000000 0.000000 
#    y 0.000000 1.612850 0.000000 
#    z 0.000000 0.000000 1.593410 
# 
# From -- ./inp_files/3676.got.cif
#   From: 2010.03.12/outbox.cif.g09.slc.cpg/sg187_2_cif.got.tgz:3676.got - 2010.04.01 11:58:23.
