data_PCOD8326921
_publ_section_title
;
Structure prediction by ZEFSAII (Michael W. Deem and Ramdas Pophale) SiO2 
 PCOD8326921
Probable space group: P -6 M 2
;
_chemical_formula_sum "Si O2"
_cell_formula_units_Z 54
_cell_length_a 17.512346
_cell_length_b 17.512346
_cell_length_c 12.850957
_cell_angle_alpha 90.000000
_cell_angle_beta 90.000000
_cell_angle_gamma 120.000000
_cell_volume 3413.145171
_symmetry_space_group_name_H-M "P -6 M 2"
_symmetry_group_IT_number 187
_symmetry_cell_setting 'hexagonal'
loop_
_space_group_symop_operation_xyz
x,y,z
-x+y,-x,-z
-y,x-y,z
x,y,-z
-x+y,-x,z
-y,x-y,-z
-y,-x,-z
-x+y,y,-z
x,x-y,-z
-x+y,y,z
x,x-y,z
-y,-x,z
loop_
_atom_site_type_symbol
_atom_site_label
_atom_site_fract_x
_atom_site_fract_y
_atom_site_fract_z
Si Si1 0.176660 0.175071 0.500000
Si Si2 0.578279 0.592846 0.619100
Si Si3 0.299980 0.061915 0.696748
Si Si4 0.065734 0.307844 0.117281
Si Si5 0.157334 0.491608 0.784890
O O1 0.142373 0.071187 0.500000
O O2 0.231983 0.218854 0.396333
O O3 0.095858 0.191715 0.500000
O O4 0.592676 0.622504 0.500000
O O5 0.511332 0.488669 0.632270
O O6 0.669942 0.611945 0.670977
O O7 0.539756 0.649413 0.673387
O O8 0.326576 0.163288 0.707003
O O9 0.259096 0.012966 0.805229
O O10 0.142416 0.284832 0.136100
O O11 0.104404 0.412242 0.134095
O O12 0.029004 0.284937 0.000000
O O13 0.257787 0.515573 0.771435
O O14 0.155576 0.577788 0.826152
#
# Coordination Sequence:
#
# PCOD8326921 Si02
#       5
#     6  12  12  12  12
#     4  10  19  30  45  68  96 122 148 182 227 274
#     4   9  17  30  45  64  92 125 155 188 233 279
#     4  10  19  31  49  72  92 117 155 194 233 279
#     4   9  18  32  47  65  92 125 158 192 231 273
#     4   9  17  28  43  65  93 126 161 194 226 262
#
# _framework density 15.821184000000001
#
# number of rings (size 3 to 8) (size 9 to 14) (size 15 to 20)
#    0.000    2.667    1.111    1.000    0.000    2.222 
#    0.000    0.000    0.000    3.556    0.000    0.000 
#    0.000    0.000    0.000    0.667    0.000    0.889 
#
# Total GULP energy -669501.322083 kJ/mol
# GULP energy per Si atom -12398.172631 kJ/mol
# Density = 1.578517 g / cm^3
# Si number density = 15.821184 Si / 1000 Ang^3
#
#
#
# Elastic Constant Matrix: (Units=GPa)
#
#
# Indices 1 2 3 4 5 6 
#
# 1 72.8201 33.1142 30.7813 0.0000 0.0000 0.0000
# 2 33.1142 72.8201 30.7813 0.0000 0.0000 0.0000
# 3 30.7813 30.7813 107.3916 0.0000 0.0000 0.0000
# 4 0.0000 0.0000 0.0000 17.4273 0.0000 0.0000
# 5 0.0000 0.0000 0.0000 0.0000 17.4273 0.0000
# 6 0.0000 0.0000 0.0000 0.0000 0.0000 19.8530
#
#
#
# Elastic Compliance Matrix: (Units=1/GPa)
#
#
# Indices 1 2 3 4 5 6 
#
# 1 0.018256 -0.006929 -0.003246 0.000000 0.000000 0.000000
# 2 -0.006929 0.018256 -0.003246 0.000000 0.000000 0.000000
# 3 -0.003246 -0.003246 0.011173 0.000000 0.000000 0.000000
# 4 0.000000 0.000000 0.000000 0.057381 0.000000 0.000000
# 5 0.000000 0.000000 0.000000 0.000000 0.057381 0.000000
# 6 0.000000 0.000000 0.000000 0.000000 0.000000 0.050370
#
#
# Mechanical properties :
#
#
# Convention : Reuss Voigt Hill
#
# Bulk Modulus (GPa) = 47.98502 49.15390 48.56946
# Shear Modulus (GPa) = 20.27506 21.49851 20.88678
#
# Velocity S-wave (km/s) = 3.58371 3.69025 3.63737
# Velocity P-wave (km/s) = 6.89343 7.02090 6.95746
#
# Compressibility (1/GPa) = 0.02083984
#
# Stress axis : x y z
#
# Youngs Moduli (GPa) = 54.77706 54.77706 89.50337
#
# Poissons Ratio (x) = 0.37957 0.29057
# Poissons Ratio (y) = 0.37957 0.29057
# Poissons Ratio (z) = 0.17783 0.17783
#
# Static dielectric constant tensor:
#      x y z
#    x 2.957700 0.000000 0.000000 
#    y 0.000000 2.957700 0.000000 
#    z 0.000000 0.000000 3.057360 
# 
# 
# High freq. dielectric constant tensor:
#      x y z
#    x 1.596920 0.000000 0.000000 
#    y 0.000000 1.596920 0.000000 
#    z 0.000000 0.000000 1.612160 
# 
# From -- ./inp_files/1529.got.cif
#   From: 2010.03.12/outbox.cif.g09.slc.cpg/sg187_1_cif.got.tgz:1529.got - 2010.04.01 11:58:23.
