data_PCOD8326305
_publ_section_title
;
Structure prediction by ZEFSAII (Michael W. Deem and Ramdas Pophale) SiO2 
 PCOD8326305
Probable space group: P 64 2 2
;
_chemical_formula_sum "Si O2"
_cell_formula_units_Z 51
_cell_length_a 12.396951
_cell_length_b 12.396951
_cell_length_c 19.411345
_cell_angle_alpha 90.000000
_cell_angle_beta 90.000000
_cell_angle_gamma 120.000000
_cell_volume 2583.544993
_symmetry_space_group_name_H-M "P 64 2 2"
_symmetry_group_IT_number 181
_symmetry_cell_setting 'hexagonal'
loop_
_space_group_symop_operation_xyz
x,y,z
x-y,x,2/3+z
-y,x-y,1/3+z
-x,-y,z
-x+y,-x,2/3+z
y,-x+y,1/3+z
x-y,-y,-z
-x,-x+y,2/3-z
y,x,1/3-z
-y,-x,1/3-z
-x+y,y,-z
x,x-y,2/3-z
loop_
_atom_site_type_symbol
_atom_site_label
_atom_site_fract_x
_atom_site_fract_y
_atom_site_fract_z
Si Si1 0.736701 0.000000 0.000000
Si Si2 0.823476 0.000841 0.726174
Si Si3 0.552777 0.642690 0.942016
Si Si4 0.000000 0.000000 0.833334
Si Si5 0.604266 0.302133 0.833334
Si Si6 0.213296 0.505611 0.284398
O O1 0.622237 0.920061 0.052917
O O2 0.770289 0.914774 0.954365
O O3 0.903992 0.096008 0.666667
O O4 0.915677 0.040054 0.790241
O O5 0.698667 0.005035 0.741757
O O6 0.500000 0.500000 0.951351
O O7 0.485733 0.673200 0.881142
O O8 0.530419 0.690364 0.015065
O O9 0.692177 0.264173 0.877056
O O10 0.193855 0.596928 0.333334
#
# Coordination Sequence:
#
# PCOD8326305 Si02
#       6
#     6  12  12   3   6  12
#     4  10  18  38  60  90 122 160 206 256 326 378
#     4  11  22  39  60  89 130 164 204 264 322 387
#     4  10  23  41  61  89 127 166 208 261 329 378
#     4  12  20  36  60  94 126 166 210 258 320 388
#     4  10  21  40  61  95 116 159 222 266 298 390
#     4   9  20  36  62  87 124 161 208 268 315 376
#
# _framework density 19.740317000000001
#
# number of rings (size 3 to 8) (size 9 to 14) (size 15 to 20)
#    0.000    1.882    2.353    1.059    0.000   10.353 
#    0.000    0.588    0.000    0.000    0.000    0.000 
#    0.000    0.000    0.000    0.000    0.000    0.000 
#
# Total GULP energy -632148.956694 kJ/mol
# GULP energy per Si atom -12395.077582 kJ/mol
# Density = 1.969539 g / cm^3
# Si number density = 19.740317 Si / 1000 Ang^3
#
#
#
# Elastic Constant Matrix: (Units=GPa)
#
#
# Indices 1 2 3 4 5 6 
#
# 1 242.4476 -34.7391 52.5675 0.0000 0.0000 0.0000
# 2 -34.7391 242.4476 52.5675 0.0000 0.0000 0.0000
# 3 52.5675 52.5675 111.7354 0.0000 0.0000 0.0000
# 4 0.0000 0.0000 0.0000 41.8587 0.0000 0.0000
# 5 0.0000 0.0000 0.0000 0.0000 41.8587 0.0000
# 6 0.0000 0.0000 0.0000 0.0000 0.0000 138.5933
#
#
#
# Elastic Compliance Matrix: (Units=1/GPa)
#
#
# Indices 1 2 3 4 5 6 
#
# 1 0.004963 0.001356 -0.002973 0.000000 0.000000 0.000000
# 2 0.001356 0.004963 -0.002973 0.000000 0.000000 0.000000
# 3 -0.002973 -0.002973 0.011747 0.000000 0.000000 0.000000
# 4 0.000000 0.000000 0.000000 0.023890 0.000000 0.000000
# 5 0.000000 0.000000 0.000000 0.000000 0.023890 0.000000
# 6 0.000000 0.000000 0.000000 0.000000 0.000000 0.007215
#
#
# Mechanical properties :
#
#
# Convention : Reuss Voigt Hill
#
# Bulk Modulus (GPa) = 80.04055 81.93580 80.98818
# Shear Modulus (GPa) = 55.54687 79.54447 67.54567
#
# Velocity S-wave (km/s) = 5.31036 6.35476 5.85589
# Velocity P-wave (km/s) = 8.84503 9.76938 9.31868
#
# Compressibility (1/GPa) = 0.01249367
#
# Stress axis : x y z
#
# Youngs Moduli (GPa) = 201.47189 201.47189 85.12750
#
# Poissons Ratio (x) = -0.27315 0.25308
# Poissons Ratio (y) = -0.27315 0.25308
# Poissons Ratio (z) = 0.59897 0.59897
#
# Static dielectric constant tensor:
#      x y z
#    x 3.850710 0.000000 0.000000 
#    y 0.000000 3.850710 0.000000 
#    z 0.000000 0.000000 5.094920 
# 
# 
# High freq. dielectric constant tensor:
#      x y z
#    x 1.777510 0.000000 0.000000 
#    y 0.000000 1.777510 0.000000 
#    z 0.000000 0.000000 1.754420 
# 
# From -- ./inp_files/8873.got.cif
#   From: 2010.03.12/outbox.cif.g09.slc.cpg/sg181_5_cif.got.tgz:8873.got - 2010.04.01 11:42:41.
