data_PCOD8326874
_publ_section_title
;
Structure prediction by ZEFSAII (Michael W. Deem and Ramdas Pophale) SiO2 
 PCOD8326874
Probable space group: P -6 M 2
;
_chemical_formula_sum "Si O2"
_cell_formula_units_Z 96
_cell_length_a 17.208947
_cell_length_b 17.208947
_cell_length_c 20.952714
_cell_angle_alpha 90.000000
_cell_angle_beta 90.000000
_cell_angle_gamma 120.000000
_cell_volume 5373.775399
_symmetry_space_group_name_H-M "P -6 M 2"
_symmetry_group_IT_number 187
_symmetry_cell_setting 'hexagonal'
loop_
_space_group_symop_operation_xyz
x,y,z
-x+y,-x,-z
-y,x-y,z
x,y,-z
-x+y,-x,z
-y,x-y,-z
-y,-x,-z
-x+y,y,-z
x,x-y,-z
-x+y,y,z
x,x-y,z
-y,-x,z
loop_
_atom_site_type_symbol
_atom_site_label
_atom_site_fract_x
_atom_site_fract_y
_atom_site_fract_z
Si Si1 0.370570 0.098781 0.232254
Si Si2 0.846989 0.513952 0.643883
Si Si3 0.400287 0.981471 0.430196
Si Si4 0.488894 0.332346 0.110682
Si Si5 0.171661 0.000265 0.074920
Si Si6 0.022571 0.662350 0.070720
Si Si7 0.332073 0.846749 0.323763
Si Si8 0.622950 0.721759 0.198194
O O1 0.328201 0.164101 0.231300
O O2 0.417758 0.104600 0.298695
O O3 0.450793 0.131356 0.181691
O O4 0.290828 0.997866 0.218009
O O5 0.750521 0.501042 0.626814
O O6 0.835441 0.417721 0.661205
O O7 0.913168 0.559459 0.584187
O O8 0.352556 0.961056 0.500000
O O9 0.479710 0.959419 0.433024
O O10 0.333505 0.919000 0.374243
O O11 0.480014 0.240007 0.083791
O O12 0.592926 0.407075 0.110247
O O13 0.433602 0.365690 0.067294
O O14 0.172783 0.086392 0.106102
O O15 0.265343 0.006570 0.090025
O O16 0.157377 0.000149 0.000000
O O17 0.090415 0.909586 0.105010
O O18 0.090552 0.673455 0.128559
O O19 0.068585 0.680872 0.000000
O O20 0.418387 0.836774 0.329928
O O21 0.246794 0.753207 0.341862
O O22 0.327855 0.874277 0.250932
O O23 0.654393 0.827197 0.194452
#
# Coordination Sequence:
#
# PCOD8326874 Si02
#       8
#    12  12  12  12  12  12  12  12
#     4   9  18  32  51  75 103 136 171 214 262 309
#     4  10  18  29  47  73 107 147 189 226 259 297
#     4   9  18  32  50  74 107 143 173 208 257 305
#     4  10  20  33  50  71  97 129 169 215 262 308
#     4   9  16  27  45  68  93 121 154 194 241 297
#     4  10  21  35  49  68  97 131 166 207 256 309
#     4  10  20  35  56  80 104 131 166 210 261 318
#     4  10  20  34  54  77  99 129 167 210 258 311
#
# _framework density 17.864536000000001
#
# number of rings (size 3 to 8) (size 9 to 14) (size 15 to 20)
#    0.000    2.375    1.250    1.625    0.000    5.250 
#    0.000    1.250    0.000    2.500    0.000    0.000 
#    0.000    1.000    0.000    0.000    0.000   11.375 
#
# Total GULP energy -1189742.450841 kJ/mol
# GULP energy per Si atom -12393.150530 kJ/mol
# Density = 1.782388 g / cm^3
# Si number density = 17.864536 Si / 1000 Ang^3
#
#
#
# Elastic Constant Matrix: (Units=GPa)
#
#
# Indices 1 2 3 4 5 6 
#
# 1 84.3806 33.8211 32.7458 0.0000 -0.0003 0.0000
# 2 33.8211 84.3806 32.7458 0.0000 0.0003 0.0000
# 3 32.7458 32.7458 113.0448 0.0000 0.0000 0.0000
# 4 0.0000 0.0000 0.0000 16.1436 0.0000 0.0003
# 5 -0.0003 0.0003 0.0000 0.0000 16.1436 0.0000
# 6 0.0000 0.0000 0.0000 0.0003 0.0000 25.2798
#
#
#
# Elastic Compliance Matrix: (Units=1/GPa)
#
#
# Indices 1 2 3 4 5 6 
#
# 1 0.014928 -0.004851 -0.002919 0.000000 0.000000 0.000000
# 2 -0.004851 0.014928 -0.002919 0.000000 0.000000 0.000000
# 3 -0.002919 -0.002919 0.010537 0.000000 0.000000 0.000000
# 4 0.000000 0.000000 0.000000 0.061944 0.000000 -0.000001
# 5 0.000000 0.000000 0.000000 0.000000 0.061944 0.000000
# 6 0.000000 0.000000 0.000000 -0.000001 0.000000 0.039557
#
#
# Mechanical properties :
#
#
# Convention : Reuss Voigt Hill
#
# Bulk Modulus (GPa) = 52.58830 53.38126 52.98478
# Shear Modulus (GPa) = 21.59309 23.67959 22.63634
#
# Velocity S-wave (km/s) = 3.48043 3.64470 3.56351
# Velocity P-wave (km/s) = 6.75665 6.90346 6.83045
#
# Compressibility (1/GPa) = 0.01901564
#
# Stress axis : x y z
#
# Youngs Moduli (GPa) = 66.98774 66.98774 94.90141
#
# Poissons Ratio (x) = 0.32493 0.27703
# Poissons Ratio (y) = 0.32493 0.27703
# Poissons Ratio (z) = 0.19555 0.19555
#
# Static dielectric constant tensor:
#      x y z
#    x 3.253340 0.000000 0.000000 
#    y 0.000000 3.253340 0.000000 
#    z 0.000000 0.000000 3.474810 
# 
# 
# High freq. dielectric constant tensor:
#      x y z
#    x 1.676730 0.000000 0.000000 
#    y 0.000000 1.676730 0.000000 
#    z 0.000000 0.000000 1.689200 
# 
# From -- ./inp_files/3773.got.cif
#   From: 2010.03.12/outbox.cif.g09.slc.cpg/sg187_2_cif.got.tgz:3773.got - 2010.04.01 11:58:23.
