data_PCOD8326682
_publ_section_title
;
Structure prediction by ZEFSAII (Michael W. Deem and Ramdas Pophale) SiO2 
 PCOD8326682
Probable space group: P 63 C M
;
_chemical_formula_sum "Si O2"
_cell_formula_units_Z 44
_cell_length_a 12.950095
_cell_length_b 12.950095
_cell_length_c 15.201698
_cell_angle_alpha 90.000000
_cell_angle_beta 90.000000
_cell_angle_gamma 120.000000
_cell_volume 2207.845305
_symmetry_space_group_name_H-M "P 63 C M"
_symmetry_group_IT_number 185
_symmetry_cell_setting 'hexagonal'
loop_
_space_group_symop_operation_xyz
x,y,z
x-y,x,1/2+z
-y,x-y,z
-x,-y,1/2+z
-x+y,-x,z
y,-x+y,1/2+z
-x+y,y,1/2+z
x,x-y,1/2+z
-y,-x,1/2+z
y,x,z
x-y,-y,z
-x,-x+y,z
loop_
_atom_site_type_symbol
_atom_site_label
_atom_site_fract_x
_atom_site_fract_y
_atom_site_fract_z
Si Si1 0.666668 0.333334 0.056596
Si Si2 0.584250 0.721808 0.071604
Si Si3 0.137555 0.415759 0.745816
Si Si4 0.333334 0.666668 0.260812
Si Si5 0.866192 0.736480 0.908710
O O1 0.660804 0.451016 0.028965
O O2 0.666668 0.333334 0.158704
O O3 0.621180 0.621180 0.092510
O O4 0.595528 0.797759 0.158715
O O5 0.666979 0.809332 0.997461
O O6 0.209779 0.548999 0.788445
O O7 0.142337 0.333044 0.819974
O O8 0.000000 0.378827 0.724894
O O9 0.854831 0.854831 0.908711
O O10 0.000000 0.766075 0.908691
#
# Coordination Sequence:
#
# PCOD8326682 Si02
#       5
#     4  12  12   4  12
#     4   9  21  37  56  82 112 143 181 229 272 322
#     4  10  21  37  57  82 111 145 184 225 273 326
#     4  10  21  37  57  82 111 145 184 225 273 326
#     4   9  21  37  56  82 112 143 181 229 272 322
#     4  10  21  36  56  82 111 144 182 224 270 322
#
# _framework density 19.928932
#
# number of rings (size 3 to 8) (size 9 to 14) (size 15 to 20)
#    0.000    2.182    0.000    1.909    0.000   14.182 
#    0.000    2.727    0.000    8.727    0.000    0.000 
#    0.000    0.000    0.000    0.000    0.000    0.000 
#
# Total GULP energy -545089.335776 kJ/mol
# GULP energy per Si atom -12388.393995 kJ/mol
# Density = 1.988357 g / cm^3
# Si number density = 19.928932 Si / 1000 Ang^3
#
#
#
# Elastic Constant Matrix: (Units=GPa)
#
#
# Indices 1 2 3 4 5 6 
#
# 1 147.1806 89.4540 25.8345 -0.0005 0.0007 -0.0001
# 2 89.4540 147.1798 25.8345 -0.0004 0.0005 0.0000
# 3 25.8345 25.8345 81.2943 -0.0005 0.0006 0.0001
# 4 -0.0005 -0.0004 -0.0005 -61.0617 0.0011 0.0001
# 5 0.0007 0.0005 0.0006 0.0011 -61.0618 0.0001
# 6 -0.0001 0.0000 0.0001 0.0001 0.0001 28.8631
#
#
#
# Elastic Compliance Matrix: (Units=1/GPa)
#
#
# Indices 1 2 3 4 5 6 
#
# 1 0.010932 -0.006391 -0.001443 0.000000 0.000000 0.000000
# 2 -0.006391 0.010932 -0.001443 0.000000 0.000000 0.000000
# 3 -0.001443 -0.001443 0.013218 0.000000 0.000000 0.000000
# 4 0.000000 0.000000 0.000000 -0.016377 0.000000 0.000000
# 5 0.000000 0.000000 0.000000 0.000000 -0.016377 0.000000
# 6 0.000000 0.000000 0.000000 0.000000 0.000000 0.034646
#
#
# Mechanical properties :
#
#
# Convention : Reuss Voigt Hill
#
# Bulk Modulus (GPa) = 60.50386 73.10010 66.80198
# Shear Modulus (GPa) = 81.91519 -3.01665 39.44927
#
# Velocity S-wave (km/s) = 6.41817 -1.23166 4.45398
# Velocity P-wave (km/s) = 9.23848 5.89384 7.74877
#
# Compressibility (1/GPa) = 0.01652787
#
# Stress axis : x y z
#
# Youngs Moduli (GPa) = 91.47412 91.47358 75.65332
#
# Poissons Ratio (x) = 0.58461 0.10917
# Poissons Ratio (y) = 0.58462 0.10918
# Poissons Ratio (z) = 0.13201 0.13201
#
# Static dielectric constant tensor:
#      x y z
#    x 0.926020 0.000110 -0.000010 
#    y 0.000110 0.926020 0.000000 
#    z -0.000010 0.000000 3.554290 
# 
# 
# High freq. dielectric constant tensor:
#      x y z
#    x 1.783510 0.000000 0.000000 
#    y 0.000000 1.783510 0.000000 
#    z 0.000000 0.000000 1.780250 
# 
# From -- ./inp_files/1606.got.cif
#   From: 2010.03.12/outbox.cif.g09.slc.cpg/sg185_cif.got.tgz:1606.got - 2010.04.01 11:55:19.
