data_PCOD8326426
_publ_section_title
;
Structure prediction by ZEFSAII (Michael W. Deem and Ramdas Pophale) SiO2 
 PCOD8326426
Probable space group: P 64 2 2
;
_chemical_formula_sum "Si O2"
_cell_formula_units_Z 45
_cell_length_a 10.900237
_cell_length_b 10.900237
_cell_length_c 20.387417
_cell_angle_alpha 90.000000
_cell_angle_beta 90.000000
_cell_angle_gamma 120.000000
_cell_volume 2097.803082
_symmetry_space_group_name_H-M "P 64 2 2"
_symmetry_group_IT_number 181
_symmetry_cell_setting 'hexagonal'
loop_
_space_group_symop_operation_xyz
x,y,z
x-y,x,2/3+z
-y,x-y,1/3+z
-x,-y,z
-x+y,-x,2/3+z
y,-x+y,1/3+z
x-y,-y,-z
-x,-x+y,2/3-z
y,x,1/3-z
-y,-x,1/3-z
-x+y,y,-z
x,x-y,2/3-z
loop_
_atom_site_type_symbol
_atom_site_label
_atom_site_fract_x
_atom_site_fract_y
_atom_site_fract_z
Si Si1 0.612730 0.387271 0.666667
Si Si2 0.000000 0.000000 0.333334
Si Si3 0.662890 0.563659 0.541570
Si Si4 0.107574 0.210893 0.779283
Si Si5 0.489799 0.857476 0.566667
O O1 0.646300 0.515792 0.617533
O O2 0.579086 0.252073 0.624539
O O3 0.904022 0.042231 0.376617
O O4 0.500000 0.500000 0.513683
O O5 0.754054 0.508108 0.500000
O O6 0.754781 0.733072 0.540807
O O7 0.108289 0.355266 0.783445
O O8 0.000000 0.103213 0.833334
O O9 0.399422 0.798844 0.500000
O O10 0.500000 0.000000 0.592351
#
# Coordination Sequence:
#
# PCOD8326426 Si02
#       5
#     6   3  12  12  12
#     4  12  25  45  74 103 142 189 248 304 361 449
#     4  12  26  42  70 108 128 188 242 300 360 436
#     4  12  27  47  77 109 147 197 247 307 374 448
#     4  12  25  47  74 100 148 186 239 303 368 436
#     4  11  24  46  69 101 145 188 235 303 369 434
#
# _framework density 21.451013
#
# number of rings (size 3 to 8) (size 9 to 14) (size 15 to 20)
#    0.000    0.267    5.333    4.800    0.000    2.133 
#    0.000    0.000    0.000    0.000    0.000    0.000 
#    0.000    0.000    0.000    0.000    0.000    0.000 
#
# Total GULP energy -557838.592163 kJ/mol
# GULP energy per Si atom -12396.413159 kJ/mol
# Density = 2.140219 g / cm^3
# Si number density = 21.451013 Si / 1000 Ang^3
#
#
#
# Elastic Constant Matrix: (Units=GPa)
#
#
# Indices 1 2 3 4 5 6 
#
# 1 151.5474 48.0011 67.7183 0.0000 0.0000 0.0000
# 2 48.0011 151.5474 67.7183 0.0000 0.0000 0.0000
# 3 67.7183 67.7183 145.4854 0.0000 0.0000 0.0000
# 4 0.0000 0.0000 0.0000 50.5407 0.0000 0.0000
# 5 0.0000 0.0000 0.0000 0.0000 50.5407 0.0000
# 6 0.0000 0.0000 0.0000 0.0000 0.0000 51.7732
#
#
#
# Elastic Compliance Matrix: (Units=1/GPa)
#
#
# Indices 1 2 3 4 5 6 
#
# 1 0.008492 -0.001166 -0.003410 0.000000 0.000000 0.000000
# 2 -0.001166 0.008492 -0.003410 0.000000 0.000000 0.000000
# 3 -0.003410 -0.003410 0.010048 0.000000 0.000000 0.000000
# 4 0.000000 0.000000 0.000000 0.019786 0.000000 0.000000
# 5 0.000000 0.000000 0.000000 0.000000 0.019786 0.000000
# 6 0.000000 0.000000 0.000000 0.000000 0.000000 0.019315
#
#
# Mechanical properties :
#
#
# Convention : Reuss Voigt Hill
#
# Bulk Modulus (GPa) = 90.41752 90.60617 90.51185
# Shear Modulus (GPa) = 47.35935 48.24708 47.80321
#
# Velocity S-wave (km/s) = 4.70381 4.74769 4.72580
# Velocity P-wave (km/s) = 8.47014 8.50790 8.48904
#
# Compressibility (1/GPa) = 0.01105980
#
# Stress axis : x y z
#
# Youngs Moduli (GPa) = 117.76407 117.76407 99.52407
#
# Poissons Ratio (x) = 0.13731 0.33936
# Poissons Ratio (y) = 0.13731 0.33936
# Poissons Ratio (z) = 0.40155 0.40155
#
# Static dielectric constant tensor:
#      x y z
#    x 3.786720 0.000000 0.000000 
#    y 0.000000 3.786720 0.000000 
#    z 0.000000 0.000000 3.664000 
# 
# 
# High freq. dielectric constant tensor:
#      x y z
#    x 1.861790 0.000000 0.000000 
#    y 0.000000 1.861790 0.000000 
#    z 0.000000 0.000000 1.838840 
# 
# From -- ./inp_files/7408.got.cif
#   From: 2010.03.12/outbox.cif.g09.slc.cpg/sg181_4_cif.got.tgz:7408.got - 2010.04.01 11:42:41.
