data_PCOD8326882
_publ_section_title
;
Structure prediction by ZEFSAII (Michael W. Deem and Ramdas Pophale) SiO2 
 PCOD8326882
Probable space group: P -6 M 2
;
_chemical_formula_sum "Si O2"
_cell_formula_units_Z 78
_cell_length_a 23.866846
_cell_length_b 23.866846
_cell_length_c 8.007374
_cell_angle_alpha 90.000000
_cell_angle_beta 90.000000
_cell_angle_gamma 120.000000
_cell_volume 3950.124709
_symmetry_space_group_name_H-M "P -6 M 2"
_symmetry_group_IT_number 187
_symmetry_cell_setting 'hexagonal'
loop_
_space_group_symop_operation_xyz
x,y,z
-x+y,-x,-z
-y,x-y,z
x,y,-z
-x+y,-x,z
-y,x-y,-z
-y,-x,-z
-x+y,y,-z
x,x-y,-z
-x+y,y,z
x,x-y,z
-y,-x,z
loop_
_atom_site_type_symbol
_atom_site_label
_atom_site_fract_x
_atom_site_fract_y
_atom_site_fract_z
Si Si1 0.294428 0.830583 0.803847
Si Si2 0.152809 0.576405 0.302894
Si Si3 0.495713 0.504287 0.300416
Si Si4 0.038839 0.344150 0.806427
Si Si5 0.638469 0.567627 0.305673
Si Si6 0.868520 0.000543 0.500000
Si Si7 0.783428 0.825766 0.188646
Si Si8 0.793268 0.332515 0.699048
O O1 0.227134 0.772867 0.728701
O O2 0.350144 0.813177 0.762151
O O3 0.309931 0.900412 0.727558
O O4 0.286418 0.833042 0.000000
O O5 0.154208 0.577104 0.500000
O O6 0.080585 0.540293 0.228524
O O7 0.495268 0.504733 0.500000
O O8 0.567679 0.539987 0.226192
O O9 0.050855 0.285580 0.768117
O O10 0.968493 0.324200 0.729081
O O11 0.034363 0.354863 0.000000
O O12 0.631556 0.553794 0.500000
O O13 0.671165 0.527120 0.233507
O O14 0.874761 0.937381 0.500000
O O15 0.833206 0.003604 0.669742
O O16 0.939172 0.060829 0.500000
O O17 0.774196 0.887098 0.200243
O O18 0.806625 0.820351 0.000000
O O19 0.790434 0.330633 0.500000
O O20 0.796836 0.398418 0.763470
O O21 0.729299 0.270702 0.772833
#
# Coordination Sequence:
#
# PCOD8326882 Si02
#       8
#    12   6   6  12  12   6  12  12
#     4  10  21  37  56  77 103 137 179 226 275 329
#     4  11  21  35  53  77 107 137 177 221 273 327
#     4   9  16  29  47  71 101 137 167 211 275 331
#     4  10  20  34  55  81 107 139 180 227 277 331
#     4  10  18  30  50  74 105 140 174 219 276 331
#     4  10  21  38  62  92 122 155 196 238 280 330
#     4   9  19  37  59  85 120 157 193 236 286 339
#     4   9  16  27  46  72 101 134 174 220 268 318
#
# _framework density 19.746212
#
# number of rings (size 3 to 8) (size 9 to 14) (size 15 to 20)
#    0.000    2.308    2.308    0.923    1.077    3.077 
#    0.462    1.154    0.000    2.308    0.000    0.000 
#    0.000    1.231    0.000    0.000    0.000    0.000 
#
# Total GULP energy -966745.803833 kJ/mol
# GULP energy per Si atom -12394.176972 kJ/mol
# Density = 1.970127 g / cm^3
# Si number density = 19.746212 Si / 1000 Ang^3
#
#
#
# Elastic Constant Matrix: (Units=GPa)
#
#
# Indices 1 2 3 4 5 6 
#
# 1 106.9076 39.0916 24.5505 0.0000 -0.0002 0.0000
# 2 39.0916 106.9076 24.5505 0.0000 0.0002 0.0000
# 3 24.5505 24.5505 45.9693 0.0000 0.0000 0.0000
# 4 0.0000 0.0000 0.0000 16.6853 0.0000 0.0002
# 5 -0.0002 0.0002 0.0000 0.0000 16.6853 0.0000
# 6 0.0000 0.0000 0.0000 0.0002 0.0000 33.9080
#
#
#
# Elastic Compliance Matrix: (Units=1/GPa)
#
#
# Indices 1 2 3 4 5 6 
#
# 1 0.011547 -0.003198 -0.004459 0.000000 0.000000 0.000000
# 2 -0.003198 0.011547 -0.004459 0.000000 0.000000 0.000000
# 3 -0.004459 -0.004459 0.026516 0.000000 0.000000 0.000000
# 4 0.000000 0.000000 0.000000 0.059933 0.000000 0.000000
# 5 0.000000 0.000000 0.000000 0.000000 0.059933 0.000000
# 6 0.000000 0.000000 0.000000 0.000000 0.000000 0.029492
#
#
# Mechanical properties :
#
#
# Convention : Reuss Voigt Hill
#
# Bulk Modulus (GPa) = 39.40315 48.46331 43.93323
# Shear Modulus (GPa) = 21.58333 24.89518 23.23926
#
# Velocity S-wave (km/s) = 3.30970 3.55457 3.43432
# Velocity P-wave (km/s) = 5.88248 6.43762 6.16630
#
# Compressibility (1/GPa) = 0.02537868
#
# Stress axis : x y z
#
# Youngs Moduli (GPa) = 86.59998 86.59998 37.71271
#
# Poissons Ratio (x) = 0.27698 0.16816
# Poissons Ratio (y) = 0.27698 0.16816
# Poissons Ratio (z) = 0.38614 0.38614
#
# Static dielectric constant tensor:
#      x y z
#    x 3.702080 0.000000 0.000000 
#    y 0.000000 3.702080 0.000000 
#    z 0.000000 0.000000 3.381220 
# 
# 
# High freq. dielectric constant tensor:
#      x y z
#    x 1.764270 0.000000 0.000000 
#    y 0.000000 1.764270 0.000000 
#    z 0.000000 0.000000 1.744460 
# 
# From -- ./inp_files/1205.got.cif
#   From: 2010.03.12/outbox.cif.g09.slc.cpg/sg187_1_cif.got.tgz:1205.got - 2010.04.01 11:58:23.
