data_PCOD8326912
_publ_section_title
;
Structure prediction by ZEFSAII (Michael W. Deem and Ramdas Pophale) SiO2 
 PCOD8326912
Probable space group: P -6 M 2
;
_chemical_formula_sum "Si O2"
_cell_formula_units_Z 84
_cell_length_a 19.082238
_cell_length_b 19.082238
_cell_length_c 14.766834
_cell_angle_alpha 90.000000
_cell_angle_beta 90.000000
_cell_angle_gamma 120.000000
_cell_volume 4656.682638
_symmetry_space_group_name_H-M "P -6 M 2"
_symmetry_group_IT_number 187
_symmetry_cell_setting 'hexagonal'
loop_
_space_group_symop_operation_xyz
x,y,z
-x+y,-x,-z
-y,x-y,z
x,y,-z
-x+y,-x,z
-y,x-y,-z
-y,-x,-z
-x+y,y,-z
x,x-y,-z
-x+y,y,z
x,x-y,z
-y,-x,z
loop_
_atom_site_type_symbol
_atom_site_label
_atom_site_fract_x
_atom_site_fract_y
_atom_site_fract_z
Si Si1 0.789646 0.579292 0.605381
Si Si2 0.746583 0.792065 0.325836
Si Si3 0.363031 0.395635 0.597580
Si Si4 0.429951 0.408371 0.100617
Si Si5 0.262060 0.892601 0.167598
Si Si6 0.885618 0.771235 0.604978
Si Si7 0.332604 0.511400 0.311708
Si Si8 0.895385 0.369479 0.280077
O O1 0.774781 0.549562 0.500000
O O2 0.837419 0.674837 0.609333
O O3 0.707711 0.545591 0.661234
O O4 0.746806 0.873403 0.353344
O O5 0.688158 0.720718 0.393173
O O6 0.714613 0.766465 0.222392
O O7 0.836268 0.805883 0.340156
O O8 0.399481 0.392920 0.500000
O O9 0.349662 0.472492 0.600132
O O10 0.426599 0.410664 0.676247
O O11 0.496120 0.503881 0.118721
O O12 0.336843 0.389458 0.101582
O O13 0.444419 0.353755 0.174834
O O14 0.443718 0.383937 0.000000
O O15 0.182273 0.817728 0.118575
O O16 0.294798 0.853131 0.238129
O O17 0.900174 0.800348 0.500000
O O18 0.270445 0.540890 0.339560
O O19 0.412918 0.587083 0.272485
O O20 0.859573 0.429787 0.284168
#
# Coordination Sequence:
#
# PCOD8326912 Si02
#       8
#     6  12  12  12  12   6  12  12
#     4  11  22  38  59  85 113 147 184 218 269 325
#     4  10  20  34  52  73 102 140 180 225 274 324
#     4  11  20  32  52  74  97 133 181 224 266 319
#     4  10  19  33  56  83 110 143 183 227 278 328
#     4   9  17  31  51  74 101 138 182 229 278 324
#     4  11  20  32  50  73 103 139 181 224 268 325
#     4  10  19  30  44  65  98 137 178 221 270 322
#     4  11  22  38  58  81 112 143 177 225 271 325
#
# _framework density 18.038592000000001
#
# number of rings (size 3 to 8) (size 9 to 14) (size 15 to 20)
#    0.000    1.714    4.286    3.143    0.000    4.286 
#    0.857    0.357    0.000    1.143    0.000    0.000 
#    0.000    0.000    0.000    0.000    0.143    0.000 
#
# Total GULP energy -1040820.405345 kJ/mol
# GULP energy per Si atom -12390.719111 kJ/mol
# Density = 1.799753 g / cm^3
# Si number density = 18.038592 Si / 1000 Ang^3
#
#
#
# Elastic Constant Matrix: (Units=GPa)
#
#
# Indices 1 2 3 4 5 6 
#
# 1 76.3393 23.3514 30.4038 0.0000 -0.0002 0.0000
# 2 23.3514 76.3393 30.4038 0.0000 0.0002 0.0000
# 3 30.4038 30.4038 110.0407 0.0000 0.0000 0.0000
# 4 0.0000 0.0000 0.0000 16.6230 0.0000 0.0002
# 5 -0.0002 0.0002 0.0000 0.0000 16.6230 0.0000
# 6 0.0000 0.0000 0.0000 0.0002 0.0000 26.4939
#
#
#
# Elastic Compliance Matrix: (Units=1/GPa)
#
#
# Indices 1 2 3 4 5 6 
#
# 1 0.015468 -0.003404 -0.003333 0.000000 0.000000 0.000000
# 2 -0.003404 0.015468 -0.003333 0.000000 0.000000 0.000000
# 3 -0.003333 -0.003333 0.010929 0.000000 0.000000 0.000000
# 4 0.000000 0.000000 0.000000 0.060158 0.000000 0.000000
# 5 0.000000 0.000000 0.000000 0.000000 0.060158 0.000000
# 6 0.000000 0.000000 0.000000 0.000000 0.000000 0.037744
#
#
# Mechanical properties :
#
#
# Convention : Reuss Voigt Hill
#
# Bulk Modulus (GPa) = 46.03043 47.89301 46.96172
# Shear Modulus (GPa) = 21.99656 23.85201 22.92428
#
# Velocity S-wave (km/s) = 3.49580 3.64026 3.56876
# Velocity P-wave (km/s) = 6.47050 6.65406 6.56292
#
# Compressibility (1/GPa) = 0.02172476
#
# Stress axis : x y z
#
# Youngs Moduli (GPa) = 64.64865 64.64865 91.49552
#
# Poissons Ratio (x) = 0.22006 0.30498
# Poissons Ratio (y) = 0.22006 0.30498
# Poissons Ratio (z) = 0.21549 0.21549
#
# Static dielectric constant tensor:
#      x y z
#    x 3.500190 0.000000 0.000000 
#    y 0.000000 3.500190 0.000000 
#    z 0.000000 0.000000 3.201170 
# 
# 
# High freq. dielectric constant tensor:
#      x y z
#    x 1.689250 0.000000 0.000000 
#    y 0.000000 1.689250 0.000000 
#    z 0.000000 0.000000 1.677370 
# 
# From -- ./inp_files/2656.got.cif
#   From: 2010.03.12/outbox.cif.g09.slc.cpg/sg187_2_cif.got.tgz:2656.got - 2010.04.01 11:58:23.
