data_PCOD8326674
_publ_section_title
;
Structure prediction by ZEFSAII (Michael W. Deem and Ramdas Pophale) SiO2 
 PCOD8326674
Probable space group: P 63 C M
;
_chemical_formula_sum "Si O2"
_cell_formula_units_Z 84
_cell_length_a 17.727908
_cell_length_b 17.727908
_cell_length_c 14.743973
_cell_angle_alpha 90.000000
_cell_angle_beta 90.000000
_cell_angle_gamma 120.000000
_cell_volume 4012.916629
_symmetry_space_group_name_H-M "P 63 C M"
_symmetry_group_IT_number 185
_symmetry_cell_setting 'hexagonal'
loop_
_space_group_symop_operation_xyz
x,y,z
x-y,x,1/2+z
-y,x-y,z
-x,-y,1/2+z
-x+y,-x,z
y,-x+y,1/2+z
-x+y,y,1/2+z
x,x-y,1/2+z
-y,-x,1/2+z
y,x,z
x-y,-y,z
-x,-x+y,z
loop_
_atom_site_type_symbol
_atom_site_label
_atom_site_fract_x
_atom_site_fract_y
_atom_site_fract_z
Si Si1 0.900731 0.523369 0.815070
Si Si2 0.745976 0.646831 0.178211
Si Si3 0.745976 0.646831 0.853184
Si Si4 0.100079 0.899921 0.265697
Si Si5 0.189879 0.715926 0.515697
Si Si6 0.377362 0.476631 0.216324
Si Si7 0.527864 0.152301 0.515697
O O1 0.870305 0.587841 0.770568
O O2 0.853483 0.426742 0.765697
O O3 0.000000 0.564148 0.790137
O O4 0.891702 0.523354 0.923474
O O5 0.674248 0.674248 0.152048
O O6 0.839528 0.735140 0.186344
O O7 0.752274 0.587709 0.101681
O O8 0.674248 0.674248 0.879347
O O9 0.839528 0.735140 0.845050
O O10 0.752274 0.587709 0.929714
O O11 0.717536 0.587841 0.760827
O O12 0.000000 0.860745 0.232245
O O13 0.139255 0.000000 0.299150
O O14 0.143258 0.612733 0.515697
O O15 0.293133 0.750373 0.515697
O O16 0.435852 0.435852 0.241257
O O17 0.368349 0.476646 0.107921
#
# Coordination Sequence:
#
# PCOD8326674 Si02
#       7
#    12  12  12  12  12  12  12
#     4  10  20  37  62  89 115 151 203 261 321 380
#     4  10  21  39  64  92 124 167 217 270 328 392
#     4  10  21  39  64  92 124 167 217 270 328 392
#     4  10  21  40  66  96 130 170 220 276 339 402
#     4  12  24  39  57  85 126 169 220 263 322 393
#     4  10  20  37  62  89 115 151 203 261 321 380
#     4  12  24  37  55  83 121 163 204 253 314 383
#
# _framework density 20.932407999999999
#
# number of rings (size 3 to 8) (size 9 to 14) (size 15 to 20)
#    0.000    1.429    2.857    3.000    0.000    1.143 
#    0.000    2.143    0.000    0.000    0.000    2.000 
#    0.000    0.000    0.000    0.000    0.000    0.000 
#
# Total GULP energy -1040788.148346 kJ/mol
# GULP energy per Si atom -12390.335099 kJ/mol
# Density = 2.088476 g / cm^3
# Si number density = 20.932408 Si / 1000 Ang^3
#
#
#
# Elastic Constant Matrix: (Units=GPa)
#
#
# Indices 1 2 3 4 5 6 
#
# 1 112.1698 45.2265 38.1819 0.0000 0.0000 0.0000
# 2 45.2265 112.1698 38.1819 0.0000 0.0000 0.0000
# 3 38.1819 38.1819 144.5288 0.0000 0.0000 0.0000
# 4 0.0000 0.0000 0.0000 10.2881 0.0000 0.0000
# 5 0.0000 0.0000 0.0000 0.0000 10.2881 0.0000
# 6 0.0000 0.0000 0.0000 0.0000 0.0000 33.4717
#
#
#
# Elastic Compliance Matrix: (Units=1/GPa)
#
#
# Indices 1 2 3 4 5 6 
#
# 1 0.011113 -0.003825 -0.001925 0.000000 0.000000 0.000000
# 2 -0.003825 0.011113 -0.001925 0.000000 0.000000 0.000000
# 3 -0.001925 -0.001925 0.007936 0.000000 0.000000 0.000000
# 4 0.000000 0.000000 0.000000 0.097200 0.000000 0.000000
# 5 0.000000 0.000000 0.000000 0.000000 0.097200 0.000000
# 6 0.000000 0.000000 0.000000 0.000000 0.000000 0.029876
#
#
# Mechanical properties :
#
#
# Convention : Reuss Voigt Hill
#
# Bulk Modulus (GPa) = 67.52062 68.00544 67.76303
# Shear Modulus (GPa) = 18.19998 27.29477 22.74738
#
# Velocity S-wave (km/s) = 2.95187 3.61494 3.30010
# Velocity P-wave (km/s) = 6.62907 7.06982 6.85299
#
# Compressibility (1/GPa) = 0.01481029
#
# Stress axis : x y z
#
# Youngs Moduli (GPa) = 89.98688 89.98688 126.00409
#
# Poissons Ratio (x) = 0.34423 0.24258
# Poissons Ratio (y) = 0.34423 0.24258
# Poissons Ratio (z) = 0.17324 0.17324
#
# Static dielectric constant tensor:
#      x y z
#    x 3.902300 0.000000 0.000000 
#    y 0.000000 3.902300 0.000000 
#    z 0.000000 0.000000 3.596380 
# 
# 
# High freq. dielectric constant tensor:
#      x y z
#    x 1.822580 0.000000 0.000000 
#    y 0.000000 1.822580 0.000000 
#    z 0.000000 0.000000 1.805500 
# 
# From -- ./inp_files/1479.got.cif
#   From: 2010.03.12/outbox.cif.g09.slc.cpg/sg185_cif.got.tgz:1479.got - 2010.04.01 11:55:19.
