data_PCOD8326781
_publ_section_title
;
Structure prediction by ZEFSAII (Michael W. Deem and Ramdas Pophale) SiO2 
 PCOD8326781
Probable space group: P 63 M C
;
_chemical_formula_sum "Si O2"
_cell_formula_units_Z 60
_cell_length_a 13.146051
_cell_length_b 13.146051
_cell_length_c 24.847897
_cell_angle_alpha 90.000000
_cell_angle_beta 90.000000
_cell_angle_gamma 120.000000
_cell_volume 3718.869130
_symmetry_space_group_name_H-M "P 63 M C"
_symmetry_group_IT_number 186
_symmetry_cell_setting 'hexagonal'
loop_
_space_group_symop_operation_xyz
x,y,z
x-y,x,1/2+z
-y,x-y,z
-x,-y,1/2+z
-x+y,-x,z
y,-x+y,1/2+z
-x+y,y,z
x,x-y,z
-y,-x,z
y,x,1/2+z
x-y,-y,1/2+z
-x,-x+y,1/2+z
loop_
_atom_site_type_symbol
_atom_site_label
_atom_site_fract_x
_atom_site_fract_y
_atom_site_fract_z
Si Si1 0.099260 0.667032 0.221510
Si Si2 0.234464 0.000257 0.047345
Si Si3 0.567553 0.666795 0.344258
Si Si4 0.234569 0.233937 0.424265
Si Si5 0.666568 0.093925 0.134338
O O1 0.137421 0.568711 0.215026
O O2 0.209067 0.790934 0.203116
O O3 0.063455 0.672743 0.282875
O O4 0.985836 0.636328 0.186086
O O5 0.124500 0.875501 0.064444
O O6 0.196429 0.098215 0.055776
O O7 0.347565 0.029205 0.082701
O O8 0.271378 0.998345 0.985820
O O9 0.537754 0.768877 0.355818
O O10 0.453859 0.546142 0.357929
O O11 0.666151 0.674726 0.384536
O O12 0.104033 0.208066 0.413684
O O13 0.236686 0.118343 0.408663
O O14 0.554656 0.109311 0.124211
O O15 0.779197 0.220804 0.144294
#
# Coordination Sequence:
#
# PCOD8326781 Si02
#       5
#    12  12  12  12  12
#     4   9  17  30  48  68  89 115 150 191 229 263
#     4   9  17  30  48  68  88 112 144 182 222 262
#     4   9  17  29  46  68  92 118 149 186 226 264
#     4   9  17  29  46  67  90 116 145 178 217 262
#     4  10  20  32  46  65  91 121 150 181 220 269
#
# _framework density 16.133935999999999
#
# number of rings (size 3 to 8) (size 9 to 14) (size 15 to 20)
#    0.000    2.800    0.000    1.600    0.000    4.800 
#    0.000    0.000    0.000    3.600    0.000    0.000 
#    0.000    0.000    0.000    0.000    0.000    0.000 
#
# Total GULP energy -744024.746291 kJ/mol
# GULP energy per Si atom -12400.412438 kJ/mol
# Density = 1.609721 g / cm^3
# Si number density = 16.133936 Si / 1000 Ang^3
#
#
#
# Elastic Constant Matrix: (Units=GPa)
#
#
# Indices 1 2 3 4 5 6 
#
# 1 110.8389 64.7526 67.7967 0.0000 0.0000 0.0000
# 2 64.7526 110.8389 67.7967 0.0000 0.0000 0.0000
# 3 67.7967 67.7967 96.9361 0.0000 0.0000 0.0000
# 4 0.0000 0.0000 0.0000 27.9992 0.0000 0.0000
# 5 0.0000 0.0000 0.0000 0.0000 27.9992 0.0000
# 6 0.0000 0.0000 0.0000 0.0000 0.0000 23.0432
#
#
#
# Elastic Compliance Matrix: (Units=1/GPa)
#
#
# Indices 1 2 3 4 5 6 
#
# 1 0.017041 -0.004658 -0.008660 0.000000 0.000000 0.000000
# 2 -0.004658 0.017041 -0.008660 0.000000 0.000000 0.000000
# 3 -0.008660 -0.008660 0.022430 0.000000 0.000000 0.000000
# 4 0.000000 0.000000 0.000000 0.035715 0.000000 0.000000
# 5 0.000000 0.000000 0.000000 0.000000 0.035715 0.000000
# 6 0.000000 0.000000 0.000000 0.000000 0.000000 0.043397
#
#
# Mechanical properties :
#
#
# Convention : Reuss Voigt Hill
#
# Bulk Modulus (GPa) = 79.65627 79.92289 79.78958
# Shear Modulus (GPa) = 22.78106 23.69286 23.23696
#
# Velocity S-wave (km/s) = 3.76173 3.83627 3.79918
# Velocity P-wave (km/s) = 8.26720 8.32270 8.29499
#
# Compressibility (1/GPa) = 0.01255394
#
# Stress axis : x y z
#
# Youngs Moduli (GPa) = 58.68356 58.68356 44.58274
#
# Poissons Ratio (x) = 0.27334 0.38610
# Poissons Ratio (y) = 0.27334 0.38610
# Poissons Ratio (z) = 0.50822 0.50822
#
# Static dielectric constant tensor:
#      x y z
#    x 3.000430 0.000000 0.000000 
#    y 0.000000 3.000430 0.000000 
#    z 0.000000 0.000000 3.161190 
# 
# 
# High freq. dielectric constant tensor:
#      x y z
#    x 1.615770 0.000000 0.000000 
#    y 0.000000 1.615770 0.000000 
#    z 0.000000 0.000000 1.625020 
# 
# From -- ./inp_files/3309.got.cif
#   From: 2010.03.12/outbox.cif.g09.slc.cpg/sg186_2_cif.got.tgz:3309.got - 2010.04.01 11:56:34.
