data_PCOD8326701
_publ_section_title
;
Structure prediction by ZEFSAII (Michael W. Deem and Ramdas Pophale) SiO2 
 PCOD8326701
Probable space group: P 63 C M
;
_chemical_formula_sum "Si O2"
_cell_formula_units_Z 96
_cell_length_a 18.576768
_cell_length_b 18.576768
_cell_length_c 20.007540
_cell_angle_alpha 90.000000
_cell_angle_beta 90.000000
_cell_angle_gamma 120.000000
_cell_volume 5979.496833
_symmetry_space_group_name_H-M "P 63 C M"
_symmetry_group_IT_number 185
_symmetry_cell_setting 'hexagonal'
loop_
_space_group_symop_operation_xyz
x,y,z
x-y,x,1/2+z
-y,x-y,z
-x,-y,1/2+z
-x+y,-x,z
y,-x+y,1/2+z
-x+y,y,1/2+z
x,x-y,1/2+z
-y,-x,1/2+z
y,x,z
x-y,-y,z
-x,-x+y,z
loop_
_atom_site_type_symbol
_atom_site_label
_atom_site_fract_x
_atom_site_fract_y
_atom_site_fract_z
Si Si1 0.092243 0.355392 0.254950
Si Si2 0.671470 0.907747 0.908393
Si Si3 0.531441 0.628702 0.643004
Si Si4 0.581595 0.482089 0.888795
Si Si5 0.097261 0.628702 0.994951
Si Si6 0.092243 0.355392 0.883005
Si Si7 0.900494 0.482089 0.749160
Si Si8 0.763723 0.671470 0.729562
O O1 0.090477 0.361017 0.334916
O O2 0.130518 0.451838 0.233642
O O3 0.142033 0.310857 0.226845
O O4 0.000000 0.298311 0.226049
O O5 0.600291 0.886125 0.962276
O O6 0.689143 0.831176 0.911110
O O7 0.752014 0.000000 0.923330
O O8 0.566314 0.566314 0.637423
O O9 0.508907 0.646784 0.568978
O O10 0.449568 0.585050 0.689300
O O11 0.600291 0.714166 0.675679
O O12 0.531726 0.531726 0.885775
O O13 0.550432 0.414950 0.948655
O O14 0.678680 0.548162 0.904313
O O15 0.567269 0.432731 0.818978
O O16 0.000000 0.566314 0.000532
O O17 0.090477 0.361017 0.803039
O O18 0.000000 0.298311 0.911906
O O19 0.000000 0.531726 0.752180
O O20 0.752014 0.752014 0.714625
#
# Coordination Sequence:
#
# PCOD8326701 Si02
#       8
#    12  12  12  12  12  12  12  12
#     4   9  16  26  44  68  91 116 153 199 239 270
#     4   9  16  27  43  65  91 120 156 196 233 271
#     4   9  16  26  42  64  88 114 144 179 222 272
#     4   9  14  24  42  64  87 108 137 181 227 271
#     4   9  16  26  42  64  88 114 144 179 222 272
#     4   9  16  26  44  68  91 116 153 199 239 270
#     4   9  14  24  42  64  87 108 137 181 227 271
#     4   9  16  27  43  65  91 120 156 196 233 271
#
# _framework density 16.054863000000001
#
# number of rings (size 3 to 8) (size 9 to 14) (size 15 to 20)
#    0.000    3.000    2.500    0.000    0.000    0.000 
#    0.000    1.250    0.000    3.750    6.500    3.500 
#    0.000    0.000    0.000    0.000    0.000    0.500 
#
# Total GULP energy -1189254.031952 kJ/mol
# GULP energy per Si atom -12388.062833 kJ/mol
# Density = 1.601832 g / cm^3
# Si number density = 16.054863 Si / 1000 Ang^3
#
#
#
# Elastic Constant Matrix: (Units=GPa)
#
#
# Indices 1 2 3 4 5 6 
#
# 1 81.5144 46.8975 33.7391 0.0000 0.0000 0.0000
# 2 46.8975 81.5144 33.7391 0.0000 0.0000 0.0000
# 3 33.7391 33.7391 87.9909 0.0000 0.0000 0.0000
# 4 0.0000 0.0000 0.0000 12.5512 0.0000 0.0000
# 5 0.0000 0.0000 0.0000 0.0000 12.5512 0.0000
# 6 0.0000 0.0000 0.0000 0.0000 0.0000 17.3084
#
#
#
# Elastic Compliance Matrix: (Units=1/GPa)
#
#
# Indices 1 2 3 4 5 6 
#
# 1 0.019320 -0.009568 -0.003739 0.000000 0.000000 0.000000
# 2 -0.009568 0.019320 -0.003739 0.000000 0.000000 0.000000
# 3 -0.003739 -0.003739 0.014233 0.000000 0.000000 0.000000
# 4 0.000000 0.000000 0.000000 0.079673 0.000000 0.000000
# 5 0.000000 0.000000 0.000000 0.000000 0.079673 0.000000
# 6 0.000000 0.000000 0.000000 0.000000 0.000000 0.057775
#
#
# Mechanical properties :
#
#
# Convention : Reuss Voigt Hill
#
# Bulk Modulus (GPa) = 53.24936 53.30791 53.27864
# Shear Modulus (GPa) = 16.11097 17.59178 16.85137
#
# Velocity S-wave (km/s) = 3.17123 3.31377 3.24329
# Velocity P-wave (km/s) = 6.82994 6.92222 6.87623
#
# Compressibility (1/GPa) = 0.01877957
#
# Stress axis : x y z
#
# Youngs Moduli (GPa) = 51.75967 51.75967 70.26159
#
# Poissons Ratio (x) = 0.49522 0.26274
# Poissons Ratio (y) = 0.49522 0.26274
# Poissons Ratio (z) = 0.19355 0.19355
#
# Static dielectric constant tensor:
#      x y z
#    x 2.902460 0.000000 0.000000 
#    y 0.000000 2.902460 0.000000 
#    z 0.000000 0.000000 3.170430 
# 
# 
# High freq. dielectric constant tensor:
#      x y z
#    x 1.588300 0.000000 0.000000 
#    y 0.000000 1.588300 0.000000 
#    z 0.000000 0.000000 1.603850 
# 
# From -- ./inp_files/1981.got.cif
#   From: 2010.03.12/outbox.cif.g09.slc.cpg/sg185_cif.got.tgz:1981.got - 2010.04.01 11:55:19.
