data_PCOD8326293
_publ_section_title
;
Structure prediction by ZEFSAII (Michael W. Deem and Ramdas Pophale) SiO2 
 PCOD8326293
Probable space group: P 64 2 2
;
_chemical_formula_sum "Si O2"
_cell_formula_units_Z 66
_cell_length_a 14.448387
_cell_length_b 14.448387
_cell_length_c 21.864116
_cell_angle_alpha 90.000000
_cell_angle_beta 90.000000
_cell_angle_gamma 120.000000
_cell_volume 3952.767644
_symmetry_space_group_name_H-M "P 64 2 2"
_symmetry_group_IT_number 181
_symmetry_cell_setting 'hexagonal'
loop_
_space_group_symop_operation_xyz
x,y,z
x-y,x,2/3+z
-y,x-y,1/3+z
-x,-y,z
-x+y,-x,2/3+z
y,-x+y,1/3+z
x-y,-y,-z
-x,-x+y,2/3-z
y,x,1/3-z
-y,-x,1/3-z
-x+y,y,-z
x,x-y,2/3-z
loop_
_atom_site_type_symbol
_atom_site_label
_atom_site_fract_x
_atom_site_fract_y
_atom_site_fract_z
Si Si1 0.543213 0.646292 0.199295
Si Si2 0.088735 0.371442 0.485473
Si Si3 0.846055 0.384755 0.076254
Si Si4 0.807123 0.432109 0.400944
Si Si5 0.000000 0.500000 0.974569
Si Si6 0.142899 0.693440 0.502577
O O1 0.637241 0.637241 0.166667
O O2 0.429647 0.570354 0.166667
O O3 0.539207 0.607903 0.268817
O O4 0.575942 0.768051 0.192760
O O5 0.153621 0.307241 0.500000
O O6 0.126370 0.446222 0.543640
O O7 0.121798 0.445450 0.424429
O O8 0.960626 0.296822 0.484282
O O9 0.718080 0.317564 0.064536
O O10 0.883445 0.500508 0.105532
O O11 0.912235 0.401336 0.014429
O O12 0.846802 0.423401 0.333334
O O13 0.818422 0.349655 0.445645
#
# Coordination Sequence:
#
# PCOD8326293 Si02
#       6
#    12  12  12  12   6  12
#     4   9  21  34  48  72 105 136 168 209 269 312
#     4   9  19  36  49  68 101 135 169 215 261 300
#     4  10  18  31  48  75 101 136 167 209 252 310
#     4  10  21  29  52  76 105 136 176 205 254 314
#     4  10  19  32  50  70 109 136 176 206 252 332
#     4  11  19  34  51  71 105 137 176 215 263 305
#
# _framework density 16.697161999999999
#
# number of rings (size 3 to 8) (size 9 to 14) (size 15 to 20)
#    0.000    2.364    1.818    4.364    7.636    1.455 
#    0.000    0.000    0.000    0.545    0.000    0.000 
#    0.000    0.000    8.364    0.000    0.000    0.000 
#
# Total GULP energy -817762.351166 kJ/mol
# GULP energy per Si atom -12390.338654 kJ/mol
# Density = 1.665916 g / cm^3
# Si number density = 16.697162 Si / 1000 Ang^3
#
#
#
# Elastic Constant Matrix: (Units=GPa)
#
#
# Indices 1 2 3 4 5 6 
#
# 1 87.9257 42.7854 29.6877 0.0000 0.0000 0.0000
# 2 42.7854 87.9257 29.6877 0.0000 0.0000 0.0000
# 3 29.6877 29.6877 107.5352 0.0000 0.0000 0.0000
# 4 0.0000 0.0000 0.0000 6.2777 0.0000 0.0000
# 5 0.0000 0.0000 0.0000 0.0000 6.2777 0.0000
# 6 0.0000 0.0000 0.0000 0.0000 0.0000 22.5702
#
#
#
# Elastic Compliance Matrix: (Units=1/GPa)
#
#
# Indices 1 2 3 4 5 6 
#
# 1 0.015450 -0.006703 -0.002415 0.000000 0.000000 0.000000
# 2 -0.006703 0.015450 -0.002415 0.000000 0.000000 0.000000
# 3 -0.002415 -0.002415 0.010633 0.000000 0.000000 0.000000
# 4 0.000000 0.000000 0.000000 0.159294 0.000000 0.000000
# 5 0.000000 0.000000 0.000000 0.000000 0.159294 0.000000
# 6 0.000000 0.000000 0.000000 0.000000 0.000000 0.044306
#
#
# Mechanical properties :
#
#
# Convention : Reuss Voigt Hill
#
# Bulk Modulus (GPa) = 54.14830 54.18981 54.16905
# Shear Modulus (GPa) = 11.53006 19.10684 15.31845
#
# Velocity S-wave (km/s) = 2.63066 3.38644 3.03219
# Velocity P-wave (km/s) = 6.45966 6.91489 6.69115
#
# Compressibility (1/GPa) = 0.01846780
#
# Stress axis : x y z
#
# Youngs Moduli (GPa) = 64.72373 64.72373 94.04958
#
# Poissons Ratio (x) = 0.43383 0.22712
# Poissons Ratio (y) = 0.43383 0.22712
# Poissons Ratio (z) = 0.15630 0.15630
#
# Static dielectric constant tensor:
#      x y z
#    x 3.367810 0.000000 0.000000 
#    y 0.000000 3.367810 0.000000 
#    z 0.000000 0.000000 3.325330 
# 
# 
# High freq. dielectric constant tensor:
#      x y z
#    x 1.617760 0.000000 0.000000 
#    y 0.000000 1.617760 0.000000 
#    z 0.000000 0.000000 1.652770 
# 
# From -- ./inp_files/10126.got.cif
#   From: 2010.03.12/outbox.cif.g09.slc.cpg/sg181_6_cif.got.tgz:10126.got - 2010.04.01 11:42:41.
