data_PCOD8326256
_publ_section_title
;
Structure prediction by ZEFSAII (Michael W. Deem and Ramdas Pophale) SiO2 
 PCOD8326256
Probable space group: P 62 2 2
;
_chemical_formula_sum "Si O2"
_cell_formula_units_Z 51
_cell_length_a 11.419902
_cell_length_b 11.419902
_cell_length_c 19.024256
_cell_angle_alpha 90.000000
_cell_angle_beta 90.000000
_cell_angle_gamma 120.000000
_cell_volume 2148.637084
_symmetry_space_group_name_H-M "P 62 2 2"
_symmetry_group_IT_number 180
_symmetry_cell_setting 'hexagonal'
loop_
_space_group_symop_operation_xyz
x,y,z
x-y,x,1/3+z
-y,x-y,2/3+z
-x,-y,z
-x+y,-x,1/3+z
y,-x+y,2/3+z
x-y,-y,-z
-x,-x+y,1/3-z
y,x,2/3-z
-y,-x,2/3-z
-x+y,y,-z
x,x-y,1/3-z
loop_
_atom_site_type_symbol
_atom_site_label
_atom_site_fract_x
_atom_site_fract_y
_atom_site_fract_z
Si Si1 0.767355 0.210659 0.914822
Si Si2 0.500000 0.500000 0.333334
Si Si3 0.708213 0.577958 0.794175
Si Si4 0.267197 0.547929 0.074858
Si Si5 0.211022 0.052501 0.342697
O O1 0.796433 0.203568 0.833334
O O2 0.774253 0.350303 0.927568
O O3 0.900291 0.224806 0.950632
O O4 0.628089 0.088755 0.948665
O O5 0.593219 0.593219 0.833334
O O6 0.635129 0.444995 0.745810
O O7 0.786864 0.551309 0.858410
O O8 0.806579 0.714055 0.751904
O O9 0.234014 0.468027 0.000000
O O10 0.132012 0.132012 0.333334
O O11 0.107510 0.892491 0.333334
#
# Coordination Sequence:
#
# PCOD8326256 Si02
#       5
#    12   3  12  12  12
#     4  12  24  44  81 118 154 208 267 345 412 489
#     4  12  24  48  78 116 172 196 270 352 416 500
#     4  11  24  45  75 109 160 208 254 337 410 483
#     4  11  21  42  75 117 155 200 256 333 424 491
#     4  11  26  50  76 107 154 217 274 328 396 491
#
# _framework density 23.735976000000001
#
# number of rings (size 3 to 8) (size 9 to 14) (size 15 to 20)
#    0.000    0.706    7.059    1.412    0.000    2.824 
#    0.000    4.706    0.000    0.000    0.000    0.000 
#    0.000    0.000    0.000    0.000    0.000    0.000 
#
# Total GULP energy -631825.110084 kJ/mol
# GULP energy per Si atom -12388.727649 kJ/mol
# Density = 2.368195 g / cm^3
# Si number density = 23.735976 Si / 1000 Ang^3
#
#
#
# Elastic Constant Matrix: (Units=GPa)
#
#
# Indices 1 2 3 4 5 6 
#
# 1 165.3402 25.3456 76.4375 0.0000 0.0000 0.0000
# 2 25.3456 165.3402 76.4375 0.0000 0.0000 0.0000
# 3 76.4375 76.4375 237.3765 0.0000 0.0000 0.0000
# 4 0.0000 0.0000 0.0000 36.0216 0.0000 0.0000
# 5 0.0000 0.0000 0.0000 0.0000 36.0216 0.0000
# 6 0.0000 0.0000 0.0000 0.0000 0.0000 69.9973
#
#
#
# Elastic Compliance Matrix: (Units=1/GPa)
#
#
# Indices 1 2 3 4 5 6 
#
# 1 0.007106 -0.000037 -0.002276 0.000000 0.000000 0.000000
# 2 -0.000037 0.007106 -0.002276 0.000000 0.000000 0.000000
# 3 -0.002276 -0.002276 0.005679 0.000000 0.000000 0.000000
# 4 0.000000 0.000000 0.000000 0.027761 0.000000 0.000000
# 5 0.000000 0.000000 0.000000 0.000000 0.027761 0.000000
# 6 0.000000 0.000000 0.000000 0.000000 0.000000 0.014286
#
#
# Mechanical properties :
#
#
# Convention : Reuss Voigt Hill
#
# Bulk Modulus (GPa) = 93.35555 102.72203 98.03879
# Shear Modulus (GPa) = 48.80453 54.39717 51.60085
#
# Velocity S-wave (km/s) = 4.53939 4.79243 4.66762
# Velocity P-wave (km/s) = 8.17869 8.60198 8.39300
#
# Compressibility (1/GPa) = 0.01071174
#
# Stress axis : x y z
#
# Youngs Moduli (GPa) = 140.72273 140.72273 176.09566
#
# Poissons Ratio (x) = 0.00520 0.40086
# Poissons Ratio (y) = 0.00520 0.40086
# Poissons Ratio (z) = 0.32033 0.32033
#
# Static dielectric constant tensor:
#      x y z
#    x 4.325260 0.000000 0.000000 
#    y 0.000000 4.325260 0.000000 
#    z 0.000000 0.000000 5.667420 
# 
# 
# High freq. dielectric constant tensor:
#      x y z
#    x 1.938880 0.000000 0.000000 
#    y 0.000000 1.938880 0.000000 
#    z 0.000000 0.000000 1.959560 
# 
# From -- ./inp_files/8894.got.cif
#   From: 2010.03.12/outbox.cif.g09.slc.cpg/sg180_5_cif.got.tgz:8894.got - 2010.04.01 11:35:50.
