data_PCOD8326835
_publ_section_title
;
Structure prediction by ZEFSAII (Michael W. Deem and Ramdas Pophale) SiO2 
 PCOD8326835
Probable space group: P -6 M 2
;
_chemical_formula_sum "Si O2"
_cell_formula_units_Z 54
_cell_length_a 29.401505
_cell_length_b 29.401505
_cell_length_c 7.723634
_cell_angle_alpha 90.000000
_cell_angle_beta 90.000000
_cell_angle_gamma 120.000000
_cell_volume 5782.177781
_symmetry_space_group_name_H-M "P -6 M 2"
_symmetry_group_IT_number 187
_symmetry_cell_setting 'hexagonal'
loop_
_space_group_symop_operation_xyz
x,y,z
-x+y,-x,-z
-y,x-y,z
x,y,-z
-x+y,-x,z
-y,x-y,-z
-y,-x,-z
-x+y,y,-z
x,x-y,-z
-x+y,y,z
x,x-y,z
-y,-x,z
loop_
_atom_site_type_symbol
_atom_site_label
_atom_site_fract_x
_atom_site_fract_y
_atom_site_fract_z
Si Si1 0.571884 0.034913 0.500000
Si Si2 0.522372 0.152453 0.500000
Si Si3 0.226174 0.558855 0.500000
Si Si4 0.427676 0.963497 0.192331
Si Si5 0.666564 0.227347 0.803451
Si Si6 0.153928 0.630987 0.192384
O O1 0.517693 0.035385 0.500000
O O2 0.621447 0.093835 0.500000
O O3 0.575995 0.004899 0.669271
O O4 0.574182 0.148363 0.500000
O O5 0.520754 0.182410 0.327047
O O6 0.284183 0.568366 0.500000
O O7 0.230235 0.615118 0.500000
O O8 0.195325 0.524819 0.668437
O O9 0.481761 0.963521 0.199647
O O10 0.380664 0.904776 0.236824
O O11 0.419482 0.980056 0.000000
O O12 0.619866 0.239731 0.772348
O O13 0.719994 0.280007 0.761778
O O14 0.665512 0.208044 0.000000
O O15 0.153482 0.576741 0.199642
O O16 0.170574 0.655794 0.000000
#
# Coordination Sequence:
#
# PCOD8326835 Si02
#       6
#     6   6   6  12  12  12
#     4   9  15  21  29  42  58  70  76  85 108 142
#     4   9  17  24  29  41  58  70  77  90 117 147
#     4  10  18  25  32  41  54  70  85 101 121 143
#     4   8  13  21  33  45  53  63  79  95 110 131
#     4   9  16  25  35  43  50  63  85 109 126 138
#     4   8  14  24  35  44  52  63  81 102 118 132
#
# _framework density 9.3390419999999992
#
# number of rings (size 3 to 8) (size 9 to 14) (size 15 to 20)
#    0.000    3.333    0.000    2.667    0.000    4.889 
#    0.000    5.556    0.000    1.333    0.000    0.000 
#    0.000    0.000    0.000    0.000    0.000    0.000 
#
# Total GULP energy -669199.287359 kJ/mol
# GULP energy per Si atom -12392.579396 kJ/mol
# Density = 0.931779 g / cm^3
# Si number density = 9.339042 Si / 1000 Ang^3
#
#
#
# Elastic Constant Matrix: (Units=GPa)
#
#
# Indices 1 2 3 4 5 6 
#
# 1 29.1518 21.7924 32.2626 0.0000 0.0000 0.0000
# 2 21.7924 29.1518 32.2626 0.0000 0.0000 0.0000
# 3 32.2626 32.2626 87.1048 0.0000 0.0000 0.0000
# 4 0.0000 0.0000 0.0000 8.5300 0.0000 0.0000
# 5 0.0000 0.0000 0.0000 0.0000 8.5300 0.0000
# 6 0.0000 0.0000 0.0000 0.0000 0.0000 3.6797
#
#
#
# Elastic Compliance Matrix: (Units=1/GPa)
#
#
# Indices 1 2 3 4 5 6 
#
# 1 0.086428 -0.049452 -0.013695 0.000000 -0.000001 0.000000
# 2 -0.049452 0.086428 -0.013695 0.000000 0.000001 0.000000
# 3 -0.013695 -0.013695 0.021626 0.000000 0.000000 0.000000
# 4 0.000000 0.000000 0.000000 0.117234 0.000000 0.000001
# 5 -0.000001 0.000001 0.000000 0.000000 0.117234 0.000000
# 6 0.000000 0.000000 0.000000 0.000001 0.000000 0.271762
#
#
# Mechanical properties :
#
#
# Convention : Reuss Voigt Hill
#
# Bulk Modulus (GPa) = 24.51245 35.33819 29.92532
# Shear Modulus (GPa) = 5.76039 8.08731 6.92385
#
# Velocity S-wave (km/s) = 2.48626 2.94593 2.72580
# Velocity P-wave (km/s) = 5.87760 7.03510 6.48224
#
# Compressibility (1/GPa) = 0.04079559
#
# Stress axis : x y z
#
# Youngs Moduli (GPa) = 11.57029 11.57029 46.24135
#
# Poissons Ratio (x) = 0.57218 0.63329
# Poissons Ratio (y) = 0.57218 0.63329
# Poissons Ratio (z) = 0.15846 0.15846
#
# Static dielectric constant tensor:
#      x y z
#    x 1.948020 0.000000 0.000000 
#    y 0.000000 1.948020 0.000000 
#    z 0.000000 0.000000 2.436850 
# 
# 
# High freq. dielectric constant tensor:
#      x y z
#    x 1.310190 0.000000 0.000000 
#    y 0.000000 1.310190 0.000000 
#    z 0.000000 0.000000 1.371930 
# 
# From -- ./inp_files/852.got.cif
#   From: 2010.03.12/outbox.cif.g09.slc.cpg/sg187_1_cif.got.tgz:852.got - 2010.04.01 11:58:23.
