data_PCOD8326587
_publ_section_title
;
Structure prediction by ZEFSAII (Michael W. Deem and Ramdas Pophale) SiO2 
 PCOD8326587
Probable space group: P 6 C C
;
_chemical_formula_sum "Si O2"
_cell_formula_units_Z 32
_cell_length_a 10.002531
_cell_length_b 10.002531
_cell_length_c 17.943005
_cell_angle_alpha 90.000000
_cell_angle_beta 90.000000
_cell_angle_gamma 120.000000
_cell_volume 1554.696504
_symmetry_space_group_name_H-M "P 6 C C"
_symmetry_group_IT_number 184
_symmetry_cell_setting 'hexagonal'
loop_
_space_group_symop_operation_xyz
x,y,z
x-y,x,z
-y,x-y,z
-x,-y,z
-x+y,-x,z
y,-x+y,z
-x+y,y,1/2+z
x,x-y,1/2+z
-y,-x,1/2+z
y,x,1/2+z
x-y,-y,1/2+z
-x,-x+y,1/2+z
loop_
_atom_site_type_symbol
_atom_site_label
_atom_site_fract_x
_atom_site_fract_y
_atom_site_fract_z
Si Si1 0.333334 0.666668 0.898667
Si Si2 0.353134 0.135097 0.149655
Si Si3 0.864906 0.646866 0.823672
Si Si4 0.666668 0.333334 0.574658
O O1 0.320398 0.811146 0.869152
O O2 0.333334 0.666667 0.986662
O O3 0.274979 0.235176 0.127079
O O4 0.393863 0.150442 0.236663
O O5 0.509249 0.188858 0.104173
O O6 0.764824 0.725019 0.846248
#
# Coordination Sequence:
#
# PCOD8326587 Si02
#       4
#     4  12  12   4
#     4  12  25  38  55  84 121 158 193 228 274 338
#     4  10  21  39  63  88 113 145 189 240 290 338
#     4  10  21  39  63  88 113 145 189 240 290 338
#     4  12  25  38  55  84 121 158 193 228 274 338
#
# _framework density 20.582795000000001
#
# number of rings (size 3 to 8) (size 9 to 14) (size 15 to 20)
#    0.000    1.500    0.000    5.250    0.000   15.000 
#    0.000    0.000    0.000    4.500    0.000    0.000 
#    0.000    0.000    0.000    0.000    0.000    0.000 
#
# Total GULP energy -397066.266877 kJ/mol
# GULP energy per Si atom -12408.320840 kJ/mol
# Density = 2.053595 g / cm^3
# Si number density = 20.582795 Si / 1000 Ang^3
#
#
#
# Elastic Constant Matrix: (Units=GPa)
#
#
# Indices 1 2 3 4 5 6 
#
# 1 81.6224 -4.6360 21.1145 0.0000 0.0003 0.0000
# 2 -4.6360 81.6231 21.1147 0.0000 0.0002 0.0000
# 3 21.1145 21.1147 61.7090 0.0000 0.0001 0.0000
# 4 0.0000 0.0000 0.0000 2.4015 0.0000 0.0000
# 5 0.0003 0.0002 0.0001 0.0000 2.4015 0.0000
# 6 0.0000 0.0000 0.0000 0.0000 0.0000 43.1295
#
#
#
# Elastic Compliance Matrix: (Units=1/GPa)
#
#
# Indices 1 2 3 4 5 6 
#
# 1 0.013792 0.002199 -0.005471 0.000000 -0.000001 0.000000
# 2 0.002199 0.013792 -0.005471 0.000000 -0.000001 0.000000
# 3 -0.005471 -0.005471 0.019949 0.000000 0.000001 0.000000
# 4 0.000000 0.000000 0.000000 0.416398 -0.000003 0.000000
# 5 -0.000001 -0.000001 0.000001 -0.000003 0.416415 0.000000
# 6 0.000000 0.000000 0.000000 0.000000 0.000000 0.023186
#
#
# Mechanical properties :
#
#
# Convention : Reuss Voigt Hill
#
# Bulk Modulus (GPa) = 33.28368 33.34897 33.31633
# Shear Modulus (GPa) = 5.37037 22.07726 13.72381
#
# Velocity S-wave (km/s) = 1.61704 3.27862 2.58497
# Velocity P-wave (km/s) = 4.43759 5.52902 5.01309
#
# Compressibility (1/GPa) = 0.03004476
#
# Stress axis : x y z
#
# Youngs Moduli (GPa) = 72.50700 72.50754 50.12708
#
# Poissons Ratio (x) = -0.15942 0.27426
# Poissons Ratio (y) = -0.15942 0.27426
# Poissons Ratio (z) = 0.39671 0.39671
#
# Static dielectric constant tensor:
#      x y z
#    x 3.883860 0.000000 0.000000 
#    y 0.000000 3.883860 0.000000 
#    z 0.000000 0.000000 3.451460 
# 
# 
# High freq. dielectric constant tensor:
#      x y z
#    x 1.821450 0.000000 0.000000 
#    y 0.000000 1.821450 0.000000 
#    z 0.000000 0.000000 1.779310 
# 
# From -- ./inp_files/707.got.cif
#   From: 2010.03.12/outbox.cif.g09.slc.cpg/sg184_cif.got.tgz:707.got - 2010.04.01 11:54:36.
