data_PCOD8326724
_publ_section_title
;
Structure prediction by ZEFSAII (Michael W. Deem and Ramdas Pophale) SiO2 
 PCOD8326724
Probable space group: P 63 M C
;
_chemical_formula_sum "Si O2"
_cell_formula_units_Z 84
_cell_length_a 17.840173
_cell_length_b 17.840173
_cell_length_c 19.835688
_cell_angle_alpha 90.000000
_cell_angle_beta 90.000000
_cell_angle_gamma 120.000000
_cell_volume 5467.339256
_symmetry_space_group_name_H-M "P 63 M C"
_symmetry_group_IT_number 186
_symmetry_cell_setting 'hexagonal'
loop_
_space_group_symop_operation_xyz
x,y,z
x-y,x,1/2+z
-y,x-y,z
-x,-y,1/2+z
-x+y,-x,z
y,-x+y,1/2+z
-x+y,y,z
x,x-y,z
-y,-x,z
y,x,1/2+z
x-y,-y,1/2+z
-x,-x+y,1/2+z
loop_
_atom_site_type_symbol
_atom_site_label
_atom_site_fract_x
_atom_site_fract_y
_atom_site_fract_z
Si Si1 0.931680 0.240575 0.509720
Si Si2 0.896723 0.366135 0.327898
Si Si3 0.163254 0.666513 0.679247
Si Si4 0.768811 0.710574 0.358745
Si Si5 0.311536 0.068067 0.126764
Si Si6 0.172710 0.000247 0.238466
Si Si7 0.333740 0.501252 0.973548
O O1 0.852439 0.147562 0.532669
O O2 0.966924 0.232122 0.436674
O O3 0.901338 0.311397 0.505516
O O4 0.009723 0.274860 0.561143
O O5 0.945039 0.472520 0.327466
O O6 0.841796 0.330503 0.259963
O O7 0.960602 0.326434 0.334768
O O8 0.833797 0.331421 0.392352
O O9 0.149740 0.574870 0.653580
O O10 0.257932 0.742069 0.657240
O O11 0.089529 0.681010 0.644547
O O12 0.839297 0.678593 0.347944
O O13 0.796349 0.795983 0.314823
O O14 0.310451 0.155226 0.111721
O O15 0.251061 0.017497 0.189636
O O16 0.144829 0.072415 0.228941
O O17 0.091902 0.908099 0.221108
O O18 0.263531 0.527062 0.996860
O O19 0.427253 0.572748 0.001347
#
# Coordination Sequence:
#
# PCOD8326724 Si02
#       7
#    12  12  12  12  12  12  12
#     4   9  18  31  46  63  86 117 148 178 215 258
#     4   9  15  24  41  64  90 118 143 169 208 256
#     4  10  18  28  43  64  90 118 146 175 210 254
#     4   9  16  29  46  64  89 115 141 178 219 255
#     4  10  20  32  46  63  87 116 145 179 218 258
#     4  10  19  31  48  66  85 109 141 181 220 260
#     4   9  16  25  41  64  91 119 146 176 209 251
#
# _framework density 15.363963999999999
#
# number of rings (size 3 to 8) (size 9 to 14) (size 15 to 20)
#    0.000    2.571    1.429    3.000    0.000    1.143 
#    0.000    1.429    0.000    0.571    0.000    0.000 
#    0.000    0.000    0.000    2.000    0.000    0.571 
#
# Total GULP energy -1041093.660332 kJ/mol
# GULP energy per Si atom -12393.972147 kJ/mol
# Density = 1.532899 g / cm^3
# Si number density = 15.363964 Si / 1000 Ang^3
#
#
#
# Elastic Constant Matrix: (Units=GPa)
#
#
# Indices 1 2 3 4 5 6 
#
# 1 82.2506 46.7801 39.8993 0.0000 0.0000 0.0000
# 2 46.7801 82.2506 39.8993 0.0000 0.0000 0.0000
# 3 39.8993 39.8993 72.5481 0.0000 0.0000 0.0000
# 4 0.0000 0.0000 0.0000 21.0550 0.0000 0.0000
# 5 0.0000 0.0000 0.0000 0.0000 21.0550 0.0000
# 6 0.0000 0.0000 0.0000 0.0000 0.0000 17.7352
#
#
#
# Elastic Compliance Matrix: (Units=1/GPa)
#
#
# Indices 1 2 3 4 5 6 
#
# 1 0.019969 -0.008224 -0.006459 0.000000 0.000000 0.000000
# 2 -0.008224 0.019969 -0.006459 0.000000 0.000000 0.000000
# 3 -0.006459 -0.006459 0.020889 0.000000 0.000000 0.000000
# 4 0.000000 0.000000 0.000000 0.047495 0.000000 0.000000
# 5 0.000000 0.000000 0.000000 0.000000 0.047495 0.000000
# 6 0.000000 0.000000 0.000000 0.000000 0.000000 0.056385
#
#
# Mechanical properties :
#
#
# Convention : Reuss Voigt Hill
#
# Bulk Modulus (GPa) = 53.93384 54.46743 54.20064
# Shear Modulus (GPa) = 19.18167 19.33376 19.25772
#
# Velocity S-wave (km/s) = 3.53722 3.55122 3.54423
# Velocity P-wave (km/s) = 7.20159 7.23486 7.21825
#
# Compressibility (1/GPa) = 0.01854124
#
# Stress axis : x y z
#
# Youngs Moduli (GPa) = 50.07853 50.07853 47.87249
#
# Poissons Ratio (x) = 0.41184 0.30922
# Poissons Ratio (y) = 0.41184 0.30922
# Poissons Ratio (z) = 0.32347 0.32347
#
# Static dielectric constant tensor:
#      x y z
#    x 2.864970 0.000000 0.000000 
#    y 0.000000 2.864970 0.000000 
#    z 0.000000 0.000000 2.819680 
# 
# 
# High freq. dielectric constant tensor:
#      x y z
#    x 1.575720 0.000000 0.000000 
#    y 0.000000 1.575720 0.000000 
#    z 0.000000 0.000000 1.576210 
# 
# From -- ./inp_files/3473.got.cif
#   From: 2010.03.12/outbox.cif.g09.slc.cpg/sg186_2_cif.got.tgz:3473.got - 2010.04.01 11:56:34.
