data_PCOD8326388
_publ_section_title
;
Structure prediction by ZEFSAII (Michael W. Deem and Ramdas Pophale) SiO2 
 PCOD8326388
Probable space group: P 64 2 2
;
_chemical_formula_sum "Si O2"
_cell_formula_units_Z 42
_cell_length_a 8.869088
_cell_length_b 8.869088
_cell_length_c 27.798290
_cell_angle_alpha 90.000000
_cell_angle_beta 90.000000
_cell_angle_gamma 120.000000
_cell_volume 1893.680212
_symmetry_space_group_name_H-M "P 64 2 2"
_symmetry_group_IT_number 181
_symmetry_cell_setting 'hexagonal'
loop_
_space_group_symop_operation_xyz
x,y,z
x-y,x,2/3+z
-y,x-y,1/3+z
-x,-y,z
-x+y,-x,2/3+z
y,-x+y,1/3+z
x-y,-y,-z
-x,-x+y,2/3-z
y,x,1/3-z
-y,-x,1/3-z
-x+y,y,-z
x,x-y,2/3-z
loop_
_atom_site_type_symbol
_atom_site_label
_atom_site_fract_x
_atom_site_fract_y
_atom_site_fract_z
Si Si1 0.767938 0.684914 0.549758
Si Si2 0.920527 0.170548 0.018375
Si Si3 0.500000 0.000000 0.625255
Si Si4 0.726103 0.282534 0.883022
O O1 0.870076 0.740152 0.500000
O O2 0.915689 0.753100 0.590566
O O3 0.645621 0.773140 0.551101
O O4 0.665943 0.478624 0.557707
O O5 0.956659 0.348761 0.995903
O O6 0.071193 0.142386 0.000000
O O7 0.739046 0.000000 0.000000
O O8 0.597736 0.170606 0.591120
O O9 0.779837 0.389919 0.833334
#
# Coordination Sequence:
#
# PCOD8326388 Si02
#       4
#    12  12   6  12
#     4  10  23  46  72  97 138 185 233 295 357 435
#     4  11  26  46  64 100 142 182 235 284 361 428
#     4  12  25  42  70 102 142 182 229 302 346 430
#     4  10  23  43  70 106 137 178 242 291 360 429
#
# _framework density 22.179037999999998
#
# number of rings (size 3 to 8) (size 9 to 14) (size 15 to 20)
#    0.000    1.429    2.857    0.429    8.000    2.286 
#    0.000    2.857    0.000    0.000    0.000    0.000 
#    0.000    0.000    0.000    0.000    0.000    0.000 
#
# Total GULP energy -520303.710237 kJ/mol
# GULP energy per Si atom -12388.183577 kJ/mol
# Density = 2.212856 g / cm^3
# Si number density = 22.179038 Si / 1000 Ang^3
#
#
#
# Elastic Constant Matrix: (Units=GPa)
#
#
# Indices 1 2 3 4 5 6 
#
# 1 105.2509 45.7228 73.7530 0.0000 0.0000 0.0000
# 2 45.7228 105.2509 73.7530 0.0000 0.0000 0.0000
# 3 73.7530 73.7530 221.1923 0.0000 0.0000 0.0000
# 4 0.0000 0.0000 0.0000 44.7733 0.0000 0.0000
# 5 0.0000 0.0000 0.0000 0.0000 44.7733 0.0000
# 6 0.0000 0.0000 0.0000 0.0000 0.0000 29.7640
#
#
#
# Elastic Compliance Matrix: (Units=1/GPa)
#
#
# Indices 1 2 3 4 5 6 
#
# 1 0.013311 -0.003487 -0.003276 0.000000 0.000000 0.000000
# 2 -0.003487 0.013311 -0.003276 0.000000 0.000000 0.000000
# 3 -0.003276 -0.003276 0.006705 0.000000 0.000000 0.000000
# 4 0.000000 0.000000 0.000000 0.022335 0.000000 0.000000
# 5 0.000000 0.000000 0.000000 0.000000 0.022335 0.000000
# 6 0.000000 0.000000 0.000000 0.000000 0.000000 0.033598
#
#
# Mechanical properties :
#
#
# Convention : Reuss Voigt Hill
#
# Bulk Modulus (GPa) = 75.46671 90.90576 83.18623
# Shear Modulus (GPa) = 36.74044 39.75981 38.25013
#
# Velocity S-wave (km/s) = 4.07448 4.23859 4.15734
# Velocity P-wave (km/s) = 7.49901 8.06415 7.78671
#
# Compressibility (1/GPa) = 0.01325088
#
# Stress axis : x y z
#
# Youngs Moduli (GPa) = 75.12323 75.12323 149.13328
#
# Poissons Ratio (x) = 0.26198 0.48852
# Poissons Ratio (y) = 0.26198 0.48852
# Poissons Ratio (z) = 0.24608 0.24608
#
# Static dielectric constant tensor:
#      x y z
#    x 3.789690 0.000000 0.000000 
#    y 0.000000 3.789690 0.000000 
#    z 0.000000 0.000000 4.443100 
# 
# 
# High freq. dielectric constant tensor:
#      x y z
#    x 1.872310 0.000000 0.000000 
#    y 0.000000 1.872310 0.000000 
#    z 0.000000 0.000000 1.888480 
# 
# From -- ./inp_files/11967.got.cif
#   From: 2010.03.12/outbox.cif.g09.slc.cpg/sg181_6_cif.got.tgz:11967.got - 2010.04.01 11:42:41.
