data_PCOD8326851
_publ_section_title
;
Structure prediction by ZEFSAII (Michael W. Deem and Ramdas Pophale) SiO2 
 PCOD8326851
Probable space group: P -6 M 2
;
_chemical_formula_sum "Si O2"
_cell_formula_units_Z 96
_cell_length_a 17.158981
_cell_length_b 17.158981
_cell_length_c 25.882028
_cell_angle_alpha 90.000000
_cell_angle_beta 90.000000
_cell_angle_gamma 120.000000
_cell_volume 6599.513492
_symmetry_space_group_name_H-M "P -6 M 2"
_symmetry_group_IT_number 187
_symmetry_cell_setting 'hexagonal'
loop_
_space_group_symop_operation_xyz
x,y,z
-x+y,-x,-z
-y,x-y,z
x,y,-z
-x+y,-x,z
-y,x-y,-z
-y,-x,-z
-x+y,y,-z
x,x-y,-z
-x+y,y,z
x,x-y,z
-y,-x,z
loop_
_atom_site_type_symbol
_atom_site_label
_atom_site_fract_x
_atom_site_fract_y
_atom_site_fract_z
Si Si1 0.484541 0.331148 0.645234
Si Si2 0.101378 0.377050 0.716305
Si Si3 0.331844 0.488088 0.183319
Si Si4 0.515117 0.666436 0.614141
Si Si5 0.846999 0.513445 0.057877
Si Si6 0.367761 0.095015 0.254503
Si Si7 0.610181 0.039241 0.154650
Si Si8 0.976300 0.579107 0.443434
O O1 0.504715 0.252357 0.631019
O O2 0.575891 0.424110 0.645028
O O3 0.444344 0.318778 0.702393
O O4 0.415435 0.329378 0.601624
O O5 0.168736 0.337471 0.714073
O O6 0.134480 0.457141 0.757575
O O7 0.100676 0.423985 0.663374
O O8 0.004152 0.292045 0.729901
O O9 0.238756 0.477511 0.161789
O O10 0.408038 0.591963 0.179525
O O11 0.356971 0.423854 0.150615
O O12 0.511735 0.755868 0.601267
O O13 0.414255 0.585746 0.623742
O O14 0.563055 0.645318 0.567278
O O15 0.759485 0.518969 0.070694
O O16 0.820403 0.410202 0.063804
O O17 0.923011 0.575640 0.098704
O O18 0.883060 0.548841 0.000000
O O19 0.331044 0.165522 0.251836
O O20 0.407262 0.091123 0.198879
O O21 0.527040 0.054080 0.167735
O O22 0.954712 0.605139 0.500000
O O23 0.954977 0.477488 0.444969
#
# Coordination Sequence:
#
# PCOD8326851 Si02
#       8
#    12  12  12  12  12  12  12  12
#     4  10  19  30  44  61  82 108 139 173 208 245
#     4   9  17  28  42  61  84 109 135 168 206 246
#     4   9  16  25  39  59  84 112 143 175 208 244
#     4  10  18  28  43  62  84 108 135 166 203 247
#     4   9  16  26  40  58  81 110 143 176 207 241
#     4  10  18  28  44  64  85 110 137 166 204 251
#     4   9  17  27  40  60  86 114 141 170 207 247
#     4   9  18  31  44  57  77 106 136 168 206 243
#
# _framework density 14.546526
#
# number of rings (size 3 to 8) (size 9 to 14) (size 15 to 20)
#    0.000    2.625    1.250    1.625    0.000    2.000 
#    0.000    1.250    0.000    6.125    0.000    0.000 
#    0.000    1.000    0.000    0.000    0.000   15.250 
#
# Total GULP energy -1189978.483617 kJ/mol
# GULP energy per Si atom -12395.609204 kJ/mol
# Density = 1.451342 g / cm^3
# Si number density = 14.546526 Si / 1000 Ang^3
#
#
#
# Elastic Constant Matrix: (Units=GPa)
#
#
# Indices 1 2 3 4 5 6 
#
# 1 76.4902 36.5917 39.2497 0.0000 -0.0001 0.0000
# 2 36.5917 76.4902 39.2497 0.0000 0.0001 0.0000
# 3 39.2497 39.2497 92.6003 0.0000 0.0000 0.0000
# 4 0.0000 0.0000 0.0000 16.4841 0.0000 0.0001
# 5 -0.0001 0.0001 0.0000 0.0000 16.4841 0.0000
# 6 0.0000 0.0000 0.0000 0.0001 0.0000 19.9492
#
#
#
# Elastic Compliance Matrix: (Units=1/GPa)
#
#
# Indices 1 2 3 4 5 6 
#
# 1 0.018797 -0.006267 -0.005311 0.000000 0.000000 0.000000
# 2 -0.006267 0.018797 -0.005311 0.000000 0.000000 0.000000
# 3 -0.005311 -0.005311 0.015301 0.000000 0.000000 0.000000
# 4 0.000000 0.000000 0.000000 0.060665 0.000000 0.000000
# 5 0.000000 0.000000 0.000000 0.000000 0.060665 0.000000
# 6 0.000000 0.000000 0.000000 0.000000 0.000000 0.050127
#
#
# Mechanical properties :
#
#
# Convention : Reuss Voigt Hill
#
# Bulk Modulus (GPa) = 52.30847 52.86251 52.58549
# Shear Modulus (GPa) = 18.90352 19.28279 19.09316
#
# Velocity S-wave (km/s) = 3.60880 3.64482 3.62685
# Velocity P-wave (km/s) = 7.30767 7.35746 7.33261
#
# Compressibility (1/GPa) = 0.01911736
#
# Stress axis : x y z
#
# Youngs Moduli (GPa) = 53.20066 53.20066 65.35384
#
# Poissons Ratio (x) = 0.33340 0.34709
# Poissons Ratio (y) = 0.33340 0.34709
# Poissons Ratio (z) = 0.28255 0.28255
#
# Static dielectric constant tensor:
#      x y z
#    x 2.793010 0.000000 0.000000 
#    y 0.000000 2.793010 0.000000 
#    z 0.000000 0.000000 2.916420 
# 
# 
# High freq. dielectric constant tensor:
#      x y z
#    x 1.541220 0.000000 0.000000 
#    y 0.000000 1.541220 0.000000 
#    z 0.000000 0.000000 1.554890 
# 
# From -- ./inp_files/4061.got.cif
#   From: 2010.03.12/outbox.cif.g09.slc.cpg/sg187_3_cif.got.tgz:4061.got - 2010.04.01 11:58:23.
