data_PCOD8326522
_publ_section_title
;
Structure prediction by ZEFSAII (Michael W. Deem and Ramdas Pophale) SiO2 
 PCOD8326522
Probable space group: P 6 M M
;
_chemical_formula_sum "Si O2"
_cell_formula_units_Z 96
_cell_length_a 20.774839
_cell_length_b 20.774839
_cell_length_c 17.061046
_cell_angle_alpha 90.000000
_cell_angle_beta 90.000000
_cell_angle_gamma 120.000000
_cell_volume 6376.929552
_symmetry_space_group_name_H-M "P 6 M M"
_symmetry_group_IT_number 183
_symmetry_cell_setting 'hexagonal'
loop_
_space_group_symop_operation_xyz
x,y,z
x-y,x,z
-y,x-y,z
-x,-y,z
-x+y,-x,z
y,-x+y,z
-x+y,y,z
x,x-y,z
-y,-x,z
y,x,z
x-y,-y,z
-x,-x+y,z
loop_
_atom_site_type_symbol
_atom_site_label
_atom_site_fract_x
_atom_site_fract_y
_atom_site_fract_z
Si Si1 0.081825 0.769817 0.741900
Si Si2 0.534617 0.617322 0.162585
Si Si3 0.179018 0.666573 0.015880
Si Si4 0.330324 0.415535 0.611173
Si Si5 0.527188 0.334059 0.718614
Si Si6 0.184320 0.517372 0.480877
Si Si7 0.481708 0.666498 0.301771
Si Si8 0.434905 0.289853 0.862985
O O1 0.144141 0.855860 0.752653
O O2 0.094506 0.742006 0.657390
O O3 0.082561 0.717034 0.812564
O O4 0.000000 0.761091 0.743777
O O5 0.462217 0.537784 0.156463
O O6 0.606675 0.606675 0.155160
O O7 0.531877 0.669132 0.094112
O O8 0.537720 0.654916 0.246239
O O9 0.186953 0.593477 0.011569
O O10 0.261345 0.738656 0.012014
O O11 0.125177 0.665924 0.945282
O O12 0.388251 0.388251 0.592244
O O13 0.368568 0.486487 0.668478
O O14 0.311668 0.443121 0.530483
O O15 0.502789 0.251395 0.686854
O O16 0.615036 0.384965 0.709400
O O17 0.508250 0.331112 0.809726
O O18 0.270203 0.540405 0.491912
O O19 0.175993 0.587997 0.506722
O O20 0.159418 0.495546 0.391148
O O21 0.488179 0.744090 0.279864
O O22 0.396887 0.603114 0.286157
O O23 0.412057 0.206029 0.882098
#
# Coordination Sequence:
#
# PCOD8326522 Si02
#       8
#    12  12  12  12  12  12  12  12
#     4   9  17  31  49  66  86 112 142 172 203 242
#     4   9  18  30  41  55  77 104 132 164 206 255
#     4  10  18  28  43  62  84 109 141 180 218 253
#     4  10  20  31  42  57  79 108 139 169 197 232
#     4  10  18  28  41  56  77 103 133 169 209 249
#     4  10  19  30  44  61  81 103 130 167 211 255
#     4   9  17  29  45  62  78  98 127 166 210 254
#     4   8  16  28  40  58  82 107 134 164 198 238
#
# _framework density 15.054266999999999
#
# number of rings (size 3 to 8) (size 9 to 14) (size 15 to 20)
#    0.000    2.625    0.000    3.500    0.000    3.000 
#    0.000    5.000    0.000    2.375    0.000    0.000 
#    0.000    0.000    0.000    0.000    0.000    0.000 
#
# Total GULP energy -1189346.334438 kJ/mol
# GULP energy per Si atom -12389.024317 kJ/mol
# Density = 1.502000 g / cm^3
# Si number density = 15.054267 Si / 1000 Ang^3
#
#
#
# Elastic Constant Matrix: (Units=GPa)
#
#
# Indices 1 2 3 4 5 6 
#
# 1 68.2329 37.1682 35.0268 0.0000 0.0000 0.0000
# 2 37.1682 68.2329 35.0268 0.0000 0.0000 0.0000
# 3 35.0268 35.0268 98.5859 0.0000 0.0000 0.0000
# 4 0.0000 0.0000 0.0000 15.6361 0.0000 0.0000
# 5 0.0000 0.0000 0.0000 0.0000 15.6361 0.0000
# 6 0.0000 0.0000 0.0000 0.0000 0.0000 15.5323
#
#
#
# Elastic Compliance Matrix: (Units=1/GPa)
#
#
# Indices 1 2 3 4 5 6 
#
# 1 0.022306 -0.009885 -0.004413 0.000000 0.000000 0.000000
# 2 -0.009885 0.022306 -0.004413 0.000000 0.000000 0.000000
# 3 -0.004413 -0.004413 0.013279 0.000000 0.000000 0.000000
# 4 0.000000 0.000000 0.000000 0.063954 0.000000 0.000000
# 5 0.000000 0.000000 0.000000 0.000000 0.063954 0.000000
# 6 0.000000 0.000000 0.000000 0.000000 0.000000 0.064382
#
#
# Mechanical properties :
#
#
# Convention : Reuss Voigt Hill
#
# Bulk Modulus (GPa) = 48.85528 49.94391 49.39960
# Shear Modulus (GPa) = 16.98217 17.88291 17.43254
#
# Velocity S-wave (km/s) = 3.36231 3.45033 3.40660
# Velocity P-wave (km/s) = 6.89904 7.00863 6.95405
#
# Compressibility (1/GPa) = 0.02046862
#
# Stress axis : x y z
#
# Youngs Moduli (GPa) = 44.83148 44.83148 75.30583
#
# Poissons Ratio (x) = 0.44317 0.33232
# Poissons Ratio (y) = 0.44317 0.33232
# Poissons Ratio (z) = 0.19784 0.19784
#
# Static dielectric constant tensor:
#      x y z
#    x 2.737960 0.000000 0.000000 
#    y 0.000000 2.737960 0.000000 
#    z 0.000000 0.000000 3.082080 
# 
# 
# High freq. dielectric constant tensor:
#      x y z
#    x 1.548730 0.000000 0.000000 
#    y 0.000000 1.548730 0.000000 
#    z 0.000000 0.000000 1.586170 
# 
# From -- ./inp_files/2815.got.cif
#   From: 2010.03.12/outbox.cif.g09.slc.cpg/sg183_2_cif.got.tgz:2815.got - 2010.04.01 11:53:02.
