data_PCOD8326913
_publ_section_title
;
Structure prediction by ZEFSAII (Michael W. Deem and Ramdas Pophale) SiO2 
 PCOD8326913
Probable space group: P -6 M 2
;
_chemical_formula_sum "Si O2"
_cell_formula_units_Z 72
_cell_length_a 17.312098
_cell_length_b 17.312098
_cell_length_c 18.005615
_cell_angle_alpha 90.000000
_cell_angle_beta 90.000000
_cell_angle_gamma 120.000000
_cell_volume 4673.454246
_symmetry_space_group_name_H-M "P -6 M 2"
_symmetry_group_IT_number 187
_symmetry_cell_setting 'hexagonal'
loop_
_space_group_symop_operation_xyz
x,y,z
-x+y,-x,-z
-y,x-y,z
x,y,-z
-x+y,-x,z
-y,x-y,-z
-y,-x,-z
-x+y,y,-z
x,x-y,-z
-x+y,y,z
x,x-y,z
-y,-x,z
loop_
_atom_site_type_symbol
_atom_site_label
_atom_site_fract_x
_atom_site_fract_y
_atom_site_fract_z
Si Si1 0.333164 0.489072 0.084711
Si Si2 0.746800 0.076315 0.695707
Si Si3 0.634378 0.904798 0.783272
Si Si4 0.967373 0.394164 0.417065
Si Si5 0.828308 0.829040 0.416202
Si Si6 0.511243 0.668160 0.355200
O O1 0.259283 0.518566 0.096378
O O2 0.428077 0.571924 0.107354
O O3 0.310302 0.403801 0.135590
O O4 0.333949 0.459940 0.000000
O O5 0.828522 0.171479 0.723110
O O6 0.673425 0.089036 0.650108
O O7 0.708566 0.007445 0.764658
O O8 0.774993 0.030540 0.633560
O O9 0.674944 0.837472 0.782194
O O10 0.551910 0.868831 0.726992
O O11 0.938688 0.351911 0.500000
O O12 0.946308 0.473154 0.407631
O O13 0.073276 0.431172 0.408942
O O14 0.793869 0.801414 0.500000
O O15 0.808269 0.904135 0.386168
O O16 0.933849 0.867698 0.411556
O O17 0.516181 0.758091 0.386021
O O18 0.408790 0.591211 0.351540
#
# Coordination Sequence:
#
# PCOD8326913 Si02
#       6
#    12  12  12  12  12  12
#     4   9  16  26  43  69 100 130 154 171 186 212
#     4  10  19  30  45  62  78 101 137 177 214 256
#     4   9  17  28  41  60  88 117 142 170 207 247
#     4   9  18  31  43  56  77 104 134 173 222 265
#     4   9  16  25  38  58  84 111 137 167 205 248
#     4   9  16  25  38  57  83 117 152 179 200 230
#
# _framework density 15.406162999999999
#
# number of rings (size 3 to 8) (size 9 to 14) (size 15 to 20)
#    0.000    2.833    0.000    2.000    0.000    4.000 
#    0.000    1.667    0.000    2.167    0.000    0.000 
#    0.000    0.000    0.000    0.000    0.000    0.000 
#
# Total GULP energy -892384.309720 kJ/mol
# GULP energy per Si atom -12394.226524 kJ/mol
# Density = 1.537110 g / cm^3
# Si number density = 15.406163 Si / 1000 Ang^3
#
#
#
# Elastic Constant Matrix: (Units=GPa)
#
#
# Indices 1 2 3 4 5 6 
#
# 1 73.2737 32.0926 31.4688 0.0000 -0.0001 0.0000
# 2 32.0926 73.2737 31.4688 0.0000 0.0001 0.0000
# 3 31.4688 31.4688 69.7178 0.0000 0.0000 0.0000
# 4 0.0000 0.0000 0.0000 18.6470 0.0000 0.0001
# 5 -0.0001 0.0001 0.0000 0.0000 18.6470 0.0000
# 6 0.0000 0.0000 0.0000 0.0001 0.0000 20.5905
#
#
#
# Elastic Compliance Matrix: (Units=1/GPa)
#
#
# Indices 1 2 3 4 5 6 
#
# 1 0.018639 -0.005644 -0.005865 0.000000 0.000000 0.000000
# 2 -0.005644 0.018639 -0.005865 0.000000 0.000000 0.000000
# 3 -0.005865 -0.005865 0.019638 0.000000 0.000000 0.000000
# 4 0.000000 0.000000 0.000000 0.053628 0.000000 0.000000
# 5 0.000000 0.000000 0.000000 0.000000 0.053628 0.000000
# 6 0.000000 0.000000 0.000000 0.000000 0.000000 0.048566
#
#
# Mechanical properties :
#
#
# Convention : Reuss Voigt Hill
#
# Bulk Modulus (GPa) = 45.11465 45.14729 45.13097
# Shear Modulus (GPa) = 19.61741 19.65923 19.63832
#
# Velocity S-wave (km/s) = 3.57227 3.57608 3.57418
# Velocity P-wave (km/s) = 6.80896 6.81318 6.81107
#
# Compressibility (1/GPa) = 0.02216575
#
# Stress axis : x y z
#
# Youngs Moduli (GPa) = 53.65224 53.65224 50.92083
#
# Poissons Ratio (x) = 0.30284 0.29866
# Poissons Ratio (y) = 0.30284 0.29866
# Poissons Ratio (z) = 0.31468 0.31468
#
# Static dielectric constant tensor:
#      x y z
#    x 2.976710 0.000000 0.000000 
#    y 0.000000 2.976710 0.000000 
#    z 0.000000 0.000000 2.884670 
# 
# 
# High freq. dielectric constant tensor:
#      x y z
#    x 1.576620 0.000000 0.000000 
#    y 0.000000 1.576620 0.000000 
#    z 0.000000 0.000000 1.570370 
# 
# From -- ./inp_files/3064.got.cif
#   From: 2010.03.12/outbox.cif.g09.slc.cpg/sg187_2_cif.got.tgz:3064.got - 2010.04.01 11:58:23.
