data_PCOD8326414
_publ_section_title
;
Structure prediction by ZEFSAII (Michael W. Deem and Ramdas Pophale) SiO2 
 PCOD8326414
Probable space group: P 64 2 2
;
_chemical_formula_sum "Si O2"
_cell_formula_units_Z 36
_cell_length_a 12.054661
_cell_length_b 12.054661
_cell_length_c 13.778885
_cell_angle_alpha 90.000000
_cell_angle_beta 90.000000
_cell_angle_gamma 120.000000
_cell_volume 1734.022429
_symmetry_space_group_name_H-M "P 64 2 2"
_symmetry_group_IT_number 181
_symmetry_cell_setting 'hexagonal'
loop_
_space_group_symop_operation_xyz
x,y,z
x-y,x,2/3+z
-y,x-y,1/3+z
-x,-y,z
-x+y,-x,2/3+z
y,-x+y,1/3+z
x-y,-y,-z
-x,-x+y,2/3-z
y,x,1/3-z
-y,-x,1/3-z
-x+y,y,-z
x,x-y,2/3-z
loop_
_atom_site_type_symbol
_atom_site_label
_atom_site_fract_x
_atom_site_fract_y
_atom_site_fract_z
Si Si1 0.641606 0.162501 0.897676
Si Si2 0.070323 0.651521 0.921454
Si Si3 0.388230 0.077304 0.803141
O O1 0.778478 0.291138 0.899832
O O2 0.545033 0.159548 0.814061
O O3 0.668230 0.046374 0.872556
O O4 0.569429 0.138857 0.000000
O O5 0.000000 0.500000 0.927100
O O6 0.000000 0.683799 0.833334
O O7 0.045037 0.696839 0.024257
O O8 0.327546 0.163773 0.833334
#
# Coordination Sequence:
#
# PCOD8326414 Si02
#       3
#    12  12  12
#     4  11  23  41  66  96 136 182 234 284 352 436
#     4  11  25  38  55  93 135 175 220 286 357 413
#     4  11  22  40  66  98 129 180 229 285 352 429
#
# _framework density 20.760978999999999
#
# number of rings (size 3 to 8) (size 9 to 14) (size 15 to 20)
#    0.000    1.000    6.667    2.000    4.667    1.333 
#    0.000    0.000    0.000    1.000    0.000    4.667 
#    0.000    0.000    0.000    0.000    0.000    0.000 
#
# Total GULP energy -446013.368360 kJ/mol
# GULP energy per Si atom -12389.260232 kJ/mol
# Density = 2.071373 g / cm^3
# Si number density = 20.760979 Si / 1000 Ang^3
#
#
#
# Elastic Constant Matrix: (Units=GPa)
#
#
# Indices 1 2 3 4 5 6 
#
# 1 103.5515 23.1424 39.9786 0.0000 0.0000 0.0000
# 2 23.1424 103.5515 39.9786 0.0000 0.0000 0.0000
# 3 39.9786 39.9786 197.4109 0.0000 0.0000 0.0000
# 4 0.0000 0.0000 0.0000 24.6463 0.0000 0.0000
# 5 0.0000 0.0000 0.0000 0.0000 24.6463 0.0000
# 6 0.0000 0.0000 0.0000 0.0000 0.0000 40.2046
#
#
#
# Elastic Compliance Matrix: (Units=1/GPa)
#
#
# Indices 1 2 3 4 5 6 
#
# 1 0.010743 -0.001693 -0.001833 0.000000 0.000000 0.000000
# 2 -0.001693 0.010743 -0.001833 0.000000 0.000000 0.000000
# 3 -0.001833 -0.001833 0.005808 0.000000 0.000000 0.000000
# 4 0.000000 0.000000 0.000000 0.040574 0.000000 0.000000
# 5 0.000000 0.000000 0.000000 0.000000 0.040574 0.000000
# 6 0.000000 0.000000 0.000000 0.000000 0.000000 0.024873
#
#
# Mechanical properties :
#
#
# Convention : Reuss Voigt Hill
#
# Bulk Modulus (GPa) = 60.32664 67.85704 64.09184
# Shear Modulus (GPa) = 33.43187 37.99371 35.71279
#
# Velocity S-wave (km/s) = 4.01724 4.28255 4.15201
# Velocity P-wave (km/s) = 7.11606 7.56370 7.34329
#
# Compressibility (1/GPa) = 0.01657642
#
# Stress axis : x y z
#
# Youngs Moduli (GPa) = 93.08363 93.08363 172.18017
#
# Poissons Ratio (x) = 0.15763 0.31555
# Poissons Ratio (y) = 0.15763 0.31555
# Poissons Ratio (z) = 0.17059 0.17059
#
# Static dielectric constant tensor:
#      x y z
#    x 3.644780 0.000000 0.000000 
#    y 0.000000 3.644780 0.000000 
#    z 0.000000 0.000000 -13.333580 
# 
# 
# High freq. dielectric constant tensor:
#      x y z
#    x 1.780170 0.000000 0.000000 
#    y 0.000000 1.780170 0.000000 
#    z 0.000000 0.000000 1.839600 
# 
# From -- ./inp_files/5533.got.cif
#   From: 2010.03.12/outbox.cif.g09.slc.cpg/sg181_3_cif.got.tgz:5533.got - 2010.04.01 11:42:41.
