data_PCOD8326060
_publ_section_title
;
Structure prediction by ZEFSAII (Michael W. Deem and Ramdas Pophale) SiO2 
 PCOD8326060
Probable space group: P 65 2 2
;
_chemical_formula_sum "Si O2"
_cell_formula_units_Z 48
_cell_length_a 17.574694
_cell_length_b 17.574694
_cell_length_c 7.920680
_cell_angle_alpha 90.000000
_cell_angle_beta 90.000000
_cell_angle_gamma 120.000000
_cell_volume 2118.695986
_symmetry_space_group_name_H-M "P 65 2 2"
_symmetry_group_IT_number 179
_symmetry_cell_setting 'hexagonal'
loop_
_space_group_symop_operation_xyz
x,y,z
x-y,x,5/6+z
-y,x-y,2/3+z
-x,-y,1/2+z
-x+y,-x,1/3+z
y,-x+y,1/6+z
x-y,-y,-z
-x,-x+y,1/3-z
y,x,2/3-z
-y,-x,1/6-z
-x+y,y,1/2-z
x,x-y,5/6-z
loop_
_atom_site_type_symbol
_atom_site_label
_atom_site_fract_x
_atom_site_fract_y
_atom_site_fract_z
Si Si1 0.930317 0.465159 0.916667
Si Si2 0.383001 0.000000 0.500000
Si Si3 0.631295 0.770788 0.637706
Si Si4 0.896945 0.577521 0.137301
Si Si5 0.869035 0.827882 0.012620
O O1 0.877610 0.395675 0.766830
O O2 0.988941 0.560976 0.834381
O O3 0.378209 0.089109 0.532167
O O4 0.566060 0.712421 0.487333
O O5 0.610700 0.850445 0.668267
O O6 0.731476 0.817689 0.573774
O O7 0.000000 0.645221 0.166667
O O8 0.824763 0.824763 0.833334
O O9 0.971318 0.862007 0.982774
#
# Coordination Sequence:
#
# PCOD8326060 Si02
#       5
#     6   6  12  12  12
#     4  12  24  42  70 100 142 172 224 280 366 420
#     4  12  22  42  72 104 136 178 230 292 346 426
#     4  11  23  40  72 101 137 181 242 289 342 411
#     4  11  23  43  65 104 135 178 226 286 347 415
#     4  10  21  38  59  92 142 191 245 293 344 398
#
# _framework density 22.655446000000001
#
# number of rings (size 3 to 8) (size 9 to 14) (size 15 to 20)
#    0.000    1.000    5.000    1.500    0.000    1.000 
#    0.000   21.250    0.000   15.000    0.000    0.000 
#    0.000    0.000    0.000    0.000    0.000    0.000 
#
# Total GULP energy -594643.956080 kJ/mol
# GULP energy per Si atom -12388.415752 kJ/mol
# Density = 2.260388 g / cm^3
# Si number density = 22.655446 Si / 1000 Ang^3
#
#
#
# Elastic Constant Matrix: (Units=GPa)
#
#
# Indices 1 2 3 4 5 6 
#
# 1 122.2391 69.0002 38.9335 0.0000 0.0000 0.0000
# 2 69.0002 122.2391 38.9335 0.0000 0.0000 0.0000
# 3 38.9335 38.9335 84.3909 0.0000 0.0000 0.0000
# 4 0.0000 0.0000 0.0000 26.9708 0.0000 0.0000
# 5 0.0000 0.0000 0.0000 0.0000 26.9708 0.0000
# 6 0.0000 0.0000 0.0000 0.0000 0.0000 26.6194
#
#
#
# Elastic Compliance Matrix: (Units=1/GPa)
#
#
# Indices 1 2 3 4 5 6 
#
# 1 0.012611 -0.006172 -0.002970 0.000000 0.000000 0.000000
# 2 -0.006172 0.012611 -0.002970 0.000000 0.000000 0.000000
# 3 -0.002970 -0.002970 0.014590 0.000000 0.000000 0.000000
# 4 0.000000 0.000000 0.000000 0.037077 0.000000 0.000000
# 5 0.000000 0.000000 0.000000 0.000000 0.037077 0.000000
# 6 0.000000 0.000000 0.000000 0.000000 0.000000 0.037567
#
#
# Mechanical properties :
#
#
# Convention : Reuss Voigt Hill
#
# Bulk Modulus (GPa) = 64.16080 69.17818 66.66949
# Shear Modulus (GPa) = 27.63126 28.24568 27.93847
#
# Velocity S-wave (km/s) = 3.49611 3.53477 3.51549
# Velocity P-wave (km/s) = 6.68422 6.87464 6.78010
#
# Compressibility (1/GPa) = 0.01558584
#
# Stress axis : x y z
#
# Youngs Moduli (GPa) = 79.29657 79.29657 68.53833
#
# Poissons Ratio (x) = 0.48945 0.20359
# Poissons Ratio (y) = 0.48945 0.20359
# Poissons Ratio (z) = 0.23554 0.23554
#
# Static dielectric constant tensor:
#      x y z
#    x 4.214310 0.000000 0.000000 
#    y 0.000000 4.214310 0.000000 
#    z 0.000000 0.000000 4.220490 
# 
# 
# High freq. dielectric constant tensor:
#      x y z
#    x 1.879450 0.000000 0.000000 
#    y 0.000000 1.879450 0.000000 
#    z 0.000000 0.000000 1.897640 
# 
# From -- ./inp_files/2686.got.cif
#   From: 2010.03.12/outbox.cif.g09.slc.cpg/sg179_2_cif.got.tgz:2686.got - 2010.04.02 07:08:42.
