data_PCOD8326489
_publ_section_title
;
Structure prediction by ZEFSAII (Michael W. Deem and Ramdas Pophale) SiO2 
 PCOD8326489
Probable space group: P 63 2 2
;
_chemical_formula_sum "Si O2"
_cell_formula_units_Z 30
_cell_length_a 8.554318
_cell_length_b 8.554318
_cell_length_c 20.787980
_cell_angle_alpha 90.000000
_cell_angle_beta 90.000000
_cell_angle_gamma 120.000000
_cell_volume 1317.388001
_symmetry_space_group_name_H-M "P 63 2 2"
_symmetry_group_IT_number 182
_symmetry_cell_setting 'hexagonal'
loop_
_space_group_symop_operation_xyz
x,y,z
x-y,x,1/2+z
-y,x-y,z
-x,-y,1/2+z
-x+y,-x,z
y,-x+y,1/2+z
x-y,-y,-z
-x,-x+y,-z
y,x,-z
-y,-x,1/2-z
-x+y,y,1/2-z
x,x-y,1/2-z
loop_
_atom_site_type_symbol
_atom_site_label
_atom_site_fract_x
_atom_site_fract_y
_atom_site_fract_z
Si Si1 0.023831 0.337269 0.623168
Si Si2 0.333333 0.666666 0.547597
Si Si3 0.000000 0.000000 0.073920
Si Si4 0.563819 0.781910 0.750000
Si Si5 0.666668 0.333335 0.892695
O O1 0.164105 0.484435 0.573761
O O2 0.933922 0.137868 0.594666
O O3 0.130073 0.321995 0.685981
O O4 0.859582 0.374665 0.635605
O O5 0.333334 0.666667 0.470484
O O6 0.000000 0.000000 0.000000
O O7 0.436151 0.872301 0.750000
#
# Coordination Sequence:
#
# PCOD8326489 Si02
#       5
#    12   4   4   6   4
#     4  12  25  46  73 108 146 194 240 296 364 422
#     4  12  21  46  73 103 154 192 232 299 364 423
#     4  12  27  46  71 109 150 189 244 296 358 432
#     4  10  22  48  72  94 140 182 232 294 356 418
#     4  12  27  42  74 113 141 189 247 293 355 444
#
# _framework density 22.772334000000001
#
# number of rings (size 3 to 8) (size 9 to 14) (size 15 to 20)
#    0.400    0.000    4.000    6.000    0.000    1.600 
#    0.000    0.000    0.000    0.000    0.000    0.000 
#    0.000    0.000    0.000    0.000    0.000    0.000 
#
# Total GULP energy -371789.556066 kJ/mol
# GULP energy per Si atom -12392.985202 kJ/mol
# Density = 2.272050 g / cm^3
# Si number density = 22.772334 Si / 1000 Ang^3
#
#
#
# Elastic Constant Matrix: (Units=GPa)
#
#
# Indices 1 2 3 4 5 6 
#
# 1 117.8036 28.8366 41.2964 -0.0001 0.0000 0.0000
# 2 28.8366 117.8032 41.2966 0.0000 0.0000 0.0003
# 3 41.2964 41.2966 150.2387 -0.0001 0.0000 -0.0001
# 4 -0.0001 0.0000 -0.0001 53.3139 0.0001 0.0000
# 5 0.0000 0.0000 0.0000 0.0001 53.3134 0.0000
# 6 0.0000 0.0003 -0.0001 0.0000 0.0000 44.4839
#
#
#
# Elastic Compliance Matrix: (Units=1/GPa)
#
#
# Indices 1 2 3 4 5 6 
#
# 1 0.009654 -0.001586 -0.002218 0.000000 0.000000 0.000000
# 2 -0.001586 0.009654 -0.002218 0.000000 0.000000 0.000000
# 3 -0.002218 -0.002218 0.007875 0.000000 0.000000 0.000000
# 4 0.000000 0.000000 0.000000 0.018757 0.000000 0.000000
# 5 0.000000 0.000000 0.000000 0.000000 0.018757 0.000000
# 6 0.000000 0.000000 0.000000 0.000000 0.000000 0.022480
#
#
# Mechanical properties :
#
#
# Convention : Reuss Voigt Hill
#
# Bulk Modulus (GPa) = 66.04514 67.63385 66.83950
# Shear Modulus (GPa) = 47.95341 48.51664 48.23503
#
# Velocity S-wave (km/s) = 4.59385 4.62075 4.60732
# Velocity P-wave (km/s) = 7.56328 7.63105 7.59724
#
# Compressibility (1/GPa) = 0.01514116
#
# Stress axis : x y z
#
# Youngs Moduli (GPa) = 103.58030 103.57983 126.97897
#
# Poissons Ratio (x) = 0.16425 0.28162
# Poissons Ratio (y) = 0.16426 0.28162
# Poissons Ratio (z) = 0.22972 0.22972
#
# Static dielectric constant tensor:
#      x y z
#    x 3.939430 -0.000010 0.000000 
#    y -0.000010 3.939410 0.000000 
#    z 0.000000 0.000000 4.264640 
# 
# 
# High freq. dielectric constant tensor:
#      x y z
#    x 1.901930 0.000000 0.000000 
#    y 0.000000 1.901930 0.000000 
#    z 0.000000 0.000000 1.898310 
# 
# From -- ./inp_files/5094.got.cif
#   From: 2010.03.12/outbox.cif.g09.slc.cpg/sg182_3_cif.got.tgz:5094.got - 2010.04.01 11:49:36.
