data_PCOD8326314
_publ_section_title
;
Structure prediction by ZEFSAII (Michael W. Deem and Ramdas Pophale) SiO2 
 PCOD8326314
Probable space group: P 64 2 2
;
_chemical_formula_sum "Si O2"
_cell_formula_units_Z 54
_cell_length_a 24.082257
_cell_length_b 24.082257
_cell_length_c 6.232029
_cell_angle_alpha 90.000000
_cell_angle_beta 90.000000
_cell_angle_gamma 120.000000
_cell_volume 3130.073032
_symmetry_space_group_name_H-M "P 64 2 2"
_symmetry_group_IT_number 181
_symmetry_cell_setting 'hexagonal'
loop_
_space_group_symop_operation_xyz
x,y,z
x-y,x,2/3+z
-y,x-y,1/3+z
-x,-y,z
-x+y,-x,2/3+z
y,-x+y,1/3+z
x-y,-y,-z
-x,-x+y,2/3-z
y,x,1/3-z
-y,-x,1/3-z
-x+y,y,-z
x,x-y,2/3-z
loop_
_atom_site_type_symbol
_atom_site_label
_atom_site_fract_x
_atom_site_fract_y
_atom_site_fract_z
Si Si1 0.937438 0.183683 0.214102
Si Si2 0.780085 0.390043 0.833334
Si Si3 0.644472 0.761150 0.439706
Si Si4 0.693149 0.499939 0.874061
Si Si5 0.273187 0.273187 0.166667
Si Si6 0.717832 0.282169 0.166667
O O1 0.890705 0.109296 0.166667
O O2 0.902880 0.216067 0.344876
O O3 0.000000 0.191523 0.333334
O O4 0.957067 0.214061 0.983242
O O5 0.823914 0.369598 0.689417
O O6 0.730810 0.394003 0.669663
O O7 0.649924 0.824962 0.333334
O O8 0.571726 0.706523 0.488177
O O9 0.665867 0.718943 0.297162
O O10 0.691976 0.476241 0.631163
O O11 0.751223 0.502445 0.000000
#
# Coordination Sequence:
#
# PCOD8326314 Si02
#       6
#    12   6  12  12   6   6
#     4  10  20  32  53  80 111 143 173 213 262 318
#     4  10  20  33  46  71  98 135 178 216 268 320
#     4  10  19  33  53  77 107 135 166 213 266 317
#     4   9  20  31  48  72  99 136 169 216 269 315
#     4  10  20  34  52  79 109 138 168 210 262 316
#     4  10  20  31  46  70 102 135 174 217 268 325
#
# _framework density 17.251992999999999
#
# number of rings (size 3 to 8) (size 9 to 14) (size 15 to 20)
#    0.000    2.222    2.222    0.667    1.556   10.667 
#    0.000    0.000    0.000    0.667    0.000    3.889 
#    0.000    0.000    0.000    0.000    0.000    0.000 
#
# Total GULP energy -668987.734755 kJ/mol
# GULP energy per Si atom -12388.661755 kJ/mol
# Density = 1.721273 g / cm^3
# Si number density = 17.251993 Si / 1000 Ang^3
#
#
#
# Elastic Constant Matrix: (Units=GPa)
#
#
# Indices 1 2 3 4 5 6 
#
# 1 107.5452 54.7598 49.2420 0.0000 0.0000 0.0000
# 2 54.7598 107.5452 49.2420 0.0000 0.0000 0.0000
# 3 49.2420 49.2420 117.9081 0.0000 0.0000 0.0000
# 4 0.0000 0.0000 0.0000 22.1183 0.0000 0.0000
# 5 0.0000 0.0000 0.0000 0.0000 22.1183 0.0000
# 6 0.0000 0.0000 0.0000 0.0000 0.0000 26.3927
#
#
#
# Elastic Compliance Matrix: (Units=1/GPa)
#
#
# Indices 1 2 3 4 5 6 
#
# 1 0.013599 -0.005346 -0.003447 0.000000 0.000000 0.000000
# 2 -0.005346 0.013599 -0.003447 0.000000 0.000000 0.000000
# 3 -0.003447 -0.003447 0.011360 0.000000 0.000000 0.000000
# 4 0.000000 0.000000 0.000000 0.045211 0.000000 0.000000
# 5 0.000000 0.000000 0.000000 0.000000 0.045211 0.000000
# 6 0.000000 0.000000 0.000000 0.000000 0.000000 0.037889
#
#
# Mechanical properties :
#
#
# Convention : Reuss Voigt Hill
#
# Bulk Modulus (GPa) = 71.02809 71.05402 71.04105
# Shear Modulus (GPa) = 25.50493 26.10948 25.80720
#
# Velocity S-wave (km/s) = 3.84914 3.89449 3.87188
# Velocity P-wave (km/s) = 7.81120 7.84207 7.82665
#
# Compressibility (1/GPa) = 0.01407894
#
# Stress axis : x y z
#
# Youngs Moduli (GPa) = 73.53703 73.53703 88.02880
#
# Poissons Ratio (x) = 0.39313 0.30339
# Poissons Ratio (y) = 0.39313 0.30339
# Poissons Ratio (z) = 0.25345 0.25345
#
# Static dielectric constant tensor:
#      x y z
#    x 3.368720 0.000000 0.000000 
#    y 0.000000 3.368720 0.000000 
#    z 0.000000 0.000000 -1.477360 
# 
# 
# High freq. dielectric constant tensor:
#      x y z
#    x 1.643740 0.000000 0.000000 
#    y 0.000000 1.643740 0.000000 
#    z 0.000000 0.000000 1.690320 
# 
# From -- ./inp_files/1259.got.cif
#   From: 2010.03.12/outbox.cif.g09.slc.cpg/sg181_1_cif.got.tgz:1259.got - 2010.04.01 11:42:41.
