data_PCOD8326949
_publ_section_title
;
Structure prediction by ZEFSAII (Michael W. Deem and Ramdas Pophale) SiO2 
 PCOD8326949
Probable space group: P -6 M 2
;
_chemical_formula_sum "Si O2"
_cell_formula_units_Z 90
_cell_length_a 17.134396
_cell_length_b 17.134396
_cell_length_c 20.681650
_cell_angle_alpha 90.000000
_cell_angle_beta 90.000000
_cell_angle_gamma 120.000000
_cell_volume 5258.397534
_symmetry_space_group_name_H-M "P -6 M 2"
_symmetry_group_IT_number 187
_symmetry_cell_setting 'hexagonal'
loop_
_space_group_symop_operation_xyz
x,y,z
-x+y,-x,-z
-y,x-y,z
x,y,-z
-x+y,-x,z
-y,x-y,-z
-y,-x,-z
-x+y,y,-z
x,x-y,-z
-x+y,y,z
x,x-y,z
-y,-x,z
loop_
_atom_site_type_symbol
_atom_site_label
_atom_site_fract_x
_atom_site_fract_y
_atom_site_fract_z
Si Si1 0.665463 0.510858 0.000000
Si Si2 0.634965 0.909742 0.930257
Si Si3 0.635543 0.729615 0.690282
Si Si4 0.665226 0.148038 0.141560
Si Si5 0.514167 0.845775 0.185268
Si Si6 0.332919 0.487101 0.573207
Si Si7 0.997443 0.819915 0.877110
Si Si8 0.927616 0.246285 0.766333
O O1 0.652826 0.550123 0.931078
O O2 0.596228 0.403773 0.000000
O O3 0.765218 0.530436 0.000000
O O4 0.622135 0.811068 0.927775
O O5 0.578497 0.915591 0.870072
O O6 0.741125 0.981318 0.925426
O O7 0.601228 0.925866 0.000000
O O8 0.675874 0.837937 0.688725
O O9 0.560923 0.687210 0.745707
O O10 0.593916 0.686391 0.621148
O O11 0.710055 0.701152 0.704294
O O12 0.575256 0.150511 0.161619
O O13 0.750019 0.249982 0.140936
O O14 0.681421 0.086152 0.191953
O O15 0.426364 0.852727 0.187843
O O16 0.488149 0.744075 0.168380
O O17 0.331207 0.453854 0.500000
O O18 0.258623 0.517246 0.582992
O O19 0.428441 0.571560 0.590792
O O20 0.080002 0.919999 0.868441
O O21 0.912006 0.824012 0.905318
O O22 0.975422 0.772407 0.807710
O O23 0.831045 0.168956 0.740609
#
# Coordination Sequence:
#
# PCOD8326949 Si02
#       8
#     6  12  12  12  12  12  12  12
#     4   8  13  24  42  62  83 108 144 188 234 284
#     4   9  18  33  49  65  90 121 153 198 253 295
#     4  10  19  33  52  72  98 130 161 197 241 287
#     4   9  17  29  45  65  89 119 155 195 240 290
#     4  10  19  31  48  70  96 129 168 202 235 278
#     4   9  17  29  48  77 112 145 171 193 221 263
#     4  10  19  34  53  71  89 113 151 199 254 312
#     4  10  20  33  48  68  94 123 156 199 247 292
#
# _framework density 17.115480000000002
#
# number of rings (size 3 to 8) (size 9 to 14) (size 15 to 20)
#    0.000    2.533    1.333    1.400    0.000    3.200 
#    1.200    1.333    0.000    2.267    0.000    0.000 
#    0.000    0.000    0.000    0.000    0.000    1.600 
#
# Total GULP energy -1115441.345332 kJ/mol
# GULP energy per Si atom -12393.792726 kJ/mol
# Density = 1.707652 g / cm^3
# Si number density = 17.115480 Si / 1000 Ang^3
#
#
#
# Elastic Constant Matrix: (Units=GPa)
#
#
# Indices 1 2 3 4 5 6 
#
# 1 63.8536 22.4335 31.4379 0.0000 0.0000 0.0000
# 2 22.4335 63.8536 31.4379 0.0000 0.0000 0.0000
# 3 31.4379 31.4379 93.2606 0.0000 0.0000 0.0000
# 4 0.0000 0.0000 0.0000 20.6091 0.0000 0.0000
# 5 0.0000 0.0000 0.0000 0.0000 20.6091 0.0000
# 6 0.0000 0.0000 0.0000 0.0000 0.0000 20.7100
#
#
#
# Elastic Compliance Matrix: (Units=1/GPa)
#
#
# Indices 1 2 3 4 5 6 
#
# 1 0.019753 -0.004390 -0.005179 0.000000 0.000000 0.000000
# 2 -0.004390 0.019753 -0.005179 0.000000 0.000000 0.000000
# 3 -0.005179 -0.005179 0.014214 0.000000 0.000000 0.000000
# 4 0.000000 0.000000 0.000000 0.048522 0.000000 0.000000
# 5 0.000000 0.000000 0.000000 0.000000 0.048522 0.000000
# 6 0.000000 0.000000 0.000000 0.000000 0.000000 0.048286
#
#
# Mechanical properties :
#
#
# Convention : Reuss Voigt Hill
#
# Bulk Modulus (GPa) = 41.28004 43.50961 42.39483
# Shear Modulus (GPa) = 21.13089 21.42954 21.28021
#
# Velocity S-wave (km/s) = 3.51751 3.54228 3.52992
# Velocity P-wave (km/s) = 6.37715 6.49667 6.43719
#
# Compressibility (1/GPa) = 0.02422478
#
# Stress axis : x y z
#
# Youngs Moduli (GPa) = 50.62549 50.62549 70.35237
#
# Poissons Ratio (x) = 0.22225 0.36434
# Poissons Ratio (y) = 0.22225 0.36434
# Poissons Ratio (z) = 0.26218 0.26218
#
# Static dielectric constant tensor:
#      x y z
#    x 3.193920 0.000000 0.000000 
#    y 0.000000 3.193920 0.000000 
#    z 0.000000 0.000000 3.187010 
# 
# 
# High freq. dielectric constant tensor:
#      x y z
#    x 1.655980 0.000000 0.000000 
#    y 0.000000 1.655980 0.000000 
#    z 0.000000 0.000000 1.631990 
# 
# From -- ./inp_files/3241.got.cif
#   From: 2010.03.12/outbox.cif.g09.slc.cpg/sg187_2_cif.got.tgz:3241.got - 2010.04.01 11:58:23.
