data_PCOD8326449
_publ_section_title
;
Structure prediction by ZEFSAII (Michael W. Deem and Ramdas Pophale) SiO2 
 PCOD8326449
Probable space group: P 63 2 2
;
_chemical_formula_sum "Si O2"
_cell_formula_units_Z 36
_cell_length_a 9.765732
_cell_length_b 9.765732
_cell_length_c 23.954085
_cell_angle_alpha 90.000000
_cell_angle_beta 90.000000
_cell_angle_gamma 120.000000
_cell_volume 1978.426049
_symmetry_space_group_name_H-M "P 63 2 2"
_symmetry_group_IT_number 182
_symmetry_cell_setting 'hexagonal'
loop_
_space_group_symop_operation_xyz
x,y,z
x-y,x,1/2+z
-y,x-y,z
-x,-y,1/2+z
-x+y,-x,z
y,-x+y,1/2+z
x-y,-y,-z
-x,-x+y,-z
y,x,-z
-y,-x,1/2-z
-x+y,y,1/2-z
x,x-y,1/2-z
loop_
_atom_site_type_symbol
_atom_site_label
_atom_site_fract_x
_atom_site_fract_y
_atom_site_fract_z
Si Si1 0.000000 0.000000 0.815642
Si Si2 0.812127 0.657912 0.315915
Si Si3 0.967877 0.502899 0.379553
Si Si4 0.333334 0.666667 0.415688
Si Si5 0.333334 0.666668 0.547512
O O1 0.832980 0.975394 0.835751
O O2 0.000000 0.000000 0.750000
O O3 0.819118 0.638236 0.250000
O O4 0.941594 0.631138 0.347634
O O5 0.634773 0.546624 0.334404
O O6 0.849769 0.432972 0.432597
O O7 0.151643 0.578306 0.395248
O O8 0.333334 0.666667 0.481686
#
# Coordination Sequence:
#
# PCOD8326449 Si02
#       5
#     4  12  12   4   4
#     4   9  18  30  48  69 100 137 166 201 258 309
#     4  10  19  35  52  74 105 139 172 210 258 328
#     4  10  21  34  56  80 102 141 181 216 273 320
#     4  12  21  36  55  83 112 129 180 249 262 293
#     4   9  21  39  55  74 106 150 180 210 277 338
#
# _framework density 18.196283000000001
#
# number of rings (size 3 to 8) (size 9 to 14) (size 15 to 20)
#    0.000    2.000    0.000    4.667    0.000    0.000 
#    0.000    5.000    0.000    0.000    0.000   18.667 
#    0.000    0.000    0.000    0.000    0.000    0.000 
#
# Total GULP energy -446125.692364 kJ/mol
# GULP energy per Si atom -12392.380343 kJ/mol
# Density = 1.815487 g / cm^3
# Si number density = 18.196283 Si / 1000 Ang^3
#
#
#
# Elastic Constant Matrix: (Units=GPa)
#
#
# Indices 1 2 3 4 5 6 
#
# 1 75.4320 79.7757 43.3403 0.0020 0.0000 0.0011
# 2 79.7757 75.4349 43.3396 -0.0009 -0.0010 -0.0003
# 3 43.3403 43.3396 109.8645 -0.0003 0.0001 -0.0003
# 4 0.0020 -0.0009 -0.0003 50.1684 -0.0005 0.0005
# 5 0.0000 -0.0010 0.0001 -0.0005 50.1787 -0.0015
# 6 0.0011 -0.0003 -0.0003 0.0005 -0.0015 -2.1710
#
#
#
# Elastic Compliance Matrix: (Units=1/GPa)
#
#
# Indices 1 2 3 4 5 6 
#
# 1 -0.111019 0.119279 -0.003258 0.000007 0.000002 -0.000070
# 2 0.119279 -0.111012 -0.003262 -0.000007 -0.000002 0.000074
# 3 -0.003258 -0.003262 0.011674 0.000000 0.000000 -0.000003
# 4 0.000007 -0.000007 0.000000 0.019933 0.000000 0.000005
# 5 0.000002 -0.000002 0.000000 0.000000 0.019929 -0.000014
# 6 -0.000070 0.000074 -0.000003 0.000005 -0.000014 -0.460607
#
#
# Mechanical properties :
#
#
# Convention : Reuss Voigt Hill
#
# Bulk Modulus (GPa) = 65.95584 65.96027 65.95806
# Shear Modulus (GPa) = -5.87153 25.92026 10.02437
#
# Velocity S-wave (km/s) = -1.79827 3.77832 2.34968
# Velocity P-wave (km/s) = 5.65808 7.44059 6.60970
#
# Compressibility (1/GPa) = 0.01516166
#
# Stress axis : x y z
#
# Youngs Moduli (GPa) = -9.00749 -9.00803 85.66040
#
# Poissons Ratio (x) = 1.07447 0.27905
# Poissons Ratio (y) = 1.07440 0.27942
# Poissons Ratio (z) = -0.02934 -0.02938
#
# Static dielectric constant tensor:
#      x y z
#    x 3.073420 0.000000 0.000000 
#    y 0.000000 3.073280 0.000000 
#    z 0.000000 0.000000 3.186970 
# 
# 
# High freq. dielectric constant tensor:
#      x y z
#    x 1.717860 0.000000 0.000000 
#    y 0.000000 1.717860 0.000000 
#    z 0.000000 0.000000 1.694780 
# 
# From -- ./inp_files/5413.got.cif
#   From: 2010.03.12/outbox.cif.g09.slc.cpg/sg182_3_cif.got.tgz:5413.got - 2010.04.01 11:49:36.
