data_PCOD8326172
_publ_section_title
;
Structure prediction by ZEFSAII (Michael W. Deem and Ramdas Pophale) SiO2 
 PCOD8326172
Probable space group: P 62 2 2
;
_chemical_formula_sum "Si O2"
_cell_formula_units_Z 60
_cell_length_a 19.089337
_cell_length_b 19.089337
_cell_length_c 9.947800
_cell_angle_alpha 90.000000
_cell_angle_beta 90.000000
_cell_angle_gamma 120.000000
_cell_volume 3139.347324
_symmetry_space_group_name_H-M "P 62 2 2"
_symmetry_group_IT_number 180
_symmetry_cell_setting 'hexagonal'
loop_
_space_group_symop_operation_xyz
x,y,z
x-y,x,1/3+z
-y,x-y,2/3+z
-x,-y,z
-x+y,-x,1/3+z
y,-x+y,2/3+z
x-y,-y,-z
-x,-x+y,1/3-z
y,x,2/3-z
-y,-x,2/3-z
-x+y,y,-z
x,x-y,1/3-z
loop_
_atom_site_type_symbol
_atom_site_label
_atom_site_fract_x
_atom_site_fract_y
_atom_site_fract_z
Si Si1 0.170582 0.719212 0.951347
Si Si2 0.097757 0.269149 0.859065
Si Si3 0.450144 0.545008 0.174922
Si Si4 0.082204 0.272444 0.385136
Si Si5 0.813038 0.263651 0.473892
O O1 0.224184 0.775817 0.833334
O O2 0.135619 0.627505 0.908162
O O3 0.094943 0.733894 0.985970
O O4 0.229219 0.741432 0.081580
O O5 0.132397 0.232687 0.745976
O O6 0.121958 0.359384 0.812441
O O7 0.002705 0.214902 0.880075
O O8 0.136821 0.273641 0.000000
O O9 0.500000 0.500000 0.142635
O O10 0.444435 0.555566 0.333334
O O11 0.359258 0.496250 0.122343
O O12 0.145292 0.290584 0.500000
O O13 0.773459 0.226542 0.333334
#
# Coordination Sequence:
#
# PCOD8326172 Si02
#       5
#    12  12  12  12  12
#     4  10  20  38  57  85 118 149 198 244 293 352
#     4  10  20  36  58  82 114 148 187 237 287 344
#     4  11  22  38  62  88 118 159 207 254 303 357
#     4  10  20  34  58  85 112 145 188 238 285 343
#     4  10  22  40  58  86 119 154 200 244 301 356
#
# _framework density 19.112252000000002
#
# number of rings (size 3 to 8) (size 9 to 14) (size 15 to 20)
#    0.000    1.800    2.000    2.400    0.000    0.800 
#    3.600    4.000    0.000    6.000    0.000    0.000 
#    0.000    0.000    0.000    0.000    0.000    0.000 
#
# Total GULP energy -743730.708990 kJ/mol
# GULP energy per Si atom -12395.511817 kJ/mol
# Density = 1.906875 g / cm^3
# Si number density = 19.112252 Si / 1000 Ang^3
#
#
#
# Elastic Constant Matrix: (Units=GPa)
#
#
# Indices 1 2 3 4 5 6 
#
# 1 120.6402 54.1721 41.2944 0.0000 0.0000 0.0000
# 2 54.1721 120.6402 41.2944 0.0000 0.0000 0.0000
# 3 41.2944 41.2944 120.6931 0.0000 0.0000 0.0000
# 4 0.0000 0.0000 0.0000 31.2679 0.0000 0.0000
# 5 0.0000 0.0000 0.0000 0.0000 31.2679 0.0000
# 6 0.0000 0.0000 0.0000 0.0000 0.0000 33.2341
#
#
#
# Elastic Compliance Matrix: (Units=1/GPa)
#
#
# Indices 1 2 3 4 5 6 
#
# 1 0.010934 -0.004111 -0.002335 0.000000 0.000000 0.000000
# 2 -0.004111 0.010934 -0.002335 0.000000 0.000000 0.000000
# 3 -0.002335 -0.002335 0.009883 0.000000 0.000000 0.000000
# 4 0.000000 0.000000 0.000000 0.031982 0.000000 0.000000
# 5 0.000000 0.000000 0.000000 0.000000 0.031982 0.000000
# 6 0.000000 0.000000 0.000000 0.000000 0.000000 0.030090
#
#
# Mechanical properties :
#
#
# Convention : Reuss Voigt Hill
#
# Bulk Modulus (GPa) = 70.46498 70.61059 70.53779
# Shear Modulus (GPa) = 33.76229 34.16818 33.96523
#
# Velocity S-wave (km/s) = 4.20757 4.23278 4.22019
# Velocity P-wave (km/s) = 7.78164 7.80474 7.79320
#
# Compressibility (1/GPa) = 0.01419145
#
# Stress axis : x y z
#
# Youngs Moduli (GPa) = 91.45713 91.45713 101.18395
#
# Poissons Ratio (x) = 0.37595 0.23622
# Poissons Ratio (y) = 0.37595 0.23622
# Poissons Ratio (z) = 0.21351 0.21351
#
# Static dielectric constant tensor:
#      x y z
#    x 3.250050 0.000000 0.000000 
#    y 0.000000 3.250050 0.000000 
#    z 0.000000 0.000000 3.305300 
# 
# 
# High freq. dielectric constant tensor:
#      x y z
#    x 1.734580 0.000000 0.000000 
#    y 0.000000 1.734580 0.000000 
#    z 0.000000 0.000000 1.758420 
# 
# From -- ./inp_files/4807.got.cif
#   From: 2010.03.12/outbox.cif.g09.slc.cpg/sg180_3_cif.got.tgz:4807.got - 2010.04.01 11:35:50.
