data_PCOD8326640
_publ_section_title
;
Structure prediction by ZEFSAII (Michael W. Deem and Ramdas Pophale) SiO2 
 PCOD8326640
Probable space group: P 63 C M
;
_chemical_formula_sum "Si O2"
_cell_formula_units_Z 96
_cell_length_a 14.293006
_cell_length_b 14.293006
_cell_length_c 30.688473
_cell_angle_alpha 90.000000
_cell_angle_beta 90.000000
_cell_angle_gamma 120.000000
_cell_volume 5429.415308
_symmetry_space_group_name_H-M "P 63 C M"
_symmetry_group_IT_number 185
_symmetry_cell_setting 'hexagonal'
loop_
_space_group_symop_operation_xyz
x,y,z
x-y,x,1/2+z
-y,x-y,z
-x,-y,1/2+z
-x+y,-x,z
y,-x+y,1/2+z
-x+y,y,1/2+z
x,x-y,1/2+z
-y,-x,1/2+z
y,x,z
x-y,-y,z
-x,-x+y,z
loop_
_atom_site_type_symbol
_atom_site_label
_atom_site_fract_x
_atom_site_fract_y
_atom_site_fract_z
Si Si1 0.870393 0.124845 0.280930
Si Si2 0.585780 0.776628 0.014393
Si Si3 0.427216 0.878211 0.484917
Si Si4 0.125487 0.252241 0.435116
Si Si5 0.122261 0.241614 0.186086
Si Si6 0.440883 0.877426 0.886558
Si Si7 0.254513 0.129436 0.091170
Si Si8 0.584251 0.790357 0.857831
O O1 0.829366 0.133152 0.231935
O O2 0.827153 0.185208 0.311523
O O3 0.000000 0.180306 0.283544
O O4 0.819190 0.000000 0.295464
O O5 0.494088 0.809296 0.009797
O O6 0.524116 0.647595 0.010635
O O7 0.679139 0.831496 0.978775
O O8 0.640974 0.810316 0.061312
O O9 0.420052 0.832544 0.436039
O O10 0.450670 0.000000 0.483096
O O11 0.189690 0.189690 0.425275
O O12 0.141497 0.331112 0.395413
O O13 0.000000 0.165664 0.440588
O O14 0.135933 0.135933 0.186054
O O15 0.170047 0.303675 0.140246
O O16 0.000000 0.209457 0.186440
O O17 0.482996 0.810220 0.859274
O O18 0.336934 0.872362 0.864252
O O19 0.536072 0.000000 0.886764
O O20 0.184615 0.184615 0.076389
O O21 0.176676 0.000000 0.088848
#
# Coordination Sequence:
#
# PCOD8326640 Si02
#       8
#    12  12  12  12  12  12  12  12
#     4  10  19  33  54  84 117 149 178 212 262 328
#     4  12  23  36  56  76 103 138 182 231 274 309
#     4  11  21  36  53  71  97 134 179 223 262 312
#     4  12  23  36  52  78 112 144 169 204 264 338
#     4   8  15  28  50  78 112 148 182 212 249 312
#     4  11  21  36  53  71  97 134 179 223 262 312
#     4  10  19  33  54  84 117 149 178 212 262 328
#     4  12  23  36  56  76 103 138 182 231 274 309
#
# _framework density 17.681460999999999
#
# number of rings (size 3 to 8) (size 9 to 14) (size 15 to 20)
#    0.000    1.250    2.500    5.500    0.000    2.000 
#    0.000    2.500    0.000    1.500    0.000    7.000 
#    0.000    0.000    0.000    0.000    0.000    0.000 
#
# Total GULP energy -1190135.958520 kJ/mol
# GULP energy per Si atom -12397.249568 kJ/mol
# Density = 1.764122 g / cm^3
# Si number density = 17.681461 Si / 1000 Ang^3
#
#
#
# Elastic Constant Matrix: (Units=GPa)
#
#
# Indices 1 2 3 4 5 6 
#
# 1 82.0801 17.6826 36.1907 0.0000 0.0000 0.0000
# 2 17.6826 82.0801 36.1907 0.0000 0.0000 0.0000
# 3 36.1907 36.1907 119.9089 0.0000 0.0000 0.0000
# 4 0.0000 0.0000 0.0000 20.1740 0.0000 0.0000
# 5 0.0000 0.0000 0.0000 0.0000 20.1740 0.0000
# 6 0.0000 0.0000 0.0000 0.0000 0.0000 32.1988
#
#
#
# Elastic Compliance Matrix: (Units=1/GPa)
#
#
# Indices 1 2 3 4 5 6 
#
# 1 0.014181 -0.001347 -0.003874 0.000000 0.000000 0.000000
# 2 -0.001347 0.014181 -0.003874 0.000000 0.000000 0.000000
# 3 -0.003874 -0.003874 0.010678 0.000000 0.000000 0.000000
# 4 0.000000 0.000000 0.000000 0.049569 0.000000 0.000000
# 5 0.000000 0.000000 0.000000 0.000000 0.049569 0.000000
# 6 0.000000 0.000000 0.000000 0.000000 0.000000 0.031057
#
#
# Mechanical properties :
#
#
# Convention : Reuss Voigt Hill
#
# Bulk Modulus (GPa) = 47.95716 51.57747 49.76731
# Shear Modulus (GPa) = 25.72352 27.44303 26.58328
#
# Velocity S-wave (km/s) = 3.81836 3.94392 3.88165
# Velocity P-wave (km/s) = 6.82800 7.06916 6.94963
#
# Compressibility (1/GPa) = 0.02085194
#
# Stress axis : x y z
#
# Youngs Moduli (GPa) = 70.51497 70.51497 93.65116
#
# Poissons Ratio (x) = 0.09499 0.36277
# Poissons Ratio (y) = 0.09499 0.36277
# Poissons Ratio (z) = 0.27315 0.27315
#
# Static dielectric constant tensor:
#      x y z
#    x 3.197120 0.000000 0.000000 
#    y 0.000000 3.197120 0.000000 
#    z 0.000000 0.000000 3.535320 
# 
# 
# High freq. dielectric constant tensor:
#      x y z
#    x 1.677680 0.000000 0.000000 
#    y 0.000000 1.677680 0.000000 
#    z 0.000000 0.000000 1.675220 
# 
# From -- ./inp_files/2233.got.cif
#   From: 2010.03.12/outbox.cif.g09.slc.cpg/sg185_cif.got.tgz:2233.got - 2010.04.01 11:55:19.
