data_PCOD8326000
_publ_section_title
;
Structure prediction by ZEFSAII (Michael W. Deem and Ramdas Pophale) SiO2 
 PCOD8326000
Probable space group: P 61 2 2
;
_chemical_formula_sum "Si O2"
_cell_formula_units_Z 36
_cell_length_a 7.798884
_cell_length_b 7.798884
_cell_length_c 26.330722
_cell_angle_alpha 90.000000
_cell_angle_beta 90.000000
_cell_angle_gamma 120.000000
_cell_volume 1386.942067
_symmetry_space_group_name_H-M "P 61 2 2"
_symmetry_group_IT_number 178
_symmetry_cell_setting 'hexagonal'
loop_
_space_group_symop_operation_xyz
x,y,z
x-y,x,1/6+z
-y,x-y,1/3+z
-x,-y,1/2+z
-x+y,-x,2/3+z
y,-x+y,5/6+z
x-y,-y,-z
-x,-x+y,2/3-z
y,x,1/3-z
-y,-x,5/6-z
-x+y,y,1/2-z
x,x-y,1/6-z
loop_
_atom_site_type_symbol
_atom_site_label
_atom_site_fract_x
_atom_site_fract_y
_atom_site_fract_z
Si Si1 0.587941 0.805140 0.229609
Si Si2 0.856881 0.462376 0.208828
Si Si3 0.177691 0.161509 0.294350
O O1 0.431515 0.863029 0.250000
O O2 0.556989 0.783047 0.167973
O O3 0.573203 0.621859 0.260470
O O4 0.809346 0.982284 0.237041
O O5 0.679378 0.358755 0.250000
O O6 0.903935 0.301102 0.182518
O O7 0.143157 0.286313 0.250000
O O8 0.000000 0.086309 0.333334
#
# Coordination Sequence:
#
# PCOD8326000 Si02
#       3
#    12  12  12
#     4  12  25  47  75 109 147 193 246 305 371 440
#     4  12  26  46  76 108 147 193 248 307 369 440
#     4  12  26  45  70 103 145 192 243 300 365 436
#
# _framework density 25.956384
#
# number of rings (size 3 to 8) (size 9 to 14) (size 15 to 20)
#    0.000    0.000    0.000   12.000    0.000    5.333 
#    0.000    1.667    0.000    0.000    0.000    0.000 
#    0.000    0.000    0.000    0.000    0.000    0.000 
#
# Total GULP energy -446154.293957 kJ/mol
# GULP energy per Si atom -12393.174832 kJ/mol
# Density = 2.589731 g / cm^3
# Si number density = 25.956384 Si / 1000 Ang^3
#
#
#
# Elastic Constant Matrix: (Units=GPa)
#
#
# Indices 1 2 3 4 5 6 
#
# 1 119.3087 30.4467 49.4098 0.0000 0.0000 0.0000
# 2 30.4467 119.3087 49.4098 0.0000 0.0000 0.0000
# 3 49.4098 49.4098 135.8016 0.0000 0.0000 0.0000
# 4 0.0000 0.0000 0.0000 41.1374 0.0000 0.0000
# 5 0.0000 0.0000 0.0000 0.0000 41.1374 0.0000
# 6 0.0000 0.0000 0.0000 0.0000 0.0000 44.4310
#
#
#
# Elastic Compliance Matrix: (Units=1/GPa)
#
#
# Indices 1 2 3 4 5 6 
#
# 1 0.010020 -0.001233 -0.003197 0.000000 0.000000 0.000000
# 2 -0.001233 0.010020 -0.003197 0.000000 0.000000 0.000000
# 3 -0.003197 -0.003197 0.009690 0.000000 0.000000 0.000000
# 4 0.000000 0.000000 0.000000 0.024309 0.000000 0.000000
# 5 0.000000 0.000000 0.000000 0.000000 0.024309 0.000000
# 6 0.000000 0.000000 0.000000 0.000000 0.000000 0.022507
#
#
# Mechanical properties :
#
#
# Convention : Reuss Voigt Hill
#
# Bulk Modulus (GPa) = 69.07924 70.32795 69.70359
# Shear Modulus (GPa) = 41.34444 41.68469 41.51457
#
# Velocity S-wave (km/s) = 3.99537 4.01178 4.00359
# Velocity P-wave (km/s) = 6.92498 6.97228 6.94867
#
# Compressibility (1/GPa) = 0.01447613
#
# Stress axis : x y z
#
# Youngs Moduli (GPa) = 99.79711 99.79711 103.19744
#
# Poissons Ratio (x) = 0.12306 0.32994
# Poissons Ratio (y) = 0.12306 0.32994
# Poissons Ratio (z) = 0.31907 0.31907
#
# Static dielectric constant tensor:
#      x y z
#    x 4.753190 0.000000 0.000000 
#    y 0.000000 4.753190 0.000000 
#    z 0.000000 0.000000 5.001850 
# 
# 
# High freq. dielectric constant tensor:
#      x y z
#    x 2.040130 0.000000 0.000000 
#    y 0.000000 2.040130 0.000000 
#    z 0.000000 0.000000 2.064400 
# 
# From -- ./inp_files/8489.got.cif
#   From: 2010.03.12/outbox.cif.g09.slc.cpg/sg178_5_cif.got.tgz:8489.got - 2010.04.02 07:02:38.
