data_PCOD8326833
_publ_section_title
;
Structure prediction by ZEFSAII (Michael W. Deem and Ramdas Pophale) SiO2 
 PCOD8326833
Probable space group: P -6 M 2
;
_chemical_formula_sum "Si O2"
_cell_formula_units_Z 90
_cell_length_a 17.178134
_cell_length_b 17.178134
_cell_length_c 20.014157
_cell_angle_alpha 90.000000
_cell_angle_beta 90.000000
_cell_angle_gamma 120.000000
_cell_volume 5114.696948
_symmetry_space_group_name_H-M "P -6 M 2"
_symmetry_group_IT_number 187
_symmetry_cell_setting 'hexagonal'
loop_
_space_group_symop_operation_xyz
x,y,z
-x+y,-x,-z
-y,x-y,z
x,y,-z
-x+y,-x,z
-y,x-y,-z
-y,-x,-z
-x+y,y,-z
x,x-y,-z
-x+y,y,z
x,x-y,z
-y,-x,z
loop_
_atom_site_type_symbol
_atom_site_label
_atom_site_fract_x
_atom_site_fract_y
_atom_site_fract_z
Si Si1 0.585394 0.999770 0.123163
Si Si2 0.834871 0.333174 0.218254
Si Si3 0.999726 0.179491 0.207988
Si Si4 0.152647 0.665291 0.769971
Si Si5 0.387893 0.434996 0.366137
Si Si6 0.334479 0.252626 0.313231
Si Si7 0.281047 0.052265 0.926473
Si Si8 0.156864 0.664836 0.500000
O O1 0.489830 0.979659 0.089499
O O2 0.568819 0.918891 0.172531
O O3 0.621302 0.089709 0.163907
O O4 0.665207 0.021329 0.071355
O O5 0.814939 0.407470 0.249981
O O6 0.745186 0.254815 0.183535
O O7 0.863773 0.292011 0.276938
O O8 0.924421 0.075580 0.215296
O O9 0.981755 0.240079 0.260066
O O10 0.001507 0.212162 0.132095
O O11 0.095584 0.191168 0.225628
O O12 0.184962 0.592481 0.776304
O O13 0.236434 0.763567 0.780612
O O14 0.110997 0.658607 0.697120
O O15 0.496683 0.503318 0.361291
O O16 0.353674 0.328323 0.368391
O O17 0.351345 0.450278 0.434459
O O18 0.310377 0.155189 0.344845
O O19 0.320341 0.160171 0.914117
O O20 0.234788 0.026598 0.000000
O O21 0.233595 0.766406 0.500000
O O22 0.198774 0.599387 0.500000
#
# Coordination Sequence:
#
# PCOD8326833 Si02
#       8
#    12  12  12  12  12  12  12   6
#     4  10  19  31  48  70  97 126 158 200 244 289
#     4  10  17  28  46  70  98 125 155 192 237 289
#     4  10  20  34  51  72  96 125 158 198 248 300
#     4  10  19  31  49  72  99 130 164 204 249 295
#     4  10  19  33  50  73 103 135 168 205 246 290
#     4  10  19  32  52  74 100 129 159 202 251 294
#     4  10  20  34  50  68  93 125 159 196 243 296
#     4  10  21  34  51  74 106 142 174 204 241 288
#
# _framework density 17.596350999999999
#
# number of rings (size 3 to 8) (size 9 to 14) (size 15 to 20)
#    0.000    2.000    2.667    1.667    0.000    3.200 
#    0.000    1.667    0.000    1.333    0.000    0.000 
#    0.000    1.067    0.000    0.000    0.000    0.000 
#
# Total GULP energy -1115006.852650 kJ/mol
# GULP energy per Si atom -12388.965029 kJ/mol
# Density = 1.755630 g / cm^3
# Si number density = 17.596351 Si / 1000 Ang^3
#
#
#
# Elastic Constant Matrix: (Units=GPa)
#
#
# Indices 1 2 3 4 5 6 
#
# 1 103.3811 61.1834 34.5507 0.0000 0.0001 0.0000
# 2 61.1834 103.3811 34.5507 0.0000 -0.0001 0.0000
# 3 34.5507 34.5507 59.4510 0.0000 0.0000 0.0000
# 4 0.0000 0.0000 0.0000 12.6831 0.0000 -0.0001
# 5 0.0001 -0.0001 0.0000 0.0000 12.6831 0.0000
# 6 0.0000 0.0000 0.0000 -0.0001 0.0000 21.0988
#
#
#
# Elastic Compliance Matrix: (Units=1/GPa)
#
#
# Indices 1 2 3 4 5 6 
#
# 1 0.015868 -0.007830 -0.004672 0.000000 0.000000 0.000000
# 2 -0.007830 0.015868 -0.004672 0.000000 0.000000 0.000000
# 3 -0.004672 -0.004672 0.022250 0.000000 0.000000 0.000000
# 4 0.000000 0.000000 0.000000 0.078845 0.000000 0.000001
# 5 0.000000 0.000000 0.000000 0.000000 0.078845 0.000000
# 6 0.000000 0.000000 0.000000 0.000001 0.000000 0.047396
#
#
# Mechanical properties :
#
#
# Convention : Reuss Voigt Hill
#
# Bulk Modulus (GPa) = 50.91447 58.53143 54.72295
# Shear Modulus (GPa) = 16.66859 18.35490 17.51175
#
# Velocity S-wave (km/s) = 3.08112 3.23322 3.15809
# Velocity P-wave (km/s) = 6.45409 6.87560 6.66818
#
# Compressibility (1/GPa) = 0.01964078
#
# Stress axis : x y z
#
# Youngs Moduli (GPa) = 63.01944 63.01944 44.94304
#
# Poissons Ratio (x) = 0.49343 0.20995
# Poissons Ratio (y) = 0.49343 0.20995
# Poissons Ratio (z) = 0.29440 0.29440
#
# Static dielectric constant tensor:
#      x y z
#    x 3.592520 0.000000 0.000000 
#    y 0.000000 3.592520 0.000000 
#    z 0.000000 0.000000 2.975270 
# 
# 
# High freq. dielectric constant tensor:
#      x y z
#    x 1.686060 0.000000 0.000000 
#    y 0.000000 1.686060 0.000000 
#    z 0.000000 0.000000 1.642320 
# 
# From -- ./inp_files/3275.got.cif
#   From: 2010.03.12/outbox.cif.g09.slc.cpg/sg187_2_cif.got.tgz:3275.got - 2010.04.01 11:58:23.
