data_PCOD8326093
_publ_section_title
;
Structure prediction by ZEFSAII (Michael W. Deem and Ramdas Pophale) SiO2 
 PCOD8326093
Probable space group: P 65 2 2
;
_chemical_formula_sum "Si O2"
_cell_formula_units_Z 84
_cell_length_a 18.003410
_cell_length_b 18.003410
_cell_length_c 14.229189
_cell_angle_alpha 90.000000
_cell_angle_beta 90.000000
_cell_angle_gamma 120.000000
_cell_volume 3994.112779
_symmetry_space_group_name_H-M "P 65 2 2"
_symmetry_group_IT_number 179
_symmetry_cell_setting 'hexagonal'
loop_
_space_group_symop_operation_xyz
x,y,z
x-y,x,5/6+z
-y,x-y,2/3+z
-x,-y,1/2+z
-x+y,-x,1/3+z
y,-x+y,1/6+z
x-y,-y,-z
-x,-x+y,1/3-z
y,x,2/3-z
-y,-x,1/6-z
-x+y,y,1/2-z
x,x-y,5/6-z
loop_
_atom_site_type_symbol
_atom_site_label
_atom_site_fract_x
_atom_site_fract_y
_atom_site_fract_z
Si Si1 0.382634 0.617367 0.583334
Si Si2 0.541688 0.513821 0.726495
Si Si3 0.473955 0.181625 0.335364
Si Si4 0.650824 0.301647 0.250000
Si Si5 0.075258 0.137119 0.407474
Si Si6 0.632116 0.646320 0.223638
Si Si7 0.898284 0.320779 0.390449
Si Si8 0.861475 0.189759 0.866836
O O1 0.335477 0.633776 0.667861
O O2 0.333561 0.515327 0.575847
O O3 0.528606 0.528606 0.833334
O O4 0.618775 0.495717 0.719704
O O5 0.461705 0.426264 0.686552
O O6 0.561507 0.596063 0.666112
O O7 0.452888 0.226444 0.416667
O O8 0.549394 0.246024 0.267334
O O9 0.384581 0.128380 0.281267
O O10 0.080424 0.092435 0.506968
O O11 0.149722 0.149722 0.333334
O O12 0.089323 0.229703 0.433501
O O13 0.634471 0.634471 0.333334
O O14 0.693880 0.627782 0.156457
O O15 0.658116 0.745740 0.218050
O O16 0.873642 0.236848 0.327798
#
# Coordination Sequence:
#
# PCOD8326093 Si02
#       8
#     6  12  12   6  12  12  12  12
#     4  12  26  41  64  92 136 192 242 292 347 418
#     4  11  24  42  67  96 140 187 237 282 357 432
#     4  12  25  40  67 101 136 184 232 293 359 413
#     4  12  26  45  62  98 146 180 250 302 341 414
#     4  10  24  48  76 110 145 180 227 292 380 462
#     4  11  25  45  69  96 139 192 240 290 354 420
#     4  12  24  45  66  97 138 190 240 292 363 418
#     4  12  25  42  72 108 141 182 236 309 353 429
#
# _framework density 21.030951999999999
#
# number of rings (size 3 to 8) (size 9 to 14) (size 15 to 20)
#    0.000    0.571    5.000    2.571    2.000    2.286 
#    0.000    3.571    0.000    0.000    0.000    0.000 
#    0.000    0.000    0.000    0.000    0.000    0.000 
#
# Total GULP energy -1040920.256095 kJ/mol
# GULP energy per Si atom -12391.907811 kJ/mol
# Density = 2.098308 g / cm^3
# Si number density = 21.030952 Si / 1000 Ang^3
#
#
#
# Elastic Constant Matrix: (Units=GPa)
#
#
# Indices 1 2 3 4 5 6 
#
# 1 114.3174 20.7094 36.8638 0.0000 0.0000 0.0000
# 2 20.7094 114.3174 36.8638 0.0000 0.0000 0.0000
# 3 36.8638 36.8638 96.6002 0.0000 0.0000 0.0000
# 4 0.0000 0.0000 0.0000 25.5136 0.0000 0.0000
# 5 0.0000 0.0000 0.0000 0.0000 25.5136 0.0000
# 6 0.0000 0.0000 0.0000 0.0000 0.0000 46.8040
#
#
#
# Elastic Compliance Matrix: (Units=1/GPa)
#
#
# Indices 1 2 3 4 5 6 
#
# 1 0.010019 -0.000664 -0.003570 0.000000 0.000000 0.000000
# 2 -0.000664 0.010019 -0.003570 0.000000 0.000000 0.000000
# 3 -0.003570 -0.003570 0.013077 0.000000 0.000000 0.000000
# 4 0.000000 0.000000 0.000000 0.039195 0.000000 0.000000
# 5 0.000000 0.000000 0.000000 0.000000 0.039195 0.000000
# 6 0.000000 0.000000 0.000000 0.000000 0.000000 0.021366
#
#
# Mechanical properties :
#
#
# Convention : Reuss Voigt Hill
#
# Bulk Modulus (GPa) = 57.12019 57.12320 57.12169
# Shear Modulus (GPa) = 32.40156 34.95280 33.67718
#
# Velocity S-wave (km/s) = 3.92938 4.08115 4.00598
# Velocity P-wave (km/s) = 6.91417 7.03052 6.97259
#
# Compressibility (1/GPa) = 0.01750694
#
# Stress axis : x y z
#
# Youngs Moduli (GPa) = 99.80976 99.80976 76.47176
#
# Poissons Ratio (x) = 0.06625 0.27301
# Poissons Ratio (y) = 0.06625 0.27301
# Poissons Ratio (z) = 0.35633 0.35633
#
# Static dielectric constant tensor:
#      x y z
#    x 4.170180 0.000000 0.000000 
#    y 0.000000 4.170180 0.000000 
#    z 0.000000 0.000000 3.964340 
# 
# 
# High freq. dielectric constant tensor:
#      x y z
#    x 1.825890 0.000000 0.000000 
#    y 0.000000 1.825890 0.000000 
#    z 0.000000 0.000000 1.837220 
# 
# From -- ./inp_files/6144.got.cif
#   From: 2010.03.12/outbox.cif.g09.slc.cpg/sg179_4_cif.got.tgz:6144.got - 2010.04.02 07:08:42.
