data_PCOD8326173
_publ_section_title
;
Structure prediction by ZEFSAII (Michael W. Deem and Ramdas Pophale) SiO2 
 PCOD8326173
Probable space group: P 62 2 2
;
_chemical_formula_sum "Si O2"
_cell_formula_units_Z 72
_cell_length_a 14.075494
_cell_length_b 14.075494
_cell_length_c 19.796776
_cell_angle_alpha 90.000000
_cell_angle_beta 90.000000
_cell_angle_gamma 120.000000
_cell_volume 3396.662470
_symmetry_space_group_name_H-M "P 62 2 2"
_symmetry_group_IT_number 180
_symmetry_cell_setting 'hexagonal'
loop_
_space_group_symop_operation_xyz
x,y,z
x-y,x,1/3+z
-y,x-y,2/3+z
-x,-y,z
-x+y,-x,1/3+z
y,-x+y,2/3+z
x-y,-y,-z
-x,-x+y,1/3-z
y,x,2/3-z
-y,-x,2/3-z
-x+y,y,-z
x,x-y,1/3-z
loop_
_atom_site_type_symbol
_atom_site_label
_atom_site_fract_x
_atom_site_fract_y
_atom_site_fract_z
Si Si1 0.296331 0.148166 0.666667
Si Si2 0.047969 0.620632 0.480630
Si Si3 0.059908 0.351639 0.602621
Si Si4 0.728668 0.523891 0.890809
Si Si5 0.417962 0.835923 0.000000
Si Si6 0.802713 0.486197 0.259103
Si Si7 0.739854 0.666787 0.630771
O O1 0.366369 0.149733 0.601599
O O2 0.224855 0.206429 0.649179
O O3 0.024421 0.687630 0.539423
O O4 0.982301 0.614945 0.414196
O O5 0.000000 0.500000 0.509163
O O6 0.175202 0.671047 0.459983
O O7 0.092968 0.475792 0.621193
O O8 0.163963 0.336291 0.588289
O O9 0.000000 0.273890 0.666667
O O10 0.626398 0.432950 0.933711
O O11 0.690347 0.534506 0.815871
O O12 0.322481 0.769835 0.054862
O O13 0.885165 0.586046 0.305464
#
# Coordination Sequence:
#
# PCOD8326173 Si02
#       7
#     6  12  12  12   6  12  12
#     4  10  23  42  59  83 118 157 209 265 314 372
#     4  11  22  35  58  90 125 165 205 250 312 372
#     4  11  21  38  60  87 121 162 208 260 315 372
#     4  10  22  37  58  85 124 162 206 252 305 381
#     4  10  20  34  58  87 126 161 206 253 307 372
#     4  10  21  37  58  89 122 167 205 250 310 376
#     4  10  24  39  61  86 121 161 208 266 312 377
#
# _framework density 21.197279000000002
#
# number of rings (size 3 to 8) (size 9 to 14) (size 15 to 20)
#    0.000    1.667    0.000    5.250    9.333    0.667 
#    0.000    2.083    0.000    0.000    0.000    4.667 
#    0.000    0.000    0.000    0.000    0.000    0.000 
#
# Total GULP energy -892095.283832 kJ/mol
# GULP energy per Si atom -12390.212275 kJ/mol
# Density = 2.114903 g / cm^3
# Si number density = 21.197279 Si / 1000 Ang^3
#
#
#
# Elastic Constant Matrix: (Units=GPa)
#
#
# Indices 1 2 3 4 5 6 
#
# 1 82.7076 37.5788 12.4967 0.0000 0.0000 0.0000
# 2 37.5788 82.7076 12.4967 0.0000 0.0000 0.0000
# 3 12.4967 12.4967 80.5012 0.0000 0.0000 0.0000
# 4 0.0000 0.0000 0.0000 24.4734 0.0000 0.0000
# 5 0.0000 0.0000 0.0000 0.0000 24.4734 0.0000
# 6 0.0000 0.0000 0.0000 0.0000 0.0000 22.5644
#
#
#
# Elastic Compliance Matrix: (Units=1/GPa)
#
#
# Indices 1 2 3 4 5 6 
#
# 1 0.015375 -0.006784 -0.001334 0.000000 0.000000 0.000000
# 2 -0.006784 0.015375 -0.001334 0.000000 0.000000 0.000000
# 3 -0.001334 -0.001334 0.012836 0.000000 0.000000 0.000000
# 4 0.000000 0.000000 0.000000 0.040861 0.000000 0.000000
# 5 0.000000 0.000000 0.000000 0.000000 0.040861 0.000000
# 6 0.000000 0.000000 0.000000 0.000000 0.000000 0.044318
#
#
# Mechanical properties :
#
#
# Convention : Reuss Voigt Hill
#
# Bulk Modulus (GPa) = 40.51355 41.22898 40.87127
# Shear Modulus (GPa) = 25.41235 26.52519 25.96877
#
# Velocity S-wave (km/s) = 3.46620 3.54128 3.50394
# Velocity P-wave (km/s) = 5.93072 6.01774 5.97439
#
# Compressibility (1/GPa) = 0.02468310
#
# Stress axis : x y z
#
# Youngs Moduli (GPa) = 65.04191 65.04191 77.90460
#
# Poissons Ratio (x) = 0.44125 0.10389
# Poissons Ratio (y) = 0.44125 0.10389
# Poissons Ratio (z) = 0.08674 0.08674
#
# Static dielectric constant tensor:
#      x y z
#    x 3.827380 0.000000 0.000000 
#    y 0.000000 3.827380 0.000000 
#    z 0.000000 0.000000 3.969800 
# 
# 
# High freq. dielectric constant tensor:
#      x y z
#    x 1.812640 0.000000 0.000000 
#    y 0.000000 1.812640 0.000000 
#    z 0.000000 0.000000 1.850770 
# 
# From -- ./inp_files/9211.got.cif
#   From: 2010.03.12/outbox.cif.g09.slc.cpg/sg180_5_cif.got.tgz:9211.got - 2010.04.01 11:35:50.
