data_PCOD8326502
_publ_section_title
;
Structure prediction by ZEFSAII (Michael W. Deem and Ramdas Pophale) SiO2 
 PCOD8326502
Probable space group: P 63 2 2
;
_chemical_formula_sum "Si O2"
_cell_formula_units_Z 72
_cell_length_a 14.224452
_cell_length_b 14.224452
_cell_length_c 18.924059
_cell_angle_alpha 90.000000
_cell_angle_beta 90.000000
_cell_angle_gamma 120.000000
_cell_volume 3316.011388
_symmetry_space_group_name_H-M "P 63 2 2"
_symmetry_group_IT_number 182
_symmetry_cell_setting 'hexagonal'
loop_
_space_group_symop_operation_xyz
x,y,z
x-y,x,1/2+z
-y,x-y,z
-x,-y,1/2+z
-x+y,-x,z
y,-x+y,1/2+z
x-y,-y,-z
-x,-x+y,-z
y,x,-z
-y,-x,1/2-z
-x+y,y,1/2-z
x,x-y,1/2-z
loop_
_atom_site_type_symbol
_atom_site_label
_atom_site_fract_x
_atom_site_fract_y
_atom_site_fract_z
Si Si1 0.570004 0.480634 0.171960
Si Si2 0.810152 0.570367 0.133102
Si Si3 0.227070 0.801414 0.469475
Si Si4 0.438835 0.915194 0.060345
Si Si5 0.061167 0.186163 0.073973
Si Si6 0.082608 0.883528 0.830526
O O1 0.527884 0.472117 0.250000
O O2 0.699277 0.535268 0.174394
O O3 0.523219 0.363970 0.135387
O O4 0.525334 0.550572 0.133757
O O5 0.905405 0.681570 0.168786
O O6 0.796441 0.589748 0.052119
O O7 0.189144 0.680572 0.442506
O O8 0.350726 0.879746 0.447055
O O9 0.157245 0.849914 0.436663
O O10 0.452686 0.000000 0.000000
O O11 0.111806 0.124399 0.118626
O O12 0.976089 0.190238 0.129006
O O13 0.000000 0.127039 0.000000
O O14 0.078939 0.921062 0.750000
#
# Coordination Sequence:
#
# PCOD8326502 Si02
#       6
#    12  12  12  12  12  12
#     4  12  25  42  67 103 139 180 217 272 344 399
#     4  12  23  42  68 100 139 172 222 277 331 400
#     4  12  24  43  71 104 128 172 229 274 332 386
#     4  12  24  44  70  97 138 173 221 276 327 402
#     4  12  25  43  69  94 131 175 223 274 324 392
#     4  12  26  44  65  97 135 176 220 273 333 394
#
# _framework density 21.712834000000001
#
# number of rings (size 3 to 8) (size 9 to 14) (size 15 to 20)
#    0.000    0.000    5.000    6.000    0.000    0.000 
#    0.000    2.500    0.000    0.000    0.000    0.000 
#    0.000    0.000    0.000    0.000    0.000    0.000 
#
# Total GULP energy -892804.833130 kJ/mol
# GULP energy per Si atom -12400.067127 kJ/mol
# Density = 2.166341 g / cm^3
# Si number density = 21.712834 Si / 1000 Ang^3
#
#
#
# Elastic Constant Matrix: (Units=GPa)
#
#
# Indices 1 2 3 4 5 6 
#
# 1 91.5056 16.6929 30.6615 0.0000 0.0000 0.0000
# 2 16.6929 91.5056 30.6615 0.0000 0.0000 0.0000
# 3 30.6615 30.6615 133.7403 0.0000 0.0000 0.0000
# 4 0.0000 0.0000 0.0000 27.7464 0.0000 0.0000
# 5 0.0000 0.0000 0.0000 0.0000 27.7464 0.0000
# 6 0.0000 0.0000 0.0000 0.0000 0.0000 37.4063
#
#
#
# Elastic Compliance Matrix: (Units=1/GPa)
#
#
# Indices 1 2 3 4 5 6 
#
# 1 0.011995 -0.001372 -0.002435 0.000000 0.000000 0.000000
# 2 -0.001372 0.011995 -0.002435 0.000000 0.000000 0.000000
# 3 -0.002435 -0.002435 0.008594 0.000000 0.000000 0.000000
# 4 0.000000 0.000000 0.000000 0.036041 0.000000 0.000000
# 5 0.000000 0.000000 0.000000 0.000000 0.036041 0.000000
# 6 0.000000 0.000000 0.000000 0.000000 0.000000 0.026733
#
#
# Mechanical properties :
#
#
# Convention : Reuss Voigt Hill
#
# Bulk Modulus (GPa) = 49.75731 52.53148 51.14439
# Shear Modulus (GPa) = 33.20432 34.49551 33.84991
#
# Velocity S-wave (km/s) = 3.91480 3.99019 3.95268
# Velocity P-wave (km/s) = 6.58787 6.74352 6.66615
#
# Compressibility (1/GPa) = 0.02009755
#
# Stress axis : x y z
#
# Youngs Moduli (GPa) = 83.37064 83.37064 116.36244
#
# Poissons Ratio (x) = 0.11439 0.28338
# Poissons Ratio (y) = 0.11439 0.28338
# Poissons Ratio (z) = 0.20304 0.20304
#
# Static dielectric constant tensor:
#      x y z
#    x 4.091550 0.000000 0.000000 
#    y 0.000000 4.091550 0.000000 
#    z 0.000000 0.000000 3.479970 
# 
# 
# High freq. dielectric constant tensor:
#      x y z
#    x 1.858950 0.000000 0.000000 
#    y 0.000000 1.858950 0.000000 
#    z 0.000000 0.000000 1.857400 
# 
# From -- ./inp_files/4342.got.cif
#   From: 2010.03.12/outbox.cif.g09.slc.cpg/sg182_3_cif.got.tgz:4342.got - 2010.04.01 11:49:36.
