data_PCOD8326619
_publ_section_title
;
Structure prediction by ZEFSAII (Michael W. Deem and Ramdas Pophale) SiO2 
 PCOD8326619
Probable space group: P 6 C C
;
_chemical_formula_sum "Si O2"
_cell_formula_units_Z 48
_cell_length_a 16.274819
_cell_length_b 16.274819
_cell_length_c 9.142606
_cell_angle_alpha 90.000000
_cell_angle_beta 90.000000
_cell_angle_gamma 120.000000
_cell_volume 2097.166784
_symmetry_space_group_name_H-M "P 6 C C"
_symmetry_group_IT_number 184
_symmetry_cell_setting 'hexagonal'
loop_
_space_group_symop_operation_xyz
x,y,z
x-y,x,z
-y,x-y,z
-x,-y,z
-x+y,-x,z
y,-x+y,z
-x+y,y,1/2+z
x,x-y,1/2+z
-y,-x,1/2+z
y,x,1/2+z
x-y,-y,1/2+z
-x,-x+y,1/2+z
loop_
_atom_site_type_symbol
_atom_site_label
_atom_site_fract_x
_atom_site_fract_y
_atom_site_fract_z
Si Si1 0.299225 0.992626 0.214200
Si Si2 0.653238 0.494286 0.157651
Si Si3 0.170860 0.495086 0.321062
Si Si4 0.961372 0.790966 0.959578
O O1 0.294365 0.909615 0.315786
O O2 0.253478 0.047018 0.299528
O O3 0.404837 0.065196 0.165816
O O4 0.235710 0.943599 0.072036
O O5 0.731925 0.488750 0.253822
O O6 0.552206 0.418403 0.224031
O O7 0.659838 0.470103 0.988649
O O8 0.883329 0.820689 0.982606
#
# Coordination Sequence:
#
# PCOD8326619 Si02
#       4
#    12  12  12  12
#     4  12  27  44  75 104 142 188 244 294 353 422
#     4  12  27  47  74 107 147 190 238 294 355 422
#     4  12  27  47  74 107 147 190 238 294 355 422
#     4  12  25  46  71 106 142 188 236 298 361 426
#
# _framework density 22.888021999999999
#
# number of rings (size 3 to 8) (size 9 to 14) (size 15 to 20)
#    0.000    0.000    2.500    7.500    7.000    2.000 
#    0.000    2.500    0.000    0.000    0.000    0.000 
#    0.000    0.000    0.000    0.000    0.000    0.000 
#
# Total GULP energy -595646.229841 kJ/mol
# GULP energy per Si atom -12409.296455 kJ/mol
# Density = 2.283593 g / cm^3
# Si number density = 22.888022 Si / 1000 Ang^3
#
#
#
# Elastic Constant Matrix: (Units=GPa)
#
#
# Indices 1 2 3 4 5 6 
#
# 1 90.2072 17.0497 18.0755 0.0000 0.0000 0.0000
# 2 17.0497 90.2072 18.0755 0.0000 0.0000 0.0000
# 3 18.0755 18.0755 124.1817 0.0000 0.0000 0.0000
# 4 0.0000 0.0000 0.0000 39.0831 0.0000 0.0000
# 5 0.0000 0.0000 0.0000 0.0000 39.0831 0.0000
# 6 0.0000 0.0000 0.0000 0.0000 0.0000 36.5787
#
#
#
# Elastic Compliance Matrix: (Units=1/GPa)
#
#
# Indices 1 2 3 4 5 6 
#
# 1 0.011737 -0.001932 -0.001427 0.000000 0.000000 0.000000
# 2 -0.001932 0.011737 -0.001427 0.000000 0.000000 0.000000
# 3 -0.001427 -0.001427 0.008468 0.000000 0.000000 0.000000
# 4 0.000000 0.000000 0.000000 0.025587 0.000000 0.000000
# 5 0.000000 0.000000 0.000000 0.000000 0.025587 0.000000
# 6 0.000000 0.000000 0.000000 0.000000 0.000000 0.027338
#
#
# Mechanical properties :
#
#
# Convention : Reuss Voigt Hill
#
# Bulk Modulus (GPa) = 44.70553 45.66637 45.18595
# Shear Modulus (GPa) = 39.22111 39.70867 39.46489
#
# Velocity S-wave (km/s) = 4.14407 4.16974 4.15693
# Velocity P-wave (km/s) = 6.51709 6.57098 6.54409
#
# Compressibility (1/GPa) = 0.02236860
#
# Stress axis : x y z
#
# Youngs Moduli (GPa) = 85.20228 85.20228 118.08936
#
# Poissons Ratio (x) = 0.16464 0.16852
# Poissons Ratio (y) = 0.16464 0.16852
# Poissons Ratio (z) = 0.12159 0.12159
#
# Static dielectric constant tensor:
#      x y z
#    x 4.176100 0.000000 0.000000 
#    y 0.000000 4.176100 0.000000 
#    z 0.000000 0.000000 4.201650 
# 
# 
# High freq. dielectric constant tensor:
#      x y z
#    x 1.913730 0.000000 0.000000 
#    y 0.000000 1.913730 0.000000 
#    z 0.000000 0.000000 1.919250 
# 
# From -- ./inp_files/188.got.cif
#   From: 2010.03.12/outbox.cif.g09.slc.cpg/sg184_cif.got.tgz:188.got - 2010.04.01 11:54:36.
