data_PCOD8326443
_publ_section_title
;
Structure prediction by ZEFSAII (Michael W. Deem and Ramdas Pophale) SiO2 
 PCOD8326443
Probable space group: P 63 2 2
;
_chemical_formula_sum "Si O2"
_cell_formula_units_Z 52
_cell_length_a 12.833436
_cell_length_b 12.833436
_cell_length_c 21.710295
_cell_angle_alpha 90.000000
_cell_angle_beta 90.000000
_cell_angle_gamma 120.000000
_cell_volume 3096.579645
_symmetry_space_group_name_H-M "P 63 2 2"
_symmetry_group_IT_number 182
_symmetry_cell_setting 'hexagonal'
loop_
_space_group_symop_operation_xyz
x,y,z
x-y,x,1/2+z
-y,x-y,z
-x,-y,1/2+z
-x+y,-x,z
y,-x+y,1/2+z
x-y,-y,-z
-x,-x+y,-z
y,x,-z
-y,-x,1/2-z
-x+y,y,1/2-z
x,x-y,1/2-z
loop_
_atom_site_type_symbol
_atom_site_label
_atom_site_fract_x
_atom_site_fract_y
_atom_site_fract_z
Si Si1 0.994144 0.748182 0.433361
Si Si2 0.000000 0.000000 0.320341
Si Si3 0.092669 0.427867 0.822790
Si Si4 0.999090 0.199130 0.394263
Si Si5 0.332143 0.422088 0.817104
O O1 0.988330 0.668229 0.374920
O O2 0.875137 0.761272 0.439790
O O3 0.000000 0.692439 0.500000
O O4 0.116348 0.876011 0.427782
O O5 0.896775 0.869523 0.340621
O O6 0.000000 0.000000 0.250000
O O7 0.228803 0.456174 0.827014
O O8 0.085263 0.545962 0.836812
O O9 0.045377 0.382070 0.753385
O O10 0.997822 0.312444 0.362815
#
# Coordination Sequence:
#
# PCOD8326443 Si02
#       5
#    12   4  12  12  12
#     4  10  19  32  46  69  98 128 158 189 236 292
#     4   9  18  24  43  74 106 120 150 196 236 289
#     4   9  18  30  49  69  92 120 151 201 237 279
#     4   9  19  29  48  70  96 129 153 195 239 286
#     4   9  17  31  49  71  92 116 159 196 247 279
#
# _framework density 16.792721
#
# number of rings (size 3 to 8) (size 9 to 14) (size 15 to 20)
#    0.000    2.769    0.000    1.615    9.692    1.846 
#    0.000    4.615    0.000    0.923    0.000    0.000 
#    0.000    0.000    0.000    0.000    0.000    0.000 
#
# Total GULP energy -644393.472533 kJ/mol
# GULP energy per Si atom -12392.182164 kJ/mol
# Density = 1.675450 g / cm^3
# Si number density = 16.792721 Si / 1000 Ang^3
#
#
#
# Elastic Constant Matrix: (Units=GPa)
#
#
# Indices 1 2 3 4 5 6 
#
# 1 71.4887 19.9019 37.4655 0.0000 0.0000 0.0000
# 2 19.9019 71.4887 37.4655 0.0000 0.0000 0.0000
# 3 37.4655 37.4655 114.7817 0.0000 0.0000 0.0000
# 4 0.0000 0.0000 0.0000 15.3580 0.0000 0.0000
# 5 0.0000 0.0000 0.0000 0.0000 15.3580 0.0000
# 6 0.0000 0.0000 0.0000 0.0000 0.0000 25.7934
#
#
#
# Elastic Compliance Matrix: (Units=1/GPa)
#
#
# Indices 1 2 3 4 5 6 
#
# 1 0.017163 -0.002222 -0.004877 0.000000 0.000000 0.000000
# 2 -0.002222 0.017163 -0.004877 0.000000 0.000000 0.000000
# 3 -0.004877 -0.004877 0.011896 0.000000 0.000000 0.000000
# 4 0.000000 0.000000 0.000000 0.065113 0.000000 0.000000
# 5 0.000000 0.000000 0.000000 0.000000 0.065113 0.000000
# 6 0.000000 0.000000 0.000000 0.000000 0.000000 0.038770
#
#
# Mechanical properties :
#
#
# Convention : Reuss Voigt Hill
#
# Bulk Modulus (GPa) = 44.90358 49.71388 47.30873
# Shear Modulus (GPa) = 20.27655 22.16362 21.22008
#
# Velocity S-wave (km/s) = 3.47862 3.63689 3.55864
# Velocity P-wave (km/s) = 6.55228 6.87784 6.71703
#
# Compressibility (1/GPa) = 0.02226994
#
# Stress axis : x y z
#
# Youngs Moduli (GPa) = 58.26626 58.26626 84.06373
#
# Poissons Ratio (x) = 0.12948 0.40995
# Poissons Ratio (y) = 0.12948 0.40995
# Poissons Ratio (z) = 0.28414 0.28414
#
# Static dielectric constant tensor:
#      x y z
#    x 2.968610 0.000000 0.000000 
#    y 0.000000 2.968610 0.000000 
#    z 0.000000 0.000000 3.167130 
# 
# 
# High freq. dielectric constant tensor:
#      x y z
#    x 1.626140 0.000000 0.000000 
#    y 0.000000 1.626140 0.000000 
#    z 0.000000 0.000000 1.652750 
# 
# From -- ./inp_files/3348.got.cif
#   From: 2010.03.12/outbox.cif.g09.slc.cpg/sg182_2_cif.got.tgz:3348.got - 2010.04.01 11:49:36.
