data_PCOD8326112
_publ_section_title
;
Structure prediction by ZEFSAII (Michael W. Deem and Ramdas Pophale) SiO2 
 PCOD8326112
Probable space group: P 65 2 2
;
_chemical_formula_sum "Si O2"
_cell_formula_units_Z 54
_cell_length_a 16.231079
_cell_length_b 16.231079
_cell_length_c 11.094719
_cell_angle_alpha 90.000000
_cell_angle_beta 90.000000
_cell_angle_gamma 120.000000
_cell_volume 2531.288942
_symmetry_space_group_name_H-M "P 65 2 2"
_symmetry_group_IT_number 179
_symmetry_cell_setting 'hexagonal'
loop_
_space_group_symop_operation_xyz
x,y,z
x-y,x,5/6+z
-y,x-y,2/3+z
-x,-y,1/2+z
-x+y,-x,1/3+z
y,-x+y,1/6+z
x-y,-y,-z
-x,-x+y,1/3-z
y,x,2/3-z
-y,-x,1/6-z
-x+y,y,1/2-z
x,x-y,5/6-z
loop_
_atom_site_type_symbol
_atom_site_label
_atom_site_fract_x
_atom_site_fract_y
_atom_site_fract_z
Si Si1 0.586473 0.586473 0.333334
Si Si2 0.724031 0.447055 0.111484
Si Si3 0.520277 0.382555 0.408641
Si Si4 0.962190 0.315368 0.918271
Si Si5 0.153231 0.768560 0.782205
O O1 0.568912 0.480074 0.331441
O O2 0.644053 0.644885 0.451684
O O3 0.611413 0.388588 0.083334
O O4 0.735031 0.470062 0.250000
O O5 0.764944 0.380491 0.057196
O O6 0.773962 0.548720 0.050276
O O7 0.459501 0.380815 0.525118
O O8 0.448132 0.292913 0.329050
O O9 0.880332 0.203232 0.921120
O O10 0.047073 0.320868 0.000181
#
# Coordination Sequence:
#
# PCOD8326112 Si02
#       5
#     6  12  12  12  12
#     4  12  24  40  68  94 134 176 222 274 344 406
#     4  12  24  37  59  94 135 183 229 271 330 408
#     4  12  24  42  65  97 137 180 224 278 336 412
#     4  12  27  43  66  95 136 181 230 290 338 413
#     4  12  26  43  65  93 135 179 234 280 350 399
#
# _framework density 21.333003000000001
#
# number of rings (size 3 to 8) (size 9 to 14) (size 15 to 20)
#    0.000    0.000    6.667    4.000    0.000    0.000 
#    0.000    0.000    0.000    0.000    0.000    0.000 
#   40.000    0.000    0.000    0.000    0.000    0.000 
#
# Total GULP energy -669329.496385 kJ/mol
# GULP energy per Si atom -12394.990674 kJ/mol
# Density = 2.128445 g / cm^3
# Si number density = 21.333003 Si / 1000 Ang^3
#
#
#
# Elastic Constant Matrix: (Units=GPa)
#
#
# Indices 1 2 3 4 5 6 
#
# 1 79.9294 58.2603 13.9006 0.0000 0.0000 0.0000
# 2 58.2603 79.9294 13.9006 0.0000 0.0000 0.0000
# 3 13.9006 13.9006 91.0923 0.0000 0.0000 0.0000
# 4 0.0000 0.0000 0.0000 20.3239 0.0000 0.0000
# 5 0.0000 0.0000 0.0000 0.0000 20.3239 0.0000
# 6 0.0000 0.0000 0.0000 0.0000 0.0000 10.8346
#
#
#
# Elastic Compliance Matrix: (Units=1/GPa)
#
#
# Indices 1 2 3 4 5 6 
#
# 1 0.026807 -0.019341 -0.001139 0.000000 0.000000 0.000000
# 2 -0.019341 0.026807 -0.001139 0.000000 0.000000 0.000000
# 3 -0.001139 -0.001139 0.011326 0.000000 0.000000 0.000000
# 4 0.000000 0.000000 0.000000 0.049203 0.000000 0.000000
# 5 0.000000 0.000000 0.000000 0.000000 0.049203 0.000000
# 6 0.000000 0.000000 0.000000 0.000000 0.000000 0.092297
#
#
# Mechanical properties :
#
#
# Convention : Reuss Voigt Hill
#
# Bulk Modulus (GPa) = 46.08334 47.00826 46.54580
# Shear Modulus (GPa) = 16.33364 21.28911 18.81138
#
# Velocity S-wave (km/s) = 2.77004 3.16245 2.97273
# Velocity P-wave (km/s) = 5.64621 5.95131 5.80076
#
# Compressibility (1/GPa) = 0.02169982
#
# Stress axis : x y z
#
# Youngs Moduli (GPa) = 37.30354 37.30354 88.29576
#
# Poissons Ratio (x) = 0.72151 0.10059
# Poissons Ratio (y) = 0.72151 0.10059
# Poissons Ratio (z) = 0.04250 0.04250
#
# Static dielectric constant tensor:
#      x y z
#    x 4.084950 0.000000 0.000000 
#    y 0.000000 4.084950 0.000000 
#    z 0.000000 0.000000 3.418530 
# 
# 
# High freq. dielectric constant tensor:
#      x y z
#    x 1.814850 0.000000 0.000000 
#    y 0.000000 1.814850 0.000000 
#    z 0.000000 0.000000 1.857190 
# 
# From -- ./inp_files/4513.got.cif
#   From: 2010.03.12/outbox.cif.g09.slc.cpg/sg179_3_cif.got.tgz:4513.got - 2010.04.02 07:08:42.
