data_PCOD8326787
_publ_section_title
;
Structure prediction by ZEFSAII (Michael W. Deem and Ramdas Pophale) SiO2 
 PCOD8326787
Probable space group: P 63 M C
;
_chemical_formula_sum "Si O2"
_cell_formula_units_Z 72
_cell_length_a 22.054592
_cell_length_b 22.054592
_cell_length_c 9.282350
_cell_angle_alpha 90.000000
_cell_angle_beta 90.000000
_cell_angle_gamma 120.000000
_cell_volume 3910.088862
_symmetry_space_group_name_H-M "P 63 M C"
_symmetry_group_IT_number 186
_symmetry_cell_setting 'hexagonal'
loop_
_space_group_symop_operation_xyz
x,y,z
x-y,x,1/2+z
-y,x-y,z
-x,-y,1/2+z
-x+y,-x,z
y,-x+y,1/2+z
-x+y,y,z
x,x-y,z
-y,-x,z
y,x,1/2+z
x-y,-y,1/2+z
-x,-x+y,1/2+z
loop_
_atom_site_type_symbol
_atom_site_label
_atom_site_fract_x
_atom_site_fract_y
_atom_site_fract_z
Si Si1 0.272843 0.205364 0.295570
Si Si2 0.350559 0.944809 0.838730
Si Si3 0.193576 0.666083 0.357977
Si Si4 0.714499 0.570129 0.591563
Si Si5 0.598425 0.059919 0.031056
Si Si6 0.203180 0.931960 0.125452
O O1 0.279496 0.139748 0.235545
O O2 0.345583 0.276852 0.278318
O O3 0.248553 0.191807 0.459816
O O4 0.215948 0.214694 0.206575
O O5 0.395814 0.947926 0.701684
O O6 0.334044 0.881105 0.948765
O O7 0.392969 0.015567 0.932983
O O8 0.215185 0.607593 0.331113
O O9 0.261414 0.738587 0.396788
O O10 0.155966 0.671148 0.214412
O O11 0.141352 0.647286 0.491817
O O12 0.785865 0.571729 0.551035
O O13 0.732847 0.648379 0.640943
O O14 0.517417 0.034833 0.996664
O O15 0.133133 0.866868 0.190738
#
# Coordination Sequence:
#
# PCOD8326787 Si02
#       6
#    12  12  12  12  12  12
#     4  10  20  33  52  79 106 136 174 212 258 313
#     4  11  20  35  54  77 110 140 170 216 267 316
#     4  10  21  37  55  75 100 134 176 219 262 310
#     4   9  19  35  55  78 105 138 174 212 260 317
#     4  11  23  35  52  77 104 138 177 216 264 320
#     4   9  18  33  51  74 105 136 167 209 255 304
#
# _framework density 18.413903999999999
#
# number of rings (size 3 to 8) (size 9 to 14) (size 15 to 20)
#    0.000    2.000    0.000    6.167    0.000    4.667 
#    0.000    1.667    0.000    0.333    0.000    5.833 
#    0.000    0.000    0.000    0.000    0.000    0.000 
#
# Total GULP energy -892732.854945 kJ/mol
# GULP energy per Si atom -12399.067430 kJ/mol
# Density = 1.837199 g / cm^3
# Si number density = 18.413904 Si / 1000 Ang^3
#
#
#
# Elastic Constant Matrix: (Units=GPa)
#
#
# Indices 1 2 3 4 5 6 
#
# 1 88.2738 39.1877 39.7579 0.0000 0.0000 0.0000
# 2 39.1877 88.2738 39.7579 0.0000 0.0000 0.0000
# 3 39.7579 39.7579 87.5498 0.0000 0.0000 0.0000
# 4 0.0000 0.0000 0.0000 32.1313 0.0000 0.0000
# 5 0.0000 0.0000 0.0000 0.0000 32.1313 0.0000
# 6 0.0000 0.0000 0.0000 0.0000 0.0000 24.5431
#
#
#
# Elastic Compliance Matrix: (Units=1/GPa)
#
#
# Indices 1 2 3 4 5 6 
#
# 1 0.015660 -0.004713 -0.004971 0.000000 0.000000 0.000000
# 2 -0.004713 0.015660 -0.004971 0.000000 0.000000 0.000000
# 3 -0.004971 -0.004971 0.015937 0.000000 0.000000 0.000000
# 4 0.000000 0.000000 0.000000 0.031122 0.000000 0.000000
# 5 0.000000 0.000000 0.000000 0.000000 0.031122 0.000000
# 6 0.000000 0.000000 0.000000 0.000000 0.000000 0.040745
#
#
# Mechanical properties :
#
#
# Convention : Reuss Voigt Hill
#
# Bulk Modulus (GPa) = 55.72269 55.72273 55.72271
# Shear Modulus (GPa) = 26.94874 27.45404 27.20139
#
# Velocity S-wave (km/s) = 3.82972 3.86546 3.84763
# Velocity P-wave (km/s) = 7.06276 7.08867 7.07573
#
# Compressibility (1/GPa) = 0.01794601
#
# Stress axis : x y z
#
# Youngs Moduli (GPa) = 63.85894 63.85894 62.74711
#
# Poissons Ratio (x) = 0.30096 0.31192
# Poissons Ratio (y) = 0.30096 0.31192
# Poissons Ratio (z) = 0.31745 0.31745
#
# Static dielectric constant tensor:
#      x y z
#    x 3.376480 0.000000 0.000000 
#    y 0.000000 3.376480 0.000000 
#    z 0.000000 0.000000 3.353900 
# 
# 
# High freq. dielectric constant tensor:
#      x y z
#    x 1.707630 0.000000 0.000000 
#    y 0.000000 1.707630 0.000000 
#    z 0.000000 0.000000 1.712310 
# 
# From -- ./inp_files/1187.got.cif
#   From: 2010.03.12/outbox.cif.g09.slc.cpg/sg186_1_cif.got.tgz:1187.got - 2010.04.01 11:56:34.
