data_PCOD8326970
_publ_section_title
;
Structure prediction by ZEFSAII (Michael W. Deem and Ramdas Pophale) SiO2 
 PCOD8326970
Probable space group: P -6 M 2
;
_chemical_formula_sum "Si O2"
_cell_formula_units_Z 78
_cell_length_a 22.960289
_cell_length_b 22.960289
_cell_length_c 9.779956
_cell_angle_alpha 90.000000
_cell_angle_beta 90.000000
_cell_angle_gamma 120.000000
_cell_volume 4465.007914
_symmetry_space_group_name_H-M "P -6 M 2"
_symmetry_group_IT_number 187
_symmetry_cell_setting 'hexagonal'
loop_
_space_group_symop_operation_xyz
x,y,z
-x+y,-x,-z
-y,x-y,z
x,y,-z
-x+y,-x,z
-y,x-y,-z
-y,-x,-z
-x+y,y,-z
x,x-y,-z
-x+y,y,z
x,x-y,z
-y,-x,z
loop_
_atom_site_type_symbol
_atom_site_label
_atom_site_fract_x
_atom_site_fract_y
_atom_site_fract_z
Si Si1 0.066098 0.267879 0.344019
Si Si2 0.144418 0.420768 0.733669
Si Si3 0.198417 0.529390 0.500000
Si Si4 0.938632 0.742456 0.837968
Si Si5 0.742671 0.127604 0.345814
Si Si6 0.536893 0.592488 0.148294
Si Si7 0.467369 0.062341 0.343782
O O1 0.039500 0.249552 0.500000
O O2 0.127481 0.254962 0.319126
O O3 0.090712 0.346641 0.321789
O O4 0.008720 0.217287 0.238078
O O5 0.210255 0.420509 0.787305
O O6 0.163087 0.479998 0.626006
O O7 0.113097 0.442557 0.856421
O O8 0.278596 0.557192 0.500000
O O9 0.185744 0.592872 0.500000
O O10 0.882881 0.765761 0.814831
O O11 0.913115 0.670453 0.768381
O O12 0.950746 0.738737 0.000000
O O13 0.745935 0.101757 0.500000
O O14 0.793810 0.206191 0.331942
O O15 0.670696 0.120989 0.317869
O O16 0.457738 0.542263 0.181007
O O17 0.582921 0.585278 0.260778
O O18 0.554104 0.574755 0.000000
O O19 0.457040 0.039236 0.500000
O O20 0.543937 0.087873 0.296067
#
# Coordination Sequence:
#
# PCOD8326970 Si02
#       7
#    12  12   6  12  12  12  12
#     4  10  20  35  54  77 106 136 166 203 250 302
#     4  10  20  33  50  72  98 129 166 208 255 303
#     4  10  19  32  50  72  97 130 172 218 260 300
#     4  10  21  35  52  77 106 133 166 207 248 295
#     4   9  17  30  49  71  96 129 165 202 245 293
#     4  10  21  34  47  67  95 126 161 203 251 300
#     4   9  18  31  48  70  95 125 162 201 242 291
#
# _framework density 17.469173000000001
#
# number of rings (size 3 to 8) (size 9 to 14) (size 15 to 20)
#    0.000    2.308    0.769    1.923    1.077    5.231 
#    0.000    1.538    0.000    0.923    0.000    2.154 
#    0.000    0.000    0.000    7.692    0.000    8.000 
#
# Total GULP energy -966477.123415 kJ/mol
# GULP energy per Si atom -12390.732351 kJ/mol
# Density = 1.742941 g / cm^3
# Si number density = 17.469173 Si / 1000 Ang^3
#
#
#
# Elastic Constant Matrix: (Units=GPa)
#
#
# Indices 1 2 3 4 5 6 
#
# 1 106.3148 56.7450 52.4061 0.0000 0.0003 0.0000
# 2 56.7450 106.3148 52.4061 0.0000 -0.0003 0.0000
# 3 52.4061 52.4061 96.9507 0.0000 0.0000 0.0000
# 4 0.0000 0.0000 0.0000 8.9138 0.0000 -0.0003
# 5 0.0003 -0.0003 0.0000 0.0000 8.9138 0.0000
# 6 0.0000 0.0000 0.0000 -0.0003 0.0000 24.7849
#
#
#
# Elastic Compliance Matrix: (Units=1/GPa)
#
#
# Indices 1 2 3 4 5 6 
#
# 1 0.014786 -0.005388 -0.005080 0.000000 -0.000001 0.000000
# 2 -0.005388 0.014786 -0.005080 0.000000 0.000001 0.000000
# 3 -0.005080 -0.005080 0.015807 0.000000 0.000000 0.000000
# 4 0.000000 0.000000 0.000000 0.112186 0.000000 0.000001
# 5 -0.000001 0.000001 0.000000 0.000000 0.112186 0.000000
# 6 0.000000 0.000000 0.000000 0.000001 0.000000 0.040347
#
#
# Mechanical properties :
#
#
# Convention : Reuss Voigt Hill
#
# Bulk Modulus (GPa) = 70.01619 70.29940 70.15780
# Shear Modulus (GPa) = 14.45280 18.39071 16.42175
#
# Velocity S-wave (km/s) = 2.87946 3.24813 3.06934
# Velocity P-wave (km/s) = 7.15695 7.37540 7.26699
#
# Compressibility (1/GPa) = 0.01428241
#
# Stress axis : x y z
#
# Youngs Moduli (GPa) = 67.63230 67.63230 63.26496
#
# Poissons Ratio (x) = 0.36438 0.32139
# Poissons Ratio (y) = 0.36438 0.32139
# Poissons Ratio (z) = 0.34358 0.34358
#
# Static dielectric constant tensor:
#      x y z
#    x 3.278640 0.000000 0.000000 
#    y 0.000000 3.278640 0.000000 
#    z 0.000000 0.000000 3.292040 
# 
# 
# High freq. dielectric constant tensor:
#      x y z
#    x 1.665900 0.000000 0.000000 
#    y 0.000000 1.665900 0.000000 
#    z 0.000000 0.000000 1.677010 
# 
# From -- ./inp_files/1139.got.cif
#   From: 2010.03.12/outbox.cif.g09.slc.cpg/sg187_1_cif.got.tgz:1139.got - 2010.04.01 11:58:23.
