data_PCOD8326532
_publ_section_title
;
Structure prediction by ZEFSAII (Michael W. Deem and Ramdas Pophale) SiO2 
 PCOD8326532
Probable space group: P 6 M M
;
_chemical_formula_sum "Si O2"
_cell_formula_units_Z 96
_cell_length_a 17.642229
_cell_length_b 17.642229
_cell_length_c 20.623967
_cell_angle_alpha 90.000000
_cell_angle_beta 90.000000
_cell_angle_gamma 120.000000
_cell_volume 5559.167335
_symmetry_space_group_name_H-M "P 6 M M"
_symmetry_group_IT_number 183
_symmetry_cell_setting 'hexagonal'
loop_
_space_group_symop_operation_xyz
x,y,z
x-y,x,z
-y,x-y,z
-x,-y,z
-x+y,-x,z
y,-x+y,z
-x+y,y,z
x,x-y,z
-y,-x,z
y,x,z
x-y,-y,z
-x,-x+y,z
loop_
_atom_site_type_symbol
_atom_site_label
_atom_site_fract_x
_atom_site_fract_y
_atom_site_fract_z
Si Si1 0.363909 0.896014 0.336010
Si Si2 0.899804 0.268941 0.458004
Si Si3 0.361998 0.903663 0.195999
Si Si4 0.896874 0.532605 0.825384
Si Si5 0.268351 0.901203 0.947163
Si Si6 0.270511 0.899726 0.701419
Si Si7 0.511412 0.667948 0.578776
Si Si8 0.669438 0.505565 0.059988
O O1 0.428657 0.857313 0.350681
O O2 0.292147 0.867399 0.391873
O O3 0.316188 0.862249 0.265578
O O4 0.421743 0.000000 0.332777
O O5 0.834960 0.165041 0.470848
O O6 0.891467 0.326364 0.514587
O O7 0.000000 0.289737 0.453961
O O8 0.455547 0.911093 0.198042
O O9 0.308277 0.846916 0.134301
O O10 0.374278 0.000000 0.187184
O O11 0.853866 0.426933 0.824273
O O12 0.867211 0.561118 0.890048
O O13 0.866750 0.564567 0.762853
O O14 0.000000 0.575356 0.824640
O O15 0.163529 0.836472 0.950665
O O16 0.288293 0.000000 0.934729
O O17 0.314571 0.900003 0.014029
O O18 0.165523 0.834478 0.694070
O O19 0.321554 0.893938 0.639392
O O20 0.291536 0.000000 0.709260
O O21 0.483210 0.741605 0.579069
O O22 0.426300 0.573701 0.581908
O O23 0.735597 0.471194 0.040332
O O24 0.570107 0.429894 0.050750
#
# Coordination Sequence:
#
# PCOD8326532 Si02
#       8
#    12  12  12  12  12  12  12  12
#     4   8  14  26  44  65  88 114 146 183 222 267
#     4  10  20  32  47  67  90 118 152 191 232 272
#     4   8  14  25  41  60  83 114 151 187 222 263
#     4   9  17  30  49  72  96 122 153 186 220 264
#     4  10  20  33  50  71  93 119 152 191 233 276
#     4  10  20  33  50  72  97 127 163 202 241 279
#     4  10  20  33  50  73 100 127 153 183 222 269
#     4  10  19  29  42  62  90 123 157 192 228 265
#
# _framework density 17.268772999999999
#
# number of rings (size 3 to 8) (size 9 to 14) (size 15 to 20)
#    0.000    2.625    0.000    3.250    0.000    3.750 
#    0.000    0.000    0.000    4.125    0.000    0.000 
#    0.000    6.000    0.000    0.000    0.000   16.750 
#
# Total GULP energy -1189856.929972 kJ/mol
# GULP energy per Si atom -12394.343021 kJ/mol
# Density = 1.722947 g / cm^3
# Si number density = 17.268773 Si / 1000 Ang^3
#
#
#
# Elastic Constant Matrix: (Units=GPa)
#
#
# Indices 1 2 3 4 5 6 
#
# 1 78.3186 47.0183 27.6409 0.0000 0.0000 0.0000
# 2 47.0183 78.3186 27.6409 0.0000 0.0000 0.0000
# 3 27.6409 27.6409 124.0931 0.0000 0.0000 0.0000
# 4 0.0000 0.0000 0.0000 6.9200 0.0000 0.0000
# 5 0.0000 0.0000 0.0000 0.0000 6.9200 0.0000
# 6 0.0000 0.0000 0.0000 0.0000 0.0000 15.6501
#
#
#
# Elastic Compliance Matrix: (Units=1/GPa)
#
#
# Indices 1 2 3 4 5 6 
#
# 1 0.020398 -0.011550 -0.001971 0.000000 0.000000 0.000000
# 2 -0.011550 0.020398 -0.001971 0.000000 0.000000 0.000000
# 3 -0.001971 -0.001971 0.008936 0.000000 0.000000 0.000000
# 4 0.000000 0.000000 0.000000 0.144509 0.000000 0.000000
# 5 0.000000 0.000000 0.000000 0.000000 0.144509 0.000000
# 6 0.000000 0.000000 0.000000 0.000000 0.000000 0.063897
#
#
# Mechanical properties :
#
#
# Convention : Reuss Voigt Hill
#
# Bulk Modulus (GPa) = 53.33675 53.92561 53.63118
# Shear Modulus (GPa) = 11.36671 17.79338 14.58004
#
# Velocity S-wave (km/s) = 2.56837 3.21343 2.90884
# Velocity P-wave (km/s) = 6.30465 6.71292 6.51198
#
# Compressibility (1/GPa) = 0.01874880
#
# Stress axis : x y z
#
# Youngs Moduli (GPa) = 49.02403 49.02403 111.90168
#
# Poissons Ratio (x) = 0.56625 0.22053
# Poissons Ratio (y) = 0.56625 0.22053
# Poissons Ratio (z) = 0.09662 0.09662
#
# Static dielectric constant tensor:
#      x y z
#    x 2.962830 0.000000 0.000000 
#    y 0.000000 2.962830 0.000000 
#    z 0.000000 0.000000 3.630570 
# 
# 
# High freq. dielectric constant tensor:
#      x y z
#    x 1.637750 0.000000 0.000000 
#    y 0.000000 1.637750 0.000000 
#    z 0.000000 0.000000 1.692180 
# 
# From -- ./inp_files/3034.got.cif
#   From: 2010.03.12/outbox.cif.g09.slc.cpg/sg183_2_cif.got.tgz:3034.got - 2010.04.01 11:53:02.
