data_PCOD8326798
_publ_section_title
;
Structure prediction by ZEFSAII (Michael W. Deem and Ramdas Pophale) SiO2 
 PCOD8326798
Probable space group: P 63 M C
;
_chemical_formula_sum "Si O2"
_cell_formula_units_Z 84
_cell_length_a 21.089290
_cell_length_b 21.089290
_cell_length_c 10.938460
_cell_angle_alpha 90.000000
_cell_angle_beta 90.000000
_cell_angle_gamma 120.000000
_cell_volume 4213.186970
_symmetry_space_group_name_H-M "P 63 M C"
_symmetry_group_IT_number 186
_symmetry_cell_setting 'hexagonal'
loop_
_space_group_symop_operation_xyz
x,y,z
x-y,x,1/2+z
-y,x-y,z
-x,-y,1/2+z
-x+y,-x,z
y,-x+y,1/2+z
-x+y,y,z
x,x-y,z
-y,-x,z
y,x,1/2+z
x-y,-y,1/2+z
-x,-x+y,1/2+z
loop_
_atom_site_type_symbol
_atom_site_label
_atom_site_fract_x
_atom_site_fract_y
_atom_site_fract_z
Si Si1 0.138199 0.718946 0.639860
Si Si2 0.128686 0.727052 0.238716
Si Si3 0.189315 0.235984 0.323851
Si Si4 0.334556 0.808660 0.850413
Si Si5 0.254512 0.201662 0.098322
Si Si6 0.393541 0.928206 0.041601
Si Si7 0.530635 0.612177 0.439461
O O1 0.211806 0.788195 0.586243
O O2 0.151778 0.701822 0.776354
O O3 0.070768 0.734379 0.631532
O O4 0.116443 0.643909 0.570804
O O5 0.212206 0.787795 0.199497
O O6 0.087929 0.768611 0.283302
O O7 0.079832 0.668337 0.135654
O O8 0.128935 0.679224 0.350517
O O9 0.102289 0.204578 0.326055
O O10 0.203497 0.192630 0.214954
O O11 0.215900 0.229034 0.462980
O O12 0.405741 0.811482 0.787259
O O13 0.275534 0.724467 0.874889
O O14 0.358575 0.850229 0.977712
O O15 0.253895 0.126948 0.082483
O O16 0.472091 0.944181 0.101177
O O17 0.411328 0.994134 0.946382
O O18 0.451760 0.548241 0.399847
#
# Coordination Sequence:
#
# PCOD8326798 Si02
#       7
#    12  12  12  12  12  12  12
#     4  10  20  35  55  80 111 147 189 234 290 347
#     4  11  22  38  58  80 112 151 192 239 296 359
#     4  10  22  38  60  90 123 160 200 241 296 354
#     4  10  21  37  56  79 107 142 186 237 293 355
#     4  10  21  38  60  89 123 160 196 244 298 351
#     4  10  23  37  55  83 111 145 191 241 299 362
#     4  11  22  35  56  81 112 149 188 238 290 344
#
# _framework density 19.937401000000001
#
# number of rings (size 3 to 8) (size 9 to 14) (size 15 to 20)
#    0.000    1.714    1.429    2.714    4.000    0.571 
#    0.000    2.857    0.000    7.143    0.000    0.000 
#    0.000    0.000    0.000    0.000    0.000    0.000 
#
# Total GULP energy -1040670.400618 kJ/mol
# GULP energy per Si atom -12388.933341 kJ/mol
# Density = 1.989202 g / cm^3
# Si number density = 19.937401 Si / 1000 Ang^3
#
#
#
# Elastic Constant Matrix: (Units=GPa)
#
#
# Indices 1 2 3 4 5 6 
#
# 1 34.6112 33.1882 20.1353 0.0000 0.0000 0.0000
# 2 33.1882 34.6112 20.1353 0.0000 0.0000 0.0000
# 3 20.1353 20.1353 83.7186 0.0000 0.0000 0.0000
# 4 0.0000 0.0000 0.0000 36.7698 0.0000 0.0000
# 5 0.0000 0.0000 0.0000 0.0000 36.7698 0.0000
# 6 0.0000 0.0000 0.0000 0.0000 0.0000 0.7115
#
#
#
# Elastic Compliance Matrix: (Units=1/GPa)
#
#
# Indices 1 2 3 4 5 6 
#
# 1 0.359963 -0.342756 -0.004139 0.000000 0.000000 0.000000
# 2 -0.342756 0.359963 -0.004139 0.000000 0.000000 0.000000
# 3 -0.004139 -0.004139 0.013936 0.000000 0.000000 0.000000
# 4 0.000000 0.000000 0.000000 0.027196 0.000000 0.000000
# 5 0.000000 0.000000 0.000000 0.000000 0.027196 0.000000
# 6 0.000000 0.000000 0.000000 0.000000 0.000000 1.405438
#
#
# Mechanical properties :
#
#
# Convention : Reuss Voigt Hill
#
# Bulk Modulus (GPa) = 31.45023 33.31759 32.38391
# Shear Modulus (GPa) = 1.72037 20.14903 10.93470
#
# Velocity S-wave (km/s) = 0.92992 3.18247 2.34445
# Velocity P-wave (km/s) = 4.11846 5.50014 4.85866
#
# Compressibility (1/GPa) = 0.03179627
#
# Stress axis : x y z
#
# Youngs Moduli (GPa) = 2.77806 2.77806 71.75893
#
# Poissons Ratio (x) = 0.95220 0.29698
# Poissons Ratio (y) = 0.95220 0.29698
# Poissons Ratio (z) = 0.01150 0.01150
#
# Static dielectric constant tensor:
#      x y z
#    x 3.718870 0.000000 0.000000 
#    y 0.000000 3.718870 0.000000 
#    z 0.000000 0.000000 3.640480 
# 
# 
# High freq. dielectric constant tensor:
#      x y z
#    x 1.771550 0.000000 0.000000 
#    y 0.000000 1.771550 0.000000 
#    z 0.000000 0.000000 1.771810 
# 
# From -- ./inp_files/1900.got.cif
#   From: 2010.03.12/outbox.cif.g09.slc.cpg/sg186_1_cif.got.tgz:1900.got - 2010.04.01 11:56:34.
