data_PCOD8326818
_publ_section_title
;
Structure prediction by ZEFSAII (Michael W. Deem and Ramdas Pophale) SiO2 
 PCOD8326818
Probable space group: P 63 M C
;
_chemical_formula_sum "Si O2"
_cell_formula_units_Z 40
_cell_length_a 11.823718
_cell_length_b 11.823718
_cell_length_c 18.276671
_cell_angle_alpha 90.000000
_cell_angle_beta 90.000000
_cell_angle_gamma 120.000000
_cell_volume 2212.767846
_symmetry_space_group_name_H-M "P 63 M C"
_symmetry_group_IT_number 186
_symmetry_cell_setting 'hexagonal'
loop_
_space_group_symop_operation_xyz
x,y,z
x-y,x,1/2+z
-y,x-y,z
-x,-y,1/2+z
-x+y,-x,z
y,-x+y,1/2+z
-x+y,y,z
x,x-y,z
-y,-x,z
y,x,1/2+z
x-y,-y,1/2+z
-x,-x+y,1/2+z
loop_
_atom_site_type_symbol
_atom_site_label
_atom_site_fract_x
_atom_site_fract_y
_atom_site_fract_z
Si Si1 0.663881 0.079515 0.201570
Si Si2 0.736482 0.999678 0.062639
Si Si3 0.666666 0.333334 0.823107
Si Si4 0.958589 0.479295 0.821004
Si Si5 0.666668 0.333334 0.995698
Si Si6 0.961903 0.480952 0.994472
O O1 0.536315 0.072629 0.163035
O O2 0.771132 0.228869 0.210996
O O3 0.715018 0.003808 0.149986
O O4 0.623624 0.020083 0.283816
O O5 0.864021 0.135980 0.036982
O O6 0.760770 0.880385 0.045135
O O7 0.604103 0.973835 0.021728
O O8 0.811449 0.405725 0.793098
O O9 0.666667 0.333334 0.909503
O O10 0.976462 0.488231 0.907101
O O11 0.814001 0.407001 0.024293
#
# Coordination Sequence:
#
# PCOD8326818 Si02
#       6
#    12  12   2   6   2   6
#     4   9  19  35  55  81 111 150 192 232 280 339
#     4  11  23  39  59  85 117 155 195 241 293 350
#     4   9  18  33  51  87 114 144 184 230 301 330
#     4   9  21  33  59  85 115 150 184 245 284 346
#     4   9  18  33  63  87 102 147 205 239 268 342
#     4  11  19  39  63  87 117 151 195 242 289 350
#
# _framework density 18.076908
#
# number of rings (size 3 to 8) (size 9 to 14) (size 15 to 20)
#    0.900    1.200    3.000    0.600    2.100    1.200 
#    0.900    0.000    0.000    0.000    0.000    4.200 
#    0.000    0.000    0.000    0.000    0.000    0.000 
#
# Total GULP energy -495556.139643 kJ/mol
# GULP energy per Si atom -12388.903491 kJ/mol
# Density = 1.803576 g / cm^3
# Si number density = 18.076908 Si / 1000 Ang^3
#
#
#
# Elastic Constant Matrix: (Units=GPa)
#
#
# Indices 1 2 3 4 5 6 
#
# 1 100.3368 39.3763 29.0026 0.0000 0.0000 0.0000
# 2 39.3763 100.3363 29.0027 0.0000 0.0000 0.0000
# 3 29.0026 29.0027 83.3185 0.0000 0.0000 0.0000
# 4 0.0000 0.0000 0.0000 24.8968 0.0000 0.0000
# 5 0.0000 0.0000 0.0000 0.0000 24.8968 0.0000
# 6 0.0000 0.0000 0.0000 0.0000 0.0000 30.4804
#
#
#
# Elastic Compliance Matrix: (Units=1/GPa)
#
#
# Indices 1 2 3 4 5 6 
#
# 1 0.012385 -0.004019 -0.002912 0.000000 0.000000 0.000000
# 2 -0.004019 0.012385 -0.002912 0.000000 0.000000 0.000000
# 3 -0.002912 -0.002912 0.014030 0.000000 0.000000 0.000000
# 4 0.000000 0.000000 0.000000 0.040166 0.000000 0.000000
# 5 0.000000 0.000000 0.000000 0.000000 0.040166 0.000000
# 6 0.000000 0.000000 0.000000 0.000000 0.000000 0.032808
#
#
# Mechanical properties :
#
#
# Convention : Reuss Voigt Hill
#
# Bulk Modulus (GPa) = 52.31900 53.19498 52.75699
# Shear Modulus (GPa) = 28.09015 28.49546 28.29280
#
# Velocity S-wave (km/s) = 3.94626 3.97463 3.96047
# Velocity P-wave (km/s) = 7.05473 7.11017 7.08250
#
# Compressibility (1/GPa) = 0.01911352
#
# Stress axis : x y z
#
# Youngs Moduli (GPa) = 80.74035 80.73992 71.27736
#
# Poissons Ratio (x) = 0.32447 0.20759
# Poissons Ratio (y) = 0.32447 0.20759
# Poissons Ratio (z) = 0.23515 0.23515
#
# Static dielectric constant tensor:
#      x y z
#    x 3.274270 0.000000 0.000000 
#    y 0.000000 3.274270 0.000000 
#    z 0.000000 0.000000 3.161760 
# 
# 
# High freq. dielectric constant tensor:
#      x y z
#    x 1.692460 0.000000 0.000000 
#    y 0.000000 1.692470 0.000000 
#    z 0.000000 0.000000 1.691870 
# 
# From -- ./inp_files/2799.got.cif
#   From: 2010.03.12/outbox.cif.g09.slc.cpg/sg186_2_cif.got.tgz:2799.got - 2010.04.01 11:56:34.
