data_PCOD8326571
_publ_section_title
;
Structure prediction by ZEFSAII (Michael W. Deem and Ramdas Pophale) SiO2 
 PCOD8326571
Probable space group: P 6 C C
;
_chemical_formula_sum "Si O2"
_cell_formula_units_Z 72
_cell_length_a 23.322333
_cell_length_b 23.322333
_cell_length_c 8.695920
_cell_angle_alpha 90.000000
_cell_angle_beta 90.000000
_cell_angle_gamma 120.000000
_cell_volume 4096.284870
_symmetry_space_group_name_H-M "P 6 C C"
_symmetry_group_IT_number 184
_symmetry_cell_setting 'hexagonal'
loop_
_space_group_symop_operation_xyz
x,y,z
x-y,x,z
-y,x-y,z
-x,-y,z
-x+y,-x,z
y,-x+y,z
-x+y,y,1/2+z
x,x-y,1/2+z
-y,-x,1/2+z
y,x,1/2+z
x-y,-y,1/2+z
-x,-x+y,1/2+z
loop_
_atom_site_type_symbol
_atom_site_label
_atom_site_fract_x
_atom_site_fract_y
_atom_site_fract_z
Si Si1 0.665653 0.206909 0.532310
Si Si2 0.930676 0.194367 0.892925
Si Si3 0.263691 0.069328 0.535590
Si Si4 0.793088 0.458746 0.896198
Si Si5 0.733007 0.142807 0.393415
Si Si6 0.590199 0.857188 0.535106
O O1 0.665298 0.212721 0.714254
O O2 0.726072 0.273924 0.464250
O O3 0.597672 0.195349 0.464259
O O4 0.671856 0.142724 0.481908
O O5 0.931424 0.180840 0.714258
O O6 0.921087 0.258457 0.921023
O O7 0.872434 0.127571 0.964262
O O8 0.000002 0.209995 0.964254
O O9 0.337372 0.078919 0.507489
O O10 0.857271 0.529135 0.946602
O O11 0.798040 0.201950 0.464274
O O12 0.727549 0.155361 0.214261
#
# Coordination Sequence:
#
# PCOD8326571 Si02
#       6
#    12  12  12  12  12  12
#     4  11  20  30  44  64  92 126 165 210 258 308
#     4  10  20  34  55  81 109 136 166 201 240 284
#     4  10  20  34  55  81 109 136 166 201 240 284
#     4  11  20  30  44  64  92 126 165 210 258 308
#     4   9  17  30  47  69  95 126 163 204 247 292
#     4   9  17  30  47  69  95 126 163 204 247 292
#
# _framework density 17.576900999999999
#
# number of rings (size 3 to 8) (size 9 to 14) (size 15 to 20)
#    0.000    2.000    0.000    7.333    0.000    4.000 
#    0.000    0.000    0.000    1.333    0.000    9.333 
#    0.000    0.000    0.000    0.000    0.000    0.000 
#
# Total GULP energy -892171.596166 kJ/mol
# GULP energy per Si atom -12391.272169 kJ/mol
# Density = 1.753690 g / cm^3
# Si number density = 17.576901 Si / 1000 Ang^3
#
#
#
# Elastic Constant Matrix: (Units=GPa)
#
#
# Indices 1 2 3 4 5 6 
#
# 1 97.9799 53.5654 57.4466 0.0000 0.0000 0.0000
# 2 53.5654 97.9799 57.4466 0.0000 0.0000 0.0000
# 3 57.4466 57.4466 157.1676 0.0000 0.0000 0.0000
# 4 0.0000 0.0000 0.0000 21.9397 0.0000 0.0000
# 5 0.0000 0.0000 0.0000 0.0000 21.9397 0.0000
# 6 0.0000 0.0000 0.0000 0.0000 0.0000 22.2073
#
#
#
# Elastic Compliance Matrix: (Units=1/GPa)
#
#
# Indices 1 2 3 4 5 6 
#
# 1 0.015822 -0.006693 -0.003336 0.000000 0.000000 0.000000
# 2 -0.006693 0.015822 -0.003336 0.000000 0.000000 0.000000
# 3 -0.003336 -0.003336 0.008802 0.000000 0.000000 0.000000
# 4 0.000000 0.000000 0.000000 0.045579 0.000000 0.000000
# 5 0.000000 0.000000 0.000000 0.000000 0.045579 0.000000
# 6 0.000000 0.000000 0.000000 0.000000 0.000000 0.045030
#
#
# Mechanical properties :
#
#
# Convention : Reuss Voigt Hill
#
# Bulk Modulus (GPa) = 72.92766 76.67161 74.79964
# Shear Modulus (GPa) = 24.04565 25.52859 24.78712
#
# Velocity S-wave (km/s) = 3.70270 3.81516 3.75935
# Velocity P-wave (km/s) = 7.73697 7.94498 7.84166
#
# Compressibility (1/GPa) = 0.01371222
#
# Stress axis : x y z
#
# Youngs Moduli (GPa) = 63.20441 63.20441 113.61487
#
# Poissons Ratio (x) = 0.42306 0.37907
# Poissons Ratio (y) = 0.42306 0.37907
# Poissons Ratio (z) = 0.21088 0.21088
#
# Static dielectric constant tensor:
#      x y z
#    x 3.394580 0.000000 0.000000 
#    y 0.000000 3.394580 0.000000 
#    z 0.000000 0.000000 3.835250 
# 
# 
# High freq. dielectric constant tensor:
#      x y z
#    x 1.658360 0.000000 0.000000 
#    y 0.000000 1.658360 0.000000 
#    z 0.000000 0.000000 1.704410 
# 
# From -- ./inp_files/358.got.cif
#   From: 2010.03.12/outbox.cif.g09.slc.cpg/sg184_cif.got.tgz:358.got - 2010.04.01 11:54:36.
