data_PCOD8326253
_publ_section_title
;
Structure prediction by ZEFSAII (Michael W. Deem and Ramdas Pophale) SiO2 
 PCOD8326253
Probable space group: P 62 2 2
;
_chemical_formula_sum "Si O2"
_cell_formula_units_Z 84
_cell_length_a 14.491176
_cell_length_b 14.491176
_cell_length_c 25.037390
_cell_angle_alpha 90.000000
_cell_angle_beta 90.000000
_cell_angle_gamma 120.000000
_cell_volume 4553.307160
_symmetry_space_group_name_H-M "P 62 2 2"
_symmetry_group_IT_number 180
_symmetry_cell_setting 'hexagonal'
loop_
_space_group_symop_operation_xyz
x,y,z
x-y,x,1/3+z
-y,x-y,2/3+z
-x,-y,z
-x+y,-x,1/3+z
y,-x+y,2/3+z
x-y,-y,-z
-x,-x+y,1/3-z
y,x,2/3-z
-y,-x,2/3-z
-x+y,y,-z
x,x-y,1/3-z
loop_
_atom_site_type_symbol
_atom_site_label
_atom_site_fract_x
_atom_site_fract_y
_atom_site_fract_z
Si Si1 0.835843 0.166165 0.978510
Si Si2 0.242177 0.954060 0.079758
Si Si3 0.167425 0.046508 0.821718
Si Si4 0.924800 0.706342 0.950879
Si Si5 0.393278 0.885510 0.233979
Si Si6 0.289689 0.569025 0.378438
Si Si7 0.398964 0.512902 0.220096
O O1 0.765902 0.222522 0.985029
O O2 0.955514 0.255607 0.967684
O O3 0.782311 0.080679 0.930500
O O4 0.840797 0.107332 0.032298
O O5 0.190831 0.928431 0.137939
O O6 0.319386 0.904854 0.076676
O O7 0.130514 0.130514 0.833334
O O8 0.212042 0.067215 0.761773
O O9 0.072703 0.927298 0.833334
O O10 0.877773 0.586227 0.930707
O O11 0.854873 0.709746 0.000000
O O12 0.417007 0.797864 0.257400
O O13 0.356455 0.850690 0.173181
O O14 0.500000 0.000000 0.239589
O O15 0.341299 0.658701 0.333334
O O16 0.376942 0.576107 0.420149
O O17 0.500000 0.500000 0.215197
#
# Coordination Sequence:
#
# PCOD8326253 Si02
#       7
#    12  12  12  12  12  12  12
#     4  11  23  37  62  94 128 161 206 257 314 386
#     4  11  21  39  60  91 128 163 200 252 318 381
#     4  11  23  41  63  91 125 167 213 261 318 378
#     4  12  24  43  65  90 126 173 216 260 316 376
#     4  11  24  41  62  89 124 164 215 260 312 375
#     4  12  23  39  61  91 127 161 206 259 318 376
#     4  11  22  36  62  92 121 161 198 251 316 386
#
# _framework density 18.448129999999999
#
# number of rings (size 3 to 8) (size 9 to 14) (size 15 to 20)
#    0.000    0.714    7.143    1.714    0.000    0.286 
#    2.571    0.000    0.000    0.000    0.000    1.000 
#    0.000    0.000    0.000    0.000    0.000    0.000 
#
# Total GULP energy -1041475.641547 kJ/mol
# GULP energy per Si atom -12398.519542 kJ/mol
# Density = 1.840614 g / cm^3
# Si number density = 18.448130 Si / 1000 Ang^3
#
#
#
# Elastic Constant Matrix: (Units=GPa)
#
#
# Indices 1 2 3 4 5 6 
#
# 1 82.9306 20.2450 24.6460 0.0000 0.0000 0.0000
# 2 20.2450 82.9306 24.6460 0.0000 0.0000 0.0000
# 3 24.6460 24.6460 103.0063 0.0000 0.0000 0.0000
# 4 0.0000 0.0000 0.0000 33.4603 0.0000 0.0000
# 5 0.0000 0.0000 0.0000 0.0000 33.4603 0.0000
# 6 0.0000 0.0000 0.0000 0.0000 0.0000 31.3428
#
#
#
# Elastic Compliance Matrix: (Units=1/GPa)
#
#
# Indices 1 2 3 4 5 6 
#
# 1 0.013448 -0.002505 -0.002618 0.000000 0.000000 0.000000
# 2 -0.002505 0.013448 -0.002618 0.000000 0.000000 0.000000
# 3 -0.002618 -0.002618 0.010961 0.000000 0.000000 0.000000
# 4 0.000000 0.000000 0.000000 0.029886 0.000000 0.000000
# 5 0.000000 0.000000 0.000000 0.000000 0.029886 0.000000
# 6 0.000000 0.000000 0.000000 0.000000 0.000000 0.031905
#
#
# Mechanical properties :
#
#
# Convention : Reuss Voigt Hill
#
# Bulk Modulus (GPa) = 44.69468 45.32683 45.01075
# Shear Modulus (GPa) = 32.79223 32.94141 32.86682
#
# Velocity S-wave (km/s) = 4.22066 4.23025 4.22546
# Velocity P-wave (km/s) = 6.93049 6.96299 6.94676
#
# Compressibility (1/GPa) = 0.02237403
#
# Stress axis : x y z
#
# Youngs Moduli (GPa) = 74.36128 74.36128 91.23173
#
# Poissons Ratio (x) = 0.18626 0.23887
# Poissons Ratio (y) = 0.18626 0.23887
# Poissons Ratio (z) = 0.19470 0.19470
#
# Static dielectric constant tensor:
#      x y z
#    x 3.351740 0.000000 0.000000 
#    y 0.000000 3.351740 0.000000 
#    z 0.000000 0.000000 3.925070 
# 
# 
# High freq. dielectric constant tensor:
#      x y z
#    x 1.717250 0.000000 0.000000 
#    y 0.000000 1.717250 0.000000 
#    z 0.000000 0.000000 1.727190 
# 
# From -- ./inp_files/10253.got.cif
#   From: 2010.03.12/outbox.cif.g09.slc.cpg/sg180_6_cif.got.tgz:10253.got - 2010.04.01 11:35:50.
