data_PCOD8326618
_publ_section_title
;
Structure prediction by ZEFSAII (Michael W. Deem and Ramdas Pophale) SiO2 
 PCOD8326618
Probable space group: P 6 C C
;
_chemical_formula_sum "Si O2"
_cell_formula_units_Z 56
_cell_length_a 12.148846
_cell_length_b 12.148846
_cell_length_c 19.872626
_cell_angle_alpha 90.000000
_cell_angle_beta 90.000000
_cell_angle_gamma 120.000000
_cell_volume 2540.130006
_symmetry_space_group_name_H-M "P 6 C C"
_symmetry_group_IT_number 184
_symmetry_cell_setting 'hexagonal'
loop_
_space_group_symop_operation_xyz
x,y,z
x-y,x,z
-y,x-y,z
-x,-y,z
-x+y,-x,z
y,-x+y,z
-x+y,y,1/2+z
x,x-y,1/2+z
-y,-x,1/2+z
y,x,1/2+z
x-y,-y,1/2+z
-x,-x+y,1/2+z
loop_
_atom_site_type_symbol
_atom_site_label
_atom_site_fract_x
_atom_site_fract_y
_atom_site_fract_z
Si Si1 0.057956 0.280428 0.647090
Si Si2 0.431865 0.074348 0.018771
Si Si3 0.666668 0.333334 0.320852
Si Si4 0.567258 0.649104 0.774841
Si Si5 0.253676 0.260184 0.399052
Si Si6 0.666667 0.333334 0.979728
O O1 0.159948 0.237688 0.660122
O O2 0.070184 0.331474 0.571860
O O3 0.082451 0.391435 0.698762
O O4 0.500000 0.000000 0.047874
O O5 0.358472 0.999402 0.951054
O O6 0.532579 0.221277 0.005846
O O7 0.698742 0.471597 0.295451
O O8 0.666668 0.333334 0.400239
O O9 0.500000 0.500000 0.780552
O O10 0.689721 0.706278 0.823328
O O11 0.117434 0.243941 0.412842
#
# Coordination Sequence:
#
# PCOD8326618 Si02
#       6
#    12  12   4  12  12   4
#     4  12  26  46  68  96 133 178 228 284 348 418
#     4  12  25  43  68  99 135 176 226 283 347 424
#     4  12  24  43  71 103 138 180 223 281 349 415
#     4  12  25  43  68  99 135 176 226 283 347 424
#     4  12  24  42  66  96 132 176 228 286 348 420
#     4  12  24  43  71 103 138 180 223 281 349 415
#
# _framework density 22.046116000000001
#
# number of rings (size 3 to 8) (size 9 to 14) (size 15 to 20)
#    0.000    0.000    0.000   13.286    0.000    1.714 
#    0.000    4.286    0.000    0.000    0.000    0.000 
#    0.000    0.000    0.000    0.000    0.000    0.000 
#
# Total GULP energy -694983.940664 kJ/mol
# GULP energy per Si atom -12410.427512 kJ/mol
# Density = 2.199594 g / cm^3
# Si number density = 22.046116 Si / 1000 Ang^3
#
#
#
# Elastic Constant Matrix: (Units=GPa)
#
#
# Indices 1 2 3 4 5 6 
#
# 1 129.7944 20.6064 14.4150 -0.0209 -0.0250 0.0031
# 2 20.6064 129.7976 14.4144 0.0164 0.0160 -0.0024
# 3 14.4150 14.4144 87.0191 0.0024 -0.0010 0.0000
# 4 -0.0209 0.0164 0.0024 -13.1647 0.1850 -0.0206
# 5 -0.0250 0.0160 -0.0010 0.1850 -13.2019 0.0187
# 6 0.0031 -0.0024 0.0000 -0.0206 0.0187 54.5911
#
#
#
# Elastic Compliance Matrix: (Units=1/GPa)
#
#
# Indices 1 2 3 4 5 6 
#
# 1 0.008013 -0.001146 -0.001138 -0.000015 -0.000017 -0.000001
# 2 -0.001146 0.008013 -0.001137 0.000012 0.000012 0.000000
# 3 -0.001138 -0.001137 0.011869 0.000003 0.000000 0.000000
# 4 -0.000015 0.000012 0.000003 -0.075975 -0.001065 -0.000028
# 5 -0.000017 0.000012 0.000000 -0.001065 -0.075762 0.000026
# 6 -0.000001 0.000000 0.000000 -0.000028 0.000026 0.018318
#
#
# Mechanical properties :
#
#
# Convention : Reuss Voigt Hill
#
# Bulk Modulus (GPa) = 47.50066 49.49807 48.49936
# Shear Modulus (GPa) = -54.54576 25.45658 -14.54459
#
# Velocity S-wave (km/s) = -4.97950 3.40177 -2.57132
# Velocity P-wave (km/s) = 3.38640 6.15875 3.63748
#
# Compressibility (1/GPa) = 0.02105234
#
# Stress axis : x y z
#
# Youngs Moduli (GPa) = 124.80152 124.80481 84.25606
#
# Poissons Ratio (x) = 0.14300 0.09584
# Poissons Ratio (y) = 0.14299 0.09584
# Poissons Ratio (z) = 0.14197 0.14196
#
# Static dielectric constant tensor:
#      x y z
#    x 8.734920 -0.012620 0.000090 
#    y -0.012620 8.730680 -0.000070 
#    z 0.000090 -0.000070 3.936860 
# 
# 
# High freq. dielectric constant tensor:
#      x y z
#    x 1.884470 0.000000 0.000000 
#    y 0.000000 1.884470 0.000000 
#    z 0.000000 0.000000 1.872120 
# 
# From -- ./inp_files/1316.got.cif
#   From: 2010.03.12/outbox.cif.g09.slc.cpg/sg184_cif.got.tgz:1316.got - 2010.04.01 11:54:36.
