data_PCOD8326308
_publ_section_title
;
Structure prediction by ZEFSAII (Michael W. Deem and Ramdas Pophale) SiO2 
 PCOD8326308
Probable space group: P 64 2 2
;
_chemical_formula_sum "Si O2"
_cell_formula_units_Z 60
_cell_length_a 29.273304
_cell_length_b 29.273304
_cell_length_c 4.974894
_cell_angle_alpha 90.000000
_cell_angle_beta 90.000000
_cell_angle_gamma 120.000000
_cell_volume 3691.968178
_symmetry_space_group_name_H-M "P 64 2 2"
_symmetry_group_IT_number 181
_symmetry_cell_setting 'hexagonal'
loop_
_space_group_symop_operation_xyz
x,y,z
x-y,x,2/3+z
-y,x-y,1/3+z
-x,-y,z
-x+y,-x,2/3+z
y,-x+y,1/3+z
x-y,-y,-z
-x,-x+y,2/3-z
y,x,1/3-z
-y,-x,1/3-z
-x+y,y,-z
x,x-y,2/3-z
loop_
_atom_site_type_symbol
_atom_site_label
_atom_site_fract_x
_atom_site_fract_y
_atom_site_fract_z
Si Si1 0.316128 0.374117 0.624626
Si Si2 0.717154 0.223540 0.913005
Si Si3 0.377989 0.436389 0.115625
Si Si4 0.779739 0.161611 0.918794
Si Si5 0.601242 0.146334 0.743753
O O1 0.323030 0.323030 0.666667
O O2 0.330688 0.400992 0.327357
O O3 0.256220 0.354889 0.713234
O O4 0.357412 0.419141 0.816807
O O5 0.737328 0.262673 0.666667
O O6 0.739621 0.183709 0.911423
O O7 0.654574 0.188624 0.891307
O O8 0.737675 0.262326 0.166667
O O9 0.427644 0.427644 0.166667
O O10 0.396273 0.497781 0.106056
O O11 0.819045 0.180956 0.666667
O O12 0.818358 0.181643 0.166667
O O13 0.587162 0.174324 0.500000
O O14 0.561343 0.122686 0.000000
#
# Coordination Sequence:
#
# PCOD8326308 Si02
#       5
#    12  12  12  12  12
#     4  10  19  33  53  73 106 138 159 191 242 289
#     4  10  21  36  57  75  95 115 146 194 244 279
#     4  10  21  36  52  73 105 137 160 185 223 285
#     4  10  19  30  52  77  97 121 162 205 232 269
#     4  12  24  37  58  79 103 123 158 194 228 292
#
# _framework density 16.251495999999999
#
# number of rings (size 3 to 8) (size 9 to 14) (size 15 to 20)
#    0.000    1.600    2.000    3.600    5.600    0.400 
#    0.000    1.000    0.000    6.000    0.000    0.000 
#    0.000    0.000    0.000    0.000    0.000    0.000 
#
# Total GULP energy -743498.297369 kJ/mol
# GULP energy per Si atom -12391.638289 kJ/mol
# Density = 1.621451 g / cm^3
# Si number density = 16.251496 Si / 1000 Ang^3
#
#
#
# Elastic Constant Matrix: (Units=GPa)
#
#
# Indices 1 2 3 4 5 6 
#
# 1 79.8925 50.7843 37.1207 0.0000 0.0000 0.0000
# 2 50.7843 79.8925 37.1207 0.0000 0.0000 0.0000
# 3 37.1207 37.1207 114.3334 0.0000 0.0000 0.0000
# 4 0.0000 0.0000 0.0000 21.8289 0.0000 0.0000
# 5 0.0000 0.0000 0.0000 0.0000 21.8289 0.0000
# 6 0.0000 0.0000 0.0000 0.0000 0.0000 14.5541
#
#
#
# Elastic Compliance Matrix: (Units=1/GPa)
#
#
# Indices 1 2 3 4 5 6 
#
# 1 0.021869 -0.012486 -0.003046 0.000000 0.000000 0.000000
# 2 -0.012486 0.021869 -0.003046 0.000000 0.000000 0.000000
# 3 -0.003046 -0.003046 0.010725 0.000000 0.000000 0.000000
# 4 0.000000 0.000000 0.000000 0.045811 0.000000 0.000000
# 5 0.000000 0.000000 0.000000 0.000000 0.045811 0.000000
# 6 0.000000 0.000000 0.000000 0.000000 0.000000 0.068709
#
#
# Mechanical properties :
#
#
# Convention : Reuss Voigt Hill
#
# Bulk Modulus (GPa) = 57.78616 58.24112 58.01364
# Shear Modulus (GPa) = 19.40099 21.58188 20.49144
#
# Velocity S-wave (km/s) = 3.45889 3.64812 3.55476
# Velocity P-wave (km/s) = 7.18237 7.32531 7.25420
#
# Compressibility (1/GPa) = 0.01730518
#
# Stress axis : x y z
#
# Youngs Moduli (GPa) = 45.72702 45.72702 93.24403
#
# Poissons Ratio (x) = 0.57093 0.28407
# Poissons Ratio (y) = 0.57093 0.28407
# Poissons Ratio (z) = 0.13931 0.13931
#
# Static dielectric constant tensor:
#      x y z
#    x 2.937970 0.000000 0.000000 
#    y 0.000000 2.937970 0.000000 
#    z 0.000000 0.000000 3.376270 
# 
# 
# High freq. dielectric constant tensor:
#      x y z
#    x 1.590200 0.000000 0.000000 
#    y 0.000000 1.590200 0.000000 
#    z 0.000000 0.000000 1.657280 
# 
# From -- ./inp_files/1454.got.cif
#   From: 2010.03.12/outbox.cif.g09.slc.cpg/sg181_1_cif.got.tgz:1454.got - 2010.04.01 11:42:41.
