data_PCOD8326762
_publ_section_title
;
Structure prediction by ZEFSAII (Michael W. Deem and Ramdas Pophale) SiO2 
 PCOD8326762
Probable space group: P 63 M C
;
_chemical_formula_sum "Si O2"
_cell_formula_units_Z 60
_cell_length_a 18.146735
_cell_length_b 18.146735
_cell_length_c 10.382015
_cell_angle_alpha 90.000000
_cell_angle_beta 90.000000
_cell_angle_gamma 120.000000
_cell_volume 2960.801404
_symmetry_space_group_name_H-M "P 63 M C"
_symmetry_group_IT_number 186
_symmetry_cell_setting 'hexagonal'
loop_
_space_group_symop_operation_xyz
x,y,z
x-y,x,1/2+z
-y,x-y,z
-x,-y,1/2+z
-x+y,-x,z
y,-x+y,1/2+z
-x+y,y,z
x,x-y,z
-y,-x,z
y,x,1/2+z
x-y,-y,1/2+z
-x,-x+y,1/2+z
loop_
_atom_site_type_symbol
_atom_site_label
_atom_site_fract_x
_atom_site_fract_y
_atom_site_fract_z
Si Si1 0.449203 0.144658 0.570730
Si Si2 0.792159 0.046323 0.548123
Si Si3 0.067729 0.765318 0.766378
Si Si4 0.832990 0.498273 0.855605
Si Si5 0.021676 0.429402 0.856756
O O1 0.475629 0.237815 0.511846
O O2 0.349396 0.096524 0.602541
O O3 0.499950 0.157264 0.701580
O O4 0.468650 0.088875 0.472622
O O5 0.894395 0.105605 0.560718
O O6 0.767574 0.020199 0.398341
O O7 0.759234 0.965307 0.642286
O O8 0.168132 0.831868 0.782070
O O9 0.053297 0.669727 0.754136
O O10 0.760506 0.521012 0.899532
O O11 0.805309 0.402655 0.901690
O O12 0.926831 0.565584 0.911118
O O13 0.018402 0.509201 0.791111
#
# Coordination Sequence:
#
# PCOD8326762 Si02
#       5
#    12  12  12  12  12
#     4   9  17  32  51  73 102 134 175 228 271 316
#     4   9  18  33  54  79 111 141 176 224 277 326
#     4  10  20  35  54  82 113 144 182 231 276 323
#     4  10  19  31  50  75 104 136 173 221 272 319
#     4  10  19  31  50  73 102 141 180 220 269 324
#
# _framework density 20.264783999999999
#
# number of rings (size 3 to 8) (size 9 to 14) (size 15 to 20)
#    0.000    2.400    2.000    2.600    0.000    0.800 
#    0.000    3.000    0.000    4.800    0.000    0.000 
#    0.000    0.000    0.000    0.000    0.000    0.000 
#
# Total GULP energy -743308.367814 kJ/mol
# GULP energy per Si atom -12388.472797 kJ/mol
# Density = 2.021866 g / cm^3
# Si number density = 20.264784 Si / 1000 Ang^3
#
#
#
# Elastic Constant Matrix: (Units=GPa)
#
#
# Indices 1 2 3 4 5 6 
#
# 1 91.7527 51.5062 25.2749 0.0000 0.0000 0.0000
# 2 51.5062 91.7527 25.2749 0.0000 0.0000 0.0000
# 3 25.2749 25.2749 66.0038 0.0000 0.0000 0.0000
# 4 0.0000 0.0000 0.0000 18.6059 0.0000 0.0000
# 5 0.0000 0.0000 0.0000 0.0000 18.6059 0.0000
# 6 0.0000 0.0000 0.0000 0.0000 0.0000 20.1232
#
#
#
# Elastic Compliance Matrix: (Units=1/GPa)
#
#
# Indices 1 2 3 4 5 6 
#
# 1 0.016459 -0.008388 -0.003091 0.000000 0.000000 0.000000
# 2 -0.008388 0.016459 -0.003091 0.000000 0.000000 0.000000
# 3 -0.003091 -0.003091 0.017518 0.000000 0.000000 0.000000
# 4 0.000000 0.000000 0.000000 0.053746 0.000000 0.000000
# 5 0.000000 0.000000 0.000000 0.000000 0.053746 0.000000
# 6 0.000000 0.000000 0.000000 0.000000 0.000000 0.049694
#
#
# Mechanical properties :
#
#
# Convention : Reuss Voigt Hill
#
# Bulk Modulus (GPa) = 46.95493 50.40237 48.67865
# Shear Modulus (GPa) = 20.50361 21.29720 20.90041
#
# Velocity S-wave (km/s) = 3.18431 3.24535 3.21497
# Velocity P-wave (km/s) = 6.06142 6.24251 6.15263
#
# Compressibility (1/GPa) = 0.02129702
#
# Stress axis : x y z
#
# Youngs Moduli (GPa) = 60.75739 60.75739 57.08536
#
# Poissons Ratio (x) = 0.50963 0.17643
# Poissons Ratio (y) = 0.50963 0.17643
# Poissons Ratio (z) = 0.18778 0.18778
#
# Static dielectric constant tensor:
#      x y z
#    x 3.684470 0.000000 0.000000 
#    y 0.000000 3.684470 0.000000 
#    z 0.000000 0.000000 3.306050 
# 
# 
# High freq. dielectric constant tensor:
#      x y z
#    x 1.782170 0.000000 0.000000 
#    y 0.000000 1.782170 0.000000 
#    z 0.000000 0.000000 1.757070 
# 
# From -- ./inp_files/1747.got.cif
#   From: 2010.03.12/outbox.cif.g09.slc.cpg/sg186_1_cif.got.tgz:1747.got - 2010.04.01 11:56:34.
