data_PCOD8326670
_publ_section_title
;
Structure prediction by ZEFSAII (Michael W. Deem and Ramdas Pophale) SiO2 
 PCOD8326670
Probable space group: P 63 C M
;
_chemical_formula_sum "Si O2"
_cell_formula_units_Z 66
_cell_length_a 20.352202
_cell_length_b 20.352202
_cell_length_c 8.821186
_cell_angle_alpha 90.000000
_cell_angle_beta 90.000000
_cell_angle_gamma 120.000000
_cell_volume 3164.320174
_symmetry_space_group_name_H-M "P 63 C M"
_symmetry_group_IT_number 185
_symmetry_cell_setting 'hexagonal'
loop_
_space_group_symop_operation_xyz
x,y,z
x-y,x,1/2+z
-y,x-y,z
-x,-y,1/2+z
-x+y,-x,z
y,-x+y,1/2+z
-x+y,y,1/2+z
x,x-y,1/2+z
-y,-x,1/2+z
y,x,z
x-y,-y,z
-x,-x+y,z
loop_
_atom_site_type_symbol
_atom_site_label
_atom_site_fract_x
_atom_site_fract_y
_atom_site_fract_z
Si Si1 0.086079 0.000000 0.523571
Si Si2 0.215499 0.000000 0.691730
Si Si3 0.518523 0.914104 0.858023
Si Si4 0.914103 0.518522 0.189114
Si Si5 0.882333 0.246498 0.844282
Si Si6 0.882334 0.635836 0.702856
Si Si7 0.000000 0.215498 0.355407
O O1 0.135040 0.000000 0.671620
O O2 0.135039 0.000000 0.375519
O O3 0.000000 0.925625 0.523571
O O4 0.205554 0.927187 0.781087
O O5 0.248016 0.000000 0.523568
O O6 0.436338 0.872674 0.773567
O O7 0.583774 0.916155 0.753488
O O8 0.540301 0.000000 0.887439
O O9 0.511761 0.875492 0.023569
O O10 0.916152 0.583772 0.293652
O O11 0.000000 0.540302 0.159698
O O12 0.798407 0.201593 0.773570
O O13 0.881861 0.241438 0.023569
O O14 0.927187 0.721634 0.766049
#
# Coordination Sequence:
#
# PCOD8326670 Si02
#       7
#     6   6  12  12  12  12   6
#     4   8  20  46  74  94 118 166 228 302 354 448
#     4  10  21  41  68  95 126 159 223 287 372 413
#     4  10  20  36  62  94 134 170 209 256 319 397
#     4  10  20  36  62  94 134 170 209 256 319 397
#     4  12  24  40  63  95 132 174 222 283 349 418
#     4  12  24  40  63  95 132 174 222 283 349 418
#     4  10  21  41  68  95 126 159 223 287 372 413
#
# _framework density 20.857559999999999
#
# number of rings (size 3 to 8) (size 9 to 14) (size 15 to 20)
#    0.727    0.727    1.818    4.909    0.000    1.455 
#    3.273    0.000    0.000    5.091    0.000    5.091 
#    0.000    0.000    0.000    0.000    0.000    0.000 
#
# Total GULP energy -817732.435600 kJ/mol
# GULP energy per Si atom -12389.885388 kJ/mol
# Density = 2.081009 g / cm^3
# Si number density = 20.857560 Si / 1000 Ang^3
#
#
#
# Elastic Constant Matrix: (Units=GPa)
#
#
# Indices 1 2 3 4 5 6 
#
# 1 81.5303 64.3311 54.8579 0.0000 0.0000 0.0000
# 2 64.3311 81.5303 54.8579 0.0000 0.0000 0.0000
# 3 54.8579 54.8579 213.1246 0.0000 0.0000 0.0000
# 4 0.0000 0.0000 0.0000 31.3794 0.0000 0.0000
# 5 0.0000 0.0000 0.0000 0.0000 31.3794 0.0000
# 6 0.0000 0.0000 0.0000 0.0000 0.0000 8.5996
#
#
#
# Elastic Compliance Matrix: (Units=1/GPa)
#
#
# Indices 1 2 3 4 5 6 
#
# 1 0.033322 -0.024820 -0.002188 0.000000 0.000000 0.000000
# 2 -0.024820 0.033322 -0.002188 0.000000 0.000000 0.000000
# 3 -0.002188 -0.002188 0.005819 0.000000 0.000000 0.000000
# 4 0.000000 0.000000 0.000000 0.031868 0.000000 0.000000
# 5 0.000000 0.000000 0.000000 0.000000 0.031868 0.000000
# 6 0.000000 0.000000 0.000000 0.000000 0.000000 0.116284
#
#
# Mechanical properties :
#
#
# Convention : Reuss Voigt Hill
#
# Bulk Modulus (GPa) = 71.07844 80.47543 75.77694
# Shear Modulus (GPa) = 15.84452 27.74758 21.79605
#
# Velocity S-wave (km/s) = 2.75917 3.65134 3.23615
# Velocity P-wave (km/s) = 6.65603 7.51288 7.09740
#
# Compressibility (1/GPa) = 0.01406896
#
# Stress axis : x y z
#
# Youngs Moduli (GPa) = 30.01017 30.01017 171.86097
#
# Poissons Ratio (x) = 0.74486 0.37610
# Poissons Ratio (y) = 0.74486 0.37610
# Poissons Ratio (z) = 0.06567 0.06567
#
# Static dielectric constant tensor:
#      x y z
#    x 3.453310 0.000000 0.000000 
#    y 0.000000 3.453310 0.000000 
#    z 0.000000 0.000000 4.094660 
# 
# 
# High freq. dielectric constant tensor:
#      x y z
#    x 1.793470 0.000000 0.000000 
#    y 0.000000 1.793470 0.000000 
#    z 0.000000 0.000000 1.837560 
# 
# From -- ./inp_files/580.got.cif
#   From: 2010.03.12/outbox.cif.g09.slc.cpg/sg185_cif.got.tgz:580.got - 2010.04.01 11:55:19.
