data_PCOD8326660
_publ_section_title
;
Structure prediction by ZEFSAII (Michael W. Deem and Ramdas Pophale) SiO2 
 PCOD8326660
Probable space group: P 63 C M
;
_chemical_formula_sum "Si O2"
_cell_formula_units_Z 84
_cell_length_a 18.586529
_cell_length_b 18.586529
_cell_length_c 14.091082
_cell_angle_alpha 90.000000
_cell_angle_beta 90.000000
_cell_angle_gamma 120.000000
_cell_volume 4215.718088
_symmetry_space_group_name_H-M "P 63 C M"
_symmetry_group_IT_number 185
_symmetry_cell_setting 'hexagonal'
loop_
_space_group_symop_operation_xyz
x,y,z
x-y,x,1/2+z
-y,x-y,z
-x,-y,1/2+z
-x+y,-x,z
y,-x+y,1/2+z
-x+y,y,1/2+z
x,x-y,1/2+z
-y,-x,1/2+z
y,x,z
x-y,-y,z
-x,-x+y,z
loop_
_atom_site_type_symbol
_atom_site_label
_atom_site_fract_x
_atom_site_fract_y
_atom_site_fract_z
Si Si1 0.429157 0.904408 0.196480
Si Si2 0.575193 0.478911 0.413724
Si Si3 0.192155 0.095251 0.792387
Si Si4 0.311294 0.476495 0.083211
Si Si5 0.196796 0.292300 0.129150
Si Si6 0.805052 0.711603 0.968947
Si Si7 0.473583 0.316730 0.526479
O O1 0.394960 0.878715 0.304398
O O2 0.464417 0.846470 0.157213
O O3 0.356139 0.892875 0.125093
O O4 0.502484 0.000000 0.193773
O O5 0.506618 0.506618 0.420154
O O6 0.650906 0.537053 0.484662
O O7 0.534007 0.385063 0.451397
O O8 0.152003 0.152003 0.818893
O O9 0.248784 0.130880 0.699123
O O10 0.260732 0.099979 0.864462
O O11 0.117512 0.000000 0.780859
O O12 0.252004 0.391250 0.138518
O O13 0.254252 0.515532 0.053167
O O14 0.257596 0.257596 0.148977
O O15 0.155012 0.267728 0.026672
O O16 0.763806 0.763806 0.007913
O O17 0.737183 0.614591 0.975254
#
# Coordination Sequence:
#
# PCOD8326660 Si02
#       7
#    12  12  12  12  12  12  12
#     4  10  21  39  64  88 117 158 204 244 293 361
#     4  10  21  39  64  88 117 158 204 244 293 361
#     4  10  21  36  56  84 118 160 204 248 300 358
#     4  10  21  38  59  85 122 152 194 244 297 352
#     4  10  20  35  56  82 115 151 193 243 295 349
#     4  10  20  35  56  82 115 151 193 243 295 349
#     4  10  21  38  59  85 122 152 194 244 297 352
#
# _framework density 19.925431
#
# number of rings (size 3 to 8) (size 9 to 14) (size 15 to 20)
#    0.000    2.000    0.000    4.429    2.000    1.143 
#   14.571    0.000    0.000    4.571    0.000    0.000 
#    0.000    0.000    0.000    0.000    0.000    0.000 
#
# Total GULP energy -1041143.639336 kJ/mol
# GULP energy per Si atom -12394.567135 kJ/mol
# Density = 1.988008 g / cm^3
# Si number density = 19.925431 Si / 1000 Ang^3
#
#
#
# Elastic Constant Matrix: (Units=GPa)
#
#
# Indices 1 2 3 4 5 6 
#
# 1 91.5859 33.2435 25.4839 0.0000 0.0000 0.0000
# 2 33.2435 91.5859 25.4839 0.0000 0.0000 0.0000
# 3 25.4839 25.4839 98.9688 0.0000 0.0000 0.0000
# 4 0.0000 0.0000 0.0000 29.5845 0.0000 0.0000
# 5 0.0000 0.0000 0.0000 0.0000 29.5845 0.0000
# 6 0.0000 0.0000 0.0000 0.0000 0.0000 29.1712
#
#
#
# Elastic Compliance Matrix: (Units=1/GPa)
#
#
# Indices 1 2 3 4 5 6 
#
# 1 0.013046 -0.004094 -0.002305 0.000000 0.000000 0.000000
# 2 -0.004094 0.013046 -0.002305 0.000000 0.000000 0.000000
# 3 -0.002305 -0.002305 0.011291 0.000000 0.000000 0.000000
# 4 0.000000 0.000000 0.000000 0.033801 0.000000 0.000000
# 5 0.000000 0.000000 0.000000 0.000000 0.033801 0.000000
# 6 0.000000 0.000000 0.000000 0.000000 0.000000 0.034280
#
#
# Mechanical properties :
#
#
# Convention : Reuss Voigt Hill
#
# Bulk Modulus (GPa) = 50.06244 50.06258 50.06251
# Shear Modulus (GPa) = 30.61217 30.86335 30.73776
#
# Velocity S-wave (km/s) = 3.92387 3.93993 3.93191
# Velocity P-wave (km/s) = 6.76080 6.77325 6.76703
#
# Compressibility (1/GPa) = 0.01997506
#
# Stress axis : x y z
#
# Youngs Moduli (GPa) = 76.65099 76.65099 88.56371
#
# Poissons Ratio (x) = 0.31381 0.20415
# Poissons Ratio (y) = 0.31381 0.20415
# Poissons Ratio (z) = 0.17669 0.17669
#
# Static dielectric constant tensor:
#      x y z
#    x 3.615610 0.000000 0.000000 
#    y 0.000000 3.615610 0.000000 
#    z 0.000000 0.000000 3.755400 
# 
# 
# High freq. dielectric constant tensor:
#      x y z
#    x 1.773890 0.000000 0.000000 
#    y 0.000000 1.773890 0.000000 
#    z 0.000000 0.000000 1.781040 
# 
# From -- ./inp_files/1505.got.cif
#   From: 2010.03.12/outbox.cif.g09.slc.cpg/sg185_cif.got.tgz:1505.got - 2010.04.01 11:55:19.
