data_PCOD8326439
_publ_section_title
;
Structure prediction by ZEFSAII (Michael W. Deem and Ramdas Pophale) SiO2 
 PCOD8326439
Probable space group: P 63 2 2
;
_chemical_formula_sum "Si O2"
_cell_formula_units_Z 46
_cell_length_a 17.278620
_cell_length_b 17.278620
_cell_length_c 7.501017
_cell_angle_alpha 90.000000
_cell_angle_beta 90.000000
_cell_angle_gamma 120.000000
_cell_volume 1939.406686
_symmetry_space_group_name_H-M "P 63 2 2"
_symmetry_group_IT_number 182
_symmetry_cell_setting 'hexagonal'
loop_
_space_group_symop_operation_xyz
x,y,z
x-y,x,1/2+z
-y,x-y,z
-x,-y,1/2+z
-x+y,-x,z
y,-x+y,1/2+z
x-y,-y,-z
-x,-x+y,-z
y,x,-z
-y,-x,1/2-z
-x+y,y,1/2-z
x,x-y,1/2-z
loop_
_atom_site_type_symbol
_atom_site_label
_atom_site_fract_x
_atom_site_fract_y
_atom_site_fract_z
Si Si1 0.905148 0.634456 0.298404
Si Si2 0.461822 0.600006 0.954563
Si Si3 0.170443 0.171473 0.793762
Si Si4 0.584376 0.584376 0.500000
Si Si5 0.666668 0.333334 0.461571
O O1 0.803790 0.607579 0.250000
O O2 0.897153 0.569206 0.462000
O O3 0.963766 0.740991 0.333737
O O4 0.956539 0.617499 0.142696
O O5 0.432111 0.567890 0.750000
O O6 0.436458 0.512846 0.074875
O O7 0.408875 0.646447 0.034347
O O8 0.200895 0.100448 0.750000
O O9 0.065142 0.130284 0.750000
O O10 0.195472 0.195472 0.000000
O O11 0.666668 0.333334 0.250000
#
# Coordination Sequence:
#
# PCOD8326439 Si02
#       5
#    12  12  12   6   4
#     4  10  20  37  58  84 122 167 215 268 323 401
#     4   9  17  30  53  82 115 157 202 266 313 382
#     4  11  23  42  65  92 126 169 217 270 333 406
#     4  10  18  34  54  84 122 158 206 272 328 376
#     4   9  15  30  54  81 109 149 214 255 309 393
#
# _framework density 23.718595000000001
#
# number of rings (size 3 to 8) (size 9 to 14) (size 15 to 20)
#    0.000    2.087    1.304    4.957    0.000    0.000 
#    9.391    0.000    0.000    0.000    0.000    0.000 
#    0.000    0.000    0.000    0.000    0.000    0.000 
#
# Total GULP energy -569890.852918 kJ/mol
# GULP energy per Si atom -12388.931585 kJ/mol
# Density = 2.366461 g / cm^3
# Si number density = 23.718595 Si / 1000 Ang^3
#
#
#
# Elastic Constant Matrix: (Units=GPa)
#
#
# Indices 1 2 3 4 5 6 
#
# 1 -1535.2305 1787.7137 18.8834 0.0118 -0.0199 1.9956
# 2 1787.7137-1535.2457 18.8567 -0.0117 0.0198 -2.0142
# 3 18.8834 18.8567 32.9716 0.0001 0.0000 -0.0044
# 4 0.0118 -0.0117 0.0001 19.1551 -0.0001 -0.0198
# 5 -0.0199 0.0198 0.0000 -0.0001 19.1550 -0.0117
# 6 1.9956 -2.0142 -0.0044 -0.0198 -0.0117-1661.5533
#
#
#
# Elastic Compliance Matrix: (Units=1/GPa)
#
#
# Indices 1 2 3 4 5 6 
#
# 1 0.002015 0.002316 -0.002479 0.000000 0.000000 0.000000
# 2 0.002316 0.002015 -0.002479 0.000000 0.000000 0.000000
# 3 -0.002479 -0.002479 0.033166 0.000000 0.000000 0.000000
# 4 0.000000 0.000000 0.000000 0.052205 0.000000 -0.000001
# 5 0.000000 0.000000 0.000000 0.000000 0.052206 0.000000
# 6 0.000000 0.000000 0.000000 -0.000001 0.000000 -0.000602
#
#
# Mechanical properties :
#
#
# Convention : Reuss Voigt Hill
#
# Bulk Modulus (GPa) = 31.33456 68.15588 49.74522
# Shear Modulus (GPa) = 31.86189 -648.84587 -308.49199
#
# Velocity S-wave (km/s) = 3.66912 -16.55759 -11.41690
# Velocity P-wave (km/s) = 5.58476 18.35050 12.36024
#
# Compressibility (1/GPa) = 0.03191365
#
# Stress axis : x y z
#
# Youngs Moduli (GPa) = 496.23328 496.22836 30.15094
#
# Poissons Ratio (x) = -1.14933 0.07474
# Poissons Ratio (y) = -1.14934 0.07474
# Poissons Ratio (z) = 1.23003 1.23015
#
# Static dielectric constant tensor:
#      x y z
#    x 4.777970 0.000000 -0.000010 
#    y 0.000000 4.777950 0.000000 
#    z -0.000010 0.000000 3.519460 
# 
# 
# High freq. dielectric constant tensor:
#      x y z
#    x 1.960410 0.000000 0.000000 
#    y 0.000000 1.960410 0.000000 
#    z 0.000000 0.000000 1.876530 
# 
# From -- ./inp_files/1500.got.cif
#   From: 2010.03.12/outbox.cif.g09.slc.cpg/sg182_1_cif.got.tgz:1500.got - 2010.04.01 11:49:36.
