data_PCOD8326811
_publ_section_title
;
Structure prediction by ZEFSAII (Michael W. Deem and Ramdas Pophale) SiO2 
 PCOD8326811
Probable space group: P 63 M C
;
_chemical_formula_sum "Si O2"
_cell_formula_units_Z 84
_cell_length_a 22.281293
_cell_length_b 22.281293
_cell_length_c 9.882338
_cell_angle_alpha 90.000000
_cell_angle_beta 90.000000
_cell_angle_gamma 120.000000
_cell_volume 4248.847218
_symmetry_space_group_name_H-M "P 63 M C"
_symmetry_group_IT_number 186
_symmetry_cell_setting 'hexagonal'
loop_
_space_group_symop_operation_xyz
x,y,z
x-y,x,1/2+z
-y,x-y,z
-x,-y,1/2+z
-x+y,-x,z
y,-x+y,1/2+z
-x+y,y,z
x,x-y,z
-y,-x,z
y,x,1/2+z
x-y,-y,1/2+z
-x,-x+y,1/2+z
loop_
_atom_site_type_symbol
_atom_site_label
_atom_site_fract_x
_atom_site_fract_y
_atom_site_fract_z
Si Si1 0.707407 0.553185 0.209330
Si Si2 0.490142 0.846100 0.972307
Si Si3 0.795174 0.462874 0.757672
Si Si4 0.955611 0.324285 0.417829
Si Si5 0.914220 0.526772 0.953821
Si Si6 0.861284 0.860755 0.703033
Si Si7 0.814386 0.049037 0.450316
O O1 0.787244 0.574487 0.174641
O O2 0.679616 0.493655 0.326521
O O3 0.700478 0.617963 0.269708
O O4 0.658469 0.525136 0.078291
O O5 0.438435 0.876870 0.957815
O O6 0.466268 0.792292 0.094594
O O7 0.567134 0.906451 0.014552
O O8 0.743050 0.486099 0.818656
O O9 0.767313 0.383657 0.800484
O O10 0.871022 0.509703 0.816269
O O11 0.965898 0.263038 0.477624
O O12 0.026169 0.396650 0.417019
O O13 0.938366 0.469183 0.978948
O O14 0.879862 0.939931 0.694281
O O15 0.799715 0.816994 0.807085
O O16 0.834300 0.825054 0.559297
O O17 0.930011 0.860022 0.748913
O O18 0.868312 0.131689 0.455745
#
# Coordination Sequence:
#
# PCOD8326811 Si02
#       7
#    12  12  12  12  12  12  12
#     4  10  22  40  63  87 120 166 209 254 309 371
#     4   9  20  36  61  86 116 158 207 255 301 364
#     4  10  21  38  59  87 121 159 200 250 310 372
#     4  10  24  38  61  87 123 162 199 249 308 365
#     4  11  24  39  63  94 125 159 208 262 314 377
#     4  10  21  39  62  88 119 156 200 248 298 352
#     4  10  22  38  58  87 121 156 197 244 296 361
#
# _framework density 19.770067999999998
#
# number of rings (size 3 to 8) (size 9 to 14) (size 15 to 20)
#    0.857    1.143    0.000    2.857    4.000    0.000 
#    0.000    5.000    0.000    4.000    0.000    0.000 
#    0.000    0.000    0.000    0.000    0.000    0.000 
#
# Total GULP energy -1040609.555067 kJ/mol
# GULP energy per Si atom -12388.208989 kJ/mol
# Density = 1.972507 g / cm^3
# Si number density = 19.770068 Si / 1000 Ang^3
#
#
#
# Elastic Constant Matrix: (Units=GPa)
#
#
# Indices 1 2 3 4 5 6 
#
# 1 122.9253 65.0207 24.0536 0.0000 0.0000 0.0000
# 2 65.0207 122.9253 24.0536 0.0000 0.0000 0.0000
# 3 24.0536 24.0536 74.7096 0.0000 0.0000 0.0000
# 4 0.0000 0.0000 0.0000 18.4060 0.0000 0.0000
# 5 0.0000 0.0000 0.0000 0.0000 18.4060 0.0000
# 6 0.0000 0.0000 0.0000 0.0000 0.0000 28.9523
#
#
#
# Elastic Compliance Matrix: (Units=1/GPa)
#
#
# Indices 1 2 3 4 5 6 
#
# 1 0.011534 -0.005736 -0.001867 0.000000 0.000000 0.000000
# 2 -0.005736 0.011534 -0.001867 0.000000 0.000000 0.000000
# 3 -0.001867 -0.001867 0.014587 0.000000 0.000000 0.000000
# 4 0.000000 0.000000 0.000000 0.054330 0.000000 0.000000
# 5 0.000000 0.000000 0.000000 0.000000 0.054330 0.000000
# 6 0.000000 0.000000 0.000000 0.000000 0.000000 0.034540
#
#
# Mechanical properties :
#
#
# Convention : Reuss Voigt Hill
#
# Bulk Modulus (GPa) = 53.42803 60.75730 57.09267
# Shear Modulus (GPa) = 24.26795 26.98169 25.62482
#
# Velocity S-wave (km/s) = 3.50738 3.69829 3.60410
# Velocity P-wave (km/s) = 6.59437 7.00251 6.80150
#
# Compressibility (1/GPa) = 0.01871677
#
# Stress axis : x y z
#
# Youngs Moduli (GPa) = 86.69902 86.69902 68.55279
#
# Poissons Ratio (x) = 0.49727 0.12798
# Poissons Ratio (y) = 0.49727 0.12798
# Poissons Ratio (z) = 0.16186 0.16186
#
# Static dielectric constant tensor:
#      x y z
#    x 3.493420 0.000000 0.000000 
#    y 0.000000 3.493420 0.000000 
#    z 0.000000 0.000000 3.504980 
# 
# 
# High freq. dielectric constant tensor:
#      x y z
#    x 1.768410 0.000000 0.000000 
#    y 0.000000 1.768410 0.000000 
#    z 0.000000 0.000000 1.766170 
# 
# From -- ./inp_files/1882.got.cif
#   From: 2010.03.12/outbox.cif.g09.slc.cpg/sg186_1_cif.got.tgz:1882.got - 2010.04.01 11:56:34.
