data_PCOD8326709
_publ_section_title
;
Structure prediction by ZEFSAII (Michael W. Deem and Ramdas Pophale) SiO2 
 PCOD8326709
Probable space group: P 63 M C
;
_chemical_formula_sum "Si O2"
_cell_formula_units_Z 72
_cell_length_a 28.995680
_cell_length_b 28.995680
_cell_length_c 9.960757
_cell_angle_alpha 90.000000
_cell_angle_beta 90.000000
_cell_angle_gamma 120.000000
_cell_volume 7252.530658
_symmetry_space_group_name_H-M "P 63 M C"
_symmetry_group_IT_number 186
_symmetry_cell_setting 'hexagonal'
loop_
_space_group_symop_operation_xyz
x,y,z
x-y,x,1/2+z
-y,x-y,z
-x,-y,1/2+z
-x+y,-x,z
y,-x+y,1/2+z
-x+y,y,z
x,x-y,z
-y,-x,z
y,x,1/2+z
x-y,-y,1/2+z
-x,-x+y,1/2+z
loop_
_atom_site_type_symbol
_atom_site_label
_atom_site_fract_x
_atom_site_fract_y
_atom_site_fract_z
Si Si1 0.423699 0.466044 0.811470
Si Si2 0.667019 0.229941 0.164919
Si Si3 0.580470 0.050976 0.005688
Si Si4 0.165435 0.528208 0.417496
Si Si5 0.556687 0.333253 0.648361
Si Si6 0.524527 0.371289 0.408151
O O1 0.477341 0.522660 0.808424
O O2 0.407601 0.446254 0.657103
O O3 0.377173 0.472538 0.885548
O O4 0.430281 0.423286 0.899951
O O5 0.625633 0.251266 0.148859
O O6 0.722102 0.277899 0.218695
O O7 0.644707 0.181230 0.265523
O O8 0.676581 0.208871 0.024321
O O9 0.525582 0.051163 0.006061
O O10 0.628705 0.107193 0.951632
O O11 0.160909 0.580455 0.430019
O O12 0.186301 0.523591 0.272556
O O13 0.560924 0.280462 0.656602
O O14 0.616800 0.383201 0.641306
O O15 0.520249 0.329437 0.520735
O O16 0.572175 0.427826 0.457850
#
# Coordination Sequence:
#
# PCOD8326709 Si02
#       6
#    12  12  12  12  12  12
#     4   9  16  25  37  51  63  74  88 107 136 172
#     4  10  17  26  37  47  59  77  99 121 141 162
#     4   9  16  25  37  51  63  74  88 107 136 172
#     4   9  17  27  36  47  63  76  91 117 141 163
#     4  10  19  28  37  47  61  81 103 123 141 160
#     4   9  17  27  36  47  63  76  91 117 141 163
#
# _framework density 9.9275690000000001
#
# number of rings (size 3 to 8) (size 9 to 14) (size 15 to 20)
#    0.000    2.667    1.667    1.333    2.333    0.000 
#    0.000    3.333    0.000    0.000    0.000    0.000 
#    0.000    0.000    0.000    0.000    0.000    0.000 
#
# Total GULP energy -892259.763713 kJ/mol
# GULP energy per Si atom -12392.496718 kJ/mol
# Density = 0.990497 g / cm^3
# Si number density = 9.927569 Si / 1000 Ang^3
#
#
#
# Elastic Constant Matrix: (Units=GPa)
#
#
# Indices 1 2 3 4 5 6 
#
# 1 30.3627 22.3782 19.4662 0.0000 0.0000 0.0000
# 2 22.3782 30.3627 19.4662 0.0000 0.0000 0.0000
# 3 19.4662 19.4662 71.9902 0.0000 0.0000 0.0000
# 4 0.0000 0.0000 0.0000 11.1536 0.0000 0.0000
# 5 0.0000 0.0000 0.0000 0.0000 11.1536 0.0000
# 6 0.0000 0.0000 0.0000 0.0000 0.0000 3.9923
#
#
#
# Elastic Compliance Matrix: (Units=1/GPa)
#
#
# Indices 1 2 3 4 5 6 
#
# 1 0.074466 -0.050777 -0.006406 0.000000 0.000000 0.000000
# 2 -0.050777 0.074466 -0.006406 0.000000 0.000000 0.000000
# 3 -0.006406 -0.006406 0.017355 0.000000 0.000000 0.000000
# 4 0.000000 0.000000 0.000000 0.089657 0.000000 0.000000
# 5 0.000000 0.000000 0.000000 0.000000 0.089657 0.000000
# 6 0.000000 0.000000 0.000000 0.000000 0.000000 0.250484
#
#
# Mechanical properties :
#
#
# Convention : Reuss Voigt Hill
#
# Bulk Modulus (GPa) = 25.56834 28.37077 26.96956
# Shear Modulus (GPa) = 6.79074 10.02023 8.40549
#
# Velocity S-wave (km/s) = 2.61823 3.18045 2.91294
# Velocity P-wave (km/s) = 5.91194 6.49052 6.20797
#
# Compressibility (1/GPa) = 0.03911087
#
# Stress axis : x y z
#
# Youngs Moduli (GPa) = 13.42903 13.42903 57.62062
#
# Poissons Ratio (x) = 0.68188 0.36909
# Poissons Ratio (y) = 0.68188 0.36909
# Poissons Ratio (z) = 0.08602 0.08602
#
# Static dielectric constant tensor:
#      x y z
#    x 2.022440 0.000000 0.000000 
#    y 0.000000 2.022440 0.000000 
#    z 0.000000 0.000000 2.422960 
# 
# 
# High freq. dielectric constant tensor:
#      x y z
#    x 1.334800 0.000000 0.000000 
#    y 0.000000 1.334800 0.000000 
#    z 0.000000 0.000000 1.394830 
# 
# From -- ./inp_files/1953.got.cif
#   From: 2010.03.12/outbox.cif.g09.slc.cpg/sg186_1_cif.got.tgz:1953.got - 2010.04.01 11:56:34.
