data_PCOD8326417
_publ_section_title
;
Structure prediction by ZEFSAII (Michael W. Deem and Ramdas Pophale) SiO2 
 PCOD8326417
Probable space group: P 64 2 2
;
_chemical_formula_sum "Si O2"
_cell_formula_units_Z 60
_cell_length_a 11.338261
_cell_length_b 11.338261
_cell_length_c 25.458664
_cell_angle_alpha 90.000000
_cell_angle_beta 90.000000
_cell_angle_gamma 120.000000
_cell_volume 2834.386958
_symmetry_space_group_name_H-M "P 64 2 2"
_symmetry_group_IT_number 181
_symmetry_cell_setting 'hexagonal'
loop_
_space_group_symop_operation_xyz
x,y,z
x-y,x,2/3+z
-y,x-y,1/3+z
-x,-y,z
-x+y,-x,2/3+z
y,-x+y,1/3+z
x-y,-y,-z
-x,-x+y,2/3-z
y,x,1/3-z
-y,-x,1/3-z
-x+y,y,-z
x,x-y,2/3-z
loop_
_atom_site_type_symbol
_atom_site_label
_atom_site_fract_x
_atom_site_fract_y
_atom_site_fract_z
Si Si1 0.506691 0.178291 0.246282
Si Si2 0.849091 0.223489 0.855125
Si Si3 0.033107 0.883458 0.225479
Si Si4 0.465914 0.618096 0.049917
Si Si5 0.897145 0.290667 0.055312
O O1 0.435001 0.176002 0.191748
O O2 0.552593 0.304782 0.284818
O O3 0.638310 0.158476 0.236402
O O4 0.393183 0.058376 0.282344
O O5 0.809270 0.305859 0.894547
O O6 0.000000 0.315736 0.833334
O O7 0.842214 0.102947 0.890353
O O8 0.086514 0.913487 0.166667
O O9 0.141737 0.869484 0.261802
O O10 0.000000 0.000000 0.246342
O O11 0.500000 0.500000 0.050883
O O12 0.543831 0.718303 0.000927
#
# Coordination Sequence:
#
# PCOD8326417 Si02
#       5
#    12  12  12  12  12
#     4  11  23  43  67 101 138 181 234 287 350 421
#     4  12  23  41  69 101 135 180 235 291 345 412
#     4  11  22  44  71  99 137 181 236 289 339 423
#     4  12  25  40  69 102 142 174 231 295 347 420
#     4  11  25  45  71 100 139 182 234 290 357 420
#
# _framework density 21.168597999999999
#
# number of rings (size 3 to 8) (size 9 to 14) (size 15 to 20)
#    0.000    0.600    8.000    1.200    0.000    2.400 
#    0.000    1.000    0.000    2.400    0.000    0.000 
#    0.000    0.000    0.000    0.000    0.000    0.000 
#
# Total GULP energy -743655.642140 kJ/mol
# GULP energy per Si atom -12394.260702 kJ/mol
# Density = 2.112042 g / cm^3
# Si number density = 21.168598 Si / 1000 Ang^3
#
#
#
# Elastic Constant Matrix: (Units=GPa)
#
#
# Indices 1 2 3 4 5 6 
#
# 1 115.9898 43.1053 49.9800 0.0000 0.0000 0.0000
# 2 43.1053 115.9898 49.9800 0.0000 0.0000 0.0000
# 3 49.9800 49.9800 102.4956 0.0000 0.0000 0.0000
# 4 0.0000 0.0000 0.0000 34.3229 0.0000 0.0000
# 5 0.0000 0.0000 0.0000 0.0000 34.3229 0.0000
# 6 0.0000 0.0000 0.0000 0.0000 0.0000 36.4423
#
#
#
# Elastic Compliance Matrix: (Units=1/GPa)
#
#
# Indices 1 2 3 4 5 6 
#
# 1 0.011391 -0.002329 -0.004419 0.000000 0.000000 0.000000
# 2 -0.002329 0.011391 -0.004419 0.000000 0.000000 0.000000
# 3 -0.004419 -0.004419 0.014066 0.000000 0.000000 0.000000
# 4 0.000000 0.000000 0.000000 0.029135 0.000000 0.000000
# 5 0.000000 0.000000 0.000000 0.000000 0.029135 0.000000
# 6 0.000000 0.000000 0.000000 0.000000 0.000000 0.027441
#
#
# Mechanical properties :
#
#
# Convention : Reuss Voigt Hill
#
# Bulk Modulus (GPa) = 68.89687 68.95618 68.92652
# Shear Modulus (GPa) = 33.39317 33.77828 33.58572
#
# Velocity S-wave (km/s) = 3.97607 3.99893 3.98751
# Velocity P-wave (km/s) = 7.32777 7.34625 7.33701
#
# Compressibility (1/GPa) = 0.01451445
#
# Stress axis : x y z
#
# Youngs Moduli (GPa) = 87.78754 87.78754 71.09306
#
# Poissons Ratio (x) = 0.20447 0.31415
# Poissons Ratio (y) = 0.20447 0.31415
# Poissons Ratio (z) = 0.38792 0.38792
#
# Static dielectric constant tensor:
#      x y z
#    x 3.812950 0.000000 0.000000 
#    y 0.000000 3.812950 0.000000 
#    z 0.000000 0.000000 4.011150 
# 
# 
# High freq. dielectric constant tensor:
#      x y z
#    x 1.834670 0.000000 0.000000 
#    y 0.000000 1.834670 0.000000 
#    z 0.000000 0.000000 1.825030 
# 
# From -- ./inp_files/11175.got.cif
#   From: 2010.03.12/outbox.cif.g09.slc.cpg/sg181_6_cif.got.tgz:11175.got - 2010.04.01 11:42:41.
