data_PCOD8326902
_publ_section_title
;
Structure prediction by ZEFSAII (Michael W. Deem and Ramdas Pophale) SiO2 
 PCOD8326902
Probable space group: P -6 M 2
;
_chemical_formula_sum "Si O2"
_cell_formula_units_Z 84
_cell_length_a 17.812977
_cell_length_b 17.812977
_cell_length_c 20.399112
_cell_angle_alpha 90.000000
_cell_angle_beta 90.000000
_cell_angle_gamma 120.000000
_cell_volume 5605.507118
_symmetry_space_group_name_H-M "P -6 M 2"
_symmetry_group_IT_number 187
_symmetry_cell_setting 'hexagonal'
loop_
_space_group_symop_operation_xyz
x,y,z
-x+y,-x,-z
-y,x-y,z
x,y,-z
-x+y,-x,z
-y,x-y,-z
-y,-x,-z
-x+y,y,-z
x,x-y,-z
-x+y,y,z
x,x-y,z
-y,-x,z
loop_
_atom_site_type_symbol
_atom_site_label
_atom_site_fract_x
_atom_site_fract_y
_atom_site_fract_z
Si Si1 0.043055 0.607268 0.573759
Si Si2 0.093239 0.729786 0.813704
Si Si3 0.000646 0.835435 0.355056
Si Si4 0.511828 0.667051 0.303322
Si Si5 0.000140 0.170209 0.200004
Si Si6 0.335910 0.085547 0.574719
Si Si7 0.333435 0.493070 0.924962
O O1 0.077926 0.642072 0.500000
O O2 0.021496 0.510748 0.584121
O O3 0.116066 0.669041 0.625637
O O4 0.947909 0.596493 0.585029
O O5 0.176973 0.823028 0.806759
O O6 0.092470 0.673237 0.751403
O O7 0.012019 0.747164 0.817919
O O8 0.093932 0.681107 0.880075
O O9 0.928395 0.856789 0.381627
O O10 0.981201 0.743663 0.381232
O O11 0.000953 0.835629 0.277478
O O12 0.093184 0.906817 0.383057
O O13 0.494919 0.747460 0.298564
O O14 0.420812 0.579189 0.291879
O O15 0.079346 0.158692 0.171697
O O16 0.907963 0.092038 0.172619
O O17 0.304551 0.074646 0.500000
O O18 0.372308 0.186154 0.596726
O O19 0.258072 0.516144 0.912593
O O20 0.422942 0.577059 0.905108
O O21 0.334253 0.466105 0.000000
#
# Coordination Sequence:
#
# PCOD8326902 Si02
#       7
#    12  12  12  12  12  12  12
#     4   9  18  31  44  57  75 101 132 167 206 242
#     4   9  17  27  40  60  83 106 134 169 205 237
#     4   9  16  25  37  54  76 101 128 158 192 230
#     4  10  19  30  43  59  81 109 140 171 201 234
#     4   9  16  26  40  57  78 105 137 171 204 237
#     4   9  17  28  41  56  73  95 124 158 200 250
#     4   9  16  26  41  61  85 112 139 165 196 239
#
# _framework density 14.985262000000001
#
# number of rings (size 3 to 8) (size 9 to 14) (size 15 to 20)
#    0.000    2.857    0.000    1.857    0.000    4.000 
#    0.000    2.857    0.000    2.429    0.000    2.000 
#    0.000    1.143    0.000    3.429    0.000    2.000 
#
# Total GULP energy -1040848.601254 kJ/mol
# GULP energy per Si atom -12391.054777 kJ/mol
# Density = 1.495116 g / cm^3
# Si number density = 14.985262 Si / 1000 Ang^3
#
#
#
# Elastic Constant Matrix: (Units=GPa)
#
#
# Indices 1 2 3 4 5 6 
#
# 1 79.8398 46.8445 33.9892 0.0000 -0.0002 0.0000
# 2 46.8445 79.8398 33.9892 0.0000 0.0002 0.0000
# 3 33.9892 33.9892 58.7462 0.0000 0.0000 0.0000
# 4 0.0000 0.0000 0.0000 13.5880 0.0000 0.0002
# 5 -0.0002 0.0002 0.0000 0.0000 13.5880 0.0000
# 6 0.0000 0.0000 0.0000 0.0002 0.0000 16.4977
#
#
#
# Elastic Compliance Matrix: (Units=1/GPa)
#
#
# Indices 1 2 3 4 5 6 
#
# 1 0.020878 -0.009430 -0.006623 0.000000 0.000000 0.000000
# 2 -0.009430 0.020878 -0.006623 0.000000 0.000000 0.000000
# 3 -0.006623 -0.006623 0.024687 0.000000 0.000000 0.000000
# 4 0.000000 0.000000 0.000000 0.073594 0.000000 -0.000001
# 5 0.000000 0.000000 0.000000 0.000000 0.073594 0.000000
# 6 0.000000 0.000000 0.000000 -0.000001 0.000000 0.060615
#
#
# Mechanical properties :
#
#
# Convention : Reuss Voigt Hill
#
# Bulk Modulus (GPa) = 47.41908 49.78571 48.60239
# Shear Modulus (GPa) = 15.30793 15.64158 15.47476
#
# Velocity S-wave (km/s) = 3.19961 3.23429 3.21700
# Velocity P-wave (km/s) = 6.73517 6.87334 6.80460
#
# Compressibility (1/GPa) = 0.02108856
#
# Stress axis : x y z
#
# Youngs Moduli (GPa) = 47.89837 47.89837 40.50770
#
# Poissons Ratio (x) = 0.45167 0.26830
# Poissons Ratio (y) = 0.45167 0.26830
# Poissons Ratio (z) = 0.31725 0.31725
#
# Static dielectric constant tensor:
#      x y z
#    x 2.949940 0.000000 0.000000 
#    y 0.000000 2.949940 0.000000 
#    z 0.000000 0.000000 2.877100 
# 
# 
# High freq. dielectric constant tensor:
#      x y z
#    x 1.560040 0.000000 0.000000 
#    y 0.000000 1.560040 0.000000 
#    z 0.000000 0.000000 1.559960 
# 
# From -- ./inp_files/3666.got.cif
#   From: 2010.03.12/outbox.cif.g09.slc.cpg/sg187_2_cif.got.tgz:3666.got - 2010.04.01 11:58:23.
