data_PCOD8326607
_publ_section_title
;
Structure prediction by ZEFSAII (Michael W. Deem and Ramdas Pophale) SiO2 
 PCOD8326607
Probable space group: P 6 C C
;
_chemical_formula_sum "Si O2"
_cell_formula_units_Z 84
_cell_length_a 20.552266
_cell_length_b 20.552266
_cell_length_c 10.490465
_cell_angle_alpha 90.000000
_cell_angle_beta 90.000000
_cell_angle_gamma 120.000000
_cell_volume 3837.468250
_symmetry_space_group_name_H-M "P 6 C C"
_symmetry_group_IT_number 184
_symmetry_cell_setting 'hexagonal'
loop_
_space_group_symop_operation_xyz
x,y,z
x-y,x,z
-y,x-y,z
-x,-y,z
-x+y,-x,z
y,-x+y,z
-x+y,y,1/2+z
x,x-y,1/2+z
-y,-x,1/2+z
y,x,1/2+z
x-y,-y,1/2+z
-x,-x+y,1/2+z
loop_
_atom_site_type_symbol
_atom_site_label
_atom_site_fract_x
_atom_site_fract_y
_atom_site_fract_z
Si Si1 0.694149 0.608900 0.879530
Si Si2 0.591751 0.423332 0.060109
Si Si3 0.880668 0.678301 0.598093
Si Si4 0.699662 0.162283 0.742245
Si Si5 0.631571 0.062289 0.976846
Si Si6 0.542506 0.213449 0.802792
Si Si7 0.697907 0.749648 0.137605
O O1 0.619917 0.592374 0.960264
O O2 0.668153 0.533865 0.800548
O O3 0.721281 0.678679 0.782788
O O4 0.765997 0.629650 0.969058
O O5 0.652944 0.505892 0.110387
O O6 0.585669 0.364903 0.170124
O O7 0.511120 0.419089 0.045204
O O8 0.624454 0.409164 0.927536
O O9 0.847161 0.618586 0.714181
O O10 0.837703 0.725753 0.611937
O O11 0.970193 0.735302 0.598540
O O12 0.646532 0.098081 0.837858
O O13 0.721247 0.242378 0.805241
O O14 0.707465 0.085883 0.054657
#
# Coordination Sequence:
#
# PCOD8326607 Si02
#       7
#    12  12  12  12  12  12  12
#     4  11  22  41  70  98 128 179 213 286 351 412
#     4  12  26  45  64  97 129 181 228 301 351 416
#     4  11  23  40  68 101 133 172 223 269 342 408
#     4  12  24  43  68  89 131 176 230 287 345 407
#     4  11  24  43  64  98 131 170 231 283 351 414
#     4  12  26  45  66  92 133 176 230 284 356 416
#     4  11  23  41  69 100 136 176 221 279 339 418
#
# _framework density 21.889431999999999
#
# number of rings (size 3 to 8) (size 9 to 14) (size 15 to 20)
#    0.000    0.571    7.143    0.857    2.000    0.571 
#    3.429    1.429    0.000    0.286    0.000    0.000 
#    0.000    2.571    0.000    0.000    0.000    0.000 
#
# Total GULP energy -1041223.721987 kJ/mol
# GULP energy per Si atom -12395.520500 kJ/mol
# Density = 2.183961 g / cm^3
# Si number density = 21.889432 Si / 1000 Ang^3
#
#
#
# Elastic Constant Matrix: (Units=GPa)
#
#
# Indices 1 2 3 4 5 6 
#
# 1 105.3602 48.9577 29.1830 0.0000 0.0000 0.0000
# 2 48.9577 105.3602 29.1830 0.0000 0.0000 0.0000
# 3 29.1830 29.1830 109.1853 0.0000 0.0000 0.0000
# 4 0.0000 0.0000 0.0000 29.0480 0.0000 0.0000
# 5 0.0000 0.0000 0.0000 0.0000 29.0480 0.0000
# 6 0.0000 0.0000 0.0000 0.0000 0.0000 28.2013
#
#
#
# Elastic Compliance Matrix: (Units=1/GPa)
#
#
# Indices 1 2 3 4 5 6 
#
# 1 0.012469 -0.005260 -0.001927 0.000000 0.000000 0.000000
# 2 -0.005260 0.012469 -0.001927 0.000000 0.000000 0.000000
# 3 -0.001927 -0.001927 0.010189 0.000000 0.000000 0.000000
# 4 0.000000 0.000000 0.000000 0.034426 0.000000 0.000000
# 5 0.000000 0.000000 0.000000 0.000000 0.034426 0.000000
# 6 0.000000 0.000000 0.000000 0.000000 0.000000 0.035459
#
#
# Mechanical properties :
#
#
# Convention : Reuss Voigt Hill
#
# Bulk Modulus (GPa) = 59.17394 59.39480 59.28437
# Shear Modulus (GPa) = 30.61864 31.43161 31.02512
#
# Velocity S-wave (km/s) = 3.74409 3.79347 3.76886
# Velocity P-wave (km/s) = 6.76630 6.81030 6.78833
#
# Compressibility (1/GPa) = 0.01689933
#
# Stress axis : x y z
#
# Youngs Moduli (GPa) = 80.19706 80.19706 98.14779
#
# Poissons Ratio (x) = 0.42187 0.18911
# Poissons Ratio (y) = 0.42187 0.18911
# Poissons Ratio (z) = 0.15452 0.15452
#
# Static dielectric constant tensor:
#      x y z
#    x 3.730900 0.000000 0.000000 
#    y 0.000000 3.730900 0.000000 
#    z 0.000000 0.000000 4.179450 
# 
# 
# High freq. dielectric constant tensor:
#      x y z
#    x 1.837650 0.000000 0.000000 
#    y 0.000000 1.837650 0.000000 
#    z 0.000000 0.000000 1.881410 
# 
# From -- ./inp_files/646.got.cif
#   From: 2010.03.12/outbox.cif.g09.slc.cpg/sg184_cif.got.tgz:646.got - 2010.04.01 11:54:36.
