data_PCOD8326579
_publ_section_title
;
Structure prediction by ZEFSAII (Michael W. Deem and Ramdas Pophale) SiO2 
 PCOD8326579
Probable space group: P 6 C C
;
_chemical_formula_sum "Si O2"
_cell_formula_units_Z 60
_cell_length_a 14.320843
_cell_length_b 14.320843
_cell_length_c 13.219901
_cell_angle_alpha 90.000000
_cell_angle_beta 90.000000
_cell_angle_gamma 120.000000
_cell_volume 2347.988696
_symmetry_space_group_name_H-M "P 6 C C"
_symmetry_group_IT_number 184
_symmetry_cell_setting 'hexagonal'
loop_
_space_group_symop_operation_xyz
x,y,z
x-y,x,z
-y,x-y,z
-x,-y,z
-x+y,-x,z
y,-x+y,z
-x+y,y,1/2+z
x,x-y,1/2+z
-y,-x,1/2+z
y,x,1/2+z
x-y,-y,1/2+z
-x,-x+y,1/2+z
loop_
_atom_site_type_symbol
_atom_site_label
_atom_site_fract_x
_atom_site_fract_y
_atom_site_fract_z
Si Si1 0.885779 0.484111 0.170220
Si Si2 0.196923 0.219644 0.383687
Si Si3 0.729959 0.187236 0.584970
Si Si4 0.938075 0.376234 0.895733
Si Si5 0.172424 0.945321 0.648437
O O1 0.844477 0.547393 0.097796
O O2 0.803052 0.356257 0.157203
O O3 0.890435 0.526033 0.283457
O O4 0.000000 0.500000 0.131606
O O5 0.216913 0.126061 0.432207
O O6 0.309116 0.331171 0.399923
O O7 0.165921 0.204249 0.266783
O O8 0.690881 0.165061 0.468525
O O9 0.735902 0.083972 0.624793
O O10 0.000000 0.500000 0.930265
O O11 0.059958 0.854496 0.598553
#
# Coordination Sequence:
#
# PCOD8326579 Si02
#       5
#    12  12  12  12  12
#     4  11  25  47  71 103 146 190 245 307 373 450
#     4  10  21  40  68 104 144 189 237 294 363 439
#     4  12  25  44  72 103 140 189 241 299 366 439
#     4  11  26  45  72 107 149 194 245 307 375 450
#     4  10  20  38  66  99 138 180 227 281 346 422
#
# _framework density 25.553784
#
# number of rings (size 3 to 8) (size 9 to 14) (size 15 to 20)
#    0.000    1.200    0.000    7.400    0.000    8.000 
#    0.000    0.000    0.000    4.400    0.000    0.000 
#    0.000    0.000    0.000    0.000    0.000    0.000 
#
# Total GULP energy -743870.820874 kJ/mol
# GULP energy per Si atom -12397.847015 kJ/mol
# Density = 2.549562 g / cm^3
# Si number density = 25.553784 Si / 1000 Ang^3
#
#
#
# Elastic Constant Matrix: (Units=GPa)
#
#
# Indices 1 2 3 4 5 6 
#
# 1 163.0865 65.4592 57.4300 0.0000 0.0000 0.0000
# 2 65.4592 163.0865 57.4300 0.0000 0.0000 0.0000
# 3 57.4300 57.4300 70.8698 0.0000 0.0000 0.0000
# 4 0.0000 0.0000 0.0000 1.7018 0.0000 0.0000
# 5 0.0000 0.0000 0.0000 0.0000 1.7018 0.0000
# 6 0.0000 0.0000 0.0000 0.0000 0.0000 48.8137
#
#
#
# Elastic Compliance Matrix: (Units=1/GPa)
#
#
# Indices 1 2 3 4 5 6 
#
# 1 0.008812 -0.001431 -0.005982 0.000000 0.000000 0.000000
# 2 -0.001431 0.008812 -0.005982 0.000000 0.000000 0.000000
# 3 -0.005982 -0.005982 0.023805 0.000000 0.000000 0.000000
# 4 0.000000 0.000000 0.000000 0.587611 0.000000 0.000000
# 5 0.000000 0.000000 0.000000 0.000000 0.587611 0.000000
# 6 0.000000 0.000000 0.000000 0.000000 0.000000 0.020486
#
#
# Mechanical properties :
#
#
# Convention : Reuss Voigt Hill
#
# Bulk Modulus (GPa) = 68.29973 84.18680 76.24326
# Shear Modulus (GPa) = 3.94071 24.89170 14.41620
#
# Velocity S-wave (km/s) = 1.24317 3.12443 2.37776
# Velocity P-wave (km/s) = 5.37089 6.78473 6.11878
#
# Compressibility (1/GPa) = 0.01464135
#
# Stress axis : x y z
#
# Youngs Moduli (GPa) = 113.47611 113.47611 42.00726
#
# Poissons Ratio (x) = 0.16234 0.25128
# Poissons Ratio (y) = 0.16234 0.25128
# Poissons Ratio (z) = 0.67881 0.67881
#
# Static dielectric constant tensor:
#      x y z
#    x 4.750400 0.000000 0.000000 
#    y 0.000000 4.750400 0.000000 
#    z 0.000000 0.000000 4.447220 
# 
# 
# High freq. dielectric constant tensor:
#      x y z
#    x 2.023770 0.000000 0.000000 
#    y 0.000000 2.023770 0.000000 
#    z 0.000000 0.000000 2.034170 
# 
# From -- ./inp_files/820.got.cif
#   From: 2010.03.12/outbox.cif.g09.slc.cpg/sg184_cif.got.tgz:820.got - 2010.04.01 11:54:36.
