data_PCOD8326962
_publ_section_title
;
Structure prediction by ZEFSAII (Michael W. Deem and Ramdas Pophale) SiO2 
 PCOD8326962
Probable space group: P -6 M 2
;
_chemical_formula_sum "Si O2"
_cell_formula_units_Z 84
_cell_length_a 17.382394
_cell_length_b 17.382394
_cell_length_c 19.138541
_cell_angle_alpha 90.000000
_cell_angle_beta 90.000000
_cell_angle_gamma 120.000000
_cell_volume 5007.934476
_symmetry_space_group_name_H-M "P -6 M 2"
_symmetry_group_IT_number 187
_symmetry_cell_setting 'hexagonal'
loop_
_space_group_symop_operation_xyz
x,y,z
-x+y,-x,-z
-y,x-y,z
x,y,-z
-x+y,-x,z
-y,x-y,-z
-y,-x,-z
-x+y,y,-z
x,x-y,-z
-x+y,y,z
x,x-y,z
-y,-x,z
loop_
_atom_site_type_symbol
_atom_site_label
_atom_site_fract_x
_atom_site_fract_y
_atom_site_fract_z
Si Si1 0.827132 0.999790 0.884717
Si Si2 0.095167 0.727928 0.922146
Si Si3 0.154700 0.489278 0.664629
Si Si4 0.029892 0.604125 0.792732
Si Si5 0.982961 0.581419 0.421323
Si Si6 0.905226 0.632827 0.698109
Si Si7 0.170808 0.999565 0.277912
O O1 0.903236 0.096765 0.908981
O O2 0.804980 0.996831 0.803186
O O3 0.860281 0.930141 0.901282
O O4 0.737728 0.974710 0.925857
O O5 0.191657 0.808344 0.898724
O O6 0.061276 0.646591 0.868907
O O7 0.100418 0.694421 0.000000
O O8 0.237555 0.475109 0.653401
O O9 0.186869 0.593435 0.659033
O O10 0.111113 0.451653 0.739908
O O11 0.082469 0.434033 0.605254
O O12 0.004267 0.502134 0.796407
O O13 0.942266 0.604988 0.765334
O O14 0.973297 0.608022 0.500000
O O15 0.963286 0.481643 0.417411
O O16 0.909395 0.584299 0.372066
O O17 0.804172 0.608344 0.713915
O O18 0.967533 0.737604 0.681492
O O19 0.133377 0.066689 0.289492
O O20 0.097312 0.902689 0.305553
#
# Coordination Sequence:
#
# PCOD8326962 Si02
#       7
#    12  12  12  12  12  12  12
#     4   9  16  27  43  66  97 131 162 190 222 265
#     4  10  20  32  47  69  98 131 166 204 241 279
#     4   9  17  29  48  72  98 128 162 199 237 280
#     4  10  20  34  51  70  93 125 162 204 254 303
#     4   9  19  35  51  70  99 131 159 192 241 296
#     4  10  19  31  51  76  97 122 158 201 244 287
#     4   9  16  26  43  68  98 130 161 191 222 260
#
# _framework density 16.773382000000002
#
# number of rings (size 3 to 8) (size 9 to 14) (size 15 to 20)
#    0.000    2.571    1.429    2.143    0.000    4.571 
#    0.000    0.000    0.000    4.286    0.000    0.000 
#    0.000    1.143    0.000    0.000    0.000    0.000 
#
# Total GULP energy -1041422.350803 kJ/mol
# GULP energy per Si atom -12397.885129 kJ/mol
# Density = 1.673520 g / cm^3
# Si number density = 16.773382 Si / 1000 Ang^3
#
#
#
# Elastic Constant Matrix: (Units=GPa)
#
#
# Indices 1 2 3 4 5 6 
#
# 1 79.7959 42.6469 34.9541 0.0000 -0.0001 0.0000
# 2 42.6469 79.7959 34.9541 0.0000 0.0001 0.0000
# 3 34.9541 34.9541 91.7758 0.0000 0.0000 0.0000
# 4 0.0000 0.0000 0.0000 17.8653 0.0000 0.0001
# 5 -0.0001 0.0001 0.0000 0.0000 17.8653 0.0000
# 6 0.0000 0.0000 0.0000 0.0001 0.0000 18.5745
#
#
#
# Elastic Compliance Matrix: (Units=1/GPa)
#
#
# Indices 1 2 3 4 5 6 
#
# 1 0.018678 -0.008241 -0.003975 0.000000 0.000000 0.000000
# 2 -0.008241 0.018678 -0.003975 0.000000 0.000000 0.000000
# 3 -0.003975 -0.003975 0.013924 0.000000 0.000000 0.000000
# 4 0.000000 0.000000 0.000000 0.055974 0.000000 0.000000
# 5 0.000000 0.000000 0.000000 0.000000 0.055974 0.000000
# 6 0.000000 0.000000 0.000000 0.000000 0.000000 0.053837
#
#
# Mechanical properties :
#
#
# Convention : Reuss Voigt Hill
#
# Bulk Modulus (GPa) = 52.91743 52.94201 52.92972
# Shear Modulus (GPa) = 19.55064 20.11517 19.83290
#
# Velocity S-wave (km/s) = 3.41776 3.46675 3.44234
# Velocity P-wave (km/s) = 6.86962 6.90334 6.88650
#
# Compressibility (1/GPa) = 0.01889737
#
# Stress axis : x y z
#
# Youngs Moduli (GPa) = 53.54006 53.54006 71.81890
#
# Poissons Ratio (x) = 0.44123 0.28547
# Poissons Ratio (y) = 0.44123 0.28547
# Poissons Ratio (z) = 0.21282 0.21282
#
# Static dielectric constant tensor:
#      x y z
#    x 3.060350 0.000000 0.000000 
#    y 0.000000 3.060350 0.000000 
#    z 0.000000 0.000000 3.128060 
# 
# 
# High freq. dielectric constant tensor:
#      x y z
#    x 1.636190 0.000000 0.000000 
#    y 0.000000 1.636190 0.000000 
#    z 0.000000 0.000000 1.631590 
# 
# From -- ./inp_files/3672.got.cif
#   From: 2010.03.12/outbox.cif.g09.slc.cpg/sg187_2_cif.got.tgz:3672.got - 2010.04.01 11:58:23.
