data_PCOD8326906
_publ_section_title
;
Structure prediction by ZEFSAII (Michael W. Deem and Ramdas Pophale) SiO2 
 PCOD8326906
Probable space group: P -6 M 2
;
_chemical_formula_sum "Si O2"
_cell_formula_units_Z 72
_cell_length_a 16.726759
_cell_length_b 16.726759
_cell_length_c 18.635918
_cell_angle_alpha 90.000000
_cell_angle_beta 90.000000
_cell_angle_gamma 120.000000
_cell_volume 4515.491424
_symmetry_space_group_name_H-M "P -6 M 2"
_symmetry_group_IT_number 187
_symmetry_cell_setting 'hexagonal'
loop_
_space_group_symop_operation_xyz
x,y,z
-x+y,-x,-z
-y,x-y,z
x,y,-z
-x+y,-x,z
-y,x-y,-z
-y,-x,-z
-x+y,y,-z
x,x-y,-z
-x+y,y,z
x,x-y,z
-y,-x,z
loop_
_atom_site_type_symbol
_atom_site_label
_atom_site_fract_x
_atom_site_fract_y
_atom_site_fract_z
Si Si1 0.632621 0.721954 0.214437
Si Si2 0.694065 0.705720 0.582609
Si Si3 0.001109 0.186745 0.289822
Si Si4 0.147001 0.666748 0.080962
Si Si5 0.488488 0.333624 0.585284
Si Si6 0.333066 0.483516 0.652338
O O1 0.637072 0.818536 0.221639
O O2 0.735464 0.742555 0.233819
O O3 0.600862 0.678936 0.134924
O O4 0.557725 0.654520 0.272498
O O5 0.725191 0.725785 0.500000
O O6 0.773885 0.787197 0.629326
O O7 0.682211 0.609464 0.610961
O O8 0.596019 0.700983 0.591986
O O9 0.903086 0.096915 0.278214
O O10 0.080616 0.161232 0.275570
O O11 0.145050 0.572525 0.098707
O O12 0.251594 0.748407 0.092409
O O13 0.113174 0.667245 0.000000
O O14 0.492850 0.335986 0.500000
O O15 0.501789 0.250895 0.615347
O O16 0.570085 0.429916 0.616917
O O17 0.258514 0.517028 0.659002
O O18 0.430293 0.569708 0.629351
#
# Coordination Sequence:
#
# PCOD8326906 Si02
#       6
#    12  12  12  12  12  12
#     4   8  16  29  43  62  88 117 147 179 218 260
#     4  10  20  33  46  61  84 112 140 177 232 291
#     4  10  20  34  51  67  82 104 140 187 235 282
#     4   9  15  23  39  66 100 134 163 187 209 238
#     4   9  16  26  41  60  80 102 130 165 206 256
#     4  10  19  30  44  61  84 117 156 192 220 252
#
# _framework density 15.945107999999999
#
# number of rings (size 3 to 8) (size 9 to 14) (size 15 to 20)
#    0.000    2.667    0.000    3.667    0.000    4.667 
#    0.000    1.667    0.000    2.500    0.000    0.000 
#    0.000    1.333    0.000    0.500    0.000    7.000 
#
# Total GULP energy -892560.078008 kJ/mol
# GULP energy per Si atom -12396.667750 kJ/mol
# Density = 1.590882 g / cm^3
# Si number density = 15.945108 Si / 1000 Ang^3
#
#
#
# Elastic Constant Matrix: (Units=GPa)
#
#
# Indices 1 2 3 4 5 6 
#
# 1 83.2910 29.9235 29.3287 0.0000 0.0000 0.0000
# 2 29.9235 83.2910 29.3287 0.0000 0.0000 0.0000
# 3 29.3287 29.3287 82.6024 0.0000 0.0000 0.0000
# 4 0.0000 0.0000 0.0000 14.9073 0.0000 0.0000
# 5 0.0000 0.0000 0.0000 0.0000 14.9073 0.0000
# 6 0.0000 0.0000 0.0000 0.0000 0.0000 26.6837
#
#
#
# Elastic Compliance Matrix: (Units=1/GPa)
#
#
# Indices 1 2 3 4 5 6 
#
# 1 0.014781 -0.003957 -0.003843 0.000000 0.000000 0.000000
# 2 -0.003957 0.014781 -0.003843 0.000000 0.000000 0.000000
# 3 -0.003843 -0.003843 0.014835 0.000000 0.000000 0.000000
# 4 0.000000 0.000000 0.000000 0.067081 0.000000 0.000000
# 5 0.000000 0.000000 0.000000 0.000000 0.067081 0.000000
# 6 0.000000 0.000000 0.000000 0.000000 0.000000 0.037476
#
#
# Mechanical properties :
#
#
# Convention : Reuss Voigt Hill
#
# Bulk Modulus (GPa) = 47.36955 47.37182 47.37068
# Shear Modulus (GPa) = 20.29559 22.00657 21.15108
#
# Velocity S-wave (km/s) = 3.57156 3.71906 3.64606
# Velocity P-wave (km/s) = 6.83962 6.94375 6.89188
#
# Compressibility (1/GPa) = 0.02111061
#
# Stress axis : x y z
#
# Youngs Moduli (GPa) = 67.65451 67.65451 67.40693
#
# Poissons Ratio (x) = 0.26771 0.25905
# Poissons Ratio (y) = 0.26771 0.25905
# Poissons Ratio (z) = 0.26001 0.26001
#
# Static dielectric constant tensor:
#      x y z
#    x 3.006510 0.000000 0.000000 
#    y 0.000000 3.006510 0.000000 
#    z 0.000000 0.000000 2.941710 
# 
# 
# High freq. dielectric constant tensor:
#      x y z
#    x 1.604670 0.000000 0.000000 
#    y 0.000000 1.604670 0.000000 
#    z 0.000000 0.000000 1.581590 
# 
# From -- ./inp_files/3088.got.cif
#   From: 2010.03.12/outbox.cif.g09.slc.cpg/sg187_2_cif.got.tgz:3088.got - 2010.04.01 11:58:23.
