data_PCOD8326045
_publ_section_title
;
Structure prediction by ZEFSAII (Michael W. Deem and Ramdas Pophale) SiO2 
 PCOD8326045
Probable space group: P 65 2 2
;
_chemical_formula_sum "Si O2"
_cell_formula_units_Z 48
_cell_length_a 17.022312
_cell_length_b 17.022312
_cell_length_c 9.028035
_cell_angle_alpha 90.000000
_cell_angle_beta 90.000000
_cell_angle_gamma 120.000000
_cell_volume 2265.483787
_symmetry_space_group_name_H-M "P 65 2 2"
_symmetry_group_IT_number 179
_symmetry_cell_setting 'hexagonal'
loop_
_space_group_symop_operation_xyz
x,y,z
x-y,x,5/6+z
-y,x-y,2/3+z
-x,-y,1/2+z
-x+y,-x,1/3+z
y,-x+y,1/6+z
x-y,-y,-z
-x,-x+y,1/3-z
y,x,2/3-z
-y,-x,1/6-z
-x+y,y,1/2-z
x,x-y,5/6-z
loop_
_atom_site_type_symbol
_atom_site_label
_atom_site_fract_x
_atom_site_fract_y
_atom_site_fract_z
Si Si1 0.796373 0.650480 0.058855
Si Si2 0.412219 0.206110 0.416667
Si Si3 0.416862 0.505675 0.240743
Si Si4 0.093232 0.186463 0.750000
Si Si5 0.439271 0.336994 0.878100
O O1 0.831850 0.750523 0.127076
O O2 0.859620 0.612108 0.114265
O O3 0.693260 0.580988 0.115763
O O4 0.800326 0.653996 0.882571
O O5 0.472236 0.160489 0.374706
O O6 0.431716 0.431716 0.333334
O O7 0.454383 0.599492 0.338165
O O8 0.470558 0.529443 0.083334
O O9 0.123384 0.123384 0.833334
O O10 0.401706 0.401706 0.833334
#
# Coordination Sequence:
#
# PCOD8326045 Si02
#       5
#    12   6  12   6  12
#     4  10  20  38  62  95 128 170 222 276 336 401
#     4  12  26  38  63 104 136 168 230 303 336 390
#     4  11  25  44  64  94 134 184 238 279 347 413
#     4  10  22  44  71  96 126 170 216 265 354 450
#     4   9  19  39  63  83 120 175 225 262 331 423
#
# _framework density 21.187529000000001
#
# number of rings (size 3 to 8) (size 9 to 14) (size 15 to 20)
#    0.000    2.000    2.500    3.000    7.000    2.000 
#    4.500    1.250    0.000    0.000    0.000    0.000 
#    0.000    0.000    0.000    0.000    0.000    0.000 
#
# Total GULP energy -594716.632813 kJ/mol
# GULP energy per Si atom -12389.929850 kJ/mol
# Density = 2.113930 g / cm^3
# Si number density = 21.187529 Si / 1000 Ang^3
#
#
#
# Elastic Constant Matrix: (Units=GPa)
#
#
# Indices 1 2 3 4 5 6 
#
# 1 89.3615 35.4189 44.2831 0.0000 0.0000 0.0000
# 2 35.4189 89.3615 44.2831 0.0000 0.0000 0.0000
# 3 44.2831 44.2831 173.7641 0.0000 0.0000 0.0000
# 4 0.0000 0.0000 0.0000 34.7107 0.0000 0.0000
# 5 0.0000 0.0000 0.0000 0.0000 34.7107 0.0000
# 6 0.0000 0.0000 0.0000 0.0000 0.0000 26.9713
#
#
#
# Elastic Compliance Matrix: (Units=1/GPa)
#
#
# Indices 1 2 3 4 5 6 
#
# 1 0.014161 -0.004377 -0.002493 0.000000 0.000000 0.000000
# 2 -0.004377 0.014161 -0.002493 0.000000 0.000000 0.000000
# 3 -0.002493 -0.002493 0.007026 0.000000 0.000000 0.000000
# 4 0.000000 0.000000 0.000000 0.028810 0.000000 0.000000
# 5 0.000000 0.000000 0.000000 0.000000 0.028810 0.000000
# 6 0.000000 0.000000 0.000000 0.000000 0.000000 0.037076
#
#
# Mechanical properties :
#
#
# Convention : Reuss Voigt Hill
#
# Bulk Modulus (GPa) = 60.16872 66.71750 63.44311
# Shear Modulus (GPa) = 32.40204 34.51200 33.45702
#
# Velocity S-wave (km/s) = 3.91487 4.04032 3.97809
# Velocity P-wave (km/s) = 6.99248 7.30226 7.14905
#
# Compressibility (1/GPa) = 0.01661993
#
# Stress axis : x y z
#
# Youngs Moduli (GPa) = 70.61643 70.61643 142.33298
#
# Poissons Ratio (x) = 0.30910 0.35489
# Poissons Ratio (y) = 0.30910 0.35489
# Poissons Ratio (z) = 0.17607 0.17607
#
# Static dielectric constant tensor:
#      x y z
#    x 3.917670 0.000000 0.000000 
#    y 0.000000 3.917670 0.000000 
#    z 0.000000 0.000000 4.370870 
# 
# 
# High freq. dielectric constant tensor:
#      x y z
#    x 1.816770 0.000000 0.000000 
#    y 0.000000 1.816770 0.000000 
#    z 0.000000 0.000000 1.841510 
# 
# From -- ./inp_files/2734.got.cif
#   From: 2010.03.12/outbox.cif.g09.slc.cpg/sg179_2_cif.got.tgz:2734.got - 2010.04.02 07:08:42.
