data_PCOD8326684
_publ_section_title
;
Structure prediction by ZEFSAII (Michael W. Deem and Ramdas Pophale) SiO2 
 PCOD8326684
Probable space group: P 63 C M
;
_chemical_formula_sum "Si O2"
_cell_formula_units_Z 72
_cell_length_a 14.443866
_cell_length_b 14.443866
_cell_length_c 18.506731
_cell_angle_alpha 90.000000
_cell_angle_beta 90.000000
_cell_angle_gamma 120.000000
_cell_volume 3343.699541
_symmetry_space_group_name_H-M "P 63 C M"
_symmetry_group_IT_number 185
_symmetry_cell_setting 'hexagonal'
loop_
_space_group_symop_operation_xyz
x,y,z
x-y,x,1/2+z
-y,x-y,z
-x,-y,1/2+z
-x+y,-x,z
y,-x+y,1/2+z
-x+y,y,1/2+z
x,x-y,1/2+z
-y,-x,1/2+z
y,x,z
x-y,-y,z
-x,-x+y,z
loop_
_atom_site_type_symbol
_atom_site_label
_atom_site_fract_x
_atom_site_fract_y
_atom_site_fract_z
Si Si1 0.405345 0.528651 0.925180
Si Si2 0.243141 0.122292 0.059144
Si Si3 0.322863 0.877830 0.273884
Si Si4 0.628162 0.879596 0.188967
Si Si5 0.121079 0.565631 0.629581
Si Si6 0.270325 0.469065 0.505084
O O1 0.444116 0.444116 0.936345
O O2 0.352810 0.515039 0.846657
O O3 0.322512 0.509758 0.989406
O O4 0.502044 0.649314 0.936830
O O5 0.194631 0.194631 0.029294
O O6 0.283656 0.155044 0.141158
O O7 0.340848 0.136073 0.010028
O O8 0.150144 0.000000 0.058838
O O9 0.197436 0.799921 0.257683
O O10 0.392046 0.867583 0.210749
O O11 0.348852 0.000000 0.281691
O O12 0.526265 0.846040 0.135544
O O13 0.671685 0.000000 0.218415
O O14 0.193200 0.663981 0.577266
O O15 0.000000 0.515263 0.600615
#
# Coordination Sequence:
#
# PCOD8326684 Si02
#       6
#    12  12  12  12  12  12
#     4  11  26  44  64  95 133 175 221 267 326 404
#     4  11  22  39  65  97 131 171 221 278 335 390
#     4  10  22  43  66  91 130 172 221 277 328 390
#     4  10  21  38  65  96 129 169 217 272 336 394
#     4  10  21  39  64  93 125 168 219 268 321 389
#     4  12  23  41  65  94 135 175 214 268 334 389
#
# _framework density 21.533035000000002
#
# number of rings (size 3 to 8) (size 9 to 14) (size 15 to 20)
#    0.000    1.333    1.667    4.000    2.333    1.333 
#    1.000    1.667    0.000    0.333    0.000    0.000 
#    0.000    0.000    0.000    0.000    0.000    0.000 
#
# Total GULP energy -892899.832594 kJ/mol
# GULP energy per Si atom -12401.386564 kJ/mol
# Density = 2.148402 g / cm^3
# Si number density = 21.533035 Si / 1000 Ang^3
#
#
#
# Elastic Constant Matrix: (Units=GPa)
#
#
# Indices 1 2 3 4 5 6 
#
# 1 129.9586 60.0972 54.4526 0.0000 0.0000 0.0000
# 2 60.0972 129.9586 54.4526 0.0000 0.0000 0.0000
# 3 54.4526 54.4526 102.6375 0.0000 0.0000 0.0000
# 4 0.0000 0.0000 0.0000 31.4435 0.0000 0.0000
# 5 0.0000 0.0000 0.0000 0.0000 31.4435 0.0000
# 6 0.0000 0.0000 0.0000 0.0000 0.0000 34.9307
#
#
#
# Elastic Compliance Matrix: (Units=1/GPa)
#
#
# Indices 1 2 3 4 5 6 
#
# 1 0.010937 -0.003377 -0.004011 0.000000 0.000000 0.000000
# 2 -0.003377 0.010937 -0.004011 0.000000 0.000000 0.000000
# 3 -0.004011 -0.004011 0.013999 0.000000 0.000000 0.000000
# 4 0.000000 0.000000 0.000000 0.031803 0.000000 0.000000
# 5 0.000000 0.000000 0.000000 0.000000 0.031803 0.000000
# 6 0.000000 0.000000 0.000000 0.000000 0.000000 0.028628
#
#
# Mechanical properties :
#
#
# Convention : Reuss Voigt Hill
#
# Bulk Modulus (GPa) = 76.47955 77.83994 77.15975
# Shear Modulus (GPa) = 32.20353 32.46704 32.33528
#
# Velocity S-wave (km/s) = 3.87142 3.88722 3.87933
# Velocity P-wave (km/s) = 7.45508 7.50832 7.48175
#
# Compressibility (1/GPa) = 0.01307539
#
# Stress axis : x y z
#
# Youngs Moduli (GPa) = 91.43327 91.43327 71.43528
#
# Poissons Ratio (x) = 0.30878 0.28651
# Poissons Ratio (y) = 0.30878 0.28651
# Poissons Ratio (z) = 0.36672 0.36672
#
# Static dielectric constant tensor:
#      x y z
#    x 3.966900 0.000000 0.000000 
#    y 0.000000 3.966900 0.000000 
#    z 0.000000 0.000000 3.699430 
# 
# 
# High freq. dielectric constant tensor:
#      x y z
#    x 1.850710 0.000000 0.000000 
#    y 0.000000 1.850710 0.000000 
#    z 0.000000 0.000000 1.828610 
# 
# From -- ./inp_files/1703.got.cif
#   From: 2010.03.12/outbox.cif.g09.slc.cpg/sg185_cif.got.tgz:1703.got - 2010.04.01 11:55:19.
