data_PCOD8326189
_publ_section_title
;
Structure prediction by ZEFSAII (Michael W. Deem and Ramdas Pophale) SiO2 
 PCOD8326189
Probable space group: P 62 2 2
;
_chemical_formula_sum "Si O2"
_cell_formula_units_Z 84
_cell_length_a 14.534140
_cell_length_b 14.534140
_cell_length_c 23.021319
_cell_angle_alpha 90.000000
_cell_angle_beta 90.000000
_cell_angle_gamma 120.000000
_cell_volume 4211.526259
_symmetry_space_group_name_H-M "P 62 2 2"
_symmetry_group_IT_number 180
_symmetry_cell_setting 'hexagonal'
loop_
_space_group_symop_operation_xyz
x,y,z
x-y,x,1/3+z
-y,x-y,2/3+z
-x,-y,z
-x+y,-x,1/3+z
y,-x+y,2/3+z
x-y,-y,-z
-x,-x+y,1/3-z
y,x,2/3-z
-y,-x,2/3-z
-x+y,y,-z
x,x-y,1/3-z
loop_
_atom_site_type_symbol
_atom_site_label
_atom_site_fract_x
_atom_site_fract_y
_atom_site_fract_z
Si Si1 0.665801 0.011003 0.239484
Si Si2 0.180012 0.767229 0.222794
Si Si3 0.212185 0.433407 0.565730
Si Si4 0.212158 0.454563 0.238677
Si Si5 0.597219 0.608957 0.444325
Si Si6 0.399162 0.393621 0.966637
Si Si7 0.696975 0.362454 0.934146
O O1 0.786042 0.109410 0.234161
O O2 0.604671 0.013221 0.181267
O O3 0.662981 0.898649 0.242859
O O4 0.612940 0.022591 0.298607
O O5 0.149344 0.734512 0.155790
O O6 0.286839 0.760618 0.233960
O O7 0.082457 0.700612 0.264730
O O8 0.237085 0.474169 0.500000
O O9 0.293175 0.537679 0.601717
O O10 0.088987 0.386119 0.581193
O O11 0.289579 0.406047 0.248195
O O12 0.121830 0.413281 0.288410
O O13 0.285235 0.581168 0.239334
O O14 0.500000 0.500000 0.420444
O O15 0.500000 0.500000 0.942680
O O16 0.697352 0.394703 0.000000
#
# Coordination Sequence:
#
# PCOD8326189 Si02
#       7
#    12  12  12  12  12  12  12
#     4  10  23  37  58  86 114 154 196 243 285 344
#     4  11  24  38  58  80 118 159 198 235 286 350
#     4  10  21  36  59  81 112 149 196 236 281 337
#     4  11  23  38  57  83 119 156 195 236 293 350
#     4  10  20  39  60  84 113 154 195 237 289 351
#     4  12  23  37  56  86 120 152 193 240 294 344
#     4  12  22  33  51  84 117 154 191 235 285 340
#
# _framework density 19.945263000000001
#
# number of rings (size 3 to 8) (size 9 to 14) (size 15 to 20)
#    0.000    1.143    2.857    4.286    8.000    0.571 
#    0.000    3.571    0.000    0.857    0.000    7.000 
#    0.000    0.000    0.000    0.000    0.000    0.000 
#
# Total GULP energy -1041448.403243 kJ/mol
# GULP energy per Si atom -12398.195277 kJ/mol
# Density = 1.989987 g / cm^3
# Si number density = 19.945263 Si / 1000 Ang^3
#
#
#
# Elastic Constant Matrix: (Units=GPa)
#
#
# Indices 1 2 3 4 5 6 
#
# 1 99.6007 44.6749 1.6211 0.0000 0.0000 0.0000
# 2 44.6749 99.6007 1.6211 0.0000 0.0000 0.0000
# 3 1.6211 1.6211 49.7331 0.0000 0.0000 0.0000
# 4 0.0000 0.0000 0.0000 22.0744 0.0000 0.0000
# 5 0.0000 0.0000 0.0000 0.0000 22.0744 0.0000
# 6 0.0000 0.0000 0.0000 0.0000 0.0000 27.4629
#
#
#
# Elastic Compliance Matrix: (Units=1/GPa)
#
#
# Indices 1 2 3 4 5 6 
#
# 1 0.012571 -0.005635 -0.000226 0.000000 0.000000 0.000000
# 2 -0.005635 0.012571 -0.000226 0.000000 0.000000 0.000000
# 3 -0.000226 -0.000226 0.020122 0.000000 0.000000 0.000000
# 4 0.000000 0.000000 0.000000 0.045301 0.000000 0.000000
# 5 0.000000 0.000000 0.000000 0.000000 0.045301 0.000000
# 6 0.000000 0.000000 0.000000 0.000000 0.000000 0.036413
#
#
# Mechanical properties :
#
#
# Convention : Reuss Voigt Hill
#
# Bulk Modulus (GPa) = 30.22042 38.30763 34.26402
# Shear Modulus (GPa) = 25.57748 27.72353 26.65050
#
# Velocity S-wave (km/s) = 3.58492 3.73229 3.65935
# Velocity P-wave (km/s) = 5.68508 6.14991 5.92206
#
# Compressibility (1/GPa) = 0.03309021
#
# Stress axis : x y z
#
# Youngs Moduli (GPa) = 79.54619 79.54619 49.69671
#
# Poissons Ratio (x) = 0.44825 0.01124
# Poissons Ratio (y) = 0.44825 0.01124
# Poissons Ratio (z) = 0.01798 0.01798
#
# Static dielectric constant tensor:
#      x y z
#    x 3.611990 0.000000 0.000000 
#    y 0.000000 3.611990 0.000000 
#    z 0.000000 0.000000 3.668700 
# 
# 
# High freq. dielectric constant tensor:
#      x y z
#    x 1.762270 0.000000 0.000000 
#    y 0.000000 1.762270 0.000000 
#    z 0.000000 0.000000 1.786980 
# 
# From -- ./inp_files/10283.got.cif
#   From: 2010.03.12/outbox.cif.g09.slc.cpg/sg180_6_cif.got.tgz:10283.got - 2010.04.01 11:35:50.
