data_PCOD8326867
_publ_section_title
;
Structure prediction by ZEFSAII (Michael W. Deem and Ramdas Pophale) SiO2 
 PCOD8326867
Probable space group: P -6 M 2
;
_chemical_formula_sum "Si O2"
_cell_formula_units_Z 72
_cell_length_a 23.216090
_cell_length_b 23.216090
_cell_length_c 9.307494
_cell_angle_alpha 90.000000
_cell_angle_beta 90.000000
_cell_angle_gamma 120.000000
_cell_volume 4344.517531
_symmetry_space_group_name_H-M "P -6 M 2"
_symmetry_group_IT_number 187
_symmetry_cell_setting 'hexagonal'
loop_
_space_group_symop_operation_xyz
x,y,z
-x+y,-x,-z
-y,x-y,z
x,y,-z
-x+y,-x,z
-y,x-y,-z
-y,-x,-z
-x+y,y,-z
x,x-y,-z
-x+y,y,z
x,x-y,z
-y,-x,z
loop_
_atom_site_type_symbol
_atom_site_label
_atom_site_fract_x
_atom_site_fract_y
_atom_site_fract_z
Si Si1 0.794899 0.717945 0.830450
Si Si2 0.196215 0.931601 0.831922
Si Si3 0.795658 0.333250 0.829068
Si Si4 0.409724 0.339220 0.829309
Si Si5 0.135304 0.398256 0.665207
Si Si6 0.541098 0.951148 0.333374
O O1 0.861367 0.722733 0.761051
O O2 0.790834 0.783882 0.789072
O O3 0.728375 0.653824 0.772850
O O4 0.798397 0.711416 0.000000
O O5 0.119441 0.880560 0.788226
O O6 0.246105 0.912742 0.755952
O O7 0.207508 0.927615 0.000000
O O8 0.793830 0.396915 0.767285
O O9 0.732899 0.267102 0.766364
O O10 0.862407 0.336044 0.776296
O O11 0.792789 0.332547 0.000000
O O12 0.413744 0.403452 0.759276
O O13 0.407826 0.346443 0.000000
O O14 0.122592 0.376052 0.500000
O O15 0.212818 0.425635 0.706224
O O16 0.115746 0.454828 0.695868
O O17 0.554317 0.971619 0.500000
O O18 0.468139 0.936277 0.285731
#
# Coordination Sequence:
#
# PCOD8326867 Si02
#       6
#    12  12  12  12  12  12
#     4   9  16  26  42  65  93 122 149 182 226 269
#     4   9  16  27  45  68  91 115 147 186 223 261
#     4   9  16  25  38  57  81 109 144 187 230 267
#     4  10  18  29  45  66  88 114 150 189 224 263
#     4   9  17  30  48  67  88 115 146 181 220 262
#     4  10  20  32  46  66  94 123 146 175 221 272
#
# _framework density 16.572610999999998
#
# number of rings (size 3 to 8) (size 9 to 14) (size 15 to 20)
#    0.000    2.667    1.667    1.167    0.000    3.667 
#    0.000    0.000    0.000    4.167    0.000    4.667 
#    0.000    1.333    0.000    3.833    0.000    4.667 
#
# Total GULP energy -892405.814872 kJ/mol
# GULP energy per Si atom -12394.525207 kJ/mol
# Density = 1.653489 g / cm^3
# Si number density = 16.572611 Si / 1000 Ang^3
#
#
#
# Elastic Constant Matrix: (Units=GPa)
#
#
# Indices 1 2 3 4 5 6 
#
# 1 142.2647 86.8432 24.3454 0.0000 -0.0001 0.0000
# 2 86.8432 142.2647 24.3454 0.0000 0.0001 0.0000
# 3 24.3454 24.3454 20.0290 0.0000 0.0000 0.0000
# 4 0.0000 0.0000 0.0000 14.6767 0.0000 0.0001
# 5 -0.0001 0.0001 0.0000 0.0000 14.6767 0.0000
# 6 0.0000 0.0000 0.0000 0.0001 0.0000 27.7108
#
#
#
# Elastic Compliance Matrix: (Units=1/GPa)
#
#
# Indices 1 2 3 4 5 6 
#
# 1 0.011964 -0.006079 -0.007153 0.000000 0.000000 0.000000
# 2 -0.006079 0.011964 -0.007153 0.000000 0.000000 0.000000
# 3 -0.007153 -0.007153 0.067317 0.000000 0.000000 0.000000
# 4 0.000000 0.000000 0.000000 0.068135 0.000000 0.000000
# 5 0.000000 0.000000 0.000000 0.000000 0.068135 0.000000
# 6 0.000000 0.000000 0.000000 0.000000 0.000000 0.036087
#
#
# Mechanical properties :
#
#
# Convention : Reuss Voigt Hill
#
# Bulk Modulus (GPa) = 19.81211 63.95851 41.88531
# Shear Modulus (GPa) = 15.56666 22.68114 19.12390
#
# Velocity S-wave (km/s) = 3.06813 3.70346 3.40066
# Velocity P-wave (km/s) = 4.95297 7.54746 6.38342
#
# Compressibility (1/GPa) = 0.05047418
#
# Stress axis : x y z
#
# Youngs Moduli (GPa) = 83.58227 83.58227 14.85505
#
# Poissons Ratio (x) = 0.50812 0.10626
# Poissons Ratio (y) = 0.50812 0.10626
# Poissons Ratio (z) = 0.59788 0.59788
#
# Static dielectric constant tensor:
#      x y z
#    x 3.354080 0.000000 0.000000 
#    y 0.000000 3.354080 0.000000 
#    z 0.000000 0.000000 2.805430 
# 
# 
# High freq. dielectric constant tensor:
#      x y z
#    x 1.638260 0.000000 0.000000 
#    y 0.000000 1.638260 0.000000 
#    z 0.000000 0.000000 1.600300 
# 
# From -- ./inp_files/938.got.cif
#   From: 2010.03.12/outbox.cif.g09.slc.cpg/sg187_1_cif.got.tgz:938.got - 2010.04.01 11:58:23.
