data_PCOD8326403
_publ_section_title
;
Structure prediction by ZEFSAII (Michael W. Deem and Ramdas Pophale) SiO2 
 PCOD8326403
Probable space group: P 64 2 2
;
_chemical_formula_sum "Si O2"
_cell_formula_units_Z 84
_cell_length_a 18.364626
_cell_length_b 18.364626
_cell_length_c 13.203347
_cell_angle_alpha 90.000000
_cell_angle_beta 90.000000
_cell_angle_gamma 120.000000
_cell_volume 3856.371330
_symmetry_space_group_name_H-M "P 64 2 2"
_symmetry_group_IT_number 181
_symmetry_cell_setting 'hexagonal'
loop_
_space_group_symop_operation_xyz
x,y,z
x-y,x,2/3+z
-y,x-y,1/3+z
-x,-y,z
-x+y,-x,2/3+z
y,-x+y,1/3+z
x-y,-y,-z
-x,-x+y,2/3-z
y,x,1/3-z
-y,-x,1/3-z
-x+y,y,-z
x,x-y,2/3-z
loop_
_atom_site_type_symbol
_atom_site_label
_atom_site_fract_x
_atom_site_fract_y
_atom_site_fract_z
Si Si1 0.851341 0.850218 0.048182
Si Si2 0.030757 0.738445 0.581997
Si Si3 0.552631 0.161771 0.608823
Si Si4 0.843947 0.600011 0.599862
Si Si5 0.608340 0.342782 0.564197
Si Si6 0.731305 0.817035 0.623614
Si Si7 0.832615 0.311766 0.599722
O O1 0.858213 0.858213 0.166667
O O2 0.809068 0.903026 0.005672
O O3 0.943653 0.887306 0.000000
O O4 0.788948 0.752601 0.017689
O O5 0.074902 0.810750 0.497313
O O6 0.084045 0.692614 0.589245
O O7 0.934843 0.668685 0.556374
O O8 0.561180 0.122359 0.500000
O O9 0.464097 0.143200 0.659503
O O10 0.611944 0.261500 0.601855
O O11 0.595972 0.130085 0.687646
O O12 0.781632 0.563263 0.500000
O O13 0.806769 0.643015 0.674372
O O14 0.608250 0.391751 0.666667
O O15 0.696621 0.393242 0.500000
O O16 0.520984 0.313546 0.507818
O O17 0.740457 0.740457 0.666667
O O18 0.764434 0.235567 0.666667
#
# Coordination Sequence:
#
# PCOD8326403 Si02
#       7
#    12  12  12  12  12  12  12
#     4  11  23  42  68 107 149 188 244 303 372 439
#     4  11  25  44  68 102 139 193 245 293 371 443
#     4  11  23  40  65  99 135 175 228 289 365 425
#     4  11  25  44  71  99 140 196 245 303 370 450
#     4  11  19  37  61  96 129 173 231 287 354 427
#     4  11  23  44  72 100 143 189 250 304 354 449
#     4  12  23  39  69  97 139 180 235 302 355 442
#
# _framework density 21.782133000000002
#
# number of rings (size 3 to 8) (size 9 to 14) (size 15 to 20)
#    0.000    0.857    7.143    1.286    2.000    2.000 
#    0.000    1.429    0.000    0.000    0.000    0.000 
#    0.000    0.000    0.000    0.000    0.000    0.000 
#
# Total GULP energy -1040650.181102 kJ/mol
# GULP energy per Si atom -12388.692632 kJ/mol
# Density = 2.173256 g / cm^3
# Si number density = 21.782133 Si / 1000 Ang^3
#
#
#
# Elastic Constant Matrix: (Units=GPa)
#
#
# Indices 1 2 3 4 5 6 
#
# 1 104.3810 43.1640 44.6510 0.0000 0.0000 0.0000
# 2 43.1640 104.3810 44.6510 0.0000 0.0000 0.0000
# 3 44.6510 44.6510 145.5062 0.0000 0.0000 0.0000
# 4 0.0000 0.0000 0.0000 33.7193 0.0000 0.0000
# 5 0.0000 0.0000 0.0000 0.0000 33.7193 0.0000
# 6 0.0000 0.0000 0.0000 0.0000 0.0000 30.6085
#
#
#
# Elastic Compliance Matrix: (Units=1/GPa)
#
#
# Indices 1 2 3 4 5 6 
#
# 1 0.012329 -0.004006 -0.002554 0.000000 0.000000 0.000000
# 2 -0.004006 0.012329 -0.002554 0.000000 0.000000 0.000000
# 3 -0.002554 -0.002554 0.008440 0.000000 0.000000 0.000000
# 4 0.000000 0.000000 0.000000 0.029657 0.000000 0.000000
# 5 0.000000 0.000000 0.000000 0.000000 0.029657 0.000000
# 6 0.000000 0.000000 0.000000 0.000000 0.000000 0.032671
#
#
# Mechanical properties :
#
#
# Convention : Reuss Voigt Hill
#
# Bulk Modulus (GPa) = 67.24780 68.80003 68.02392
# Shear Modulus (GPa) = 33.72265 34.39625 34.05945
#
# Velocity S-wave (km/s) = 3.93896 3.97810 3.95858
# Velocity P-wave (km/s) = 7.18520 7.26323 7.22432
#
# Compressibility (1/GPa) = 0.01487038
#
# Stress axis : x y z
#
# Youngs Moduli (GPa) = 81.10674 81.10674 118.48111
#
# Poissons Ratio (x) = 0.32491 0.30263
# Poissons Ratio (y) = 0.32491 0.30263
# Poissons Ratio (z) = 0.20716 0.20716
#
# Static dielectric constant tensor:
#      x y z
#    x 3.828970 0.000000 0.000000 
#    y 0.000000 3.828970 0.000000 
#    z 0.000000 0.000000 4.804530 
# 
# 
# High freq. dielectric constant tensor:
#      x y z
#    x 1.844680 0.000000 0.000000 
#    y 0.000000 1.844680 0.000000 
#    z 0.000000 0.000000 1.868240 
# 
# From -- ./inp_files/6514.got.cif
#   From: 2010.03.12/outbox.cif.g09.slc.cpg/sg181_4_cif.got.tgz:6514.got - 2010.04.01 11:42:41.
