data_PCOD8326935
_publ_section_title
;
Structure prediction by ZEFSAII (Michael W. Deem and Ramdas Pophale) SiO2 
 PCOD8326935
Probable space group: P -6 M 2
;
_chemical_formula_sum "Si O2"
_cell_formula_units_Z 60
_cell_length_a 17.974170
_cell_length_b 17.974170
_cell_length_c 12.487732
_cell_angle_alpha 90.000000
_cell_angle_beta 90.000000
_cell_angle_gamma 120.000000
_cell_volume 3493.911428
_symmetry_space_group_name_H-M "P -6 M 2"
_symmetry_group_IT_number 187
_symmetry_cell_setting 'hexagonal'
loop_
_space_group_symop_operation_xyz
x,y,z
-x+y,-x,-z
-y,x-y,z
x,y,-z
-x+y,-x,z
-y,x-y,-z
-y,-x,-z
-x+y,y,-z
x,x-y,-z
-x+y,y,z
x,x-y,z
-y,-x,z
loop_
_atom_site_type_symbol
_atom_site_label
_atom_site_fract_x
_atom_site_fract_y
_atom_site_fract_z
Si Si1 0.160435 0.664992 0.768422
Si Si2 0.298954 0.235196 0.305219
Si Si3 0.163151 0.498254 0.000000
Si Si4 0.998698 0.825255 0.500000
Si Si5 0.583443 0.584950 0.626456
Si Si6 0.000154 0.828405 0.122980
O O1 0.192218 0.596109 0.756924
O O2 0.240859 0.759142 0.753748
O O3 0.093912 0.650944 0.675455
O O4 0.114177 0.653708 0.886340
O O5 0.325745 0.162873 0.308282
O O6 0.230648 0.221058 0.396517
O O7 0.388208 0.323870 0.323603
O O8 0.254635 0.235231 0.192798
O O9 0.240511 0.481022 0.000000
O O10 0.199929 0.599965 0.000000
O O11 0.926540 0.853080 0.500000
O O12 0.090744 0.909257 0.500000
O O13 0.589542 0.597121 0.500000
O O14 0.513597 0.486404 0.657665
O O15 0.926727 0.853454 0.142929
O O16 0.002504 0.803820 0.000000
O O17 0.090142 0.909859 0.157802
#
# Coordination Sequence:
#
# PCOD8326935 Si02
#       6
#    12  12   6   6  12  12
#     4   9  17  29  46  68  95 128 165 201 238 279
#     4  10  20  35  54  74  97 129 167 206 254 306
#     4   8  13  24  42  64  89 120 158 200 238 274
#     4  10  19  30  47  74 106 138 170 202 239 284
#     4  10  21  37  53  70  93 125 163 206 258 310
#     4   9  17  30  49  75 108 146 182 212 241 281
#
# _framework density 17.172732
#
# number of rings (size 3 to 8) (size 9 to 14) (size 15 to 20)
#    0.000    2.600    1.000    1.200    0.000    4.400 
#    1.800    2.000    0.000    1.600    0.000    0.000 
#    0.000    0.000    0.000    0.000    0.000    0.000 
#
# Total GULP energy -743561.441496 kJ/mol
# GULP energy per Si atom -12392.690692 kJ/mol
# Density = 1.713365 g / cm^3
# Si number density = 17.172732 Si / 1000 Ang^3
#
#
#
# Elastic Constant Matrix: (Units=GPa)
#
#
# Indices 1 2 3 4 5 6 
#
# 1 87.3121 59.0657 47.4350 0.0000 0.0000 0.0000
# 2 59.0657 87.3121 47.4350 0.0000 0.0000 0.0000
# 3 47.4350 47.4350 92.2586 0.0000 0.0000 0.0000
# 4 0.0000 0.0000 0.0000 21.7686 0.0000 0.0000
# 5 0.0000 0.0000 0.0000 0.0000 21.7686 0.0000
# 6 0.0000 0.0000 0.0000 0.0000 0.0000 14.1232
#
#
#
# Elastic Compliance Matrix: (Units=1/GPa)
#
#
# Indices 1 2 3 4 5 6 
#
# 1 0.022824 -0.012578 -0.005268 0.000000 0.000000 0.000000
# 2 -0.012578 0.022824 -0.005268 0.000000 0.000000 0.000000
# 3 -0.005268 -0.005268 0.016256 0.000000 0.000000 0.000000
# 4 0.000000 0.000000 0.000000 0.045938 0.000000 0.000000
# 5 0.000000 0.000000 0.000000 0.000000 0.045938 0.000000
# 6 0.000000 0.000000 0.000000 0.000000 0.000000 0.070805
#
#
# Mechanical properties :
#
#
# Convention : Reuss Voigt Hill
#
# Bulk Modulus (GPa) = 63.79124 63.86158 63.82641
# Shear Modulus (GPa) = 18.11334 19.06189 18.58761
#
# Velocity S-wave (km/s) = 3.25125 3.33529 3.29354
# Velocity P-wave (km/s) = 7.16391 7.21809 7.19105
#
# Compressibility (1/GPa) = 0.01567613
#
# Stress axis : x y z
#
# Youngs Moduli (GPa) = 43.81296 43.81296 61.51516
#
# Poissons Ratio (x) = 0.55110 0.32406
# Poissons Ratio (y) = 0.55110 0.32406
# Poissons Ratio (z) = 0.23080 0.23080
#
# Static dielectric constant tensor:
#      x y z
#    x 3.055930 0.000000 0.000000 
#    y 0.000000 3.055930 0.000000 
#    z 0.000000 0.000000 3.621160 
# 
# 
# High freq. dielectric constant tensor:
#      x y z
#    x 1.637290 0.000000 0.000000 
#    y 0.000000 1.637290 0.000000 
#    z 0.000000 0.000000 1.682520 
# 
# From -- ./inp_files/1649.got.cif
#   From: 2010.03.12/outbox.cif.g09.slc.cpg/sg187_1_cif.got.tgz:1649.got - 2010.04.01 11:58:23.
