data_PCOD8326109
_publ_section_title
;
Structure prediction by ZEFSAII (Michael W. Deem and Ramdas Pophale) SiO2 
 PCOD8326109
Probable space group: P 65 2 2
;
_chemical_formula_sum "Si O2"
_cell_formula_units_Z 54
_cell_length_a 18.117784
_cell_length_b 18.117784
_cell_length_c 9.889217
_cell_angle_alpha 90.000000
_cell_angle_beta 90.000000
_cell_angle_gamma 120.000000
_cell_volume 2811.270879
_symmetry_space_group_name_H-M "P 65 2 2"
_symmetry_group_IT_number 179
_symmetry_cell_setting 'hexagonal'
loop_
_space_group_symop_operation_xyz
x,y,z
x-y,x,5/6+z
-y,x-y,2/3+z
-x,-y,1/2+z
-x+y,-x,1/3+z
y,-x+y,1/6+z
x-y,-y,-z
-x,-x+y,1/3-z
y,x,2/3-z
-y,-x,1/6-z
-x+y,y,1/2-z
x,x-y,5/6-z
loop_
_atom_site_type_symbol
_atom_site_label
_atom_site_fract_x
_atom_site_fract_y
_atom_site_fract_z
Si Si1 0.086210 0.339095 0.754606
Si Si2 0.660704 0.480636 0.393945
Si Si3 0.047504 0.523752 0.416667
Si Si4 0.386581 0.047305 0.630220
Si Si5 0.207402 0.550607 0.036447
O O1 0.149521 0.299042 0.750000
O O2 0.144712 0.437390 0.705118
O O3 0.000000 0.283557 0.666667
O O4 0.055325 0.334887 0.909541
O O5 0.590784 0.492503 0.468454
O O6 0.717738 0.468116 0.502749
O O7 0.620555 0.389807 0.318655
O O8 0.994199 0.436310 0.340328
O O9 0.457756 0.138557 0.577018
O O10 0.325870 0.000000 0.500000
O O11 0.174065 0.587033 0.916667
#
# Coordination Sequence:
#
# PCOD8326109 Si02
#       5
#    12  12   6  12  12
#     4  12  24  47  71  97 127 169 217 274 334 408
#     4  12  25  39  58  88 133 179 235 282 324 385
#     4  12  24  36  58  88 122 182 224 282 330 380
#     4  12  23  41  63  89 124 172 225 274 330 385
#     4  12  23  38  56  83 125 176 227 278 327 366
#
# _framework density 19.208393000000001
#
# number of rings (size 3 to 8) (size 9 to 14) (size 15 to 20)
#    0.000    0.000   10.000    0.667    3.111    0.000 
#    0.000    3.333    0.000    0.000    0.000    1.556 
#    0.000    0.000    0.000    0.000    0.000    0.000 
#
# Total GULP energy -669077.160505 kJ/mol
# GULP energy per Si atom -12390.317787 kJ/mol
# Density = 1.916467 g / cm^3
# Si number density = 19.208393 Si / 1000 Ang^3
#
#
#
# Elastic Constant Matrix: (Units=GPa)
#
#
# Indices 1 2 3 4 5 6 
#
# 1 111.1367 28.4622 45.7756 0.0000 0.0000 0.0000
# 2 28.4622 111.1367 45.7756 0.0000 0.0000 0.0000
# 3 45.7756 45.7756 104.0309 0.0000 0.0000 0.0000
# 4 0.0000 0.0000 0.0000 51.0036 0.0000 0.0000
# 5 0.0000 0.0000 0.0000 0.0000 51.0036 0.0000
# 6 0.0000 0.0000 0.0000 0.0000 0.0000 41.3372
#
#
#
# Elastic Compliance Matrix: (Units=1/GPa)
#
#
# Indices 1 2 3 4 5 6 
#
# 1 0.011082 -0.001013 -0.004431 0.000000 0.000000 0.000000
# 2 -0.001013 0.011082 -0.004431 0.000000 0.000000 0.000000
# 3 -0.004431 -0.004431 0.013512 0.000000 0.000000 0.000000
# 4 0.000000 0.000000 0.000000 0.019606 0.000000 0.000000
# 5 0.000000 0.000000 0.000000 0.000000 0.019606 0.000000
# 6 0.000000 0.000000 0.000000 0.000000 0.000000 0.024191
#
#
# Mechanical properties :
#
#
# Convention : Reuss Voigt Hill
#
# Bulk Modulus (GPa) = 62.78500 62.92571 62.85535
# Shear Modulus (GPa) = 40.27761 42.42160 41.34961
#
# Velocity S-wave (km/s) = 4.58413 4.70456 4.64474
# Velocity P-wave (km/s) = 7.79591 7.89564 7.84593
#
# Compressibility (1/GPa) = 0.01592737
#
# Stress axis : x y z
#
# Youngs Moduli (GPa) = 90.23379 90.23379 74.01048
#
# Poissons Ratio (x) = 0.09143 0.32791
# Poissons Ratio (y) = 0.09143 0.32791
# Poissons Ratio (z) = 0.39979 0.39979
#
# Static dielectric constant tensor:
#      x y z
#    x 3.501820 0.000000 0.000000 
#    y 0.000000 3.501820 0.000000 
#    z 0.000000 0.000000 3.736680 
# 
# 
# High freq. dielectric constant tensor:
#      x y z
#    x 1.727920 0.000000 0.000000 
#    y 0.000000 1.727920 0.000000 
#    z 0.000000 0.000000 1.758370 
# 
# From -- ./inp_files/3132.got.cif
#   From: 2010.03.12/outbox.cif.g09.slc.cpg/sg179_2_cif.got.tgz:3132.got - 2010.04.02 07:08:42.
