data_PCOD8326262
_publ_section_title
;
Structure prediction by ZEFSAII (Michael W. Deem and Ramdas Pophale) SiO2 
 PCOD8326262
Probable space group: P 62 2 2
;
_chemical_formula_sum "Si O2"
_cell_formula_units_Z 51
_cell_length_a 12.317507
_cell_length_b 12.317507
_cell_length_c 19.900081
_cell_angle_alpha 90.000000
_cell_angle_beta 90.000000
_cell_angle_gamma 120.000000
_cell_volume 2614.755657
_symmetry_space_group_name_H-M "P 62 2 2"
_symmetry_group_IT_number 180
_symmetry_cell_setting 'hexagonal'
loop_
_space_group_symop_operation_xyz
x,y,z
x-y,x,1/3+z
-y,x-y,2/3+z
-x,-y,z
-x+y,-x,1/3+z
y,-x+y,2/3+z
x-y,-y,-z
-x,-x+y,1/3-z
y,x,2/3-z
-y,-x,2/3-z
-x+y,y,-z
x,x-y,1/3-z
loop_
_atom_site_type_symbol
_atom_site_label
_atom_site_fract_x
_atom_site_fract_y
_atom_site_fract_z
Si Si1 0.000000 0.249475 0.666667
Si Si2 0.468215 0.360664 0.577770
Si Si3 0.000000 0.000000 0.833334
Si Si4 0.828244 0.818460 0.059459
Si Si5 0.360497 0.480195 0.240421
Si Si6 0.330901 0.669100 0.333334
O O1 0.921449 0.273136 0.611015
O O2 0.101745 0.238183 0.622405
O O3 0.500000 0.500000 0.568951
O O4 0.327501 0.272294 0.602853
O O5 0.478943 0.316618 0.502812
O O6 0.568747 0.369347 0.631670
O O7 0.126424 0.038534 0.792259
O O8 0.922051 0.844102 0.000000
O O9 0.500000 0.500000 0.247786
O O10 0.334385 0.582418 0.274677
#
# Coordination Sequence:
#
# PCOD8326262 Si02
#       6
#     6  12   3  12  12   6
#     4  12  20  42  70  94 134 164 224 272 332 378
#     4  11  26  42  66  96 132 175 222 265 336 400
#     4  12  22  44  68  98 138 172 230 278 332 396
#     4  12  24  43  65  98 132 172 211 277 327 396
#     4  11  23  41  68  99 122 174 225 274 323 385
#     4  12  21  46  64  91 140 166 214 282 324 397
#
# _framework density 19.504688999999999
#
# number of rings (size 3 to 8) (size 9 to 14) (size 15 to 20)
#    0.000    0.471    5.882    3.529    0.000    0.000 
#    0.000    0.000    0.000    1.412    0.000    0.000 
#    0.000    0.000    0.000    0.000    0.000    0.000 
#
# Total GULP energy -632115.226754 kJ/mol
# GULP energy per Si atom -12394.416211 kJ/mol
# Density = 1.946030 g / cm^3
# Si number density = 19.504689 Si / 1000 Ang^3
#
#
#
# Elastic Constant Matrix: (Units=GPa)
#
#
# Indices 1 2 3 4 5 6 
#
# 1 98.7829 14.8130 16.0605 0.0000 0.0000 0.0000
# 2 14.8130 98.7829 16.0605 0.0000 0.0000 0.0000
# 3 16.0605 16.0605 92.4671 0.0000 0.0000 0.0000
# 4 0.0000 0.0000 0.0000 25.2200 0.0000 0.0000
# 5 0.0000 0.0000 0.0000 0.0000 25.2200 0.0000
# 6 0.0000 0.0000 0.0000 0.0000 0.0000 41.9849
#
#
#
# Elastic Compliance Matrix: (Units=1/GPa)
#
#
# Indices 1 2 3 4 5 6 
#
# 1 0.010583 -0.001326 -0.001608 0.000000 0.000000 0.000000
# 2 -0.001326 0.010583 -0.001608 0.000000 0.000000 0.000000
# 3 -0.001608 -0.001608 0.011373 0.000000 0.000000 0.000000
# 4 0.000000 0.000000 0.000000 0.039651 0.000000 0.000000
# 5 0.000000 0.000000 0.000000 0.000000 0.039651 0.000000
# 6 0.000000 0.000000 0.000000 0.000000 0.000000 0.023818
#
#
# Mechanical properties :
#
#
# Convention : Reuss Voigt Hill
#
# Bulk Modulus (GPa) = 42.63132 42.65568 42.64350
# Shear Modulus (GPa) = 32.77349 34.69158 33.73254
#
# Velocity S-wave (km/s) = 4.10358 4.22195 4.16319
# Velocity P-wave (km/s) = 6.66010 6.75895 6.70971
#
# Compressibility (1/GPa) = 0.02345693
#
# Stress axis : x y z
#
# Youngs Moduli (GPa) = 94.48737 94.48737 87.92570
#
# Poissons Ratio (x) = 0.12525 0.14138
# Poissons Ratio (y) = 0.12525 0.14138
# Poissons Ratio (z) = 0.15193 0.15193
#
# Static dielectric constant tensor:
#      x y z
#    x 3.672290 0.000000 0.000000 
#    y 0.000000 3.672290 0.000000 
#    z 0.000000 0.000000 4.040570 
# 
# 
# High freq. dielectric constant tensor:
#      x y z
#    x 1.764900 0.000000 0.000000 
#    y 0.000000 1.764900 0.000000 
#    z 0.000000 0.000000 1.782790 
# 
# From -- ./inp_files/8922.got.cif
#   From: 2010.03.12/outbox.cif.g09.slc.cpg/sg180_5_cif.got.tgz:8922.got - 2010.04.01 11:35:50.
