data_PCOD8326997
_publ_section_title
;
Structure prediction by ZEFSAII (Michael W. Deem and Ramdas Pophale) SiO2 
 PCOD8326997
Probable space group: P -6 M 2
;
_chemical_formula_sum "Si O2"
_cell_formula_units_Z 90
_cell_length_a 17.509106
_cell_length_b 17.509106
_cell_length_c 17.556605
_cell_angle_alpha 90.000000
_cell_angle_beta 90.000000
_cell_angle_gamma 120.000000
_cell_volume 4661.214768
_symmetry_space_group_name_H-M "P -6 M 2"
_symmetry_group_IT_number 187
_symmetry_cell_setting 'hexagonal'
loop_
_space_group_symop_operation_xyz
x,y,z
-x+y,-x,-z
-y,x-y,z
x,y,-z
-x+y,-x,z
-y,x-y,-z
-y,-x,-z
-x+y,y,-z
x,x-y,-z
-x+y,y,z
x,x-y,z
-y,-x,z
loop_
_atom_site_type_symbol
_atom_site_label
_atom_site_fract_x
_atom_site_fract_y
_atom_site_fract_z
Si Si1 0.666128 0.500437 0.298521
Si Si2 0.001148 0.819136 0.000000
Si Si3 0.495605 0.162181 0.882333
Si Si4 0.690331 0.690344 0.875618
Si Si5 0.245176 0.934426 0.415174
Si Si6 0.158475 0.665782 0.340454
Si Si7 0.509080 0.666382 0.162779
Si Si8 0.936867 0.241154 0.710641
O O1 0.737681 0.475361 0.329202
O O2 0.570144 0.429857 0.331407
O O3 0.665440 0.497851 0.207857
O O4 0.692407 0.598411 0.323243
O O5 0.008650 0.770297 0.925545
O O6 0.080479 0.919522 0.000000
O O7 0.909423 0.818846 0.000000
O O8 0.574975 0.149950 0.915932
O O9 0.503842 0.251921 0.915647
O O10 0.401177 0.081089 0.906300
O O11 0.595338 0.683219 0.883312
O O12 0.723419 0.712744 0.788922
O O13 0.269524 0.975478 0.500000
O O14 0.150324 0.849677 0.414849
O O15 0.318048 0.910003 0.388009
O O16 0.239794 0.002067 0.355982
O O17 0.148738 0.574369 0.368613
O O18 0.258343 0.741658 0.355774
O O19 0.134715 0.661917 0.251807
O O20 0.488837 0.744419 0.145006
O O21 0.425170 0.574831 0.135791
O O22 0.854932 0.145069 0.726642
#
# Coordination Sequence:
#
# PCOD8326997 Si02
#       8
#    12   6  12  12  12  12  12  12
#     4   8  14  24  43  72 106 142 178 216 257 305
#     4  12  27  46  67  90 118 150 188 238 297 358
#     4   9  16  28  48  77 113 150 189 232 281 334
#     4  11  21  38  61  87 114 150 193 240 287 341
#     4  10  21  36  53  76 108 144 183 230 284 341
#     4   9  17  30  50  78 113 153 194 235 278 329
#     4  10  19  33  56  87 121 158 198 240 284 334
#     4  10  20  35  56  82 108 138 181 230 280 335
#
# _framework density 19.308273
#
# number of rings (size 3 to 8) (size 9 to 14) (size 15 to 20)
#    0.000    2.267    1.333    3.400    0.000    4.267 
#    0.000    1.333    0.000    1.067    0.000    1.867 
#    0.000    1.067    0.000    0.000    0.000    0.000 
#
# Total GULP energy -1115858.857334 kJ/mol
# GULP energy per Si atom -12398.431748 kJ/mol
# Density = 1.926433 g / cm^3
# Si number density = 19.308273 Si / 1000 Ang^3
#
#
#
# Elastic Constant Matrix: (Units=GPa)
#
#
# Indices 1 2 3 4 5 6 
#
# 1 103.7171 45.5382 37.1514 0.0000 -0.0001 0.0000
# 2 45.5382 103.7171 37.1514 0.0000 0.0001 0.0000
# 3 37.1514 37.1514 59.7395 0.0000 0.0000 0.0000
# 4 0.0000 0.0000 0.0000 14.5809 0.0000 0.0001
# 5 -0.0001 0.0001 0.0000 0.0000 14.5809 0.0000
# 6 0.0000 0.0000 0.0000 0.0001 0.0000 29.0894
#
#
#
# Elastic Compliance Matrix: (Units=1/GPa)
#
#
# Indices 1 2 3 4 5 6 
#
# 1 0.013446 -0.003742 -0.006035 0.000000 0.000000 0.000000
# 2 -0.003742 0.013446 -0.006035 0.000000 0.000000 0.000000
# 3 -0.006035 -0.006035 0.024246 0.000000 0.000000 0.000000
# 4 0.000000 0.000000 0.000000 0.068583 0.000000 0.000000
# 5 0.000000 0.000000 0.000000 0.000000 0.068583 0.000000
# 6 0.000000 0.000000 0.000000 0.000000 0.000000 0.034377
#
#
# Mechanical properties :
#
#
# Convention : Reuss Voigt Hill
#
# Bulk Modulus (GPa) = 51.24492 56.31732 53.78112
# Shear Modulus (GPa) = 19.17108 21.47242 20.32175
#
# Velocity S-wave (km/s) = 3.15444 3.33841 3.24773
# Velocity P-wave (km/s) = 6.31390 6.64009 6.47905
#
# Compressibility (1/GPa) = 0.01951413
#
# Stress axis : x y z
#
# Youngs Moduli (GPa) = 74.36972 74.36972 41.24464
#
# Poissons Ratio (x) = 0.27829 0.24891
# Poissons Ratio (y) = 0.27829 0.24891
# Poissons Ratio (z) = 0.44882 0.44882
#
# Static dielectric constant tensor:
#      x y z
#    x 3.625030 0.000000 0.000000 
#    y 0.000000 3.625030 0.000000 
#    z 0.000000 0.000000 3.243280 
# 
# 
# High freq. dielectric constant tensor:
#      x y z
#    x 1.752520 0.000000 0.000000 
#    y 0.000000 1.752520 0.000000 
#    z 0.000000 0.000000 1.716310 
# 
# From -- ./inp_files/3235.got.cif
#   From: 2010.03.12/outbox.cif.g09.slc.cpg/sg187_2_cif.got.tgz:3235.got - 2010.04.01 11:58:23.
