data_PCOD8326391
_publ_section_title
;
Structure prediction by ZEFSAII (Michael W. Deem and Ramdas Pophale) SiO2 
 PCOD8326391
Probable space group: P 64 2 2
;
_chemical_formula_sum "Si O2"
_cell_formula_units_Z 75
_cell_length_a 11.874222
_cell_length_b 11.874222
_cell_length_c 29.220374
_cell_angle_alpha 90.000000
_cell_angle_beta 90.000000
_cell_angle_gamma 120.000000
_cell_volume 3568.015484
_symmetry_space_group_name_H-M "P 64 2 2"
_symmetry_group_IT_number 181
_symmetry_cell_setting 'hexagonal'
loop_
_space_group_symop_operation_xyz
x,y,z
x-y,x,2/3+z
-y,x-y,1/3+z
-x,-y,z
-x+y,-x,2/3+z
y,-x+y,1/3+z
x-y,-y,-z
-x,-x+y,2/3-z
y,x,1/3-z
-y,-x,1/3-z
-x+y,y,-z
x,x-y,2/3-z
loop_
_atom_site_type_symbol
_atom_site_label
_atom_site_fract_x
_atom_site_fract_y
_atom_site_fract_z
Si Si1 0.713984 0.789762 0.879907
Si Si2 0.432529 0.752625 0.044132
Si Si3 0.607885 0.787210 0.201401
Si Si4 0.500000 0.000000 0.000000
Si Si5 0.423055 0.656878 0.881548
Si Si6 0.129344 0.137131 0.719458
Si Si7 0.362684 0.263902 0.098374
O O1 0.730885 0.865443 0.833334
O O2 0.813347 0.736156 0.878315
O O3 0.565349 0.671341 0.885071
O O4 0.750285 0.886244 0.922588
O O5 0.337079 0.753971 0.082207
O O6 0.515747 0.687975 0.063018
O O7 0.339420 0.678839 0.000000
O O8 0.531305 0.905215 0.031199
O O9 0.488788 0.795295 0.223785
O O10 0.592422 0.765917 0.146833
O O11 0.623657 0.674296 0.226748
O O12 0.398742 0.699371 0.833334
O O13 0.169751 0.169751 0.666667
O O14 0.103133 0.241886 0.743780
O O15 0.000000 0.000000 0.725010
#
# Coordination Sequence:
#
# PCOD8326391 Si02
#       7
#    12  12  12   3  12  12  12
#     4  11  23  39  66  97 136 179 224 296 356 416
#     4  10  24  43  66 103 130 180 231 290 347 419
#     4  11  23  43  66  99 136 180 234 285 350 430
#     4   8  24  40  72  96 138 168 236 294 352 422
#     4  11  24  43  64  98 139 177 236 282 348 414
#     4  11  24  40  65 103 137 172 229 295 361 427
#     4  11  23  40  70 100 132 181 230 288 353 419
#
# _framework density 21.020087
#
# number of rings (size 3 to 8) (size 9 to 14) (size 15 to 20)
#    0.480    0.800    4.800    0.480    5.600    0.960 
#    0.000    1.600    3.520    0.000    0.000    0.000 
#    0.000    0.000    0.000    0.000    0.000    0.000 
#
# Total GULP energy -929656.357120 kJ/mol
# GULP energy per Si atom -12395.418095 kJ/mol
# Density = 2.097224 g / cm^3
# Si number density = 21.020087 Si / 1000 Ang^3
#
#
#
# Elastic Constant Matrix: (Units=GPa)
#
#
# Indices 1 2 3 4 5 6 
#
# 1 86.3146 30.2345 51.2090 0.0000 0.0000 0.0000
# 2 30.2345 86.3146 51.2090 0.0000 0.0000 0.0000
# 3 51.2090 51.2090 145.4800 0.0000 0.0000 0.0000
# 4 0.0000 0.0000 0.0000 25.2995 0.0000 0.0000
# 5 0.0000 0.0000 0.0000 0.0000 25.2995 0.0000
# 6 0.0000 0.0000 0.0000 0.0000 0.0000 28.0400
#
#
#
# Elastic Compliance Matrix: (Units=1/GPa)
#
#
# Indices 1 2 3 4 5 6 
#
# 1 0.015127 -0.002704 -0.004373 0.000000 0.000000 0.000000
# 2 -0.002704 0.015127 -0.004373 0.000000 0.000000 0.000000
# 3 -0.004373 -0.004373 0.009952 0.000000 0.000000 0.000000
# 4 0.000000 0.000000 0.000000 0.039526 0.000000 0.000000
# 5 0.000000 0.000000 0.000000 0.000000 0.039526 0.000000
# 6 0.000000 0.000000 0.000000 0.000000 0.000000 0.035663
#
#
# Mechanical properties :
#
#
# Convention : Reuss Voigt Hill
#
# Bulk Modulus (GPa) = 57.78191 64.82380 61.30286
# Shear Modulus (GPa) = 27.23432 28.09157 27.66294
#
# Velocity S-wave (km/s) = 3.60340 3.65967 3.63164
# Velocity P-wave (km/s) = 6.69785 6.98309 6.84195
#
# Compressibility (1/GPa) = 0.01730645
#
# Stress axis : x y z
#
# Youngs Moduli (GPa) = 66.10620 66.10620 100.47987
#
# Poissons Ratio (x) = 0.17878 0.43938
# Poissons Ratio (y) = 0.17878 0.43938
# Poissons Ratio (z) = 0.28907 0.28907
#
# Static dielectric constant tensor:
#      x y z
#    x 3.731670 0.000000 0.000000 
#    y 0.000000 3.731670 0.000000 
#    z 0.000000 0.000000 3.820800 
# 
# 
# High freq. dielectric constant tensor:
#      x y z
#    x 1.819880 0.000000 0.000000 
#    y 0.000000 1.819880 0.000000 
#    z 0.000000 0.000000 1.824670 
# 
# From -- ./inp_files/12383.got.cif
#   From: 2010.03.12/outbox.cif.g09.slc.cpg/sg181_7_cif.got.tgz:12383.got - 2010.04.01 11:42:41.
