data_PCOD8326216
_publ_section_title
;
Structure prediction by ZEFSAII (Michael W. Deem and Ramdas Pophale) SiO2 
 PCOD8326216
Probable space group: P 62 2 2
;
_chemical_formula_sum "Si O2"
_cell_formula_units_Z 78
_cell_length_a 17.047950
_cell_length_b 17.047950
_cell_length_c 18.970811
_cell_angle_alpha 90.000000
_cell_angle_beta 90.000000
_cell_angle_gamma 120.000000
_cell_volume 4774.862336
_symmetry_space_group_name_H-M "P 62 2 2"
_symmetry_group_IT_number 180
_symmetry_cell_setting 'hexagonal'
loop_
_space_group_symop_operation_xyz
x,y,z
x-y,x,1/3+z
-y,x-y,2/3+z
-x,-y,z
-x+y,-x,1/3+z
y,-x+y,2/3+z
x-y,-y,-z
-x,-x+y,1/3-z
y,x,2/3-z
-y,-x,2/3-z
-x+y,y,-z
x,x-y,1/3-z
loop_
_atom_site_type_symbol
_atom_site_label
_atom_site_fract_x
_atom_site_fract_y
_atom_site_fract_z
Si Si1 0.857068 0.319585 0.844713
Si Si2 0.603862 0.577805 0.757626
Si Si3 0.309006 0.690995 0.333334
Si Si4 0.459984 0.098638 0.021643
Si Si5 0.536456 0.337266 0.538730
Si Si6 0.017204 0.601212 0.393253
Si Si7 0.264145 0.764580 0.607329
O O1 0.785775 0.214226 0.833334
O O2 0.905737 0.361401 0.771843
O O3 0.808374 0.373733 0.870652
O O4 0.932642 0.331095 0.901800
O O5 0.500000 0.500000 0.764338
O O6 0.630895 0.630895 0.833334
O O7 0.610286 0.637135 0.687993
O O8 0.676001 0.545773 0.742698
O O9 0.281386 0.727245 0.264996
O O10 0.262430 0.583972 0.324805
O O11 0.560102 0.120204 0.000000
O O12 0.438362 0.172596 0.986141
O O13 0.381665 0.000000 0.000000
O O14 0.445569 0.338595 0.560740
O O15 0.525646 0.289091 0.465267
O O16 0.000000 0.500000 0.390929
#
# Coordination Sequence:
#
# PCOD8326216 Si02
#       7
#    12  12   6  12  12  12  12
#     4  11  19  33  49  69  94 127 164 213 271 314
#     4  10  22  35  51  64  96 135 177 223 268 315
#     4  12  22  30  47  68  98 124 174 226 269 300
#     4  11  21  33  51  74 103 133 166 222 281 323
#     4  11  22  30  48  66  94 123 167 220 262 305
#     4   9  19  34  46  65  91 126 161 208 263 317
#     4  12  21  35  49  74  97 130 183 225 271 320
#
# _framework density 16.335549
#
# number of rings (size 3 to 8) (size 9 to 14) (size 15 to 20)
#    0.000    1.231    2.308    6.923   10.769    0.000 
#    0.000    0.000    0.000    0.000    0.000    0.000 
#    0.000    0.000    0.000    0.000    0.000   50.769 
#
# Total GULP energy -966728.747109 kJ/mol
# GULP energy per Si atom -12393.958296 kJ/mol
# Density = 1.629837 g / cm^3
# Si number density = 16.335549 Si / 1000 Ang^3
#
#
#
# Elastic Constant Matrix: (Units=GPa)
#
#
# Indices 1 2 3 4 5 6 
#
# 1 63.9965 20.3629 15.9766 0.0000 0.0000 0.0000
# 2 20.3629 63.9965 15.9766 0.0000 0.0000 0.0000
# 3 15.9766 15.9766 127.1167 0.0000 0.0000 0.0000
# 4 0.0000 0.0000 0.0000 26.2288 0.0000 0.0000
# 5 0.0000 0.0000 0.0000 0.0000 26.2288 0.0000
# 6 0.0000 0.0000 0.0000 0.0000 0.0000 21.8168
#
#
#
# Elastic Compliance Matrix: (Units=1/GPa)
#
#
# Indices 1 2 3 4 5 6 
#
# 1 0.017682 -0.005236 -0.001564 0.000000 0.000000 0.000000
# 2 -0.005236 0.017682 -0.001564 0.000000 0.000000 0.000000
# 3 -0.001564 -0.001564 0.008260 0.000000 0.000000 0.000000
# 4 0.000000 0.000000 0.000000 0.038126 0.000000 0.000000
# 5 0.000000 0.000000 0.000000 0.000000 0.038126 0.000000
# 6 0.000000 0.000000 0.000000 0.000000 0.000000 0.045836
#
#
# Mechanical properties :
#
#
# Convention : Reuss Voigt Hill
#
# Bulk Modulus (GPa) = 37.18052 39.97131 38.57592
# Shear Modulus (GPa) = 26.12231 28.37444 27.24838
#
# Velocity S-wave (km/s) = 4.00322 4.17222 4.08860
# Velocity P-wave (km/s) = 6.64663 6.90883 6.77900
#
# Compressibility (1/GPa) = 0.02689580
#
# Stress axis : x y z
#
# Youngs Moduli (GPa) = 56.55356 56.55356 121.06517
#
# Poissons Ratio (x) = 0.29610 0.18939
# Poissons Ratio (y) = 0.29610 0.18939
# Poissons Ratio (z) = 0.08847 0.08847
#
# Static dielectric constant tensor:
#      x y z
#    x 2.903820 0.000000 0.000000 
#    y 0.000000 2.903820 0.000000 
#    z 0.000000 0.000000 3.704400 
# 
# 
# High freq. dielectric constant tensor:
#      x y z
#    x 1.585190 0.000000 0.000000 
#    y 0.000000 1.585190 0.000000 
#    z 0.000000 0.000000 1.671410 
# 
# From -- ./inp_files/7978.got.cif
#   From: 2010.03.12/outbox.cif.g09.slc.cpg/sg180_4_cif.got.tgz:7978.got - 2010.04.01 11:35:50.
