data_PCOD8326927
_publ_section_title
;
Structure prediction by ZEFSAII (Michael W. Deem and Ramdas Pophale) SiO2 
 PCOD8326927
Probable space group: P -6 M 2
;
_chemical_formula_sum "Si O2"
_cell_formula_units_Z 90
_cell_length_a 17.196422
_cell_length_b 17.196422
_cell_length_c 18.684657
_cell_angle_alpha 90.000000
_cell_angle_beta 90.000000
_cell_angle_gamma 120.000000
_cell_volume 4785.110265
_symmetry_space_group_name_H-M "P -6 M 2"
_symmetry_group_IT_number 187
_symmetry_cell_setting 'hexagonal'
loop_
_space_group_symop_operation_xyz
x,y,z
-x+y,-x,-z
-y,x-y,z
x,y,-z
-x+y,-x,z
-y,x-y,-z
-y,-x,-z
-x+y,y,-z
x,x-y,-z
-x+y,y,z
x,x-y,z
-y,-x,z
loop_
_atom_site_type_symbol
_atom_site_label
_atom_site_fract_x
_atom_site_fract_y
_atom_site_fract_z
Si Si1 0.850367 0.335771 0.658883
Si Si2 0.509348 0.846862 0.293450
Si Si3 0.829426 0.825844 0.730261
Si Si4 0.780244 0.800252 0.423217
Si Si5 0.762570 0.703642 0.135753
Si Si6 0.182255 0.182252 0.000000
Si Si7 0.599980 0.968444 0.421169
Si Si8 0.599985 0.577651 0.208681
O O1 0.817955 0.408978 0.651693
O O2 0.764220 0.235781 0.649839
O O3 0.926509 0.356474 0.599681
O O4 0.897842 0.345689 0.734915
O O5 0.404957 0.809914 0.272946
O O6 0.529842 0.764921 0.294367
O O7 0.523455 0.897864 0.369058
O O8 0.575948 0.924024 0.238422
O O9 0.934331 0.868661 0.751172
O O10 0.818614 0.783136 0.650450
O O11 0.771322 0.749915 0.787387
O O12 0.799152 0.899576 0.733233
O O13 0.817608 0.784303 0.500000
O O14 0.805248 0.902624 0.421984
O O15 0.674336 0.735776 0.421346
O O16 0.837622 0.675244 0.124224
O O17 0.764969 0.765104 0.070710
O O18 0.663606 0.616605 0.138875
O O19 0.087988 0.175975 0.000000
O O20 0.164243 0.082122 0.000000
O O21 0.557833 0.957362 0.500000
O O22 0.509797 0.490204 0.183818
#
# Coordination Sequence:
#
# PCOD8326927 Si02
#       8
#    12  12  12  12  12   6  12  12
#     4  10  20  34  52  73  97 126 162 206 257 313
#     4  10  20  33  50  72  98 128 163 206 257 313
#     4  10  19  30  46  69  99 135 173 213 256 303
#     4   9  18  31  46  66  91 122 165 214 261 307
#     4  10  20  34  54  80 108 139 178 219 257 302
#     4  10  21  36  55  82 118 156 188 220 257 296
#     4  10  20  33  48  65  89 123 163 209 260 312
#     4   9  19  35  55  79 105 132 163 205 258 311
#
# _framework density 18.808343000000001
#
# number of rings (size 3 to 8) (size 9 to 14) (size 15 to 20)
#    0.000    2.267    0.000    4.467    0.000    6.133 
#    0.000    3.000    0.000    2.667    0.000    0.000 
#    0.000    0.000    0.000    0.000    0.000    0.267 
#
# Total GULP energy -1115043.740741 kJ/mol
# GULP energy per Si atom -12389.374897 kJ/mol
# Density = 1.876553 g / cm^3
# Si number density = 18.808343 Si / 1000 Ang^3
#
#
#
# Elastic Constant Matrix: (Units=GPa)
#
#
# Indices 1 2 3 4 5 6 
#
# 1 87.3187 36.1331 31.4916 0.0000 0.0001 0.0000
# 2 36.1331 87.3187 31.4916 0.0000 -0.0001 0.0000
# 3 31.4916 31.4916 102.9294 0.0000 0.0000 0.0000
# 4 0.0000 0.0000 0.0000 18.5979 0.0000 -0.0001
# 5 0.0001 -0.0001 0.0000 0.0000 18.5979 0.0000
# 6 0.0000 0.0000 0.0000 -0.0001 0.0000 25.5928
#
#
#
# Elastic Compliance Matrix: (Units=1/GPa)
#
#
# Indices 1 2 3 4 5 6 
#
# 1 0.014568 -0.004969 -0.002937 0.000000 0.000000 0.000000
# 2 -0.004969 0.014568 -0.002937 0.000000 0.000000 0.000000
# 3 -0.002937 -0.002937 0.011512 0.000000 0.000000 0.000000
# 4 0.000000 0.000000 0.000000 0.053770 0.000000 0.000000
# 5 0.000000 0.000000 0.000000 0.000000 0.053770 0.000000
# 6 0.000000 0.000000 0.000000 0.000000 0.000000 0.039074
#
#
# Mechanical properties :
#
#
# Convention : Reuss Voigt Hill
#
# Bulk Modulus (GPa) = 52.73511 52.86661 52.80086
# Shear Modulus (GPa) = 23.22704 24.45441 23.84072
#
# Velocity S-wave (km/s) = 3.51797 3.60973 3.56414
# Velocity P-wave (km/s) = 6.67836 6.74852 6.71354
#
# Compressibility (1/GPa) = 0.01896270
#
# Stress axis : x y z
#
# Youngs Moduli (GPa) = 68.64510 68.64510 86.86283
#
# Poissons Ratio (x) = 0.34110 0.25509
# Poissons Ratio (y) = 0.34110 0.25509
# Poissons Ratio (z) = 0.20159 0.20159
#
# Static dielectric constant tensor:
#      x y z
#    x 3.347400 0.000000 0.000000 
#    y 0.000000 3.347400 0.000000 
#    z 0.000000 0.000000 3.503710 
# 
# 
# High freq. dielectric constant tensor:
#      x y z
#    x 1.726900 0.000000 0.000000 
#    y 0.000000 1.726900 0.000000 
#    z 0.000000 0.000000 1.707380 
# 
# From -- ./inp_files/3233.got.cif
#   From: 2010.03.12/outbox.cif.g09.slc.cpg/sg187_2_cif.got.tgz:3233.got - 2010.04.01 11:58:23.
