data_PCOD8326663
_publ_section_title
;
Structure prediction by ZEFSAII (Michael W. Deem and Ramdas Pophale) SiO2 
 PCOD8326663
Probable space group: P 63 C M
;
_chemical_formula_sum "Si O2"
_cell_formula_units_Z 96
_cell_length_a 14.748613
_cell_length_b 14.748613
_cell_length_c 28.926661
_cell_angle_alpha 90.000000
_cell_angle_beta 90.000000
_cell_angle_gamma 120.000000
_cell_volume 5449.181803
_symmetry_space_group_name_H-M "P 63 C M"
_symmetry_group_IT_number 185
_symmetry_cell_setting 'hexagonal'
loop_
_space_group_symop_operation_xyz
x,y,z
x-y,x,1/2+z
-y,x-y,z
-x,-y,1/2+z
-x+y,-x,z
y,-x+y,1/2+z
-x+y,y,1/2+z
x,x-y,1/2+z
-y,-x,1/2+z
y,x,z
x-y,-y,z
-x,-x+y,z
loop_
_atom_site_type_symbol
_atom_site_label
_atom_site_fract_x
_atom_site_fract_y
_atom_site_fract_z
Si Si1 0.417865 0.538569 0.780490
Si Si2 0.440260 0.244347 0.323849
Si Si3 0.291132 0.535428 0.520525
Si Si4 0.534819 0.289282 0.418332
Si Si5 0.121401 0.701882 0.606406
Si Si6 0.120447 0.244227 0.766071
Si Si7 0.121347 0.346259 0.671223
Si Si8 0.569294 0.123390 0.178638
O O1 0.446674 0.446674 0.783418
O O2 0.317443 0.510213 0.811030
O O3 0.516778 0.645217 0.798383
O O4 0.389975 0.554911 0.728114
O O5 0.446784 0.260189 0.379318
O O6 0.319279 0.170068 0.310471
O O7 0.412439 0.629406 0.525825
O O8 0.273241 0.483622 0.469408
O O9 0.262835 0.447081 0.558550
O O10 0.589223 0.216954 0.413228
O O11 0.139730 0.806297 0.633049
O O12 0.163565 0.639166 0.637689
O O13 0.000000 0.630159 0.594881
O O14 0.191243 0.191243 0.765601
O O15 0.145812 0.316156 0.720954
O O16 0.000000 0.154265 0.768001
O O17 0.158745 0.469108 0.670037
O O18 0.000000 0.273019 0.657888
O O19 0.504548 0.000000 0.181685
#
# Coordination Sequence:
#
# PCOD8326663 Si02
#       8
#    12  12  12  12  12  12  12  12
#     4  11  21  33  48  76 110 139 173 212 258 321
#     4  12  19  33  55  79 106 143 176 218 274 319
#     4   8  17  33  54  73 102 142 178 209 259 325
#     4   8  15  32  53  76 105 139 174 209 251 318
#     4  11  20  32  51  79 107 135 174 223 275 321
#     4  11  23  39  56  76 106 148 195 236 271 311
#     4  10  20  36  53  71 102 143 183 221 267 320
#     4   9  19  32  45  70 108 137 168 210 256 323
#
# _framework density 17.617322999999999
#
# number of rings (size 3 to 8) (size 9 to 14) (size 15 to 20)
#    0.500    1.500    2.500    3.000    0.000    1.000 
#    0.750    1.250    0.000    1.750    0.000    0.000 
#    0.000    0.000    0.000    0.000    0.000    0.000 
#
# Total GULP energy -1190029.401109 kJ/mol
# GULP energy per Si atom -12396.139595 kJ/mol
# Density = 1.757723 g / cm^3
# Si number density = 17.617323 Si / 1000 Ang^3
#
#
#
# Elastic Constant Matrix: (Units=GPa)
#
#
# Indices 1 2 3 4 5 6 
#
# 1 64.8874 19.0351 34.7620 0.0000 0.0000 0.0000
# 2 19.0351 64.8874 34.7620 0.0000 0.0000 0.0000
# 3 34.7620 34.7620 137.2378 0.0000 0.0000 0.0000
# 4 0.0000 0.0000 0.0000 16.4407 0.0000 0.0000
# 5 0.0000 0.0000 0.0000 0.0000 16.4407 0.0000
# 6 0.0000 0.0000 0.0000 0.0000 0.0000 22.9261
#
#
#
# Elastic Compliance Matrix: (Units=1/GPa)
#
#
# Indices 1 2 3 4 5 6 
#
# 1 0.018445 -0.003364 -0.003820 0.000000 0.000000 0.000000
# 2 -0.003364 0.018445 -0.003820 0.000000 0.000000 0.000000
# 3 -0.003820 -0.003820 0.009222 0.000000 0.000000 0.000000
# 4 0.000000 0.000000 0.000000 0.060825 0.000000 0.000000
# 5 0.000000 0.000000 0.000000 0.000000 0.060825 0.000000
# 6 0.000000 0.000000 0.000000 0.000000 0.000000 0.043618
#
#
# Mechanical properties :
#
#
# Convention : Reuss Voigt Hill
#
# Bulk Modulus (GPa) = 41.48865 49.34786 45.41826
# Shear Modulus (GPa) = 20.71071 23.05841 21.88456
#
# Velocity S-wave (km/s) = 3.43240 3.62173 3.52834
# Velocity P-wave (km/s) = 6.26973 6.74989 6.51424
#
# Compressibility (1/GPa) = 0.02410298
#
# Stress axis : x y z
#
# Youngs Moduli (GPa) = 54.21619 54.21619 108.43990
#
# Poissons Ratio (x) = 0.18241 0.41422
# Poissons Ratio (y) = 0.18241 0.41422
# Poissons Ratio (z) = 0.20709 0.20709
#
# Static dielectric constant tensor:
#      x y z
#    x 3.090090 0.000000 0.000000 
#    y 0.000000 3.090090 0.000000 
#    z 0.000000 0.000000 3.224550 
# 
# 
# High freq. dielectric constant tensor:
#      x y z
#    x 1.660740 0.000000 0.000000 
#    y 0.000000 1.660740 0.000000 
#    z 0.000000 0.000000 1.676100 
# 
# From -- ./inp_files/2234.got.cif
#   From: 2010.03.12/outbox.cif.g09.slc.cpg/sg185_cif.got.tgz:2234.got - 2010.04.01 11:55:19.
