data_PCOD8326585
_publ_section_title
;
Structure prediction by ZEFSAII (Michael W. Deem and Ramdas Pophale) SiO2 
 PCOD8326585
Probable space group: P 6 C C
;
_chemical_formula_sum "Si O2"
_cell_formula_units_Z 72
_cell_length_a 14.362516
_cell_length_b 14.362516
_cell_length_c 18.142647
_cell_angle_alpha 90.000000
_cell_angle_beta 90.000000
_cell_angle_gamma 120.000000
_cell_volume 3241.099272
_symmetry_space_group_name_H-M "P 6 C C"
_symmetry_group_IT_number 184
_symmetry_cell_setting 'hexagonal'
loop_
_space_group_symop_operation_xyz
x,y,z
x-y,x,z
-y,x-y,z
-x,-y,z
-x+y,-x,z
y,-x+y,z
-x+y,y,1/2+z
x,x-y,1/2+z
-y,-x,1/2+z
y,x,1/2+z
x-y,-y,1/2+z
-x,-x+y,1/2+z
loop_
_atom_site_type_symbol
_atom_site_label
_atom_site_fract_x
_atom_site_fract_y
_atom_site_fract_z
Si Si1 0.623422 0.060312 0.852530
Si Si2 0.991128 0.211898 0.413267
Si Si3 0.769519 0.963751 0.585150
Si Si4 0.511511 0.401992 0.686572
Si Si5 0.682708 0.458009 0.471177
Si Si6 0.818964 0.546259 0.128833
O O1 0.686068 0.994799 0.865550
O O2 0.626818 0.091929 0.768066
O O3 0.694425 0.167321 0.899691
O O4 0.500000 0.000000 0.880680
O O5 0.974480 0.227825 0.499410
O O6 0.097461 0.207836 0.392076
O O7 0.796302 0.871144 0.606564
O O8 0.663399 0.927213 0.636548
O O9 0.500000 0.500000 0.651475
O O10 0.642023 0.455789 0.684799
O O11 0.451749 0.292217 0.639415
O O12 0.567671 0.347647 0.469036
O O13 0.688467 0.518606 0.545343
#
# Coordination Sequence:
#
# PCOD8326585 Si02
#       6
#    12  12  12  12  12  12
#     4  11  26  41  64  98 138 180 229 279 351 412
#     4  10  22  41  69 100 138 176 231 287 346 404
#     4  10  21  38  64  97 130 173 220 281 337 390
#     4  11  26  42  62  96 133 177 223 269 338 416
#     4  10  22  38  62  93 125 168 223 273 337 403
#     4  12  21  42  65  93 131 176 217 274 337 404
#
# _framework density 22.214684999999999
#
# number of rings (size 3 to 8) (size 9 to 14) (size 15 to 20)
#    0.333    1.000    3.333    1.667    4.667    3.333 
#    0.000    0.000    0.000    0.000    0.000    2.333 
#    0.000    0.000    0.000    0.000    0.000    0.000 
#
# Total GULP energy -892099.024648 kJ/mol
# GULP energy per Si atom -12390.264231 kJ/mol
# Density = 2.216412 g / cm^3
# Si number density = 22.214685 Si / 1000 Ang^3
#
#
#
# Elastic Constant Matrix: (Units=GPa)
#
#
# Indices 1 2 3 4 5 6 
#
# 1 86.1810 17.7818 18.9918 0.0000 0.0000 0.0000
# 2 17.7818 86.1810 18.9918 0.0000 0.0000 0.0000
# 3 18.9918 18.9918 50.6859 0.0000 0.0000 0.0000
# 4 0.0000 0.0000 0.0000 15.3866 0.0000 0.0000
# 5 0.0000 0.0000 0.0000 0.0000 15.3866 0.0000
# 6 0.0000 0.0000 0.0000 0.0000 0.0000 34.1996
#
#
#
# Elastic Compliance Matrix: (Units=1/GPa)
#
#
# Indices 1 2 3 4 5 6 
#
# 1 0.012882 -0.001738 -0.004176 0.000000 0.000000 0.000000
# 2 -0.001738 0.012882 -0.004176 0.000000 0.000000 0.000000
# 3 -0.004176 -0.004176 0.022859 0.000000 0.000000 0.000000
# 4 0.000000 0.000000 0.000000 0.064992 0.000000 0.000000
# 5 0.000000 0.000000 0.000000 0.000000 0.064992 0.000000
# 6 0.000000 0.000000 0.000000 0.000000 0.000000 0.029240
#
#
# Mechanical properties :
#
#
# Convention : Reuss Voigt Hill
#
# Bulk Modulus (GPa) = 35.15623 37.17540 36.16582
# Shear Modulus (GPa) = 21.05203 24.14674 22.59938
#
# Velocity S-wave (km/s) = 3.08175 3.30050 3.19300
# Velocity P-wave (km/s) = 5.34069 5.59423 5.46893
#
# Compressibility (1/GPa) = 0.02844446
#
# Stress axis : x y z
#
# Youngs Moduli (GPa) = 77.62614 77.62614 43.74715
#
# Poissons Ratio (x) = 0.13490 0.18268
# Poissons Ratio (y) = 0.13490 0.18268
# Poissons Ratio (z) = 0.32415 0.32415
#
# Static dielectric constant tensor:
#      x y z
#    x 4.225920 0.000000 0.000000 
#    y 0.000000 4.225920 0.000000 
#    z 0.000000 0.000000 3.552960 
# 
# 
# High freq. dielectric constant tensor:
#      x y z
#    x 1.886290 0.000000 0.000000 
#    y 0.000000 1.886290 0.000000 
#    z 0.000000 0.000000 1.840470 
# 
# From -- ./inp_files/1099.got.cif
#   From: 2010.03.12/outbox.cif.g09.slc.cpg/sg184_cif.got.tgz:1099.got - 2010.04.01 11:54:36.
