data_PCOD8326418
_publ_section_title
;
Structure prediction by ZEFSAII (Michael W. Deem and Ramdas Pophale) SiO2 
 PCOD8326418
Probable space group: P 64 2 2
;
_chemical_formula_sum "Si O2"
_cell_formula_units_Z 42
_cell_length_a 10.612083
_cell_length_b 10.612083
_cell_length_c 19.615505
_cell_angle_alpha 90.000000
_cell_angle_beta 90.000000
_cell_angle_gamma 120.000000
_cell_volume 1913.072379
_symmetry_space_group_name_H-M "P 64 2 2"
_symmetry_group_IT_number 181
_symmetry_cell_setting 'hexagonal'
loop_
_space_group_symop_operation_xyz
x,y,z
x-y,x,2/3+z
-y,x-y,1/3+z
-x,-y,z
-x+y,-x,2/3+z
y,-x+y,1/3+z
x-y,-y,-z
-x,-x+y,2/3-z
y,x,1/3-z
-y,-x,1/3-z
-x+y,y,-z
x,x-y,2/3-z
loop_
_atom_site_type_symbol
_atom_site_label
_atom_site_fract_x
_atom_site_fract_y
_atom_site_fract_z
Si Si1 0.453566 0.834518 0.775848
Si Si2 0.032970 0.370367 0.760557
Si Si3 0.431751 0.161408 0.001734
Si Si4 0.569482 0.784741 0.333334
O O1 0.423533 0.711767 0.833334
O O2 0.577460 0.836307 0.726678
O O3 0.312025 0.780422 0.728848
O O4 0.500000 0.000000 0.802909
O O5 0.200325 0.430001 0.741702
O O6 0.000000 0.500000 0.763746
O O7 0.000000 0.289520 0.833334
O O8 0.940742 0.264332 0.699047
O O9 0.577983 0.155965 0.000000
O O10 0.293203 0.000000 0.000000
#
# Coordination Sequence:
#
# PCOD8326418 Si02
#       4
#    12  12  12   6
#     4  12  26  41  66 103 141 183 237 302 373 447
#     4  11  23  41  69  98 135 183 231 285 358 438
#     4  11  23  43  67 100 139 177 230 296 364 438
#     4  12  22  42  68  96 136 174 236 290 350 442
#
# _framework density 21.954215999999999
#
# number of rings (size 3 to 8) (size 9 to 14) (size 15 to 20)
#    0.000    0.571    7.143    0.000   12.000    0.000 
#    0.000    0.714    0.000    1.714    0.000    0.000 
#    0.000    0.000    0.000    0.000    0.000    0.000 
#
# Total GULP energy -520406.530600 kJ/mol
# GULP energy per Si atom -12390.631681 kJ/mol
# Density = 2.190425 g / cm^3
# Si number density = 21.954216 Si / 1000 Ang^3
#
#
#
# Elastic Constant Matrix: (Units=GPa)
#
#
# Indices 1 2 3 4 5 6 
#
# 1 107.7626 41.5858 51.3787 0.0000 0.0000 0.0000
# 2 41.5858 107.7626 51.3787 0.0000 0.0000 0.0000
# 3 51.3787 51.3787 148.7281 0.0000 0.0000 0.0000
# 4 0.0000 0.0000 0.0000 4.2195 0.0000 0.0000
# 5 0.0000 0.0000 0.0000 0.0000 4.2195 0.0000
# 6 0.0000 0.0000 0.0000 0.0000 0.0000 33.0884
#
#
#
# Elastic Compliance Matrix: (Units=1/GPa)
#
#
# Indices 1 2 3 4 5 6 
#
# 1 0.011947 -0.003164 -0.003034 0.000000 0.000000 0.000000
# 2 -0.003164 0.011947 -0.003034 0.000000 0.000000 0.000000
# 3 -0.003034 -0.003034 0.008820 0.000000 0.000000 0.000000
# 4 0.000000 0.000000 0.000000 0.236996 0.000000 0.000000
# 5 0.000000 0.000000 0.000000 0.000000 0.236996 0.000000
# 6 0.000000 0.000000 0.000000 0.000000 0.000000 0.030222
#
#
# Mechanical properties :
#
#
# Convention : Reuss Voigt Hill
#
# Bulk Modulus (GPa) = 70.17602 72.54885 71.36244
# Shear Modulus (GPa) = 8.92630 22.96614 15.94622
#
# Velocity S-wave (km/s) = 2.01859 3.23784 2.69799
# Velocity P-wave (km/s) = 6.12103 6.86261 6.50240
#
# Compressibility (1/GPa) = 0.01424988
#
# Stress axis : x y z
#
# Youngs Moduli (GPa) = 83.70128 83.70128 113.37759
#
# Poissons Ratio (x) = 0.26481 0.34402
# Poissons Ratio (y) = 0.26481 0.34402
# Poissons Ratio (z) = 0.25397 0.25397
#
# Static dielectric constant tensor:
#      x y z
#    x 4.135670 0.000000 0.000000 
#    y 0.000000 4.135670 0.000000 
#    z 0.000000 0.000000 4.544710 
# 
# 
# High freq. dielectric constant tensor:
#      x y z
#    x 1.848270 0.000000 0.000000 
#    y 0.000000 1.848270 0.000000 
#    z 0.000000 0.000000 1.874880 
# 
# From -- ./inp_files/7335.got.cif
#   From: 2010.03.12/outbox.cif.g09.slc.cpg/sg181_4_cif.got.tgz:7335.got - 2010.04.01 11:42:41.
