data_PCOD8326029
_publ_section_title
;
Structure prediction by ZEFSAII (Michael W. Deem and Ramdas Pophale) SiO2 
 PCOD8326029
Probable space group: P 65 2 2
;
_chemical_formula_sum "Si O2"
_cell_formula_units_Z 48
_cell_length_a 15.013205
_cell_length_b 15.013205
_cell_length_c 9.933627
_cell_angle_alpha 90.000000
_cell_angle_beta 90.000000
_cell_angle_gamma 120.000000
_cell_volume 1939.033489
_symmetry_space_group_name_H-M "P 65 2 2"
_symmetry_group_IT_number 179
_symmetry_cell_setting 'hexagonal'
loop_
_space_group_symop_operation_xyz
x,y,z
x-y,x,5/6+z
-y,x-y,2/3+z
-x,-y,1/2+z
-x+y,-x,1/3+z
y,-x+y,1/6+z
x-y,-y,-z
-x,-x+y,1/3-z
y,x,2/3-z
-y,-x,1/6-z
-x+y,y,1/2-z
x,x-y,5/6-z
loop_
_atom_site_type_symbol
_atom_site_label
_atom_site_fract_x
_atom_site_fract_y
_atom_site_fract_z
Si Si1 0.129810 0.941297 0.330629
Si Si2 0.905461 0.452731 0.916667
Si Si3 0.055694 0.375953 0.944391
Si Si4 0.742699 0.742699 0.333334
Si Si5 0.722688 0.461610 0.403545
O O1 0.242846 0.962540 0.372343
O O2 0.092053 0.854246 0.214098
O O3 0.049629 0.906279 0.450539
O O4 0.841710 0.369738 0.801035
O O5 0.976982 0.414209 0.987606
O O6 0.170061 0.468048 0.979612
O O7 0.037806 0.339270 0.787752
O O8 0.748819 0.497638 0.250000
O O9 0.684795 0.342398 0.416667
#
# Coordination Sequence:
#
# PCOD8326029 Si02
#       5
#    12   6  12   6  12
#     4  10  19  34  63 101 133 175 228 287 340 418
#     4  12  26  42  70 102 142 184 238 308 354 430
#     4  11  21  40  64 102 133 178 230 296 355 414
#     4  10  20  38  72 102 136 172 240 302 342 422
#     4  12  24  44  68 102 137 184 237 289 359 435
#
# _framework density 24.754601000000001
#
# number of rings (size 3 to 8) (size 9 to 14) (size 15 to 20)
#    0.000    1.000    2.500    9.000    0.000    0.000 
#    0.000    0.000    0.000    9.000    0.000    0.000 
#    0.000    0.000    0.000    0.000    0.000    0.000 
#
# Total GULP energy -594982.364399 kJ/mol
# GULP energy per Si atom -12395.465925 kJ/mol
# Density = 2.469826 g / cm^3
# Si number density = 24.754601 Si / 1000 Ang^3
#
#
#
# Elastic Constant Matrix: (Units=GPa)
#
#
# Indices 1 2 3 4 5 6 
#
# 1 194.0198 87.8953 24.6889 0.0000 0.0000 0.0000
# 2 87.8953 194.0198 24.6889 0.0000 0.0000 0.0000
# 3 24.6889 24.6889 65.9606 0.0000 0.0000 0.0000
# 4 0.0000 0.0000 0.0000 11.1415 0.0000 0.0000
# 5 0.0000 0.0000 0.0000 0.0000 11.1415 0.0000
# 6 0.0000 0.0000 0.0000 0.0000 0.0000 53.0622
#
#
#
# Elastic Compliance Matrix: (Units=1/GPa)
#
#
# Indices 1 2 3 4 5 6 
#
# 1 0.006609 -0.002813 -0.001421 0.000000 0.000000 0.000000
# 2 -0.002813 0.006609 -0.001421 0.000000 0.000000 0.000000
# 3 -0.001421 -0.001421 0.016224 0.000000 0.000000 0.000000
# 4 0.000000 0.000000 0.000000 0.089754 0.000000 0.000000
# 5 0.000000 0.000000 0.000000 0.000000 0.089754 0.000000
# 6 0.000000 0.000000 0.000000 0.000000 0.000000 0.018846
#
#
# Mechanical properties :
#
#
# Convention : Reuss Voigt Hill
#
# Bulk Modulus (GPa) = 55.14843 80.94958 68.04901
# Shear Modulus (GPa) = 20.39553 36.18421 28.28987
#
# Velocity S-wave (km/s) = 2.87350 3.82739 3.38422
# Velocity P-wave (km/s) = 5.77371 7.23213 6.54368
#
# Compressibility (1/GPa) = 0.01813288
#
# Stress axis : x y z
#
# Youngs Moduli (GPa) = 151.29821 151.29821 61.63633
#
# Poissons Ratio (x) = 0.42567 0.08758
# Poissons Ratio (y) = 0.42567 0.08758
# Poissons Ratio (z) = 0.21497 0.21497
#
# Static dielectric constant tensor:
#      x y z
#    x 4.656020 0.000000 0.000000 
#    y 0.000000 4.656020 0.000000 
#    z 0.000000 0.000000 4.053440 
# 
# 
# High freq. dielectric constant tensor:
#      x y z
#    x 2.006270 0.000000 0.000000 
#    y 0.000000 2.006270 0.000000 
#    z 0.000000 0.000000 1.949320 
# 
# From -- ./inp_files/4277.got.cif
#   From: 2010.03.12/outbox.cif.g09.slc.cpg/sg179_3_cif.got.tgz:4277.got - 2010.04.02 07:08:42.
