data_PCOD8326400
_publ_section_title
;
Structure prediction by ZEFSAII (Michael W. Deem and Ramdas Pophale) SiO2 
 PCOD8326400
Probable space group: P 64 2 2
;
_chemical_formula_sum "Si O2"
_cell_formula_units_Z 30
_cell_length_a 11.336464
_cell_length_b 11.336464
_cell_length_c 13.103409
_cell_angle_alpha 90.000000
_cell_angle_beta 90.000000
_cell_angle_gamma 120.000000
_cell_volume 1458.378171
_symmetry_space_group_name_H-M "P 64 2 2"
_symmetry_group_IT_number 181
_symmetry_cell_setting 'hexagonal'
loop_
_space_group_symop_operation_xyz
x,y,z
x-y,x,2/3+z
-y,x-y,1/3+z
-x,-y,z
-x+y,-x,2/3+z
y,-x+y,1/3+z
x-y,-y,-z
-x,-x+y,2/3-z
y,x,1/3-z
-y,-x,1/3-z
-x+y,y,-z
x,x-y,2/3-z
loop_
_atom_site_type_symbol
_atom_site_label
_atom_site_fract_x
_atom_site_fract_y
_atom_site_fract_z
Si Si1 0.809357 0.871716 0.447421
Si Si2 0.360245 0.869664 0.825062
Si Si3 0.659038 0.340963 0.666667
O O1 0.850236 0.925118 0.333334
O O2 0.661899 0.742201 0.457879
O O3 0.920131 0.840262 0.500000
O O4 0.810098 0.000000 0.500000
O O5 0.385586 0.796078 0.729738
O O6 0.306221 0.772236 0.923917
O O7 0.500000 0.000000 0.856914
#
# Coordination Sequence:
#
# PCOD8326400 Si02
#       3
#    12  12   6
#     4  11  25  44  69 102 137 181 230 285 345 412
#     4  11  25  43  71  98 141 179 229 289 349 412
#     4  10  25  44  64 107 130 182 234 270 352 423
#
# _framework density 20.570793999999999
#
# number of rings (size 3 to 8) (size 9 to 14) (size 15 to 20)
#    0.000    1.200    2.000    3.000   11.200    3.200 
#    0.000    4.000    0.000    0.000    0.000    0.000 
#    0.000    0.000    0.000    0.000    0.000    0.000 
#
# Total GULP energy -371967.323785 kJ/mol
# GULP energy per Si atom -12398.910793 kJ/mol
# Density = 2.052397 g / cm^3
# Si number density = 20.570794 Si / 1000 Ang^3
#
#
#
# Elastic Constant Matrix: (Units=GPa)
#
#
# Indices 1 2 3 4 5 6 
#
# 1 132.3468 63.0637 61.1833 0.0000 0.0000 0.0000
# 2 63.0637 132.3468 61.1833 0.0000 0.0000 0.0000
# 3 61.1833 61.1833 166.8245 0.0000 0.0000 0.0000
# 4 0.0000 0.0000 0.0000 21.2649 0.0000 0.0000
# 5 0.0000 0.0000 0.0000 0.0000 21.2649 0.0000
# 6 0.0000 0.0000 0.0000 0.0000 0.0000 34.6415
#
#
#
# Elastic Compliance Matrix: (Units=1/GPa)
#
#
# Indices 1 2 3 4 5 6 
#
# 1 0.010538 -0.003895 -0.002436 0.000000 0.000000 0.000000
# 2 -0.003895 0.010538 -0.002436 0.000000 0.000000 0.000000
# 3 -0.002436 -0.002436 0.007781 0.000000 0.000000 0.000000
# 4 0.000000 0.000000 0.000000 0.047026 0.000000 0.000000
# 5 0.000000 0.000000 0.000000 0.000000 0.047026 0.000000
# 6 0.000000 0.000000 0.000000 0.000000 0.000000 0.028867
#
#
# Mechanical properties :
#
#
# Convention : Reuss Voigt Hill
#
# Bulk Modulus (GPa) = 88.32267 89.15316 88.73792
# Shear Modulus (GPa) = 28.88727 31.84013 30.36370
#
# Velocity S-wave (km/s) = 3.75145 3.93852 3.84612
# Velocity P-wave (km/s) = 7.86089 8.00727 7.93442
#
# Compressibility (1/GPa) = 0.01132212
#
# Stress axis : x y z
#
# Youngs Moduli (GPa) = 94.89180 94.89180 128.51134
#
# Poissons Ratio (x) = 0.36962 0.31310
# Poissons Ratio (y) = 0.36962 0.31310
# Poissons Ratio (z) = 0.23119 0.23119
#
# Static dielectric constant tensor:
#      x y z
#    x 3.765100 0.000000 0.000000 
#    y 0.000000 3.765100 0.000000 
#    z 0.000000 0.000000 3.972640 
# 
# 
# High freq. dielectric constant tensor:
#      x y z
#    x 1.807790 0.000000 0.000000 
#    y 0.000000 1.807790 0.000000 
#    z 0.000000 0.000000 1.827280 
# 
# From -- ./inp_files/5338.got.cif
#   From: 2010.03.12/outbox.cif.g09.slc.cpg/sg181_3_cif.got.tgz:5338.got - 2010.04.01 11:42:41.
