data_PCOD8326219
_publ_section_title
;
Structure prediction by ZEFSAII (Michael W. Deem and Ramdas Pophale) SiO2 
 PCOD8326219
Probable space group: P 62 2 2
;
_chemical_formula_sum "Si O2"
_cell_formula_units_Z 33
_cell_length_a 7.841178
_cell_length_b 7.841178
_cell_length_c 25.720997
_cell_angle_alpha 90.000000
_cell_angle_beta 90.000000
_cell_angle_gamma 120.000000
_cell_volume 1369.559977
_symmetry_space_group_name_H-M "P 62 2 2"
_symmetry_group_IT_number 180
_symmetry_cell_setting 'hexagonal'
loop_
_space_group_symop_operation_xyz
x,y,z
x-y,x,1/3+z
-y,x-y,2/3+z
-x,-y,z
-x+y,-x,1/3+z
y,-x+y,2/3+z
x-y,-y,-z
-x,-x+y,1/3-z
y,x,2/3-z
-y,-x,2/3-z
-x+y,y,-z
x,x-y,1/3-z
loop_
_atom_site_type_symbol
_atom_site_label
_atom_site_fract_x
_atom_site_fract_y
_atom_site_fract_z
Si Si1 0.244956 0.244956 0.333334
Si Si2 0.000000 0.000000 0.833334
Si Si3 0.500000 0.500000 0.583466
Si Si4 0.168106 0.831895 0.333334
Si Si5 0.287143 0.921027 0.889561
O O1 0.390959 0.318109 0.284927
O O2 0.047470 0.234468 0.310403
O O3 0.811736 0.952653 0.869390
O O4 0.465949 0.315670 0.620189
O O5 0.311919 0.441704 0.545202
O O6 0.500000 0.000000 0.863569
#
# Coordination Sequence:
#
# PCOD8326219 Si02
#       5
#     6   3   6   6  12
#     4   9  19  42  66 102 130 180 225 311 360 407
#     4  12  28  50  66 106 148 192 248 304 342 448
#     4  10  22  38  66 108 132 180 236 282 358 446
#     4   9  18  32  61  98 142 158 219 288 354 419
#     4  11  25  45  74  98 146 188 240 297 367 425
#
# _framework density 24.095330000000001
#
# number of rings (size 3 to 8) (size 9 to 14) (size 15 to 20)
#    0.000    1.818    0.000    4.909   12.727    0.000 
#    0.000    1.818    0.000    0.000    0.000    0.000 
#    0.000    0.000    0.000    0.000    0.000    0.000 
#
# Total GULP energy -408808.498581 kJ/mol
# GULP energy per Si atom -12388.136321 kJ/mol
# Density = 2.404049 g / cm^3
# Si number density = 24.095330 Si / 1000 Ang^3
#
#
#
# Elastic Constant Matrix: (Units=GPa)
#
#
# Indices 1 2 3 4 5 6 
#
# 1 147.7264 80.8353 41.1541 0.0000 0.0000 0.0000
# 2 80.8353 147.7264 41.1541 0.0000 0.0000 0.0000
# 3 41.1541 41.1541 65.7024 0.0000 0.0000 0.0000
# 4 0.0000 0.0000 0.0000 27.3172 0.0000 0.0000
# 5 0.0000 0.0000 0.0000 0.0000 27.3172 0.0000
# 6 0.0000 0.0000 0.0000 0.0000 0.0000 33.4455
#
#
#
# Elastic Compliance Matrix: (Units=1/GPa)
#
#
# Indices 1 2 3 4 5 6 
#
# 1 0.010300 -0.004650 -0.003539 0.000000 0.000000 0.000000
# 2 -0.004650 0.010300 -0.003539 0.000000 0.000000 0.000000
# 3 -0.003539 -0.003539 0.019653 0.000000 0.000000 0.000000
# 4 0.000000 0.000000 0.000000 0.036607 0.000000 0.000000
# 5 0.000000 0.000000 0.000000 0.000000 0.036607 0.000000
# 6 0.000000 0.000000 0.000000 0.000000 0.000000 0.029899
#
#
# Mechanical properties :
#
#
# Convention : Reuss Voigt Hill
#
# Bulk Modulus (GPa) = 59.53279 76.38247 67.95763
# Shear Modulus (GPa) = 28.99899 30.81677 29.90788
#
# Velocity S-wave (km/s) = 3.47293 3.58012 3.52693
# Velocity P-wave (km/s) = 6.39081 6.98990 6.69706
#
# Compressibility (1/GPa) = 0.01679746
#
# Stress axis : x y z
#
# Youngs Moduli (GPa) = 97.09115 97.09115 50.88222
#
# Poissons Ratio (x) = 0.45148 0.18006
# Poissons Ratio (y) = 0.45148 0.18006
# Poissons Ratio (z) = 0.34358 0.34358
#
# Static dielectric constant tensor:
#      x y z
#    x 4.417270 0.000000 0.000000 
#    y 0.000000 4.417270 0.000000 
#    z 0.000000 0.000000 4.416770 
# 
# 
# High freq. dielectric constant tensor:
#      x y z
#    x 1.946660 0.000000 0.000000 
#    y 0.000000 1.946660 0.000000 
#    z 0.000000 0.000000 1.982000 
# 
# From -- ./inp_files/10893.got.cif
#   From: 2010.03.12/outbox.cif.g09.slc.cpg/sg180_6_cif.got.tgz:10893.got - 2010.04.01 11:35:50.
