data_PCOD8326059
_publ_section_title
;
Structure prediction by ZEFSAII (Michael W. Deem and Ramdas Pophale) SiO2 
 PCOD8326059
Probable space group: P 65 2 2
;
_chemical_formula_sum "Si O2"
_cell_formula_units_Z 78
_cell_length_a 17.784984
_cell_length_b 17.784984
_cell_length_c 14.639181
_cell_angle_alpha 90.000000
_cell_angle_beta 90.000000
_cell_angle_gamma 120.000000
_cell_volume 4010.092309
_symmetry_space_group_name_H-M "P 65 2 2"
_symmetry_group_IT_number 179
_symmetry_cell_setting 'hexagonal'
loop_
_space_group_symop_operation_xyz
x,y,z
x-y,x,5/6+z
-y,x-y,2/3+z
-x,-y,1/2+z
-x+y,-x,1/3+z
y,-x+y,1/6+z
x-y,-y,-z
-x,-x+y,1/3-z
y,x,2/3-z
-y,-x,1/6-z
-x+y,y,1/2-z
x,x-y,5/6-z
loop_
_atom_site_type_symbol
_atom_site_label
_atom_site_fract_x
_atom_site_fract_y
_atom_site_fract_z
Si Si1 0.509611 0.312040 0.067981
Si Si2 0.876012 0.333505 0.745564
Si Si3 0.321261 0.052800 0.225969
Si Si4 0.326761 0.934019 0.378450
Si Si5 0.903503 0.734607 0.654820
Si Si6 0.513741 0.513741 0.833334
Si Si7 0.264827 0.900466 0.095619
O O1 0.602493 0.397508 0.083334
O O2 0.520506 0.226939 0.059514
O O3 0.445081 0.293204 0.152057
O O4 0.459580 0.318365 0.978516
O O5 0.886510 0.302419 0.846654
O O6 0.929798 0.436171 0.730524
O O7 0.922878 0.301417 0.673195
O O8 0.264389 0.100259 0.246577
O O9 0.336313 0.014717 0.319292
O O10 0.267615 0.978195 0.152474
O O11 0.261761 0.917540 0.460978
O O12 0.414967 0.950844 0.423332
O O13 0.855084 0.710167 0.750000
O O14 0.000000 0.822417 0.666667
O O15 0.164161 0.835840 0.083334
#
# Coordination Sequence:
#
# PCOD8326059 Si02
#       7
#    12  12  12  12  12   6  12
#     4  10  21  37  59  88 128 171 208 252 329 385
#     4  11  21  36  60  90 123 164 211 271 314 376
#     4  11  21  39  63  93 123 156 219 256 312 376
#     4  11  23  39  63  91 119 167 209 269 306 385
#     4  12  23  42  65  93 123 164 209 260 315 377
#     4  12  22  38  60  86 124 164 218 260 326 374
#     4   9  19  35  61  92 123 159 205 262 319 375
#
# _framework density 19.450923
#
# number of rings (size 3 to 8) (size 9 to 14) (size 15 to 20)
#    0.000    1.231    5.385    0.923    2.154    0.000 
#    0.000    2.308   10.154    0.923    0.000    0.000 
#    0.000    0.000    0.000    0.000    0.000    0.000 
#
# Total GULP energy -966296.190565 kJ/mol
# GULP energy per Si atom -12388.412700 kJ/mol
# Density = 1.940665 g / cm^3
# Si number density = 19.450923 Si / 1000 Ang^3
#
#
#
# Elastic Constant Matrix: (Units=GPa)
#
#
# Indices 1 2 3 4 5 6 
#
# 1 110.6095 49.5467 35.2840 0.0000 0.0000 0.0000
# 2 49.5467 110.6095 35.2840 0.0000 0.0000 0.0000
# 3 35.2840 35.2840 101.4830 0.0000 0.0000 0.0000
# 4 0.0000 0.0000 0.0000 30.1568 0.0000 0.0000
# 5 0.0000 0.0000 0.0000 0.0000 30.1568 0.0000
# 6 0.0000 0.0000 0.0000 0.0000 0.0000 30.5314
#
#
#
# Elastic Compliance Matrix: (Units=1/GPa)
#
#
# Indices 1 2 3 4 5 6 
#
# 1 0.011875 -0.004502 -0.002564 0.000000 0.000000 0.000000
# 2 -0.004502 0.011875 -0.002564 0.000000 0.000000 0.000000
# 3 -0.002564 -0.002564 0.011637 0.000000 0.000000 0.000000
# 4 0.000000 0.000000 0.000000 0.033160 0.000000 0.000000
# 5 0.000000 0.000000 0.000000 0.000000 0.033160 0.000000
# 6 0.000000 0.000000 0.000000 0.000000 0.000000 0.032753
#
#
# Mechanical properties :
#
#
# Convention : Reuss Voigt Hill
#
# Bulk Modulus (GPa) = 62.00026 62.54790 62.27408
# Shear Modulus (GPa) = 31.42799 31.67481 31.55140
#
# Velocity S-wave (km/s) = 4.02401 4.03978 4.03190
# Velocity P-wave (km/s) = 7.31674 7.34754 7.33216
#
# Compressibility (1/GPa) = 0.01612896
#
# Stress axis : x y z
#
# Youngs Moduli (GPa) = 84.21024 84.21024 85.93618
#
# Poissons Ratio (x) = 0.37908 0.22031
# Poissons Ratio (y) = 0.37908 0.22031
# Poissons Ratio (z) = 0.21589 0.21589
#
# Static dielectric constant tensor:
#      x y z
#    x 3.458310 0.000000 0.000000 
#    y 0.000000 3.458310 0.000000 
#    z 0.000000 0.000000 3.751050 
# 
# 
# High freq. dielectric constant tensor:
#      x y z
#    x 1.744860 0.000000 0.000000 
#    y 0.000000 1.744860 0.000000 
#    z 0.000000 0.000000 1.775460 
# 
# From -- ./inp_files/6077.got.cif
#   From: 2010.03.12/outbox.cif.g09.slc.cpg/sg179_4_cif.got.tgz:6077.got - 2010.04.02 07:08:42.
