data_PCOD8326764
_publ_section_title
;
Structure prediction by ZEFSAII (Michael W. Deem and Ramdas Pophale) SiO2 
 PCOD8326764
Probable space group: P 63 M C
;
_chemical_formula_sum "Si O2"
_cell_formula_units_Z 42
_cell_length_a 25.254721
_cell_length_b 25.254721
_cell_length_c 5.022539
_cell_angle_alpha 90.000000
_cell_angle_beta 90.000000
_cell_angle_gamma 120.000000
_cell_volume 2774.208509
_symmetry_space_group_name_H-M "P 63 M C"
_symmetry_group_IT_number 186
_symmetry_cell_setting 'hexagonal'
loop_
_space_group_symop_operation_xyz
x,y,z
x-y,x,1/2+z
-y,x-y,z
-x,-y,1/2+z
-x+y,-x,z
y,-x+y,1/2+z
-x+y,y,z
x,x-y,z
-y,-x,z
y,x,1/2+z
x-y,-y,1/2+z
-x,-x+y,1/2+z
loop_
_atom_site_type_symbol
_atom_site_label
_atom_site_fract_x
_atom_site_fract_y
_atom_site_fract_z
Si Si1 0.518348 0.481653 0.750000
Si Si2 0.958569 0.594527 0.648278
Si Si3 0.787962 0.332054 0.240667
Si Si4 0.828277 0.291230 0.747375
O O1 0.487369 0.512631 0.567165
O O2 0.479553 0.410693 0.667225
O O3 0.895779 0.595917 0.686599
O O4 0.989668 0.622104 0.366796
O O5 0.799300 0.399650 0.204154
O O6 0.716692 0.283309 0.187391
O O7 0.807230 0.324059 0.533602
O O8 0.829794 0.320886 0.032531
O O9 0.781583 0.218418 0.748347
#
# Coordination Sequence:
#
# PCOD8326764 Si02
#       4
#     6  12  12  12
#     4   8  16  26  38  58  80  98 124 156 194 236
#     4  10  19  32  46  64  84 106 133 167 206 247
#     4  10  20  32  46  61  80 107 138 171 207 252
#     4  10  21  34  47  65  84 107 135 167 211 252
#
# _framework density 15.139455
#
# number of rings (size 3 to 8) (size 9 to 14) (size 15 to 20)
#    0.000    2.286    0.000    2.857    4.000    0.000 
#    5.143    2.857    0.000    0.000    0.000    0.000 
#    0.000    0.000    0.000    0.000    0.000    0.000 
#
# Total GULP energy -520506.108101 kJ/mol
# GULP energy per Si atom -12393.002574 kJ/mol
# Density = 1.510500 g / cm^3
# Si number density = 15.139455 Si / 1000 Ang^3
#
#
#
# Elastic Constant Matrix: (Units=GPa)
#
#
# Indices 1 2 3 4 5 6 
#
# 1 46.3132 25.4740 0.0089 0.0000 0.0000 0.0000
# 2 25.4740 46.3132 0.0089 0.0000 0.0000 0.0000
# 3 0.0089 0.0089 55.2775 0.0000 0.0000 0.0000
# 4 0.0000 0.0000 0.0000 15.0381 0.0000 0.0000
# 5 0.0000 0.0000 0.0000 0.0000 15.0381 0.0000
# 6 0.0000 0.0000 0.0000 0.0000 0.0000 10.4196
#
#
#
# Elastic Compliance Matrix: (Units=1/GPa)
#
#
# Indices 1 2 3 4 5 6 
#
# 1 0.030958 -0.017028 -0.000002 0.000000 0.000000 0.000000
# 2 -0.017028 0.030958 -0.000002 0.000000 0.000000 0.000000
# 3 -0.000002 -0.000002 0.018091 0.000000 0.000000 0.000000
# 4 0.000000 0.000000 0.000000 0.066498 0.000000 0.000000
# 5 0.000000 0.000000 0.000000 0.000000 0.066498 0.000000
# 6 0.000000 0.000000 0.000000 0.000000 0.000000 0.095973
#
#
# Mechanical properties :
#
#
# Convention : Reuss Voigt Hill
#
# Bulk Modulus (GPa) = 21.76675 22.09864 21.93270
# Shear Modulus (GPa) = 13.95263 16.25995 15.10629
#
# Velocity S-wave (km/s) = 3.03909 3.28077 3.16224
# Velocity P-wave (km/s) = 5.16948 5.38328 5.27746
#
# Compressibility (1/GPa) = 0.04594163
#
# Stress axis : x y z
#
# Youngs Moduli (GPa) = 32.30150 32.30150 55.27752
#
# Poissons Ratio (x) = 0.55004 0.00012
# Poissons Ratio (y) = 0.55004 0.00012
# Poissons Ratio (z) = 0.00007 0.00007
#
# Static dielectric constant tensor:
#      x y z
#    x 2.713340 0.000000 0.000000 
#    y 0.000000 2.713340 0.000000 
#    z 0.000000 0.000000 3.100560 
# 
# 
# High freq. dielectric constant tensor:
#      x y z
#    x 1.538280 0.000000 0.000000 
#    y 0.000000 1.538280 0.000000 
#    z 0.000000 0.000000 1.607650 
# 
# From -- ./inp_files/34.got.cif
#   From: 2010.03.12/outbox.cif.g09.slc.cpg/sg186_1_cif.got.tgz:34.got - 2010.04.01 11:56:34.
