data_PCOD8326628
_publ_section_title
;
Structure prediction by ZEFSAII (Michael W. Deem and Ramdas Pophale) SiO2 
 PCOD8326628
Probable space group: P 63 C M
;
_chemical_formula_sum "Si O2"
_cell_formula_units_Z 84
_cell_length_a 14.640453
_cell_length_b 14.640453
_cell_length_c 24.475202
_cell_angle_alpha 90.000000
_cell_angle_beta 90.000000
_cell_angle_gamma 120.000000
_cell_volume 4543.242789
_symmetry_space_group_name_H-M "P 63 C M"
_symmetry_group_IT_number 185
_symmetry_cell_setting 'hexagonal'
loop_
_space_group_symop_operation_xyz
x,y,z
x-y,x,1/2+z
-y,x-y,z
-x,-y,1/2+z
-x+y,-x,z
y,-x+y,1/2+z
-x+y,y,1/2+z
x,x-y,1/2+z
-y,-x,1/2+z
y,x,z
x-y,-y,z
-x,-x+y,z
loop_
_atom_site_type_symbol
_atom_site_label
_atom_site_fract_x
_atom_site_fract_y
_atom_site_fract_z
Si Si1 0.122586 0.246815 0.367760
Si Si2 0.880542 0.761030 0.242519
Si Si3 0.610351 0.879767 0.452466
Si Si4 0.877827 0.441251 0.515637
Si Si5 0.420775 0.543727 0.636438
Si Si6 0.808828 0.230774 0.660170
Si Si7 0.761990 0.119662 0.037740
O O1 0.168855 0.168855 0.379617
O O2 0.133580 0.279491 0.304552
O O3 0.188142 0.357834 0.401393
O O4 0.000000 0.186737 0.385760
O O5 0.804715 0.804715 0.222045
O O6 0.868439 0.665409 0.205828
O O7 0.000000 0.856563 0.238452
O O8 0.484431 0.829226 0.468319
O O9 0.670322 0.869106 0.506217
O O10 0.655177 0.000000 0.437193
O O11 0.828101 0.439751 0.575168
O O12 0.862571 0.326070 0.505759
O O13 0.000000 0.528492 0.519047
O O14 0.503823 0.503823 0.633695
O O15 0.477989 0.653331 0.669700
O O16 0.314656 0.461030 0.666835
O O17 0.855237 0.227859 0.601383
O O18 0.735356 0.000000 0.030686
#
# Coordination Sequence:
#
# PCOD8326628 Si02
#       7
#    12  12  12  12  12  12  12
#     4   9  18  32  53  77 103 135 175 218 261 314
#     4  10  20  35  55  79 107 141 181 222 266 322
#     4  10  18  31  51  74 102 135 173 215 263 317
#     4   8  16  30  45  67  97 128 161 202 250 305
#     4  10  19  32  49  74 104 132 169 214 259 311
#     4  11  20  33  53  76 103 139 178 219 270 318
#     4  10  19  31  49  75 107 136 169 214 266 323
#
# _framework density 18.488996
#
# number of rings (size 3 to 8) (size 9 to 14) (size 15 to 20)
#    0.000    2.286    1.429    3.571    0.000    1.714 
#    0.857    0.000    3.143    0.286    0.000    0.000 
#    0.000    0.000    0.000    0.000    0.000    0.000 
#
# Total GULP energy -1040807.467351 kJ/mol
# GULP energy per Si atom -12390.565088 kJ/mol
# Density = 1.844691 g / cm^3
# Si number density = 18.488996 Si / 1000 Ang^3
#
#
#
# Elastic Constant Matrix: (Units=GPa)
#
#
# Indices 1 2 3 4 5 6 
#
# 1 60.2261 14.6724 32.7364 0.0000 0.0000 0.0000
# 2 14.6724 60.2261 32.7364 0.0000 0.0000 0.0000
# 3 32.7364 32.7364 76.8739 0.0000 0.0000 0.0000
# 4 0.0000 0.0000 0.0000 30.1434 0.0000 0.0000
# 5 0.0000 0.0000 0.0000 0.0000 30.1434 0.0000
# 6 0.0000 0.0000 0.0000 0.0000 0.0000 22.7769
#
#
#
# Elastic Compliance Matrix: (Units=1/GPa)
#
#
# Indices 1 2 3 4 5 6 
#
# 1 0.021610 -0.000342 -0.009057 0.000000 0.000000 0.000000
# 2 -0.000342 0.021610 -0.009057 0.000000 0.000000 0.000000
# 3 -0.009057 -0.009057 0.020722 0.000000 0.000000 0.000000
# 4 0.000000 0.000000 0.000000 0.033175 0.000000 0.000000
# 5 0.000000 0.000000 0.000000 0.000000 0.033175 0.000000
# 6 0.000000 0.000000 0.000000 0.000000 0.000000 0.043904
#
#
# Mechanical properties :
#
#
# Convention : Reuss Voigt Hill
#
# Bulk Modulus (GPa) = 36.99459 39.73518 38.36489
# Shear Modulus (GPa) = 22.71494 24.42479 23.56987
#
# Velocity S-wave (km/s) = 3.50889 3.63856 3.57431
# Velocity P-wave (km/s) = 6.03894 6.26020 6.15057
#
# Compressibility (1/GPa) = 0.02703098
#
# Stress axis : x y z
#
# Youngs Moduli (GPa) = 46.27393 46.27393 48.25729
#
# Poissons Ratio (x) = 0.01581 0.43708
# Poissons Ratio (y) = 0.01581 0.43708
# Poissons Ratio (z) = 0.41911 0.41911
#
# Static dielectric constant tensor:
#      x y z
#    x 3.435500 0.000000 0.000000 
#    y 0.000000 3.435500 0.000000 
#    z 0.000000 0.000000 3.253850 
# 
# 
# High freq. dielectric constant tensor:
#      x y z
#    x 1.713630 0.000000 0.000000 
#    y 0.000000 1.713630 0.000000 
#    z 0.000000 0.000000 1.686380 
# 
# From -- ./inp_files/2070.got.cif
#   From: 2010.03.12/outbox.cif.g09.slc.cpg/sg185_cif.got.tgz:2070.got - 2010.04.01 11:55:19.
