data_PCOD8326891
_publ_section_title
;
Structure prediction by ZEFSAII (Michael W. Deem and Ramdas Pophale) SiO2 
 PCOD8326891
Probable space group: P -6 M 2
;
_chemical_formula_sum "Si O2"
_cell_formula_units_Z 78
_cell_length_a 21.594936
_cell_length_b 21.594936
_cell_length_c 15.628251
_cell_angle_alpha 90.000000
_cell_angle_beta 90.000000
_cell_angle_gamma 120.000000
_cell_volume 6311.678252
_symmetry_space_group_name_H-M "P -6 M 2"
_symmetry_group_IT_number 187
_symmetry_cell_setting 'hexagonal'
loop_
_space_group_symop_operation_xyz
x,y,z
-x+y,-x,-z
-y,x-y,z
x,y,-z
-x+y,-x,z
-y,x-y,-z
-y,-x,-z
-x+y,y,-z
x,x-y,-z
-x+y,y,z
x,x-y,z
-y,-x,z
loop_
_atom_site_type_symbol
_atom_site_label
_atom_site_fract_x
_atom_site_fract_y
_atom_site_fract_z
Si Si1 0.999324 0.145672 0.246608
Si Si2 0.333990 0.531098 0.400189
Si Si3 0.332938 0.517901 0.000000
Si Si4 0.049334 0.244837 0.093547
Si Si5 0.119760 0.733080 0.674147
Si Si6 0.046697 0.806286 0.596146
Si Si7 0.126851 0.726237 0.134700
O O1 0.931450 0.068551 0.235965
O O2 0.068824 0.137647 0.240239
O O3 0.998177 0.196077 0.170253
O O4 0.995499 0.177705 0.338803
O O5 0.334971 0.543508 0.500000
O O6 0.268942 0.537884 0.358254
O O7 0.408214 0.591787 0.358821
O O8 0.322594 0.452900 0.383307
O O9 0.330483 0.470588 0.917847
O O10 0.406858 0.593143 0.000000
O O11 0.266447 0.532894 0.000000
O O12 0.123946 0.247891 0.106647
O O13 0.063809 0.325930 0.096397
O O14 0.015918 0.212323 0.000000
O O15 0.189352 0.810649 0.675753
O O16 0.055729 0.741120 0.633048
O O17 0.102713 0.699551 0.768734
O O18 0.013457 0.787849 0.500000
O O19 0.123094 0.876907 0.592416
O O20 0.199696 0.800305 0.131228
#
# Coordination Sequence:
#
# PCOD8326891 Si02
#       7
#    12  12   6  12  12  12  12
#     4  10  19  29  40  56  77  97 116 143 185 235
#     4   9  16  24  33  46  66  90 113 141 183 230
#     4  10  19  28  38  54  77 100 122 152 194 238
#     4   9  15  26  43  57  68  88 118 148 177 213
#     4   9  15  24  38  53  65  82 116 156 184 210
#     4   9  16  26  40  55  70  91 121 153 182 217
#     4   9  15  25  40  53  65  88 120 148 176 214
#
# _framework density 12.358044
#
# number of rings (size 3 to 8) (size 9 to 14) (size 15 to 20)
#    0.000    2.769    2.308    0.846    0.000    3.692 
#    0.000    0.000    0.000    3.692    0.000    0.000 
#    0.000    0.000    0.000    0.000    0.000    0.000 
#
# Total GULP energy -966391.627048 kJ/mol
# GULP energy per Si atom -12389.636244 kJ/mol
# Density = 1.232992 g / cm^3
# Si number density = 12.358044 Si / 1000 Ang^3
#
#
#
# Elastic Constant Matrix: (Units=GPa)
#
#
# Indices 1 2 3 4 5 6 
#
# 1 46.1341 25.6635 25.9925 0.0000 -0.0002 0.0000
# 2 25.6635 46.1341 25.9925 0.0000 0.0002 0.0000
# 3 25.9925 25.9925 90.1153 0.0000 0.0000 0.0000
# 4 0.0000 0.0000 0.0000 13.6114 0.0000 0.0002
# 5 -0.0002 0.0002 0.0000 0.0000 13.6114 0.0000
# 6 0.0000 0.0000 0.0000 0.0002 0.0000 10.2353
#
#
#
# Elastic Compliance Matrix: (Units=1/GPa)
#
#
# Indices 1 2 3 4 5 6 
#
# 1 0.033228 -0.015623 -0.005078 0.000000 0.000001 0.000000
# 2 -0.015623 0.033228 -0.005078 0.000000 -0.000001 0.000000
# 3 -0.005078 -0.005078 0.014026 0.000000 0.000000 0.000000
# 4 0.000000 0.000000 0.000000 0.073468 0.000000 -0.000001
# 5 0.000001 -0.000001 0.000000 0.000000 0.073468 0.000000
# 6 0.000000 0.000000 0.000000 -0.000001 0.000000 0.097701
#
#
# Mechanical properties :
#
#
# Convention : Reuss Voigt Hill
#
# Bulk Modulus (GPa) = 34.57319 37.52008 36.04664
# Shear Modulus (GPa) = 12.94276 14.47397 13.70836
#
# Velocity S-wave (km/s) = 3.23974 3.42602 3.33418
# Velocity P-wave (km/s) = 6.48317 6.78800 6.63733
#
# Compressibility (1/GPa) = 0.02892415
#
# Stress axis : x y z
#
# Youngs Moduli (GPa) = 30.09547 30.09547 71.29541
#
# Poissons Ratio (x) = 0.47018 0.36203
# Poissons Ratio (y) = 0.47018 0.36203
# Poissons Ratio (z) = 0.15282 0.15282
#
# Static dielectric constant tensor:
#      x y z
#    x 2.308660 0.000000 0.000000 
#    y 0.000000 2.308660 0.000000 
#    z 0.000000 0.000000 2.797020 
# 
# 
# High freq. dielectric constant tensor:
#      x y z
#    x 1.427370 0.000000 0.000000 
#    y 0.000000 1.427370 0.000000 
#    z 0.000000 0.000000 1.487080 
# 
# From -- ./inp_files/2694.got.cif
#   From: 2010.03.12/outbox.cif.g09.slc.cpg/sg187_2_cif.got.tgz:2694.got - 2010.04.01 11:58:23.
