data_PCOD8326540
_publ_section_title
;
Structure prediction by ZEFSAII (Michael W. Deem and Ramdas Pophale) SiO2 
 PCOD8326540
Probable space group: P 6 M M
;
_chemical_formula_sum "Si O2"
_cell_formula_units_Z 96
_cell_length_a 17.772770
_cell_length_b 17.772770
_cell_length_c 20.364061
_cell_angle_alpha 90.000000
_cell_angle_beta 90.000000
_cell_angle_gamma 120.000000
_cell_volume 5570.642168
_symmetry_space_group_name_H-M "P 6 M M"
_symmetry_group_IT_number 183
_symmetry_cell_setting 'hexagonal'
loop_
_space_group_symop_operation_xyz
x,y,z
x-y,x,z
-y,x-y,z
-x,-y,z
-x+y,-x,z
y,-x+y,z
-x+y,y,z
x,x-y,z
-y,-x,z
y,x,z
x-y,-y,z
-x,-x+y,z
loop_
_atom_site_type_symbol
_atom_site_label
_atom_site_fract_x
_atom_site_fract_y
_atom_site_fract_z
Si Si1 0.102533 0.635025 0.675460
Si Si2 0.508951 0.840450 0.055091
Si Si3 0.643187 0.903135 0.560844
Si Si4 0.836671 0.330748 0.816163
Si Si5 0.732348 0.634741 0.412528
Si Si6 0.270007 0.367790 0.932856
Si Si7 0.270265 0.901888 0.177297
Si Si8 0.492564 0.160600 0.298524
O O1 0.137923 0.568962 0.663162
O O2 0.132618 0.697764 0.612838
O O3 0.143023 0.687132 0.742548
O O4 0.000000 0.584417 0.683093
O O5 0.426959 0.853917 0.055647
O O6 0.476173 0.738087 0.056798
O O7 0.567440 0.887808 0.117777
O O8 0.564196 0.884249 0.990401
O O9 0.688004 0.844002 0.565100
O O10 0.604512 0.896921 0.488050
O O11 0.717756 0.000000 0.578213
O O12 0.858234 0.429117 0.825713
O O13 0.735298 0.264703 0.831622
O O14 0.895757 0.311676 0.864746
O O15 0.834416 0.668832 0.398147
O O16 0.712596 0.712596 0.396571
O O17 0.672381 0.550303 0.369019
O O18 0.166506 0.333011 0.936045
O O19 0.286111 0.286111 0.939313
O O20 0.166729 0.833272 0.173532
O O21 0.310938 0.890835 0.244055
O O22 0.286524 0.000000 0.174456
O O23 0.572539 0.145078 0.287222
O O24 0.526325 0.263163 0.294413
#
# Coordination Sequence:
#
# PCOD8326540 Si02
#       8
#    12  12  12  12  12  12  12  12
#     4   9  17  28  43  64  89 118 153 192 229 265
#     4  10  20  33  50  73 102 134 165 195 228 268
#     4   9  17  30  47  66  89 117 151 189 230 276
#     4  10  19  30  45  66  94 126 158 190 224 264
#     4   9  18  31  47  67  90 118 151 189 232 275
#     4  10  21  35  51  71  94 122 155 193 236 279
#     4  10  21  35  51  72  97 126 159 197 240 281
#     4  10  20  33  49  70  97 127 157 188 224 267
#
# _framework density 17.233201000000001
#
# number of rings (size 3 to 8) (size 9 to 14) (size 15 to 20)
#    0.000    2.375    0.000    2.625    0.000    4.250 
#    0.000    3.750    0.000    0.750    0.000    1.750 
#    0.000    6.000    0.000    4.125    0.000    3.250 
#
# Total GULP energy -1190222.995814 kJ/mol
# GULP energy per Si atom -12398.156206 kJ/mol
# Density = 1.719398 g / cm^3
# Si number density = 17.233201 Si / 1000 Ang^3
#
#
#
# Elastic Constant Matrix: (Units=GPa)
#
#
# Indices 1 2 3 4 5 6 
#
# 1 93.5063 61.8041 41.3442 0.0000 0.0000 0.0000
# 2 61.8041 93.5063 41.3442 0.0000 0.0000 0.0000
# 3 41.3442 41.3442 100.3506 0.0000 0.0000 0.0000
# 4 0.0000 0.0000 0.0000 20.4461 0.0000 0.0000
# 5 0.0000 0.0000 0.0000 0.0000 20.4461 0.0000
# 6 0.0000 0.0000 0.0000 0.0000 0.0000 15.8511
#
#
#
# Elastic Compliance Matrix: (Units=1/GPa)
#
#
# Indices 1 2 3 4 5 6 
#
# 1 0.019896 -0.011648 -0.003398 0.000000 0.000000 0.000000
# 2 -0.011648 0.019896 -0.003398 0.000000 0.000000 0.000000
# 3 -0.003398 -0.003398 0.012765 0.000000 0.000000 0.000000
# 4 0.000000 0.000000 0.000000 0.048909 0.000000 0.000000
# 5 0.000000 0.000000 0.000000 0.000000 0.048909 0.000000
# 6 0.000000 0.000000 0.000000 0.000000 0.000000 0.063087
#
#
# Mechanical properties :
#
#
# Convention : Reuss Voigt Hill
#
# Bulk Modulus (GPa) = 63.82257 64.03867 63.93062
# Shear Modulus (GPa) = 19.56391 20.87338 20.21864
#
# Velocity S-wave (km/s) = 3.37300 3.48405 3.42897
# Velocity P-wave (km/s) = 7.23080 7.30928 7.27015
#
# Compressibility (1/GPa) = 0.01566844
#
# Stress axis : x y z
#
# Youngs Moduli (GPa) = 50.26201 50.26201 78.33865
#
# Poissons Ratio (x) = 0.58544 0.26620
# Poissons Ratio (y) = 0.58544 0.26620
# Poissons Ratio (z) = 0.17080 0.17080
#
# Static dielectric constant tensor:
#      x y z
#    x 3.143490 0.000000 0.000000 
#    y 0.000000 3.143490 0.000000 
#    z 0.000000 0.000000 3.483730 
# 
# 
# High freq. dielectric constant tensor:
#      x y z
#    x 1.648630 0.000000 0.000000 
#    y 0.000000 1.648630 0.000000 
#    z 0.000000 0.000000 1.687010 
# 
# From -- ./inp_files/3072.got.cif
#   From: 2010.03.12/outbox.cif.g09.slc.cpg/sg183_2_cif.got.tgz:3072.got - 2010.04.01 11:53:02.
