data_PCOD8326941
_publ_section_title
;
Structure prediction by ZEFSAII (Michael W. Deem and Ramdas Pophale) SiO2 
 PCOD8326941
Probable space group: P -6 M 2
;
_chemical_formula_sum "Si O2"
_cell_formula_units_Z 96
_cell_length_a 22.073873
_cell_length_b 22.073873
_cell_length_c 14.663204
_cell_angle_alpha 90.000000
_cell_angle_beta 90.000000
_cell_angle_gamma 120.000000
_cell_volume 6187.519598
_symmetry_space_group_name_H-M "P -6 M 2"
_symmetry_group_IT_number 187
_symmetry_cell_setting 'hexagonal'
loop_
_space_group_symop_operation_xyz
x,y,z
-x+y,-x,-z
-y,x-y,z
x,y,-z
-x+y,-x,z
-y,x-y,-z
-y,-x,-z
-x+y,y,-z
x,x-y,-z
-x+y,y,z
x,x-y,z
-y,-x,z
loop_
_atom_site_type_symbol
_atom_site_label
_atom_site_fract_x
_atom_site_fract_y
_atom_site_fract_z
Si Si1 0.722369 0.135388 0.749519
Si Si2 0.526918 0.193334 0.394479
Si Si3 0.064111 0.400285 0.107883
Si Si4 0.059091 0.259908 0.106815
Si Si5 0.198857 0.666715 0.890964
Si Si6 0.253132 0.055472 0.751218
Si Si7 0.468348 0.078292 0.106737
Si Si8 0.860213 0.860383 0.605396
O O1 0.795098 0.204903 0.760697
O O2 0.681302 0.138567 0.660110
O O3 0.737286 0.070337 0.742772
O O4 0.677390 0.133536 0.837381
O O5 0.509858 0.173791 0.500000
O O6 0.593256 0.186511 0.362970
O O7 0.545562 0.272781 0.375677
O O8 0.069597 0.333952 0.140092
O O9 0.129467 0.468000 0.150637
O O10 0.996103 0.402141 0.141139
O O11 0.067689 0.404504 0.000000
O O12 0.127831 0.255662 0.131158
O O13 0.992217 0.203154 0.162334
O O14 0.041651 0.246961 0.000000
O O15 0.205255 0.602628 0.852588
O O16 0.263312 0.736689 0.852293
O O17 0.197873 0.666597 0.000000
O O18 0.254893 0.127447 0.767154
O O19 0.209325 0.016190 0.660806
O O20 0.542413 0.084826 0.130427
O O21 0.462849 0.090620 0.000000
O O22 0.839985 0.842700 0.500000
O O23 0.852508 0.926254 0.636828
O O24 0.940153 0.880306 0.623037
#
# Coordination Sequence:
#
# PCOD8326941 Si02
#       8
#    12  12  12  12  12  12  12  12
#     4  10  20  32  46  66  92 120 150 186 227 271
#     4   9  17  30  49  71  93 117 146 181 222 270
#     4   9  16  27  41  59  80 106 141 181 221 257
#     4  10  19  31  47  65  87 117 154 193 227 263
#     4   9  15  22  33  51  76 104 133 167 210 258
#     4  10  20  32  46  66  92 120 150 186 227 271
#     4  10  19  31  47  65  87 117 154 193 227 263
#     4   9  17  30  49  71  93 117 146 181 222 270
#
# _framework density 15.515102000000001
#
# number of rings (size 3 to 8) (size 9 to 14) (size 15 to 20)
#    0.000    2.500    1.250    1.875    0.000    5.500 
#    0.000    3.750    0.000    0.500    0.000    0.000 
#    0.000    0.000    0.000    0.000    0.000    0.000 
#
# Total GULP energy -1190029.100339 kJ/mol
# GULP energy per Si atom -12396.136462 kJ/mol
# Density = 1.547979 g / cm^3
# Si number density = 15.515102 Si / 1000 Ang^3
#
#
#
# Elastic Constant Matrix: (Units=GPa)
#
#
# Indices 1 2 3 4 5 6 
#
# 1 70.0141 28.1908 38.7013 0.0000 0.0000 0.0000
# 2 28.1908 70.0141 38.7013 0.0000 0.0000 0.0000
# 3 38.7013 38.7013 58.7814 0.0000 0.0000 0.0000
# 4 0.0000 0.0000 0.0000 20.8057 0.0000 0.0000
# 5 0.0000 0.0000 0.0000 0.0000 20.8057 0.0000
# 6 0.0000 0.0000 0.0000 0.0000 0.0000 20.9117
#
#
#
# Elastic Compliance Matrix: (Units=1/GPa)
#
#
# Indices 1 2 3 4 5 6 
#
# 1 0.022538 -0.001372 -0.013936 0.000000 0.000000 0.000000
# 2 -0.001372 0.022538 -0.013936 0.000000 0.000000 0.000000
# 3 -0.013936 -0.013936 0.035363 0.000000 0.000000 0.000000
# 4 0.000000 0.000000 0.000000 0.048064 0.000000 0.000000
# 5 0.000000 0.000000 0.000000 0.000000 0.048064 0.000000
# 6 0.000000 0.000000 0.000000 0.000000 0.000000 0.047820
#
#
# Mechanical properties :
#
#
# Convention : Reuss Voigt Hill
#
# Bulk Modulus (GPa) = 45.55324 45.55514 45.55419
# Shear Modulus (GPa) = 17.22992 18.71904 17.97448
#
# Velocity S-wave (km/s) = 3.33607 3.47725 3.40739
# Velocity P-wave (km/s) = 6.65308 6.74887 6.70114
#
# Compressibility (1/GPa) = 0.02195234
#
# Stress axis : x y z
#
# Youngs Moduli (GPa) = 44.36858 44.36858 28.27809
#
# Poissons Ratio (x) = 0.06086 0.39409
# Poissons Ratio (y) = 0.06086 0.39409
# Poissons Ratio (z) = 0.61833 0.61833
#
# Static dielectric constant tensor:
#      x y z
#    x 3.086140 0.000000 0.000000 
#    y 0.000000 3.086140 0.000000 
#    z 0.000000 0.000000 2.713970 
# 
# 
# High freq. dielectric constant tensor:
#      x y z
#    x 1.600170 0.000000 0.000000 
#    y 0.000000 1.600170 0.000000 
#    z 0.000000 0.000000 1.557970 
# 
# From -- ./inp_files/3326.got.cif
#   From: 2010.03.12/outbox.cif.g09.slc.cpg/sg187_2_cif.got.tgz:3326.got - 2010.04.01 11:58:23.
