data_PCOD8326118
_publ_section_title
;
Structure prediction by ZEFSAII (Michael W. Deem and Ramdas Pophale) SiO2 
 PCOD8326118
Probable space group: P 65 2 2
;
_chemical_formula_sum "Si O2"
_cell_formula_units_Z 42
_cell_length_a 13.543216
_cell_length_b 13.543216
_cell_length_c 11.789165
_cell_angle_alpha 90.000000
_cell_angle_beta 90.000000
_cell_angle_gamma 120.000000
_cell_volume 1872.652902
_symmetry_space_group_name_H-M "P 65 2 2"
_symmetry_group_IT_number 179
_symmetry_cell_setting 'hexagonal'
loop_
_space_group_symop_operation_xyz
x,y,z
x-y,x,5/6+z
-y,x-y,2/3+z
-x,-y,1/2+z
-x+y,-x,1/3+z
y,-x+y,1/6+z
x-y,-y,-z
-x,-x+y,1/3-z
y,x,2/3-z
-y,-x,1/6-z
-x+y,y,1/2-z
x,x-y,5/6-z
loop_
_atom_site_type_symbol
_atom_site_label
_atom_site_fract_x
_atom_site_fract_y
_atom_site_fract_z
Si Si1 0.119991 0.758531 0.195969
Si Si2 0.201331 0.058908 0.635869
Si Si3 0.405559 0.590280 0.215613
Si Si4 0.000000 0.640964 0.666667
O O1 0.093085 0.839491 0.274305
O O2 0.191896 0.708614 0.252814
O O3 0.000000 0.648568 0.166667
O O4 0.177885 0.822116 0.083334
O O5 0.155740 0.098898 0.526343
O O6 0.307905 0.043474 0.599365
O O7 0.307691 0.615381 0.250000
O O8 0.380980 0.477829 0.283474
O O9 0.421913 0.578088 0.083334
#
# Coordination Sequence:
#
# PCOD8326118 Si02
#       4
#    12  12  12   6
#     4  12  25  47  73 107 146 193 247 307 371 441
#     4  12  26  49  72 108 150 196 247 305 375 447
#     4  12  26  48  76 110 147 194 249 306 372 444
#     4  12  26  48  74 104 150 192 244 310 370 442
#
# _framework density 22.428073999999999
#
# number of rings (size 3 to 8) (size 9 to 14) (size 15 to 20)
#    0.000    0.000    4.286    6.857    0.000    0.000 
#   12.857    0.000    0.000    0.000    0.000    0.000 
#    0.000    0.000    0.000    0.000    0.000    0.000 
#
# Total GULP energy -520797.737398 kJ/mol
# GULP energy per Si atom -12399.946129 kJ/mol
# Density = 2.237703 g / cm^3
# Si number density = 22.428074 Si / 1000 Ang^3
#
#
#
# Elastic Constant Matrix: (Units=GPa)
#
#
# Indices 1 2 3 4 5 6 
#
# 1 -148.0834 297.0440 39.3725 0.0000 0.0000 -0.0001
# 2 297.0440 -148.0834 39.3725 0.0000 0.0000 0.0001
# 3 39.3725 39.3725 142.1963 0.0000 0.0000 0.0000
# 4 0.0000 0.0000 0.0000 62.0506 0.0000 0.0000
# 5 0.0000 0.0000 0.0000 0.0000 62.0506 0.0000
# 6 -0.0001 0.0001 0.0000 0.0000 0.0000 -222.5636
#
#
#
# Elastic Compliance Matrix: (Units=1/GPa)
#
#
# Indices 1 2 3 4 5 6 
#
# 1 0.002809 0.005055 -0.002178 0.000000 0.000000 0.000000
# 2 0.005055 0.002809 -0.002178 0.000000 0.000000 0.000000
# 3 -0.002178 -0.002178 0.008238 0.000000 0.000000 0.000000
# 4 0.000000 0.000000 0.000000 0.016116 0.000000 0.000000
# 5 0.000000 0.000000 0.000000 0.000000 0.016116 0.000000
# 6 0.000000 0.000000 0.000000 0.000000 0.000000 -0.004493
#
#
# Mechanical properties :
#
#
# Convention : Reuss Voigt Hill
#
# Bulk Modulus (GPa) = 65.54431 66.40085 65.97258
# Shear Modulus (GPa) = 110.42472 -55.00978 27.70747
#
# Velocity S-wave (km/s) = 7.02438 -4.95787 3.51863
# Velocity P-wave (km/s) = 9.75074 1.76168 6.78135
#
# Compressibility (1/GPa) = 0.01525685
#
# Stress axis : x y z
#
# Youngs Moduli (GPa) = 356.01494 356.01494 121.38283
#
# Poissons Ratio (x) = -1.79980 0.26431
# Poissons Ratio (y) = -1.79980 0.26431
# Poissons Ratio (z) = 0.77523 0.77523
#
# Static dielectric constant tensor:
#      x y z
#    x 4.019010 0.000000 0.000000 
#    y 0.000000 4.019010 0.000000 
#    z 0.000000 0.000000 4.263270 
# 
# 
# High freq. dielectric constant tensor:
#      x y z
#    x 1.898160 0.000000 0.000000 
#    y 0.000000 1.898160 0.000000 
#    z 0.000000 0.000000 1.904620 
# 
# From -- ./inp_files/4087.got.cif
#   From: 2010.03.12/outbox.cif.g09.slc.cpg/sg179_3_cif.got.tgz:4087.got - 2010.04.02 07:08:42.
