data_PCOD8326695
_publ_section_title
;
Structure prediction by ZEFSAII (Michael W. Deem and Ramdas Pophale) SiO2 
 PCOD8326695
Probable space group: P 63 C M
;
_chemical_formula_sum "Si O2"
_cell_formula_units_Z 96
_cell_length_a 17.011683
_cell_length_b 17.011683
_cell_length_c 20.617333
_cell_angle_alpha 90.000000
_cell_angle_beta 90.000000
_cell_angle_gamma 120.000000
_cell_volume 5167.228655
_symmetry_space_group_name_H-M "P 63 C M"
_symmetry_group_IT_number 185
_symmetry_cell_setting 'hexagonal'
loop_
_space_group_symop_operation_xyz
x,y,z
x-y,x,1/2+z
-y,x-y,z
-x,-y,1/2+z
-x+y,-x,z
y,-x+y,1/2+z
-x+y,y,1/2+z
x,x-y,1/2+z
-y,-x,1/2+z
y,x,z
x-y,-y,z
-x,-x+y,z
loop_
_atom_site_type_symbol
_atom_site_label
_atom_site_fract_x
_atom_site_fract_y
_atom_site_fract_z
Si Si1 0.677673 0.783343 0.611390
Si Si2 0.783343 0.677673 0.462707
Si Si3 0.781512 0.106999 0.346769
Si Si4 0.497320 0.892773 0.108006
Si Si5 0.781512 0.106999 0.727328
Si Si6 0.395454 0.892773 0.466091
Si Si7 0.397349 0.505455 0.725981
Si Si8 0.602651 0.494545 0.848116
O O1 0.747474 0.747474 0.623856
O O2 0.685155 0.816314 0.537048
O O3 0.575603 0.704979 0.627597
O O4 0.701653 0.866288 0.659404
O O5 0.747474 0.747474 0.450241
O O6 0.866288 0.701653 0.414692
O O7 0.704979 0.575603 0.446500
O O8 0.849466 0.150534 0.287048
O O9 0.708603 0.141043 0.345073
O O10 0.733547 0.000000 0.338968
O O11 0.417299 0.851310 0.161006
O O12 0.540839 0.000000 0.104362
O O13 0.456628 0.851245 0.037048
O O14 0.708604 0.141043 0.729024
O O15 0.733547 0.000000 0.735129
O O16 0.434012 0.851310 0.413091
O O17 0.459161 0.000000 0.469735
O O18 0.456102 0.456102 0.725066
O O19 0.426724 0.573276 0.787048
O O20 0.543898 0.543898 0.849031
#
# Coordination Sequence:
#
# PCOD8326695 Si02
#       8
#    12  12  12  12  12  12  12  12
#     4   9  18  34  56  79 104 137 176 219 269 322
#     4   9  18  34  56  79 104 137 176 219 269 322
#     4  11  22  34  52  77 104 137 180 230 275 314
#     4   8  14  27  49  74  97 122 153 191 240 302
#     4  11  22  34  52  77 104 137 180 230 275 314
#     4   8  14  27  49  74  97 122 153 191 240 302
#     4   9  17  29  47  71  96 122 155 198 248 302
#     4   9  17  29  47  71  96 122 155 198 248 302
#
# _framework density 18.578624000000001
#
# number of rings (size 3 to 8) (size 9 to 14) (size 15 to 20)
#    0.000    2.750    0.000    3.750    0.000    5.500 
#    0.000    2.500    0.000   13.500    0.000    0.000 
#    0.000    0.000    0.000    0.000    0.000    0.000 
#
# Total GULP energy -1190142.578260 kJ/mol
# GULP energy per Si atom -12397.318524 kJ/mol
# Density = 1.853634 g / cm^3
# Si number density = 18.578624 Si / 1000 Ang^3
#
#
#
# Elastic Constant Matrix: (Units=GPa)
#
#
# Indices 1 2 3 4 5 6 
#
# 1 66.5778 25.6591 45.9978 0.0000 0.0000 0.0000
# 2 25.6591 66.5778 45.9978 0.0000 0.0000 0.0000
# 3 45.9978 45.9978 137.7570 0.0000 0.0000 0.0000
# 4 0.0000 0.0000 0.0000 30.4886 0.0000 0.0000
# 5 0.0000 0.0000 0.0000 0.0000 30.4886 0.0000
# 6 0.0000 0.0000 0.0000 0.0000 0.0000 20.4594
#
#
#
# Elastic Compliance Matrix: (Units=1/GPa)
#
#
# Indices 1 2 3 4 5 6 
#
# 1 0.020347 -0.004092 -0.005428 0.000000 0.000000 0.000000
# 2 -0.004092 0.020347 -0.005428 0.000000 0.000000 0.000000
# 3 -0.005428 -0.005428 0.010884 0.000000 0.000000 0.000000
# 4 0.000000 0.000000 0.000000 0.032799 0.000000 0.000000
# 5 0.000000 0.000000 0.000000 0.000000 0.032799 0.000000
# 6 0.000000 0.000000 0.000000 0.000000 0.000000 0.048877
#
#
# Mechanical properties :
#
#
# Convention : Reuss Voigt Hill
#
# Bulk Modulus (GPa) = 46.11830 56.24687 51.18259
# Shear Modulus (GPa) = 24.60930 26.50452 25.55691
#
# Velocity S-wave (km/s) = 3.64346 3.78115 3.71294
# Velocity P-wave (km/s) = 6.52510 7.02877 6.78161
#
# Compressibility (1/GPa) = 0.02168337
#
# Stress axis : x y z
#
# Youngs Moduli (GPa) = 49.14758 49.14758 91.87959
#
# Poissons Ratio (x) = 0.20110 0.49869
# Poissons Ratio (y) = 0.20110 0.49869
# Poissons Ratio (z) = 0.26676 0.26676
#
# Static dielectric constant tensor:
#      x y z
#    x 3.119760 0.000000 0.000000 
#    y 0.000000 3.119760 0.000000 
#    z 0.000000 0.000000 3.842780 
# 
# 
# High freq. dielectric constant tensor:
#      x y z
#    x 1.690900 0.000000 0.000000 
#    y 0.000000 1.690900 0.000000 
#    z 0.000000 0.000000 1.742420 
# 
# From -- ./inp_files/2009.got.cif
#   From: 2010.03.12/outbox.cif.g09.slc.cpg/sg185_cif.got.tgz:2009.got - 2010.04.01 11:55:19.
