data_PCOD8326433
_publ_section_title
;
Structure prediction by ZEFSAII (Michael W. Deem and Ramdas Pophale) SiO2 
 PCOD8326433
Probable space group: P 63 2 2
;
_chemical_formula_sum "Si O2"
_cell_formula_units_Z 60
_cell_length_a 29.018528
_cell_length_b 29.018528
_cell_length_c 5.365350
_cell_angle_alpha 90.000000
_cell_angle_beta 90.000000
_cell_angle_gamma 120.000000
_cell_volume 3912.726093
_symmetry_space_group_name_H-M "P 63 2 2"
_symmetry_group_IT_number 182
_symmetry_cell_setting 'hexagonal'
loop_
_space_group_symop_operation_xyz
x,y,z
x-y,x,1/2+z
-y,x-y,z
-x,-y,1/2+z
-x+y,-x,z
y,-x+y,1/2+z
x-y,-y,-z
-x,-x+y,-z
y,x,-z
-y,-x,1/2-z
-x+y,y,1/2-z
x,x-y,1/2-z
loop_
_atom_site_type_symbol
_atom_site_label
_atom_site_fract_x
_atom_site_fract_y
_atom_site_fract_z
Si Si1 0.439674 0.377406 0.750000
Si Si2 0.473890 0.055402 0.250000
Si Si3 0.667489 0.937881 0.250000
Si Si4 0.944904 0.708786 0.250000
Si Si5 0.828044 0.968467 0.750000
O O1 0.417105 0.417898 0.750000
O O2 0.475567 0.388068 0.500541
O O3 0.392858 0.317074 0.750000
O O4 0.475567 0.388068 0.999459
O O5 0.521156 0.042313 0.250000
O O6 0.678751 0.912800 0.498678
O O7 0.707270 0.001063 0.250000
O O8 0.678751 0.912800 0.001322
O O9 0.957363 0.768523 0.250000
O O10 0.827626 0.913813 0.750000
O O11 0.857723 0.000000 0.500000
O O12 0.857724 0.000000 0.000000
#
# Coordination Sequence:
#
# PCOD8326433 Si02
#       5
#    12  12  12  12  12
#     4  10  16  22  31  49  63 100 129 161 205 228
#     4  10  16  22  28  39  66  96 138 173 198 228
#     4  10  16  25  43  57  87  96 127 159 191 235
#     4  10  16  29  44  65  84 104 118 147 187 213
#     4  12  23  40  59  80  98 114 132 148 175 224
#
# _framework density 15.334576
#
# number of rings (size 3 to 8) (size 9 to 14) (size 15 to 20)
#    0.000    1.600    4.000    9.600    0.000    0.000 
#    0.000    0.000    0.000    4.000    0.000    0.000 
#    0.000    0.000    0.000    0.000    0.000    0.000 
#
# Total GULP energy -743423.378627 kJ/mol
# GULP energy per Si atom -12390.389644 kJ/mol
# Density = 1.529967 g / cm^3
# Si number density = 15.334576 Si / 1000 Ang^3
#
#
#
# Elastic Constant Matrix: (Units=GPa)
#
#
# Indices 1 2 3 4 5 6 
#
# 1 14.3182 8.7459 10.3045 0.0000 0.0000 0.0000
# 2 8.7459 14.3182 10.3045 0.0000 0.0000 0.0000
# 3 10.3045 10.3045 183.1941 0.0000 0.0000 0.0000
# 4 0.0000 0.0000 0.0000 13.2785 0.0000 0.0000
# 5 0.0000 0.0000 0.0000 0.0000 13.2785 0.0000
# 6 0.0000 0.0000 0.0000 0.0000 0.0000 2.7861
#
#
#
# Elastic Compliance Matrix: (Units=1/GPa)
#
#
# Indices 1 2 3 4 5 6 
#
# 1 0.112556 -0.066904 -0.002568 0.000000 0.000000 0.000000
# 2 -0.066904 0.112556 -0.002568 0.000000 0.000000 0.000000
# 3 -0.002568 -0.002568 0.005748 0.000000 0.000000 0.000000
# 4 0.000000 0.000000 0.000000 0.075309 0.000000 0.000000
# 5 0.000000 0.000000 0.000000 0.000000 0.075309 0.000000
# 6 0.000000 0.000000 0.000000 0.000000 0.000000 0.358919
#
#
# Mechanical properties :
#
#
# Convention : Reuss Voigt Hill
#
# Bulk Modulus (GPa) = 11.52342 30.06003 20.79172
# Shear Modulus (GPa) = 5.47404 18.03369 11.75386
#
# Velocity S-wave (km/s) = 1.89142 3.43303 2.77157
# Velocity P-wave (km/s) = 3.50727 5.94639 4.88163
#
# Compressibility (1/GPa) = 0.08677982
#
# Stress axis : x y z
#
# Youngs Moduli (GPa) = 8.88449 8.88449 173.98647
#
# Poissons Ratio (x) = 0.59441 0.44678
# Poissons Ratio (y) = 0.59441 0.44678
# Poissons Ratio (z) = 0.02281 0.02281
#
# Static dielectric constant tensor:
#      x y z
#    x 2.597860 0.000000 0.000000 
#    y 0.000000 2.597860 0.000000 
#    z 0.000000 0.000000 5.313040 
# 
# 
# High freq. dielectric constant tensor:
#      x y z
#    x 1.527890 0.000000 0.000000 
#    y 0.000000 1.527890 0.000000 
#    z 0.000000 0.000000 1.641190 
# 
# From -- ./inp_files/726.got.cif
#   From: 2010.03.12/outbox.cif.g09.slc.cpg/sg182_1_cif.got.tgz:726.got - 2010.04.01 11:49:36.
