data_PCOD8326027
_publ_section_title
;
Structure prediction by ZEFSAII (Michael W. Deem and Ramdas Pophale) SiO2 
 PCOD8326027
Probable space group: P 65 2 2
;
_chemical_formula_sum "Si O2"
_cell_formula_units_Z 48
_cell_length_a 17.993490
_cell_length_b 17.993490
_cell_length_c 8.400266
_cell_angle_alpha 90.000000
_cell_angle_beta 90.000000
_cell_angle_gamma 120.000000
_cell_volume 2355.344752
_symmetry_space_group_name_H-M "P 65 2 2"
_symmetry_group_IT_number 179
_symmetry_cell_setting 'hexagonal'
loop_
_space_group_symop_operation_xyz
x,y,z
x-y,x,5/6+z
-y,x-y,2/3+z
-x,-y,1/2+z
-x+y,-x,1/3+z
y,-x+y,1/6+z
x-y,-y,-z
-x,-x+y,1/3-z
y,x,2/3-z
-y,-x,1/6-z
-x+y,y,1/2-z
x,x-y,5/6-z
loop_
_atom_site_type_symbol
_atom_site_label
_atom_site_fract_x
_atom_site_fract_y
_atom_site_fract_z
Si Si1 0.551808 0.448193 0.583334
Si Si2 0.960243 0.830422 0.496541
Si Si3 0.124600 0.419229 0.251874
Si Si4 0.950854 0.289376 0.396999
Si Si5 0.000000 0.594376 0.166667
O O1 0.515167 0.358390 0.488365
O O2 0.482304 0.435830 0.711957
O O3 0.891222 0.861790 0.528989
O O4 0.919697 0.732237 0.434855
O O5 0.000000 0.830451 0.666667
O O6 0.199698 0.399396 0.250000
O O7 0.052860 0.345082 0.362768
O O8 0.094444 0.412202 0.069429
O O9 0.934156 0.318984 0.568797
#
# Coordination Sequence:
#
# PCOD8326027 Si02
#       5
#     6  12  12  12   6
#     4  10  20  36  58  84 116 148 186 244 310 390
#     4  10  19  34  60  82 118 167 217 255 310 371
#     4  10  19  34  59  85 113 157 195 240 308 374
#     4  10  19  33  61  89 115 149 206 265 300 355
#     4  10  20  36  60  90 114 142 194 254 318 350
#
# _framework density 20.379183999999999
#
# number of rings (size 3 to 8) (size 9 to 14) (size 15 to 20)
#    0.000    2.000    2.500    4.500    0.000    0.000 
#    0.000   11.250   24.750    0.000    0.000    0.000 
#    0.000    0.000    0.000    0.000    0.000    0.000 
#
# Total GULP energy -594708.744389 kJ/mol
# GULP energy per Si atom -12389.765508 kJ/mol
# Density = 2.033280 g / cm^3
# Si number density = 20.379184 Si / 1000 Ang^3
#
#
#
# Elastic Constant Matrix: (Units=GPa)
#
#
# Indices 1 2 3 4 5 6 
#
# 1 37.4915 66.6321 36.0497 0.0000 0.0000 0.0000
# 2 66.6321 37.4915 36.0497 0.0000 0.0000 0.0000
# 3 36.0497 36.0497 119.3997 0.0000 0.0000 0.0000
# 4 0.0000 0.0000 0.0000 22.8534 0.0000 0.0000
# 5 0.0000 0.0000 0.0000 0.0000 22.8534 0.0000
# 6 0.0000 0.0000 0.0000 0.0000 0.0000 -14.5703
#
#
#
# Elastic Compliance Matrix: (Units=1/GPa)
#
#
# Indices 1 2 3 4 5 6 
#
# 1 -0.011087 0.023230 -0.003666 0.000000 0.000000 0.000000
# 2 0.023230 -0.011087 -0.003666 0.000000 0.000000 0.000000
# 3 -0.003666 -0.003666 0.010589 0.000000 0.000000 0.000000
# 4 0.000000 0.000000 0.000000 0.043757 0.000000 0.000000
# 5 0.000000 0.000000 0.000000 0.000000 0.043757 0.000000
# 6 0.000000 0.000000 0.000000 0.000000 0.000000 -0.068633
#
#
# Mechanical properties :
#
#
# Convention : Reuss Voigt Hill
#
# Bulk Modulus (GPa) = 49.48149 52.42732 50.95440
# Shear Modulus (GPa) = -281.50953 9.93739 -135.78607
#
# Velocity S-wave (km/s) = -11.76587 2.21062 -8.17156
# Velocity P-wave (km/s) = 12.65890 5.68309 7.99845
#
# Compressibility (1/GPa) = 0.02020958
#
# Stress axis : x y z
#
# Youngs Moduli (GPa) = -90.19611 -90.19611 94.43736
#
# Poissons Ratio (x) = 2.09521 0.34622
# Poissons Ratio (y) = 2.09521 0.34622
# Poissons Ratio (z) = -0.33067 -0.33067
#
# Static dielectric constant tensor:
#      x y z
#    x 3.845420 0.000000 0.000000 
#    y 0.000000 3.845420 0.000000 
#    z 0.000000 0.000000 5.053020 
# 
# 
# High freq. dielectric constant tensor:
#      x y z
#    x 1.771730 0.000000 0.000000 
#    y 0.000000 1.771730 0.000000 
#    z 0.000000 0.000000 1.807610 
# 
# From -- ./inp_files/2739.got.cif
#   From: 2010.03.12/outbox.cif.g09.slc.cpg/sg179_2_cif.got.tgz:2739.got - 2010.04.02 07:08:42.
