data_PCOD8326931
_publ_section_title
;
Structure prediction by ZEFSAII (Michael W. Deem and Ramdas Pophale) SiO2 
 PCOD8326931
Probable space group: P -6 M 2
;
_chemical_formula_sum "Si O2"
_cell_formula_units_Z 72
_cell_length_a 23.095555
_cell_length_b 23.095555
_cell_length_c 9.230967
_cell_angle_alpha 90.000000
_cell_angle_beta 90.000000
_cell_angle_gamma 120.000000
_cell_volume 4264.171235
_symmetry_space_group_name_H-M "P -6 M 2"
_symmetry_group_IT_number 187
_symmetry_cell_setting 'hexagonal'
loop_
_space_group_symop_operation_xyz
x,y,z
-x+y,-x,-z
-y,x-y,z
x,y,-z
-x+y,-x,z
-y,x-y,-z
-y,-x,-z
-x+y,y,-z
x,x-y,-z
-x+y,y,z
x,x-y,z
-y,-x,z
loop_
_atom_site_type_symbol
_atom_site_label
_atom_site_fract_x
_atom_site_fract_y
_atom_site_fract_z
Si Si1 0.138175 0.736417 0.828561
Si Si2 0.928266 0.592870 0.671120
Si Si3 0.666747 0.204129 0.327801
Si Si4 0.410130 0.457773 0.829029
Si Si5 0.273114 0.202916 0.670929
Si Si6 0.749068 0.808491 0.831489
O O1 0.213323 0.786678 0.767730
O O2 0.112068 0.660248 0.779853
O O3 0.087914 0.761290 0.772746
O O4 0.140255 0.742252 0.000000
O O5 0.938733 0.592003 0.500000
O O6 0.857697 0.532294 0.722935
O O7 0.929861 0.660163 0.721203
O O8 0.983557 0.582361 0.749253
O O9 0.666875 0.207731 0.500000
O O10 0.598212 0.196424 0.264953
O O11 0.728550 0.271451 0.263857
O O12 0.469405 0.530596 0.781910
O O13 0.411059 0.446566 0.000000
O O14 0.264200 0.201541 0.500000
O O15 0.277159 0.138580 0.723538
O O16 0.209394 0.201753 0.744399
O O17 0.771792 0.885896 0.803291
O O18 0.753888 0.795321 0.000000
#
# Coordination Sequence:
#
# PCOD8326931 Si02
#       6
#    12  12  12  12  12  12
#     4   8  14  27  47  68  92 121 152 189 233 278
#     4  10  19  31  46  66  94 126 157 194 239 285
#     4   9  16  26  41  60  82 112 153 197 236 274
#     4  10  19  30  47  71  97 125 158 194 233 282
#     4  10  20  32  47  71 103 134 161 194 240 290
#     4   9  17  31  52  74  94 121 159 199 238 283
#
# _framework density 16.884875000000001
#
# number of rings (size 3 to 8) (size 9 to 14) (size 15 to 20)
#    0.000    2.667    1.667    2.167    0.000    4.333 
#    0.000    0.000    0.000    2.667    0.000    2.333 
#    0.000    1.333    0.000    0.000    0.000    0.000 
#
# Total GULP energy -892542.412866 kJ/mol
# GULP energy per Si atom -12396.422401 kJ/mol
# Density = 1.684644 g / cm^3
# Si number density = 16.884875 Si / 1000 Ang^3
#
#
#
# Elastic Constant Matrix: (Units=GPa)
#
#
# Indices 1 2 3 4 5 6 
#
# 1 127.0739 67.0723 27.5700 0.0000 -0.0002 0.0000
# 2 67.0723 127.0739 27.5700 0.0000 0.0002 0.0000
# 3 27.5700 27.5700 18.5670 0.0000 0.0000 0.0000
# 4 0.0000 0.0000 0.0000 21.1777 0.0000 0.0002
# 5 -0.0002 0.0002 0.0000 0.0000 21.1777 0.0000
# 6 0.0000 0.0000 0.0000 0.0002 0.0000 30.0008
#
#
#
# Elastic Compliance Matrix: (Units=1/GPa)
#
#
# Indices 1 2 3 4 5 6 
#
# 1 0.012787 -0.003880 -0.013226 0.000000 0.000000 0.000000
# 2 -0.003880 0.012787 -0.013226 0.000000 0.000000 0.000000
# 3 -0.013226 -0.013226 0.093138 0.000000 0.000000 0.000000
# 4 0.000000 0.000000 0.000000 0.047220 0.000000 0.000000
# 5 0.000000 0.000000 0.000000 0.000000 0.047220 0.000000
# 6 0.000000 0.000000 0.000000 0.000000 0.000000 0.033332
#
#
# Mechanical properties :
#
#
# Convention : Reuss Voigt Hill
#
# Bulk Modulus (GPa) = 17.22724 57.45995 37.34359
# Shear Modulus (GPa) = 15.31412 24.50473 19.90942
#
# Velocity S-wave (km/s) = 3.01487 3.81370 3.43757
# Velocity P-wave (km/s) = 4.72696 7.31415 6.15796
#
# Compressibility (1/GPa) = 0.05804760
#
# Stress axis : x y z
#
# Youngs Moduli (GPa) = 78.20632 78.20632 10.73675
#
# Poissons Ratio (x) = 0.30340 0.14201
# Poissons Ratio (y) = 0.30340 0.14201
# Poissons Ratio (z) = 1.03437 1.03437
#
# Static dielectric constant tensor:
#      x y z
#    x 3.376020 0.000000 0.000000 
#    y 0.000000 3.376020 0.000000 
#    z 0.000000 0.000000 2.779000 
# 
# 
# High freq. dielectric constant tensor:
#      x y z
#    x 1.650890 0.000000 0.000000 
#    y 0.000000 1.650890 0.000000 
#    z 0.000000 0.000000 1.612200 
# 
# From -- ./inp_files/948.got.cif
#   From: 2010.03.12/outbox.cif.g09.slc.cpg/sg187_1_cif.got.tgz:948.got - 2010.04.01 11:58:23.
