data_PCOD8326855
_publ_section_title
;
Structure prediction by ZEFSAII (Michael W. Deem and Ramdas Pophale) SiO2 
 PCOD8326855
Probable space group: P -6 M 2
;
_chemical_formula_sum "Si O2"
_cell_formula_units_Z 60
_cell_length_a 21.507206
_cell_length_b 21.507206
_cell_length_c 9.195720
_cell_angle_alpha 90.000000
_cell_angle_beta 90.000000
_cell_angle_gamma 120.000000
_cell_volume 3683.700902
_symmetry_space_group_name_H-M "P -6 M 2"
_symmetry_group_IT_number 187
_symmetry_cell_setting 'hexagonal'
loop_
_space_group_symop_operation_xyz
x,y,z
-x+y,-x,-z
-y,x-y,z
x,y,-z
-x+y,-x,z
-y,x-y,-z
-y,-x,-z
-x+y,y,-z
x,x-y,-z
-x+y,y,z
x,x-y,z
-y,-x,z
loop_
_atom_site_type_symbol
_atom_site_label
_atom_site_fract_x
_atom_site_fract_y
_atom_site_fract_z
Si Si1 0.505659 0.494342 0.663841
Si Si2 0.702931 0.921912 0.171597
Si Si3 0.577282 0.154563 0.828050
Si Si4 0.004694 0.366936 0.665003
Si Si5 0.701608 0.542410 0.669104
Si Si6 0.999362 0.137366 0.173036
O O1 0.522992 0.477009 0.500000
O O2 0.535473 0.464528 0.787870
O O3 0.547329 0.580617 0.681488
O O4 0.684446 0.842223 0.220585
O O5 0.647204 0.941902 0.239683
O O6 0.783165 0.980140 0.225862
O O7 0.697493 0.924729 0.000000
O O8 0.531612 0.188356 0.759247
O O9 0.583274 0.166547 0.000000
O O10 0.010706 0.346698 0.500000
O O11 0.921544 0.319773 0.718038
O O12 0.682557 0.524345 0.500000
O O13 0.786122 0.572244 0.698930
O O14 0.921863 0.078138 0.236610
O O15 0.059507 0.119013 0.228923
O O16 0.998276 0.135567 0.000000
#
# Coordination Sequence:
#
# PCOD8326855 Si02
#       6
#     6  12   6  12  12  12
#     4   8  16  32  50  66  86 112 142 176 218 270
#     4   9  18  30  42  62  95 126 147 176 224 276
#     4  10  18  28  44  66  90 112 142 190 236 268
#     4   9  17  30  49  69  87 111 147 188 222 260
#     4   9  18  33  49  63  85 121 160 192 231 284
#     4   8  13  22  37  56  79 112 155 196 227 255
#
# _framework density 16.287966999999998
#
# number of rings (size 3 to 8) (size 9 to 14) (size 15 to 20)
#    0.000    3.200    0.000    3.500    0.000    5.600 
#    0.600    0.000    0.000    0.000    0.000    0.000 
#    1.000    1.600    0.600    0.000    0.800    0.000 
#
# Total GULP energy -743389.337317 kJ/mol
# GULP energy per Si atom -12389.822289 kJ/mol
# Density = 1.625089 g / cm^3
# Si number density = 16.287967 Si / 1000 Ang^3
#
#
#
# Elastic Constant Matrix: (Units=GPa)
#
#
# Indices 1 2 3 4 5 6 
#
# 1 99.2776 62.4693 29.7366 0.0000 -0.0001 0.0000
# 2 62.4693 99.2776 29.7366 0.0000 0.0001 0.0000
# 3 29.7366 29.7366 43.2462 0.0000 0.0000 0.0000
# 4 0.0000 0.0000 0.0000 21.1319 0.0000 0.0001
# 5 -0.0001 0.0001 0.0000 0.0000 21.1319 0.0000
# 6 0.0000 0.0000 0.0000 0.0001 0.0000 18.4042
#
#
#
# Elastic Compliance Matrix: (Units=1/GPa)
#
#
# Indices 1 2 3 4 5 6 
#
# 1 0.017721 -0.009447 -0.005690 0.000000 0.000000 0.000000
# 2 -0.009447 0.017721 -0.005690 0.000000 0.000000 0.000000
# 3 -0.005690 -0.005690 0.030948 0.000000 0.000000 0.000000
# 4 0.000000 0.000000 0.000000 0.047322 0.000000 0.000000
# 5 0.000000 0.000000 0.000000 0.000000 0.047322 0.000000
# 6 0.000000 0.000000 0.000000 0.000000 0.000000 0.054336
#
#
# Mechanical properties :
#
#
# Convention : Reuss Voigt Hill
#
# Bulk Modulus (GPa) = 40.42298 53.96514 47.19406
# Shear Modulus (GPa) = 18.84888 20.12417 19.48653
#
# Velocity S-wave (km/s) = 3.40549 3.51882 3.46262
# Velocity P-wave (km/s) = 6.35097 7.05076 6.70999
#
# Compressibility (1/GPa) = 0.02473840
#
# Stress axis : x y z
#
# Youngs Moduli (GPa) = 56.42970 56.42970 32.31227
#
# Poissons Ratio (x) = 0.53307 0.18385
# Poissons Ratio (y) = 0.53307 0.18385
# Poissons Ratio (z) = 0.32107 0.32107
#
# Static dielectric constant tensor:
#      x y z
#    x 3.052210 0.000000 0.000000 
#    y 0.000000 3.052210 0.000000 
#    z 0.000000 0.000000 2.780410 
# 
# 
# High freq. dielectric constant tensor:
#      x y z
#    x 1.608910 0.000000 0.000000 
#    y 0.000000 1.608910 0.000000 
#    z 0.000000 0.000000 1.602420 
# 
# From -- ./inp_files/682.got.cif
#   From: 2010.03.12/outbox.cif.g09.slc.cpg/sg187_1_cif.got.tgz:682.got - 2010.04.01 11:58:23.
