data_PCOD8326246
_publ_section_title
;
Structure prediction by ZEFSAII (Michael W. Deem and Ramdas Pophale) SiO2 
 PCOD8326246
Probable space group: P 62 2 2
;
_chemical_formula_sum "Si O2"
_cell_formula_units_Z 96
_cell_length_a 14.059640
_cell_length_b 14.059640
_cell_length_c 28.900576
_cell_angle_alpha 90.000000
_cell_angle_beta 90.000000
_cell_angle_gamma 120.000000
_cell_volume 4947.496908
_symmetry_space_group_name_H-M "P 62 2 2"
_symmetry_group_IT_number 180
_symmetry_cell_setting 'hexagonal'
loop_
_space_group_symop_operation_xyz
x,y,z
x-y,x,1/3+z
-y,x-y,2/3+z
-x,-y,z
-x+y,-x,1/3+z
y,-x+y,2/3+z
x-y,-y,-z
-x,-x+y,1/3-z
y,x,2/3-z
-y,-x,2/3-z
-x+y,y,-z
x,x-y,1/3-z
loop_
_atom_site_type_symbol
_atom_site_label
_atom_site_fract_x
_atom_site_fract_y
_atom_site_fract_z
Si Si1 0.230926 0.804089 0.581403
Si Si2 0.393090 0.000452 0.366567
Si Si3 0.446085 0.234627 0.222431
Si Si4 0.779414 0.558794 0.938255
Si Si5 0.984099 0.385516 0.930615
Si Si6 0.343136 0.684177 0.948612
Si Si7 0.331211 0.459181 0.842507
Si Si8 0.612977 0.612688 0.278299
O O1 0.316681 0.766661 0.597880
O O2 0.229336 0.811739 0.526041
O O3 0.110180 0.719428 0.596502
O O4 0.282493 0.925691 0.603620
O O5 0.281905 0.879468 0.357776
O O6 0.433341 0.056305 0.316578
O O7 0.500000 0.000000 0.389272
O O8 0.450732 0.225366 0.166667
O O9 0.565723 0.311120 0.243947
O O10 0.379428 0.288792 0.246086
O O11 0.390505 0.108795 0.237289
O O12 0.908779 0.629288 0.928507
O O13 0.757879 0.439002 0.952306
O O14 0.713933 0.560794 0.893549
O O15 0.000000 0.500000 0.909041
O O16 0.370363 0.740726 0.000000
O O17 0.392177 0.392177 0.833334
O O18 0.412251 0.587750 0.833334
O O19 0.500000 0.500000 0.267410
O O20 0.631250 0.631250 0.333334
#
# Coordination Sequence:
#
# PCOD8326246 Si02
#       8
#    12  12  12  12  12  12  12  12
#     4  12  23  36  65  88 125 168 206 252 312 367
#     4  11  20  37  61  98 125 156 199 257 312 375
#     4  12  28  44  59  91 133 173 219 267 313 372
#     4  12  23  36  61  91 126 161 201 242 311 382
#     4  11  24  39  61  86 128 166 202 249 317 374
#     4  12  22  37  61  92 128 167 209 255 309 377
#     4  11  22  38  55  90 128 162 197 250 308 372
#     4  11  24  43  67  92 122 170 226 267 310 380
#
# _framework density 19.403751
#
# number of rings (size 3 to 8) (size 9 to 14) (size 15 to 20)
#    0.000    0.500    6.250    3.375    3.500    0.500 
#    0.000    0.000    0.000    0.750    0.000    4.375 
#    0.000    0.000    0.000    0.000    0.000    0.000 
#
# Total GULP energy -1189765.296729 kJ/mol
# GULP energy per Si atom -12393.388508 kJ/mol
# Density = 1.935959 g / cm^3
# Si number density = 19.403751 Si / 1000 Ang^3
#
#
#
# Elastic Constant Matrix: (Units=GPa)
#
#
# Indices 1 2 3 4 5 6 
#
# 1 103.7003 43.7641 25.1226 0.0000 0.0000 0.0000
# 2 43.7641 103.7003 25.1226 0.0000 0.0000 0.0000
# 3 25.1226 25.1226 108.4653 0.0000 0.0000 0.0000
# 4 0.0000 0.0000 0.0000 27.7538 0.0000 0.0000
# 5 0.0000 0.0000 0.0000 0.0000 27.7538 0.0000
# 6 0.0000 0.0000 0.0000 0.0000 0.0000 29.9681
#
#
#
# Elastic Compliance Matrix: (Units=1/GPa)
#
#
# Indices 1 2 3 4 5 6 
#
# 1 0.012023 -0.004661 -0.001705 0.000000 0.000000 0.000000
# 2 -0.004661 0.012023 -0.001705 0.000000 0.000000 0.000000
# 3 -0.001705 -0.001705 0.010009 0.000000 0.000000 0.000000
# 4 0.000000 0.000000 0.000000 0.036031 0.000000 0.000000
# 5 0.000000 0.000000 0.000000 0.000000 0.036031 0.000000
# 6 0.000000 0.000000 0.000000 0.000000 0.000000 0.033369
#
#
# Mechanical properties :
#
#
# Convention : Reuss Voigt Hill
#
# Bulk Modulus (GPa) = 55.82502 55.98716 55.90609
# Shear Modulus (GPa) = 30.94035 31.88559 31.41297
#
# Velocity S-wave (km/s) = 3.99752 4.05812 4.02794
# Velocity P-wave (km/s) = 7.08093 7.13262 7.10682
#
# Compressibility (1/GPa) = 0.01791312
#
# Stress axis : x y z
#
# Youngs Moduli (GPa) = 83.17143 83.17143 99.90532
#
# Poissons Ratio (x) = 0.38767 0.17036
# Poissons Ratio (y) = 0.38767 0.17036
# Poissons Ratio (z) = 0.14183 0.14183
#
# Static dielectric constant tensor:
#      x y z
#    x 3.437520 0.000000 0.000000 
#    y 0.000000 3.437520 0.000000 
#    z 0.000000 0.000000 3.838850 
# 
# 
# High freq. dielectric constant tensor:
#      x y z
#    x 1.738150 0.000000 0.000000 
#    y 0.000000 1.738150 0.000000 
#    z 0.000000 0.000000 1.776120 
# 
# From -- ./inp_files/12479.got.cif
#   From: 2010.03.12/outbox.cif.g09.slc.cpg/sg180_7_cif.got.tgz:12479.got - 2010.04.01 11:35:50.
