data_PCOD8326629
_publ_section_title
;
Structure prediction by ZEFSAII (Michael W. Deem and Ramdas Pophale) SiO2 
 PCOD8326629
Probable space group: P 63 C M
;
_chemical_formula_sum "Si O2"
_cell_formula_units_Z 84
_cell_length_a 19.390748
_cell_length_b 19.390748
_cell_length_c 13.527277
_cell_angle_alpha 90.000000
_cell_angle_beta 90.000000
_cell_angle_gamma 120.000000
_cell_volume 4404.840018
_symmetry_space_group_name_H-M "P 63 C M"
_symmetry_group_IT_number 185
_symmetry_cell_setting 'hexagonal'
loop_
_space_group_symop_operation_xyz
x,y,z
x-y,x,1/2+z
-y,x-y,z
-x,-y,1/2+z
-x+y,-x,z
y,-x+y,1/2+z
-x+y,y,1/2+z
x,x-y,1/2+z
-y,-x,1/2+z
y,x,z
x-y,-y,z
-x,-x+y,z
loop_
_atom_site_type_symbol
_atom_site_label
_atom_site_fract_x
_atom_site_fract_y
_atom_site_fract_z
Si Si1 0.094511 0.909737 0.031790
Si Si2 0.440224 0.348486 0.462521
Si Si3 0.907217 0.296809 0.497451
Si Si4 0.142229 0.821259 0.389799
Si Si5 0.094865 0.515728 0.370511
Si Si6 0.179353 0.334202 0.168817
Si Si7 0.908355 0.566796 0.683640
O O1 0.120991 0.873422 0.120996
O O2 0.000000 0.857686 0.014052
O O3 0.118195 0.000000 0.057712
O O4 0.144211 0.911476 0.934785
O O5 0.381436 0.381436 0.437090
O O6 0.389238 0.254182 0.449123
O O7 0.518846 0.390697 0.392663
O O8 0.471545 0.368753 0.575282
O O9 0.889024 0.233673 0.408908
O O10 0.877999 0.356930 0.459996
O O11 0.865648 0.255622 0.601046
O O12 0.000000 0.342010 0.518877
O O13 0.115762 0.795623 0.277255
O O14 0.128046 0.504077 0.265455
O O15 0.000000 0.471818 0.369033
O O16 0.131022 0.378782 0.188137
O O17 0.000000 0.624850 0.709655
#
# Coordination Sequence:
#
# PCOD8326629 Si02
#       7
#    12  12  12  12  12  12  12
#     4  11  24  40  57  82 118 164 215 269 325 381
#     4  10  20  34  54  84 115 143 183 235 289 347
#     4  10  20  35  54  83 116 148 195 249 299 349
#     4  11  21  35  58  85 113 152 198 255 306 363
#     4   9  19  34  55  82 113 146 178 227 289 349
#     4  11  21  34  58  86 114 154 201 251 307 368
#     4  10  18  32  55  82 112 149 191 232 284 351
#
# _framework density 19.069932999999999
#
# number of rings (size 3 to 8) (size 9 to 14) (size 15 to 20)
#    0.000    1.714    4.286    2.714    0.000    5.143 
#    0.000    2.857    0.000    2.286    0.000    0.000 
#    0.000    0.000    0.000    0.000    0.000    0.000 
#
# Total GULP energy -1041169.635355 kJ/mol
# GULP energy per Si atom -12394.876611 kJ/mol
# Density = 1.902653 g / cm^3
# Si number density = 19.069933 Si / 1000 Ang^3
#
#
#
# Elastic Constant Matrix: (Units=GPa)
#
#
# Indices 1 2 3 4 5 6 
#
# 1 84.2003 31.8861 33.7995 0.0000 0.0000 0.0000
# 2 31.8861 84.2003 33.7995 0.0000 0.0000 0.0000
# 3 33.7995 33.7995 126.4371 0.0000 0.0000 0.0000
# 4 0.0000 0.0000 0.0000 21.2406 0.0000 0.0000
# 5 0.0000 0.0000 0.0000 0.0000 21.2406 0.0000
# 6 0.0000 0.0000 0.0000 0.0000 0.0000 26.1571
#
#
#
# Elastic Compliance Matrix: (Units=1/GPa)
#
#
# Indices 1 2 3 4 5 6 
#
# 1 0.014659 -0.004456 -0.002727 0.000000 0.000000 0.000000
# 2 -0.004456 0.014659 -0.002727 0.000000 0.000000 0.000000
# 3 -0.002727 -0.002727 0.009367 0.000000 0.000000 0.000000
# 4 0.000000 0.000000 0.000000 0.047080 0.000000 0.000000
# 5 0.000000 0.000000 0.000000 0.000000 0.047080 0.000000
# 6 0.000000 0.000000 0.000000 0.000000 0.000000 0.038231
#
#
# Mechanical properties :
#
#
# Convention : Reuss Voigt Hill
#
# Bulk Modulus (GPa) = 53.01455 54.86755 53.94105
# Shear Modulus (GPa) = 25.35698 26.75119 26.05408
#
# Velocity S-wave (km/s) = 3.65044 3.74945 3.70028
# Velocity P-wave (km/s) = 6.75485 6.89773 6.82667
#
# Compressibility (1/GPa) = 0.01886275
#
# Stress axis : x y z
#
# Youngs Moduli (GPa) = 68.21817 68.21817 106.75518
#
# Poissons Ratio (x) = 0.30401 0.29116
# Poissons Ratio (y) = 0.30401 0.29116
# Poissons Ratio (z) = 0.18605 0.18605
#
# Static dielectric constant tensor:
#      x y z
#    x 3.418780 0.000000 0.000000 
#    y 0.000000 3.418780 0.000000 
#    z 0.000000 0.000000 3.747830 
# 
# 
# High freq. dielectric constant tensor:
#      x y z
#    x 1.724030 0.000000 0.000000 
#    y 0.000000 1.724030 0.000000 
#    z 0.000000 0.000000 1.750090 
# 
# From -- ./inp_files/1492.got.cif
#   From: 2010.03.12/outbox.cif.g09.slc.cpg/sg185_cif.got.tgz:1492.got - 2010.04.01 11:55:19.
