data_PCOD8326873
_publ_section_title
;
Structure prediction by ZEFSAII (Michael W. Deem and Ramdas Pophale) SiO2 
 PCOD8326873
Probable space group: P -6 M 2
;
_chemical_formula_sum "Si O2"
_cell_formula_units_Z 72
_cell_length_a 23.578190
_cell_length_b 23.578190
_cell_length_c 9.059232
_cell_angle_alpha 90.000000
_cell_angle_beta 90.000000
_cell_angle_gamma 120.000000
_cell_volume 4361.570930
_symmetry_space_group_name_H-M "P -6 M 2"
_symmetry_group_IT_number 187
_symmetry_cell_setting 'hexagonal'
loop_
_space_group_symop_operation_xyz
x,y,z
-x+y,-x,-z
-y,x-y,z
x,y,-z
-x+y,-x,z
-y,x-y,-z
-y,-x,-z
-x+y,y,-z
x,x-y,-z
-x+y,y,z
x,x-y,z
-y,-x,z
loop_
_atom_site_type_symbol
_atom_site_label
_atom_site_fract_x
_atom_site_fract_y
_atom_site_fract_z
Si Si1 0.368959 0.503174 0.329549
Si Si2 0.149009 0.298018 0.675580
Si Si3 0.999866 0.226082 0.673343
Si Si4 0.377855 0.301025 0.326796
Si Si5 0.888744 0.777488 0.833896
Si Si6 0.222834 0.445668 0.325518
Si Si7 0.378064 0.189032 0.166270
Si Si8 0.565458 0.000745 0.830483
O O1 0.367043 0.481838 0.500000
O O2 0.419280 0.580721 0.310435
O O3 0.297838 0.486670 0.272498
O O4 0.389646 0.461521 0.228815
O O5 0.150536 0.301072 0.500000
O O6 0.185729 0.259952 0.732073
O O7 0.185972 0.371944 0.740723
O O8 0.995263 0.212257 0.500000
O O9 0.972920 0.274973 0.713136
O O10 0.957885 0.155625 0.751915
O O11 0.387882 0.300193 0.500000
O O12 0.404044 0.257041 0.251110
O O13 0.423158 0.373265 0.266025
O O14 0.849886 0.699772 0.831860
O O15 0.902625 0.805249 0.000000
O O16 0.220101 0.440202 0.500000
O O17 0.405535 0.202768 0.000000
O O18 0.511174 0.022347 0.813043
O O19 0.586326 0.003068 0.000000
#
# Coordination Sequence:
#
# PCOD8326873 Si02
#       8
#    12   6  12  12   6   6   6  12
#     4   9  17  30  47  66  88 120 159 200 245 296
#     4   9  16  26  43  66  90 117 151 190 234 278
#     4   9  17  29  46  67  89 117 151 187 224 272
#     4  10  18  29  47  70  95 123 155 190 229 274
#     4   9  17  29  45  64  88 117 143 174 218 266
#     4   9  16  28  45  67  94 120 151 197 250 297
#     4   9  17  29  45  67  96 124 149 179 218 265
#     4  10  20  32  46  65  92 125 158 194 236 284
#
# _framework density 16.507812999999999
#
# number of rings (size 3 to 8) (size 9 to 14) (size 15 to 20)
#    0.000    2.667    0.000    2.500    0.000    6.333 
#    0.500    0.833    0.000    1.333    0.000    1.167 
#    0.833    0.000    1.500    0.000    1.500    0.000 
#
# Total GULP energy -892787.278082 kJ/mol
# GULP energy per Si atom -12399.823307 kJ/mol
# Density = 1.647024 g / cm^3
# Si number density = 16.507813 Si / 1000 Ang^3
#
#
#
# Elastic Constant Matrix: (Units=GPa)
#
#
# Indices 1 2 3 4 5 6 
#
# 1 107.2399 57.9481 40.8467 0.0000 -0.0001 0.0000
# 2 57.9481 107.2399 40.8467 0.0000 0.0001 0.0000
# 3 40.8467 40.8467 73.9089 0.0000 0.0000 0.0000
# 4 0.0000 0.0000 0.0000 17.7055 0.0000 0.0001
# 5 -0.0001 0.0001 0.0000 0.0000 17.7055 0.0000
# 6 0.0000 0.0000 0.0000 0.0001 0.0000 24.6459
#
#
#
# Elastic Compliance Matrix: (Units=1/GPa)
#
#
# Indices 1 2 3 4 5 6 
#
# 1 0.014309 -0.005978 -0.004604 0.000000 0.000000 0.000000
# 2 -0.005978 0.014309 -0.004604 0.000000 0.000000 0.000000
# 3 -0.004604 -0.004604 0.018619 0.000000 0.000000 0.000000
# 4 0.000000 0.000000 0.000000 0.056480 0.000000 0.000000
# 5 0.000000 0.000000 0.000000 0.000000 0.056480 0.000000
# 6 0.000000 0.000000 0.000000 0.000000 0.000000 0.040575
#
#
# Mechanical properties :
#
#
# Convention : Reuss Voigt Hill
#
# Bulk Modulus (GPa) = 59.29702 63.07464 61.18583
# Shear Modulus (GPa) = 21.11797 21.92786 21.52292
#
# Velocity S-wave (km/s) = 3.58057 3.64858 3.61474
# Velocity P-wave (km/s) = 7.28646 7.48608 7.38695
#
# Compressibility (1/GPa) = 0.01686425
#
# Stress axis : x y z
#
# Youngs Moduli (GPa) = 69.88612 69.88612 53.70825
#
# Poissons Ratio (x) = 0.41781 0.24727
# Poissons Ratio (y) = 0.41781 0.24727
# Poissons Ratio (z) = 0.32176 0.32176
#
# Static dielectric constant tensor:
#      x y z
#    x 3.128200 0.000000 0.000000 
#    y 0.000000 3.128200 0.000000 
#    z 0.000000 0.000000 3.067920 
# 
# 
# High freq. dielectric constant tensor:
#      x y z
#    x 1.622580 0.000000 0.000000 
#    y 0.000000 1.622580 0.000000 
#    z 0.000000 0.000000 1.628510 
# 
# From -- ./inp_files/1111.got.cif
#   From: 2010.03.12/outbox.cif.g09.slc.cpg/sg187_1_cif.got.tgz:1111.got - 2010.04.01 11:58:23.
