data_PCOD8326510
_publ_section_title
;
Structure prediction by ZEFSAII (Michael W. Deem and Ramdas Pophale) SiO2 
 PCOD8326510
Probable space group: P 6 M M
;
_chemical_formula_sum "Si O2"
_cell_formula_units_Z 84
_cell_length_a 18.352902
_cell_length_b 18.352902
_cell_length_c 18.229746
_cell_angle_alpha 90.000000
_cell_angle_beta 90.000000
_cell_angle_gamma 120.000000
_cell_volume 5317.662136
_symmetry_space_group_name_H-M "P 6 M M"
_symmetry_group_IT_number 183
_symmetry_cell_setting 'hexagonal'
loop_
_space_group_symop_operation_xyz
x,y,z
x-y,x,z
-y,x-y,z
-x,-y,z
-x+y,-x,z
y,-x+y,z
-x+y,y,z
x,x-y,z
-y,-x,z
y,x,z
x-y,-y,z
-x,-x+y,z
loop_
_atom_site_type_symbol
_atom_site_label
_atom_site_fract_x
_atom_site_fract_y
_atom_site_fract_z
Si Si1 0.096627 0.733344 0.915600
Si Si2 0.367000 0.460323 0.643241
Si Si3 0.167842 0.668974 0.037475
Si Si4 0.330621 0.829670 0.338260
Si Si5 0.906585 0.366951 0.190335
Si Si6 0.669112 0.500633 0.794796
Si Si7 0.532328 0.631771 0.485578
O O1 0.165783 0.834218 0.915678
O O2 0.108222 0.688354 0.844386
O O3 0.000000 0.715410 0.915688
O O4 0.108501 0.687789 0.986040
O O5 0.456073 0.543928 0.634178
O O6 0.383009 0.383009 0.660219
O O7 0.315653 0.469372 0.710146
O O8 0.318930 0.445465 0.564306
O O9 0.149440 0.574720 0.022702
O O10 0.265464 0.734537 0.020174
O O11 0.149927 0.683548 0.121042
O O12 0.426743 0.853486 0.338890
O O13 0.270252 0.729749 0.333691
O O14 0.314851 0.871123 0.265983
O O15 0.309271 0.863456 0.413417
O O16 0.906962 0.453481 0.197422
O O17 0.000000 0.383064 0.177562
O O18 0.734253 0.468506 0.813752
O O19 0.574484 0.425517 0.809440
O O20 0.432495 0.567506 0.483513
O O21 0.583085 0.583085 0.479990
#
# Coordination Sequence:
#
# PCOD8326510 Si02
#       7
#    12  12  12  12  12  12  12
#     4  10  21  35  51  70  90 114 144 180 220 260
#     4   8  14  25  40  55  71  97 136 178 215 251
#     4  10  19  30  45  66  93 122 150 179 211 248
#     4  10  18  26  36  51  72  96 123 160 210 264
#     4   9  17  28  41  55  72 100 139 178 211 245
#     4  10  19  29  42  62  90 122 153 183 214 249
#     4   8  14  25  39  52  67  92 129 170 209 250
#
# _framework density 15.796416000000001
#
# number of rings (size 3 to 8) (size 9 to 14) (size 15 to 20)
#    0.000    2.714    0.000    3.429    0.000    4.571 
#    0.000    2.857    0.000    1.857    0.000    0.000 
#    0.000    0.000    0.000    0.000    0.000    0.000 
#
# Total GULP energy -1040692.265574 kJ/mol
# GULP energy per Si atom -12389.193638 kJ/mol
# Density = 1.576046 g / cm^3
# Si number density = 15.796416 Si / 1000 Ang^3
#
#
#
# Elastic Constant Matrix: (Units=GPa)
#
#
# Indices 1 2 3 4 5 6 
#
# 1 52.4610 29.4195 27.3142 0.0000 0.0000 0.0000
# 2 29.4195 52.4610 27.3142 0.0000 0.0000 0.0000
# 3 27.3142 27.3142 119.3901 0.0000 0.0000 0.0000
# 4 0.0000 0.0000 0.0000 16.8624 0.0000 0.0000
# 5 0.0000 0.0000 0.0000 0.0000 16.8624 0.0000
# 6 0.0000 0.0000 0.0000 0.0000 0.0000 11.5208
#
#
#
# Elastic Compliance Matrix: (Units=1/GPa)
#
#
# Indices 1 2 3 4 5 6 
#
# 1 0.028906 -0.014494 -0.003297 0.000000 0.000000 0.000000
# 2 -0.014494 0.028906 -0.003297 0.000000 0.000000 0.000000
# 3 -0.003297 -0.003297 0.009885 0.000000 0.000000 0.000000
# 4 0.000000 0.000000 0.000000 0.059303 0.000000 0.000000
# 5 0.000000 0.000000 0.000000 0.000000 0.059303 0.000000
# 6 0.000000 0.000000 0.000000 0.000000 0.000000 0.086800
#
#
# Mechanical properties :
#
#
# Convention : Reuss Voigt Hill
#
# Bulk Modulus (GPa) = 39.18369 43.60086 41.39228
# Shear Modulus (GPa) = 15.44222 18.40008 16.92115
#
# Velocity S-wave (km/s) = 3.13002 3.41666 3.27647
# Velocity P-wave (km/s) = 6.15808 6.57468 6.36979
#
# Compressibility (1/GPa) = 0.02552082
#
# Stress axis : x y z
#
# Youngs Moduli (GPa) = 34.59444 34.59444 101.16686
#
# Poissons Ratio (x) = 0.50140 0.33359
# Poissons Ratio (y) = 0.50140 0.33359
# Poissons Ratio (z) = 0.11407 0.11407
#
# Static dielectric constant tensor:
#      x y z
#    x 2.675660 0.000000 0.000000 
#    y 0.000000 2.675660 0.000000 
#    z 0.000000 0.000000 3.557990 
# 
# 
# High freq. dielectric constant tensor:
#      x y z
#    x 1.562010 0.000000 0.000000 
#    y 0.000000 1.562010 0.000000 
#    z 0.000000 0.000000 1.640030 
# 
# From -- ./inp_files/2828.got.cif
#   From: 2010.03.12/outbox.cif.g09.slc.cpg/sg183_2_cif.got.tgz:2828.got - 2010.04.01 11:53:02.
