data_PCOD8326948
_publ_section_title
;
Structure prediction by ZEFSAII (Michael W. Deem and Ramdas Pophale) SiO2 
 PCOD8326948
Probable space group: P -6 M 2
;
_chemical_formula_sum "Si O2"
_cell_formula_units_Z 96
_cell_length_a 17.038801
_cell_length_b 17.038801
_cell_length_c 23.526140
_cell_angle_alpha 90.000000
_cell_angle_beta 90.000000
_cell_angle_gamma 120.000000
_cell_volume 5915.062941
_symmetry_space_group_name_H-M "P -6 M 2"
_symmetry_group_IT_number 187
_symmetry_cell_setting 'hexagonal'
loop_
_space_group_symop_operation_xyz
x,y,z
-x+y,-x,-z
-y,x-y,z
x,y,-z
-x+y,-x,z
-y,x-y,-z
-y,-x,-z
-x+y,y,-z
x,x-y,-z
-x+y,y,z
x,x-y,z
-y,-x,z
loop_
_atom_site_type_symbol
_atom_site_label
_atom_site_fract_x
_atom_site_fract_y
_atom_site_fract_z
Si Si1 0.406871 0.992293 0.348275
Si Si2 0.053465 0.759664 0.936993
Si Si3 0.666026 0.151933 0.564349
Si Si4 0.235115 0.291609 0.279524
Si Si5 0.507133 0.666277 0.067316
Si Si6 0.818255 0.000439 0.169139
Si Si7 0.277012 0.905243 0.437347
Si Si8 0.178631 0.998878 0.387609
O O1 0.496089 0.992178 0.325594
O O2 0.430821 0.081179 0.385582
O O3 0.339361 0.974788 0.295421
O O4 0.352249 0.911363 0.393430
O O5 0.149244 0.850757 0.938758
O O6 0.073981 0.680110 0.917971
O O7 0.988216 0.768153 0.891338
O O8 0.008390 0.740777 0.000000
O O9 0.663019 0.113718 0.500000
O O10 0.591019 0.182038 0.568922
O O11 0.762459 0.237542 0.577042
O O12 0.166101 0.332202 0.284170
O O13 0.235906 0.258706 0.215989
O O14 0.197748 0.205163 0.321105
O O15 0.494662 0.747331 0.093561
O O16 0.429504 0.570497 0.092839
O O17 0.497839 0.667632 0.000000
O O18 0.844575 0.922288 0.166256
O O19 0.906620 0.093381 0.184800
O O20 0.317986 0.921151 0.500000
O O21 0.192681 0.807320 0.429142
O O22 0.247535 0.980233 0.424144
O O23 0.074925 0.925076 0.402510
O O24 0.195894 0.097947 0.402787
#
# Coordination Sequence:
#
# PCOD8326948 Si02
#       8
#    12  12  12  12  12  12  12  12
#     4  10  19  31  48  67  84 106 141 179 214 260
#     4   8  15  27  41  61  92 125 153 185 228 267
#     4   9  17  28  42  62  88 115 140 169 209 256
#     4   9  19  34  48  63  85 112 140 176 225 266
#     4   8  12  19  34  57  85 118 155 189 218 252
#     4  10  19  31  48  68  90 118 152 185 214 251
#     4   9  18  31  44  60  86 118 146 176 220 264
#     4   9  16  26  41  61  86 117 152 186 217 253
#
# _framework density 16.229751
#
# number of rings (size 3 to 8) (size 9 to 14) (size 15 to 20)
#    0.000    3.000    0.000    3.125    0.000    4.750 
#    0.000    1.875    0.000    3.500    0.000    0.000 
#    0.000    0.000    0.000    0.375    0.000    9.750 
#
# Total GULP energy -1189485.793809 kJ/mol
# GULP energy per Si atom -12390.477019 kJ/mol
# Density = 1.619281 g / cm^3
# Si number density = 16.229751 Si / 1000 Ang^3
#
#
#
# Elastic Constant Matrix: (Units=GPa)
#
#
# Indices 1 2 3 4 5 6 
#
# 1 63.3825 38.5565 32.1728 0.0000 0.0000 0.0000
# 2 38.5565 63.3825 32.1728 0.0000 0.0000 0.0000
# 3 32.1728 32.1728 76.2340 0.0000 0.0000 0.0000
# 4 0.0000 0.0000 0.0000 15.4663 0.0000 0.0000
# 5 0.0000 0.0000 0.0000 0.0000 15.4663 0.0000
# 6 0.0000 0.0000 0.0000 0.0000 0.0000 12.4130
#
#
#
# Elastic Compliance Matrix: (Units=1/GPa)
#
#
# Indices 1 2 3 4 5 6 
#
# 1 0.026826 -0.013454 -0.005643 0.000000 0.000000 0.000000
# 2 -0.013454 0.026826 -0.005643 0.000000 0.000000 0.000000
# 3 -0.005643 -0.005643 0.017881 0.000000 0.000000 0.000000
# 4 0.000000 0.000000 0.000000 0.064657 0.000000 0.000000
# 5 0.000000 0.000000 0.000000 0.000000 0.064657 0.000000
# 6 0.000000 0.000000 0.000000 0.000000 0.000000 0.080561
#
#
# Mechanical properties :
#
#
# Convention : Reuss Voigt Hill
#
# Bulk Modulus (GPa) = 45.34863 45.42258 45.38560
# Shear Modulus (GPa) = 14.78244 15.34225 15.06234
#
# Velocity S-wave (km/s) = 3.02126 3.07794 3.04973
# Velocity P-wave (km/s) = 6.33822 6.37805 6.35817
#
# Compressibility (1/GPa) = 0.02205138
#
# Stress axis : x y z
#
# Youngs Moduli (GPa) = 37.27707 37.27707 55.92597
#
# Poissons Ratio (x) = 0.50153 0.31561
# Poissons Ratio (y) = 0.50153 0.31561
# Poissons Ratio (z) = 0.21037 0.21037
#
# Static dielectric constant tensor:
#      x y z
#    x 3.004320 0.000000 0.000000 
#    y 0.000000 3.004320 0.000000 
#    z 0.000000 0.000000 3.046930 
# 
# 
# High freq. dielectric constant tensor:
#      x y z
#    x 1.607260 0.000000 0.000000 
#    y 0.000000 1.607260 0.000000 
#    z 0.000000 0.000000 1.605790 
# 
# From -- ./inp_files/4095.got.cif
#   From: 2010.03.12/outbox.cif.g09.slc.cpg/sg187_3_cif.got.tgz:4095.got - 2010.04.01 11:58:23.
