data_PCOD8326496
_publ_section_title
;
Structure prediction by ZEFSAII (Michael W. Deem and Ramdas Pophale) SiO2 
 PCOD8326496
Probable space group: P 63 2 2
;
_chemical_formula_sum "Si O2"
_cell_formula_units_Z 60
_cell_length_a 13.715911
_cell_length_b 13.715911
_cell_length_c 16.193055
_cell_angle_alpha 90.000000
_cell_angle_beta 90.000000
_cell_angle_gamma 120.000000
_cell_volume 2638.206217
_symmetry_space_group_name_H-M "P 63 2 2"
_symmetry_group_IT_number 182
_symmetry_cell_setting 'hexagonal'
loop_
_space_group_symop_operation_xyz
x,y,z
x-y,x,1/2+z
-y,x-y,z
-x,-y,1/2+z
-x+y,-x,z
y,-x+y,1/2+z
x-y,-y,-z
-x,-x+y,-z
y,x,-z
-y,-x,1/2-z
-x+y,y,1/2-z
x,x-y,1/2-z
loop_
_atom_site_type_symbol
_atom_site_label
_atom_site_fract_x
_atom_site_fract_y
_atom_site_fract_z
Si Si1 0.148295 0.661321 0.300296
Si Si2 0.907312 0.152626 0.338962
Si Si3 0.549109 0.122783 0.982707
Si Si4 0.904749 0.163006 0.865060
Si Si5 0.594468 0.804309 0.976827
O O1 0.265518 0.734483 0.250000
O O2 0.082540 0.541270 0.250000
O O3 0.159796 0.629073 0.392816
O O4 0.088607 0.738329 0.304597
O O5 0.853854 0.146147 0.250000
O O6 0.883376 0.233009 0.397491
O O7 0.039401 0.200511 0.323857
O O8 0.843118 0.030237 0.383618
O O9 0.679197 0.201634 0.001282
O O10 0.456216 0.127737 0.042969
O O11 0.531182 0.000000 0.000000
O O12 0.838402 0.154120 0.948991
#
# Coordination Sequence:
#
# PCOD8326496 Si02
#       5
#    12  12  12  12  12
#     4  11  22  39  66 100 130 164 225 299 356 403
#     4  12  24  41  65  98 136 177 226 279 341 423
#     4  11  23  40  63  91 127 169 213 274 344 411
#     4  11  24  42  66  97 137 181 225 282 351 421
#     4  11  24  44  65  92 129 175 225 274 347 426
#
# _framework density 22.742726999999999
#
# number of rings (size 3 to 8) (size 9 to 14) (size 15 to 20)
#    0.000    0.800    0.000   10.000    0.000    3.200 
#    0.000    3.000    0.000    0.000    0.000    0.000 
#    0.000    0.000    0.000    0.000    0.000    0.000 
#
# Total GULP energy -743411.494560 kJ/mol
# GULP energy per Si atom -12390.191576 kJ/mol
# Density = 2.269096 g / cm^3
# Si number density = 22.742727 Si / 1000 Ang^3
#
#
#
# Elastic Constant Matrix: (Units=GPa)
#
#
# Indices 1 2 3 4 5 6 
#
# 1 121.8489 40.0847 40.1731 0.0000 0.0000 0.0000
# 2 40.0847 121.8489 40.1731 0.0000 0.0000 0.0000
# 3 40.1731 40.1731 89.5204 0.0000 0.0000 0.0000
# 4 0.0000 0.0000 0.0000 29.7853 0.0000 0.0000
# 5 0.0000 0.0000 0.0000 0.0000 29.7853 0.0000
# 6 0.0000 0.0000 0.0000 0.0000 0.0000 40.8821
#
#
#
# Elastic Compliance Matrix: (Units=1/GPa)
#
#
# Indices 1 2 3 4 5 6 
#
# 1 0.010087 -0.002143 -0.003565 0.000000 0.000000 0.000000
# 2 -0.002143 0.010087 -0.003565 0.000000 0.000000 0.000000
# 3 -0.003565 -0.003565 0.014370 0.000000 0.000000 0.000000
# 4 0.000000 0.000000 0.000000 0.033574 0.000000 0.000000
# 5 0.000000 0.000000 0.000000 0.000000 0.033574 0.000000
# 6 0.000000 0.000000 0.000000 0.000000 0.000000 0.024461
#
#
# Mechanical properties :
#
#
# Convention : Reuss Voigt Hill
#
# Bulk Modulus (GPa) = 62.50542 63.78666 63.14604
# Shear Modulus (GPa) = 33.32630 34.27638 33.80134
#
# Velocity S-wave (km/s) = 3.83216 3.88640 3.85937
# Velocity P-wave (km/s) = 6.86469 6.94599 6.90546
#
# Compressibility (1/GPa) = 0.01599861
#
# Stress axis : x y z
#
# Youngs Moduli (GPa) = 99.13498 99.13498 69.58785
#
# Poissons Ratio (x) = 0.21245 0.24808
# Poissons Ratio (y) = 0.21245 0.24808
# Poissons Ratio (z) = 0.35342 0.35342
#
# Static dielectric constant tensor:
#      x y z
#    x 4.239240 0.000000 0.000000 
#    y 0.000000 4.239240 0.000000 
#    z 0.000000 0.000000 3.982570 
# 
# 
# High freq. dielectric constant tensor:
#      x y z
#    x 1.902640 0.000000 0.000000 
#    y 0.000000 1.902640 0.000000 
#    z 0.000000 0.000000 1.888700 
# 
# From -- ./inp_files/3458.got.cif
#   From: 2010.03.12/outbox.cif.g09.slc.cpg/sg182_2_cif.got.tgz:3458.got - 2010.04.01 11:49:36.
