data_PCOD8326583
_publ_section_title
;
Structure prediction by ZEFSAII (Michael W. Deem and Ramdas Pophale) SiO2 
 PCOD8326583
Probable space group: P 6 C C
;
_chemical_formula_sum "Si O2"
_cell_formula_units_Z 66
_cell_length_a 20.862979
_cell_length_b 20.862979
_cell_length_c 8.937026
_cell_angle_alpha 90.000000
_cell_angle_beta 90.000000
_cell_angle_gamma 120.000000
_cell_volume 3368.808273
_symmetry_space_group_name_H-M "P 6 C C"
_symmetry_group_IT_number 184
_symmetry_cell_setting 'hexagonal'
loop_
_space_group_symop_operation_xyz
x,y,z
x-y,x,z
-y,x-y,z
-x,-y,z
-x+y,-x,z
y,-x+y,z
-x+y,y,1/2+z
x,x-y,1/2+z
-y,-x,1/2+z
y,x,1/2+z
x-y,-y,1/2+z
-x,-x+y,1/2+z
loop_
_atom_site_type_symbol
_atom_site_label
_atom_site_fract_x
_atom_site_fract_y
_atom_site_fract_z
Si Si1 0.521181 0.422015 0.421790
Si Si2 0.909929 0.708816 0.525411
Si Si3 0.310729 0.853057 0.880681
Si Si4 0.273939 0.812408 0.547172
Si Si5 0.286249 0.220612 0.869807
Si Si6 0.500000 0.000000 0.672960
O O1 0.603309 0.492123 0.415957
O O2 0.516157 0.343316 0.440267
O O3 0.480204 0.429211 0.569921
O O4 0.479182 0.427690 0.274942
O O5 0.874997 0.621179 0.505124
O O6 0.928468 0.732417 0.697675
O O7 0.850943 0.731390 0.467828
O O8 0.982712 0.749363 0.424586
O O9 0.291711 0.812218 0.721021
O O10 0.268603 0.792239 0.008709
O O11 0.285894 0.914583 0.887507
#
# Coordination Sequence:
#
# PCOD8326583 Si02
#       6
#    12  12  12  12  12   6
#     4  11  22  40  56  88 114 150 196 242 300 354
#     4  10  21  37  58  86 117 151 187 230 281 337
#     4  10  23  39  58  83 114 152 194 242 292 349
#     4  10  23  39  58  83 114 152 194 242 292 349
#     4  10  21  37  58  86 117 151 187 230 281 337
#     4  10  24  34  60  86 116 146 188 246 302 354
#
# _framework density 19.591498000000001
#
# number of rings (size 3 to 8) (size 9 to 14) (size 15 to 20)
#    0.000    1.818    1.818    1.091    7.636    1.455 
#    1.091    0.000    0.000    0.364    0.000    2.545 
#    0.000    0.000    0.000    0.000    0.000    0.000 
#
# Total GULP energy -818350.254610 kJ/mol
# GULP energy per Si atom -12399.246282 kJ/mol
# Density = 1.954691 g / cm^3
# Si number density = 19.591498 Si / 1000 Ang^3
#
#
#
# Elastic Constant Matrix: (Units=GPa)
#
#
# Indices 1 2 3 4 5 6 
#
# 1 82.9124 39.8995 32.6910 0.0000 0.0000 0.0000
# 2 39.8995 82.9124 32.6910 0.0000 0.0000 0.0000
# 3 32.6910 32.6910 112.4096 0.0000 0.0000 0.0000
# 4 0.0000 0.0000 0.0000 26.7160 0.0000 0.0000
# 5 0.0000 0.0000 0.0000 0.0000 26.7160 0.0000
# 6 0.0000 0.0000 0.0000 0.0000 0.0000 21.5065
#
#
#
# Elastic Compliance Matrix: (Units=1/GPa)
#
#
# Indices 1 2 3 4 5 6 
#
# 1 0.016441 -0.006807 -0.002802 0.000000 0.000000 0.000000
# 2 -0.006807 0.016441 -0.002802 0.000000 0.000000 0.000000
# 3 -0.002802 -0.002802 0.010526 0.000000 0.000000 0.000000
# 4 0.000000 0.000000 0.000000 0.037431 0.000000 0.000000
# 5 0.000000 0.000000 0.000000 0.000000 0.037431 0.000000
# 6 0.000000 0.000000 0.000000 0.000000 0.000000 0.046498
#
#
# Mechanical properties :
#
#
# Convention : Reuss Voigt Hill
#
# Bulk Modulus (GPa) = 53.80178 54.31084 54.05631
# Shear Modulus (GPa) = 25.53817 26.51788 26.02803
#
# Velocity S-wave (km/s) = 3.61436 3.68304 3.64886
# Velocity P-wave (km/s) = 6.70370 6.77261 6.73824
#
# Compressibility (1/GPa) = 0.01858674
#
# Stress axis : x y z
#
# Youngs Moduli (GPa) = 60.82179 60.82179 95.00568
#
# Poissons Ratio (x) = 0.41403 0.26619
# Poissons Ratio (y) = 0.41403 0.26619
# Poissons Ratio (z) = 0.17041 0.17041
#
# Static dielectric constant tensor:
#      x y z
#    x 3.411080 0.000000 0.000000 
#    y 0.000000 3.411080 0.000000 
#    z 0.000000 0.000000 3.881430 
# 
# 
# High freq. dielectric constant tensor:
#      x y z
#    x 1.747100 0.000000 0.000000 
#    y 0.000000 1.747100 0.000000 
#    z 0.000000 0.000000 1.785770 
# 
# From -- ./inp_files/300.got.cif
#   From: 2010.03.12/outbox.cif.g09.slc.cpg/sg184_cif.got.tgz:300.got - 2010.04.01 11:54:36.
