data_PCOD8326546
_publ_section_title
;
Structure prediction by ZEFSAII (Michael W. Deem and Ramdas Pophale) SiO2 
 PCOD8326546
Probable space group: P 6 M M
;
_chemical_formula_sum "Si O2"
_cell_formula_units_Z 96
_cell_length_a 23.881398
_cell_length_b 23.881398
_cell_length_c 11.784329
_cell_angle_alpha 90.000000
_cell_angle_beta 90.000000
_cell_angle_gamma 120.000000
_cell_volume 5820.428834
_symmetry_space_group_name_H-M "P 6 M M"
_symmetry_group_IT_number 183
_symmetry_cell_setting 'hexagonal'
loop_
_space_group_symop_operation_xyz
x,y,z
x-y,x,z
-y,x-y,z
-x,-y,z
-x+y,-x,z
y,-x+y,z
-x+y,y,z
x,x-y,z
-y,-x,z
y,x,z
x-y,-y,z
-x,-x+y,z
loop_
_atom_site_type_symbol
_atom_site_label
_atom_site_fract_x
_atom_site_fract_y
_atom_site_fract_z
Si Si1 0.075444 0.474319 0.860990
Si Si2 0.804066 0.073185 0.852404
Si Si3 0.600144 0.523478 0.376294
Si Si4 0.561626 0.638432 0.617021
Si Si5 0.073908 0.759691 0.608578
Si Si6 0.599152 0.864566 0.978130
Si Si7 0.697307 0.073950 0.217069
Si Si8 0.927055 0.194529 0.371646
O O1 0.086336 0.543168 0.904413
O O2 0.097013 0.482400 0.729295
O O3 0.121292 0.456278 0.933568
O O4 0.000000 0.419221 0.875681
O O5 0.876931 0.123070 0.895699
O O6 0.803205 0.084148 0.718113
O O7 0.752544 0.087460 0.912763
O O8 0.786189 0.000000 0.880854
O O9 0.548952 0.451049 0.334945
O O10 0.567539 0.567539 0.381647
O O11 0.624048 0.519129 0.502990
O O12 0.659090 0.556520 0.287719
O O13 0.601280 0.601280 0.610087
O O14 0.608587 0.716231 0.626200
O O15 0.098841 0.803305 0.497118
O O16 0.000000 0.708755 0.586448
O O17 0.579488 0.789744 0.958136
O O18 0.609684 0.879936 0.110731
O O19 0.753386 0.077317 0.294369
O O20 0.649089 0.000000 0.177801
O O21 0.877929 0.122072 0.325696
O O22 0.000000 0.206619 0.371804
#
# Coordination Sequence:
#
# PCOD8326546 Si02
#       8
#    12  12  12  12  12  12  12  12
#     4  10  19  31  51  76 101 128 155 191 236 282
#     4  10  19  31  48  69  94 125 160 200 245 293
#     4   9  16  26  43  69  98 127 155 183 223 275
#     4   9  14  25  44  69 100 127 152 182 224 278
#     4   9  15  26  45  66  91 122 153 188 231 281
#     4  11  22  34  48  67  96 131 165 202 238 281
#     4  10  19  31  46  65  92 128 164 200 238 280
#     4  10  19  31  47  67  91 121 159 201 246 296
#
# _framework density 16.493631000000001
#
# number of rings (size 3 to 8) (size 9 to 14) (size 15 to 20)
#    0.000    2.250    2.500    2.250    0.000    2.000 
#    0.000    1.250    0.000    0.500    0.000    0.000 
#    0.000    3.000    0.000    4.250    0.000    0.000 
#
# Total GULP energy -1189824.221176 kJ/mol
# GULP energy per Si atom -12394.002304 kJ/mol
# Density = 1.645609 g / cm^3
# Si number density = 16.493631 Si / 1000 Ang^3
#
#
#
# Elastic Constant Matrix: (Units=GPa)
#
#
# Indices 1 2 3 4 5 6 
#
# 1 79.3946 51.5836 25.9766 0.0000 0.0000 0.0000
# 2 51.5836 79.3946 25.9766 0.0000 0.0000 0.0000
# 3 25.9766 25.9766 83.7763 0.0000 0.0000 0.0000
# 4 0.0000 0.0000 0.0000 13.6011 0.0000 0.0000
# 5 0.0000 0.0000 0.0000 0.0000 13.6011 0.0000
# 6 0.0000 0.0000 0.0000 0.0000 0.0000 13.9055
#
#
#
# Elastic Compliance Matrix: (Units=1/GPa)
#
#
# Indices 1 2 3 4 5 6 
#
# 1 0.022331 -0.013626 -0.002699 0.000000 0.000000 0.000000
# 2 -0.013626 0.022331 -0.002699 0.000000 0.000000 0.000000
# 3 -0.002699 -0.002699 0.013611 0.000000 0.000000 0.000000
# 4 0.000000 0.000000 0.000000 0.073523 0.000000 0.000000
# 5 0.000000 0.000000 0.000000 0.000000 0.073523 0.000000
# 6 0.000000 0.000000 0.000000 0.000000 0.000000 0.071914
#
#
# Mechanical properties :
#
#
# Convention : Reuss Voigt Hill
#
# Bulk Modulus (GPa) = 49.44548 49.95988 49.70268
# Shear Modulus (GPa) = 15.52679 17.49013 16.50846
#
# Velocity S-wave (km/s) = 3.07152 3.25994 3.16713
# Velocity P-wave (km/s) = 6.52860 6.67276 6.60107
#
# Compressibility (1/GPa) = 0.02022430
#
# Stress axis : x y z
#
# Youngs Moduli (GPa) = 44.78014 44.78014 73.47255
#
# Poissons Ratio (x) = 0.61016 0.19833
# Poissons Ratio (y) = 0.61016 0.19833
# Poissons Ratio (z) = 0.12088 0.12088
#
# Static dielectric constant tensor:
#      x y z
#    x 2.923280 0.000000 0.000000 
#    y 0.000000 2.923280 0.000000 
#    z 0.000000 0.000000 3.195440 
# 
# 
# High freq. dielectric constant tensor:
#      x y z
#    x 1.604380 0.000000 0.000000 
#    y 0.000000 1.604380 0.000000 
#    z 0.000000 0.000000 1.644140 
# 
# From -- ./inp_files/2079.got.cif
#   From: 2010.03.12/outbox.cif.g09.slc.cpg/sg183_2_cif.got.tgz:2079.got - 2010.04.01 11:53:02.
