data_PCOD8326011
_publ_section_title
;
Structure prediction by ZEFSAII (Michael W. Deem and Ramdas Pophale) SiO2 
 PCOD8326011
Probable space group: P 65 2 2
;
_chemical_formula_sum "Si O2"
_cell_formula_units_Z 48
_cell_length_a 17.278879
_cell_length_b 17.278879
_cell_length_c 8.751624
_cell_angle_alpha 90.000000
_cell_angle_beta 90.000000
_cell_angle_gamma 120.000000
_cell_volume 2262.822086
_symmetry_space_group_name_H-M "P 65 2 2"
_symmetry_group_IT_number 179
_symmetry_cell_setting 'hexagonal'
loop_
_space_group_symop_operation_xyz
x,y,z
x-y,x,5/6+z
-y,x-y,2/3+z
-x,-y,1/2+z
-x+y,-x,1/3+z
y,-x+y,1/6+z
x-y,-y,-z
-x,-x+y,1/3-z
y,x,2/3-z
-y,-x,1/6-z
-x+y,y,1/2-z
x,x-y,5/6-z
loop_
_atom_site_type_symbol
_atom_site_label
_atom_site_fract_x
_atom_site_fract_y
_atom_site_fract_z
Si Si1 0.670983 0.670983 0.333334
Si Si2 0.920614 0.673106 0.469288
Si Si3 0.000000 0.843620 0.666667
Si Si4 0.579649 0.579649 0.833334
Si Si5 0.562823 0.437178 0.583334
Si Si6 0.811231 0.277764 0.725103
O O1 0.713123 0.730607 0.485043
O O2 0.657957 0.572244 0.342913
O O3 0.815149 0.618986 0.439371
O O4 0.938759 0.759086 0.562121
O O5 0.940377 0.603723 0.558219
O O6 0.933933 0.867865 0.750000
O O7 0.561652 0.497162 0.723947
O O8 0.664395 0.467301 0.527860
O O9 0.742209 0.257792 0.583334
#
# Coordination Sequence:
#
# PCOD8326011 Si02
#       6
#     6  12   6   6   6  12
#     4  10  17  40  62 106 129 170 224 287 346 406
#     4  10  22  41  70 100 131 180 233 290 344 423
#     4  11  24  42  66  99 142 184 232 293 352 410
#     4  11  25  38  74  95 135 174 242 284 346 402
#     4  12  24  42  66 106 134 180 226 292 344 412
#     4  10  22  39  69  98 138 173 231 286 349 415
#
# _framework density 21.212447999999998
#
# number of rings (size 3 to 8) (size 9 to 14) (size 15 to 20)
#    0.000    1.500    2.500    2.250    7.000    0.000 
#    0.000    6.250   11.000    0.000    0.000    0.000 
#    0.000    0.000    0.000    0.000    0.000    0.000 
#
# Total GULP energy -594761.270847 kJ/mol
# GULP energy per Si atom -12390.859809 kJ/mol
# Density = 2.116417 g / cm^3
# Si number density = 21.212448 Si / 1000 Ang^3
#
#
#
# Elastic Constant Matrix: (Units=GPa)
#
#
# Indices 1 2 3 4 5 6 
#
# 1 93.8022 57.9056 65.3707 0.0000 0.0000 0.0000
# 2 57.9056 93.8022 65.3707 0.0000 0.0000 0.0000
# 3 65.3707 65.3707 155.4350 0.0000 0.0000 0.0000
# 4 0.0000 0.0000 0.0000 26.4271 0.0000 0.0000
# 5 0.0000 0.0000 0.0000 0.0000 26.4271 0.0000
# 6 0.0000 0.0000 0.0000 0.0000 0.0000 17.9483
#
#
#
# Elastic Compliance Matrix: (Units=1/GPa)
#
#
# Indices 1 2 3 4 5 6 
#
# 1 0.019098 -0.008759 -0.004348 0.000000 0.000000 0.000000
# 2 -0.008759 0.019098 -0.004348 0.000000 0.000000 0.000000
# 3 -0.004348 -0.004348 0.010091 0.000000 0.000000 0.000000
# 4 0.000000 0.000000 0.000000 0.037840 0.000000 0.000000
# 5 0.000000 0.000000 0.000000 0.000000 0.037840 0.000000
# 6 0.000000 0.000000 0.000000 0.000000 0.000000 0.055716
#
#
# Mechanical properties :
#
#
# Convention : Reuss Voigt Hill
#
# Bulk Modulus (GPa) = 74.76089 80.03702 77.39896
# Shear Modulus (GPa) = 22.82548 24.45333 23.63940
#
# Velocity S-wave (km/s) = 3.28387 3.39895 3.34190
# Velocity P-wave (km/s) = 7.04973 7.29499 7.17341
#
# Compressibility (1/GPa) = 0.01337598
#
# Stress axis : x y z
#
# Youngs Moduli (GPa) = 52.36055 52.36055 99.09870
#
# Poissons Ratio (x) = 0.45865 0.43090
# Poissons Ratio (y) = 0.45865 0.43090
# Poissons Ratio (z) = 0.22767 0.22767
#
# Static dielectric constant tensor:
#      x y z
#    x 3.773180 0.000000 0.000000 
#    y 0.000000 3.773180 0.000000 
#    z 0.000000 0.000000 4.298780 
# 
# 
# High freq. dielectric constant tensor:
#      x y z
#    x 1.824880 0.000000 0.000000 
#    y 0.000000 1.824880 0.000000 
#    z 0.000000 0.000000 1.846680 
# 
# From -- ./inp_files/2811.got.cif
#   From: 2010.03.12/outbox.cif.g09.slc.cpg/sg179_2_cif.got.tgz:2811.got - 2010.04.02 07:08:42.
