data_PCOD8326819
_publ_section_title
;
Structure prediction by ZEFSAII (Michael W. Deem and Ramdas Pophale) SiO2 
 PCOD8326819
Probable space group: P 63 M C
;
_chemical_formula_sum "Si O2"
_cell_formula_units_Z 84
_cell_length_a 21.590590
_cell_length_b 21.590590
_cell_length_c 10.966870
_cell_angle_alpha 90.000000
_cell_angle_beta 90.000000
_cell_angle_gamma 120.000000
_cell_volume 4427.334624
_symmetry_space_group_name_H-M "P 63 M C"
_symmetry_group_IT_number 186
_symmetry_cell_setting 'hexagonal'
loop_
_space_group_symop_operation_xyz
x,y,z
x-y,x,1/2+z
-y,x-y,z
-x,-y,1/2+z
-x+y,-x,z
y,-x+y,1/2+z
-x+y,y,z
x,x-y,z
-y,-x,z
y,x,1/2+z
x-y,-y,1/2+z
-x,-x+y,1/2+z
loop_
_atom_site_type_symbol
_atom_site_label
_atom_site_fract_x
_atom_site_fract_y
_atom_site_fract_z
Si Si1 0.909560 0.525245 0.657680
Si Si2 0.388094 0.263643 0.255243
Si Si3 0.390422 0.469181 0.614410
Si Si4 0.134272 0.717521 0.389372
Si Si5 0.117656 0.740327 0.026406
Si Si6 0.194810 0.248042 0.380479
Si Si7 0.746107 0.991308 0.635724
O O1 0.882284 0.441142 0.660345
O O2 0.883010 0.545586 0.779462
O O3 0.872073 0.543824 0.546505
O O4 0.993903 0.569857 0.630556
O O5 0.416614 0.208307 0.244233
O O6 0.455084 0.343108 0.236757
O O7 0.352820 0.257764 0.387475
O O8 0.328469 0.246140 0.151930
O O9 0.447275 0.552726 0.600559
O O10 0.333061 0.445065 0.506624
O O11 0.217842 0.782158 0.392858
O O12 0.082188 0.749961 0.379833
O O13 0.188932 0.811069 0.065028
O O14 0.056983 0.731758 0.120172
O O15 0.113788 0.227575 0.369296
O O16 0.202465 0.215819 0.510925
O O17 0.208556 0.212191 0.260328
#
# Coordination Sequence:
#
# PCOD8326819 Si02
#       7
#    12  12  12  12  12  12  12
#     4  11  23  36  56  83 113 149 197 253 306 368
#     4  11  22  36  56  83 115 153 194 241 301 366
#     4  11  23  36  56  83 113 149 197 253 306 368
#     4  11  21  37  57  80 112 151 199 247 312 377
#     4  11  22  36  56  83 115 153 194 241 301 366
#     4  11  22  35  58  88 123 165 200 241 300 361
#     4  12  20  36  57  86 120 160 203 238 292 372
#
# _framework density 18.973040999999998
#
# number of rings (size 3 to 8) (size 9 to 14) (size 15 to 20)
#    0.000    0.857    5.714    2.143    2.000    0.571 
#    0.000    0.000    0.000    8.000    0.000    0.000 
#    0.000    0.000    0.000   73.714    0.000    0.000 
#
# Total GULP energy -1040939.352294 kJ/mol
# GULP energy per Si atom -12392.135146 kJ/mol
# Density = 1.892986 g / cm^3
# Si number density = 18.973041 Si / 1000 Ang^3
#
#
#
# Elastic Constant Matrix: (Units=GPa)
#
#
# Indices 1 2 3 4 5 6 
#
# 1 61.0880 13.3057 24.9539 0.0000 0.0000 0.0000
# 2 13.3057 61.0880 24.9539 0.0000 0.0000 0.0000
# 3 24.9539 24.9539 112.5077 0.0000 0.0000 0.0000
# 4 0.0000 0.0000 0.0000 24.6556 0.0000 0.0000
# 5 0.0000 0.0000 0.0000 0.0000 24.6556 0.0000
# 6 0.0000 0.0000 0.0000 0.0000 0.0000 23.8912
#
#
#
# Elastic Compliance Matrix: (Units=1/GPa)
#
#
# Indices 1 2 3 4 5 6 
#
# 1 0.018360 -0.002568 -0.003503 0.000000 0.000000 0.000000
# 2 -0.002568 0.018360 -0.003503 0.000000 0.000000 0.000000
# 3 -0.003503 -0.003503 0.010442 0.000000 0.000000 0.000000
# 4 0.000000 0.000000 0.000000 0.040559 0.000000 0.000000
# 5 0.000000 0.000000 0.000000 0.000000 0.040559 0.000000
# 6 0.000000 0.000000 0.000000 0.000000 0.000000 0.041856
#
#
# Mechanical properties :
#
#
# Convention : Reuss Voigt Hill
#
# Bulk Modulus (GPa) = 35.69488 40.12340 37.90914
# Shear Modulus (GPa) = 25.17356 26.07182 25.62269
#
# Velocity S-wave (km/s) = 3.64649 3.71098 3.67887
# Velocity P-wave (km/s) = 6.04843 6.28930 6.17004
#
# Compressibility (1/GPa) = 0.02801522
#
# Stress axis : x y z
#
# Youngs Moduli (GPa) = 54.46626 54.46626 95.76709
#
# Poissons Ratio (x) = 0.13988 0.33543
# Poissons Ratio (y) = 0.13988 0.33543
# Poissons Ratio (z) = 0.19077 0.19077
#
# Static dielectric constant tensor:
#      x y z
#    x 3.424570 0.000000 0.000000 
#    y 0.000000 3.424570 0.000000 
#    z 0.000000 0.000000 3.928260 
# 
# 
# High freq. dielectric constant tensor:
#      x y z
#    x 1.712490 0.000000 0.000000 
#    y 0.000000 1.712490 0.000000 
#    z 0.000000 0.000000 1.765760 
# 
# From -- ./inp_files/1891.got.cif
#   From: 2010.03.12/outbox.cif.g09.slc.cpg/sg186_1_cif.got.tgz:1891.got - 2010.04.01 11:56:34.
