data_PCOD8326076
_publ_section_title
;
Structure prediction by ZEFSAII (Michael W. Deem and Ramdas Pophale) SiO2 
 PCOD8326076
Probable space group: P 65 2 2
;
_chemical_formula_sum "Si O2"
_cell_formula_units_Z 48
_cell_length_a 18.861305
_cell_length_b 18.861305
_cell_length_c 7.675518
_cell_angle_alpha 90.000000
_cell_angle_beta 90.000000
_cell_angle_gamma 120.000000
_cell_volume 2364.731313
_symmetry_space_group_name_H-M "P 65 2 2"
_symmetry_group_IT_number 179
_symmetry_cell_setting 'hexagonal'
loop_
_space_group_symop_operation_xyz
x,y,z
x-y,x,5/6+z
-y,x-y,2/3+z
-x,-y,1/2+z
-x+y,-x,1/3+z
y,-x+y,1/6+z
x-y,-y,-z
-x,-x+y,1/3-z
y,x,2/3-z
-y,-x,1/6-z
-x+y,y,1/2-z
x,x-y,5/6-z
loop_
_atom_site_type_symbol
_atom_site_label
_atom_site_fract_x
_atom_site_fract_y
_atom_site_fract_z
Si Si1 0.432404 0.273792 0.271519
Si Si2 0.400875 0.616719 0.893239
Si Si3 0.761652 0.523304 0.250000
Si Si4 0.124058 0.159107 0.579966
Si Si5 0.000000 0.732944 0.666667
O O1 0.449854 0.224927 0.416667
O O2 0.518800 0.358693 0.274728
O O3 0.356875 0.279971 0.346974
O O4 0.418434 0.234337 0.077704
O O5 0.377534 0.688767 0.916667
O O6 0.331293 0.535333 0.803906
O O7 0.411945 0.588056 0.083334
O O8 0.132833 0.079811 0.606425
O O9 0.094740 0.189480 0.750000
O O10 0.211470 0.227950 0.505337
#
# Coordination Sequence:
#
# PCOD8326076 Si02
#       5
#    12  12   6  12   6
#     4  11  24  40  64  93 133 174 219 275 334 405
#     4  11  18  35  65 100 124 155 218 295 336 367
#     4  12  20  38  72  98 122 170 236 282 340 384
#     4  10  22  40  68  96 122 160 221 280 337 389
#     4  12  26  44  58  90 144 180 208 266 340 430
#
# _framework density 20.298287999999999
#
# number of rings (size 3 to 8) (size 9 to 14) (size 15 to 20)
#    0.000    1.000    6.250    3.000    1.750    6.000 
#    0.000    2.500    0.000    0.000    0.000    0.000 
#    0.000    0.000    0.000    0.000    0.000    0.000 
#
# Total GULP energy -594754.032402 kJ/mol
# GULP energy per Si atom -12390.709008 kJ/mol
# Density = 2.025209 g / cm^3
# Si number density = 20.298288 Si / 1000 Ang^3
#
#
#
# Elastic Constant Matrix: (Units=GPa)
#
#
# Indices 1 2 3 4 5 6 
#
# 1 73.6673 48.9082 28.3984 0.0000 0.0000 0.0000
# 2 48.9082 73.6673 28.3984 0.0000 0.0000 0.0000
# 3 28.3984 28.3984 126.2884 0.0000 0.0000 0.0000
# 4 0.0000 0.0000 0.0000 16.9388 0.0000 0.0000
# 5 0.0000 0.0000 0.0000 0.0000 16.9388 0.0000
# 6 0.0000 0.0000 0.0000 0.0000 0.0000 12.3795
#
#
#
# Elastic Compliance Matrix: (Units=1/GPa)
#
#
# Indices 1 2 3 4 5 6 
#
# 1 0.024748 -0.015641 -0.002048 0.000000 0.000000 0.000000
# 2 -0.015641 0.024748 -0.002048 0.000000 0.000000 0.000000
# 3 -0.002048 -0.002048 0.008839 0.000000 0.000000 0.000000
# 4 0.000000 0.000000 0.000000 0.059036 0.000000 0.000000
# 5 0.000000 0.000000 0.000000 0.000000 0.059036 0.000000
# 6 0.000000 0.000000 0.000000 0.000000 0.000000 0.080778
#
#
# Mechanical properties :
#
#
# Convention : Reuss Voigt Hill
#
# Bulk Modulus (GPa) = 53.01651 53.89257 53.45454
# Shear Modulus (GPa) = 16.50451 20.44595 18.47523
#
# Velocity S-wave (km/s) = 2.85458 3.17720 3.02020
# Velocity P-wave (km/s) = 6.08607 6.32988 6.20917
#
# Compressibility (1/GPa) = 0.01886205
#
# Stress axis : x y z
#
# Youngs Moduli (GPa) = 40.40699 40.40699 113.12961
#
# Poissons Ratio (x) = 0.63201 0.23168
# Poissons Ratio (y) = 0.63201 0.23168
# Poissons Ratio (z) = 0.08275 0.08275
#
# Static dielectric constant tensor:
#      x y z
#    x 3.840040 0.000000 0.000000 
#    y 0.000000 3.840040 0.000000 
#    z 0.000000 0.000000 3.627400 
# 
# 
# High freq. dielectric constant tensor:
#      x y z
#    x 1.771590 0.000000 0.000000 
#    y 0.000000 1.771590 0.000000 
#    z 0.000000 0.000000 1.813150 
# 
# From -- ./inp_files/2682.got.cif
#   From: 2010.03.12/outbox.cif.g09.slc.cpg/sg179_2_cif.got.tgz:2682.got - 2010.04.02 07:08:42.
