data_PCOD8326354
_publ_section_title
;
Structure prediction by ZEFSAII (Michael W. Deem and Ramdas Pophale) SiO2 
 PCOD8326354
Probable space group: P 64 2 2
;
_chemical_formula_sum "Si O2"
_cell_formula_units_Z 42
_cell_length_a 22.211710
_cell_length_b 22.211710
_cell_length_c 4.997763
_cell_angle_alpha 90.000000
_cell_angle_beta 90.000000
_cell_angle_gamma 120.000000
_cell_volume 2135.355945
_symmetry_space_group_name_H-M "P 64 2 2"
_symmetry_group_IT_number 181
_symmetry_cell_setting 'hexagonal'
loop_
_space_group_symop_operation_xyz
x,y,z
x-y,x,2/3+z
-y,x-y,1/3+z
-x,-y,z
-x+y,-x,2/3+z
y,-x+y,1/3+z
x-y,-y,-z
-x,-x+y,2/3-z
y,x,1/3-z
-y,-x,1/3-z
-x+y,y,-z
x,x-y,2/3-z
loop_
_atom_site_type_symbol
_atom_site_label
_atom_site_fract_x
_atom_site_fract_y
_atom_site_fract_z
Si Si1 0.229364 0.114682 0.333334
Si Si2 0.601861 0.683854 0.653546
Si Si3 0.607263 0.525517 0.184031
Si Si4 0.681651 0.840826 0.833334
Si Si5 0.119499 0.000000 0.000000
O O1 0.273354 0.110553 0.584452
O O2 0.181574 0.037677 0.213693
O O3 0.659069 0.659069 0.666667
O O4 0.561194 0.666949 0.373155
O O5 0.637620 0.765234 0.706060
O O6 0.540948 0.644266 0.865740
O O7 0.558252 0.558252 0.166667
O O8 0.558331 0.441670 0.166667
O O9 0.051520 0.948481 0.166667
#
# Coordination Sequence:
#
# PCOD8326354 Si02
#       5
#     6  12  12   6   6
#     4  12  28  45  62  84 110 158 204 276 344 424
#     4  10  21  35  56  85 120 164 200 247 298 359
#     4   9  17  33  57  87 118 148 188 231 288 349
#     4  12  26  42  62  85 130 166 214 252 318 404
#     4  12  28  47  66  88 104 140 213 304 376 424
#
# _framework density 19.668854
#
# number of rings (size 3 to 8) (size 9 to 14) (size 15 to 20)
#    0.000    1.429    1.429    3.429    2.000    6.286 
#    0.000    0.000    0.000    0.000    0.000    0.000 
#   21.429    0.000    0.000    0.000    0.000    0.000 
#
# Total GULP energy -520669.742183 kJ/mol
# GULP energy per Si atom -12396.898623 kJ/mol
# Density = 1.962409 g / cm^3
# Si number density = 19.668854 Si / 1000 Ang^3
#
#
#
# Elastic Constant Matrix: (Units=GPa)
#
#
# Indices 1 2 3 4 5 6 
#
# 1 107.2638 43.3319 36.3425 0.0000 0.0000 0.0000
# 2 43.3319 107.2638 36.3425 0.0000 0.0000 0.0000
# 3 36.3425 36.3425 109.4172 0.0000 0.0000 0.0000
# 4 0.0000 0.0000 0.0000 47.2100 0.0000 0.0000
# 5 0.0000 0.0000 0.0000 0.0000 47.2100 0.0000
# 6 0.0000 0.0000 0.0000 0.0000 0.0000 31.9660
#
#
#
# Elastic Compliance Matrix: (Units=1/GPa)
#
#
# Indices 1 2 3 4 5 6 
#
# 1 0.011775 -0.003867 -0.002627 0.000000 0.000000 0.000000
# 2 -0.003867 0.011775 -0.002627 0.000000 0.000000 0.000000
# 3 -0.002627 -0.002627 0.010884 0.000000 0.000000 0.000000
# 4 0.000000 0.000000 0.000000 0.021182 0.000000 0.000000
# 5 0.000000 0.000000 0.000000 0.000000 0.021182 0.000000
# 6 0.000000 0.000000 0.000000 0.000000 0.000000 0.031283
#
#
# Mechanical properties :
#
#
# Convention : Reuss Voigt Hill
#
# Bulk Modulus (GPa) = 61.75222 61.77542 61.76382
# Shear Modulus (GPa) = 37.95959 39.13906 38.54933
#
# Velocity S-wave (km/s) = 4.39787 4.46567 4.43190
# Velocity P-wave (km/s) = 7.56653 7.62007 7.59335
#
# Compressibility (1/GPa) = 0.01619375
#
# Stress axis : x y z
#
# Youngs Moduli (GPa) = 84.92688 84.92688 91.87648
#
# Poissons Ratio (x) = 0.32840 0.24132
# Poissons Ratio (y) = 0.32840 0.24132
# Poissons Ratio (z) = 0.22307 0.22307
#
# Static dielectric constant tensor:
#      x y z
#    x 3.465510 0.000000 0.000000 
#    y 0.000000 3.465510 0.000000 
#    z 0.000000 0.000000 -1.012830 
# 
# 
# High freq. dielectric constant tensor:
#      x y z
#    x 1.738650 0.000000 0.000000 
#    y 0.000000 1.738650 0.000000 
#    z 0.000000 0.000000 1.799630 
# 
# From -- ./inp_files/859.got.cif
#   From: 2010.03.12/outbox.cif.g09.slc.cpg/sg181_1_cif.got.tgz:859.got - 2010.04.01 11:42:41.
