data_PCOD8326610
_publ_section_title
;
Structure prediction by ZEFSAII (Michael W. Deem and Ramdas Pophale) SiO2 
 PCOD8326610
Probable space group: P 6 C C
;
_chemical_formula_sum "Si O2"
_cell_formula_units_Z 48
_cell_length_a 13.482253
_cell_length_b 13.482253
_cell_length_c 12.979933
_cell_angle_alpha 90.000000
_cell_angle_beta 90.000000
_cell_angle_gamma 120.000000
_cell_volume 2043.280675
_symmetry_space_group_name_H-M "P 6 C C"
_symmetry_group_IT_number 184
_symmetry_cell_setting 'hexagonal'
loop_
_space_group_symop_operation_xyz
x,y,z
x-y,x,z
-y,x-y,z
-x,-y,z
-x+y,-x,z
y,-x+y,z
-x+y,y,1/2+z
x,x-y,1/2+z
-y,-x,1/2+z
y,x,1/2+z
x-y,-y,1/2+z
-x,-x+y,1/2+z
loop_
_atom_site_type_symbol
_atom_site_label
_atom_site_fract_x
_atom_site_fract_y
_atom_site_fract_z
Si Si1 0.876539 0.396436 0.721620
Si Si2 0.953991 0.208304 0.126577
Si Si3 0.258174 0.834476 0.800582
Si Si4 0.577310 0.949000 0.505015
O O1 0.856631 0.289809 0.793949
O O2 0.798844 0.453128 0.747119
O O3 0.868426 0.356712 0.603193
O O4 0.000000 0.500000 0.752014
O O5 0.933290 0.248435 0.237998
O O6 0.077386 0.219247 0.111694
O O7 0.951376 0.295567 0.041436
O O8 0.282940 0.870786 0.918597
O O9 0.500000 0.000000 0.461749
#
# Coordination Sequence:
#
# PCOD8326610 Si02
#       4
#    12  12  12  12
#     4  11  23  46  68 112 149 189 245 302 367 457
#     4  12  26  48  73 106 146 195 250 308 360 444
#     4  12  24  45  78 108 150 196 241 307 378 445
#     4  11  25  45  78 109 150 191 246 308 382 447
#
# _framework density 23.491634000000001
#
# number of rings (size 3 to 8) (size 9 to 14) (size 15 to 20)
#    0.000    0.500    7.500    1.500    0.000    8.000 
#    0.000    0.000    0.000    3.000    0.000    0.000 
#    0.000    0.000    0.000    0.000    0.000    0.000 
#
# Total GULP energy -594863.076732 kJ/mol
# GULP energy per Si atom -12392.980765 kJ/mol
# Density = 2.343817 g / cm^3
# Si number density = 23.491634 Si / 1000 Ang^3
#
#
#
# Elastic Constant Matrix: (Units=GPa)
#
#
# Indices 1 2 3 4 5 6 
#
# 1 138.5871 58.1308 56.4153 0.0000 0.0000 0.0000
# 2 58.1308 138.5871 56.4153 0.0000 0.0000 0.0000
# 3 56.4153 56.4153 132.5837 0.0000 0.0000 0.0000
# 4 0.0000 0.0000 0.0000 31.7332 0.0000 0.0000
# 5 0.0000 0.0000 0.0000 0.0000 31.7332 0.0000
# 6 0.0000 0.0000 0.0000 0.0000 0.0000 40.2281
#
#
#
# Elastic Compliance Matrix: (Units=1/GPa)
#
#
# Indices 1 2 3 4 5 6 
#
# 1 0.009577 -0.002852 -0.002861 0.000000 0.000000 0.000000
# 2 -0.002852 0.009577 -0.002861 0.000000 0.000000 0.000000
# 3 -0.002861 -0.002861 0.009977 0.000000 0.000000 0.000000
# 4 0.000000 0.000000 0.000000 0.031513 0.000000 0.000000
# 5 0.000000 0.000000 0.000000 0.000000 0.031513 0.000000
# 6 0.000000 0.000000 0.000000 0.000000 0.000000 0.024858
#
#
# Mechanical properties :
#
#
# Convention : Reuss Voigt Hill
#
# Bulk Modulus (GPa) = 83.46404 83.52009 83.49207
# Shear Modulus (GPa) = 36.19032 36.65869 36.42451
#
# Velocity S-wave (km/s) = 3.92926 3.95460 3.94195
# Velocity P-wave (km/s) = 7.49612 7.51546 7.50580
#
# Compressibility (1/GPa) = 0.01198121
#
# Stress axis : x y z
#
# Youngs Moduli (GPa) = 104.41841 104.41841 100.22585
#
# Poissons Ratio (x) = 0.29783 0.28678
# Poissons Ratio (y) = 0.29783 0.28678
# Poissons Ratio (z) = 0.29878 0.29878
#
# Static dielectric constant tensor:
#      x y z
#    x 4.743940 0.000000 0.000000 
#    y 0.000000 4.743940 0.000000 
#    z 0.000000 0.000000 3.990720 
# 
# 
# High freq. dielectric constant tensor:
#      x y z
#    x 1.937260 0.000000 0.000000 
#    y 0.000000 1.937260 0.000000 
#    z 0.000000 0.000000 1.921590 
# 
# From -- ./inp_files/542.got.cif
#   From: 2010.03.12/outbox.cif.g09.slc.cpg/sg184_cif.got.tgz:542.got - 2010.04.01 11:54:36.
