data_PCOD8326806
_publ_section_title
;
Structure prediction by ZEFSAII (Michael W. Deem and Ramdas Pophale) SiO2 
 PCOD8326806
Probable space group: P 63 M C
;
_chemical_formula_sum "Si O2"
_cell_formula_units_Z 84
_cell_length_a 17.859595
_cell_length_b 17.859595
_cell_length_c 15.558959
_cell_angle_alpha 90.000000
_cell_angle_beta 90.000000
_cell_angle_gamma 120.000000
_cell_volume 4297.880940
_symmetry_space_group_name_H-M "P 63 M C"
_symmetry_group_IT_number 186
_symmetry_cell_setting 'hexagonal'
loop_
_space_group_symop_operation_xyz
x,y,z
x-y,x,1/2+z
-y,x-y,z
-x,-y,1/2+z
-x+y,-x,z
y,-x+y,1/2+z
-x+y,y,z
x,x-y,z
-y,-x,z
y,x,1/2+z
x-y,-y,1/2+z
-x,-x+y,1/2+z
loop_
_atom_site_type_symbol
_atom_site_label
_atom_site_fract_x
_atom_site_fract_y
_atom_site_fract_z
Si Si1 0.055584 0.768120 0.603250
Si Si2 0.168456 0.501045 0.295492
Si Si3 0.060519 0.766537 0.932832
Si Si4 0.827353 0.825712 0.268384
Si Si5 0.667259 0.498191 0.592755
Si Si6 0.404081 0.431757 0.576659
Si Si7 0.581471 0.584514 0.391502
O O1 0.146097 0.853904 0.587579
O O2 0.006218 0.775972 0.685427
O O3 0.074298 0.688622 0.624016
O O4 0.997870 0.746938 0.517635
O O5 0.240077 0.480154 0.334349
O O6 0.186057 0.593029 0.332287
O O7 0.175199 0.505033 0.194325
O O8 0.071479 0.427299 0.319147
O O9 0.156784 0.843217 0.951985
O O10 0.016972 0.790870 0.856107
O O11 0.067198 0.682960 0.901278
O O12 0.928243 0.856485 0.258346
O O13 0.814803 0.907402 0.271367
O O14 0.760891 0.521782 0.554506
O O15 0.595249 0.404752 0.556931
O O16 0.642327 0.569109 0.565508
O O17 0.480588 0.519413 0.623278
O O18 0.393544 0.453779 0.478833
O O19 0.519153 0.480847 0.371561
#
# Coordination Sequence:
#
# PCOD8326806 Si02
#       7
#    12  12  12  12  12  12  12
#     4  10  21  37  57  81 108 142 184 230 277 328
#     4   9  17  29  48  76 108 138 168 204 253 312
#     4  10  21  37  57  81 108 142 184 230 277 328
#     4  10  21  36  55  80 110 142 180 228 285 340
#     4   9  17  29  48  76 108 138 168 204 253 312
#     4   9  19  34  50  72 105 140 171 209 258 311
#     4   9  19  34  50  72 105 140 171 209 258 311
#
# _framework density 19.544515000000001
#
# number of rings (size 3 to 8) (size 9 to 14) (size 15 to 20)
#    0.000    2.571    0.000    1.286    2.000    6.857 
#    0.000    0.000    0.000    5.143    0.000    0.000 
#    0.000    0.000    0.000    0.000    0.000    0.000 
#
# Total GULP energy -1040667.592826 kJ/mol
# GULP energy per Si atom -12388.899915 kJ/mol
# Density = 1.950003 g / cm^3
# Si number density = 19.544515 Si / 1000 Ang^3
#
#
#
# Elastic Constant Matrix: (Units=GPa)
#
#
# Indices 1 2 3 4 5 6 
#
# 1 96.8425 64.8544 28.5271 0.0000 0.0000 0.0000
# 2 64.8544 96.8425 28.5271 0.0000 0.0000 0.0000
# 3 28.5271 28.5271 59.3039 0.0000 0.0000 0.0000
# 4 0.0000 0.0000 0.0000 24.1318 0.0000 0.0000
# 5 0.0000 0.0000 0.0000 0.0000 24.1318 0.0000
# 6 0.0000 0.0000 0.0000 0.0000 0.0000 15.9940
#
#
#
# Elastic Compliance Matrix: (Units=1/GPa)
#
#
# Indices 1 2 3 4 5 6 
#
# 1 0.019355 -0.011907 -0.003583 0.000000 0.000000 0.000000
# 2 -0.011907 0.019355 -0.003583 0.000000 0.000000 0.000000
# 3 -0.003583 -0.003583 0.020309 0.000000 0.000000 0.000000
# 4 0.000000 0.000000 0.000000 0.041439 0.000000 0.000000
# 5 0.000000 0.000000 0.000000 0.000000 0.041439 0.000000
# 6 0.000000 0.000000 0.000000 0.000000 0.000000 0.062523
#
#
# Mechanical properties :
#
#
# Convention : Reuss Voigt Hill
#
# Bulk Modulus (GPa) = 47.90516 55.20065 51.55291
# Shear Modulus (GPa) = 20.03809 21.59020 20.81414
#
# Velocity S-wave (km/s) = 3.20543 3.32726 3.26691
# Velocity P-wave (km/s) = 6.18577 6.56245 6.37689
#
# Compressibility (1/GPa) = 0.02087458
#
# Stress axis : x y z
#
# Youngs Moduli (GPa) = 51.66575 51.66575 49.23819
#
# Poissons Ratio (x) = 0.61516 0.17642
# Poissons Ratio (y) = 0.61516 0.17642
# Poissons Ratio (z) = 0.18512 0.18512
#
# Static dielectric constant tensor:
#      x y z
#    x 3.566880 0.000000 0.000000 
#    y 0.000000 3.566880 0.000000 
#    z 0.000000 0.000000 3.573800 
# 
# 
# High freq. dielectric constant tensor:
#      x y z
#    x 1.756190 0.000000 0.000000 
#    y 0.000000 1.756190 0.000000 
#    z 0.000000 0.000000 1.752670 
# 
# From -- ./inp_files/2552.got.cif
#   From: 2010.03.12/outbox.cif.g09.slc.cpg/sg186_2_cif.got.tgz:2552.got - 2010.04.01 11:56:34.
