data_PCOD8326134
_publ_section_title
;
Structure prediction by ZEFSAII (Michael W. Deem and Ramdas Pophale) SiO2 
 PCOD8326134
Probable space group: P 62 2 2
;
_chemical_formula_sum "Si O2"
_cell_formula_units_Z 33
_cell_length_a 8.937069
_cell_length_b 8.937069
_cell_length_c 23.775544
_cell_angle_alpha 90.000000
_cell_angle_beta 90.000000
_cell_angle_gamma 120.000000
_cell_volume 1644.566034
_symmetry_space_group_name_H-M "P 62 2 2"
_symmetry_group_IT_number 180
_symmetry_cell_setting 'hexagonal'
loop_
_space_group_symop_operation_xyz
x,y,z
x-y,x,1/3+z
-y,x-y,2/3+z
-x,-y,z
-x+y,-x,1/3+z
y,-x+y,2/3+z
x-y,-y,-z
-x,-x+y,1/3-z
y,x,2/3-z
-y,-x,2/3-z
-x+y,y,-z
x,x-y,1/3-z
loop_
_atom_site_type_symbol
_atom_site_label
_atom_site_fract_x
_atom_site_fract_y
_atom_site_fract_z
Si Si1 0.711614 0.682852 0.113085
Si Si2 0.500000 0.500000 0.213725
Si Si3 0.000000 0.000000 0.833334
Si Si4 0.661774 0.393362 0.605421
O O1 0.624712 0.661391 0.174508
O O2 0.593885 0.704876 0.064939
O O3 0.723152 0.511427 0.098233
O O4 0.898038 0.847626 0.121404
O O5 0.614225 0.443075 0.250687
O O6 0.620288 0.310144 0.666667
#
# Coordination Sequence:
#
# PCOD8326134 Si02
#       4
#    12   6   3  12
#     4  10  21  40  63  92 125 172 222 266 323 402
#     4  10  17  40  66  92 120 176 221 264 312 416
#     4  12  20  44  68  92 132 174 228 292 316 386
#     4  10  20  39  64  91 128 167 212 273 330 400
#
# _framework density 20.066081000000001
#
# number of rings (size 3 to 8) (size 9 to 14) (size 15 to 20)
#    0.000    2.182    3.636    3.818    0.000    0.000 
#   13.091    2.727    0.000    0.000    0.000    0.000 
#    0.000    0.000    0.000    0.000    0.000    0.000 
#
# Total GULP energy -408908.369146 kJ/mol
# GULP energy per Si atom -12391.162701 kJ/mol
# Density = 2.002041 g / cm^3
# Si number density = 20.066081 Si / 1000 Ang^3
#
#
#
# Elastic Constant Matrix: (Units=GPa)
#
#
# Indices 1 2 3 4 5 6 
#
# 1 127.6476 54.4834 43.0269 0.0000 0.0000 0.0000
# 2 54.4834 127.6476 43.0269 0.0000 0.0000 0.0000
# 3 43.0269 43.0269 88.8087 0.0000 0.0000 0.0000
# 4 0.0000 0.0000 0.0000 30.4241 0.0000 0.0000
# 5 0.0000 0.0000 0.0000 0.0000 30.4241 0.0000
# 6 0.0000 0.0000 0.0000 0.0000 0.0000 36.5821
#
#
#
# Elastic Compliance Matrix: (Units=1/GPa)
#
#
# Indices 1 2 3 4 5 6 
#
# 1 0.010394 -0.003274 -0.003450 0.000000 0.000000 0.000000
# 2 -0.003274 0.010394 -0.003450 0.000000 0.000000 0.000000
# 3 -0.003450 -0.003450 0.014603 0.000000 0.000000 0.000000
# 4 0.000000 0.000000 0.000000 0.032869 0.000000 0.000000
# 5 0.000000 0.000000 0.000000 0.000000 0.032869 0.000000
# 6 0.000000 0.000000 0.000000 0.000000 0.000000 0.027336
#
#
# Mechanical properties :
#
#
# Convention : Reuss Voigt Hill
#
# Bulk Modulus (GPa) = 66.46842 69.46425 67.96633
# Shear Modulus (GPa) = 32.50426 33.05719 32.78073
#
# Velocity S-wave (km/s) = 4.02912 4.06324 4.04621
# Velocity P-wave (km/s) = 7.40552 7.53035 7.46819
#
# Compressibility (1/GPa) = 0.01504474
#
# Stress axis : x y z
#
# Youngs Moduli (GPa) = 96.20743 96.20743 68.47922
#
# Poissons Ratio (x) = 0.31495 0.23624
# Poissons Ratio (y) = 0.31495 0.23624
# Poissons Ratio (z) = 0.33190 0.33190
#
# Static dielectric constant tensor:
#      x y z
#    x 3.625380 0.000000 0.000000 
#    y 0.000000 3.625380 0.000000 
#    z 0.000000 0.000000 3.406060 
# 
# 
# High freq. dielectric constant tensor:
#      x y z
#    x 1.778210 0.000000 0.000000 
#    y 0.000000 1.778210 0.000000 
#    z 0.000000 0.000000 1.761470 
# 
# From -- ./inp_files/10652.got.cif
#   From: 2010.03.12/outbox.cif.g09.slc.cpg/sg180_6_cif.got.tgz:10652.got - 2010.04.01 11:35:50.
