data_PCOD8326729
_publ_section_title
;
Structure prediction by ZEFSAII (Michael W. Deem and Ramdas Pophale) SiO2 
 PCOD8326729
Probable space group: P 63 M C
;
_chemical_formula_sum "Si O2"
_cell_formula_units_Z 96
_cell_length_a 16.892276
_cell_length_b 16.892276
_cell_length_c 24.109080
_cell_angle_alpha 90.000000
_cell_angle_beta 90.000000
_cell_angle_gamma 120.000000
_cell_volume 5957.823143
_symmetry_space_group_name_H-M "P 63 M C"
_symmetry_group_IT_number 186
_symmetry_cell_setting 'hexagonal'
loop_
_space_group_symop_operation_xyz
x,y,z
x-y,x,1/2+z
-y,x-y,z
-x,-y,1/2+z
-x+y,-x,z
y,-x+y,1/2+z
-x+y,y,z
x,x-y,z
-y,-x,z
y,x,1/2+z
x-y,-y,1/2+z
-x,-x+y,1/2+z
loop_
_atom_site_type_symbol
_atom_site_label
_atom_site_fract_x
_atom_site_fract_y
_atom_site_fract_z
Si Si1 0.281368 0.376690 0.086580
Si Si2 0.816292 0.818374 0.555164
Si Si3 0.519782 0.853855 0.193731
Si Si4 0.481136 0.333204 0.478842
Si Si5 0.848182 0.333806 0.914517
Si Si6 0.954718 0.387373 0.802801
Si Si7 0.715025 0.945816 0.439824
Si Si8 0.093591 0.725879 0.869945
O O1 0.195158 0.390315 0.086395
O O2 0.247331 0.268893 0.093710
O O3 0.344864 0.431843 0.138523
O O4 0.332451 0.414810 0.027678
O O5 0.920643 0.841286 0.554137
O O6 0.774965 0.790717 0.494235
O O7 0.812896 0.906448 0.577650
O O8 0.417273 0.834545 0.197731
O O9 0.515384 0.757692 0.192651
O O10 0.579581 0.911654 0.246270
O O11 0.498551 0.249276 0.485638
O O12 0.576243 0.423758 0.484490
O O13 0.438245 0.330658 0.419120
O O14 0.862441 0.431221 0.936030
O O15 0.741356 0.258645 0.918918
O O16 0.879103 0.341202 0.850735
O O17 0.910612 0.304080 0.950348
O O18 0.985018 0.492509 0.794104
O O19 0.047309 0.386090 0.817149
O O20 0.722223 0.861112 0.415336
O O21 0.758895 0.025789 0.394155
O O22 0.187885 0.812116 0.850178
#
# Coordination Sequence:
#
# PCOD8326729 Si02
#       8
#    12  12  12  12  12  12  12  12
#     4   9  18  31  46  68  96 124 152 189 237 282
#     4  10  18  31  48  67  89 117 155 197 240 284
#     4  10  19  32  50  72  99 129 161 193 228 276
#     4  10  18  28  44  67  97 128 157 186 227 284
#     4   9  16  26  40  61  88 122 157 190 227 272
#     4   9  18  30  44  65  92 121 156 194 232 270
#     4   9  17  28  43  63  91 120 152 195 238 281
#     4  10  18  30  47  67  91 123 158 194 240 289
#
# _framework density 16.113268000000001
#
# number of rings (size 3 to 8) (size 9 to 14) (size 15 to 20)
#    0.000    2.500    1.250    2.000    0.000    1.000 
#    0.000    3.125    0.000    0.500    0.000    0.000 
#    0.000    1.000    0.000    8.250    0.000    0.000 
#
# Total GULP energy -1189966.833096 kJ/mol
# GULP energy per Si atom -12395.487845 kJ/mol
# Density = 1.607659 g / cm^3
# Si number density = 16.113268 Si / 1000 Ang^3
#
#
#
# Elastic Constant Matrix: (Units=GPa)
#
#
# Indices 1 2 3 4 5 6 
#
# 1 82.9949 32.8064 34.2396 0.0000 0.0000 0.0000
# 2 32.8064 82.9949 34.2396 0.0000 0.0000 0.0000
# 3 34.2396 34.2396 58.7243 0.0000 0.0000 0.0000
# 4 0.0000 0.0000 0.0000 21.9514 0.0000 0.0000
# 5 0.0000 0.0000 0.0000 0.0000 21.9514 0.0000
# 6 0.0000 0.0000 0.0000 0.0000 0.0000 25.0942
#
#
#
# Elastic Compliance Matrix: (Units=1/GPa)
#
#
# Indices 1 2 3 4 5 6 
#
# 1 0.016552 -0.003373 -0.007685 0.000000 0.000000 0.000000
# 2 -0.003373 0.016552 -0.007685 0.000000 0.000000 0.000000
# 3 -0.007685 -0.007685 0.025990 0.000000 0.000000 0.000000
# 4 0.000000 0.000000 0.000000 0.045555 0.000000 0.000000
# 5 0.000000 0.000000 0.000000 0.000000 0.045555 0.000000
# 6 0.000000 0.000000 0.000000 0.000000 0.000000 0.039850
#
#
# Mechanical properties :
#
#
# Convention : Reuss Voigt Hill
#
# Bulk Modulus (GPa) = 46.27253 47.47616 46.87434
# Shear Modulus (GPa) = 21.30003 22.02798 21.66401
#
# Velocity S-wave (km/s) = 3.63973 3.70140 3.67070
# Velocity P-wave (km/s) = 6.81490 6.91340 6.86433
#
# Compressibility (1/GPa) = 0.02161110
#
# Stress axis : x y z
#
# Youngs Moduli (GPa) = 60.41453 60.41453 38.47670
#
# Poissons Ratio (x) = 0.20375 0.29568
# Poissons Ratio (y) = 0.20375 0.29568
# Poissons Ratio (z) = 0.46426 0.46426
#
# Static dielectric constant tensor:
#      x y z
#    x 3.141910 0.000000 0.000000 
#    y 0.000000 3.141910 0.000000 
#    z 0.000000 0.000000 2.973630 
# 
# 
# High freq. dielectric constant tensor:
#      x y z
#    x 1.620110 0.000000 0.000000 
#    y 0.000000 1.620110 0.000000 
#    z 0.000000 0.000000 1.588480 
# 
# From -- ./inp_files/3895.got.cif
#   From: 2010.03.12/outbox.cif.g09.slc.cpg/sg186_2_cif.got.tgz:3895.got - 2010.04.01 11:56:34.
