data_PCOD8326020
_publ_section_title
;
Structure prediction by ZEFSAII (Michael W. Deem and Ramdas Pophale) SiO2 
 PCOD8326020
Probable space group: P 65 2 2
;
_chemical_formula_sum "Si O2"
_cell_formula_units_Z 42
_cell_length_a 15.253644
_cell_length_b 15.253644
_cell_length_c 10.524712
_cell_angle_alpha 90.000000
_cell_angle_beta 90.000000
_cell_angle_gamma 120.000000
_cell_volume 2120.743111
_symmetry_space_group_name_H-M "P 65 2 2"
_symmetry_group_IT_number 179
_symmetry_cell_setting 'hexagonal'
loop_
_space_group_symop_operation_xyz
x,y,z
x-y,x,5/6+z
-y,x-y,2/3+z
-x,-y,1/2+z
-x+y,-x,1/3+z
y,-x+y,1/6+z
x-y,-y,-z
-x,-x+y,1/3-z
y,x,2/3-z
-y,-x,1/6-z
-x+y,y,1/2-z
x,x-y,5/6-z
loop_
_atom_site_type_symbol
_atom_site_label
_atom_site_fract_x
_atom_site_fract_y
_atom_site_fract_z
Si Si1 0.507804 0.753902 0.916667
Si Si2 0.921591 0.275792 0.563892
Si Si3 0.579672 0.144431 0.889522
Si Si4 0.356991 0.338049 0.468411
O O1 0.440536 0.667843 0.813604
O O2 0.574599 0.714189 0.991120
O O3 0.836381 0.163620 0.583334
O O4 0.880883 0.351107 0.603322
O O5 0.000000 0.284582 0.666667
O O6 0.967688 0.286418 0.422712
O O7 0.597242 0.194484 0.750000
O O8 0.577611 0.037471 0.882435
O O9 0.296075 0.296075 0.333334
#
# Coordination Sequence:
#
# PCOD8326020 Si02
#       4
#     6  12  12  12
#     4  10  18  36  70  90 122 170 212 258 310 376
#     4  11  24  40  61  90 127 163 202 257 317 371
#     4   9  20  40  60  90 129 162 207 255 308 371
#     4   9  20  37  65  87 121 160 211 255 302 369
#
# _framework density 19.804378
#
# number of rings (size 3 to 8) (size 9 to 14) (size 15 to 20)
#    0.000    2.286    0.000    2.571   12.000    0.000 
#    7.714    4.286    0.000    0.000    3.714    0.000 
#    0.000    0.000    0.000    0.000    0.000    0.000 
#
# Total GULP energy -520383.575365 kJ/mol
# GULP energy per Si atom -12390.085128 kJ/mol
# Density = 1.975930 g / cm^3
# Si number density = 19.804378 Si / 1000 Ang^3
#
#
#
# Elastic Constant Matrix: (Units=GPa)
#
#
# Indices 1 2 3 4 5 6 
#
# 1 189.2047 -21.7392 75.6774 0.0000 0.0000 0.0000
# 2 -21.7392 189.2047 75.6774 0.0000 0.0000 0.0000
# 3 75.6774 75.6774 187.6290 0.0000 0.0000 0.0000
# 4 0.0000 0.0000 0.0000 45.2338 0.0000 0.0000
# 5 0.0000 0.0000 0.0000 0.0000 45.2338 0.0000
# 6 0.0000 0.0000 0.0000 0.0000 0.0000 105.4720
#
#
#
# Elastic Compliance Matrix: (Units=1/GPa)
#
#
# Indices 1 2 3 4 5 6 
#
# 1 0.007069 0.002328 -0.003790 0.000000 0.000000 0.000000
# 2 0.002328 0.007069 -0.003790 0.000000 0.000000 0.000000
# 3 -0.003790 -0.003790 0.008387 0.000000 0.000000 0.000000
# 4 0.000000 0.000000 0.000000 0.022107 0.000000 0.000000
# 5 0.000000 0.000000 0.000000 0.000000 0.022107 0.000000
# 6 0.000000 0.000000 0.000000 0.000000 0.000000 0.009481
#
#
# Mechanical properties :
#
#
# Convention : Reuss Voigt Hill
#
# Bulk Modulus (GPa) = 83.19204 91.69663 87.44434
# Shear Modulus (GPa) = 55.10784 68.28279 61.69531
#
# Velocity S-wave (km/s) = 5.28077 5.87822 5.58749
# Velocity P-wave (km/s) = 8.90394 9.61629 9.26696
#
# Compressibility (1/GPa) = 0.01202038
#
# Stress axis : x y z
#
# Youngs Moduli (GPa) = 141.46837 141.46837 119.23200
#
# Poissons Ratio (x) = -0.32936 0.45190
# Poissons Ratio (y) = -0.32936 0.45190
# Poissons Ratio (z) = 0.53618 0.53618
#
# Static dielectric constant tensor:
#      x y z
#    x 3.385370 0.000000 0.000000 
#    y 0.000000 3.385370 0.000000 
#    z 0.000000 0.000000 4.332120 
# 
# 
# High freq. dielectric constant tensor:
#      x y z
#    x 1.747050 0.000000 0.000000 
#    y 0.000000 1.747050 0.000000 
#    z 0.000000 0.000000 1.796790 
# 
# From -- ./inp_files/4070.got.cif
#   From: 2010.03.12/outbox.cif.g09.slc.cpg/sg179_3_cif.got.tgz:4070.got - 2010.04.02 07:08:42.
