data_PCOD8326471
_publ_section_title
;
Structure prediction by ZEFSAII (Michael W. Deem and Ramdas Pophale) SiO2 
 PCOD8326471
Probable space group: P 63 2 2
;
_chemical_formula_sum "Si O2"
_cell_formula_units_Z 52
_cell_length_a 15.794321
_cell_length_b 15.794321
_cell_length_c 14.907480
_cell_angle_alpha 90.000000
_cell_angle_beta 90.000000
_cell_angle_gamma 120.000000
_cell_volume 3220.599993
_symmetry_space_group_name_H-M "P 63 2 2"
_symmetry_group_IT_number 182
_symmetry_cell_setting 'hexagonal'
loop_
_space_group_symop_operation_xyz
x,y,z
x-y,x,1/2+z
-y,x-y,z
-x,-y,1/2+z
-x+y,-x,z
y,-x+y,1/2+z
x-y,-y,-z
-x,-x+y,-z
y,x,-z
-y,-x,1/2-z
-x+y,y,1/2-z
x,x-y,1/2-z
loop_
_atom_site_type_symbol
_atom_site_label
_atom_site_fract_x
_atom_site_fract_y
_atom_site_fract_z
Si Si1 0.079566 0.355184 0.147176
Si Si2 0.197876 0.197876 0.000000
Si Si3 0.666668 0.333335 0.642264
Si Si4 0.275619 0.920432 0.352825
Si Si5 0.441282 0.558723 0.144025
Si Si6 0.000000 0.802126 0.500000
O O1 0.046686 0.326329 0.250001
O O2 0.193875 0.387752 0.135911
O O3 0.062990 0.444559 0.115481
O O4 0.011231 0.261646 0.087518
O O5 0.261649 0.250417 0.912483
O O6 0.185254 0.092628 0.016576
O O7 0.666668 0.333334 0.750000
O O8 0.775115 0.387564 0.601420
O O9 0.381570 0.937006 0.384521
O O10 0.435116 0.564885 0.250000
#
# Coordination Sequence:
#
# PCOD8326471 Si02
#       6
#    12   6   4  12  12   6
#     4   9  17  29  46  69  94 117 144 180 221 270
#     4  10  21  35  48  62  84 118 160 203 241 270
#     4   9  12  18  39  69  99 123 136 158 211 276
#     4   9  17  29  46  69  94 117 144 180 221 270
#     4   9  14  23  43  71  98 121 140 165 214 275
#     4  10  21  35  48  62  84 118 160 203 241 270
#
# _framework density 16.146059999999999
#
# number of rings (size 3 to 8) (size 9 to 14) (size 15 to 20)
#    0.000    2.769    2.308    0.231    0.000    1.846 
#    0.000    0.000    0.000    2.769    0.000    0.000 
#    2.308    0.000    1.385    0.000    0.000    0.000 
#
# Total GULP energy -644481.369940 kJ/mol
# GULP energy per Si atom -12393.872499 kJ/mol
# Density = 1.610931 g / cm^3
# Si number density = 16.146060 Si / 1000 Ang^3
#
#
#
# Elastic Constant Matrix: (Units=GPa)
#
#
# Indices 1 2 3 4 5 6 
#
# 1 110.8959 65.2705 50.3547 0.0000 0.0000 0.0000
# 2 65.2705 110.8955 50.3547 0.0000 0.0000 0.0000
# 3 50.3547 50.3547 71.3358 0.0000 0.0000 0.0000
# 4 0.0000 0.0000 0.0000 19.0509 0.0000 0.0000
# 5 0.0000 0.0000 0.0000 0.0000 19.0509 0.0000
# 6 0.0000 0.0000 0.0000 0.0000 0.0000 22.8127
#
#
#
# Elastic Compliance Matrix: (Units=1/GPa)
#
#
# Indices 1 2 3 4 5 6 
#
# 1 0.015717 -0.006200 -0.006718 0.000000 0.000000 0.000000
# 2 -0.006200 0.015717 -0.006718 0.000000 0.000000 0.000000
# 3 -0.006718 -0.006718 0.023502 0.000000 0.000000 0.000000
# 4 0.000000 0.000000 0.000000 0.052491 0.000000 0.000000
# 5 0.000000 0.000000 0.000000 0.000000 0.052491 0.000000
# 6 0.000000 0.000000 0.000000 0.000000 0.000000 0.043835
#
#
# Mechanical properties :
#
#
# Convention : Reuss Voigt Hill
#
# Bulk Modulus (GPa) = 63.83774 69.45409 66.64592
# Shear Modulus (GPa) = 20.14124 20.65942 20.40033
#
# Velocity S-wave (km/s) = 3.53574 3.58094 3.55841
# Velocity P-wave (km/s) = 7.50281 7.75932 7.63214
#
# Compressibility (1/GPa) = 0.01566472
#
# Stress axis : x y z
#
# Youngs Moduli (GPa) = 63.62457 63.62421 42.54943
#
# Poissons Ratio (x) = 0.39450 0.28583
# Poissons Ratio (y) = 0.39450 0.28584
# Poissons Ratio (z) = 0.42741 0.42741
#
# Static dielectric constant tensor:
#      x y z
#    x 3.050650 0.000000 0.000000 
#    y 0.000000 3.050650 0.000000 
#    z 0.000000 0.000000 2.805720 
# 
# 
# High freq. dielectric constant tensor:
#      x y z
#    x 1.615660 0.000000 0.000000 
#    y 0.000000 1.615660 0.000000 
#    z 0.000000 0.000000 1.589580 
# 
# From -- ./inp_files/3372.got.cif
#   From: 2010.03.12/outbox.cif.g09.slc.cpg/sg182_2_cif.got.tgz:3372.got - 2010.04.01 11:49:36.
