data_PCOD8326304
_publ_section_title
;
Structure prediction by ZEFSAII (Michael W. Deem and Ramdas Pophale) SiO2 
 PCOD8326304
Probable space group: P 64 2 2
;
_chemical_formula_sum "Si O2"
_cell_formula_units_Z 39
_cell_length_a 8.427561
_cell_length_b 8.427561
_cell_length_c 28.077969
_cell_angle_alpha 90.000000
_cell_angle_beta 90.000000
_cell_angle_gamma 120.000000
_cell_volume 1727.030993
_symmetry_space_group_name_H-M "P 64 2 2"
_symmetry_group_IT_number 181
_symmetry_cell_setting 'hexagonal'
loop_
_space_group_symop_operation_xyz
x,y,z
x-y,x,2/3+z
-y,x-y,1/3+z
-x,-y,z
-x+y,-x,2/3+z
y,-x+y,1/3+z
x-y,-y,-z
-x,-x+y,2/3-z
y,x,1/3-z
-y,-x,1/3-z
-x+y,y,-z
x,x-y,2/3-z
loop_
_atom_site_type_symbol
_atom_site_label
_atom_site_fract_x
_atom_site_fract_y
_atom_site_fract_z
Si Si1 0.789423 0.729028 0.741586
Si Si2 0.000000 0.000000 0.666667
Si Si3 0.500000 0.000000 0.780300
Si Si4 0.327421 0.606013 0.612298
Si Si5 0.128216 0.871785 0.166667
O O1 0.740332 0.519673 0.747428
O O2 0.606580 0.727893 0.723759
O O3 0.859849 0.844270 0.791267
O O4 0.948957 0.828161 0.701801
O O5 0.632983 0.172749 0.747024
O O6 0.382128 0.051816 0.813783
O O7 0.336972 0.663029 0.666667
#
# Coordination Sequence:
#
# PCOD8326304 Si02
#       5
#    12   3   6  12   6
#     4  10  20  35  65  86 132 164 231 274 339 387
#     4  12  20  36  60  96 116 188 212 294 320 400
#     4  10  20  34  64  89 134 173 228 272 356 406
#     4  10  18  38  59  95 123 173 215 286 329 411
#     4  10  20  37  54  96 122 175 214 279 330 418
#
# _framework density 22.582107000000001
#
# number of rings (size 3 to 8) (size 9 to 14) (size 15 to 20)
#    0.000    1.846    3.077    4.615    0.000    0.615 
#   11.077    0.000    0.000    0.000    0.000    8.615 
#    0.000    0.000    0.000    0.000    0.000    0.000 
#
# Total GULP energy -483340.390137 kJ/mol
# GULP energy per Si atom -12393.343337 kJ/mol
# Density = 2.253071 g / cm^3
# Si number density = 22.582107 Si / 1000 Ang^3
#
#
#
# Elastic Constant Matrix: (Units=GPa)
#
#
# Indices 1 2 3 4 5 6 
#
# 1 104.0938 43.8726 55.3614 0.0000 0.0000 0.0000
# 2 43.8726 104.0938 55.3614 0.0000 0.0000 0.0000
# 3 55.3614 55.3614 174.6307 0.0000 0.0000 0.0000
# 4 0.0000 0.0000 0.0000 20.0887 0.0000 0.0000
# 5 0.0000 0.0000 0.0000 0.0000 20.0887 0.0000
# 6 0.0000 0.0000 0.0000 0.0000 0.0000 30.1106
#
#
#
# Elastic Compliance Matrix: (Units=1/GPa)
#
#
# Indices 1 2 3 4 5 6 
#
# 1 0.012733 -0.003873 -0.002809 0.000000 0.000000 0.000000
# 2 -0.003873 0.012733 -0.002809 0.000000 0.000000 0.000000
# 3 -0.002809 -0.002809 0.007507 0.000000 0.000000 0.000000
# 4 0.000000 0.000000 0.000000 0.049779 0.000000 0.000000
# 5 0.000000 0.000000 0.000000 0.000000 0.049779 0.000000
# 6 0.000000 0.000000 0.000000 0.000000 0.000000 0.033211
#
#
# Mechanical properties :
#
#
# Convention : Reuss Voigt Hill
#
# Bulk Modulus (GPa) = 71.46839 76.88990 74.17914
# Shear Modulus (GPa) = 26.40095 29.27245 27.83670
#
# Velocity S-wave (km/s) = 3.42293 3.60428 3.51478
# Velocity P-wave (km/s) = 6.88033 7.17245 7.02791
#
# Compressibility (1/GPa) = 0.01399220
#
# Stress axis : x y z
#
# Youngs Moduli (GPa) = 78.53740 78.53740 133.20391
#
# Poissons Ratio (x) = 0.30415 0.37415
# Poissons Ratio (y) = 0.30415 0.37415
# Poissons Ratio (z) = 0.22060 0.22060
#
# Static dielectric constant tensor:
#      x y z
#    x 4.014700 0.000000 0.000000 
#    y 0.000000 4.014700 0.000000 
#    z 0.000000 0.000000 4.634810 
# 
# 
# High freq. dielectric constant tensor:
#      x y z
#    x 1.867510 0.000000 0.000000 
#    y 0.000000 1.867510 0.000000 
#    z 0.000000 0.000000 1.914120 
# 
# From -- ./inp_files/11827.got.cif
#   From: 2010.03.12/outbox.cif.g09.slc.cpg/sg181_6_cif.got.tgz:11827.got - 2010.04.01 11:42:41.
