data_PCOD8326868
_publ_section_title
;
Structure prediction by ZEFSAII (Michael W. Deem and Ramdas Pophale) SiO2 
 PCOD8326868
Probable space group: P -6 M 2
;
_chemical_formula_sum "Si O2"
_cell_formula_units_Z 72
_cell_length_a 23.772784
_cell_length_b 23.772784
_cell_length_c 9.038536
_cell_angle_alpha 90.000000
_cell_angle_beta 90.000000
_cell_angle_gamma 120.000000
_cell_volume 4423.732041
_symmetry_space_group_name_H-M "P -6 M 2"
_symmetry_group_IT_number 187
_symmetry_cell_setting 'hexagonal'
loop_
_space_group_symop_operation_xyz
x,y,z
-x+y,-x,-z
-y,x-y,z
x,y,-z
-x+y,-x,z
-y,x-y,-z
-y,-x,-z
-x+y,y,-z
x,x-y,-z
-x+y,y,z
x,x-y,z
-y,-x,z
loop_
_atom_site_type_symbol
_atom_site_label
_atom_site_fract_x
_atom_site_fract_y
_atom_site_fract_z
Si Si1 0.369154 0.503560 0.828049
Si Si2 0.152979 0.305957 0.674312
Si Si3 0.004801 0.237971 0.676499
Si Si4 0.371352 0.307896 0.169437
Si Si5 0.886651 0.773301 0.670946
Si Si6 0.222482 0.444963 0.172598
Si Si7 0.355082 0.177541 0.834804
Si Si8 0.563660 0.998449 0.672159
O O1 0.421482 0.578519 0.789277
O O2 0.297818 0.488786 0.782416
O O3 0.383153 0.454636 0.735802
O O4 0.372932 0.489524 0.000000
O O5 0.157959 0.315917 0.500000
O O6 0.078437 0.264452 0.726532
O O7 0.188387 0.376774 0.744639
O O8 0.998763 0.242999 0.500000
O O9 0.980259 0.281987 0.754861
O O10 0.960463 0.161466 0.730718
O O11 0.396344 0.255558 0.181880
O O12 0.425587 0.371843 0.250508
O O13 0.365237 0.324164 0.000000
O O14 0.893726 0.787452 0.500000
O O15 0.848509 0.697018 0.704396
O O16 0.214408 0.428815 0.000000
O O17 0.322186 0.161093 0.000000
O O18 0.576501 0.997484 0.500000
O O19 0.507599 0.015197 0.706696
#
# Coordination Sequence:
#
# PCOD8326868 Si02
#       8
#    12   6  12  12   6   6   6  12
#     4   9  18  33  49  65  86 114 149 189 234 282
#     4  10  20  30  42  63  90 118 148 184 226 274
#     4   9  17  29  44  63  87 116 149 182 221 265
#     4  10  18  29  46  67  91 117 144 176 216 259
#     4   8  14  26  44  61  80 110 144 178 212 254
#     4  10  20  32  46  66  89 113 145 188 234 281
#     4   8  16  28  42  64  91 113 135 166 206 251
#     4  10  20  32  46  65  90 119 150 182 217 261
#
# _framework density 16.275849999999998
#
# number of rings (size 3 to 8) (size 9 to 14) (size 15 to 20)
#    0.000    2.667    0.000    2.000    0.000    5.667 
#    0.500    0.000    0.000    0.333    0.000    2.333 
#    0.833    0.000    0.500    4.833    0.667    6.000 
#
# Total GULP energy -892176.630978 kJ/mol
# GULP energy per Si atom -12391.342097 kJ/mol
# Density = 1.623881 g / cm^3
# Si number density = 16.275850 Si / 1000 Ang^3
#
#
#
# Elastic Constant Matrix: (Units=GPa)
#
#
# Indices 1 2 3 4 5 6 
#
# 1 116.0061 68.0862 39.5733 0.0000 0.0000 0.0000
# 2 68.0862 116.0061 39.5733 0.0000 0.0000 0.0000
# 3 39.5733 39.5733 47.8055 0.0000 0.0000 0.0000
# 4 0.0000 0.0000 0.0000 20.4536 0.0000 0.0000
# 5 0.0000 0.0000 0.0000 0.0000 20.4536 0.0000
# 6 0.0000 0.0000 0.0000 0.0000 0.0000 23.9599
#
#
#
# Elastic Compliance Matrix: (Units=1/GPa)
#
#
# Indices 1 2 3 4 5 6 
#
# 1 0.014651 -0.006217 -0.006981 0.000000 0.000000 0.000000
# 2 -0.006217 0.014651 -0.006981 0.000000 0.000000 0.000000
# 3 -0.006981 -0.006981 0.032476 0.000000 0.000000 0.000000
# 4 0.000000 0.000000 0.000000 0.048891 0.000000 0.000000
# 5 0.000000 0.000000 0.000000 0.000000 0.048891 0.000000
# 6 0.000000 0.000000 0.000000 0.000000 0.000000 0.041736
#
#
# Mechanical properties :
#
#
# Convention : Reuss Voigt Hill
#
# Bulk Modulus (GPa) = 46.68910 63.80927 55.24919
# Shear Modulus (GPa) = 20.09681 21.81240 20.95461
#
# Velocity S-wave (km/s) = 3.51773 3.66480 3.59202
# Velocity P-wave (km/s) = 6.72664 7.56292 7.15700
#
# Compressibility (1/GPa) = 0.02141827
#
# Stress axis : x y z
#
# Youngs Moduli (GPa) = 68.25553 68.25553 30.79175
#
# Poissons Ratio (x) = 0.42437 0.21496
# Poissons Ratio (y) = 0.42437 0.21496
# Poissons Ratio (z) = 0.47651 0.47651
#
# Static dielectric constant tensor:
#      x y z
#    x 3.204620 0.000000 0.000000 
#    y 0.000000 3.204620 0.000000 
#    z 0.000000 0.000000 3.129110 
# 
# 
# High freq. dielectric constant tensor:
#      x y z
#    x 1.613950 0.000000 0.000000 
#    y 0.000000 1.613950 0.000000 
#    z 0.000000 0.000000 1.629870 
# 
# From -- ./inp_files/1112.got.cif
#   From: 2010.03.12/outbox.cif.g09.slc.cpg/sg187_1_cif.got.tgz:1112.got - 2010.04.01 11:58:23.
