data_PCOD8326422
_publ_section_title
;
Structure prediction by ZEFSAII (Michael W. Deem and Ramdas Pophale) SiO2 
 PCOD8326422
Probable space group: P 64 2 2
;
_chemical_formula_sum "Si O2"
_cell_formula_units_Z 84
_cell_length_a 16.892911
_cell_length_b 16.892911
_cell_length_c 15.349662
_cell_angle_alpha 90.000000
_cell_angle_beta 90.000000
_cell_angle_gamma 120.000000
_cell_volume 3793.485570
_symmetry_space_group_name_H-M "P 64 2 2"
_symmetry_group_IT_number 181
_symmetry_cell_setting 'hexagonal'
loop_
_space_group_symop_operation_xyz
x,y,z
x-y,x,2/3+z
-y,x-y,1/3+z
-x,-y,z
-x+y,-x,2/3+z
y,-x+y,1/3+z
x-y,-y,-z
-x,-x+y,2/3-z
y,x,1/3-z
-y,-x,1/3-z
-x+y,y,-z
x,x-y,2/3-z
loop_
_atom_site_type_symbol
_atom_site_label
_atom_site_fract_x
_atom_site_fract_y
_atom_site_fract_z
Si Si1 0.242351 0.810266 0.330663
Si Si2 0.600466 0.015107 0.253473
Si Si3 0.557869 0.702577 0.284410
Si Si4 0.148892 0.005074 0.898066
Si Si5 0.349728 0.058052 0.915808
Si Si6 0.806776 0.704519 0.188513
Si Si7 0.617361 0.360116 0.075052
O O1 0.331126 0.880219 0.277155
O O2 0.163889 0.736948 0.266084
O O3 0.201527 0.865141 0.382041
O O4 0.276983 0.762661 0.398724
O O5 0.634467 0.003818 0.159221
O O6 0.500000 0.000000 0.246140
O O7 0.606203 0.946748 0.323610
O O8 0.521423 0.760712 0.333334
O O9 0.625868 0.779017 0.216251
O O10 0.459554 0.621246 0.249624
O O11 0.112411 0.056206 0.833334
O O12 0.258012 0.060463 0.895348
O O13 0.115319 0.907549 0.851474
O O14 0.115862 0.000000 0.000000
O O15 0.340935 0.000000 0.000000
O O16 0.732505 0.732505 0.166667
O O17 0.654898 0.345102 0.166667
O O18 0.674950 0.349899 0.000000
#
# Coordination Sequence:
#
# PCOD8326422 Si02
#       7
#    12  12  12  12  12  12  12
#     4  12  23  46  70 104 143 190 242 302 373 439
#     4  12  25  43  71 106 143 189 245 303 373 439
#     4  11  24  41  67  99 139 180 238 300 356 440
#     4  11  24  46  74 107 148 189 246 309 380 458
#     4  11  25  45  73 100 141 196 248 308 366 455
#     4  12  24  41  73 106 136 189 240 296 382 449
#     4  11  25  43  69 101 149 197 242 305 369 439
#
# _framework density 22.143222000000002
#
# number of rings (size 3 to 8) (size 9 to 14) (size 15 to 20)
#    0.000    0.571    7.143    2.143    0.000    2.857 
#    2.571    2.857    0.000    0.000    0.000    0.000 
#    0.000    0.000    0.000    0.000    0.000    0.000 
#
# Total GULP energy -1040973.999306 kJ/mol
# GULP energy per Si atom -12392.547611 kJ/mol
# Density = 2.209282 g / cm^3
# Si number density = 22.143222 Si / 1000 Ang^3
#
#
#
# Elastic Constant Matrix: (Units=GPa)
#
#
# Indices 1 2 3 4 5 6 
#
# 1 97.1181 23.3168 40.5571 0.0000 0.0000 0.0000
# 2 23.3168 97.1181 40.5571 0.0000 0.0000 0.0000
# 3 40.5571 40.5571 140.1009 0.0000 0.0000 0.0000
# 4 0.0000 0.0000 0.0000 33.5691 0.0000 0.0000
# 5 0.0000 0.0000 0.0000 0.0000 33.5691 0.0000
# 6 0.0000 0.0000 0.0000 0.0000 0.0000 36.9007
#
#
#
# Elastic Compliance Matrix: (Units=1/GPa)
#
#
# Indices 1 2 3 4 5 6 
#
# 1 0.011932 -0.001618 -0.002986 0.000000 0.000000 0.000000
# 2 -0.001618 0.011932 -0.002986 0.000000 0.000000 0.000000
# 3 -0.002986 -0.002986 0.008866 0.000000 0.000000 0.000000
# 4 0.000000 0.000000 0.000000 0.029789 0.000000 0.000000
# 5 0.000000 0.000000 0.000000 0.000000 0.029789 0.000000
# 6 0.000000 0.000000 0.000000 0.000000 0.000000 0.027100
#
#
# Mechanical properties :
#
#
# Convention : Reuss Voigt Hill
#
# Bulk Modulus (GPa) = 56.97485 60.35543 58.66514
# Shear Modulus (GPa) = 35.60285 36.13488 35.86886
#
# Velocity S-wave (km/s) = 4.01414 4.04402 4.02911
# Velocity P-wave (km/s) = 6.87535 7.00868 6.94233
#
# Compressibility (1/GPa) = 0.01755160
#
# Stress axis : x y z
#
# Youngs Moduli (GPa) = 83.80791 83.80791 112.78531
#
# Poissons Ratio (x) = 0.13559 0.33676
# Poissons Ratio (y) = 0.13559 0.33676
# Poissons Ratio (z) = 0.25023 0.25023
#
# Static dielectric constant tensor:
#      x y z
#    x 3.958100 0.000000 0.000000 
#    y 0.000000 3.958100 0.000000 
#    z 0.000000 0.000000 4.134300 
# 
# 
# High freq. dielectric constant tensor:
#      x y z
#    x 1.869070 0.000000 0.000000 
#    y 0.000000 1.869070 0.000000 
#    z 0.000000 0.000000 1.880390 
# 
# From -- ./inp_files/6506.got.cif
#   From: 2010.03.12/outbox.cif.g09.slc.cpg/sg181_4_cif.got.tgz:6506.got - 2010.04.01 11:42:41.
