data_PCOD8326156
_publ_section_title
;
Structure prediction by ZEFSAII (Michael W. Deem and Ramdas Pophale) SiO2 
 PCOD8326156
Probable space group: P 62 2 2
;
_chemical_formula_sum "Si O2"
_cell_formula_units_Z 60
_cell_length_a 11.935424
_cell_length_b 11.935424
_cell_length_c 24.335407
_cell_angle_alpha 90.000000
_cell_angle_beta 90.000000
_cell_angle_gamma 120.000000
_cell_volume 3002.236835
_symmetry_space_group_name_H-M "P 62 2 2"
_symmetry_group_IT_number 180
_symmetry_cell_setting 'hexagonal'
loop_
_space_group_symop_operation_xyz
x,y,z
x-y,x,1/3+z
-y,x-y,2/3+z
-x,-y,z
-x+y,-x,1/3+z
y,-x+y,2/3+z
x-y,-y,-z
-x,-x+y,1/3-z
y,x,2/3-z
-y,-x,2/3-z
-x+y,y,-z
x,x-y,1/3-z
loop_
_atom_site_type_symbol
_atom_site_label
_atom_site_fract_x
_atom_site_fract_y
_atom_site_fract_z
Si Si1 0.712720 0.743026 0.893008
Si Si2 0.788113 0.799059 0.569534
Si Si3 0.315204 0.441048 0.359078
Si Si4 0.962255 0.356085 0.993917
Si Si5 0.264954 0.995719 0.883825
O O1 0.670880 0.670880 0.833334
O O2 0.868167 0.810274 0.896309
O O3 0.645136 0.641928 0.942524
O O4 0.671729 0.852733 0.899847
O O5 0.693617 0.730441 0.621226
O O6 0.926269 0.807646 0.575401
O O7 0.724277 0.713170 0.514936
O O8 0.313500 0.313500 0.333334
O O9 0.432310 0.567691 0.333334
O O10 0.190089 0.452438 0.348052
O O11 0.332941 0.415157 0.423606
O O12 0.000000 0.500000 0.976762
#
# Coordination Sequence:
#
# PCOD8326156 Si02
#       5
#    12  12  12  12  12
#     4  10  19  34  57  84 111 145 179 227 290 349
#     4   9  19  33  58  85 116 142 173 230 292 347
#     4  10  20  37  60  83 108 153 199 240 278 334
#     4  11  23  38  54  81 116 151 193 238 290 344
#     4   9  17  35  57  89 114 138 182 231 281 343
#
# _framework density 19.985097
#
# number of rings (size 3 to 8) (size 9 to 14) (size 15 to 20)
#    0.000    2.200    2.000    1.200    0.000    4.400 
#    3.600    2.000    0.000    4.800    0.000    0.000 
#    0.000    0.000    0.000    0.000    0.000    0.000 
#
# Total GULP energy -743326.458499 kJ/mol
# GULP energy per Si atom -12388.774308 kJ/mol
# Density = 1.993961 g / cm^3
# Si number density = 19.985097 Si / 1000 Ang^3
#
#
#
# Elastic Constant Matrix: (Units=GPa)
#
#
# Indices 1 2 3 4 5 6 
#
# 1 74.3673 22.5039 30.1800 0.0000 0.0000 0.0000
# 2 22.5039 74.3673 30.1800 0.0000 0.0000 0.0000
# 3 30.1800 30.1800 131.0129 0.0000 0.0000 0.0000
# 4 0.0000 0.0000 0.0000 26.2291 0.0000 0.0000
# 5 0.0000 0.0000 0.0000 0.0000 26.2291 0.0000
# 6 0.0000 0.0000 0.0000 0.0000 0.0000 25.9317
#
#
#
# Elastic Compliance Matrix: (Units=1/GPa)
#
#
# Indices 1 2 3 4 5 6 
#
# 1 0.015667 -0.003614 -0.002777 0.000000 0.000000 0.000000
# 2 -0.003614 0.015667 -0.002777 0.000000 0.000000 0.000000
# 3 -0.002777 -0.002777 0.008912 0.000000 0.000000 0.000000
# 4 0.000000 0.000000 0.000000 0.038126 0.000000 0.000000
# 5 0.000000 0.000000 0.000000 0.000000 0.038126 0.000000
# 6 0.000000 0.000000 0.000000 0.000000 0.000000 0.038563
#
#
# Mechanical properties :
#
#
# Convention : Reuss Voigt Hill
#
# Bulk Modulus (GPa) = 45.63713 49.49727 47.56720
# Shear Modulus (GPa) = 27.67031 28.80354 28.23692
#
# Velocity S-wave (km/s) = 3.72499 3.80050 3.76293
# Velocity P-wave (km/s) = 6.43318 6.63922 6.53701
#
# Compressibility (1/GPa) = 0.02191198
#
# Stress axis : x y z
#
# Youngs Moduli (GPa) = 63.82753 63.82753 112.20790
#
# Poissons Ratio (x) = 0.23069 0.31155
# Poissons Ratio (y) = 0.23069 0.31155
# Poissons Ratio (z) = 0.17722 0.17722
#
# Static dielectric constant tensor:
#      x y z
#    x 3.336230 0.000000 0.000000 
#    y 0.000000 3.336230 0.000000 
#    z 0.000000 0.000000 4.026740 
# 
# 
# High freq. dielectric constant tensor:
#      x y z
#    x 1.752040 0.000000 0.000000 
#    y 0.000000 1.752040 0.000000 
#    z 0.000000 0.000000 1.799600 
# 
# From -- ./inp_files/11215.got.cif
#   From: 2010.03.12/outbox.cif.g09.slc.cpg/sg180_6_cif.got.tgz:11215.got - 2010.04.01 11:35:50.
