data_PCOD8326389
_publ_section_title
;
Structure prediction by ZEFSAII (Michael W. Deem and Ramdas Pophale) SiO2 
 PCOD8326389
Probable space group: P 64 2 2
;
_chemical_formula_sum "Si O2"
_cell_formula_units_Z 75
_cell_length_a 11.641556
_cell_length_b 11.641556
_cell_length_c 30.073794
_cell_angle_alpha 90.000000
_cell_angle_beta 90.000000
_cell_angle_gamma 120.000000
_cell_volume 3529.725362
_symmetry_space_group_name_H-M "P 64 2 2"
_symmetry_group_IT_number 181
_symmetry_cell_setting 'hexagonal'
loop_
_space_group_symop_operation_xyz
x,y,z
x-y,x,2/3+z
-y,x-y,1/3+z
-x,-y,z
-x+y,-x,2/3+z
y,-x+y,1/3+z
x-y,-y,-z
-x,-x+y,2/3-z
y,x,1/3-z
-y,-x,1/3-z
-x+y,y,-z
x,x-y,2/3-z
loop_
_atom_site_type_symbol
_atom_site_label
_atom_site_fract_x
_atom_site_fract_y
_atom_site_fract_z
Si Si1 0.076408 0.645424 0.758315
Si Si2 0.297323 0.966207 0.670962
Si Si3 0.000000 0.500000 0.508431
Si Si4 0.603923 0.771084 0.715334
Si Si5 0.000000 0.500000 0.333334
Si Si6 0.626401 0.180747 0.744500
Si Si7 0.728122 0.969282 0.863822
Si Si8 0.782399 0.000000 0.500000
O O1 0.011927 0.634107 0.710117
O O2 0.229519 0.691493 0.750390
O O3 0.060785 0.742446 0.792315
O O4 0.000000 0.500000 0.780067
O O5 0.142989 0.857012 0.666667
O O6 0.366123 0.923519 0.710015
O O7 0.311036 0.107564 0.681867
O O8 0.125759 0.576757 0.539989
O O9 0.992559 0.385093 0.477188
O O10 0.540447 0.626230 0.696318
O O11 0.472506 0.773292 0.728052
O O12 0.711976 0.793836 0.752662
O O13 0.689470 0.844735 0.833334
O O14 0.878940 0.083109 0.853567
#
# Coordination Sequence:
#
# PCOD8326389 Si02
#       8
#    12  12   6  12   3  12  12   6
#     4  11  25  42  70 107 138 180 226 302 365 412
#     4  10  23  43  77 106 130 179 241 298 354 425
#     4  12  21  46  74 105 130 179 252 292 339 438
#     4  12  26  48  72 103 150 189 234 292 365 435
#     4  12  34  44  62 116 152 188 236 288 366 456
#     4  11  21  44  77 103 134 176 243 294 354 429
#     4  12  26  47  72 101 140 197 235 291 357 427
#     4  12  28  46  64 100 152 180 246 288 352 436
#
# _framework density 21.248111000000002
#
# number of rings (size 3 to 8) (size 9 to 14) (size 15 to 20)
#    0.000    0.640    4.800    1.920   10.080    1.280 
#    2.880    0.400    0.000    0.000    0.000    0.000 
#    0.000    0.000    0.000    0.000    0.000    0.000 
#
# Total GULP energy -929728.731616 kJ/mol
# GULP energy per Si atom -12396.383088 kJ/mol
# Density = 2.119975 g / cm^3
# Si number density = 21.248111 Si / 1000 Ang^3
#
#
#
# Elastic Constant Matrix: (Units=GPa)
#
#
# Indices 1 2 3 4 5 6 
#
# 1 137.8610 61.5595 38.9110 0.0000 0.0000 0.0000
# 2 61.5595 137.8610 38.9110 0.0000 0.0000 0.0000
# 3 38.9110 38.9110 90.2804 0.0000 0.0000 0.0000
# 4 0.0000 0.0000 0.0000 33.4628 0.0000 0.0000
# 5 0.0000 0.0000 0.0000 0.0000 33.4628 0.0000
# 6 0.0000 0.0000 0.0000 0.0000 0.0000 38.1507
#
#
#
# Elastic Compliance Matrix: (Units=1/GPa)
#
#
# Indices 1 2 3 4 5 6 
#
# 1 0.009567 -0.003539 -0.002598 0.000000 0.000000 0.000000
# 2 -0.003539 0.009567 -0.002598 0.000000 0.000000 0.000000
# 3 -0.002598 -0.002598 0.013316 0.000000 0.000000 0.000000
# 4 0.000000 0.000000 0.000000 0.029884 0.000000 0.000000
# 5 0.000000 0.000000 0.000000 0.000000 0.029884 0.000000
# 6 0.000000 0.000000 0.000000 0.000000 0.000000 0.026212
#
#
# Mechanical properties :
#
#
# Convention : Reuss Voigt Hill
#
# Bulk Modulus (GPa) = 66.75497 71.64059 69.19778
# Shear Modulus (GPa) = 35.48758 36.12333 35.80546
#
# Velocity S-wave (km/s) = 4.09118 4.12767 4.10947
# Velocity P-wave (km/s) = 7.33499 7.51706 7.42659
#
# Compressibility (1/GPa) = 0.01498016
#
# Stress axis : x y z
#
# Youngs Moduli (GPa) = 104.52386 104.52386 75.09579
#
# Poissons Ratio (x) = 0.36988 0.19512
# Poissons Ratio (y) = 0.36988 0.19512
# Poissons Ratio (z) = 0.27158 0.27158
#
# Static dielectric constant tensor:
#      x y z
#    x 3.821920 0.000000 0.000000 
#    y 0.000000 3.821920 0.000000 
#    z 0.000000 0.000000 6.979220 
# 
# 
# High freq. dielectric constant tensor:
#      x y z
#    x 1.839420 0.000000 0.000000 
#    y 0.000000 1.839420 0.000000 
#    z 0.000000 0.000000 1.841080 
# 
# From -- ./inp_files/12402.got.cif
#   From: 2010.03.12/outbox.cif.g09.slc.cpg/sg181_7_cif.got.tgz:12402.got - 2010.04.01 11:42:41.
