data_PCOD8326947
_publ_section_title
;
Structure prediction by ZEFSAII (Michael W. Deem and Ramdas Pophale) SiO2 
 PCOD8326947
Probable space group: P -6 M 2
;
_chemical_formula_sum "Si O2"
_cell_formula_units_Z 90
_cell_length_a 17.512119
_cell_length_b 17.512119
_cell_length_c 18.013902
_cell_angle_alpha 90.000000
_cell_angle_beta 90.000000
_cell_angle_gamma 120.000000
_cell_volume 4784.271607
_symmetry_space_group_name_H-M "P -6 M 2"
_symmetry_group_IT_number 187
_symmetry_cell_setting 'hexagonal'
loop_
_space_group_symop_operation_xyz
x,y,z
-x+y,-x,-z
-y,x-y,z
x,y,-z
-x+y,-x,z
-y,x-y,-z
-y,-x,-z
-x+y,y,-z
x,x-y,-z
-x+y,y,z
x,x-y,z
-y,-x,z
loop_
_atom_site_type_symbol
_atom_site_label
_atom_site_fract_x
_atom_site_fract_y
_atom_site_fract_z
Si Si1 0.610509 0.987206 0.083119
Si Si2 0.839052 0.333719 0.159878
Si Si3 0.001791 0.168781 0.238343
Si Si4 0.155813 0.664411 0.792837
Si Si5 0.387171 0.435055 0.354266
Si Si6 0.360316 0.265926 0.294295
Si Si7 0.220877 0.026352 0.919197
Si Si8 0.154398 0.666068 0.500000
O O1 0.544744 0.911157 0.138349
O O2 0.621620 0.082415 0.100264
O O3 0.704847 0.996565 0.089738
O O4 0.571904 0.959895 0.000000
O O5 0.811427 0.405714 0.182452
O O6 0.753138 0.246863 0.127823
O O7 0.875592 0.308664 0.231276
O O8 0.095205 0.190409 0.274574
O O9 0.975190 0.240784 0.260220
O O10 0.014414 0.168316 0.149096
O O11 0.927332 0.072669 0.265968
O O12 0.191323 0.595662 0.784755
O O13 0.237944 0.762057 0.805995
O O14 0.105252 0.663183 0.717910
O O15 0.488769 0.511232 0.354183
O O16 0.383464 0.340798 0.355938
O O17 0.337572 0.437910 0.427441
O O18 0.359536 0.179768 0.328652
O O19 0.266989 0.133495 0.913833
O O20 0.173283 0.994257 0.000000
O O21 0.243915 0.756086 0.500000
O O22 0.177684 0.588842 0.500000
#
# Coordination Sequence:
#
# PCOD8326947 Si02
#       8
#    12  12  12  12  12  12  12   6
#     4  11  22  36  55  76 104 141 184 234 285 335
#     4  11  21  36  56  80 108 140 181 231 289 349
#     4  10  19  31  47  70  98 132 173 221 274 324
#     4  11  23  39  58  79 107 146 191 236 282 334
#     4  10  20  37  60  88 119 151 186 228 281 339
#     4  10  20  35  56  81 111 147 187 231 278 327
#     4   9  17  30  47  67  92 124 164 213 272 331
#     4  10  21  36  59  92 130 162 190 228 281 340
#
# _framework density 18.811641999999999
#
# number of rings (size 3 to 8) (size 9 to 14) (size 15 to 20)
#    0.000    1.733    2.667    2.067    0.000    5.067 
#    0.000    3.000    0.000    2.667    0.000    0.000 
#    0.000    0.000    0.000    0.000    0.000    0.000 
#
# Total GULP energy -1115527.773239 kJ/mol
# GULP energy per Si atom -12394.753036 kJ/mol
# Density = 1.876883 g / cm^3
# Si number density = 18.811642 Si / 1000 Ang^3
#
#
#
# Elastic Constant Matrix: (Units=GPa)
#
#
# Indices 1 2 3 4 5 6 
#
# 1 106.2343 50.4895 41.5601 0.0000 0.0002 0.0000
# 2 50.4895 106.2343 41.5601 0.0000 -0.0002 0.0000
# 3 41.5601 41.5601 100.7942 0.0000 0.0000 0.0000
# 4 0.0000 0.0000 0.0000 15.8335 0.0000 -0.0002
# 5 0.0002 -0.0002 0.0000 0.0000 15.8335 0.0000
# 6 0.0000 0.0000 0.0000 -0.0002 0.0000 27.8724
#
#
#
# Elastic Compliance Matrix: (Units=1/GPa)
#
#
# Indices 1 2 3 4 5 6 
#
# 1 0.013053 -0.004886 -0.003367 0.000000 0.000000 0.000000
# 2 -0.004886 0.013053 -0.003367 0.000000 0.000000 0.000000
# 3 -0.003367 -0.003367 0.012698 0.000000 0.000000 0.000000
# 4 0.000000 0.000000 0.000000 0.063157 0.000000 0.000000
# 5 0.000000 0.000000 0.000000 0.000000 0.063157 0.000000
# 6 0.000000 0.000000 0.000000 0.000000 0.000000 0.035878
#
#
# Mechanical properties :
#
#
# Convention : Reuss Voigt Hill
#
# Bulk Modulus (GPa) = 64.25916 64.49805 64.37860
# Shear Modulus (GPa) = 21.79366 23.88475 22.83921
#
# Velocity S-wave (km/s) = 3.40740 3.56712 3.48817
# Velocity P-wave (km/s) = 7.05081 7.16425 7.10775
#
# Compressibility (1/GPa) = 0.01556198
#
# Stress axis : x y z
#
# Youngs Moduli (GPa) = 76.61249 76.61249 78.75231
#
# Poissons Ratio (x) = 0.37434 0.26518
# Poissons Ratio (y) = 0.37434 0.26518
# Poissons Ratio (z) = 0.25798 0.25798
#
# Static dielectric constant tensor:
#      x y z
#    x 3.501760 0.000000 0.000000 
#    y 0.000000 3.501760 0.000000 
#    z 0.000000 0.000000 3.297960 
# 
# 
# High freq. dielectric constant tensor:
#      x y z
#    x 1.735530 0.000000 0.000000 
#    y 0.000000 1.735530 0.000000 
#    z 0.000000 0.000000 1.694530 
# 
# From -- ./inp_files/3276.got.cif
#   From: 2010.03.12/outbox.cif.g09.slc.cpg/sg187_2_cif.got.tgz:3276.got - 2010.04.01 11:58:23.
