data_PCOD8326077
_publ_section_title
;
Structure prediction by ZEFSAII (Michael W. Deem and Ramdas Pophale) SiO2 
 PCOD8326077
Probable space group: P 65 2 2
;
_chemical_formula_sum "Si O2"
_cell_formula_units_Z 66
_cell_length_a 26.037132
_cell_length_b 26.037132
_cell_length_c 5.474356
_cell_angle_alpha 90.000000
_cell_angle_beta 90.000000
_cell_angle_gamma 120.000000
_cell_volume 3214.030233
_symmetry_space_group_name_H-M "P 65 2 2"
_symmetry_group_IT_number 179
_symmetry_cell_setting 'hexagonal'
loop_
_space_group_symop_operation_xyz
x,y,z
x-y,x,5/6+z
-y,x-y,2/3+z
-x,-y,1/2+z
-x+y,-x,1/3+z
y,-x+y,1/6+z
x-y,-y,-z
-x,-x+y,1/3-z
y,x,2/3-z
-y,-x,1/6-z
-x+y,y,1/2-z
x,x-y,5/6-z
loop_
_atom_site_type_symbol
_atom_site_label
_atom_site_fract_x
_atom_site_fract_y
_atom_site_fract_z
Si Si1 0.355331 0.822308 0.790553
Si Si2 0.133522 0.435898 0.071224
Si Si3 0.306091 0.237484 0.348355
Si Si4 0.936228 0.521166 0.272943
Si Si5 0.931408 0.753167 0.182501
Si Si6 0.239715 0.760285 0.083334
O O1 0.396554 0.793108 0.750000
O O2 0.327867 0.830168 0.544218
O O3 0.396770 0.887600 0.897971
O O4 0.301396 0.777280 0.955899
O O5 0.104848 0.376575 0.233319
O O6 0.080239 0.437283 0.931179
O O7 0.183844 0.433834 0.909944
O O8 0.285383 0.285383 0.333334
O O9 0.278356 0.193397 0.581468
O O10 0.291885 0.208289 0.077576
O O11 0.939190 0.469595 0.416667
O O12 0.000000 0.566146 0.166667
O O13 0.891669 0.783337 0.250000
O O14 0.000000 0.804350 0.166667
#
# Coordination Sequence:
#
# PCOD8326077 Si02
#       6
#    12  12  12  12  12   6
#     4  11  23  44  67  87 123 157 205 262 322 392
#     4  11  25  42  64  91 126 164 210 262 323 391
#     4  10  24  39  63  94 136 174 220 266 323 390
#     4  11  24  38  63  95 126 165 204 252 322 395
#     4  10  22  41  63  96 132 180 224 274 323 385
#     4  10  26  42  66  92 116 160 208 260 332 382
#
# _framework density 20.534963000000001
#
# number of rings (size 3 to 8) (size 9 to 14) (size 15 to 20)
#    0.000    1.455    1.818    1.636    8.909    2.182 
#    0.000    0.000   10.000    0.000    0.000    3.818 
#    0.000    0.000    0.000    0.000    0.000    0.000 
#
# Total GULP energy -817970.529330 kJ/mol
# GULP energy per Si atom -12393.492869 kJ/mol
# Density = 2.048822 g / cm^3
# Si number density = 20.534963 Si / 1000 Ang^3
#
#
#
# Elastic Constant Matrix: (Units=GPa)
#
#
# Indices 1 2 3 4 5 6 
#
# 1 67.9353 117.2042 44.8567 0.0000 0.0000 0.0000
# 2 117.2042 67.9353 44.8567 0.0000 0.0000 0.0000
# 3 44.8567 44.8567 120.0846 0.0000 0.0000 0.0000
# 4 0.0000 0.0000 0.0000 34.5619 0.0000 0.0000
# 5 0.0000 0.0000 0.0000 0.0000 34.5619 0.0000
# 6 0.0000 0.0000 0.0000 0.0000 0.0000 -24.6345
#
#
#
# Elastic Compliance Matrix: (Units=1/GPa)
#
#
# Indices 1 2 3 4 5 6 
#
# 1 -0.006851 0.013446 -0.002464 0.000000 0.000000 0.000000
# 2 0.013446 -0.006851 -0.002464 0.000000 0.000000 0.000000
# 3 -0.002464 -0.002464 0.010168 0.000000 0.000000 0.000000
# 4 0.000000 0.000000 0.000000 0.028934 0.000000 0.000000
# 5 0.000000 0.000000 0.000000 0.000000 0.028934 0.000000
# 6 0.000000 0.000000 0.000000 0.000000 0.000000 -0.040594
#
#
# Mechanical properties :
#
#
# Convention : Reuss Voigt Hill
#
# Bulk Modulus (GPa) = 74.05244 74.42115 74.23680
# Shear Modulus (GPa) = 4154.19914 12.16703 2083.18309
#
# Velocity S-wave (km/s) = 45.02644 2.43678 31.88509
# Velocity P-wave (km/s) = 52.33845 6.65109 37.30650
#
# Compressibility (1/GPa) = 0.01350394
#
# Stress axis : x y z
#
# Youngs Moduli (GPa) = -145.96760 -145.96760 98.34838
#
# Poissons Ratio (x) = 1.96267 0.24229
# Poissons Ratio (y) = 1.96267 0.24229
# Poissons Ratio (z) = -0.35960 -0.35960
#
# Static dielectric constant tensor:
#      x y z
#    x 3.622650 0.000000 0.000000 
#    y 0.000000 3.622650 0.000000 
#    z 0.000000 0.000000 4.084260 
# 
# 
# High freq. dielectric constant tensor:
#      x y z
#    x 1.799430 0.000000 0.000000 
#    y 0.000000 1.799430 0.000000 
#    z 0.000000 0.000000 1.815560 
# 
# From -- ./inp_files/1578.got.cif
#   From: 2010.03.12/outbox.cif.g09.slc.cpg/sg179_1_cif.got.tgz:1578.got - 2010.04.02 07:08:42.
