data_PCOD8326712
_publ_section_title
;
Structure prediction by ZEFSAII (Michael W. Deem and Ramdas Pophale) SiO2 
 PCOD8326712
Probable space group: P 63 M C
;
_chemical_formula_sum "Si O2"
_cell_formula_units_Z 96
_cell_length_a 17.205603
_cell_length_b 17.205603
_cell_length_c 22.437123
_cell_angle_alpha 90.000000
_cell_angle_beta 90.000000
_cell_angle_gamma 120.000000
_cell_volume 5752.247925
_symmetry_space_group_name_H-M "P 63 M C"
_symmetry_group_IT_number 186
_symmetry_cell_setting 'hexagonal'
loop_
_space_group_symop_operation_xyz
x,y,z
x-y,x,1/2+z
-y,x-y,z
-x,-y,1/2+z
-x+y,-x,z
y,-x+y,1/2+z
-x+y,y,z
x,x-y,z
-y,-x,z
y,x,1/2+z
x-y,-y,1/2+z
-x,-x+y,1/2+z
loop_
_atom_site_type_symbol
_atom_site_label
_atom_site_fract_x
_atom_site_fract_y
_atom_site_fract_z
Si Si1 0.897880 0.617408 0.333300
Si Si2 0.168793 0.999898 0.464715
Si Si3 0.333244 0.081437 0.550619
Si Si4 0.620498 0.722471 0.595588
Si Si5 0.485797 0.331868 0.456062
Si Si6 0.485463 0.332097 0.974958
Si Si7 0.668291 0.509041 0.214389
Si Si8 0.748049 0.080964 0.879402
O O1 0.828033 0.656065 0.333894
O O2 0.881331 0.557526 0.391642
O O3 0.884601 0.560321 0.274882
O O4 0.003785 0.692006 0.330849
O O5 0.077191 0.922810 0.494454
O O6 0.198289 0.957421 0.413726
O O7 0.152361 0.076181 0.435856
O O8 0.243052 0.043427 0.514184
O O9 0.353490 0.176745 0.579958
O O10 0.414588 0.097195 0.507399
O O11 0.310971 0.004121 0.598963
O O12 0.661152 0.830576 0.587505
O O13 0.554298 0.672469 0.540518
O O14 0.572877 0.692690 0.658296
O O15 0.517552 0.258776 0.462027
O O16 0.570017 0.429984 0.464610
O O17 0.515843 0.257921 0.969323
O O18 0.570502 0.429499 0.964442
O O19 0.412202 0.316333 0.924641
O O20 0.733699 0.467397 0.217458
O O21 0.567656 0.432345 0.206162
O O22 0.822679 0.177322 0.850609
#
# Coordination Sequence:
#
# PCOD8326712 Si02
#       8
#    12  12  12  12  12  12  12  12
#     4  10  19  33  49  69  95 125 159 196 241 286
#     4  10  17  28  45  68  96 124 154 188 231 282
#     4  10  19  31  48  70  97 126 155 195 239 283
#     4  10  19  33  49  69  95 125 159 196 241 286
#     4  10  19  30  46  68  96 128 159 193 236 287
#     4  10  19  30  46  68  96 128 159 193 236 287
#     4  10  21  34  51  72  98 128 160 198 237 282
#     4  10  19  31  48  70  97 126 155 195 239 283
#
# _framework density 16.689126999999999
#
# number of rings (size 3 to 8) (size 9 to 14) (size 15 to 20)
#    0.000    2.000    2.500    2.000    0.000    3.000 
#    0.000    3.125    0.000    0.500    0.000    0.000 
#    0.000    0.000    0.000    0.000    0.000    0.000 
#
# Total GULP energy -1189552.574579 kJ/mol
# GULP energy per Si atom -12391.172652 kJ/mol
# Density = 1.665114 g / cm^3
# Si number density = 16.689127 Si / 1000 Ang^3
#
#
#
# Elastic Constant Matrix: (Units=GPa)
#
#
# Indices 1 2 3 4 5 6 
#
# 1 94.9885 50.1398 23.4045 0.0000 0.0000 0.0000
# 2 50.1398 94.9885 23.4045 0.0000 0.0000 0.0000
# 3 23.4045 23.4045 39.6044 0.0000 0.0000 0.0000
# 4 0.0000 0.0000 0.0000 13.1367 0.0000 0.0000
# 5 0.0000 0.0000 0.0000 0.0000 13.1367 0.0000
# 6 0.0000 0.0000 0.0000 0.0000 0.0000 22.4243
#
#
#
# Elastic Compliance Matrix: (Units=1/GPa)
#
#
# Indices 1 2 3 4 5 6 
#
# 1 0.015405 -0.006892 -0.005031 0.000000 0.000000 0.000000
# 2 -0.006892 0.015405 -0.005031 0.000000 0.000000 0.000000
# 3 -0.005031 -0.005031 0.031196 0.000000 0.000000 0.000000
# 4 0.000000 0.000000 0.000000 0.076122 0.000000 0.000000
# 5 0.000000 0.000000 0.000000 0.000000 0.076122 0.000000
# 6 0.000000 0.000000 0.000000 0.000000 0.000000 0.044594
#
#
# Mechanical properties :
#
#
# Convention : Reuss Voigt Hill
#
# Bulk Modulus (GPa) = 35.58912 47.05322 41.32117
# Shear Modulus (GPa) = 16.54976 18.58172 17.56574
#
# Velocity S-wave (km/s) = 3.15246 3.34039 3.24778
# Velocity P-wave (km/s) = 5.88402 6.56755 6.23516
#
# Compressibility (1/GPa) = 0.02809848
#
# Stress axis : x y z
#
# Youngs Moduli (GPa) = 64.91332 64.91332 32.05564
#
# Poissons Ratio (x) = 0.44739 0.16127
# Poissons Ratio (y) = 0.44739 0.16127
# Poissons Ratio (z) = 0.32657 0.32657
#
# Static dielectric constant tensor:
#      x y z
#    x 3.518000 0.000000 0.000000 
#    y 0.000000 3.518000 0.000000 
#    z 0.000000 0.000000 2.832230 
# 
# 
# High freq. dielectric constant tensor:
#      x y z
#    x 1.652330 0.000000 0.000000 
#    y 0.000000 1.652330 0.000000 
#    z 0.000000 0.000000 1.601640 
# 
# From -- ./inp_files/3583.got.cif
#   From: 2010.03.12/outbox.cif.g09.slc.cpg/sg186_2_cif.got.tgz:3583.got - 2010.04.01 11:56:34.
