data_PCOD8326083
_publ_section_title
;
Structure prediction by ZEFSAII (Michael W. Deem and Ramdas Pophale) SiO2 
 PCOD8326083
Probable space group: P 65 2 2
;
_chemical_formula_sum "Si O2"
_cell_formula_units_Z 42
_cell_length_a 13.543246
_cell_length_b 13.543246
_cell_length_c 12.848469
_cell_angle_alpha 90.000000
_cell_angle_beta 90.000000
_cell_angle_gamma 120.000000
_cell_volume 2040.927356
_symmetry_space_group_name_H-M "P 65 2 2"
_symmetry_group_IT_number 179
_symmetry_cell_setting 'hexagonal'
loop_
_space_group_symop_operation_xyz
x,y,z
x-y,x,5/6+z
-y,x-y,2/3+z
-x,-y,1/2+z
-x+y,-x,1/3+z
y,-x+y,1/6+z
x-y,-y,-z
-x,-x+y,1/3-z
y,x,2/3-z
-y,-x,1/6-z
-x+y,y,1/2-z
x,x-y,5/6-z
loop_
_atom_site_type_symbol
_atom_site_label
_atom_site_fract_x
_atom_site_fract_y
_atom_site_fract_z
Si Si1 0.286793 0.713208 0.583334
Si Si2 0.799917 0.899959 0.916667
Si Si3 0.271056 0.728945 0.083334
Si Si4 0.669767 0.604567 0.650313
Si Si5 0.577114 0.550074 0.217033
O O1 0.249948 0.606207 0.656039
O O2 0.189408 0.690801 0.503014
O O3 0.879418 0.879418 0.833334
O O4 0.722181 0.945969 0.860621
O O5 0.152069 0.680528 0.024545
O O6 0.545611 0.567257 0.701667
O O7 0.655066 0.602666 0.525801
O O8 0.594367 0.594367 0.333334
#
# Coordination Sequence:
#
# PCOD8326083 Si02
#       5
#     6   6   6  12  12
#     4  11  22  38  65  98 129 186 233 272 322 414
#     4  11  26  48  77  98 125 180 237 292 338 402
#     4  12  24  36  66  98 144 180 224 270 338 408
#     4  10  23  43  68  95 141 178 227 271 340 405
#     4  11  22  41  62 104 144 181 220 278 339 406
#
# _framework density 20.578878
#
# number of rings (size 3 to 8) (size 9 to 14) (size 15 to 20)
#    0.000    1.143    2.857    4.286    4.000    2.286 
#    0.000    2.857    0.000    0.000    0.000    0.000 
#    0.000    0.000    0.000    0.000    0.000    0.000 
#
# Total GULP energy -520400.892403 kJ/mol
# GULP energy per Si atom -12390.497438 kJ/mol
# Density = 2.053204 g / cm^3
# Si number density = 20.578878 Si / 1000 Ang^3
#
#
#
# Elastic Constant Matrix: (Units=GPa)
#
#
# Indices 1 2 3 4 5 6 
#
# 1 85.7186 85.5173 54.9433 0.0000 0.0000 0.0000
# 2 85.5173 85.7186 54.9433 0.0000 0.0000 0.0000
# 3 54.9433 54.9433 171.4780 0.0000 0.0000 0.0000
# 4 0.0000 0.0000 0.0000 28.3118 0.0000 0.0000
# 5 0.0000 0.0000 0.0000 0.0000 28.3118 0.0000
# 6 0.0000 0.0000 0.0000 0.0000 0.0000 0.1007
#
#
#
# Elastic Compliance Matrix: (Units=1/GPa)
#
#
# Indices 1 2 3 4 5 6 
#
# 1 2.487138 -2.479786 -0.002355 0.000000 0.000000 -0.000003
# 2 -2.479786 2.487138 -0.002355 0.000000 0.000000 0.000003
# 3 -0.002355 -0.002355 0.007341 0.000000 0.000000 0.000000
# 4 0.000000 0.000000 0.000000 0.035321 0.000000 0.000000
# 5 0.000000 0.000000 0.000000 0.000000 0.035321 0.000000
# 6 -0.000003 0.000003 0.000000 0.000000 0.000000 9.933856
#
#
# Mechanical properties :
#
#
# Convention : Reuss Voigt Hill
#
# Bulk Modulus (GPa) = 79.22612 81.52476 80.37544
# Shear Modulus (GPa) = 0.25051 21.17894 10.71473
#
# Velocity S-wave (km/s) = 0.34928 3.21153 2.28429
# Velocity P-wave (km/s) = 6.22455 7.31120 6.78965
#
# Compressibility (1/GPa) = 0.01262210
#
# Stress axis : x y z
#
# Youngs Moduli (GPa) = 0.40207 0.40207 136.21952
#
# Poissons Ratio (x) = 0.99704 0.32086
# Poissons Ratio (y) = 0.99704 0.32086
# Poissons Ratio (z) = 0.00095 0.00095
#
# Static dielectric constant tensor:
#      x y z
#    x 3.932400 0.000000 0.000000 
#    y 0.000000 3.932400 0.000000 
#    z 0.000000 0.000000 3.779920 
# 
# 
# High freq. dielectric constant tensor:
#      x y z
#    x 1.791840 0.000000 0.000000 
#    y 0.000000 1.791840 0.000000 
#    z 0.000000 0.000000 1.823280 
# 
# From -- ./inp_files/4190.got.cif
#   From: 2010.03.12/outbox.cif.g09.slc.cpg/sg179_3_cif.got.tgz:4190.got - 2010.04.02 07:08:42.
