data_PCOD8326088
_publ_section_title
;
Structure prediction by ZEFSAII (Michael W. Deem and Ramdas Pophale) SiO2 
 PCOD8326088
Probable space group: P 65 2 2
;
_chemical_formula_sum "Si O2"
_cell_formula_units_Z 54
_cell_length_a 17.935057
_cell_length_b 17.935057
_cell_length_c 8.916080
_cell_angle_alpha 90.000000
_cell_angle_beta 90.000000
_cell_angle_gamma 120.000000
_cell_volume 2483.762757
_symmetry_space_group_name_H-M "P 65 2 2"
_symmetry_group_IT_number 179
_symmetry_cell_setting 'hexagonal'
loop_
_space_group_symop_operation_xyz
x,y,z
x-y,x,5/6+z
-y,x-y,2/3+z
-x,-y,1/2+z
-x+y,-x,1/3+z
y,-x+y,1/6+z
x-y,-y,-z
-x,-x+y,1/3-z
y,x,2/3-z
-y,-x,1/6-z
-x+y,y,1/2-z
x,x-y,5/6-z
loop_
_atom_site_type_symbol
_atom_site_label
_atom_site_fract_x
_atom_site_fract_y
_atom_site_fract_z
Si Si1 0.397367 0.794734 0.750000
Si Si2 0.360800 0.918585 0.592006
Si Si3 0.770134 0.465076 0.402140
Si Si4 0.964969 0.278831 0.834853
Si Si5 0.872492 0.223573 0.320051
O O1 0.394790 0.851356 0.609222
O O2 0.438536 0.737409 0.701966
O O3 0.349449 0.943364 0.762514
O O4 0.267697 0.881638 0.509355
O O5 0.432512 0.000000 0.500000
O O6 0.718650 0.437300 0.250000
O O7 0.818520 0.409260 0.416667
O O8 0.836816 0.566304 0.403517
O O9 0.879141 0.186047 0.845181
O O10 0.000000 0.304060 0.666667
O O11 0.036924 0.278405 0.943834
#
# Coordination Sequence:
#
# PCOD8326088 Si02
#       5
#     6  12  12  12  12
#     4  12  24  42  66  86 138 178 228 282 334 388
#     4  10  24  43  64  93 131 177 218 277 334 406
#     4  12  24  39  61  92 126 176 229 277 330 392
#     4  11  22  41  68  97 131 168 221 281 342 412
#     4  11  24  44  66  96 133 175 226 277 344 418
#
# _framework density 21.741208
#
# number of rings (size 3 to 8) (size 9 to 14) (size 15 to 20)
#    0.000    0.889    3.333    4.000    0.000    0.889 
#   12.000    0.000    0.000    0.000    0.000   26.444 
#    0.000    0.000    0.000    0.000    0.000    0.000 
#
# Total GULP energy -669362.848472 kJ/mol
# GULP energy per Si atom -12395.608305 kJ/mol
# Density = 2.169172 g / cm^3
# Si number density = 21.741208 Si / 1000 Ang^3
#
#
#
# Elastic Constant Matrix: (Units=GPa)
#
#
# Indices 1 2 3 4 5 6 
#
# 1 114.7427 59.3815 26.3683 0.0000 0.0000 0.0000
# 2 59.3815 114.7427 26.3683 0.0000 0.0000 0.0000
# 3 26.3683 26.3683 95.7864 0.0000 0.0000 0.0000
# 4 0.0000 0.0000 0.0000 29.1092 0.0000 0.0000
# 5 0.0000 0.0000 0.0000 0.0000 29.1092 0.0000
# 6 0.0000 0.0000 0.0000 0.0000 0.0000 27.6806
#
#
#
# Elastic Compliance Matrix: (Units=1/GPa)
#
#
# Indices 1 2 3 4 5 6 
#
# 1 0.012164 -0.005899 -0.001725 0.000000 0.000000 0.000000
# 2 -0.005899 0.012164 -0.001725 0.000000 0.000000 0.000000
# 3 -0.001725 -0.001725 0.011389 0.000000 0.000000 0.000000
# 4 0.000000 0.000000 0.000000 0.034353 0.000000 0.000000
# 5 0.000000 0.000000 0.000000 0.000000 0.034353 0.000000
# 6 0.000000 0.000000 0.000000 0.000000 0.000000 0.036126
#
#
# Mechanical properties :
#
#
# Convention : Reuss Voigt Hill
#
# Bulk Modulus (GPa) = 58.75004 61.05645 59.90325
# Shear Modulus (GPa) = 30.31739 31.39005 30.85372
#
# Velocity S-wave (km/s) = 3.73831 3.80386 3.77123
# Velocity P-wave (km/s) = 6.76124 6.88744 6.82463
#
# Compressibility (1/GPa) = 0.01702126
#
# Stress axis : x y z
#
# Youngs Moduli (GPa) = 82.20783 82.20783 87.80033
#
# Poissons Ratio (x) = 0.48494 0.15143
# Poissons Ratio (y) = 0.48494 0.15143
# Poissons Ratio (z) = 0.14179 0.14179
#
# Static dielectric constant tensor:
#      x y z
#    x 3.941690 0.000000 0.000000 
#    y 0.000000 3.941690 0.000000 
#    z 0.000000 0.000000 4.034390 
# 
# 
# High freq. dielectric constant tensor:
#      x y z
#    x 1.838880 0.000000 0.000000 
#    y 0.000000 1.838880 0.000000 
#    z 0.000000 0.000000 1.871060 
# 
# From -- ./inp_files/3134.got.cif
#   From: 2010.03.12/outbox.cif.g09.slc.cpg/sg179_2_cif.got.tgz:3134.got - 2010.04.02 07:08:42.
