data_PCOD8326886
_publ_section_title
;
Structure prediction by ZEFSAII (Michael W. Deem and Ramdas Pophale) SiO2 
 PCOD8326886
Probable space group: P -6 M 2
;
_chemical_formula_sum "Si O2"
_cell_formula_units_Z 66
_cell_length_a 22.285005
_cell_length_b 22.285005
_cell_length_c 7.764416
_cell_angle_alpha 90.000000
_cell_angle_beta 90.000000
_cell_angle_gamma 120.000000
_cell_volume 3339.372753
_symmetry_space_group_name_H-M "P -6 M 2"
_symmetry_group_IT_number 187
_symmetry_cell_setting 'hexagonal'
loop_
_space_group_symop_operation_xyz
x,y,z
-x+y,-x,-z
-y,x-y,z
x,y,-z
-x+y,-x,z
-y,x-y,-z
-y,-x,-z
-x+y,y,-z
x,x-y,-z
-x+y,y,z
x,x-y,z
-y,-x,z
loop_
_atom_site_type_symbol
_atom_site_label
_atom_site_fract_x
_atom_site_fract_y
_atom_site_fract_z
Si Si1 0.614410 0.873633 0.799256
Si Si2 0.523293 0.333233 0.000000
Si Si3 0.864790 0.864733 0.204781
Si Si4 0.718549 0.576246 0.693692
Si Si5 0.736941 0.720961 0.205004
Si Si6 0.334050 0.800362 0.703472
O O1 0.618757 0.809379 0.714038
O O2 0.539485 0.865123 0.760600
O O3 0.672914 0.945425 0.721295
O O4 0.627727 0.874505 0.000000
O O5 0.480200 0.333320 0.168543
O O6 0.597045 0.402956 0.000000
O O7 0.536155 0.268078 0.000000
O O8 0.852552 0.926276 0.276367
O O9 0.805964 0.789370 0.271195
O O10 0.938966 0.877931 0.271060
O O11 0.862926 0.865524 0.000000
O O12 0.691871 0.548582 0.500000
O O13 0.793568 0.587136 0.728546
O O14 0.727849 0.651614 0.713546
O O15 0.737106 0.714680 0.000000
O O16 0.335289 0.795910 0.500000
O O17 0.405435 0.810870 0.782529
O O18 0.270484 0.729517 0.779472
#
# Coordination Sequence:
#
# PCOD8326886 Si02
#       6
#    12   6  12  12  12  12
#     4   9  18  31  47  70 101 135 176 227 278 328
#     4  10  21  40  66  94 123 152 184 224 276 336
#     4   9  16  25  42  71 106 142 184 237 295 349
#     4  10  21  37  59  88 120 152 189 234 277 323
#     4  10  18  31  52  75 104 148 194 232 277 335
#     4   9  17  30  48  68  90 119 158 207 265 328
#
# _framework density 19.764191
#
# number of rings (size 3 to 8) (size 9 to 14) (size 15 to 20)
#    0.000    2.545    0.909    1.545    0.000    5.818 
#    0.000    0.909    0.000    3.818    0.000    0.000 
#    0.000    1.455    0.000    0.000    0.000    0.000 
#
# Total GULP energy -818155.061924 kJ/mol
# GULP energy per Si atom -12396.288817 kJ/mol
# Density = 1.971921 g / cm^3
# Si number density = 19.764191 Si / 1000 Ang^3
#
#
#
# Elastic Constant Matrix: (Units=GPa)
#
#
# Indices 1 2 3 4 5 6 
#
# 1 129.5257 64.4900 32.0442 0.0000 0.0002 0.0000
# 2 64.4900 129.5257 32.0442 0.0000 -0.0002 0.0000
# 3 32.0442 32.0442 59.7845 0.0000 0.0000 0.0000
# 4 0.0000 0.0000 0.0000 13.1880 0.0000 -0.0002
# 5 0.0002 -0.0002 0.0000 0.0000 13.1880 0.0000
# 6 0.0000 0.0000 0.0000 -0.0002 0.0000 32.5179
#
#
#
# Elastic Compliance Matrix: (Units=1/GPa)
#
#
# Indices 1 2 3 4 5 6 
#
# 1 0.010820 -0.004557 -0.003357 0.000000 0.000000 0.000000
# 2 -0.004557 0.010820 -0.003357 0.000000 0.000000 0.000000
# 3 -0.003357 -0.003357 0.020325 0.000000 0.000000 0.000000
# 4 0.000000 0.000000 0.000000 0.075827 0.000000 0.000000
# 5 0.000000 0.000000 0.000000 0.000000 0.075827 0.000000
# 6 0.000000 0.000000 0.000000 0.000000 0.000000 0.030752
#
#
# Mechanical properties :
#
#
# Convention : Reuss Voigt Hill
#
# Bulk Modulus (GPa) = 51.48361 63.99919 57.74140
# Shear Modulus (GPa) = 19.73274 24.46259 22.09767
#
# Velocity S-wave (km/s) = 3.16319 3.52195 3.34738
# Velocity P-wave (km/s) = 6.28064 6.99932 6.64970
#
# Compressibility (1/GPa) = 0.01942366
#
# Stress axis : x y z
#
# Youngs Moduli (GPa) = 92.42445 92.42445 49.19946
#
# Poissons Ratio (x) = 0.42113 0.16516
# Poissons Ratio (y) = 0.42113 0.16516
# Poissons Ratio (z) = 0.31027 0.31027
#
# Static dielectric constant tensor:
#      x y z
#    x 3.706590 0.000000 0.000000 
#    y 0.000000 3.706590 0.000000 
#    z 0.000000 0.000000 3.413250 
# 
# 
# High freq. dielectric constant tensor:
#      x y z
#    x 1.765890 0.000000 0.000000 
#    y 0.000000 1.765890 0.000000 
#    z 0.000000 0.000000 1.751340 
# 
# From -- ./inp_files/738.got.cif
#   From: 2010.03.12/outbox.cif.g09.slc.cpg/sg187_1_cif.got.tgz:738.got - 2010.04.01 11:58:23.
