data_PCOD8326999
_publ_section_title
;
Structure prediction by ZEFSAII (Michael W. Deem and Ramdas Pophale) SiO2 
 PCOD8326999
Probable space group: P -6 M 2
;
_chemical_formula_sum "Si O2"
_cell_formula_units_Z 66
_cell_length_a 20.475151
_cell_length_b 20.475151
_cell_length_c 9.972486
_cell_angle_alpha 90.000000
_cell_angle_beta 90.000000
_cell_angle_gamma 120.000000
_cell_volume 3620.664581
_symmetry_space_group_name_H-M "P -6 M 2"
_symmetry_group_IT_number 187
_symmetry_cell_setting 'hexagonal'
loop_
_space_group_symop_operation_xyz
x,y,z
-x+y,-x,-z
-y,x-y,z
x,y,-z
-x+y,-x,z
-y,x-y,-z
-y,-x,-z
-x+y,y,-z
x,x-y,-z
-x+y,y,z
x,x-y,z
-y,-x,z
loop_
_atom_site_type_symbol
_atom_site_label
_atom_site_fract_x
_atom_site_fract_y
_atom_site_fract_z
Si Si1 0.307396 0.845684 0.654321
Si Si2 0.276938 0.213389 0.153769
Si Si3 0.450921 0.901841 0.164443
Si Si4 0.447576 0.297488 0.779157
Si Si5 0.516562 0.186166 0.500000
Si Si6 0.534431 0.465570 0.855238
Si Si7 0.220013 0.287838 0.350501
O O1 0.337880 0.855257 0.500000
O O2 0.239205 0.760796 0.673378
O O3 0.368424 0.861072 0.768775
O O4 0.279476 0.905126 0.682286
O O5 0.259831 0.129916 0.188398
O O6 0.363287 0.273681 0.183335
O O7 0.224874 0.231540 0.245961
O O8 0.258561 0.220025 0.000000
O O9 0.494499 0.988998 0.223899
O O10 0.446004 0.892007 0.000000
O O11 0.467435 0.233718 0.828920
O O12 0.459562 0.310752 0.621448
O O13 0.501682 0.376929 0.844743
O O14 0.582551 0.165102 0.500000
O O15 0.554342 0.277171 0.500000
O O16 0.516301 0.483700 0.000000
O O17 0.235117 0.268337 0.500000
O O18 0.136341 0.272681 0.339194
#
# Coordination Sequence:
#
# PCOD8326999 Si02
#       7
#    12  12   6  12   6   6  12
#     4   9  19  38  59  81 110 143 182 224 273 331
#     4  10  21  36  55  81 113 145 178 219 268 323
#     4  11  23  37  55  83 115 147 183 231 281 331
#     4  10  21  36  52  73 105 142 185 233 282 328
#     4  10  19  34  52  72  97 134 184 240 290 332
#     4  11  22  36  52  74 108 145 187 235 283 333
#     4   9  19  36  59  86 112 139 176 223 266 318
#
# _framework density 18.228698000000001
#
# number of rings (size 3 to 8) (size 9 to 14) (size 15 to 20)
#    0.000    2.182    0.909    3.091    1.273    4.364 
#    4.364    1.818    0.000    0.364    0.000    0.000 
#    0.000    0.000    0.000    0.000    0.000    0.000 
#
# Total GULP energy -817934.212942 kJ/mol
# GULP energy per Si atom -12392.942620 kJ/mol
# Density = 1.818721 g / cm^3
# Si number density = 18.228698 Si / 1000 Ang^3
#
#
#
# Elastic Constant Matrix: (Units=GPa)
#
#
# Indices 1 2 3 4 5 6 
#
# 1 81.5779 46.1156 52.4430 0.0000 0.0007 0.0000
# 2 46.1156 81.5779 52.4430 0.0000 -0.0007 0.0000
# 3 52.4430 52.4430 112.7810 0.0000 0.0000 0.0000
# 4 0.0000 0.0000 0.0000 33.9200 0.0000 -0.0007
# 5 0.0007 -0.0007 0.0000 0.0000 33.9200 0.0000
# 6 0.0000 0.0000 0.0000 -0.0007 0.0000 17.7312
#
#
#
# Elastic Compliance Matrix: (Units=1/GPa)
#
#
# Indices 1 2 3 4 5 6 
#
# 1 0.020435 -0.007764 -0.005892 0.000000 -0.000001 0.000000
# 2 -0.007764 0.020435 -0.005892 0.000000 0.000001 0.000000
# 3 -0.005892 -0.005892 0.014346 0.000000 0.000000 0.000000
# 4 0.000000 0.000000 0.000000 0.029481 0.000000 0.000001
# 5 -0.000001 0.000001 0.000000 0.000000 0.029481 0.000000
# 6 0.000000 0.000000 0.000000 0.000001 0.000000 0.056398
#
#
# Mechanical properties :
#
#
# Convention : Reuss Voigt Hill
#
# Bulk Modulus (GPa) = 62.03403 64.21553 63.12478
# Shear Modulus (GPa) = 23.25092 25.44325 24.34708
#
# Velocity S-wave (km/s) = 3.57531 3.74007 3.65861
# Velocity P-wave (km/s) = 7.15182 7.34541 7.24926
#
# Compressibility (1/GPa) = 0.01612018
#
# Stress axis : x y z
#
# Youngs Moduli (GPa) = 48.93594 48.93594 69.70490
#
# Poissons Ratio (x) = 0.37994 0.41069
# Poissons Ratio (y) = 0.37994 0.41069
# Poissons Ratio (z) = 0.28833 0.28833
#
# Static dielectric constant tensor:
#      x y z
#    x 3.266240 0.000000 0.000000 
#    y 0.000000 3.266240 0.000000 
#    z 0.000000 0.000000 3.630750 
# 
# 
# High freq. dielectric constant tensor:
#      x y z
#    x 1.699590 0.000000 0.000000 
#    y 0.000000 1.699590 0.000000 
#    z 0.000000 0.000000 1.714710 
# 
# From -- ./inp_files/805.got.cif
#   From: 2010.03.12/outbox.cif.g09.slc.cpg/sg187_1_cif.got.tgz:805.got - 2010.04.01 11:58:23.
