data_PCOD8326743
_publ_section_title
;
Structure prediction by ZEFSAII (Michael W. Deem and Ramdas Pophale) SiO2 
 PCOD8326743
Probable space group: P 63 M C
;
_chemical_formula_sum "Si O2"
_cell_formula_units_Z 84
_cell_length_a 17.061231
_cell_length_b 17.061231
_cell_length_c 17.663489
_cell_angle_alpha 90.000000
_cell_angle_beta 90.000000
_cell_angle_gamma 120.000000
_cell_volume 4452.745262
_symmetry_space_group_name_H-M "P 63 M C"
_symmetry_group_IT_number 186
_symmetry_cell_setting 'hexagonal'
loop_
_space_group_symop_operation_xyz
x,y,z
x-y,x,1/2+z
-y,x-y,z
-x,-y,1/2+z
-x+y,-x,z
y,-x+y,1/2+z
-x+y,y,z
x,x-y,z
-y,-x,z
y,x,1/2+z
x-y,-y,1/2+z
-x,-x+y,1/2+z
loop_
_atom_site_type_symbol
_atom_site_label
_atom_site_fract_x
_atom_site_fract_y
_atom_site_fract_z
Si Si1 0.843526 0.511093 0.276640
Si Si2 0.635789 0.730872 0.916496
Si Si3 0.316997 0.070617 0.715563
Si Si4 0.484047 0.333475 0.822347
Si Si5 0.436657 0.381620 0.981399
Si Si6 0.376198 0.277292 0.130776
Si Si7 0.823302 0.822281 0.847964
O O1 0.736438 0.472875 0.284149
O O2 0.864532 0.432266 0.297566
O O3 0.899074 0.594183 0.333401
O O4 0.876323 0.545599 0.192253
O O5 0.609014 0.804507 0.946045
O O6 0.599656 0.647380 0.974238
O O7 0.744141 0.777327 0.910073
O O8 0.327444 0.163722 0.682646
O O9 0.407819 0.092154 0.760787
O O10 0.298740 0.003230 0.645692
O O11 0.230736 0.022798 0.769589
O O12 0.508440 0.254220 0.822592
O O13 0.572880 0.427121 0.801051
O O14 0.446730 0.337297 0.904795
O O15 0.524481 0.475520 0.000891
O O16 0.419092 0.312381 0.048791
O O17 0.339958 0.169979 0.135977
O O18 0.849852 0.924926 0.831167
O O19 0.909665 0.819330 0.881433
#
# Coordination Sequence:
#
# PCOD8326743 Si02
#       7
#    12  12  12  12  12  12  12
#     4  10  19  33  53  78 106 138 175 217 265 319
#     4  10  20  35  56  78 106 140 176 224 273 318
#     4  10  20  35  57  79 105 139 180 226 273 325
#     4  10  20  35  55  81 110 143 182 227 275 324
#     4  11  22  35  54  80 109 145 186 224 270 328
#     4  11  22  36  54  77 109 144 178 221 274 325
#     4  10  18  31  52  79 107 135 171 215 265 315
#
# _framework density 18.864768000000002
#
# number of rings (size 3 to 8) (size 9 to 14) (size 15 to 20)
#    0.000    1.714    2.857    2.143    0.000    3.429 
#    0.000    0.000    0.000    5.143    0.000    2.000 
#    0.000    0.000    0.000    0.000    0.000    0.000 
#
# Total GULP energy -1041726.862689 kJ/mol
# GULP energy per Si atom -12401.510270 kJ/mol
# Density = 1.882183 g / cm^3
# Si number density = 18.864768 Si / 1000 Ang^3
#
#
#
# Elastic Constant Matrix: (Units=GPa)
#
#
# Indices 1 2 3 4 5 6 
#
# 1 119.0543 55.5879 33.9937 0.0000 0.0000 0.0000
# 2 55.5879 119.0543 33.9937 0.0000 0.0000 0.0000
# 3 33.9937 33.9937 54.4150 0.0000 0.0000 0.0000
# 4 0.0000 0.0000 0.0000 24.2678 0.0000 0.0000
# 5 0.0000 0.0000 0.0000 0.0000 24.2678 0.0000
# 6 0.0000 0.0000 0.0000 0.0000 0.0000 31.7332
#
#
#
# Elastic Compliance Matrix: (Units=1/GPa)
#
#
# Indices 1 2 3 4 5 6 
#
# 1 0.011661 -0.004095 -0.004727 0.000000 0.000000 0.000000
# 2 -0.004095 0.011661 -0.004727 0.000000 0.000000 0.000000
# 3 -0.004727 -0.004727 0.024283 0.000000 0.000000 0.000000
# 4 0.000000 0.000000 0.000000 0.041207 0.000000 0.000000
# 5 0.000000 0.000000 0.000000 0.000000 0.041207 0.000000
# 6 0.000000 0.000000 0.000000 0.000000 0.000000 0.031513
#
#
# Mechanical properties :
#
#
# Convention : Reuss Voigt Hill
#
# Bulk Modulus (GPa) = 48.76026 59.96380 54.36203
# Shear Modulus (GPa) = 25.58006 27.31695 26.44851
#
# Velocity S-wave (km/s) = 3.68634 3.80944 3.74840
# Velocity P-wave (km/s) = 6.63492 7.15572 6.90024
#
# Compressibility (1/GPa) = 0.02050850
#
# Stress axis : x y z
#
# Youngs Moduli (GPa) = 85.75443 85.75443 41.18138
#
# Poissons Ratio (x) = 0.35118 0.19465
# Poissons Ratio (y) = 0.35118 0.19465
# Poissons Ratio (z) = 0.40533 0.40533
#
# Static dielectric constant tensor:
#      x y z
#    x 3.585540 0.000000 0.000000 
#    y 0.000000 3.585540 0.000000 
#    z 0.000000 0.000000 3.104460 
# 
# 
# High freq. dielectric constant tensor:
#      x y z
#    x 1.742720 0.000000 0.000000 
#    y 0.000000 1.742720 0.000000 
#    z 0.000000 0.000000 1.698820 
# 
# From -- ./inp_files/2548.got.cif
#   From: 2010.03.12/outbox.cif.g09.slc.cpg/sg186_2_cif.got.tgz:2548.got - 2010.04.01 11:56:34.
