data_PCOD8326395
_publ_section_title
;
Structure prediction by ZEFSAII (Michael W. Deem and Ramdas Pophale) SiO2 
 PCOD8326395
Probable space group: P 64 2 2
;
_chemical_formula_sum "Si O2"
_cell_formula_units_Z 42
_cell_length_a 13.362692
_cell_length_b 13.362692
_cell_length_c 12.067318
_cell_angle_alpha 90.000000
_cell_angle_beta 90.000000
_cell_angle_gamma 120.000000
_cell_volume 1866.075908
_symmetry_space_group_name_H-M "P 64 2 2"
_symmetry_group_IT_number 181
_symmetry_cell_setting 'hexagonal'
loop_
_space_group_symop_operation_xyz
x,y,z
x-y,x,2/3+z
-y,x-y,1/3+z
-x,-y,z
-x+y,-x,2/3+z
y,-x+y,1/3+z
x-y,-y,-z
-x,-x+y,2/3-z
y,x,1/3-z
-y,-x,1/3-z
-x+y,y,-z
x,x-y,2/3-z
loop_
_atom_site_type_symbol
_atom_site_label
_atom_site_fract_x
_atom_site_fract_y
_atom_site_fract_z
Si Si1 0.723654 0.723654 0.666667
Si Si2 0.663329 0.559423 0.471414
Si Si3 0.237121 0.539156 0.124171
Si Si4 0.100959 0.768398 0.920690
O O1 0.656295 0.641204 0.563374
O O2 0.746636 0.852700 0.643026
O O3 0.773526 0.547053 0.500000
O O4 0.551330 0.429596 0.468151
O O5 0.673258 0.618489 0.351470
O O6 0.344693 0.655308 0.166667
O O7 0.224616 0.437380 0.200154
O O8 0.256250 0.512500 0.000000
O O9 0.000000 0.739908 0.833334
#
# Coordination Sequence:
#
# PCOD8326395 Si02
#       4
#     6  12  12  12
#     4  10  24  45  70 101 134 184 244 299 355 428
#     4   9  21  41  67  98 135 176 228 280 352 425
#     4  11  22  41  64 100 146 185 217 280 362 444
#     4  11  25  43  67 100 140 182 235 293 353 424
#
# _framework density 22.507121000000001
#
# number of rings (size 3 to 8) (size 9 to 14) (size 15 to 20)
#    0.000    1.714    2.857    0.000    4.000    2.857 
#    0.000    0.000    0.000   23.143    0.000    0.000 
#    0.000    0.000    0.000    0.000    0.000    0.000 
#
# Total GULP energy -520823.756182 kJ/mol
# GULP energy per Si atom -12400.565623 kJ/mol
# Density = 2.245589 g / cm^3
# Si number density = 22.507121 Si / 1000 Ang^3
#
#
#
# Elastic Constant Matrix: (Units=GPa)
#
#
# Indices 1 2 3 4 5 6 
#
# 1 92.2781 44.6800 45.9677 0.0000 0.0000 0.0000
# 2 44.6800 92.2781 45.9677 0.0000 0.0000 0.0000
# 3 45.9677 45.9677 173.2718 0.0000 0.0000 0.0000
# 4 0.0000 0.0000 0.0000 40.9354 0.0000 0.0000
# 5 0.0000 0.0000 0.0000 0.0000 40.9354 0.0000
# 6 0.0000 0.0000 0.0000 0.0000 0.0000 23.7990
#
#
#
# Elastic Compliance Matrix: (Units=1/GPa)
#
#
# Indices 1 2 3 4 5 6 
#
# 1 0.014946 -0.006063 -0.002357 0.000000 0.000000 0.000000
# 2 -0.006063 0.014946 -0.002357 0.000000 0.000000 0.000000
# 3 -0.002357 -0.002357 0.007022 0.000000 0.000000 0.000000
# 4 0.000000 0.000000 0.000000 0.024429 0.000000 0.000000
# 5 0.000000 0.000000 0.000000 0.000000 0.024429 0.000000
# 6 0.000000 0.000000 0.000000 0.000000 0.000000 0.042019
#
#
# Mechanical properties :
#
#
# Convention : Reuss Voigt Hill
#
# Bulk Modulus (GPa) = 65.09649 70.11766 67.60708
# Shear Modulus (GPa) = 32.37006 35.88146 34.12576
#
# Velocity S-wave (km/s) = 3.79649 3.99711 3.89809
# Velocity P-wave (km/s) = 6.94285 7.24732 7.09672
#
# Compressibility (1/GPa) = 0.01536181
#
# Stress axis : x y z
#
# Youngs Moduli (GPa) = 66.90586 66.90586 142.41517
#
# Poissons Ratio (x) = 0.40564 0.33563
# Poissons Ratio (y) = 0.40564 0.33563
# Poissons Ratio (z) = 0.15768 0.15768
#
# Static dielectric constant tensor:
#      x y z
#    x 3.993220 0.000000 0.000000 
#    y 0.000000 3.993220 0.000000 
#    z 0.000000 0.000000 5.051970 
# 
# 
# High freq. dielectric constant tensor:
#      x y z
#    x 1.882240 0.000000 0.000000 
#    y 0.000000 1.882240 0.000000 
#    z 0.000000 0.000000 1.905580 
# 
# From -- ./inp_files/4226.got.cif
#   From: 2010.03.12/outbox.cif.g09.slc.cpg/sg181_3_cif.got.tgz:4226.got - 2010.04.01 11:42:41.
