data_PCOD8326968
_publ_section_title
;
Structure prediction by ZEFSAII (Michael W. Deem and Ramdas Pophale) SiO2 
 PCOD8326968
Probable space group: P -6 M 2
;
_chemical_formula_sum "Si O2"
_cell_formula_units_Z 96
_cell_length_a 17.693578
_cell_length_b 17.693578
_cell_length_c 20.729365
_cell_angle_alpha 90.000000
_cell_angle_beta 90.000000
_cell_angle_gamma 120.000000
_cell_volume 5620.150689
_symmetry_space_group_name_H-M "P -6 M 2"
_symmetry_group_IT_number 187
_symmetry_cell_setting 'hexagonal'
loop_
_space_group_symop_operation_xyz
x,y,z
-x+y,-x,-z
-y,x-y,z
x,y,-z
-x+y,-x,z
-y,x-y,-z
-y,-x,-z
-x+y,y,-z
x,x-y,-z
-x+y,y,z
x,x-y,z
-y,-x,z
loop_
_atom_site_type_symbol
_atom_site_label
_atom_site_fract_x
_atom_site_fract_y
_atom_site_fract_z
Si Si1 0.667633 0.508686 0.123196
Si Si2 0.168824 0.999631 0.573469
Si Si3 0.027304 0.426548 0.927441
Si Si4 0.270963 0.904791 0.811794
Si Si5 0.392565 0.960241 0.571704
Si Si6 0.738841 0.646278 0.229396
Si Si7 0.354154 0.261586 0.376042
Si Si8 0.331753 0.842095 0.689950
O O1 0.755616 0.511231 0.097775
O O2 0.591413 0.408588 0.129020
O O3 0.641036 0.564039 0.075952
O O4 0.683126 0.554623 0.192636
O O5 0.196981 0.995385 0.500000
O O6 0.132062 0.066031 0.577971
O O7 0.250262 0.028565 0.619965
O O8 0.094250 0.905751 0.597607
O O9 0.045607 0.522804 0.910259
O O10 0.085732 0.406170 0.879041
O O11 0.057527 0.422229 0.000000
O O12 0.169816 0.830185 0.818812
O O13 0.317792 0.883038 0.754470
O O14 0.279093 0.997808 0.795490
O O15 0.356379 0.922594 0.500000
O O16 0.488494 0.976988 0.581263
O O17 0.329136 0.894059 0.626394
O O18 0.401384 0.055090 0.579116
O O19 0.842543 0.685085 0.219904
O O20 0.710487 0.619258 0.302719
O O21 0.379755 0.189878 0.399452
O O22 0.423051 0.846101 0.696547
O O23 0.257394 0.742607 0.681255
#
# Coordination Sequence:
#
# PCOD8326968 Si02
#       8
#    12  12  12  12  12  12  12  12
#     4   9  17  29  48  74 104 135 168 201 239 287
#     4   9  17  28  43  64  90 119 149 185 234 294
#     4   9  18  32  49  72 105 140 169 201 244 291
#     4  10  19  32  53  77  99 130 171 212 250 291
#     4  10  21  35  50  70  96 126 162 206 254 300
#     4   9  18  32  48  70  98 129 161 203 254 300
#     4  10  19  32  50  70  93 123 161 203 250 300
#     4  10  20  34  52  74  99 129 165 206 251 300
#
# _framework density 17.081392000000001
#
# number of rings (size 3 to 8) (size 9 to 14) (size 15 to 20)
#    0.000    2.500    1.250    1.125    0.000    4.000 
#    0.000    0.000    0.000    2.250    0.000    0.000 
#    0.000    0.000    0.000    0.375    0.000    0.500 
#
# Total GULP energy -1190075.163772 kJ/mol
# GULP energy per Si atom -12396.616289 kJ/mol
# Density = 1.704251 g / cm^3
# Si number density = 17.081392 Si / 1000 Ang^3
#
#
#
# Elastic Constant Matrix: (Units=GPa)
#
#
# Indices 1 2 3 4 5 6 
#
# 1 74.4208 31.7066 32.0750 0.0000 -0.0001 0.0000
# 2 31.7066 74.4208 32.0750 0.0000 0.0001 0.0000
# 3 32.0750 32.0750 91.0336 0.0000 0.0000 0.0000
# 4 0.0000 0.0000 0.0000 20.2554 0.0000 0.0001
# 5 -0.0001 0.0001 0.0000 0.0000 20.2554 0.0000
# 6 0.0000 0.0000 0.0000 0.0001 0.0000 21.3571
#
#
#
# Elastic Compliance Matrix: (Units=1/GPa)
#
#
# Indices 1 2 3 4 5 6 
#
# 1 0.017692 -0.005719 -0.004218 0.000000 0.000000 0.000000
# 2 -0.005719 0.017692 -0.004218 0.000000 0.000000 0.000000
# 3 -0.004218 -0.004218 0.013958 0.000000 0.000000 0.000000
# 4 0.000000 0.000000 0.000000 0.049370 0.000000 0.000000
# 5 0.000000 0.000000 0.000000 0.000000 0.049370 0.000000
# 6 0.000000 0.000000 0.000000 0.000000 0.000000 0.046823
#
#
# Mechanical properties :
#
#
# Convention : Reuss Voigt Hill
#
# Bulk Modulus (GPa) = 47.55352 47.95428 47.75390
# Shear Modulus (GPa) = 21.71780 21.97481 21.84631
#
# Velocity S-wave (km/s) = 3.56958 3.59064 3.58013
# Velocity P-wave (km/s) = 6.69993 6.73240 6.71618
#
# Compressibility (1/GPa) = 0.02102894
#
# Stress axis : x y z
#
# Youngs Moduli (GPa) = 56.52286 56.52286 71.64551
#
# Poissons Ratio (x) = 0.32328 0.30223
# Poissons Ratio (y) = 0.32328 0.30223
# Poissons Ratio (z) = 0.23844 0.23844
#
# Static dielectric constant tensor:
#      x y z
#    x 3.176090 0.000000 0.000000 
#    y 0.000000 3.176090 0.000000 
#    z 0.000000 0.000000 3.234600 
# 
# 
# High freq. dielectric constant tensor:
#      x y z
#    x 1.651600 0.000000 0.000000 
#    y 0.000000 1.651600 0.000000 
#    z 0.000000 0.000000 1.659110 
# 
# From -- ./inp_files/3744.got.cif
#   From: 2010.03.12/outbox.cif.g09.slc.cpg/sg187_2_cif.got.tgz:3744.got - 2010.04.01 11:58:23.
