data_PCOD8326054
_publ_section_title
;
Structure prediction by ZEFSAII (Michael W. Deem and Ramdas Pophale) SiO2 
 PCOD8326054
Probable space group: P 65 2 2
;
_chemical_formula_sum "Si O2"
_cell_formula_units_Z 48
_cell_length_a 16.032128
_cell_length_b 16.032128
_cell_length_c 9.885639
_cell_angle_alpha 90.000000
_cell_angle_beta 90.000000
_cell_angle_gamma 120.000000
_cell_volume 2200.481501
_symmetry_space_group_name_H-M "P 65 2 2"
_symmetry_group_IT_number 179
_symmetry_cell_setting 'hexagonal'
loop_
_space_group_symop_operation_xyz
x,y,z
x-y,x,5/6+z
-y,x-y,2/3+z
-x,-y,1/2+z
-x+y,-x,1/3+z
y,-x+y,1/6+z
x-y,-y,-z
-x,-x+y,1/3-z
y,x,2/3-z
-y,-x,1/6-z
-x+y,y,1/2-z
x,x-y,5/6-z
loop_
_atom_site_type_symbol
_atom_site_label
_atom_site_fract_x
_atom_site_fract_y
_atom_site_fract_z
Si Si1 0.135799 0.528324 0.053205
Si Si2 0.322413 0.342081 0.115130
Si Si3 0.227022 0.772979 0.583334
Si Si4 0.590926 0.000000 0.500000
Si Si5 0.046562 0.865512 0.951333
O O1 0.218953 0.521249 0.134686
O O2 0.094845 0.583410 0.141542
O O3 0.181129 0.590565 0.916667
O O4 0.045008 0.423698 0.020789
O O5 0.265963 0.388990 0.184775
O O6 0.259706 0.227577 0.128511
O O7 0.335571 0.366546 0.957095
O O8 0.091355 0.948396 0.839328
O O9 0.114672 0.885329 0.083334
#
# Coordination Sequence:
#
# PCOD8326054 Si02
#       5
#    12  12   6   6  12
#     4  10  22  40  66  97 128 172 218 270 345 403
#     4  11  22  39  69  97 129 173 228 273 322 401
#     4  12  22  40  68 102 130 164 228 288 322 402
#     4  10  20  42  68  90 132 180 208 266 338 418
#     4  10  21  39  56  89 131 174 219 264 320 374
#
# _framework density 21.813409
#
# number of rings (size 3 to 8) (size 9 to 14) (size 15 to 20)
#    0.000    1.500    2.500    3.000    0.000    0.000 
#   11.250    3.750   11.000    0.000    0.000    0.000 
#    0.000    0.000    0.000    0.000    0.000    0.000 
#
# Total GULP energy -595291.764969 kJ/mol
# GULP energy per Si atom -12401.911770 kJ/mol
# Density = 2.176376 g / cm^3
# Si number density = 21.813409 Si / 1000 Ang^3
#
#
#
# Elastic Constant Matrix: (Units=GPa)
#
#
# Indices 1 2 3 4 5 6 
#
# 1 82.4747 37.5840 41.3814 0.0000 0.0000 0.0000
# 2 37.5840 82.4747 41.3814 0.0000 0.0000 0.0000
# 3 41.3814 41.3814 112.3480 0.0000 0.0000 0.0000
# 4 0.0000 0.0000 0.0000 25.0275 0.0000 0.0000
# 5 0.0000 0.0000 0.0000 0.0000 25.0275 0.0000
# 6 0.0000 0.0000 0.0000 0.0000 0.0000 22.4453
#
#
#
# Elastic Compliance Matrix: (Units=1/GPa)
#
#
# Indices 1 2 3 4 5 6 
#
# 1 0.016720 -0.005556 -0.004112 0.000000 0.000000 0.000000
# 2 -0.005556 0.016720 -0.004112 0.000000 0.000000 0.000000
# 3 -0.004112 -0.004112 0.011930 0.000000 0.000000 0.000000
# 4 0.000000 0.000000 0.000000 0.039956 0.000000 0.000000
# 5 0.000000 0.000000 0.000000 0.000000 0.039956 0.000000
# 6 0.000000 0.000000 0.000000 0.000000 0.000000 0.044553
#
#
# Mechanical properties :
#
#
# Convention : Reuss Voigt Hill
#
# Bulk Modulus (GPa) = 56.14888 57.55455 56.85171
# Shear Modulus (GPa) = 24.59028 24.96343 24.77686
#
# Velocity S-wave (km/s) = 3.36117 3.38658 3.37390
# Velocity P-wave (km/s) = 6.39216 6.46019 6.42627
#
# Compressibility (1/GPa) = 0.01780979
#
# Stress axis : x y z
#
# Youngs Moduli (GPa) = 59.80818 59.80818 83.82170
#
# Poissons Ratio (x) = 0.33231 0.34468
# Poissons Ratio (y) = 0.33231 0.34468
# Poissons Ratio (z) = 0.24593 0.24593
#
# Static dielectric constant tensor:
#      x y z
#    x 3.891400 0.000000 0.000000 
#    y 0.000000 3.891400 0.000000 
#    z 0.000000 0.000000 4.777750 
# 
# 
# High freq. dielectric constant tensor:
#      x y z
#    x 1.850460 0.000000 0.000000 
#    y 0.000000 1.850460 0.000000 
#    z 0.000000 0.000000 1.873150 
# 
# From -- ./inp_files/2872.got.cif
#   From: 2010.03.12/outbox.cif.g09.slc.cpg/sg179_2_cif.got.tgz:2872.got - 2010.04.02 07:08:42.
