data_PCOD8326453
_publ_section_title
;
Structure prediction by ZEFSAII (Michael W. Deem and Ramdas Pophale) SiO2 
 PCOD8326453
Probable space group: P 63 2 2
;
_chemical_formula_sum "Si O2"
_cell_formula_units_Z 70
_cell_length_a 14.647563
_cell_length_b 14.647563
_cell_length_c 18.840972
_cell_angle_alpha 90.000000
_cell_angle_beta 90.000000
_cell_angle_gamma 120.000000
_cell_volume 3500.778919
_symmetry_space_group_name_H-M "P 63 2 2"
_symmetry_group_IT_number 182
_symmetry_cell_setting 'hexagonal'
loop_
_space_group_symop_operation_xyz
x,y,z
x-y,x,1/2+z
-y,x-y,z
-x,-y,1/2+z
-x+y,-x,z
y,-x+y,1/2+z
x-y,-y,-z
-x,-x+y,-z
y,x,-z
-y,-x,1/2-z
-x+y,y,1/2-z
x,x-y,1/2-z
loop_
_atom_site_type_symbol
_atom_site_label
_atom_site_fract_x
_atom_site_fract_y
_atom_site_fract_z
Si Si1 0.000000 0.000000 0.333743
Si Si2 0.363198 0.099009 0.194088
Si Si3 0.235366 0.093167 0.832209
Si Si4 0.343569 0.558357 0.033479
Si Si5 0.175883 0.696673 0.878147
Si Si6 0.125383 0.562692 0.750000
Si Si7 0.958986 0.302685 0.578480
O O1 0.000000 0.000000 0.250000
O O2 0.069277 0.118010 0.361478
O O3 0.334458 0.167229 0.250000
O O4 0.428859 0.177755 0.129963
O O5 0.439389 0.057931 0.226560
O O6 0.262517 0.999456 0.160611
O O7 0.250700 0.125350 0.750000
O O8 0.303594 0.190753 0.883714
O O9 0.441340 0.675465 0.051310
O O10 0.353986 0.469959 0.075290
O O11 0.346761 0.541372 0.950002
O O12 0.197604 0.635383 0.814821
O O13 0.056191 0.676080 0.872880
O O14 0.000000 0.292319 0.500000
#
# Coordination Sequence:
#
# PCOD8326453 Si02
#       7
#     4  12  12  12  12   6  12
#     4   9  18  33  58  86 112 156 199 242 301 369
#     4  10  20  34  53  87 122 151 190 242 307 371
#     4  11  20  36  60  84 116 158 197 240 300 366
#     4   9  20  38  59  78 106 157 202 237 297 372
#     4  10  19  37  57  85 116 147 187 250 306 359
#     4  10  20  32  54  92 120 146 186 252 306 358
#     4  10  22  39  59  84 121 158 199 253 303 373
#
# _framework density 19.995549
#
# number of rings (size 3 to 8) (size 9 to 14) (size 15 to 20)
#    0.343    1.714    0.000    5.657    0.000    1.371 
#   13.886    9.429    0.000    0.000    0.000    0.000 
#    0.000    0.000    0.000    0.000    0.000    0.000 
#
# Total GULP energy -867181.581865 kJ/mol
# GULP energy per Si atom -12388.308312 kJ/mol
# Density = 1.995004 g / cm^3
# Si number density = 19.995549 Si / 1000 Ang^3
#
#
#
# Elastic Constant Matrix: (Units=GPa)
#
#
# Indices 1 2 3 4 5 6 
#
# 1 97.0060 26.6011 28.3887 0.0000 0.0000 0.0000
# 2 26.6011 97.0060 28.3887 0.0000 0.0000 0.0000
# 3 28.3887 28.3887 55.4292 0.0000 0.0000 0.0000
# 4 0.0000 0.0000 0.0000 24.1979 0.0000 0.0000
# 5 0.0000 0.0000 0.0000 0.0000 24.1979 0.0000
# 6 0.0000 0.0000 0.0000 0.0000 0.0000 35.2024
#
#
#
# Elastic Compliance Matrix: (Units=1/GPa)
#
#
# Indices 1 2 3 4 5 6 
#
# 1 0.012391 -0.001812 -0.005418 0.000000 0.000000 0.000000
# 2 -0.001812 0.012391 -0.005418 0.000000 0.000000 0.000000
# 3 -0.005418 -0.005418 0.023591 0.000000 0.000000 0.000000
# 4 0.000000 0.000000 0.000000 0.041326 0.000000 0.000000
# 5 0.000000 0.000000 0.000000 0.000000 0.041326 0.000000
# 6 0.000000 0.000000 0.000000 0.000000 0.000000 0.028407
#
#
# Mechanical properties :
#
#
# Convention : Reuss Voigt Hill
#
# Bulk Modulus (GPa) = 43.33454 46.24427 44.78941
# Shear Modulus (GPa) = 25.98461 27.79047 26.88754
#
# Velocity S-wave (km/s) = 3.60880 3.73209 3.67096
# Velocity P-wave (km/s) = 6.25169 6.46133 6.35738
#
# Compressibility (1/GPa) = 0.02307628
#
# Stress axis : x y z
#
# Youngs Moduli (GPa) = 80.70220 80.70220 42.38919
#
# Poissons Ratio (x) = 0.14626 0.22967
# Poissons Ratio (y) = 0.14626 0.22967
# Poissons Ratio (z) = 0.43725 0.43725
#
# Static dielectric constant tensor:
#      x y z
#    x 3.721630 0.000000 0.000000 
#    y 0.000000 3.721630 0.000000 
#    z 0.000000 0.000000 3.450880 
# 
# 
# High freq. dielectric constant tensor:
#      x y z
#    x 1.777450 0.000000 0.000000 
#    y 0.000000 1.777450 0.000000 
#    z 0.000000 0.000000 1.760490 
# 
# From -- ./inp_files/4361.got.cif
#   From: 2010.03.12/outbox.cif.g09.slc.cpg/sg182_3_cif.got.tgz:4361.got - 2010.04.01 11:49:36.
