data_PCOD8326972
_publ_section_title
;
Structure prediction by ZEFSAII (Michael W. Deem and Ramdas Pophale) SiO2 
 PCOD8326972
Probable space group: P -6 M 2
;
_chemical_formula_sum "Si O2"
_cell_formula_units_Z 72
_cell_length_a 22.927420
_cell_length_b 22.927420
_cell_length_c 8.899444
_cell_angle_alpha 90.000000
_cell_angle_beta 90.000000
_cell_angle_gamma 120.000000
_cell_volume 4051.388395
_symmetry_space_group_name_H-M "P -6 M 2"
_symmetry_group_IT_number 187
_symmetry_cell_setting 'hexagonal'
loop_
_space_group_symop_operation_xyz
x,y,z
-x+y,-x,-z
-y,x-y,z
x,y,-z
-x+y,-x,z
-y,x-y,-z
-y,-x,-z
-x+y,y,-z
x,x-y,-z
-x+y,y,z
x,x-y,z
-y,-x,z
loop_
_atom_site_type_symbol
_atom_site_label
_atom_site_fract_x
_atom_site_fract_y
_atom_site_fract_z
Si Si1 0.535852 0.202694 0.821158
Si Si2 0.932051 0.201584 0.175571
Si Si3 0.200137 0.267259 0.325744
Si Si4 0.931439 0.336824 0.823910
Si Si5 0.538069 0.942824 0.322349
Si Si6 0.270818 0.409064 0.176354
O O1 0.601252 0.202503 0.757238
O O2 0.534604 0.267302 0.754951
O O3 0.470118 0.135935 0.765767
O O4 0.537564 0.205732 0.000000
O O5 0.865692 0.134309 0.230157
O O6 0.923163 0.264935 0.214474
O O7 0.995934 0.207807 0.265482
O O8 0.944390 0.198071 0.000000
O O9 0.219094 0.281465 0.500000
O O10 0.122360 0.244720 0.297132
O O11 0.249142 0.334890 0.235604
O O12 0.992051 0.395231 0.733313
O O13 0.944031 0.353554 0.000000
O O14 0.539174 0.938869 0.500000
O O15 0.472222 0.944444 0.265421
O O16 0.536428 0.876721 0.253862
O O17 0.214408 0.428816 0.216837
O O18 0.282013 0.408773 0.000000
#
# Coordination Sequence:
#
# PCOD8326972 Si02
#       6
#    12  12  12  12  12  12
#     4   9  16  26  42  65  93 127 170 220 271 320
#     4  10  20  33  51  78 111 145 181 222 268 319
#     4  10  20  34  54  80 109 140 175 217 265 319
#     4  10  19  32  50  73 102 138 177 222 273 320
#     4  11  23  36  52  78 112 146 179 218 264 315
#     4  10  20  35  57  83 108 136 173 218 266 316
#
# _framework density 17.771685999999999
#
# number of rings (size 3 to 8) (size 9 to 14) (size 15 to 20)
#    0.000    2.000    1.667    2.667    0.000    7.000 
#    0.000    0.000    0.000    2.167    0.000    0.000 
#    0.000    1.333    0.000    0.000    0.000    0.000 
#
# Total GULP energy -892976.547931 kJ/mol
# GULP energy per Si atom -12402.452055 kJ/mol
# Density = 1.773124 g / cm^3
# Si number density = 17.771686 Si / 1000 Ang^3
#
#
#
# Elastic Constant Matrix: (Units=GPa)
#
#
# Indices 1 2 3 4 5 6 
#
# 1 118.1720 63.0678 41.2353 0.0000 0.0002 0.0000
# 2 63.0678 118.1720 41.2353 0.0000 -0.0002 0.0000
# 3 41.2353 41.2353 55.4931 0.0000 0.0000 0.0000
# 4 0.0000 0.0000 0.0000 22.6372 0.0000 -0.0002
# 5 0.0002 -0.0002 0.0000 0.0000 22.6372 0.0000
# 6 0.0000 0.0000 0.0000 -0.0002 0.0000 27.5521
#
#
#
# Elastic Compliance Matrix: (Units=1/GPa)
#
#
# Indices 1 2 3 4 5 6 
#
# 1 0.013242 -0.004906 -0.006194 0.000000 0.000000 0.000000
# 2 -0.004906 0.013242 -0.006194 0.000000 0.000000 0.000000
# 3 -0.006194 -0.006194 0.027226 0.000000 0.000000 0.000000
# 4 0.000000 0.000000 0.000000 0.044175 0.000000 0.000000
# 5 0.000000 0.000000 0.000000 0.000000 0.044175 0.000000
# 6 0.000000 0.000000 0.000000 0.000000 0.000000 0.036295
#
#
# Mechanical properties :
#
#
# Convention : Reuss Voigt Hill
#
# Bulk Modulus (GPa) = 52.29892 64.76822 58.53357
# Shear Modulus (GPa) = 22.79802 24.31853 23.55827
#
# Velocity S-wave (km/s) = 3.58554 3.70318 3.64484
# Velocity P-wave (km/s) = 6.82888 7.40328 7.12187
#
# Compressibility (1/GPa) = 0.01912085
#
# Stress axis : x y z
#
# Youngs Moduli (GPa) = 75.51823 75.51823 36.72953
#
# Poissons Ratio (x) = 0.37046 0.22752
# Poissons Ratio (y) = 0.37046 0.22752
# Poissons Ratio (z) = 0.46779 0.46779
#
# Static dielectric constant tensor:
#      x y z
#    x 3.428020 0.000000 0.000000 
#    y 0.000000 3.428020 0.000000 
#    z 0.000000 0.000000 3.126830 
# 
# 
# High freq. dielectric constant tensor:
#      x y z
#    x 1.685960 0.000000 0.000000 
#    y 0.000000 1.685960 0.000000 
#    z 0.000000 0.000000 1.673580 
# 
# From -- ./inp_files/977.got.cif
#   From: 2010.03.12/outbox.cif.g09.slc.cpg/sg187_1_cif.got.tgz:977.got - 2010.04.01 11:58:23.
