data_PCOD8326717
_publ_section_title
;
Structure prediction by ZEFSAII (Michael W. Deem and Ramdas Pophale) SiO2 
 PCOD8326717
Probable space group: P 63 M C
;
_chemical_formula_sum "Si O2"
_cell_formula_units_Z 96
_cell_length_a 22.801170
_cell_length_b 22.801170
_cell_length_c 11.768685
_cell_angle_alpha 90.000000
_cell_angle_beta 90.000000
_cell_angle_gamma 120.000000
_cell_volume 5298.742753
_symmetry_space_group_name_H-M "P 63 M C"
_symmetry_group_IT_number 186
_symmetry_cell_setting 'hexagonal'
loop_
_space_group_symop_operation_xyz
x,y,z
x-y,x,1/2+z
-y,x-y,z
-x,-y,1/2+z
-x+y,-x,z
y,-x+y,1/2+z
-x+y,y,z
x,x-y,z
-y,-x,z
y,x,1/2+z
x-y,-y,1/2+z
-x,-x+y,1/2+z
loop_
_atom_site_type_symbol
_atom_site_label
_atom_site_fract_x
_atom_site_fract_y
_atom_site_fract_z
Si Si1 0.788411 0.708996 0.620430
Si Si2 0.414029 0.104479 0.764874
Si Si3 0.693157 0.076712 0.000355
Si Si4 0.462069 0.795408 0.125556
Si Si5 0.563746 0.567317 0.133910
Si Si6 0.492041 0.111496 0.433098
Si Si7 0.716524 0.063378 0.391617
Si Si8 0.719467 0.926102 0.663689
O O1 0.868779 0.737557 0.631077
O O2 0.749355 0.659498 0.724777
O O3 0.761139 0.665202 0.504850
O O4 0.775534 0.773056 0.626147
O O5 0.427664 0.127006 0.898597
O O6 0.470553 0.168459 0.699113
O O7 0.418842 0.036271 0.741690
O O8 0.682126 0.014385 0.920720
O O9 0.760359 0.103305 0.075094
O O10 0.631826 0.060550 0.086188
O O11 0.407140 0.814279 0.173551
O O12 0.430819 0.715410 0.133012
O O13 0.476725 0.815357 0.992292
O O14 0.509533 0.490468 0.169796
O O15 0.534457 0.593785 0.036969
O O16 0.552598 0.105195 0.367974
O O17 0.427337 0.097882 0.357323
O O18 0.766379 0.073734 0.289235
O O19 0.749676 0.874838 0.661055
#
# Coordination Sequence:
#
# PCOD8326717 Si02
#       8
#    12  12  12  12  12  12  12  12
#     4  11  21  35  57  81 104 137 178 218 268 328
#     4  11  18  32  53  75 105 135 177 217 260 318
#     4  10  19  34  50  75 109 138 175 213 264 323
#     4  10  19  30  45  70 102 138 178 222 268 307
#     4   9  16  29  48  73 106 140 172 214 260 309
#     4   8  15  27  47  73 100 131 173 216 260 308
#     4  10  17  35  55  77 105 139 173 214 261 322
#     4  11  23  38  54  78 110 140 174 222 273 327
#
# _framework density 18.117505000000001
#
# number of rings (size 3 to 8) (size 9 to 14) (size 15 to 20)
#    0.000    2.000    6.250    2.000    0.000    2.500 
#    0.000    3.125    0.000    0.250    0.000    0.000 
#    0.000    1.000    0.000    0.500    0.000    0.000 
#
# Total GULP energy -1189436.755073 kJ/mol
# GULP energy per Si atom -12389.966199 kJ/mol
# Density = 1.807627 g / cm^3
# Si number density = 18.117505 Si / 1000 Ang^3
#
#
#
# Elastic Constant Matrix: (Units=GPa)
#
#
# Indices 1 2 3 4 5 6 
#
# 1 83.7048 44.8485 13.9222 0.0000 0.0000 0.0000
# 2 44.8485 83.7048 13.9222 0.0000 0.0000 0.0000
# 3 13.9222 13.9222 67.5008 0.0000 0.0000 0.0000
# 4 0.0000 0.0000 0.0000 10.7951 0.0000 0.0000
# 5 0.0000 0.0000 0.0000 0.0000 10.7951 0.0000
# 6 0.0000 0.0000 0.0000 0.0000 0.0000 19.4281
#
#
#
# Elastic Compliance Matrix: (Units=1/GPa)
#
#
# Indices 1 2 3 4 5 6 
#
# 1 0.016939 -0.008797 -0.001679 0.000000 0.000000 0.000000
# 2 -0.008797 0.016939 -0.001679 0.000000 0.000000 0.000000
# 3 -0.001679 -0.001679 0.015507 0.000000 0.000000 0.000000
# 4 0.000000 0.000000 0.000000 0.092635 0.000000 0.000000
# 5 0.000000 0.000000 0.000000 0.000000 0.092635 0.000000
# 6 0.000000 0.000000 0.000000 0.000000 0.000000 0.051472
#
#
# Mechanical properties :
#
#
# Convention : Reuss Voigt Hill
#
# Bulk Modulus (GPa) = 39.88046 42.25513 41.06779
# Shear Modulus (GPa) = 15.68401 19.01817 17.35109
#
# Velocity S-wave (km/s) = 2.94544 3.24344 3.09803
# Velocity P-wave (km/s) = 5.79891 6.11555 5.95934
#
# Compressibility (1/GPa) = 0.02507494
#
# Stress axis : x y z
#
# Youngs Moduli (GPa) = 59.03448 59.03448 64.48527
#
# Poissons Ratio (x) = 0.51930 0.10830
# Poissons Ratio (y) = 0.51930 0.10830
# Poissons Ratio (z) = 0.09914 0.09914
#
# Static dielectric constant tensor:
#      x y z
#    x 3.287050 0.000000 0.000000 
#    y 0.000000 3.287050 0.000000 
#    z 0.000000 0.000000 3.380430 
# 
# 
# High freq. dielectric constant tensor:
#      x y z
#    x 1.677510 0.000000 0.000000 
#    y 0.000000 1.677510 0.000000 
#    z 0.000000 0.000000 1.692970 
# 
# From -- ./inp_files/2045.got.cif
#   From: 2010.03.12/outbox.cif.g09.slc.cpg/sg186_2_cif.got.tgz:2045.got - 2010.04.01 11:56:34.
