data_PCOD8326470
_publ_section_title
;
Structure prediction by ZEFSAII (Michael W. Deem and Ramdas Pophale) SiO2 
 PCOD8326470
Probable space group: P 63 2 2
;
_chemical_formula_sum "Si O2"
_cell_formula_units_Z 42
_cell_length_a 8.637536
_cell_length_b 8.637536
_cell_length_c 30.860181
_cell_angle_alpha 90.000000
_cell_angle_beta 90.000000
_cell_angle_gamma 120.000000
_cell_volume 1993.925105
_symmetry_space_group_name_H-M "P 63 2 2"
_symmetry_group_IT_number 182
_symmetry_cell_setting 'hexagonal'
loop_
_space_group_symop_operation_xyz
x,y,z
x-y,x,1/2+z
-y,x-y,z
-x,-y,1/2+z
-x+y,-x,z
y,-x+y,1/2+z
x-y,-y,-z
-x,-x+y,-z
y,x,-z
-y,-x,1/2-z
-x+y,y,1/2-z
x,x-y,1/2-z
loop_
_atom_site_type_symbol
_atom_site_label
_atom_site_fract_x
_atom_site_fract_y
_atom_site_fract_z
Si Si1 0.218674 0.437348 0.750000
Si Si2 0.013703 0.664556 0.132651
Si Si3 0.331623 0.303545 0.336134
Si Si4 0.134541 0.660155 0.036210
O O1 0.435025 0.564976 0.750000
O O2 0.122530 0.314769 0.791857
O O3 0.066725 0.653779 0.084167
O O4 0.839271 0.685772 0.127716
O O5 0.964181 0.484845 0.159151
O O6 0.172879 0.826344 0.159113
O O7 0.160298 0.486913 0.030374
O O8 0.000000 0.657606 0.000000
#
# Coordination Sequence:
#
# PCOD8326470 Si02
#       4
#     6  12  12  12
#     4  10  20  44  66 104 132 176 240 280 358 432
#     4  12  24  45  69 104 143 191 239 298 360 438
#     4  12  24  44  73 101 146 189 239 300 360 437
#     4  10  23  41  65 104 139 184 240 286 357 427
#
# _framework density 21.063980000000001
#
# number of rings (size 3 to 8) (size 9 to 14) (size 15 to 20)
#    0.857    0.000    5.714    1.714    4.000    1.143 
#    0.000    0.000    0.000    0.571    0.000    0.000 
#    0.000    0.000    0.000    0.000    0.000    0.000 
#
# Total GULP energy -520429.270528 kJ/mol
# GULP energy per Si atom -12391.173108 kJ/mol
# Density = 2.101604 g / cm^3
# Si number density = 21.063980 Si / 1000 Ang^3
#
#
#
# Elastic Constant Matrix: (Units=GPa)
#
#
# Indices 1 2 3 4 5 6 
#
# 1 105.5927 29.9777 39.4123 0.0000 0.0000 0.0000
# 2 29.9777 105.5927 39.4123 0.0000 0.0000 0.0000
# 3 39.4123 39.4123 136.3214 0.0000 0.0000 0.0000
# 4 0.0000 0.0000 0.0000 34.9514 0.0000 0.0000
# 5 0.0000 0.0000 0.0000 0.0000 34.9514 0.0000
# 6 0.0000 0.0000 0.0000 0.0000 0.0000 37.8075
#
#
#
# Elastic Compliance Matrix: (Units=1/GPa)
#
#
# Indices 1 2 3 4 5 6 
#
# 1 0.011046 -0.002179 -0.002563 0.000000 0.000000 0.000000
# 2 -0.002179 0.011046 -0.002563 0.000000 0.000000 0.000000
# 3 -0.002563 -0.002563 0.008818 0.000000 0.000000 0.000000
# 4 0.000000 0.000000 0.000000 0.028611 0.000000 0.000000
# 5 0.000000 0.000000 0.000000 0.000000 0.028611 0.000000
# 6 0.000000 0.000000 0.000000 0.000000 0.000000 0.026450
#
#
# Mechanical properties :
#
#
# Convention : Reuss Voigt Hill
#
# Bulk Modulus (GPa) = 61.35952 62.79014 62.07483
# Shear Modulus (GPa) = 37.13989 37.45571 37.29780
#
# Velocity S-wave (km/s) = 4.20360 4.22143 4.21252
# Velocity P-wave (km/s) = 7.26317 7.32356 7.29343
#
# Compressibility (1/GPa) = 0.01629739
#
# Stress axis : x y z
#
# Youngs Moduli (GPa) = 90.53213 90.53213 113.40600
#
# Poissons Ratio (x) = 0.19728 0.29071
# Poissons Ratio (y) = 0.19728 0.29071
# Poissons Ratio (z) = 0.23208 0.23208
#
# Static dielectric constant tensor:
#      x y z
#    x 3.875000 0.000000 0.000000 
#    y 0.000000 3.875000 0.000000 
#    z 0.000000 0.000000 3.673490 
# 
# 
# High freq. dielectric constant tensor:
#      x y z
#    x 1.820030 0.000000 0.000000 
#    y 0.000000 1.820030 0.000000 
#    z 0.000000 0.000000 1.826280 
# 
# From -- ./inp_files/5669.got.cif
#   From: 2010.03.12/outbox.cif.g09.slc.cpg/sg182_3_cif.got.tgz:5669.got - 2010.04.01 11:49:36.
