data_PCOD8326036
_publ_section_title
;
Structure prediction by ZEFSAII (Michael W. Deem and Ramdas Pophale) SiO2 
 PCOD8326036
Probable space group: P 65 2 2
;
_chemical_formula_sum "Si O2"
_cell_formula_units_Z 66
_cell_length_a 19.862179
_cell_length_b 19.862179
_cell_length_c 10.303072
_cell_angle_alpha 90.000000
_cell_angle_beta 90.000000
_cell_angle_gamma 120.000000
_cell_volume 3520.068780
_symmetry_space_group_name_H-M "P 65 2 2"
_symmetry_group_IT_number 179
_symmetry_cell_setting 'hexagonal'
loop_
_space_group_symop_operation_xyz
x,y,z
x-y,x,5/6+z
-y,x-y,2/3+z
-x,-y,1/2+z
-x+y,-x,1/3+z
y,-x+y,1/6+z
x-y,-y,-z
-x,-x+y,1/3-z
y,x,2/3-z
-y,-x,1/6-z
-x+y,y,1/2-z
x,x-y,5/6-z
loop_
_atom_site_type_symbol
_atom_site_label
_atom_site_fract_x
_atom_site_fract_y
_atom_site_fract_z
Si Si1 0.980052 0.250655 0.815834
Si Si2 0.716675 0.439325 0.599867
Si Si3 0.831758 0.415879 0.416667
Si Si4 0.314052 0.419511 0.682449
Si Si5 0.113326 0.138729 0.130247
Si Si6 0.415594 0.167677 0.109049
O O1 0.000087 0.199239 0.911354
O O2 0.889286 0.221716 0.841117
O O3 0.000000 0.240551 0.666667
O O4 0.027011 0.341526 0.857130
O O5 0.632565 0.367436 0.583334
O O6 0.729649 0.459298 0.750000
O O7 0.777914 0.418409 0.532772
O O8 0.716292 0.513427 0.540867
O O9 0.890771 0.388125 0.464532
O O10 0.313724 0.428541 0.837539
O O11 0.236228 0.410749 0.625302
O O12 0.114543 0.062321 0.179227
O O13 0.087016 0.174031 0.250000
#
# Coordination Sequence:
#
# PCOD8326036 Si02
#       6
#    12  12   6  12  12  12
#     4  10  20  38  60  86 112 156 199 238 283 353
#     4  11  20  32  54  83 110 146 188 237 302 347
#     4  10  20  34  56  80 112 148 186 246 286 344
#     4   9  18  34  57  80 110 147 193 234 289 334
#     4  10  22  41  59  87 118 152 185 242 299 348
#     4   9  19  33  53  80 111 143 188 240 276 346
#
# _framework density 18.749632999999999
#
# number of rings (size 3 to 8) (size 9 to 14) (size 15 to 20)
#    0.000    2.182    0.909    2.182    2.545    2.909 
#   11.455    1.818    0.000    0.000    0.000    0.000 
#    0.000    0.000    0.000    0.000    0.000    0.000 
#
# Total GULP energy -818104.247583 kJ/mol
# GULP energy per Si atom -12395.518903 kJ/mol
# Density = 1.870696 g / cm^3
# Si number density = 18.749633 Si / 1000 Ang^3
#
#
#
# Elastic Constant Matrix: (Units=GPa)
#
#
# Indices 1 2 3 4 5 6 
#
# 1 95.1454 55.2971 47.4010 0.0000 0.0000 0.0000
# 2 55.2971 95.1454 47.4010 0.0000 0.0000 0.0000
# 3 47.4010 47.4010 89.3272 0.0000 0.0000 0.0000
# 4 0.0000 0.0000 0.0000 31.2910 0.0000 0.0000
# 5 0.0000 0.0000 0.0000 0.0000 31.2910 0.0000
# 6 0.0000 0.0000 0.0000 0.0000 0.0000 19.9241
#
#
#
# Elastic Compliance Matrix: (Units=1/GPa)
#
#
# Indices 1 2 3 4 5 6 
#
# 1 0.017541 -0.007554 -0.005299 0.000000 0.000000 0.000000
# 2 -0.007554 0.017541 -0.005299 0.000000 0.000000 0.000000
# 3 -0.005299 -0.005299 0.016819 0.000000 0.000000 0.000000
# 4 0.000000 0.000000 0.000000 0.031958 0.000000 0.000000
# 5 0.000000 0.000000 0.000000 0.000000 0.031958 0.000000
# 6 0.000000 0.000000 0.000000 0.000000 0.000000 0.050190
#
#
# Mechanical properties :
#
#
# Convention : Reuss Voigt Hill
#
# Bulk Modulus (GPa) = 64.12441 64.42403 64.27422
# Shear Modulus (GPa) = 24.09511 25.13581 24.61546
#
# Velocity S-wave (km/s) = 3.58872 3.66540 3.62726
# Velocity P-wave (km/s) = 7.17262 7.23521 7.20398
#
# Compressibility (1/GPa) = 0.01559469
#
# Stress axis : x y z
#
# Youngs Moduli (GPa) = 57.00991 57.00991 59.45716
#
# Poissons Ratio (x) = 0.43068 0.31508
# Poissons Ratio (y) = 0.43068 0.31508
# Poissons Ratio (z) = 0.30211 0.30211
#
# Static dielectric constant tensor:
#      x y z
#    x 3.469300 0.000000 0.000000 
#    y 0.000000 3.469300 0.000000 
#    z 0.000000 0.000000 3.266580 
# 
# 
# High freq. dielectric constant tensor:
#      x y z
#    x 1.726250 0.000000 0.000000 
#    y 0.000000 1.726250 0.000000 
#    z 0.000000 0.000000 1.721630 
# 
# From -- ./inp_files/3352.got.cif
#   From: 2010.03.12/outbox.cif.g09.slc.cpg/sg179_2_cif.got.tgz:3352.got - 2010.04.02 07:08:42.
