data_PCOD8326879
_publ_section_title
;
Structure prediction by ZEFSAII (Michael W. Deem and Ramdas Pophale) SiO2 
 PCOD8326879
Probable space group: P -6 M 2
;
_chemical_formula_sum "Si O2"
_cell_formula_units_Z 96
_cell_length_a 18.381190
_cell_length_b 18.381190
_cell_length_c 19.494820
_cell_angle_alpha 90.000000
_cell_angle_beta 90.000000
_cell_angle_gamma 120.000000
_cell_volume 5704.231069
_symmetry_space_group_name_H-M "P -6 M 2"
_symmetry_group_IT_number 187
_symmetry_cell_setting 'hexagonal'
loop_
_space_group_symop_operation_xyz
x,y,z
-x+y,-x,-z
-y,x-y,z
x,y,-z
-x+y,-x,z
-y,x-y,-z
-y,-x,-z
-x+y,y,-z
x,x-y,-z
-x+y,y,z
x,x-y,z
-y,-x,z
loop_
_atom_site_type_symbol
_atom_site_label
_atom_site_fract_x
_atom_site_fract_y
_atom_site_fract_z
Si Si1 0.665002 0.500862 0.336541
Si Si2 0.916406 0.256088 0.422428
Si Si3 0.829107 0.831962 0.646753
Si Si4 0.592428 0.013276 0.923953
Si Si5 0.797754 0.763389 0.211395
Si Si6 0.424427 0.294837 0.194405
Si Si7 0.832011 0.997622 0.926162
Si Si8 0.495942 0.666974 0.081585
O O1 0.743930 0.487860 0.351044
O O2 0.580867 0.419134 0.362679
O O3 0.675482 0.582313 0.377238
O O4 0.655154 0.510300 0.254996
O O5 0.937669 0.289824 0.500000
O O6 0.830293 0.169708 0.417358
O O7 0.989489 0.238657 0.395792
O O8 0.921929 0.843858 0.640646
O O9 0.795957 0.818203 0.725333
O O10 0.831241 0.915621 0.618506
O O11 0.504227 0.008454 0.929973
O O12 0.649777 0.086526 0.871890
O O13 0.572670 0.921230 0.897118
O O14 0.634763 0.033439 0.000000
O O15 0.893230 0.786460 0.203292
O O16 0.738023 0.666193 0.228859
O O17 0.770581 0.784325 0.137710
O O18 0.434443 0.217222 0.168460
O O19 0.909965 0.090036 0.927561
O O20 0.865363 0.932682 0.916330
O O21 0.783866 0.981163 0.000000
O O22 0.513056 0.756528 0.111243
O O23 0.407025 0.592976 0.111046
O O24 0.490560 0.666167 0.000000
#
# Coordination Sequence:
#
# PCOD8326879 Si02
#       8
#    12  12  12  12  12  12  12  12
#     4  10  19  33  54  78  99 122 154 193 237 291
#     4   9  18  33  51  72 102 134 157 185 233 284
#     4  10  18  30  48  71  99 134 176 214 240 267
#     4   9  18  31  46  66  92 121 155 197 245 293
#     4   9  17  29  43  60  85 117 158 204 245 287
#     4  10  19  32  49  66  86 119 160 197 240 291
#     4   9  16  25  37  54  78 110 151 201 251 288
#     4   8  13  23  41  64  88 114 145 183 230 286
#
# _framework density 16.829612000000001
#
# number of rings (size 3 to 8) (size 9 to 14) (size 15 to 20)
#    0.000    2.750    1.250    2.000    0.000    2.250 
#    0.000    3.750    0.000    3.250    0.000    0.000 
#    0.000    0.000    0.000    0.750    0.000    6.500 
#
# Total GULP energy -1189518.428411 kJ/mol
# GULP energy per Si atom -12390.816963 kJ/mol
# Density = 1.679131 g / cm^3
# Si number density = 16.829612 Si / 1000 Ang^3
#
#
#
# Elastic Constant Matrix: (Units=GPa)
#
#
# Indices 1 2 3 4 5 6 
#
# 1 74.7485 31.2547 35.9395 0.0000 0.0001 0.0000
# 2 31.2547 74.7485 35.9395 0.0000 -0.0001 0.0000
# 3 35.9395 35.9395 86.7430 0.0000 0.0000 0.0000
# 4 0.0000 0.0000 0.0000 14.6424 0.0000 -0.0001
# 5 0.0001 -0.0001 0.0000 0.0000 14.6424 0.0000
# 6 0.0000 0.0000 0.0000 -0.0001 0.0000 21.7469
#
#
#
# Elastic Compliance Matrix: (Units=1/GPa)
#
#
# Indices 1 2 3 4 5 6 
#
# 1 0.018056 -0.004936 -0.005436 0.000000 0.000000 0.000000
# 2 -0.004936 0.018056 -0.005436 0.000000 0.000000 0.000000
# 3 -0.005436 -0.005436 0.016033 0.000000 0.000000 0.000000
# 4 0.000000 0.000000 0.000000 0.068295 0.000000 0.000000
# 5 0.000000 0.000000 0.000000 0.000000 0.068295 0.000000
# 6 0.000000 0.000000 0.000000 0.000000 0.000000 0.045984
#
#
# Mechanical properties :
#
#
# Convention : Reuss Voigt Hill
#
# Bulk Modulus (GPa) = 48.71200 49.16748 48.93974
# Shear Modulus (GPa) = 18.30330 19.08011 18.69170
#
# Velocity S-wave (km/s) = 3.30140 3.37073 3.33625
# Velocity P-wave (km/s) = 6.59844 6.66539 6.63200
#
# Compressibility (1/GPa) = 0.02052882
#
# Stress axis : x y z
#
# Youngs Moduli (GPa) = 55.38427 55.38427 62.37310
#
# Poissons Ratio (x) = 0.27338 0.33904
# Poissons Ratio (y) = 0.27338 0.33904
# Poissons Ratio (z) = 0.30105 0.30105
#
# Static dielectric constant tensor:
#      x y z
#    x 3.055460 0.000000 0.000000 
#    y 0.000000 3.055460 0.000000 
#    z 0.000000 0.000000 3.303460 
# 
# 
# High freq. dielectric constant tensor:
#      x y z
#    x 1.628980 0.000000 0.000000 
#    y 0.000000 1.628980 0.000000 
#    z 0.000000 0.000000 1.635460 
# 
# From -- ./inp_files/3801.got.cif
#   From: 2010.03.12/outbox.cif.g09.slc.cpg/sg187_2_cif.got.tgz:3801.got - 2010.04.01 11:58:23.
