data_PCOD8326654
_publ_section_title
;
Structure prediction by ZEFSAII (Michael W. Deem and Ramdas Pophale) SiO2 
 PCOD8326654
Probable space group: P 63 C M
;
_chemical_formula_sum "Si O2"
_cell_formula_units_Z 60
_cell_length_a 14.370318
_cell_length_b 14.370318
_cell_length_c 18.278171
_cell_angle_alpha 90.000000
_cell_angle_beta 90.000000
_cell_angle_gamma 120.000000
_cell_volume 3268.858527
_symmetry_space_group_name_H-M "P 63 C M"
_symmetry_group_IT_number 185
_symmetry_cell_setting 'hexagonal'
loop_
_space_group_symop_operation_xyz
x,y,z
x-y,x,1/2+z
-y,x-y,z
-x,-y,1/2+z
-x+y,-x,z
y,-x+y,1/2+z
-x+y,y,1/2+z
x,x-y,1/2+z
-y,-x,1/2+z
y,x,z
x-y,-y,z
-x,-x+y,z
loop_
_atom_site_type_symbol
_atom_site_label
_atom_site_fract_x
_atom_site_fract_y
_atom_site_fract_z
Si Si1 0.580243 0.877210 0.585410
Si Si2 0.467557 0.706039 0.942266
Si Si3 0.874665 0.125094 0.691640
Si Si4 0.588432 0.467370 0.222323
Si Si5 0.441712 0.192362 0.789512
O O1 0.537032 0.802261 0.515304
O O2 0.667085 0.855639 0.626173
O O3 0.479420 0.847375 0.639339
O O4 0.634623 0.000000 0.559554
O O5 0.417404 0.785672 0.939983
O O6 0.547868 0.722411 0.875230
O O7 0.852530 0.170676 0.767009
O O8 0.000000 0.185596 0.672139
O O9 0.833563 0.000000 0.703528
O O10 0.562470 0.562470 0.236037
O O11 0.484359 0.352819 0.236685
O O12 0.680337 0.483176 0.278504
#
# Coordination Sequence:
#
# PCOD8326654 Si02
#       5
#    12  12  12  12  12
#     4   9  21  37  55  83 118 150 194 242 286 348
#     4  10  21  36  53  84 121 166 189 224 283 350
#     4  10  22  41  64  86 110 147 201 260 306 347
#     4  10  20  34  54  80 109 149 192 231 280 334
#     4  11  19  36  56  83 117 154 190 231 285 347
#
# _framework density 18.355029999999999
#
# number of rings (size 3 to 8) (size 9 to 14) (size 15 to 20)
#    0.400    1.600    2.000    3.000    5.600    1.600 
#    0.000    2.000    0.000    0.000    0.000    2.800 
#    0.000    0.000    0.000    0.000    0.000    0.000 
#
# Total GULP energy -743885.751003 kJ/mol
# GULP energy per Si atom -12398.095850 kJ/mol
# Density = 1.831325 g / cm^3
# Si number density = 18.355030 Si / 1000 Ang^3
#
#
#
# Elastic Constant Matrix: (Units=GPa)
#
#
# Indices 1 2 3 4 5 6 
#
# 1 85.8650 29.5701 54.6891 0.0000 0.0000 0.0000
# 2 29.5701 85.8650 54.6891 0.0000 0.0000 0.0000
# 3 54.6891 54.6891 140.6761 0.0000 0.0000 0.0000
# 4 0.0000 0.0000 0.0000 17.3133 0.0000 0.0000
# 5 0.0000 0.0000 0.0000 0.0000 17.3133 0.0000
# 6 0.0000 0.0000 0.0000 0.0000 0.0000 28.1475
#
#
#
# Elastic Compliance Matrix: (Units=1/GPa)
#
#
# Indices 1 2 3 4 5 6 
#
# 1 0.015739 -0.002024 -0.005332 0.000000 0.000000 0.000000
# 2 -0.002024 0.015739 -0.005332 0.000000 0.000000 0.000000
# 3 -0.005332 -0.005332 0.011254 0.000000 0.000000 0.000000
# 4 0.000000 0.000000 0.000000 0.057759 0.000000 0.000000
# 5 0.000000 0.000000 0.000000 0.000000 0.057759 0.000000
# 6 0.000000 0.000000 0.000000 0.000000 0.000000 0.035527
#
#
# Mechanical properties :
#
#
# Convention : Reuss Voigt Hill
#
# Bulk Modulus (GPa) = 57.61453 65.58919 61.60186
# Shear Modulus (GPa) = 22.22819 24.11866 23.17343
#
# Velocity S-wave (km/s) = 3.48374 3.62886 3.55704
# Velocity P-wave (km/s) = 6.90210 7.30543 7.10663
#
# Compressibility (1/GPa) = 0.01735673
#
# Stress axis : x y z
#
# Youngs Moduli (GPa) = 63.53544 63.53544 88.85659
#
# Poissons Ratio (x) = 0.12862 0.47376
# Poissons Ratio (y) = 0.12862 0.47376
# Poissons Ratio (z) = 0.33876 0.33876
#
# Static dielectric constant tensor:
#      x y z
#    x 3.307610 0.000000 0.000000 
#    y 0.000000 3.307610 0.000000 
#    z 0.000000 0.000000 3.162960 
# 
# 
# High freq. dielectric constant tensor:
#      x y z
#    x 1.705770 0.000000 0.000000 
#    y 0.000000 1.705770 0.000000 
#    z 0.000000 0.000000 1.700200 
# 
# From -- ./inp_files/1351.got.cif
#   From: 2010.03.12/outbox.cif.g09.slc.cpg/sg185_cif.got.tgz:1351.got - 2010.04.01 11:55:19.
