data_PCOD8326793
_publ_section_title
;
Structure prediction by ZEFSAII (Michael W. Deem and Ramdas Pophale) SiO2 
 PCOD8326793
Probable space group: P 63 M C
;
_chemical_formula_sum "Si O2"
_cell_formula_units_Z 84
_cell_length_a 18.252647
_cell_length_b 18.252647
_cell_length_c 15.284730
_cell_angle_alpha 90.000000
_cell_angle_beta 90.000000
_cell_angle_gamma 120.000000
_cell_volume 4410.015467
_symmetry_space_group_name_H-M "P 63 M C"
_symmetry_group_IT_number 186
_symmetry_cell_setting 'hexagonal'
loop_
_space_group_symop_operation_xyz
x,y,z
x-y,x,1/2+z
-y,x-y,z
-x,-y,1/2+z
-x+y,-x,z
y,-x+y,1/2+z
-x+y,y,z
x,x-y,z
-y,-x,z
y,x,1/2+z
x-y,-y,1/2+z
-x,-x+y,1/2+z
loop_
_atom_site_type_symbol
_atom_site_label
_atom_site_fract_x
_atom_site_fract_y
_atom_site_fract_z
Si Si1 0.408279 0.982004 0.610830
Si Si2 0.764018 0.068971 0.388883
Si Si3 0.505201 0.172521 0.619141
Si Si4 0.505554 0.173008 0.825399
Si Si5 0.173567 0.173546 0.539171
Si Si6 0.008530 0.586738 0.418742
Si Si7 0.763347 0.694269 0.189443
O O1 0.488045 0.976090 0.651724
O O2 0.326917 0.936185 0.672868
O O3 0.432160 0.079130 0.595029
O O4 0.387951 0.944501 0.513072
O O5 0.834192 0.165809 0.404980
O O6 0.780149 0.007979 0.452626
O O7 0.675220 0.064995 0.409593
O O8 0.766925 0.041308 0.288791
O O9 0.594574 0.189147 0.580285
O O10 0.483824 0.241912 0.579600
O O11 0.512142 0.181425 0.722487
O O12 0.594045 0.188089 0.865086
O O13 0.485637 0.242819 0.865716
O O14 0.432153 0.079262 0.849206
O O15 0.163916 0.081958 0.552760
O O16 0.221451 0.230230 0.623995
O O17 0.081123 0.162245 0.527614
O O18 0.973130 0.486565 0.400503
O O19 0.833842 0.667683 0.173240
#
# Coordination Sequence:
#
# PCOD8326793 Si02
#       7
#    12  12  12  12  12  12  12
#     4  10  20  34  53  78 107 142 182 223 270 324
#     4  10  21  37  57  81 110 147 188 229 277 331
#     4   9  17  29  47  73 104 135 166 204 255 313
#     4   9  17  29  47  73 104 135 166 204 255 313
#     4  10  21  38  59  84 114 148 186 232 283 338
#     4  10  20  34  53  78 107 142 182 223 270 324
#     4  10  21  37  57  81 110 147 188 229 277 331
#
# _framework density 19.047552
#
# number of rings (size 3 to 8) (size 9 to 14) (size 15 to 20)
#    0.000    2.286    1.429    1.286    0.000    5.714 
#    0.000    0.000    0.000    2.286    0.000    0.000 
#    0.000    0.000    0.000    0.000    0.000    0.000 
#
# Total GULP energy -1041221.564488 kJ/mol
# GULP energy per Si atom -12395.494815 kJ/mol
# Density = 1.900420 g / cm^3
# Si number density = 19.047552 Si / 1000 Ang^3
#
#
#
# Elastic Constant Matrix: (Units=GPa)
#
#
# Indices 1 2 3 4 5 6 
#
# 1 99.8788 62.6420 34.2087 0.0000 0.0000 0.0000
# 2 62.6420 99.8788 34.2087 0.0000 0.0000 0.0000
# 3 34.2087 34.2087 80.7069 0.0000 0.0000 0.0000
# 4 0.0000 0.0000 0.0000 -33.8567 0.0000 0.0000
# 5 0.0000 0.0000 0.0000 0.0000 -33.8567 0.0000
# 6 0.0000 0.0000 0.0000 0.0000 0.0000 18.6184
#
#
#
# Elastic Compliance Matrix: (Units=1/GPa)
#
#
# Indices 1 2 3 4 5 6 
#
# 1 0.017172 -0.009683 -0.003175 0.000000 0.000000 0.000000
# 2 -0.009683 0.017172 -0.003175 0.000000 0.000000 0.000000
# 3 -0.003175 -0.003175 0.015082 0.000000 0.000000 0.000000
# 4 0.000000 0.000000 0.000000 -0.029536 0.000000 0.000000
# 5 0.000000 0.000000 0.000000 0.000000 -0.029536 0.000000
# 6 0.000000 0.000000 0.000000 0.000000 0.000000 0.053710
#
#
# Mechanical properties :
#
#
# Convention : Reuss Voigt Hill
#
# Bulk Modulus (GPa) = 57.59537 60.28704 58.94121
# Shear Modulus (GPa) = 61.03857 0.14134 30.58995
#
# Velocity S-wave (km/s) = 5.66700 0.27270 4.01181
# Velocity P-wave (km/s) = 8.55121 5.64080 7.24368
#
# Compressibility (1/GPa) = 0.01736251
#
# Stress axis : x y z
#
# Youngs Moduli (GPa) = 58.23321 58.23321 66.30588
#
# Poissons Ratio (x) = 0.56387 0.21049
# Poissons Ratio (y) = 0.56387 0.21049
# Poissons Ratio (z) = 0.18486 0.18486
#
# Static dielectric constant tensor:
#      x y z
#    x 5.446220 0.000000 0.000000 
#    y 0.000000 5.446220 0.000000 
#    z 0.000000 0.000000 3.533470 
# 
# 
# High freq. dielectric constant tensor:
#      x y z
#    x 1.734340 0.000000 0.000000 
#    y 0.000000 1.734340 0.000000 
#    z 0.000000 0.000000 1.735790 
# 
# From -- ./inp_files/2553.got.cif
#   From: 2010.03.12/outbox.cif.g09.slc.cpg/sg186_2_cif.got.tgz:2553.got - 2010.04.01 11:56:34.
