data_PCOD8326676
_publ_section_title
;
Structure prediction by ZEFSAII (Michael W. Deem and Ramdas Pophale) SiO2 
 PCOD8326676
Probable space group: P 63 C M
;
_chemical_formula_sum "Si O2"
_cell_formula_units_Z 84
_cell_length_a 17.342166
_cell_length_b 17.342166
_cell_length_c 15.303613
_cell_angle_alpha 90.000000
_cell_angle_beta 90.000000
_cell_angle_gamma 120.000000
_cell_volume 3985.944840
_symmetry_space_group_name_H-M "P 63 C M"
_symmetry_group_IT_number 185
_symmetry_cell_setting 'hexagonal'
loop_
_space_group_symop_operation_xyz
x,y,z
x-y,x,1/2+z
-y,x-y,z
-x,-y,1/2+z
-x+y,-x,z
y,-x+y,1/2+z
-x+y,y,1/2+z
x,x-y,1/2+z
-y,-x,1/2+z
y,x,z
x-y,-y,z
-x,-x+y,z
loop_
_atom_site_type_symbol
_atom_site_label
_atom_site_fract_x
_atom_site_fract_y
_atom_site_fract_z
Si Si1 0.901421 0.802064 0.389580
Si Si2 0.263598 0.894501 0.203625
Si Si3 0.100110 0.199526 0.181783
Si Si4 0.105847 0.571577 0.654042
Si Si5 0.515298 0.617190 0.481667
Si Si6 0.189867 0.793114 0.888518
Si Si7 0.608502 0.101518 0.331550
O O1 0.839712 0.839712 0.426851
O O2 0.904861 0.807664 0.285641
O O3 0.864386 0.701515 0.422032
O O4 0.000000 0.861108 0.429000
O O5 0.166036 0.861043 0.159247
O O6 0.321978 0.859337 0.152865
O O7 0.257136 0.865660 0.303443
O O8 0.312101 0.000000 0.205005
O O9 0.165223 0.165223 0.143663
O O10 0.000000 0.137376 0.144413
O O11 0.140237 0.547359 0.566888
O O12 0.140462 0.541859 0.738652
O O13 0.000000 0.521679 0.657511
O O14 0.592619 0.592619 0.497259
O O15 0.557081 0.721852 0.465819
O O16 0.457666 0.565604 0.398558
O O17 0.293284 0.840507 0.867815
O O18 0.586610 0.000000 0.321093
#
# Coordination Sequence:
#
# PCOD8326676 Si02
#       7
#    12  12  12  12  12  12  12
#     4   9  16  26  45  78 119 159 197 238 288 351
#     4   9  16  30  53  79 108 150 198 238 287 353
#     4   8  13  20  36  68 111 154 191 231 279 341
#     4   9  18  36  61  84 110 154 203 249 302 361
#     4  10  20  38  62  84 111 154 201 248 305 365
#     4  11  19  32  54  86 115 154 198 247 298 362
#     4  10  21  38  58  85 120 155 195 247 306 365
#
# _framework density 21.07405
#
# number of rings (size 3 to 8) (size 9 to 14) (size 15 to 20)
#    0.000    2.571    1.429    2.857    0.000    1.714 
#    3.429    0.000    0.000    0.000    0.000    0.000 
#    0.000    0.000    0.000    6.286    1.143    1.714 
#
# Total GULP energy -1041252.370846 kJ/mol
# GULP energy per Si atom -12395.861558 kJ/mol
# Density = 2.102608 g / cm^3
# Si number density = 21.074050 Si / 1000 Ang^3
#
#
#
# Elastic Constant Matrix: (Units=GPa)
#
#
# Indices 1 2 3 4 5 6 
#
# 1 108.2029 74.7272 18.4565 0.0000 0.0000 0.0000
# 2 74.7272 108.2029 18.4565 0.0000 0.0000 0.0000
# 3 18.4565 18.4565 59.6459 0.0000 0.0000 0.0000
# 4 0.0000 0.0000 0.0000 5.9607 0.0000 0.0000
# 5 0.0000 0.0000 0.0000 0.0000 5.9607 0.0000
# 6 0.0000 0.0000 0.0000 0.0000 0.0000 16.7379
#
#
#
# Elastic Compliance Matrix: (Units=1/GPa)
#
#
# Indices 1 2 3 4 5 6 
#
# 1 0.017852 -0.012021 -0.001804 0.000000 0.000000 0.000000
# 2 -0.012021 0.017852 -0.001804 0.000000 0.000000 0.000000
# 3 -0.001804 -0.001804 0.017882 0.000000 0.000000 0.000000
# 4 0.000000 0.000000 0.000000 0.167764 0.000000 0.000000
# 5 0.000000 0.000000 0.000000 0.000000 0.167764 0.000000
# 6 0.000000 0.000000 0.000000 0.000000 0.000000 0.059745
#
#
# Mechanical properties :
#
#
# Convention : Reuss Voigt Hill
#
# Bulk Modulus (GPa) = 44.78952 55.48135 50.13544
# Shear Modulus (GPa) = 10.25516 16.69264 13.47390
#
# Velocity S-wave (km/s) = 2.20835 2.81747 2.53130
# Velocity P-wave (km/s) = 5.27276 6.08015 5.69079
#
# Compressibility (1/GPa) = 0.02232665
#
# Stress axis : x y z
#
# Youngs Moduli (GPa) = 56.01764 56.01764 55.92158
#
# Poissons Ratio (x) = 0.67338 0.10089
# Poissons Ratio (y) = 0.67338 0.10089
# Poissons Ratio (z) = 0.10107 0.10107
#
# Static dielectric constant tensor:
#      x y z
#    x 4.104860 0.000000 0.000000 
#    y 0.000000 4.104860 0.000000 
#    z 0.000000 0.000000 3.577510 
# 
# 
# High freq. dielectric constant tensor:
#      x y z
#    x 1.818900 0.000000 0.000000 
#    y 0.000000 1.818900 0.000000 
#    z 0.000000 0.000000 1.798570 
# 
# From -- ./inp_files/1490.got.cif
#   From: 2010.03.12/outbox.cif.g09.slc.cpg/sg185_cif.got.tgz:1490.got - 2010.04.01 11:55:19.
