data_PCOD8326464
_publ_section_title
;
Structure prediction by ZEFSAII (Michael W. Deem and Ramdas Pophale) SiO2 
 PCOD8326464
Probable space group: P 63 2 2
;
_chemical_formula_sum "Si O2"
_cell_formula_units_Z 66
_cell_length_a 11.760896
_cell_length_b 11.760896
_cell_length_c 27.353463
_cell_angle_alpha 90.000000
_cell_angle_beta 90.000000
_cell_angle_gamma 120.000000
_cell_volume 3276.602570
_symmetry_space_group_name_H-M "P 63 2 2"
_symmetry_group_IT_number 182
_symmetry_cell_setting 'hexagonal'
loop_
_space_group_symop_operation_xyz
x,y,z
x-y,x,1/2+z
-y,x-y,z
-x,-y,1/2+z
-x+y,-x,z
y,-x+y,1/2+z
x-y,-y,-z
-x,-x+y,-z
y,x,-z
-y,-x,1/2-z
-x+y,y,1/2-z
x,x-y,1/2-z
loop_
_atom_site_type_symbol
_atom_site_label
_atom_site_fract_x
_atom_site_fract_y
_atom_site_fract_z
Si Si1 0.917920 0.337640 0.352615
Si Si2 0.709281 0.093417 0.571091
Si Si3 0.148716 0.000000 0.000000
Si Si4 0.332157 0.405566 0.663724
Si Si5 0.918396 0.334802 0.741133
Si Si6 0.566670 0.625904 0.449337
O O1 0.865309 0.439623 0.346748
O O2 0.813552 0.187960 0.344173
O O3 0.035301 0.379101 0.314318
O O4 0.963917 0.340814 0.407467
O O5 0.772530 0.011833 0.546506
O O6 0.799902 0.248753 0.562655
O O7 0.571435 0.062275 0.547810
O O8 0.683689 0.050786 0.628258
O O9 0.000000 0.871404 0.000000
O O10 0.341128 0.376708 0.720372
O O11 0.814327 0.185674 0.750000
O O12 0.855646 0.427823 0.750000
O O13 0.642424 0.642424 0.500000
#
# Coordination Sequence:
#
# PCOD8326464 Si02
#       6
#    12  12   6  12  12  12
#     4  10  22  37  60  88 117 158 191 248 302 363
#     4  11  23  42  60  94 119 164 210 257 317 358
#     4  10  24  40  62  88 128 174 210 248 300 386
#     4  10  22  38  62  88 122 153 202 249 307 374
#     4  10  20  38  61  89 116 153 197 251 308 363
#     4  11  24  39  64  88 124 159 208 262 305 368
#
# _framework density 20.142816
#
# number of rings (size 3 to 8) (size 9 to 14) (size 15 to 20)
#    0.182    1.455    0.909    3.091    5.091    0.000 
#    0.000    5.455    0.000    5.091    0.000    0.000 
#    0.000    0.000    0.000    0.000    0.000    0.000 
#
# Total GULP energy -818153.904065 kJ/mol
# GULP energy per Si atom -12396.271274 kJ/mol
# Density = 2.009697 g / cm^3
# Si number density = 20.142816 Si / 1000 Ang^3
#
#
#
# Elastic Constant Matrix: (Units=GPa)
#
#
# Indices 1 2 3 4 5 6 
#
# 1 85.1339 32.4567 28.2258 0.0000 0.0000 0.0000
# 2 32.4567 85.1339 28.2258 0.0000 0.0000 0.0000
# 3 28.2258 28.2258 117.5910 0.0000 0.0000 0.0000
# 4 0.0000 0.0000 0.0000 2.7219 0.0000 0.0000
# 5 0.0000 0.0000 0.0000 0.0000 2.7219 0.0000
# 6 0.0000 0.0000 0.0000 0.0000 0.0000 26.3386
#
#
#
# Elastic Compliance Matrix: (Units=1/GPa)
#
#
# Indices 1 2 3 4 5 6 
#
# 1 0.014298 -0.004686 -0.002307 0.000000 0.000000 0.000000
# 2 -0.004686 0.014298 -0.002307 0.000000 0.000000 0.000000
# 3 -0.002307 -0.002307 0.009612 0.000000 0.000000 0.000000
# 4 0.000000 0.000000 0.000000 0.367390 0.000000 0.000000
# 5 0.000000 0.000000 0.000000 0.000000 0.367390 0.000000
# 6 0.000000 0.000000 0.000000 0.000000 0.000000 0.037967
#
#
# Mechanical properties :
#
#
# Convention : Reuss Voigt Hill
#
# Bulk Modulus (GPa) = 51.00361 51.74171 51.37266
# Shear Modulus (GPa) = 5.98021 19.61986 12.80004
#
# Velocity S-wave (km/s) = 1.72492 3.12434 2.52358
# Velocity P-wave (km/s) = 5.41693 6.22564 5.83531
#
# Compressibility (1/GPa) = 0.01960646
#
# Stress axis : x y z
#
# Youngs Moduli (GPa) = 69.94186 69.94186 104.04071
#
# Poissons Ratio (x) = 0.32774 0.24003
# Poissons Ratio (y) = 0.32774 0.24003
# Poissons Ratio (z) = 0.16136 0.16136
#
# Static dielectric constant tensor:
#      x y z
#    x 3.550880 0.000000 0.000000 
#    y 0.000000 3.550880 0.000000 
#    z 0.000000 0.000000 3.829410 
# 
# 
# High freq. dielectric constant tensor:
#      x y z
#    x 1.781810 0.000000 0.000000 
#    y 0.000000 1.781810 0.000000 
#    z 0.000000 0.000000 1.798740 
# 
# From -- ./inp_files/5736.got.cif
#   From: 2010.03.12/outbox.cif.g09.slc.cpg/sg182_3_cif.got.tgz:5736.got - 2010.04.01 11:49:36.
