data_PCOD8326387
_publ_section_title
;
Structure prediction by ZEFSAII (Michael W. Deem and Ramdas Pophale) SiO2 
 PCOD8326387
Probable space group: P 64 2 2
;
_chemical_formula_sum "Si O2"
_cell_formula_units_Z 51
_cell_length_a 13.066448
_cell_length_b 13.066448
_cell_length_c 17.098020
_cell_angle_alpha 90.000000
_cell_angle_beta 90.000000
_cell_angle_gamma 120.000000
_cell_volume 2528.084240
_symmetry_space_group_name_H-M "P 64 2 2"
_symmetry_group_IT_number 181
_symmetry_cell_setting 'hexagonal'
loop_
_space_group_symop_operation_xyz
x,y,z
x-y,x,2/3+z
-y,x-y,1/3+z
-x,-y,z
-x+y,-x,2/3+z
y,-x+y,1/3+z
x-y,-y,-z
-x,-x+y,2/3-z
y,x,1/3-z
-y,-x,1/3-z
-x+y,y,-z
x,x-y,2/3-z
loop_
_atom_site_type_symbol
_atom_site_label
_atom_site_fract_x
_atom_site_fract_y
_atom_site_fract_z
Si Si1 0.650024 0.349977 0.166667
Si Si2 0.141910 0.275296 0.688169
Si Si3 0.874987 0.125014 0.666667
Si Si4 0.275630 0.477888 0.583463
Si Si5 0.000000 0.500000 0.333334
Si Si6 0.244143 0.868931 0.510876
O O1 0.695256 0.311633 0.244757
O O2 0.510795 0.287113 0.166401
O O3 0.235488 0.235488 0.666667
O O4 0.178333 0.402353 0.649016
O O5 0.146164 0.292458 0.781010
O O6 0.014395 0.179136 0.656362
O O7 0.817583 0.153568 0.593909
O O8 0.210215 0.420429 0.500000
O O9 0.392919 0.471560 0.606493
O O10 0.356491 0.000000 0.500000
#
# Coordination Sequence:
#
# PCOD8326387 Si02
#       6
#     6  12   6  12   3  12
#     4  10  23  42  64  98 127 168 216 256 332 400
#     4  11  23  41  65  92 128 165 213 277 335 388
#     4  10  25  41  64  92 123 173 222 260 320 412
#     4  10  25  37  67  96 124 170 216 267 343 395
#     4  12  20  46  64  90 142 172 210 300 334 398
#     4  10  23  43  64  91 130 173 213 266 328 397
#
# _framework density 20.173380000000002
#
# number of rings (size 3 to 8) (size 9 to 14) (size 15 to 20)
#    0.706    0.941    1.176    2.118    3.294    2.824 
#    0.000    5.882    0.000    0.000    0.000    0.000 
#    0.000    0.000    0.000    0.000    0.000    0.000 
#
# Total GULP energy -631927.899464 kJ/mol
# GULP energy per Si atom -12390.743127 kJ/mol
# Density = 2.012746 g / cm^3
# Si number density = 20.173380 Si / 1000 Ang^3
#
#
#
# Elastic Constant Matrix: (Units=GPa)
#
#
# Indices 1 2 3 4 5 6 
#
# 1 126.1175 63.7529 46.8686 0.0000 0.0000 0.0000
# 2 63.7529 126.1175 46.8686 0.0000 0.0000 0.0000
# 3 46.8686 46.8686 114.7191 0.0000 0.0000 0.0000
# 4 0.0000 0.0000 0.0000 28.3997 0.0000 0.0000
# 5 0.0000 0.0000 0.0000 0.0000 28.3997 0.0000
# 6 0.0000 0.0000 0.0000 0.0000 0.0000 31.1823
#
#
#
# Elastic Compliance Matrix: (Units=1/GPa)
#
#
# Indices 1 2 3 4 5 6 
#
# 1 0.011316 -0.004719 -0.002695 0.000000 0.000000 0.000000
# 2 -0.004719 0.011316 -0.002695 0.000000 0.000000 0.000000
# 3 -0.002695 -0.002695 0.010919 0.000000 0.000000 0.000000
# 4 0.000000 0.000000 0.000000 0.035212 0.000000 0.000000
# 5 0.000000 0.000000 0.000000 0.000000 0.035212 0.000000
# 6 0.000000 0.000000 0.000000 0.000000 0.000000 0.032069
#
#
# Mechanical properties :
#
#
# Convention : Reuss Voigt Hill
#
# Bulk Modulus (GPa) = 75.00375 75.77049 75.38712
# Shear Modulus (GPa) = 31.11248 31.56063 31.33656
#
# Velocity S-wave (km/s) = 3.93141 3.95963 3.94555
# Velocity P-wave (km/s) = 7.60712 7.65154 7.62936
#
# Compressibility (1/GPa) = 0.01333267
#
# Stress axis : x y z
#
# Youngs Moduli (GPa) = 88.36983 88.36983 91.58051
#
# Poissons Ratio (x) = 0.41699 0.24685
# Poissons Ratio (y) = 0.41699 0.24685
# Poissons Ratio (z) = 0.23819 0.23819
#
# Static dielectric constant tensor:
#      x y z
#    x 3.689940 0.000000 0.000000 
#    y 0.000000 3.689940 0.000000 
#    z 0.000000 0.000000 3.865430 
# 
# 
# High freq. dielectric constant tensor:
#      x y z
#    x 1.790550 0.000000 0.000000 
#    y 0.000000 1.790550 0.000000 
#    z 0.000000 0.000000 1.789760 
# 
# From -- ./inp_files/6040.got.cif
#   From: 2010.03.12/outbox.cif.g09.slc.cpg/sg181_4_cif.got.tgz:6040.got - 2010.04.01 11:42:41.
