data_PCOD8326188
_publ_section_title
;
Structure prediction by ZEFSAII (Michael W. Deem and Ramdas Pophale) SiO2 
 PCOD8326188
Probable space group: P 62 2 2
;
_chemical_formula_sum "Si O2"
_cell_formula_units_Z 72
_cell_length_a 15.031060
_cell_length_b 15.031060
_cell_length_c 18.147254
_cell_angle_alpha 90.000000
_cell_angle_beta 90.000000
_cell_angle_gamma 120.000000
_cell_volume 3550.755483
_symmetry_space_group_name_H-M "P 62 2 2"
_symmetry_group_IT_number 180
_symmetry_cell_setting 'hexagonal'
loop_
_space_group_symop_operation_xyz
x,y,z
x-y,x,1/3+z
-y,x-y,2/3+z
-x,-y,z
-x+y,-x,1/3+z
y,-x+y,2/3+z
x-y,-y,-z
-x,-x+y,1/3-z
y,x,2/3-z
-y,-x,2/3-z
-x+y,y,-z
x,x-y,1/3-z
loop_
_atom_site_type_symbol
_atom_site_label
_atom_site_fract_x
_atom_site_fract_y
_atom_site_fract_z
Si Si1 0.885123 0.641226 0.161707
Si Si2 0.491475 0.891240 0.610498
Si Si3 0.704475 0.085875 0.252762
Si Si4 0.855078 0.587091 0.441184
Si Si5 0.761924 0.506362 0.289816
Si Si6 0.429349 0.542453 0.202453
O O1 0.889491 0.540206 0.134538
O O2 0.824127 0.674021 0.104308
O O3 0.831633 0.609081 0.241533
O O4 0.000000 0.738009 0.166667
O O5 0.559345 0.873206 0.670752
O O6 0.375543 0.799349 0.614643
O O7 0.500000 0.000000 0.627276
O O8 0.644589 0.105834 0.189494
O O9 0.665313 0.965309 0.259387
O O10 0.824176 0.648351 0.500000
O O11 0.772793 0.541695 0.374671
O O12 0.848181 0.494252 0.489866
O O13 0.642016 0.449728 0.266040
O O14 0.500000 0.500000 0.238006
#
# Coordination Sequence:
#
# PCOD8326188 Si02
#       6
#    12  12  12  12  12  12
#     4  11  22  34  57  92 122 163 201 250 314 381
#     4  12  19  35  60  89 133 162 196 254 315 380
#     4  10  20  39  59  82 124 167 199 251 316 378
#     4  11  22  40  60  80 111 163 214 261 310 371
#     4  11  22  36  59  87 120 161 207 253 312 369
#     4   9  20  40  58  81 121 162 205 259 306 362
#
# _framework density 20.277374999999999
#
# number of rings (size 3 to 8) (size 9 to 14) (size 15 to 20)
#    0.000    1.333    5.000    1.500    0.000    3.333 
#    3.000   10.000    0.000    0.500    0.000    0.000 
#    0.000   10.667    0.000    0.000    0.000    0.333 
#
# Total GULP energy -892725.327930 kJ/mol
# GULP energy per Si atom -12398.962888 kJ/mol
# Density = 2.023122 g / cm^3
# Si number density = 20.277375 Si / 1000 Ang^3
#
#
#
# Elastic Constant Matrix: (Units=GPa)
#
#
# Indices 1 2 3 4 5 6 
#
# 1 83.9571 27.3003 31.1381 0.0000 0.0000 0.0000
# 2 27.3003 83.9571 31.1381 0.0000 0.0000 0.0000
# 3 31.1381 31.1381 102.5081 0.0000 0.0000 0.0000
# 4 0.0000 0.0000 0.0000 18.1466 0.0000 0.0000
# 5 0.0000 0.0000 0.0000 0.0000 18.1466 0.0000
# 6 0.0000 0.0000 0.0000 0.0000 0.0000 28.3284
#
#
#
# Elastic Compliance Matrix: (Units=1/GPa)
#
#
# Indices 1 2 3 4 5 6 
#
# 1 0.014240 -0.003410 -0.003290 0.000000 0.000000 0.000000
# 2 -0.003410 0.014240 -0.003290 0.000000 0.000000 0.000000
# 3 -0.003290 -0.003290 0.011754 0.000000 0.000000 0.000000
# 4 0.000000 0.000000 0.000000 0.055107 0.000000 0.000000
# 5 0.000000 0.000000 0.000000 0.000000 0.055107 0.000000
# 6 0.000000 0.000000 0.000000 0.000000 0.000000 0.035300
#
#
# Mechanical properties :
#
#
# Convention : Reuss Voigt Hill
#
# Bulk Modulus (GPa) = 49.37184 49.95284 49.66234
# Shear Modulus (GPa) = 23.53189 24.98072 24.25630
#
# Velocity S-wave (km/s) = 3.41031 3.51372 3.46240
# Velocity P-wave (km/s) = 6.31728 6.41482 6.36624
#
# Compressibility (1/GPa) = 0.02025446
#
# Stress axis : x y z
#
# Youngs Moduli (GPa) = 70.22562 70.22562 85.07859
#
# Poissons Ratio (x) = 0.23949 0.27987
# Poissons Ratio (y) = 0.23949 0.27987
# Poissons Ratio (z) = 0.23101 0.23101
#
# Static dielectric constant tensor:
#      x y z
#    x 4.684010 0.000000 0.000000 
#    y 0.000000 4.684010 0.000000 
#    z 0.000000 0.000000 3.836670 
# 
# 
# High freq. dielectric constant tensor:
#      x y z
#    x 1.767330 0.000000 0.000000 
#    y 0.000000 1.767330 0.000000 
#    z 0.000000 0.000000 1.811760 
# 
# From -- ./inp_files/7777.got.cif
#   From: 2010.03.12/outbox.cif.g09.slc.cpg/sg180_4_cif.got.tgz:7777.got - 2010.04.01 11:35:50.
