data_PCOD8326509
_publ_section_title
;
Structure prediction by ZEFSAII (Michael W. Deem and Ramdas Pophale) SiO2 
 PCOD8326509
Probable space group: P 6 M M
;
_chemical_formula_sum "Si O2"
_cell_formula_units_Z 96
_cell_length_a 18.775360
_cell_length_b 18.775360
_cell_length_c 20.320205
_cell_angle_alpha 90.000000
_cell_angle_beta 90.000000
_cell_angle_gamma 120.000000
_cell_volume 6203.478232
_symmetry_space_group_name_H-M "P 6 M M"
_symmetry_group_IT_number 183
_symmetry_cell_setting 'hexagonal'
loop_
_space_group_symop_operation_xyz
x,y,z
x-y,x,z
-y,x-y,z
-x,-y,z
-x+y,-x,z
y,-x+y,z
-x+y,y,z
x,x-y,z
-y,-x,z
y,x,z
x-y,-y,z
-x,-x+y,z
loop_
_atom_site_type_symbol
_atom_site_label
_atom_site_fract_x
_atom_site_fract_y
_atom_site_fract_z
Si Si1 0.092736 0.746403 0.288350
Si Si2 0.496961 0.827723 0.642426
Si Si3 0.331589 0.829951 0.375505
Si Si4 0.091363 0.461223 0.915419
Si Si5 0.497792 0.829150 0.049268
Si Si6 0.903230 0.532688 0.773078
Si Si7 0.746624 0.654070 0.135045
Si Si8 0.908405 0.538678 0.511166
O O1 0.158834 0.841167 0.308009
O O2 0.112482 0.682966 0.325575
O O3 0.099802 0.732303 0.211607
O O4 0.000000 0.725933 0.306068
O O5 0.423163 0.846326 0.643045
O O6 0.461701 0.730851 0.636913
O O7 0.550001 0.861337 0.710066
O O8 0.553405 0.872066 0.578662
O O9 0.422488 0.844976 0.362874
O O10 0.265534 0.734467 0.363524
O O11 0.319370 0.853027 0.449363
O O12 0.086446 0.543223 0.908237
O O13 0.121876 0.445679 0.844230
O O14 0.000000 0.386129 0.931548
O O15 0.152056 0.469709 0.974054
O O16 0.422791 0.845581 0.061551
O O17 0.468289 0.734145 0.063693
O O18 0.571384 0.888489 0.097173
O O19 0.872381 0.436191 0.772778
O O20 0.000000 0.586086 0.763749
O O21 0.841163 0.682326 0.115101
O O22 0.726643 0.726643 0.117386
O O23 0.909784 0.454892 0.516450
O O24 0.000000 0.614848 0.500918
#
# Coordination Sequence:
#
# PCOD8326509 Si02
#       8
#    12  12  12  12  12  12  12  12
#     4   9  18  32  49  68  89 113 141 174 212 253
#     4  10  18  26  36  51  72  96 122 155 199 250
#     4  10  19  30  44  63  88 116 145 177 213 251
#     4   8  14  25  40  55  70  93 129 171 211 249
#     4  10  19  29  41  59  85 116 148 181 215 249
#     4   8  14  25  39  52  67  91 125 163 201 242
#     4   9  18  32  49  68  88 111 140 174 213 255
#     4   9  17  28  41  55  71  96 132 171 207 243
#
# _framework density 15.475189
#
# number of rings (size 3 to 8) (size 9 to 14) (size 15 to 20)
#    0.000    2.875    0.000    2.625    0.000    4.000 
#    0.000    2.500    0.000    3.250    0.000    1.750 
#    0.000    0.000    0.000    0.000    0.000    0.000 
#
# Total GULP energy -1189628.793875 kJ/mol
# GULP energy per Si atom -12391.966603 kJ/mol
# Density = 1.543997 g / cm^3
# Si number density = 15.475189 Si / 1000 Ang^3
#
#
#
# Elastic Constant Matrix: (Units=GPa)
#
#
# Indices 1 2 3 4 5 6 
#
# 1 64.8847 41.3709 37.4878 0.0000 0.0000 0.0000
# 2 41.3709 64.8847 37.4878 0.0000 0.0000 0.0000
# 3 37.4878 37.4878 78.3673 0.0000 0.0000 0.0000
# 4 0.0000 0.0000 0.0000 19.1215 0.0000 0.0000
# 5 0.0000 0.0000 0.0000 0.0000 19.1215 0.0000
# 6 0.0000 0.0000 0.0000 0.0000 0.0000 11.7569
#
#
#
# Elastic Compliance Matrix: (Units=1/GPa)
#
#
# Indices 1 2 3 4 5 6 
#
# 1 0.028367 -0.014161 -0.006796 0.000000 0.000000 0.000000
# 2 -0.014161 0.028367 -0.006796 0.000000 0.000000 0.000000
# 3 -0.006796 -0.006796 0.019262 0.000000 0.000000 0.000000
# 4 0.000000 0.000000 0.000000 0.052297 0.000000 0.000000
# 5 0.000000 0.000000 0.000000 0.000000 0.052297 0.000000
# 6 0.000000 0.000000 0.000000 0.000000 0.000000 0.085056
#
#
# Mechanical properties :
#
#
# Convention : Reuss Voigt Hill
#
# Bulk Modulus (GPa) = 48.79991 48.98107 48.89049
# Shear Modulus (GPa) = 15.24469 16.11934 15.68202
#
# Velocity S-wave (km/s) = 3.14204 3.23092 3.18679
# Velocity P-wave (km/s) = 6.69074 6.75563 6.72326
#
# Compressibility (1/GPa) = 0.02049184
#
# Stress axis : x y z
#
# Youngs Moduli (GPa) = 35.25180 35.25180 51.91528
#
# Poissons Ratio (x) = 0.49919 0.35281
# Poissons Ratio (y) = 0.49919 0.35281
# Poissons Ratio (z) = 0.23957 0.23957
#
# Static dielectric constant tensor:
#      x y z
#    x 2.768430 0.000000 0.000000 
#    y 0.000000 2.768430 0.000000 
#    z 0.000000 0.000000 3.335010 
# 
# 
# High freq. dielectric constant tensor:
#      x y z
#    x 1.562190 0.000000 0.000000 
#    y 0.000000 1.562190 0.000000 
#    z 0.000000 0.000000 1.613310 
# 
# From -- ./inp_files/3066.got.cif
#   From: 2010.03.12/outbox.cif.g09.slc.cpg/sg183_2_cif.got.tgz:3066.got - 2010.04.01 11:53:02.
