data_PCOD8326966
_publ_section_title
;
Structure prediction by ZEFSAII (Michael W. Deem and Ramdas Pophale) SiO2 
 PCOD8326966
Probable space group: P -6 M 2
;
_chemical_formula_sum "Si O2"
_cell_formula_units_Z 84
_cell_length_a 17.301597
_cell_length_b 17.301597
_cell_length_c 20.254468
_cell_angle_alpha 90.000000
_cell_angle_beta 90.000000
_cell_angle_gamma 120.000000
_cell_volume 5250.780408
_symmetry_space_group_name_H-M "P -6 M 2"
_symmetry_group_IT_number 187
_symmetry_cell_setting 'hexagonal'
loop_
_space_group_symop_operation_xyz
x,y,z
-x+y,-x,-z
-y,x-y,z
x,y,-z
-x+y,-x,z
-y,x-y,-z
-y,-x,-z
-x+y,y,-z
x,x-y,-z
-x+y,y,z
x,x-y,z
-y,-x,z
loop_
_atom_site_type_symbol
_atom_site_label
_atom_site_fract_x
_atom_site_fract_y
_atom_site_fract_z
Si Si1 0.333331 0.487218 0.925234
Si Si2 0.332142 0.358191 0.575030
Si Si3 0.667058 0.159820 0.421411
Si Si4 0.275003 0.367275 0.193715
Si Si5 0.823855 0.000628 0.231089
Si Si6 0.174669 0.174602 0.386582
Si Si7 0.515893 0.667184 0.315817
O O1 0.255006 0.510011 0.914297
O O2 0.424403 0.575598 0.907730
O O3 0.321540 0.408945 0.876253
O O4 0.333165 0.455225 0.000000
O O5 0.352718 0.393751 0.500000
O O6 0.412082 0.345770 0.604385
O O7 0.241785 0.263942 0.575517
O O8 0.322170 0.430528 0.617195
O O9 0.670154 0.162129 0.500000
O O10 0.585496 0.170992 0.395066
O O11 0.759144 0.240857 0.392649
O O12 0.181039 0.362078 0.201262
O O13 0.255658 0.265882 0.197361
O O14 0.336769 0.427462 0.253735
O O15 0.906924 0.093077 0.206174
O O16 0.809792 0.000658 0.308942
O O17 0.842389 0.921195 0.210913
O O18 0.190015 0.095008 0.411151
O O19 0.074298 0.148595 0.404736
O O20 0.497406 0.748703 0.309309
O O21 0.422579 0.577422 0.317653
#
# Coordination Sequence:
#
# PCOD8326966 Si02
#       7
#    12  12  12  12  12  12  12
#     4   9  16  26  43  69 100 131 160 191 229 274
#     4  11  22  35  49  65  89 120 152 191 241 288
#     4   9  17  30  48  68  87 108 138 179 228 283
#     4   9  17  30  47  68  94 122 153 189 228 270
#     4   9  16  28  47  70  94 121 155 194 234 277
#     4  10  19  32  49  69  91 116 148 189 238 292
#     4  11  22  36  51  67  88 119 159 199 234 271
#
# _framework density 15.997621000000001
#
# number of rings (size 3 to 8) (size 9 to 14) (size 15 to 20)
#    0.000    2.286    1.429    2.429    0.000    5.143 
#    0.000    1.429    0.000    2.143    0.000    0.000 
#    0.000    1.143    0.000    0.571    0.000    2.000 
#
# Total GULP energy -1041633.463097 kJ/mol
# GULP energy per Si atom -12400.398370 kJ/mol
# Density = 1.596121 g / cm^3
# Si number density = 15.997621 Si / 1000 Ang^3
#
#
#
# Elastic Constant Matrix: (Units=GPa)
#
#
# Indices 1 2 3 4 5 6 
#
# 1 95.7125 36.1929 35.3852 0.0000 0.0002 0.0000
# 2 36.1929 95.7125 35.3852 0.0000 -0.0002 0.0000
# 3 35.3852 35.3852 68.1450 0.0000 0.0000 0.0000
# 4 0.0000 0.0000 0.0000 16.6962 0.0000 -0.0002
# 5 0.0002 -0.0002 0.0000 0.0000 16.6962 0.0000
# 6 0.0000 0.0000 0.0000 -0.0002 0.0000 29.7598
#
#
#
# Elastic Compliance Matrix: (Units=1/GPa)
#
#
# Indices 1 2 3 4 5 6 
#
# 1 0.013655 -0.003146 -0.005457 0.000000 0.000000 0.000000
# 2 -0.003146 0.013655 -0.005457 0.000000 0.000000 0.000000
# 3 -0.005457 -0.005457 0.020342 0.000000 0.000000 0.000000
# 4 0.000000 0.000000 0.000000 0.059894 0.000000 0.000000
# 5 0.000000 0.000000 0.000000 0.000000 0.059894 0.000000
# 6 0.000000 0.000000 0.000000 0.000000 0.000000 0.033602
#
#
# Mechanical properties :
#
#
# Convention : Reuss Voigt Hill
#
# Bulk Modulus (GPa) = 51.19803 52.61071 51.90437
# Shear Modulus (GPa) = 21.21587 22.80422 22.01004
#
# Velocity S-wave (km/s) = 3.64564 3.77964 3.71325
# Velocity P-wave (km/s) = 7.05648 7.21149 7.13441
#
# Compressibility (1/GPa) = 0.01953200
#
# Stress axis : x y z
#
# Youngs Moduli (GPa) = 73.23288 73.23288 49.16001
#
# Poissons Ratio (x) = 0.23040 0.26826
# Poissons Ratio (y) = 0.23040 0.26826
# Poissons Ratio (z) = 0.39963 0.39963
#
# Static dielectric constant tensor:
#      x y z
#    x 3.083550 0.000000 0.000000 
#    y 0.000000 3.083550 0.000000 
#    z 0.000000 0.000000 2.897000 
# 
# 
# High freq. dielectric constant tensor:
#      x y z
#    x 1.611670 0.000000 0.000000 
#    y 0.000000 1.611670 0.000000 
#    z 0.000000 0.000000 1.582310 
# 
# From -- ./inp_files/3662.got.cif
#   From: 2010.03.12/outbox.cif.g09.slc.cpg/sg187_2_cif.got.tgz:3662.got - 2010.04.01 11:58:23.
