data_PCOD8326284
_publ_section_title
;
Structure prediction by ZEFSAII (Michael W. Deem and Ramdas Pophale) SiO2 
 PCOD8326284
Probable space group: P 64 2 2
;
_chemical_formula_sum "Si O2"
_cell_formula_units_Z 45
_cell_length_a 13.905496
_cell_length_b 13.905496
_cell_length_c 16.137844
_cell_angle_alpha 90.000000
_cell_angle_beta 90.000000
_cell_angle_gamma 120.000000
_cell_volume 2702.396773
_symmetry_space_group_name_H-M "P 64 2 2"
_symmetry_group_IT_number 181
_symmetry_cell_setting 'hexagonal'
loop_
_space_group_symop_operation_xyz
x,y,z
x-y,x,2/3+z
-y,x-y,1/3+z
-x,-y,z
-x+y,-x,2/3+z
y,-x+y,1/3+z
x-y,-y,-z
-x,-x+y,2/3-z
y,x,1/3-z
-y,-x,1/3-z
-x+y,y,-z
x,x-y,2/3-z
loop_
_atom_site_type_symbol
_atom_site_label
_atom_site_fract_x
_atom_site_fract_y
_atom_site_fract_z
Si Si1 0.827520 0.509048 0.722852
Si Si2 0.467295 0.733648 0.333334
Si Si3 0.500000 0.000000 0.500000
Si Si4 0.536772 0.866708 0.175941
Si Si5 0.117576 0.440067 0.536500
O O1 0.763386 0.377005 0.716233
O O2 0.932718 0.542078 0.779270
O O3 0.748314 0.549267 0.765093
O O4 0.873470 0.567235 0.635057
O O5 0.547508 0.821355 0.265366
O O6 0.414548 0.852764 0.172340
O O7 0.637037 0.993256 0.171319
O O8 0.202667 0.405334 0.500000
#
# Coordination Sequence:
#
# PCOD8326284 Si02
#       5
#    12   6   3  12  12
#     4  11  20  32  54  77 110 141 175 221 266 319
#     4  10  16  32  50  79 110 139 176 214 262 320
#     4  12  20  32  52  88 106 134 184 224 272 310
#     4  10  19  33  53  74 109 148 173 215 269 311
#     4  10  22  35  49  78 111 144 183 215 254 331
#
# _framework density 16.651886000000001
#
# number of rings (size 3 to 8) (size 9 to 14) (size 15 to 20)
#    0.000    1.600    2.667    6.400    0.000    1.067 
#    0.000    2.667    0.000    0.000    0.000    0.933 
#    0.000    0.000    0.000    0.000    0.000    0.000 
#
# Total GULP energy -557944.963463 kJ/mol
# GULP energy per Si atom -12398.776966 kJ/mol
# Density = 1.661399 g / cm^3
# Si number density = 16.651886 Si / 1000 Ang^3
#
#
#
# Elastic Constant Matrix: (Units=GPa)
#
#
# Indices 1 2 3 4 5 6 
#
# 1 94.3737 43.7865 46.6373 0.0000 0.0000 0.0000
# 2 43.7865 94.3737 46.6373 0.0000 0.0000 0.0000
# 3 46.6373 46.6373 96.4858 0.0000 0.0000 0.0000
# 4 0.0000 0.0000 0.0000 7.9337 0.0000 0.0000
# 5 0.0000 0.0000 0.0000 0.0000 7.9337 0.0000
# 6 0.0000 0.0000 0.0000 0.0000 0.0000 25.2936
#
#
#
# Elastic Compliance Matrix: (Units=1/GPa)
#
#
# Indices 1 2 3 4 5 6 
#
# 1 0.015256 -0.004512 -0.005193 0.000000 0.000000 0.000000
# 2 -0.004512 0.015256 -0.005193 0.000000 0.000000 0.000000
# 3 -0.005193 -0.005193 0.015385 0.000000 0.000000 0.000000
# 4 0.000000 0.000000 0.000000 0.126045 0.000000 0.000000
# 5 0.000000 0.000000 0.000000 0.000000 0.126045 0.000000
# 6 0.000000 0.000000 0.000000 0.000000 0.000000 0.039536
#
#
# Mechanical properties :
#
#
# Convention : Reuss Voigt Hill
#
# Bulk Modulus (GPa) = 62.11275 62.15061 62.13168
# Shear Modulus (GPa) = 13.41613 18.11033 15.76323
#
# Velocity S-wave (km/s) = 2.84153 3.30143 3.08008
# Velocity P-wave (km/s) = 6.93884 7.20674 7.07406
#
# Compressibility (1/GPa) = 0.01609975
#
# Stress axis : x y z
#
# Youngs Moduli (GPa) = 65.54829 65.54829 65.00005
#
# Poissons Ratio (x) = 0.29575 0.33756
# Poissons Ratio (y) = 0.29575 0.33756
# Poissons Ratio (z) = 0.34041 0.34041
#
# Static dielectric constant tensor:
#      x y z
#    x 3.092590 0.000000 0.000000 
#    y 0.000000 3.092590 0.000000 
#    z 0.000000 0.000000 3.074940 
# 
# 
# High freq. dielectric constant tensor:
#      x y z
#    x 1.620080 0.000000 0.000000 
#    y 0.000000 1.620080 0.000000 
#    z 0.000000 0.000000 1.659060 
# 
# From -- ./inp_files/5899.got.cif
#   From: 2010.03.12/outbox.cif.g09.slc.cpg/sg181_3_cif.got.tgz:5899.got - 2010.04.01 11:42:41.
