data_PCOD8326573
_publ_section_title
;
Structure prediction by ZEFSAII (Michael W. Deem and Ramdas Pophale) SiO2 
 PCOD8326573
Probable space group: P 6 C C
;
_chemical_formula_sum "Si O2"
_cell_formula_units_Z 90
_cell_length_a 24.486847
_cell_length_b 24.486847
_cell_length_c 9.266058
_cell_angle_alpha 90.000000
_cell_angle_beta 90.000000
_cell_angle_gamma 120.000000
_cell_volume 4811.620664
_symmetry_space_group_name_H-M "P 6 C C"
_symmetry_group_IT_number 184
_symmetry_cell_setting 'hexagonal'
loop_
_space_group_symop_operation_xyz
x,y,z
x-y,x,z
-y,x-y,z
-x,-y,z
-x+y,-x,z
y,-x+y,z
-x+y,y,1/2+z
x,x-y,1/2+z
-y,-x,1/2+z
y,x,1/2+z
x-y,-y,1/2+z
-x,-x+y,1/2+z
loop_
_atom_site_type_symbol
_atom_site_label
_atom_site_fract_x
_atom_site_fract_y
_atom_site_fract_z
Si Si1 0.902187 0.856633 0.817880
Si Si2 0.701925 0.758060 0.912550
Si Si3 0.371261 0.314804 0.421893
Si Si4 0.405437 0.952296 0.004055
Si Si5 0.121895 0.898513 0.053704
Si Si6 0.500000 0.000000 0.759298
Si Si7 0.120525 0.399761 0.129600
Si Si8 0.355154 0.215302 0.643106
O O1 0.886982 0.911055 0.792927
O O2 0.864871 0.801074 0.702144
O O3 0.883469 0.827422 0.979479
O O4 0.715430 0.702076 0.872497
O O5 0.654865 0.765718 0.802902
O O6 0.766556 0.824419 0.933533
O O7 0.670136 0.743288 0.070833
O O8 0.398917 0.385173 0.478837
O O9 0.408969 0.311614 0.284474
O O10 0.383499 0.277443 0.547153
O O11 0.443926 0.949312 0.865012
O O12 0.336288 0.888410 0.020974
O O13 0.440381 0.960559 0.156186
O O14 0.122228 0.834118 0.076461
O O15 0.189358 0.405145 0.142441
#
# Coordination Sequence:
#
# PCOD8326573 Si02
#       8
#    12  12  12  12  12   6  12  12
#     4  12  27  44  58  68  84 114 164 235 319 385
#     4  10  21  35  54  75 106 139 182 224 280 357
#     4  11  22  35  56  81 115 153 190 230 290 343
#     4  10  20  37  58  85 117 156 200 245 286 348
#     4  11  24  39  57  77  94 121 166 227 293 362
#     4  10  20  36  60  86 112 154 208 236 286 340
#     4  10  20  35  51  80 113 153 187 232 290 340
#     4  11  23  36  53  81 115 148 190 233 289 372
#
# _framework density 18.704716999999999
#
# number of rings (size 3 to 8) (size 9 to 14) (size 15 to 20)
#    0.000    1.333    2.667    4.133    7.467    0.000 
#    0.000    1.333    0.000    0.000    0.000    0.000 
#    0.000    0.000    0.000   16.000    0.800    0.000 
#
# Total GULP energy -1115394.305949 kJ/mol
# GULP energy per Si atom -12393.270066 kJ/mol
# Density = 1.866214 g / cm^3
# Si number density = 18.704717 Si / 1000 Ang^3
#
#
#
# Elastic Constant Matrix: (Units=GPa)
#
#
# Indices 1 2 3 4 5 6 
#
# 1 71.4115 25.9293 26.7462 0.0000 0.0000 0.0000
# 2 25.9293 71.4115 26.7462 0.0000 0.0000 0.0000
# 3 26.7462 26.7462 100.7218 0.0000 0.0000 0.0000
# 4 0.0000 0.0000 0.0000 28.3128 0.0000 0.0000
# 5 0.0000 0.0000 0.0000 0.0000 28.3128 0.0000
# 6 0.0000 0.0000 0.0000 0.0000 0.0000 22.7411
#
#
#
# Elastic Compliance Matrix: (Units=1/GPa)
#
#
# Indices 1 2 3 4 5 6 
#
# 1 0.017008 -0.004979 -0.003194 0.000000 0.000000 0.000000
# 2 -0.004979 0.017008 -0.003194 0.000000 0.000000 0.000000
# 3 -0.003194 -0.003194 0.011625 0.000000 0.000000 0.000000
# 4 0.000000 0.000000 0.000000 0.035320 0.000000 0.000000
# 5 0.000000 0.000000 0.000000 0.000000 0.035320 0.000000
# 6 0.000000 0.000000 0.000000 0.000000 0.000000 0.043973
#
#
# Mechanical properties :
#
#
# Convention : Reuss Voigt Hill
#
# Bulk Modulus (GPa) = 43.65819 44.70980 44.18400
# Shear Modulus (GPa) = 26.22993 26.81489 26.52241
#
# Velocity S-wave (km/s) = 3.74881 3.79039 3.76966
# Velocity P-wave (km/s) = 6.49073 6.56589 6.52842
#
# Compressibility (1/GPa) = 0.02290521
#
# Stress axis : x y z
#
# Youngs Moduli (GPa) = 58.79750 58.79750 86.02374
#
# Poissons Ratio (x) = 0.29276 0.27477
# Poissons Ratio (y) = 0.29276 0.27477
# Poissons Ratio (z) = 0.18781 0.18781
#
# Static dielectric constant tensor:
#      x y z
#    x 3.401490 0.000000 0.000000 
#    y 0.000000 3.401490 0.000000 
#    z 0.000000 0.000000 3.614210 
# 
# 
# High freq. dielectric constant tensor:
#      x y z
#    x 1.693970 0.000000 0.000000 
#    y 0.000000 1.693970 0.000000 
#    z 0.000000 0.000000 1.750980 
# 
# From -- ./inp_files/415.got.cif
#   From: 2010.03.12/outbox.cif.g09.slc.cpg/sg184_cif.got.tgz:415.got - 2010.04.01 11:54:36.
