data_PCOD8326688
_publ_section_title
;
Structure prediction by ZEFSAII (Michael W. Deem and Ramdas Pophale) SiO2 
 PCOD8326688
Probable space group: P 63 C M
;
_chemical_formula_sum "Si O2"
_cell_formula_units_Z 84
_cell_length_a 22.132080
_cell_length_b 22.132080
_cell_length_c 10.763658
_cell_angle_alpha 90.000000
_cell_angle_beta 90.000000
_cell_angle_gamma 120.000000
_cell_volume 4565.990301
_symmetry_space_group_name_H-M "P 63 C M"
_symmetry_group_IT_number 185
_symmetry_cell_setting 'hexagonal'
loop_
_space_group_symop_operation_xyz
x,y,z
x-y,x,1/2+z
-y,x-y,z
-x,-y,1/2+z
-x+y,-x,z
y,-x+y,1/2+z
-x+y,y,1/2+z
x,x-y,1/2+z
-y,-x,1/2+z
y,x,z
x-y,-y,z
-x,-x+y,z
loop_
_atom_site_type_symbol
_atom_site_label
_atom_site_fract_x
_atom_site_fract_y
_atom_site_fract_z
Si Si1 0.253618 0.419017 0.669530
Si Si2 0.139964 0.702952 0.269458
Si Si3 0.632467 0.922372 0.892861
Si Si4 0.081571 0.273895 0.782392
Si Si5 0.381613 0.465744 0.515151
Si Si6 0.081371 0.603166 0.049624
Si Si7 0.298792 0.158847 0.031309
O O1 0.220569 0.465152 0.723814
O O2 0.241360 0.365936 0.781680
O O3 0.336328 0.459173 0.638428
O O4 0.211828 0.372339 0.550952
O O5 0.099009 0.745794 0.260608
O O6 0.128628 0.670697 0.405636
O O7 0.112110 0.635987 0.182077
O O8 0.661478 0.000000 0.843578
O O9 0.553215 0.890598 0.943528
O O10 0.682394 0.920064 0.998816
O O11 0.114915 0.255297 0.661579
O O12 0.000000 0.222358 0.783411
O O13 0.107901 0.260217 0.915009
O O14 0.409647 0.409647 0.512160
O O15 0.444867 0.544128 0.512454
O O16 0.000000 0.572716 0.062725
#
# Coordination Sequence:
#
# PCOD8326688 Si02
#       7
#    12  12  12  12  12  12  12
#     4  11  21  35  55  80 112 147 192 227 280 360
#     4  11  21  36  56  78 109 149 189 223 284 356
#     4  11  20  34  54  81 113 146 181 229 282 343
#     4  11  21  36  57  81 120 160 193 230 277 347
#     4  11  23  37  56  86 114 142 188 247 301 344
#     4  10  22  36  55  81 107 140 187 244 301 344
#     4  11  20  36  53  85 113 154 203 222 284 360
#
# _framework density 18.396885000000001
#
# number of rings (size 3 to 8) (size 9 to 14) (size 15 to 20)
#    0.000    1.143    7.143    2.143    2.000    0.571 
#    0.000    0.000    0.000    0.571    3.714    0.000 
#    0.000    0.000    0.000   16.286    0.000    0.000 
#
# Total GULP energy -1040654.025557 kJ/mol
# GULP energy per Si atom -12388.738399 kJ/mol
# Density = 1.835501 g / cm^3
# Si number density = 18.396885 Si / 1000 Ang^3
#
#
#
# Elastic Constant Matrix: (Units=GPa)
#
#
# Indices 1 2 3 4 5 6 
#
# 1 74.0169 28.3081 39.2201 0.0000 0.0000 0.0000
# 2 28.3081 74.0169 39.2201 0.0000 0.0000 0.0000
# 3 39.2201 39.2201 118.8269 0.0000 0.0000 0.0000
# 4 0.0000 0.0000 0.0000 27.7984 0.0000 0.0000
# 5 0.0000 0.0000 0.0000 0.0000 27.7984 0.0000
# 6 0.0000 0.0000 0.0000 0.0000 0.0000 22.8544
#
#
#
# Elastic Compliance Matrix: (Units=1/GPa)
#
#
# Indices 1 2 3 4 5 6 
#
# 1 0.017480 -0.004397 -0.004318 0.000000 0.000000 0.000000
# 2 -0.004397 0.017480 -0.004318 0.000000 0.000000 0.000000
# 3 -0.004318 -0.004318 0.011266 0.000000 0.000000 0.000000
# 4 0.000000 0.000000 0.000000 0.035973 0.000000 0.000000
# 5 0.000000 0.000000 0.000000 0.000000 0.035973 0.000000
# 6 0.000000 0.000000 0.000000 0.000000 0.000000 0.043755
#
#
# Mechanical properties :
#
#
# Convention : Reuss Voigt Hill
#
# Bulk Modulus (GPa) = 49.60464 53.37304 51.48884
# Shear Modulus (GPa) = 25.67843 26.36439 26.02141
#
# Velocity S-wave (km/s) = 3.74010 3.78972 3.76499
# Velocity P-wave (km/s) = 6.75820 6.94437 6.85192
#
# Compressibility (1/GPa) = 0.02015940
#
# Stress axis : x y z
#
# Youngs Moduli (GPa) = 57.20713 57.20713 88.76164
#
# Poissons Ratio (x) = 0.25156 0.38329
# Poissons Ratio (y) = 0.25156 0.38329
# Poissons Ratio (z) = 0.24703 0.24703
#
# Static dielectric constant tensor:
#      x y z
#    x 3.270600 0.000000 0.000000 
#    y 0.000000 3.270600 0.000000 
#    z 0.000000 0.000000 3.685640 
# 
# 
# High freq. dielectric constant tensor:
#      x y z
#    x 1.684620 0.000000 0.000000 
#    y 0.000000 1.684620 0.000000 
#    z 0.000000 0.000000 1.740320 
# 
# From -- ./inp_files/1027.got.cif
#   From: 2010.03.12/outbox.cif.g09.slc.cpg/sg185_cif.got.tgz:1027.got - 2010.04.01 11:55:19.
