data_PCOD8326658
_publ_section_title
;
Structure prediction by ZEFSAII (Michael W. Deem and Ramdas Pophale) SiO2 
 PCOD8326658
Probable space group: P 63 C M
;
_chemical_formula_sum "Si O2"
_cell_formula_units_Z 72
_cell_length_a 21.820980
_cell_length_b 21.820980
_cell_length_c 9.316893
_cell_angle_alpha 90.000000
_cell_angle_beta 90.000000
_cell_angle_gamma 120.000000
_cell_volume 3841.937027
_symmetry_space_group_name_H-M "P 63 C M"
_symmetry_group_IT_number 185
_symmetry_cell_setting 'hexagonal'
loop_
_space_group_symop_operation_xyz
x,y,z
x-y,x,1/2+z
-y,x-y,z
-x,-y,1/2+z
-x+y,-x,z
y,-x+y,1/2+z
-x+y,y,1/2+z
x,x-y,1/2+z
-y,-x,1/2+z
y,x,z
x-y,-y,z
-x,-x+y,z
loop_
_atom_site_type_symbol
_atom_site_label
_atom_site_fract_x
_atom_site_fract_y
_atom_site_fract_z
Si Si1 0.482444 0.397982 0.098070
Si Si2 0.873025 0.137652 0.661106
Si Si3 0.918464 0.082761 0.410771
Si Si4 0.081077 0.368214 0.779055
Si Si5 0.915749 0.515565 0.773158
Si Si6 0.367086 0.083930 0.099704
O O1 0.439207 0.439207 0.092385
O O2 0.437216 0.321779 0.176480
O O3 0.554691 0.442433 0.187278
O O4 0.500220 0.385989 0.935557
O O5 0.890661 0.127722 0.498699
O O6 0.900913 0.092553 0.748176
O O7 0.914993 0.219333 0.704388
O O8 0.790219 0.108939 0.681027
O O9 0.000000 0.108014 0.440368
O O10 0.872519 0.000000 0.446450
O O11 0.000000 0.345872 0.799916
O O12 0.116005 0.385830 0.937930
O O13 0.887076 0.561234 0.691018
O O14 0.000000 0.557915 0.775304
O O15 0.324654 0.000000 0.093771
#
# Coordination Sequence:
#
# PCOD8326658 Si02
#       6
#    12  12  12  12  12  12
#     4   9  17  29  49  77 107 139 170 200 242 303
#     4  12  24  38  57  80 108 144 190 248 320 384
#     4  12  25  42  60  78 102 140 198 266 336 404
#     4  10  20  35  52  73 105 142 181 228 284 348
#     4   9  17  29  49  77 107 139 170 200 242 303
#     4  10  20  35  52  73 105 142 181 228 284 348
#
# _framework density 18.740548
#
# number of rings (size 3 to 8) (size 9 to 14) (size 15 to 20)
#    0.000    1.667    1.667    4.167    2.333    4.000 
#    0.000    1.667    0.000    0.000    0.000    0.000 
#    1.667    0.000    2.000    0.000    1.333    0.000 
#
# Total GULP energy -892837.688517 kJ/mol
# GULP energy per Si atom -12400.523452 kJ/mol
# Density = 1.869789 g / cm^3
# Si number density = 18.740548 Si / 1000 Ang^3
#
#
#
# Elastic Constant Matrix: (Units=GPa)
#
#
# Indices 1 2 3 4 5 6 
#
# 1 80.7523 21.2221 39.7662 0.0000 0.0000 0.0000
# 2 21.2221 80.7523 39.7662 0.0000 0.0000 0.0000
# 3 39.7662 39.7662 112.2385 0.0000 0.0000 0.0000
# 4 0.0000 0.0000 0.0000 26.5562 0.0000 0.0000
# 5 0.0000 0.0000 0.0000 0.0000 26.5562 0.0000
# 6 0.0000 0.0000 0.0000 0.0000 0.0000 29.7651
#
#
#
# Elastic Compliance Matrix: (Units=1/GPa)
#
#
# Indices 1 2 3 4 5 6 
#
# 1 0.015175 -0.001624 -0.004801 0.000000 0.000000 0.000000
# 2 -0.001624 0.015175 -0.004801 0.000000 0.000000 0.000000
# 3 -0.004801 -0.004801 0.012312 0.000000 0.000000 0.000000
# 4 0.000000 0.000000 0.000000 0.037656 0.000000 0.000000
# 5 0.000000 0.000000 0.000000 0.000000 0.037656 0.000000
# 6 0.000000 0.000000 0.000000 0.000000 0.000000 0.033596
#
#
# Mechanical properties :
#
#
# Convention : Reuss Voigt Hill
#
# Bulk Modulus (GPa) = 49.48278 52.80578 51.14428
# Shear Modulus (GPa) = 27.66145 28.10810 27.88477
#
# Velocity S-wave (km/s) = 3.84607 3.87700 3.86156
# Velocity P-wave (km/s) = 6.79591 6.94838 6.87257
#
# Compressibility (1/GPa) = 0.02020905
#
# Stress axis : x y z
#
# Youngs Moduli (GPa) = 65.89995 65.89995 81.22395
#
# Poissons Ratio (x) = 0.10700 0.38996
# Poissons Ratio (y) = 0.10700 0.38996
# Poissons Ratio (z) = 0.31639 0.31639
#
# Static dielectric constant tensor:
#      x y z
#    x 3.195560 0.000000 0.000000 
#    y 0.000000 3.195560 0.000000 
#    z 0.000000 0.000000 3.737660 
# 
# 
# High freq. dielectric constant tensor:
#      x y z
#    x 1.696650 0.000000 0.000000 
#    y 0.000000 1.696650 0.000000 
#    z 0.000000 0.000000 1.749790 
# 
# From -- ./inp_files/628.got.cif
#   From: 2010.03.12/outbox.cif.g09.slc.cpg/sg185_cif.got.tgz:628.got - 2010.04.01 11:55:19.
