data_PCOD8326915
_publ_section_title
;
Structure prediction by ZEFSAII (Michael W. Deem and Ramdas Pophale) SiO2 
 PCOD8326915
Probable space group: P -6 M 2
;
_chemical_formula_sum "Si O2"
_cell_formula_units_Z 60
_cell_length_a 23.181794
_cell_length_b 23.181794
_cell_length_c 7.962850
_cell_angle_alpha 90.000000
_cell_angle_beta 90.000000
_cell_angle_gamma 120.000000
_cell_volume 3705.896201
_symmetry_space_group_name_H-M "P -6 M 2"
_symmetry_group_IT_number 187
_symmetry_cell_setting 'hexagonal'
loop_
_space_group_symop_operation_xyz
x,y,z
-x+y,-x,-z
-y,x-y,z
x,y,-z
-x+y,-x,z
-y,x-y,-z
-y,-x,-z
-x+y,y,-z
x,x-y,-z
-x+y,y,z
x,x-y,z
-y,-x,z
loop_
_atom_site_type_symbol
_atom_site_label
_atom_site_fract_x
_atom_site_fract_y
_atom_site_fract_z
Si Si1 0.805444 0.062998 0.000000
Si Si2 0.736893 0.741661 0.681718
Si Si3 0.656375 0.070339 0.686713
Si Si4 0.725847 0.142539 0.000000
Si Si5 0.129449 0.741231 0.191809
Si Si6 0.531217 0.933669 0.697431
O O1 0.789718 0.016924 0.166109
O O2 0.883259 0.116742 0.000000
O O3 0.760486 0.097551 0.000000
O O4 0.770951 0.771954 0.500000
O O5 0.709410 0.663480 0.677056
O O6 0.675545 0.754935 0.700150
O O7 0.651849 0.097410 0.500000
O O8 0.680783 0.126842 0.831333
O O9 0.585127 0.009556 0.744032
O O10 0.779573 0.220428 0.000000
O O11 0.205111 0.794890 0.242221
O O12 0.118503 0.667585 0.219191
O O13 0.114443 0.748957 0.000000
O O14 0.530694 0.923901 0.500000
O O15 0.459302 0.918604 0.764230
#
# Coordination Sequence:
#
# PCOD8326915 Si02
#       6
#     6  12  12   6  12  12
#     4   9  16  26  39  58  85 112 142 175 200 238
#     4   9  16  27  42  59  83 115 147 180 220 264
#     4   8  15  26  39  57  82 109 139 176 214 256
#     4   9  16  24  37  56  79 110 142 165 190 234
#     4  10  19  30  45  66  90 116 153 199 245 296
#     4   9  18  31  46  65  87 113 151 197 242 294
#
# _framework density 16.190415000000002
#
# number of rings (size 3 to 8) (size 9 to 14) (size 15 to 20)
#    0.000    3.000    1.000    1.800    4.200    2.800 
#    0.000    4.000    0.000    0.400    0.000    0.000 
#    0.000    0.000    0.000    4.800    0.000   24.000 
#
# Total GULP energy -743546.868115 kJ/mol
# GULP energy per Si atom -12392.447802 kJ/mol
# Density = 1.615356 g / cm^3
# Si number density = 16.190415 Si / 1000 Ang^3
#
#
#
# Elastic Constant Matrix: (Units=GPa)
#
#
# Indices 1 2 3 4 5 6 
#
# 1 64.9399 38.5427 42.7009 0.0000 -0.0003 0.0000
# 2 38.5427 64.9399 42.7009 0.0000 0.0003 0.0000
# 3 42.7009 42.7009 120.0216 0.0000 0.0000 0.0000
# 4 0.0000 0.0000 0.0000 16.0213 0.0000 0.0003
# 5 -0.0003 0.0003 0.0000 0.0000 16.0213 0.0000
# 6 0.0000 0.0000 0.0000 0.0003 0.0000 13.1986
#
#
#
# Elastic Compliance Matrix: (Units=1/GPa)
#
#
# Indices 1 2 3 4 5 6 
#
# 1 0.025781 -0.012101 -0.004867 0.000000 0.000001 0.000000
# 2 -0.012101 0.025781 -0.004867 0.000000 -0.000001 0.000000
# 3 -0.004867 -0.004867 0.011795 0.000000 0.000000 0.000000
# 4 0.000000 0.000000 0.000000 0.062417 0.000000 -0.000002
# 5 0.000001 -0.000001 0.000000 0.000000 0.062417 0.000000
# 6 0.000000 0.000000 0.000000 -0.000002 0.000000 0.075765
#
#
# Mechanical properties :
#
#
# Convention : Reuss Voigt Hill
#
# Bulk Modulus (GPa) = 50.79495 55.31006 53.05251
# Shear Modulus (GPa) = 15.91391 17.44537 16.67964
#
# Velocity S-wave (km/s) = 3.13856 3.28611 3.21318
# Velocity P-wave (km/s) = 6.67650 6.97384 6.82679
#
# Compressibility (1/GPa) = 0.01968700
#
# Stress axis : x y z
#
# Youngs Moduli (GPa) = 38.78758 38.78758 84.78147
#
# Poissons Ratio (x) = 0.46938 0.41264
# Poissons Ratio (y) = 0.46938 0.41264
# Poissons Ratio (z) = 0.18878 0.18878
#
# Static dielectric constant tensor:
#      x y z
#    x 2.794370 0.000000 0.000000 
#    y 0.000000 2.794370 0.000000 
#    z 0.000000 0.000000 3.475380 
# 
# 
# High freq. dielectric constant tensor:
#      x y z
#    x 1.575430 0.000000 0.000000 
#    y 0.000000 1.575430 0.000000 
#    z 0.000000 0.000000 1.646030 
# 
# From -- ./inp_files/653.got.cif
#   From: 2010.03.12/outbox.cif.g09.slc.cpg/sg187_1_cif.got.tgz:653.got - 2010.04.01 11:58:23.
