data_PCOD8326672
_publ_section_title
;
Structure prediction by ZEFSAII (Michael W. Deem and Ramdas Pophale) SiO2 
 PCOD8326672
Probable space group: P 63 C M
;
_chemical_formula_sum "Si O2"
_cell_formula_units_Z 60
_cell_length_a 15.597934
_cell_length_b 15.597934
_cell_length_c 15.193822
_cell_angle_alpha 90.000000
_cell_angle_beta 90.000000
_cell_angle_gamma 120.000000
_cell_volume 3201.340159
_symmetry_space_group_name_H-M "P 63 C M"
_symmetry_group_IT_number 185
_symmetry_cell_setting 'hexagonal'
loop_
_space_group_symop_operation_xyz
x,y,z
x-y,x,1/2+z
-y,x-y,z
-x,-y,1/2+z
-x+y,-x,z
y,-x+y,1/2+z
-x+y,y,1/2+z
x,x-y,1/2+z
-y,-x,1/2+z
y,x,z
x-y,-y,z
-x,-x+y,z
loop_
_atom_site_type_symbol
_atom_site_label
_atom_site_fract_x
_atom_site_fract_y
_atom_site_fract_z
Si Si1 0.480914 0.886246 0.877220
Si Si2 0.456024 0.567636 0.177684
Si Si3 0.734646 0.620590 0.086054
Si Si4 0.383159 0.265432 0.209287
Si Si5 0.255062 0.439628 0.401299
O O1 0.495536 0.881594 0.773418
O O2 0.366436 0.836641 0.901295
O O3 0.523230 0.822305 0.922045
O O4 0.539499 0.000000 0.911258
O O5 0.493739 0.493739 0.149521
O O6 0.503496 0.659548 0.109665
O O7 0.336905 0.498748 0.179759
O O8 0.685325 0.685325 0.113758
O O9 0.834164 0.662066 0.144056
O O10 0.758586 0.632442 0.982552
O O11 0.319229 0.319229 0.202019
O O12 0.379041 0.231533 0.310408
#
# Coordination Sequence:
#
# PCOD8326672 Si02
#       5
#    12  12  12  12  12
#     4  10  20  37  57  81 116 156 199 245 294 358
#     4   8  17  35  54  76 108 147 185 234 284 336
#     4  11  22  37  57  83 116 152 196 247 293 345
#     4  10  21  39  59  81 113 153 198 242 293 355
#     4  11  22  36  57  85 119 158 200 248 305 350
#
# _framework density 18.742151
#
# number of rings (size 3 to 8) (size 9 to 14) (size 15 to 20)
#    0.000    2.000    2.000    3.400    2.800    0.800 
#    1.200    0.000    0.000    0.400    0.000    0.000 
#    0.000    0.000    0.000    0.000    0.000    0.000 
#
# Total GULP energy -743709.607317 kJ/mol
# GULP energy per Si atom -12395.160122 kJ/mol
# Density = 1.869949 g / cm^3
# Si number density = 18.742151 Si / 1000 Ang^3
#
#
#
# Elastic Constant Matrix: (Units=GPa)
#
#
# Indices 1 2 3 4 5 6 
#
# 1 91.0824 43.0716 33.4177 0.0000 0.0000 0.0000
# 2 43.0716 91.0824 33.4177 0.0000 0.0000 0.0000
# 3 33.4177 33.4177 109.7176 0.0000 0.0000 0.0000
# 4 0.0000 0.0000 0.0000 19.4079 0.0000 0.0000
# 5 0.0000 0.0000 0.0000 0.0000 19.4079 0.0000
# 6 0.0000 0.0000 0.0000 0.0000 0.0000 24.0054
#
#
#
# Elastic Compliance Matrix: (Units=1/GPa)
#
#
# Indices 1 2 3 4 5 6 
#
# 1 0.014808 -0.006021 -0.002677 0.000000 0.000000 0.000000
# 2 -0.006021 0.014808 -0.002677 0.000000 0.000000 0.000000
# 3 -0.002677 -0.002677 0.010745 0.000000 0.000000 0.000000
# 4 0.000000 0.000000 0.000000 0.051525 0.000000 0.000000
# 5 0.000000 0.000000 0.000000 0.000000 0.051525 0.000000
# 6 0.000000 0.000000 0.000000 0.000000 0.000000 0.041657
#
#
# Mechanical properties :
#
#
# Convention : Reuss Voigt Hill
#
# Bulk Modulus (GPa) = 56.77364 56.85515 56.81439
# Shear Modulus (GPa) = 23.39867 24.69594 24.04731
#
# Velocity S-wave (km/s) = 3.53718 3.63391 3.58587
# Velocity P-wave (km/s) = 6.85856 6.92881 6.89377
#
# Compressibility (1/GPa) = 0.01761381
#
# Stress axis : x y z
#
# Youngs Moduli (GPa) = 67.53061 67.53061 93.06898
#
# Poissons Ratio (x) = 0.40657 0.24910
# Poissons Ratio (y) = 0.40657 0.24910
# Poissons Ratio (z) = 0.18075 0.18075
#
# Static dielectric constant tensor:
#      x y z
#    x 3.302950 0.000000 0.000000 
#    y 0.000000 3.302950 0.000000 
#    z 0.000000 0.000000 3.512780 
# 
# 
# High freq. dielectric constant tensor:
#      x y z
#    x 1.704900 0.000000 0.000000 
#    y 0.000000 1.704900 0.000000 
#    z 0.000000 0.000000 1.735430 
# 
# From -- ./inp_files/1339.got.cif
#   From: 2010.03.12/outbox.cif.g09.slc.cpg/sg185_cif.got.tgz:1339.got - 2010.04.01 11:55:19.
