data_PCOD8326292
_publ_section_title
;
Structure prediction by ZEFSAII (Michael W. Deem and Ramdas Pophale) SiO2 
 PCOD8326292
Probable space group: P 64 2 2
;
_chemical_formula_sum "Si O2"
_cell_formula_units_Z 57
_cell_length_a 16.985391
_cell_length_b 16.985391
_cell_length_c 15.920948
_cell_angle_alpha 90.000000
_cell_angle_beta 90.000000
_cell_angle_gamma 120.000000
_cell_volume 3977.870614
_symmetry_space_group_name_H-M "P 64 2 2"
_symmetry_group_IT_number 181
_symmetry_cell_setting 'hexagonal'
loop_
_space_group_symop_operation_xyz
x,y,z
x-y,x,2/3+z
-y,x-y,1/3+z
-x,-y,z
-x+y,-x,2/3+z
y,-x+y,1/3+z
x-y,-y,-z
-x,-x+y,2/3-z
y,x,1/3-z
-y,-x,1/3-z
-x+y,y,-z
x,x-y,2/3-z
loop_
_atom_site_type_symbol
_atom_site_label
_atom_site_fract_x
_atom_site_fract_y
_atom_site_fract_z
Si Si1 0.361854 0.833710 0.388975
Si Si2 0.695061 0.193031 0.836531
Si Si3 0.265916 0.734085 0.666667
Si Si4 0.500000 0.000000 0.500000
Si Si5 0.164103 0.499846 0.529934
Si Si6 0.409099 0.404020 0.573992
O O1 0.269431 0.770679 0.438167
O O2 0.410475 0.773178 0.380779
O O3 0.341698 0.854723 0.295905
O O4 0.417768 0.930428 0.438532
O O5 0.729009 0.199455 0.740510
O O6 0.601192 0.195232 0.835938
O O7 0.676540 0.096996 0.869205
O O8 0.238916 0.477832 0.500000
O O9 0.075870 0.419136 0.486258
O O10 0.500000 0.500000 0.579081
O O11 0.369671 0.369671 0.666667
#
# Coordination Sequence:
#
# PCOD8326292 Si02
#       6
#    12  12   6   3  12  12
#     4  11  21  32  47  64  93 121 164 203 243 294
#     4  10  18  30  44  61  83 118 152 191 236 285
#     4  10  18  30  46  60  81 120 158 189 230 282
#     4  12  24  32  44  72  98 128 162 212 260 296
#     4  10  20  30  48  66  87 116 157 202 243 288
#     4   9  18  29  43  62  83 108 145 192 235 275
#
# _framework density 14.329274
#
# number of rings (size 3 to 8) (size 9 to 14) (size 15 to 20)
#    0.000    1.895    2.105    3.789    7.368    3.368 
#    0.000    0.000    0.000    0.000    0.000    0.000 
#    0.000    0.000    0.000    0.947    0.000   14.526 
#
# Total GULP energy -706208.552924 kJ/mol
# GULP energy per Si atom -12389.623736 kJ/mol
# Density = 1.429666 g / cm^3
# Si number density = 14.329274 Si / 1000 Ang^3
#
#
#
# Elastic Constant Matrix: (Units=GPa)
#
#
# Indices 1 2 3 4 5 6 
#
# 1 78.8372 44.5047 57.5803 0.0000 0.0000 0.0000
# 2 44.5047 78.8372 57.5803 0.0000 0.0000 0.0000
# 3 57.5803 57.5803 139.0215 0.0000 0.0000 0.0000
# 4 0.0000 0.0000 0.0000 25.3492 0.0000 0.0000
# 5 0.0000 0.0000 0.0000 0.0000 25.3492 0.0000
# 6 0.0000 0.0000 0.0000 0.0000 0.0000 17.1663
#
#
#
# Elastic Compliance Matrix: (Units=1/GPa)
#
#
# Indices 1 2 3 4 5 6 
#
# 1 0.021173 -0.007954 -0.005475 0.000000 0.000000 0.000000
# 2 -0.007954 0.021173 -0.005475 0.000000 0.000000 0.000000
# 3 -0.005475 -0.005475 0.011729 0.000000 0.000000 0.000000
# 4 0.000000 0.000000 0.000000 0.039449 0.000000 0.000000
# 5 0.000000 0.000000 0.000000 0.000000 0.039449 0.000000
# 6 0.000000 0.000000 0.000000 0.000000 0.000000 0.058254
#
#
# Mechanical properties :
#
#
# Convention : Reuss Voigt Hill
#
# Bulk Modulus (GPa) = 61.47529 68.44738 64.96134
# Shear Modulus (GPa) = 21.32576 22.70830 22.01703
#
# Velocity S-wave (km/s) = 3.86199 3.98521 3.92408
# Velocity P-wave (km/s) = 7.92979 8.30946 8.12184
#
# Compressibility (1/GPa) = 0.01626670
#
# Stress axis : x y z
#
# Youngs Moduli (GPa) = 47.22922 47.22922 85.26049
#
# Poissons Ratio (x) = 0.37564 0.46684
# Poissons Ratio (y) = 0.37564 0.46684
# Poissons Ratio (z) = 0.25860 0.25860
#
# Static dielectric constant tensor:
#      x y z
#    x 2.642120 0.000000 0.000000 
#    y 0.000000 2.642120 0.000000 
#    z 0.000000 0.000000 2.869790 
# 
# 
# High freq. dielectric constant tensor:
#      x y z
#    x 1.513080 0.000000 0.000000 
#    y 0.000000 1.513080 0.000000 
#    z 0.000000 0.000000 1.580690 
# 
# From -- ./inp_files/7612.got.cif
#   From: 2010.03.12/outbox.cif.g09.slc.cpg/sg181_4_cif.got.tgz:7612.got - 2010.04.01 11:42:41.
