data_PCOD8326290
_publ_section_title
;
Structure prediction by ZEFSAII (Michael W. Deem and Ramdas Pophale) SiO2 
 PCOD8326290
Probable space group: P 64 2 2
;
_chemical_formula_sum "Si O2"
_cell_formula_units_Z 75
_cell_length_a 18.578461
_cell_length_b 18.578461
_cell_length_c 14.376521
_cell_angle_alpha 90.000000
_cell_angle_beta 90.000000
_cell_angle_gamma 120.000000
_cell_volume 4297.381452
_symmetry_space_group_name_H-M "P 64 2 2"
_symmetry_group_IT_number 181
_symmetry_cell_setting 'hexagonal'
loop_
_space_group_symop_operation_xyz
x,y,z
x-y,x,2/3+z
-y,x-y,1/3+z
-x,-y,z
-x+y,-x,2/3+z
y,-x+y,1/3+z
x-y,-y,-z
-x,-x+y,2/3-z
y,x,1/3-z
-y,-x,1/3-z
-x+y,y,-z
x,x-y,2/3-z
loop_
_atom_site_type_symbol
_atom_site_label
_atom_site_fract_x
_atom_site_fract_y
_atom_site_fract_z
Si Si1 0.536922 0.814446 0.743257
Si Si2 0.000000 0.000000 0.333334
Si Si3 0.875935 0.050332 0.412725
Si Si4 0.575504 0.481747 0.531046
Si Si5 0.293783 0.051260 0.093194
Si Si6 0.799127 0.723909 0.429724
Si Si7 0.524764 0.682625 0.626847
O O1 0.516977 0.758489 0.833334
O O2 0.501445 0.876771 0.765117
O O3 0.634767 0.861590 0.719315
O O4 0.495040 0.748605 0.657952
O O5 0.944363 0.022727 0.399000
O O6 0.916429 0.146014 0.438441
O O7 0.822143 0.031448 0.318682
O O8 0.818093 0.000000 0.500000
O O9 0.500000 0.500000 0.521564
O O10 0.541690 0.385214 0.556573
O O11 0.636771 0.536808 0.615158
O O12 0.388812 0.123010 0.093952
O O13 0.280930 0.993196 0.181562
O O14 0.273826 0.000000 0.000000
O O15 0.877239 0.754477 0.500000
#
# Coordination Sequence:
#
# PCOD8326290 Si02
#       7
#    12   3  12  12  12  12  12
#     4   9  17  30  48  76 113 138 171 207 274 357
#     4  12  22  40  48  70  98 146 214 260 274 316
#     4  12  24  36  50  70 102 148 198 251 291 317
#     4  10  18  28  49  85 117 141 171 221 277 345
#     4  12  19  33  53  73 102 150 187 234 290 330
#     4  11  19  33  51  75 101 147 191 229 286 339
#     4  10  18  30  49  79 116 140 169 220 292 351
#
# _framework density 17.452487999999999
#
# number of rings (size 3 to 8) (size 9 to 14) (size 15 to 20)
#    0.000    1.280    4.000    6.000    0.000    0.000 
#    0.000    0.000    0.000    0.000    0.000   33.600 
#    0.000    1.760    0.000    0.000    0.000    0.000 
#
# Total GULP energy -929626.087769 kJ/mol
# GULP energy per Si atom -12395.014504 kJ/mol
# Density = 1.741277 g / cm^3
# Si number density = 17.452488 Si / 1000 Ang^3
#
#
#
# Elastic Constant Matrix: (Units=GPa)
#
#
# Indices 1 2 3 4 5 6 
#
# 1 82.1058 32.8180 36.4866 0.0000 0.0000 0.0000
# 2 32.8180 82.1058 36.4866 0.0000 0.0000 0.0000
# 3 36.4866 36.4866 77.5991 0.0000 0.0000 0.0000
# 4 0.0000 0.0000 0.0000 -107.2477 0.0000 0.0000
# 5 0.0000 0.0000 0.0000 0.0000 -107.2477 0.0000
# 6 0.0000 0.0000 0.0000 0.0000 0.0000 24.6439
#
#
#
# Elastic Compliance Matrix: (Units=1/GPa)
#
#
# Indices 1 2 3 4 5 6 
#
# 1 0.016347 -0.003942 -0.005833 0.000000 0.000000 0.000000
# 2 -0.003942 0.016347 -0.005833 0.000000 0.000000 0.000000
# 3 -0.005833 -0.005833 0.018372 0.000000 0.000000 0.000000
# 4 0.000000 0.000000 0.000000 -0.009324 0.000000 0.000000
# 5 0.000000 0.000000 0.000000 0.000000 -0.009324 0.000000
# 6 0.000000 0.000000 0.000000 0.000000 0.000000 0.040578
#
#
# Mechanical properties :
#
#
# Convention : Reuss Voigt Hill
#
# Bulk Modulus (GPa) = 50.37574 50.37700 50.37637
# Shear Modulus (GPa) = 45.11519 -28.90235 8.10642
#
# Velocity S-wave (km/s) = 5.08983 -4.07389 2.15753
# Velocity P-wave (km/s) = 7.96675 2.60752 5.92740
#
# Compressibility (1/GPa) = 0.01985082
#
# Stress axis : x y z
#
# Youngs Moduli (GPa) = 61.17321 61.17321 54.43119
#
# Poissons Ratio (x) = 0.24114 0.31749
# Poissons Ratio (y) = 0.24114 0.31749
# Poissons Ratio (z) = 0.35681 0.35681
#
# Static dielectric constant tensor:
#      x y z
#    x 10.883670 0.000000 0.000000 
#    y 0.000000 10.883670 0.000000 
#    z 0.000000 0.000000 3.087810 
# 
# 
# High freq. dielectric constant tensor:
#      x y z
#    x 1.666560 0.000000 0.000000 
#    y 0.000000 1.666560 0.000000 
#    z 0.000000 0.000000 1.636210 
# 
# From -- ./inp_files/6421.got.cif
#   From: 2010.03.12/outbox.cif.g09.slc.cpg/sg181_4_cif.got.tgz:6421.got - 2010.04.01 11:42:41.
