data_PCOD8326390
_publ_section_title
;
Structure prediction by ZEFSAII (Michael W. Deem and Ramdas Pophale) SiO2 
 PCOD8326390
Probable space group: P 64 2 2
;
_chemical_formula_sum "Si O2"
_cell_formula_units_Z 66
_cell_length_a 19.950374
_cell_length_b 19.950374
_cell_length_c 9.071997
_cell_angle_alpha 90.000000
_cell_angle_beta 90.000000
_cell_angle_gamma 120.000000
_cell_volume 3127.055669
_symmetry_space_group_name_H-M "P 64 2 2"
_symmetry_group_IT_number 181
_symmetry_cell_setting 'hexagonal'
loop_
_space_group_symop_operation_xyz
x,y,z
x-y,x,2/3+z
-y,x-y,1/3+z
-x,-y,z
-x+y,-x,2/3+z
y,-x+y,1/3+z
x-y,-y,-z
-x,-x+y,2/3-z
y,x,1/3-z
-y,-x,1/3-z
-x+y,y,-z
x,x-y,2/3-z
loop_
_atom_site_type_symbol
_atom_site_label
_atom_site_fract_x
_atom_site_fract_y
_atom_site_fract_z
Si Si1 0.508143 0.685874 0.912929
Si Si2 0.561505 0.203835 0.362819
Si Si3 0.615003 0.916861 0.008420
Si Si4 0.388221 0.168761 0.497575
Si Si5 0.592711 0.043877 0.724167
Si Si6 0.328681 0.328681 0.166667
O O1 0.490296 0.745148 0.833334
O O2 0.573260 0.679082 0.817778
O O3 0.425542 0.606601 0.906665
O O4 0.535156 0.713867 0.083059
O O5 0.617785 0.235569 0.500000
O O6 0.540890 0.270445 0.333334
O O7 0.483851 0.120444 0.381321
O O8 0.640579 0.857406 0.070153
O O9 0.556290 0.928456 0.113851
O O10 0.693748 0.000000 0.000000
O O11 0.408851 0.204426 0.333334
O O12 0.321821 0.077845 0.490676
O O13 0.619468 0.988570 0.645848
O O14 0.500000 0.000000 0.723308
#
# Coordination Sequence:
#
# PCOD8326390 Si02
#       6
#    12  12  12  12  12   6
#     4  10  24  43  61  90 131 173 225 285 343 404
#     4  12  27  40  62  88 128 174 234 287 346 405
#     4  11  24  43  68  96 133 176 220 283 350 407
#     4  11  23  42  72  96 131 172 224 278 340 406
#     4  12  25  41  66  95 131 176 233 288 350 415
#     4  12  23  40  68  98 130 175 222 286 332 410
#
# _framework density 21.106116
#
# number of rings (size 3 to 8) (size 9 to 14) (size 15 to 20)
#    0.000    0.727    1.818    6.273    7.636    2.545 
#    0.000    0.000    0.000    0.000    0.000    0.000 
#    0.000    2.182    0.000    0.000    0.000    0.000 
#
# Total GULP energy -817870.253593 kJ/mol
# GULP energy per Si atom -12391.973539 kJ/mol
# Density = 2.105808 g / cm^3
# Si number density = 21.106116 Si / 1000 Ang^3
#
#
#
# Elastic Constant Matrix: (Units=GPa)
#
#
# Indices 1 2 3 4 5 6 
#
# 1 128.5341 65.3260 37.3308 0.0000 0.0000 0.0000
# 2 65.3260 128.5341 37.3308 0.0000 0.0000 0.0000
# 3 37.3308 37.3308 120.8665 0.0000 0.0000 0.0000
# 4 0.0000 0.0000 0.0000 26.6985 0.0000 0.0000
# 5 0.0000 0.0000 0.0000 0.0000 26.6985 0.0000
# 6 0.0000 0.0000 0.0000 0.0000 0.0000 31.6040
#
#
#
# Elastic Compliance Matrix: (Units=1/GPa)
#
#
# Indices 1 2 3 4 5 6 
#
# 1 0.010838 -0.004983 -0.001808 0.000000 0.000000 0.000000
# 2 -0.004983 0.010838 -0.001808 0.000000 0.000000 0.000000
# 3 -0.001808 -0.001808 0.009391 0.000000 0.000000 0.000000
# 4 0.000000 0.000000 0.000000 0.037455 0.000000 0.000000
# 5 0.000000 0.000000 0.000000 0.000000 0.037455 0.000000
# 6 0.000000 0.000000 0.000000 0.000000 0.000000 0.031642
#
#
# Mechanical properties :
#
#
# Convention : Reuss Voigt Hill
#
# Bulk Modulus (GPa) = 72.11380 73.10109 72.60745
# Shear Modulus (GPa) = 31.35979 32.86334 32.11157
#
# Velocity S-wave (km/s) = 3.85881 3.95023 3.90479
# Velocity P-wave (km/s) = 7.35495 7.45091 7.40308
#
# Compressibility (1/GPa) = 0.01386697
#
# Stress axis : x y z
#
# Youngs Moduli (GPa) = 92.26982 92.26982 106.48924
#
# Poissons Ratio (x) = 0.45978 0.19257
# Poissons Ratio (y) = 0.45978 0.19257
# Poissons Ratio (z) = 0.16685 0.16685
#
# Static dielectric constant tensor:
#      x y z
#    x 3.942920 0.000000 0.000000 
#    y 0.000000 3.942920 0.000000 
#    z 0.000000 0.000000 4.216190 
# 
# 
# High freq. dielectric constant tensor:
#      x y z
#    x 1.812850 0.000000 0.000000 
#    y 0.000000 1.812850 0.000000 
#    z 0.000000 0.000000 1.855530 
# 
# From -- ./inp_files/3200.got.cif
#   From: 2010.03.12/outbox.cif.g09.slc.cpg/sg181_2_cif.got.tgz:3200.got - 2010.04.01 11:42:41.
