data_PCOD8326041
_publ_section_title
;
Structure prediction by ZEFSAII (Michael W. Deem and Ramdas Pophale) SiO2 
 PCOD8326041
Probable space group: P 65 2 2
;
_chemical_formula_sum "Si O2"
_cell_formula_units_Z 54
_cell_length_a 16.207337
_cell_length_b 16.207337
_cell_length_c 11.115629
_cell_angle_alpha 90.000000
_cell_angle_beta 90.000000
_cell_angle_gamma 120.000000
_cell_volume 2528.645800
_symmetry_space_group_name_H-M "P 65 2 2"
_symmetry_group_IT_number 179
_symmetry_cell_setting 'hexagonal'
loop_
_space_group_symop_operation_xyz
x,y,z
x-y,x,5/6+z
-y,x-y,2/3+z
-x,-y,1/2+z
-x+y,-x,1/3+z
y,-x+y,1/6+z
x-y,-y,-z
-x,-x+y,1/3-z
y,x,2/3-z
-y,-x,1/6-z
-x+y,y,1/2-z
x,x-y,5/6-z
loop_
_atom_site_type_symbol
_atom_site_label
_atom_site_fract_x
_atom_site_fract_y
_atom_site_fract_z
Si Si1 0.397174 0.000000 0.000000
Si Si2 0.326100 0.530345 0.858211
Si Si3 0.170327 0.085164 0.916667
Si Si4 0.610319 0.819572 0.124364
Si Si5 0.268969 0.731032 0.583334
Si Si6 0.281277 0.004675 0.775658
O O1 0.401832 0.903709 0.016602
O O2 0.344016 0.994607 0.877293
O O3 0.280852 0.561704 0.750000
O O4 0.390037 0.619604 0.945042
O O5 0.238744 0.440807 0.922362
O O6 0.101572 0.101572 0.833334
O O7 0.234500 0.062270 0.830868
O O8 0.660130 0.932270 0.159133
O O9 0.689329 0.794156 0.072153
O O10 0.527656 0.790952 0.027405
#
# Coordination Sequence:
#
# PCOD8326041 Si02
#       6
#     6  12   6  12   6  12
#     4  10  20  36  68 104 122 152 220 292 344 394
#     4  11  21  41  68  95 125 168 226 292 342 399
#     4  12  20  36  67 102 132 166 215 276 332 400
#     4  11  24  41  65  98 131 179 218 282 345 421
#     4  12  28  44  57  86 140 186 229 270 350 410
#     4  11  20  38  68  98 129 163 218 279 344 399
#
# _framework density 21.355304
#
# number of rings (size 3 to 8) (size 9 to 14) (size 15 to 20)
#    0.000    0.889    5.556    3.333    0.000    2.667 
#    0.000    3.333    0.000    0.000    0.000    0.000 
#    0.000    0.000    0.000    0.000    0.000    0.000 
#
# Total GULP energy -669186.332617 kJ/mol
# GULP energy per Si atom -12392.339493 kJ/mol
# Density = 2.130670 g / cm^3
# Si number density = 21.355304 Si / 1000 Ang^3
#
#
#
# Elastic Constant Matrix: (Units=GPa)
#
#
# Indices 1 2 3 4 5 6 
#
# 1 107.8502 42.4483 26.1634 0.0000 0.0000 0.0000
# 2 42.4483 107.8502 26.1634 0.0000 0.0000 0.0000
# 3 26.1634 26.1634 68.2536 0.0000 0.0000 0.0000
# 4 0.0000 0.0000 0.0000 39.0256 0.0000 0.0000
# 5 0.0000 0.0000 0.0000 0.0000 39.0256 0.0000
# 6 0.0000 0.0000 0.0000 0.0000 0.0000 32.7010
#
#
#
# Elastic Compliance Matrix: (Units=1/GPa)
#
#
# Indices 1 2 3 4 5 6 
#
# 1 0.011484 -0.003806 -0.002943 0.000000 0.000000 0.000000
# 2 -0.003806 0.011484 -0.002943 0.000000 0.000000 0.000000
# 3 -0.002943 -0.002943 0.016908 0.000000 0.000000 0.000000
# 4 0.000000 0.000000 0.000000 0.025624 0.000000 0.000000
# 5 0.000000 0.000000 0.000000 0.000000 0.025624 0.000000
# 6 0.000000 0.000000 0.000000 0.000000 0.000000 0.030580
#
#
# Mechanical properties :
#
#
# Convention : Reuss Voigt Hill
#
# Bulk Modulus (GPa) = 48.80190 52.61159 50.70675
# Shear Modulus (GPa) = 33.80215 34.76237 34.28226
#
# Velocity S-wave (km/s) = 3.98282 4.03899 4.01100
# Velocity P-wave (km/s) = 6.63720 6.81477 6.72657
#
# Compressibility (1/GPa) = 0.02049101
#
# Stress axis : x y z
#
# Youngs Moduli (GPa) = 87.07697 87.07697 59.14477
#
# Poissons Ratio (x) = 0.33141 0.17408
# Poissons Ratio (y) = 0.33141 0.17408
# Poissons Ratio (z) = 0.25629 0.25629
#
# Static dielectric constant tensor:
#      x y z
#    x 4.019610 0.000000 0.000000 
#    y 0.000000 4.019610 0.000000 
#    z 0.000000 0.000000 3.639820 
# 
# 
# High freq. dielectric constant tensor:
#      x y z
#    x 1.842210 0.000000 0.000000 
#    y 0.000000 1.842210 0.000000 
#    z 0.000000 0.000000 1.818390 
# 
# From -- ./inp_files/4583.got.cif
#   From: 2010.03.12/outbox.cif.g09.slc.cpg/sg179_3_cif.got.tgz:4583.got - 2010.04.02 07:08:42.
