data_PCOD8326779
_publ_section_title
;
Structure prediction by ZEFSAII (Michael W. Deem and Ramdas Pophale) SiO2 
 PCOD8326779
Probable space group: P 63 M C
;
_chemical_formula_sum "Si O2"
_cell_formula_units_Z 72
_cell_length_a 20.961341
_cell_length_b 20.961341
_cell_length_c 9.721475
_cell_angle_alpha 90.000000
_cell_angle_beta 90.000000
_cell_angle_gamma 120.000000
_cell_volume 3699.141307
_symmetry_space_group_name_H-M "P 63 M C"
_symmetry_group_IT_number 186
_symmetry_cell_setting 'hexagonal'
loop_
_space_group_symop_operation_xyz
x,y,z
x-y,x,1/2+z
-y,x-y,z
-x,-y,1/2+z
-x+y,-x,z
y,-x+y,1/2+z
-x+y,y,z
x,x-y,z
-y,-x,z
y,x,1/2+z
x-y,-y,1/2+z
-x,-x+y,1/2+z
loop_
_atom_site_type_symbol
_atom_site_label
_atom_site_fract_x
_atom_site_fract_y
_atom_site_fract_z
Si Si1 0.937791 0.544736 0.571650
Si Si2 0.390119 0.928589 0.381240
Si Si3 0.719239 0.587951 0.349907
Si Si4 0.815263 0.482282 0.100335
Si Si5 0.800950 0.750646 0.303448
Si Si6 0.000608 0.150960 0.060320
O O1 0.925783 0.462892 0.571078
O O2 0.937152 0.572578 0.728076
O O3 0.873028 0.545927 0.485307
O O4 0.011262 0.603413 0.491336
O O5 0.470234 0.940468 0.359910
O O6 0.335047 0.849282 0.449388
O O7 0.796084 0.592168 0.370031
O O8 0.677400 0.541672 0.215060
O O9 0.730244 0.670401 0.333759
O O10 0.731420 0.462839 0.101054
O O11 0.818670 0.409335 0.133618
O O12 0.868328 0.736655 0.287207
O O13 0.792700 0.787438 0.165117
O O14 0.816624 0.812109 0.415858
O O15 0.072512 0.145024 0.092501
O O16 0.930919 0.069082 0.066751
#
# Coordination Sequence:
#
# PCOD8326779 Si02
#       6
#    12  12  12  12  12  12
#     4  10  19  34  56  80 106 139 184 233 278 327
#     4   9  19  33  52  79 107 136 173 222 276 328
#     4  10  21  36  53  75 108 147 185 226 276 335
#     4  10  20  36  58  84 113 145 184 230 282 339
#     4   9  20  35  49  72 106 140 173 216 268 323
#     4  10  19  34  56  80 106 137 179 227 278 332
#
# _framework density 19.463978000000001
#
# number of rings (size 3 to 8) (size 9 to 14) (size 15 to 20)
#    0.000    2.333    0.000    2.333    0.000    6.000 
#    0.000    1.667    0.000    7.333    0.000    0.000 
#    0.000    0.000    0.000    0.000    0.000    0.000 
#
# Total GULP energy -892371.907488 kJ/mol
# GULP energy per Si atom -12394.054271 kJ/mol
# Density = 1.941968 g / cm^3
# Si number density = 19.463978 Si / 1000 Ang^3
#
#
#
# Elastic Constant Matrix: (Units=GPa)
#
#
# Indices 1 2 3 4 5 6 
#
# 1 42.7381 73.2067 46.1249 0.0000 0.0000 0.0000
# 2 73.2067 42.7381 46.1249 0.0000 0.0000 0.0000
# 3 46.1249 46.1249 104.3370 0.0000 0.0000 0.0000
# 4 0.0000 0.0000 0.0000 21.4960 0.0000 0.0000
# 5 0.0000 0.0000 0.0000 0.0000 21.4960 0.0000
# 6 0.0000 0.0000 0.0000 0.0000 0.0000 -15.2343
#
#
#
# Elastic Compliance Matrix: (Units=1/GPa)
#
#
# Indices 1 2 3 4 5 6 
#
# 1 -0.009758 0.023062 -0.005882 0.000000 0.000000 0.000000
# 2 0.023062 -0.009758 -0.005882 0.000000 0.000000 0.000000
# 3 -0.005882 -0.005882 0.014784 0.000000 0.000000 0.000000
# 4 0.000000 0.000000 0.000000 0.046520 0.000000 0.000000
# 5 0.000000 0.000000 0.000000 0.000000 0.046520 0.000000
# 6 0.000000 0.000000 0.000000 0.000000 0.000000 -0.065641
#
#
# Mechanical properties :
#
#
# Convention : Reuss Voigt Hill
#
# Bulk Modulus (GPa) = 55.96889 57.85844 56.91366
# Shear Modulus (GPa) = 829.96474 7.17532 418.57003
#
# Velocity S-wave (km/s) = 20.67212 1.92210 14.68044
# Velocity P-wave (km/s) = 24.46629 5.89206 17.79488
#
# Compressibility (1/GPa) = 0.01786707
#
# Stress axis : x y z
#
# Youngs Moduli (GPa) = -102.47858 -102.47858 67.63843
#
# Poissons Ratio (x) = 2.36341 0.39782
# Poissons Ratio (y) = 2.36341 0.39782
# Poissons Ratio (z) = -0.60273 -0.60273
#
# Static dielectric constant tensor:
#      x y z
#    x 3.505940 0.000000 0.000000 
#    y 0.000000 3.505940 0.000000 
#    z 0.000000 0.000000 3.752420 
# 
# 
# High freq. dielectric constant tensor:
#      x y z
#    x 1.750170 0.000000 0.000000 
#    y 0.000000 1.750170 0.000000 
#    z 0.000000 0.000000 1.767850 
# 
# From -- ./inp_files/1208.got.cif
#   From: 2010.03.12/outbox.cif.g09.slc.cpg/sg186_1_cif.got.tgz:1208.got - 2010.04.01 11:56:34.
