data_PCOD8326872
_publ_section_title
;
Structure prediction by ZEFSAII (Michael W. Deem and Ramdas Pophale) SiO2 
 PCOD8326872
Probable space group: P -6 M 2
;
_chemical_formula_sum "Si O2"
_cell_formula_units_Z 96
_cell_length_a 17.653739
_cell_length_b 17.653739
_cell_length_c 20.176524
_cell_angle_alpha 90.000000
_cell_angle_beta 90.000000
_cell_angle_gamma 120.000000
_cell_volume 5445.658250
_symmetry_space_group_name_H-M "P -6 M 2"
_symmetry_group_IT_number 187
_symmetry_cell_setting 'hexagonal'
loop_
_space_group_symop_operation_xyz
x,y,z
-x+y,-x,-z
-y,x-y,z
x,y,-z
-x+y,-x,z
-y,x-y,-z
-y,-x,-z
-x+y,y,-z
x,x-y,-z
-x+y,y,z
x,x-y,z
-y,-x,z
loop_
_atom_site_type_symbol
_atom_site_label
_atom_site_fract_x
_atom_site_fract_y
_atom_site_fract_z
Si Si1 0.698310 0.135276 0.795761
Si Si2 0.966406 0.200823 0.791885
Si Si3 0.607967 0.563701 0.926718
Si Si4 0.331019 0.486746 0.249714
Si Si5 0.640986 0.737568 0.873089
Si Si6 0.169095 0.998750 0.647749
Si Si7 0.427542 0.021111 0.318726
Si Si8 0.345361 0.085937 0.575427
O O1 0.758930 0.241071 0.787379
O O2 0.757708 0.093830 0.778825
O O3 0.663795 0.116077 0.871272
O O4 0.619609 0.088194 0.743684
O O5 0.901001 0.099000 0.815120
O O6 0.012311 0.206627 0.722274
O O7 0.041112 0.259705 0.844528
O O8 0.505575 0.494426 0.915916
O O9 0.623533 0.661868 0.924739
O O10 0.638273 0.551576 0.000000
O O11 0.247995 0.495989 0.274219
O O12 0.417063 0.582938 0.242068
O O13 0.308158 0.435327 0.180900
O O14 0.349001 0.425016 0.299152
O O15 0.634404 0.817202 0.907202
O O16 0.136213 0.068107 0.648384
O O17 0.245327 0.025214 0.595234
O O18 0.092642 0.907359 0.621827
O O19 0.504170 0.008339 0.347760
O O20 0.403898 0.064972 0.377348
O O21 0.357951 0.065675 0.500000
O O22 0.374700 0.187350 0.584952
#
# Coordination Sequence:
#
# PCOD8326872 Si02
#       8
#    12  12  12  12  12  12  12  12
#     4  10  18  32  54  77 100 128 165 206 252 308
#     4   9  16  27  46  71 100 133 165 207 260 306
#     4  10  20  34  51  73 105 141 174 212 259 310
#     4  10  19  31  49  75 107 141 175 216 263 309
#     4  10  18  29  48  73 102 137 179 223 260 302
#     4  10  18  29  46  71 103 137 171 205 244 292
#     4  11  20  33  56  81 104 129 167 215 258 302
#     4  10  21  37  54  73 101 136 169 203 252 309
#
# _framework density 17.628723000000001
#
# number of rings (size 3 to 8) (size 9 to 14) (size 15 to 20)
#    0.000    2.000    3.750    1.750    0.000    2.500 
#    0.000    0.000    0.000    5.750    0.000    0.000 
#    0.000    1.000    0.000    0.750    0.000    0.000 
#
# Total GULP energy -1189540.808883 kJ/mol
# GULP energy per Si atom -12391.050093 kJ/mol
# Density = 1.758860 g / cm^3
# Si number density = 17.628723 Si / 1000 Ang^3
#
#
#
# Elastic Constant Matrix: (Units=GPa)
#
#
# Indices 1 2 3 4 5 6 
#
# 1 74.3700 39.8808 38.7646 0.0000 0.0027 0.0000
# 2 39.8808 74.3700 38.7646 0.0000 -0.0027 0.0000
# 3 38.7646 38.7646 88.1178 0.0000 0.0000 0.0000
# 4 0.0000 0.0000 0.0000 2.6288 0.0000 -0.0027
# 5 0.0027 -0.0027 0.0000 0.0000 2.6288 0.0000
# 6 0.0000 0.0000 0.0000 -0.0027 0.0000 17.2446
#
#
#
# Elastic Compliance Matrix: (Units=1/GPa)
#
#
# Indices 1 2 3 4 5 6 
#
# 1 0.020736 -0.008259 -0.005489 0.000000 -0.000029 0.000000
# 2 -0.008259 0.020736 -0.005489 0.000000 0.000029 0.000000
# 3 -0.005489 -0.005489 0.016178 0.000000 0.000000 0.000000
# 4 0.000000 0.000000 0.000000 0.380407 0.000000 0.000059
# 5 -0.000029 0.000029 0.000000 0.000000 0.380407 0.000000
# 6 0.000000 0.000000 0.000000 0.000059 0.000000 0.057989
#
#
# Mechanical properties :
#
#
# Convention : Reuss Voigt Hill
#
# Bulk Modulus (GPa) = 52.14683 52.40865 52.27774
# Shear Modulus (GPa) = 5.42700 12.46360 8.94530
#
# Velocity S-wave (km/s) = 1.75647 2.66184 2.25506
# Velocity P-wave (km/s) = 5.81020 6.26425 6.04149
#
# Compressibility (1/GPa) = 0.01917662
#
# Stress axis : x y z
#
# Youngs Moduli (GPa) = 48.22516 48.22516 61.81266
#
# Poissons Ratio (x) = 0.39827 0.33929
# Poissons Ratio (y) = 0.39827 0.33929
# Poissons Ratio (z) = 0.26471 0.26471
#
# Static dielectric constant tensor:
#      x y z
#    x 3.457580 0.000000 0.000000 
#    y 0.000000 3.457580 0.000000 
#    z 0.000000 0.000000 3.055720 
# 
# 
# High freq. dielectric constant tensor:
#      x y z
#    x 1.680880 0.000000 0.000000 
#    y 0.000000 1.680880 0.000000 
#    z 0.000000 0.000000 1.655020 
# 
# From -- ./inp_files/3806.got.cif
#   From: 2010.03.12/outbox.cif.g09.slc.cpg/sg187_2_cif.got.tgz:3806.got - 2010.04.01 11:58:23.
