data_PCOD8326774
_publ_section_title
;
Structure prediction by ZEFSAII (Michael W. Deem and Ramdas Pophale) SiO2 
 PCOD8326774
Probable space group: P 63 M C
;
_chemical_formula_sum "Si O2"
_cell_formula_units_Z 58
_cell_length_a 14.954189
_cell_length_b 14.954189
_cell_length_c 15.718716
_cell_angle_alpha 90.000000
_cell_angle_beta 90.000000
_cell_angle_gamma 120.000000
_cell_volume 3044.201737
_symmetry_space_group_name_H-M "P 63 M C"
_symmetry_group_IT_number 186
_symmetry_cell_setting 'hexagonal'
loop_
_space_group_symop_operation_xyz
x,y,z
x-y,x,1/2+z
-y,x-y,z
-x,-y,1/2+z
-x+y,-x,z
y,-x+y,1/2+z
-x+y,y,z
x,x-y,z
-y,-x,z
y,x,1/2+z
x-y,-y,1/2+z
-x,-x+y,1/2+z
loop_
_atom_site_type_symbol
_atom_site_label
_atom_site_fract_x
_atom_site_fract_y
_atom_site_fract_z
Si Si1 0.963020 0.481510 0.505080
Si Si2 0.100871 0.550436 0.351838
Si Si3 0.666668 0.333335 0.073335
Si Si4 0.064319 0.338948 0.999799
Si Si5 0.333334 0.666668 0.374097
Si Si6 0.272056 0.939297 0.330767
Si Si7 0.934605 0.661304 0.173302
Si Si8 0.444997 0.889993 0.652974
O O1 0.897200 0.538662 0.486477
O O2 0.068757 0.534379 0.450404
O O3 0.004272 0.502136 0.599931
O O4 0.220885 0.610443 0.336662
O O5 0.058853 0.438182 0.310653
O O6 0.607889 0.392112 0.101734
O O7 0.666667 0.333334 0.973765
O O8 0.161654 0.323308 0.008563
O O9 0.996595 0.301815 0.084885
O O10 0.996718 0.275299 0.918510
O O11 0.176542 0.823459 0.336340
O O12 0.261057 0.998766 0.249483
O O13 0.836845 0.673689 0.157501
O O14 0.896743 0.542620 0.203176
#
# Coordination Sequence:
#
# PCOD8326774 Si02
#       8
#     6   6   2  12   2  12  12   6
#     4   8  18  32  54  84 110 146 186 224 276 334
#     4  10  19  32  53  85 118 151 179 229 279 338
#     4  12  18  27  57  90 129 145 185 235 297 327
#     4  10  21  39  60  83 113 148 190 233 285 341
#     4  12  18  27  57  90 129 145 185 235 297 327
#     4  11  22  37  59  84 115 149 190 234 286 341
#     4  11  22  37  59  84 115 149 190 234 286 341
#     4  10  19  32  53  85 118 151 179 229 279 338
#
# _framework density 19.052613999999998
#
# number of rings (size 3 to 8) (size 9 to 14) (size 15 to 20)
#    0.000    1.655    3.103    2.483    0.000    0.000 
#    0.621    0.000    0.000   12.414    0.000    0.000 
#    0.000    0.000    0.000    0.000    0.000    0.000 
#
# Total GULP energy -718590.366626 kJ/mol
# GULP energy per Si atom -12389.489080 kJ/mol
# Density = 1.900925 g / cm^3
# Si number density = 19.052614 Si / 1000 Ang^3
#
#
#
# Elastic Constant Matrix: (Units=GPa)
#
#
# Indices 1 2 3 4 5 6 
#
# 1 113.8890 45.2905 35.8910 0.0000 0.0000 -0.0010
# 2 45.2905 113.8893 35.8910 0.0000 0.0000 0.0009
# 3 35.8910 35.8910 112.0424 0.0000 0.0000 0.0001
# 4 0.0000 0.0000 0.0000 24.2764 0.0001 0.0000
# 5 0.0000 0.0000 0.0000 0.0001 24.2766 0.0000
# 6 -0.0010 0.0009 0.0001 0.0000 0.0000 34.2977
#
#
#
# Elastic Compliance Matrix: (Units=1/GPa)
#
#
# Indices 1 2 3 4 5 6 
#
# 1 0.010960 -0.003617 -0.002352 0.000000 0.000000 0.000000
# 2 -0.003617 0.010960 -0.002352 0.000000 0.000000 0.000000
# 3 -0.002352 -0.002352 0.010432 0.000000 0.000000 0.000000
# 4 0.000000 0.000000 0.000000 0.041192 0.000000 0.000000
# 5 0.000000 0.000000 0.000000 0.000000 0.041192 0.000000
# 6 0.000000 0.000000 0.000000 0.000000 0.000000 0.029156
#
#
# Mechanical properties :
#
#
# Convention : Reuss Voigt Hill
#
# Bulk Modulus (GPa) = 63.65669 63.77395 63.71532
# Shear Modulus (GPa) = 30.16170 31.42002 30.79086
#
# Velocity S-wave (km/s) = 3.98310 4.06534 4.02443
# Velocity P-wave (km/s) = 7.39169 7.45528 7.42355
#
# Compressibility (1/GPa) = 0.01570927
#
# Stress axis : x y z
#
# Youngs Moduli (GPa) = 91.23875 91.23905 95.85738
#
# Poissons Ratio (x) = 0.33004 0.22548
# Poissons Ratio (y) = 0.33004 0.22547
# Poissons Ratio (z) = 0.21461 0.21461
#
# Static dielectric constant tensor:
#      x y z
#    x 3.423990 0.000000 0.000000 
#    y 0.000000 3.423990 0.000000 
#    z 0.000000 0.000000 3.364270 
# 
# 
# High freq. dielectric constant tensor:
#      x y z
#    x 1.733460 0.000000 0.000000 
#    y 0.000000 1.733460 0.000000 
#    z 0.000000 0.000000 1.737470 
# 
# From -- ./inp_files/2404.got.cif
#   From: 2010.03.12/outbox.cif.g09.slc.cpg/sg186_2_cif.got.tgz:2404.got - 2010.04.01 11:56:34.
