data_PCOD8326114
_publ_section_title
;
Structure prediction by ZEFSAII (Michael W. Deem and Ramdas Pophale) SiO2 
 PCOD8326114
Probable space group: P 65 2 2
;
_chemical_formula_sum "Si O2"
_cell_formula_units_Z 48
_cell_length_a 17.355500
_cell_length_b 17.355500
_cell_length_c 8.348009
_cell_angle_alpha 90.000000
_cell_angle_beta 90.000000
_cell_angle_gamma 120.000000
_cell_volume 2177.648599
_symmetry_space_group_name_H-M "P 65 2 2"
_symmetry_group_IT_number 179
_symmetry_cell_setting 'hexagonal'
loop_
_space_group_symop_operation_xyz
x,y,z
x-y,x,5/6+z
-y,x-y,2/3+z
-x,-y,1/2+z
-x+y,-x,1/3+z
y,-x+y,1/6+z
x-y,-y,-z
-x,-x+y,1/3-z
y,x,2/3-z
-y,-x,1/6-z
-x+y,y,1/2-z
x,x-y,5/6-z
loop_
_atom_site_type_symbol
_atom_site_label
_atom_site_fract_x
_atom_site_fract_y
_atom_site_fract_z
Si Si1 0.703664 0.654062 0.085510
Si Si2 0.873964 0.358963 0.686359
Si Si3 0.553725 0.000000 0.000000
Si Si4 0.308333 0.616665 0.750000
Si Si5 0.635399 0.784655 0.091181
O O1 0.675133 0.607953 0.258237
O O2 0.705075 0.748178 0.084326
O O3 0.629482 0.583873 0.965518
O O4 0.801858 0.674019 0.036161
O O5 0.928195 0.460373 0.746754
O O6 0.797320 0.351114 0.569983
O O7 0.835480 0.294432 0.841386
O O8 0.328636 0.671365 0.583334
O O9 0.615757 0.807879 0.916667
#
# Coordination Sequence:
#
# PCOD8326114 Si02
#       5
#    12  12   6   6  12
#     4  12  24  46  70 104 142 188 245 307 375 458
#     4  12  26  45  67 100 145 191 244 304 374 445
#     4  12  24  42  74  96 140 186 248 292 374 450
#     4  12  28  48  66  98 150 200 252 314 372 446
#     4  12  24  44  71 104 138 187 244 314 371 454
#
# _framework density 22.042123
#
# number of rings (size 3 to 8) (size 9 to 14) (size 15 to 20)
#    0.000    0.000    7.500    2.250    0.000    3.000 
#    0.000    0.000    0.000    0.000    0.000   21.000 
#    0.000    0.000    0.000    0.000    0.000    0.000 
#
# Total GULP energy -595077.020020 kJ/mol
# GULP energy per Si atom -12397.437917 kJ/mol
# Density = 2.199195 g / cm^3
# Si number density = 22.042123 Si / 1000 Ang^3
#
#
#
# Elastic Constant Matrix: (Units=GPa)
#
#
# Indices 1 2 3 4 5 6 
#
# 1 141.8406 56.6329 36.0146 0.0000 0.0000 0.0000
# 2 56.6329 141.8406 36.0146 0.0000 0.0000 0.0000
# 3 36.0146 36.0146 101.2842 0.0000 0.0000 0.0000
# 4 0.0000 0.0000 0.0000 36.6631 0.0000 0.0000
# 5 0.0000 0.0000 0.0000 0.0000 36.6631 0.0000
# 6 0.0000 0.0000 0.0000 0.0000 0.0000 42.6038
#
#
#
# Elastic Compliance Matrix: (Units=1/GPa)
#
#
# Indices 1 2 3 4 5 6 
#
# 1 0.008761 -0.002976 -0.002057 0.000000 0.000000 0.000000
# 2 -0.002976 0.008761 -0.002057 0.000000 0.000000 0.000000
# 3 -0.002057 -0.002057 0.011336 0.000000 0.000000 0.000000
# 4 0.000000 0.000000 0.000000 0.027275 0.000000 0.000000
# 5 0.000000 0.000000 0.000000 0.000000 0.027275 0.000000
# 6 0.000000 0.000000 0.000000 0.000000 0.000000 0.023472
#
#
# Mechanical properties :
#
#
# Convention : Reuss Voigt Hill
#
# Bulk Modulus (GPa) = 68.12941 71.36554 69.74747
# Shear Modulus (GPa) = 39.69775 40.27289 39.98532
#
# Velocity S-wave (km/s) = 4.24842 4.27908 4.26378
# Velocity P-wave (km/s) = 7.41898 7.54064 7.48006
#
# Compressibility (1/GPa) = 0.01467795
#
# Stress axis : x y z
#
# Youngs Moduli (GPa) = 114.14867 114.14867 88.21394
#
# Poissons Ratio (x) = 0.33965 0.18146
# Poissons Ratio (y) = 0.33965 0.18146
# Poissons Ratio (z) = 0.23481 0.23481
#
# Static dielectric constant tensor:
#      x y z
#    x 4.072600 0.000000 0.000000 
#    y 0.000000 4.072600 0.000000 
#    z 0.000000 0.000000 4.262600 
# 
# 
# High freq. dielectric constant tensor:
#      x y z
#    x 1.855910 0.000000 0.000000 
#    y 0.000000 1.855910 0.000000 
#    z 0.000000 0.000000 1.885950 
# 
# From -- ./inp_files/2705.got.cif
#   From: 2010.03.12/outbox.cif.g09.slc.cpg/sg179_2_cif.got.tgz:2705.got - 2010.04.02 07:08:42.
