data_PCOD8326215
_publ_section_title
;
Structure prediction by ZEFSAII (Michael W. Deem and Ramdas Pophale) SiO2 
 PCOD8326215
Probable space group: P 62 2 2
;
_chemical_formula_sum "Si O2"
_cell_formula_units_Z 42
_cell_length_a 18.520750
_cell_length_b 18.520750
_cell_length_c 6.128765
_cell_angle_alpha 90.000000
_cell_angle_beta 90.000000
_cell_angle_gamma 120.000000
_cell_volume 1820.625997
_symmetry_space_group_name_H-M "P 62 2 2"
_symmetry_group_IT_number 180
_symmetry_cell_setting 'hexagonal'
loop_
_space_group_symop_operation_xyz
x,y,z
x-y,x,1/3+z
-y,x-y,2/3+z
-x,-y,z
-x+y,-x,1/3+z
y,-x+y,2/3+z
x-y,-y,-z
-x,-x+y,1/3-z
y,x,2/3-z
-y,-x,2/3-z
-x+y,y,-z
x,x-y,1/3-z
loop_
_atom_site_type_symbol
_atom_site_label
_atom_site_fract_x
_atom_site_fract_y
_atom_site_fract_z
Si Si1 0.121327 0.878674 0.333334
Si Si2 0.886466 0.886466 0.333334
Si Si3 0.854616 0.295424 0.946558
Si Si4 0.264801 0.735200 0.333334
Si Si5 0.404658 0.809315 0.000000
Si Si6 0.000000 0.699821 0.166667
O O1 0.076746 0.782275 0.271252
O O2 0.072992 0.878768 0.549887
O O3 0.960081 0.920162 0.500000
O O4 0.795448 0.204553 0.833334
O O5 0.862318 0.369072 0.788881
O O6 0.817214 0.292144 0.186543
O O7 0.951685 0.321236 0.979606
O O8 0.340450 0.750330 0.180383
#
# Coordination Sequence:
#
# PCOD8326215 Si02
#       6
#     6   6  12   6   6   6
#     4  12  27  43  73  99 142 192 248 305 363 436
#     4  12  24  45  64 100 136 185 248 310 364 425
#     4  10  24  44  71 107 146 189 241 300 363 437
#     4  10  21  43  72 111 149 187 241 286 358 430
#     4  10  22  43  74 110 147 188 234 299 357 433
#     4  12  26  50  70 100 144 192 240 298 368 440
#
# _framework density 23.068985999999999
#
# number of rings (size 3 to 8) (size 9 to 14) (size 15 to 20)
#    0.000    1.143    2.857    1.714    4.000   14.286 
#    0.000    4.286    0.000    3.429    0.000    0.000 
#    0.000    0.000    0.000    0.000    0.000    0.000 
#
# Total GULP energy -520470.822227 kJ/mol
# GULP energy per Si atom -12392.162434 kJ/mol
# Density = 2.301648 g / cm^3
# Si number density = 23.068986 Si / 1000 Ang^3
#
#
#
# Elastic Constant Matrix: (Units=GPa)
#
#
# Indices 1 2 3 4 5 6 
#
# 1 143.8169 76.3914 65.7489 0.0000 0.0000 0.0000
# 2 76.3914 143.8169 65.7489 0.0000 0.0000 0.0000
# 3 65.7489 65.7489 152.0710 0.0000 0.0000 0.0000
# 4 0.0000 0.0000 0.0000 31.1941 0.0000 0.0000
# 5 0.0000 0.0000 0.0000 0.0000 31.1941 0.0000
# 6 0.0000 0.0000 0.0000 0.0000 0.0000 33.7127
#
#
#
# Elastic Compliance Matrix: (Units=1/GPa)
#
#
# Indices 1 2 3 4 5 6 
#
# 1 0.010476 -0.004355 -0.002647 0.000000 0.000000 0.000000
# 2 -0.004355 0.010476 -0.002647 0.000000 0.000000 0.000000
# 3 -0.002647 -0.002647 0.008865 0.000000 0.000000 0.000000
# 4 0.000000 0.000000 0.000000 0.032057 0.000000 0.000000
# 5 0.000000 0.000000 0.000000 0.000000 0.032057 0.000000
# 6 0.000000 0.000000 0.000000 0.000000 0.000000 0.029662
#
#
# Mechanical properties :
#
#
# Convention : Reuss Voigt Hill
#
# Bulk Modulus (GPa) = 95.04885 95.05370 95.05127
# Shear Modulus (GPa) = 34.15349 34.67456 34.41403
#
# Velocity S-wave (km/s) = 3.85189 3.88117 3.86656
# Velocity P-wave (km/s) = 7.81500 7.83442 7.82472
#
# Compressibility (1/GPa) = 0.01052091
#
# Stress axis : x y z
#
# Youngs Moduli (GPa) = 95.45241 95.45241 112.80889
#
# Poissons Ratio (x) = 0.41567 0.29858
# Poissons Ratio (y) = 0.41567 0.29858
# Poissons Ratio (z) = 0.25264 0.25264
#
# Static dielectric constant tensor:
#      x y z
#    x 4.119900 0.000000 0.000000 
#    y 0.000000 4.119900 0.000000 
#    z 0.000000 0.000000 4.342520 
# 
# 
# High freq. dielectric constant tensor:
#      x y z
#    x 1.902540 0.000000 0.000000 
#    y 0.000000 1.902540 0.000000 
#    z 0.000000 0.000000 1.934060 
# 
# From -- ./inp_files/906.got.cif
#   From: 2010.03.12/outbox.cif.g09.slc.cpg/sg180_1_cif.got.tgz:906.got - 2010.04.01 11:35:50.
