data_PCOD8326789
_publ_section_title
;
Structure prediction by ZEFSAII (Michael W. Deem and Ramdas Pophale) SiO2 
 PCOD8326789
Probable space group: P 63 M C
;
_chemical_formula_sum "Si O2"
_cell_formula_units_Z 84
_cell_length_a 19.548362
_cell_length_b 19.548362
_cell_length_c 13.481459
_cell_angle_alpha 90.000000
_cell_angle_beta 90.000000
_cell_angle_gamma 120.000000
_cell_volume 4461.575766
_symmetry_space_group_name_H-M "P 63 M C"
_symmetry_group_IT_number 186
_symmetry_cell_setting 'hexagonal'
loop_
_space_group_symop_operation_xyz
x,y,z
x-y,x,1/2+z
-y,x-y,z
-x,-y,1/2+z
-x+y,-x,z
y,-x+y,1/2+z
-x+y,y,z
x,x-y,z
-y,-x,z
y,x,1/2+z
x-y,-y,1/2+z
-x,-x+y,1/2+z
loop_
_atom_site_type_symbol
_atom_site_label
_atom_site_fract_x
_atom_site_fract_y
_atom_site_fract_z
Si Si1 0.666686 0.174324 0.927860
Si Si2 0.943353 0.306213 0.232228
Si Si3 0.379409 0.470498 0.230164
Si Si4 0.307596 0.846281 0.024406
Si Si5 0.336495 0.821946 0.814231
Si Si6 0.071748 0.776223 0.933707
Si Si7 0.909787 0.660289 0.015590
O O1 0.583318 0.166636 0.963544
O O2 0.738179 0.261821 0.953860
O O3 0.665637 0.161306 0.809512
O O4 0.680052 0.106408 0.979987
O O5 0.885837 0.343109 0.234640
O O6 0.919452 0.243694 0.320602
O O7 0.932516 0.260294 0.130673
O O8 0.031450 0.378267 0.245521
O O9 0.474173 0.525828 0.247287
O O10 0.363209 0.487849 0.119292
O O11 0.245882 0.754119 0.039883
O O12 0.263102 0.895915 0.011526
O O13 0.358646 0.858489 0.925103
O O14 0.396350 0.792700 0.781063
O O15 0.247985 0.752016 0.812382
O O16 0.127382 0.872619 0.944800
O O17 0.979039 0.736605 0.958261
O O18 0.832476 0.664952 0.993708
#
# Coordination Sequence:
#
# PCOD8326789 Si02
#       7
#    12  12  12  12  12  12  12
#     4  10  22  38  56  80 116 160 204 245 288 338
#     4  11  21  37  54  82 112 145 182 233 290 337
#     4  11  20  31  52  81 113 148 192 242 286 336
#     4   9  18  33  52  75 107 142 183 232 282 332
#     4  10  20  34  51  73 103 144 190 236 285 340
#     4  10  20  38  60  83 111 144 182 227 286 343
#     4  11  22  39  60  86 117 149 191 237 285 346
#
# _framework density 18.827428000000001
#
# number of rings (size 3 to 8) (size 9 to 14) (size 15 to 20)
#    0.000    1.714    2.857    3.714    0.000    1.143 
#    0.000    0.714    0.000    6.571    0.000    0.000 
#    0.000    0.000    0.000    0.000    0.000    0.000 
#
# Total GULP energy -1041183.227043 kJ/mol
# GULP energy per Si atom -12395.038417 kJ/mol
# Density = 1.878458 g / cm^3
# Si number density = 18.827428 Si / 1000 Ang^3
#
#
#
# Elastic Constant Matrix: (Units=GPa)
#
#
# Indices 1 2 3 4 5 6 
#
# 1 89.6744 37.7053 19.6809 0.0000 0.0000 0.0000
# 2 37.7053 89.6744 19.6809 0.0000 0.0000 0.0000
# 3 19.6809 19.6809 73.5168 0.0000 0.0000 0.0000
# 4 0.0000 0.0000 0.0000 20.1428 0.0000 0.0000
# 5 0.0000 0.0000 0.0000 0.0000 20.1428 0.0000
# 6 0.0000 0.0000 0.0000 0.0000 0.0000 25.9846
#
#
#
# Elastic Compliance Matrix: (Units=1/GPa)
#
#
# Indices 1 2 3 4 5 6 
#
# 1 0.013900 -0.005342 -0.002291 0.000000 0.000000 0.000000
# 2 -0.005342 0.013900 -0.002291 0.000000 0.000000 0.000000
# 3 -0.002291 -0.002291 0.014829 0.000000 0.000000 0.000000
# 4 0.000000 0.000000 0.000000 0.049646 0.000000 0.000000
# 5 0.000000 0.000000 0.000000 0.000000 0.049646 0.000000
# 6 0.000000 0.000000 0.000000 0.000000 0.000000 0.038484
#
#
# Mechanical properties :
#
#
# Convention : Reuss Voigt Hill
#
# Bulk Modulus (GPa) = 43.89535 45.22218 44.55876
# Shear Modulus (GPa) = 24.05610 24.97393 24.51501
#
# Velocity S-wave (km/s) = 3.57839 3.64602 3.61236
# Velocity P-wave (km/s) = 6.35912 6.46499 6.41227
#
# Compressibility (1/GPa) = 0.02278146
#
# Stress axis : x y z
#
# Youngs Moduli (GPa) = 71.94052 71.94052 67.43517
#
# Poissons Ratio (x) = 0.38429 0.15451
# Poissons Ratio (y) = 0.38429 0.15451
# Poissons Ratio (z) = 0.16483 0.16483
#
# Static dielectric constant tensor:
#      x y z
#    x 3.345130 0.000000 0.000000 
#    y 0.000000 3.345130 0.000000 
#    z 0.000000 0.000000 3.458390 
# 
# 
# High freq. dielectric constant tensor:
#      x y z
#    x 1.712870 0.000000 0.000000 
#    y 0.000000 1.712870 0.000000 
#    z 0.000000 0.000000 1.735920 
# 
# From -- ./inp_files/1924.got.cif
#   From: 2010.03.12/outbox.cif.g09.slc.cpg/sg186_1_cif.got.tgz:1924.got - 2010.04.01 11:56:34.
