data_PCOD8326595
_publ_section_title
;
Structure prediction by ZEFSAII (Michael W. Deem and Ramdas Pophale) SiO2 
 PCOD8326595
Probable space group: P 6 C C
;
_chemical_formula_sum "Si O2"
_cell_formula_units_Z 56
_cell_length_a 13.501869
_cell_length_b 13.501869
_cell_length_c 17.157736
_cell_angle_alpha 90.000000
_cell_angle_beta 90.000000
_cell_angle_gamma 120.000000
_cell_volume 2708.809057
_symmetry_space_group_name_H-M "P 6 C C"
_symmetry_group_IT_number 184
_symmetry_cell_setting 'hexagonal'
loop_
_space_group_symop_operation_xyz
x,y,z
x-y,x,z
-y,x-y,z
-x,-y,z
-x+y,-x,z
y,-x+y,z
-x+y,y,1/2+z
x,x-y,1/2+z
-y,-x,1/2+z
y,x,1/2+z
x-y,-y,1/2+z
-x,-x+y,1/2+z
loop_
_atom_site_type_symbol
_atom_site_label
_atom_site_fract_x
_atom_site_fract_y
_atom_site_fract_z
Si Si1 0.021284 0.791092 0.865630
Si Si2 0.978717 0.769809 0.048868
Si Si3 0.333333 0.666667 0.364809
Si Si4 0.666668 0.333334 0.549689
Si Si5 0.629264 0.530920 0.795002
Si Si6 0.901656 0.370736 0.619496
O O1 0.042274 0.689031 0.843606
O O2 0.905425 0.778068 0.829788
O O3 0.000000 0.788281 0.957249
O O4 0.872643 0.778068 0.084710
O O5 0.957727 0.646757 0.070892
O O6 0.333334 0.666667 0.457249
O O7 0.434204 0.646372 0.335689
O O8 0.787833 0.353629 0.578808
O O9 0.500000 0.500000 0.793408
O O10 0.678539 0.548416 0.707249
O O11 0.000000 0.500000 0.621090
#
# Coordination Sequence:
#
# PCOD8326595 Si02
#       6
#    12  12   4   4  12  12
#     4  10  22  39  65  95 131 170 217 276 336 409
#     4  10  22  39  65  95 131 170 217 276 336 409
#     4  12  28  41  70 102 136 179 226 291 337 413
#     4  12  28  41  70 102 136 179 226 291 337 413
#     4  11  25  44  66  94 135 178 224 277 342 409
#     4  11  25  44  66  94 135 178 224 277 342 409
#
# _framework density 20.673290999999999
#
# number of rings (size 3 to 8) (size 9 to 14) (size 15 to 20)
#    0.000    1.286    0.000    4.286   12.000    6.857 
#    0.000    0.000    0.000    2.571    0.000    0.000 
#    0.000    0.000    0.000    0.000    0.000    0.000 
#
# Total GULP energy -694307.665499 kJ/mol
# GULP energy per Si atom -12398.351170 kJ/mol
# Density = 2.062624 g / cm^3
# Si number density = 20.673291 Si / 1000 Ang^3
#
#
#
# Elastic Constant Matrix: (Units=GPa)
#
#
# Indices 1 2 3 4 5 6 
#
# 1 99.4600 97.3521 37.9181 -0.0006 -0.0021 0.0053
# 2 97.3521 99.4621 37.9183 0.0005 0.0019 -0.0050
# 3 37.9181 37.9183 67.2523 0.0000 -0.0001 -0.0004
# 4 -0.0006 0.0005 0.0000 32.1130 -0.0001 -0.0020
# 5 -0.0021 0.0019 -0.0001 -0.0001 32.1135 0.0006
# 6 0.0053 -0.0050 -0.0004 -0.0020 0.0006 1.0361
#
#
#
# Elastic Compliance Matrix: (Units=1/GPa)
#
#
# Indices 1 2 3 4 5 6 
#
# 1 0.240338 -0.233844 -0.003661 0.000008 0.000029 -0.002364
# 2 -0.233844 0.240332 -0.003659 -0.000008 -0.000029 0.002360
# 3 -0.003661 -0.003659 0.018996 0.000000 0.000000 0.000009
# 4 0.000008 -0.000008 0.000000 0.031140 0.000000 0.000059
# 5 0.000029 -0.000029 0.000000 0.000000 0.031140 -0.000017
# 6 -0.002364 0.002360 0.000009 0.000059 -0.000017 0.965167
#
#
# Mechanical properties :
#
#
# Convention : Reuss Voigt Hill
#
# Bulk Modulus (GPa) = 57.67243 68.06128 62.86685
# Shear Modulus (GPa) = 2.48112 19.25158 10.86635
#
# Velocity S-wave (km/s) = 1.09671 3.05492 2.29513
# Velocity P-wave (km/s) = 5.43703 6.74071 6.12366
#
# Compressibility (1/GPa) = 0.01733931
#
# Stress axis : x y z
#
# Youngs Moduli (GPa) = 4.16081 4.16091 52.64157
#
# Poissons Ratio (x) = 0.97300 0.19271
# Poissons Ratio (y) = 0.97298 0.19261
# Poissons Ratio (z) = 0.01523 0.01522
#
# Static dielectric constant tensor:
#      x y z
#    x 4.709940 0.000120 0.000050 
#    y 0.000120 4.708980 -0.000050 
#    z 0.000050 -0.000050 3.851600 
# 
# 
# High freq. dielectric constant tensor:
#      x y z
#    x 1.828720 0.000000 0.000000 
#    y 0.000000 1.828720 0.000000 
#    z 0.000000 0.000000 1.804520 
# 
# From -- ./inp_files/841.got.cif
#   From: 2010.03.12/outbox.cif.g09.slc.cpg/sg184_cif.got.tgz:841.got - 2010.04.01 11:54:36.
