data_PCOD8326255
_publ_section_title
;
Structure prediction by ZEFSAII (Michael W. Deem and Ramdas Pophale) SiO2 
 PCOD8326255
Probable space group: P 62 2 2
;
_chemical_formula_sum "Si O2"
_cell_formula_units_Z 48
_cell_length_a 16.210192
_cell_length_b 16.210192
_cell_length_c 10.244705
_cell_angle_alpha 90.000000
_cell_angle_beta 90.000000
_cell_angle_gamma 120.000000
_cell_volume 2331.344249
_symmetry_space_group_name_H-M "P 62 2 2"
_symmetry_group_IT_number 180
_symmetry_cell_setting 'hexagonal'
loop_
_space_group_symop_operation_xyz
x,y,z
x-y,x,1/3+z
-y,x-y,2/3+z
-x,-y,z
-x+y,-x,1/3+z
y,-x+y,2/3+z
x-y,-y,-z
-x,-x+y,1/3-z
y,x,2/3-z
-y,-x,2/3-z
-x+y,y,-z
x,x-y,1/3-z
loop_
_atom_site_type_symbol
_atom_site_label
_atom_site_fract_x
_atom_site_fract_y
_atom_site_fract_z
Si Si1 0.938223 0.692863 0.041586
Si Si2 0.824714 0.361687 0.794849
Si Si3 0.935831 0.253665 0.791397
Si Si4 0.895611 0.486626 0.041878
O O1 0.890024 0.581150 0.071294
O O2 0.000000 0.754264 0.166667
O O3 0.861499 0.722997 0.000000
O O4 0.002386 0.709785 0.918523
O O5 0.729734 0.270267 0.833334
O O6 0.808006 0.404003 0.666667
O O7 0.903093 0.330848 0.765141
O O8 0.848257 0.439482 0.906228
O O9 0.850738 0.149263 0.833334
O O10 0.000000 0.255204 0.666667
O O11 0.840072 0.420036 0.166667
O O12 0.000000 0.500000 0.039820
#
# Coordination Sequence:
#
# PCOD8326255 Si02
#       4
#    12  12  12  12
#     4  12  24  41  67  98 128 174 223 275 335 400
#     4  11  25  40  62  94 132 177 221 270 324 384
#     4  11  23  41  64  92 125 164 216 270 324 390
#     4  11  21  41  66  92 135 174 222 275 327 389
#
# _framework density 20.588981
#
# number of rings (size 3 to 8) (size 9 to 14) (size 15 to 20)
#    0.000    0.750    5.000    3.000    0.000    8.000 
#    0.000    0.000    0.000    7.500    0.000    0.000 
#    0.000    0.000    0.000    0.000    0.000    0.000 
#
# Total GULP energy -594971.478708 kJ/mol
# GULP energy per Si atom -12395.239140 kJ/mol
# Density = 2.054212 g / cm^3
# Si number density = 20.588981 Si / 1000 Ang^3
#
#
#
# Elastic Constant Matrix: (Units=GPa)
#
#
# Indices 1 2 3 4 5 6 
#
# 1 62.5340 33.4394 21.4749 0.0000 0.0000 0.0000
# 2 33.4394 62.5340 21.4749 0.0000 0.0000 0.0000
# 3 21.4749 21.4749 145.5218 0.0000 0.0000 0.0000
# 4 0.0000 0.0000 0.0000 89.0988 0.0000 0.0000
# 5 0.0000 0.0000 0.0000 0.0000 89.0988 0.0000
# 6 0.0000 0.0000 0.0000 0.0000 0.0000 14.5473
#
#
#
# Elastic Compliance Matrix: (Units=1/GPa)
#
#
# Indices 1 2 3 4 5 6 
#
# 1 0.022763 -0.011607 -0.001646 0.000000 0.000000 0.000000
# 2 -0.011607 0.022763 -0.001646 0.000000 0.000000 0.000000
# 3 -0.001646 -0.001646 0.007358 0.000000 0.000000 0.000000
# 4 0.000000 0.000000 0.000000 0.011223 0.000000 0.000000
# 5 0.000000 0.000000 0.000000 0.000000 0.011223 0.000000
# 6 0.000000 0.000000 0.000000 0.000000 0.000000 0.068741
#
#
# Mechanical properties :
#
#
# Convention : Reuss Voigt Hill
#
# Bulk Modulus (GPa) = 43.31825 47.04091 45.17958
# Shear Modulus (GPa) = 27.53793 51.49567 39.51680
#
# Velocity S-wave (km/s) = 3.66116 5.00655 4.38575
# Velocity P-wave (km/s) = 6.24158 7.50453 6.90200
#
# Compressibility (1/GPa) = 0.02308496
#
# Stress axis : x y z
#
# Youngs Moduli (GPa) = 43.92999 43.92999 135.91136
#
# Poissons Ratio (x) = 0.50990 0.22376
# Poissons Ratio (y) = 0.50990 0.22376
# Poissons Ratio (z) = 0.07232 0.07232
#
# Static dielectric constant tensor:
#      x y z
#    x 3.494500 0.000000 0.000000 
#    y 0.000000 3.494500 0.000000 
#    z 0.000000 0.000000 8.800610 
# 
# 
# High freq. dielectric constant tensor:
#      x y z
#    x 1.796700 0.000000 0.000000 
#    y 0.000000 1.796700 0.000000 
#    z 0.000000 0.000000 1.835270 
# 
# From -- ./inp_files/2608.got.cif
#   From: 2010.03.12/outbox.cif.g09.slc.cpg/sg180_2_cif.got.tgz:2608.got - 2010.04.01 11:35:50.
