data_PCOD8326431
_publ_section_title
;
Structure prediction by ZEFSAII (Michael W. Deem and Ramdas Pophale) SiO2 
 PCOD8326431
Probable space group: P 64 2 2
;
_chemical_formula_sum "Si O2"
_cell_formula_units_Z 42
_cell_length_a 7.899193
_cell_length_b 7.899193
_cell_length_c 34.338940
_cell_angle_alpha 90.000000
_cell_angle_beta 90.000000
_cell_angle_gamma 120.000000
_cell_volume 1855.594030
_symmetry_space_group_name_H-M "P 64 2 2"
_symmetry_group_IT_number 181
_symmetry_cell_setting 'hexagonal'
loop_
_space_group_symop_operation_xyz
x,y,z
x-y,x,2/3+z
-y,x-y,1/3+z
-x,-y,z
-x+y,-x,2/3+z
y,-x+y,1/3+z
x-y,-y,-z
-x,-x+y,2/3-z
y,x,1/3-z
-y,-x,1/3-z
-x+y,y,-z
x,x-y,2/3-z
loop_
_atom_site_type_symbol
_atom_site_label
_atom_site_fract_x
_atom_site_fract_y
_atom_site_fract_z
Si Si1 0.126590 0.891901 0.622614
Si Si2 0.433528 0.200521 0.569435
Si Si3 0.500000 0.500000 0.166667
Si Si4 0.500000 0.000000 0.000000
Si Si5 0.238369 0.807339 0.070070
O O1 0.158590 0.841411 0.666667
O O2 0.997595 0.686328 0.598753
O O3 0.331566 0.019980 0.600046
O O4 0.000000 0.000000 0.622300
O O5 0.660816 0.344531 0.582188
O O6 0.315375 0.317448 0.568772
O O7 0.438707 0.128270 0.526322
O O8 0.563625 0.873198 0.974145
#
# Coordination Sequence:
#
# PCOD8326431 Si02
#       5
#    12  12   3   3  12
#     4   9  15  29  59  92 117 139 179 243 305 363
#     4   9  20  35  54  76 113 149 195 236 294 349
#     4  12  24  44  50  64 114 170 188 254 292 340
#     4   8  12  24  58  88 120 136 160 232 296 352
#     4   9  16  33  56  93 106 144 188 236 293 368
#
# _framework density 22.634259
#
# number of rings (size 3 to 8) (size 9 to 14) (size 15 to 20)
#    0.000    3.143    0.000    5.143    0.000    0.000 
#   10.286    5.000   18.857    0.000    0.000    0.000 
#    0.000    0.000    0.000    0.000    0.000    0.000 
#
# Total GULP energy -520415.665966 kJ/mol
# GULP energy per Si atom -12390.849190 kJ/mol
# Density = 2.258274 g / cm^3
# Si number density = 22.634259 Si / 1000 Ang^3
#
#
#
# Elastic Constant Matrix: (Units=GPa)
#
#
# Indices 1 2 3 4 5 6 
#
# 1 111.0644 45.7071 54.5090 0.0000 0.0000 0.0000
# 2 45.7071 111.0644 54.5090 0.0000 0.0000 0.0000
# 3 54.5090 54.5090 165.9441 0.0000 0.0000 0.0000
# 4 0.0000 0.0000 0.0000 25.7273 0.0000 0.0000
# 5 0.0000 0.0000 0.0000 0.0000 25.7273 0.0000
# 6 0.0000 0.0000 0.0000 0.0000 0.0000 32.6787
#
#
#
# Elastic Compliance Matrix: (Units=1/GPa)
#
#
# Indices 1 2 3 4 5 6 
#
# 1 0.011784 -0.003517 -0.002716 0.000000 0.000000 0.000000
# 2 -0.003517 0.011784 -0.002716 0.000000 0.000000 0.000000
# 3 -0.002716 -0.002716 0.007810 0.000000 0.000000 0.000000
# 4 0.000000 0.000000 0.000000 0.038869 0.000000 0.000000
# 5 0.000000 0.000000 0.000000 0.000000 0.038869 0.000000
# 6 0.000000 0.000000 0.000000 0.000000 0.000000 0.030601
#
#
# Mechanical properties :
#
#
# Convention : Reuss Voigt Hill
#
# Bulk Modulus (GPa) = 74.17250 77.50255 75.83753
# Shear Modulus (GPa) = 30.84386 32.38317 31.61352
#
# Velocity S-wave (km/s) = 3.69549 3.78658 3.74131
# Velocity P-wave (km/s) = 7.14493 7.30980 7.22784
#
# Compressibility (1/GPa) = 0.01348209
#
# Stress axis : x y z
#
# Youngs Moduli (GPa) = 84.86224 84.86224 128.03882
#
# Poissons Ratio (x) = 0.29844 0.34770
# Poissons Ratio (y) = 0.29844 0.34770
# Poissons Ratio (z) = 0.23045 0.23045
#
# Static dielectric constant tensor:
#      x y z
#    x 4.098790 0.000000 0.000000 
#    y 0.000000 4.098790 0.000000 
#    z 0.000000 0.000000 3.668780 
# 
# 
# High freq. dielectric constant tensor:
#      x y z
#    x 1.890580 0.000000 0.000000 
#    y 0.000000 1.890580 0.000000 
#    z 0.000000 0.000000 1.854620 
# 
# From -- ./inp_files/12012.got.cif
#   From: 2010.03.12/outbox.cif.g09.slc.cpg/sg181_7_cif.got.tgz:12012.got - 2010.04.01 11:42:41.
