data_PCOD8326830
_publ_section_title
;
Structure prediction by ZEFSAII (Michael W. Deem and Ramdas Pophale) SiO2 
 PCOD8326830
Probable space group: P -6 M 2
;
_chemical_formula_sum "Si O2"
_cell_formula_units_Z 54
_cell_length_a 16.356405
_cell_length_b 16.356405
_cell_length_c 16.296568
_cell_angle_alpha 90.000000
_cell_angle_beta 90.000000
_cell_angle_gamma 120.000000
_cell_volume 3775.743609
_symmetry_space_group_name_H-M "P -6 M 2"
_symmetry_group_IT_number 187
_symmetry_cell_setting 'hexagonal'
loop_
_space_group_symop_operation_xyz
x,y,z
-x+y,-x,-z
-y,x-y,z
x,y,-z
-x+y,-x,z
-y,x-y,-z
-y,-x,-z
-x+y,y,-z
x,x-y,-z
-x+y,y,z
x,x-y,z
-y,-x,z
loop_
_atom_site_type_symbol
_atom_site_label
_atom_site_fract_x
_atom_site_fract_y
_atom_site_fract_z
Si Si1 0.857131 0.521829 0.329589
Si Si2 0.379006 0.285893 0.165330
Si Si3 0.759631 0.713070 0.589988
Si Si4 0.665615 0.526866 0.000000
Si Si5 0.189180 0.191764 0.753091
O O1 0.751231 0.502462 0.336801
O O2 0.858357 0.429179 0.358111
O O3 0.894743 0.547622 0.236357
O O4 0.928425 0.606950 0.388283
O O5 0.373037 0.186519 0.160465
O O6 0.415834 0.339282 0.078894
O O7 0.273390 0.264171 0.186923
O O8 0.738769 0.741426 0.500000
O O9 0.856931 0.713862 0.588882
O O10 0.767728 0.786346 0.659873
O O11 0.577906 0.422095 0.000000
O O12 0.759007 0.518014 0.000000
O O13 0.094060 0.188120 0.782102
O O14 0.174733 0.087367 0.757806
#
# Coordination Sequence:
#
# PCOD8326830 Si02
#       5
#    12  12  12   6  12
#     4   9  15  23  35  51  73 103 137 164 185 216
#     4   8  16  27  37  53  78 103 124 157 202 229
#     4   8  15  26  36  49  73 100 124 158 203 234
#     4  10  17  26  41  60  82 108 138 162 179 206
#     4   9  16  27  42  57  73  97 130 162 192 229
#
# _framework density 14.301819
#
# number of rings (size 3 to 8) (size 9 to 14) (size 15 to 20)
#    0.000    3.333    0.000    3.889    0.000    0.889 
#    0.000    2.778    0.000    2.667    0.000    1.556 
#    0.000    0.000    0.000   93.333    0.000   57.778 
#
# Total GULP energy -669125.116814 kJ/mol
# GULP energy per Si atom -12391.205867 kJ/mol
# Density = 1.426927 g / cm^3
# Si number density = 14.301819 Si / 1000 Ang^3
#
#
#
# Elastic Constant Matrix: (Units=GPa)
#
#
# Indices 1 2 3 4 5 6 
#
# 1 58.4538 16.9801 13.3528 0.0000 0.0000 0.0000
# 2 16.9801 58.4538 13.3528 0.0000 0.0000 0.0000
# 3 13.3528 13.3528 80.3939 0.0000 0.0000 0.0000
# 4 0.0000 0.0000 0.0000 11.2213 0.0000 0.0000
# 5 0.0000 0.0000 0.0000 0.0000 11.2213 0.0000
# 6 0.0000 0.0000 0.0000 0.0000 0.0000 20.7369
#
#
#
# Elastic Compliance Matrix: (Units=1/GPa)
#
#
# Indices 1 2 3 4 5 6 
#
# 1 0.019098 -0.005013 -0.002339 0.000000 0.000000 0.000000
# 2 -0.005013 0.019098 -0.002339 0.000000 0.000000 0.000000
# 3 -0.002339 -0.002339 0.013216 0.000000 0.000000 0.000000
# 4 0.000000 0.000000 0.000000 0.089116 0.000000 0.000000
# 5 0.000000 0.000000 0.000000 0.000000 0.089116 0.000000
# 6 0.000000 0.000000 0.000000 0.000000 0.000000 0.048223
#
#
# Mechanical properties :
#
#
# Convention : Reuss Voigt Hill
#
# Bulk Modulus (GPa) = 31.22267 31.63032 31.42650
# Shear Modulus (GPa) = 16.23756 18.87696 17.55726
#
# Velocity S-wave (km/s) = 3.37315 3.63698 3.50755
# Velocity P-wave (km/s) = 6.08683 6.30882 6.19882
#
# Compressibility (1/GPa) = 0.03202801
#
# Stress axis : x y z
#
# Youngs Moduli (GPa) = 52.36082 52.36082 75.66662
#
# Poissons Ratio (x) = 0.26251 0.17701
# Poissons Ratio (y) = 0.26251 0.17701
# Poissons Ratio (z) = 0.12249 0.12249
#
# Static dielectric constant tensor:
#      x y z
#    x 2.533550 0.000000 0.000000 
#    y 0.000000 2.533550 0.000000 
#    z 0.000000 0.000000 3.324450 
# 
# 
# High freq. dielectric constant tensor:
#      x y z
#    x 1.514280 0.000000 0.000000 
#    y 0.000000 1.514280 0.000000 
#    z 0.000000 0.000000 1.553640 
# 
# From -- ./inp_files/2958.got.cif
#   From: 2010.03.12/outbox.cif.g09.slc.cpg/sg187_2_cif.got.tgz:2958.got - 2010.04.01 11:58:23.
