data_PCOD8326056
_publ_section_title
;
Structure prediction by ZEFSAII (Michael W. Deem and Ramdas Pophale) SiO2 
 PCOD8326056
Probable space group: P 65 2 2
;
_chemical_formula_sum "Si O2"
_cell_formula_units_Z 72
_cell_length_a 11.888893
_cell_length_b 11.888893
_cell_length_c 28.779726
_cell_angle_alpha 90.000000
_cell_angle_beta 90.000000
_cell_angle_gamma 120.000000
_cell_volume 3522.898441
_symmetry_space_group_name_H-M "P 65 2 2"
_symmetry_group_IT_number 179
_symmetry_cell_setting 'hexagonal'
loop_
_space_group_symop_operation_xyz
x,y,z
x-y,x,5/6+z
-y,x-y,2/3+z
-x,-y,1/2+z
-x+y,-x,1/3+z
y,-x+y,1/6+z
x-y,-y,-z
-x,-x+y,1/3-z
y,x,2/3-z
-y,-x,1/6-z
-x+y,y,1/2-z
x,x-y,5/6-z
loop_
_atom_site_type_symbol
_atom_site_label
_atom_site_fract_x
_atom_site_fract_y
_atom_site_fract_z
Si Si1 0.987727 0.329344 0.957276
Si Si2 0.605545 0.211089 0.250000
Si Si3 0.402455 0.540281 0.468225
Si Si4 0.409708 0.000107 0.948206
Si Si5 0.800136 0.507632 0.388291
Si Si6 0.128106 0.871895 0.083334
Si Si7 0.923713 0.917522 0.044570
O O1 0.866893 0.352720 0.951925
O O2 0.066573 0.381776 0.909800
O O3 0.946503 0.177760 0.959764
O O4 0.068609 0.405526 0.003066
O O5 0.724004 0.292462 0.284104
O O6 0.478770 0.528492 0.423988
O O7 0.495542 0.661623 0.501410
O O8 0.305773 0.854217 0.936902
O O9 0.345950 0.092834 0.948387
O O10 0.463663 0.000000 0.000000
O O11 0.748896 0.374448 0.416667
O O12 0.000391 0.836898 0.052100
O O13 0.969000 0.031001 0.083334
O O14 0.980563 0.000000 0.000000
#
# Coordination Sequence:
#
# PCOD8326056 Si02
#       7
#    12   6  12  12  12   6  12
#     4  11  24  44  72  98 138 187 232 288 350 419
#     4  12  25  46  72 102 135 178 242 278 344 430
#     4  11  26  42  69 104 135 187 232 290 341 423
#     4  12  23  41  64 102 142 174 225 290 351 401
#     4  10  21  41  67 102 130 177 229 277 341 409
#     4  10  21  34  70  98 135 178 216 298 342 404
#     4  10  23  41  67 103 135 177 228 290 349 422
#
# _framework density 20.437718
#
# number of rings (size 3 to 8) (size 9 to 14) (size 15 to 20)
#    0.500    0.667    4.167    3.000    7.000    1.333 
#    0.000    2.500    0.000    0.000    0.000    0.000 
#    0.000    0.000    0.000    0.000    0.000    0.000 
#
# Total GULP energy -892445.431423 kJ/mol
# GULP energy per Si atom -12395.075436 kJ/mol
# Density = 2.039120 g / cm^3
# Si number density = 20.437718 Si / 1000 Ang^3
#
#
#
# Elastic Constant Matrix: (Units=GPa)
#
#
# Indices 1 2 3 4 5 6 
#
# 1 80.7644 21.9165 40.6040 0.0000 0.0000 0.0000
# 2 21.9165 80.7644 40.6040 0.0000 0.0000 0.0000
# 3 40.6040 40.6040 146.2840 0.0000 0.0000 0.0000
# 4 0.0000 0.0000 0.0000 30.5254 0.0000 0.0000
# 5 0.0000 0.0000 0.0000 0.0000 30.5254 0.0000
# 6 0.0000 0.0000 0.0000 0.0000 0.0000 29.4240
#
#
#
# Elastic Compliance Matrix: (Units=1/GPa)
#
#
# Indices 1 2 3 4 5 6 
#
# 1 0.014736 -0.002257 -0.003464 0.000000 0.000000 0.000000
# 2 -0.002257 0.014736 -0.003464 0.000000 0.000000 0.000000
# 3 -0.003464 -0.003464 0.008759 0.000000 0.000000 0.000000
# 4 0.000000 0.000000 0.000000 0.032760 0.000000 0.000000
# 5 0.000000 0.000000 0.000000 0.000000 0.032760 0.000000
# 6 0.000000 0.000000 0.000000 0.000000 0.000000 0.033986
#
#
# Mechanical properties :
#
#
# Convention : Reuss Voigt Hill
#
# Bulk Modulus (GPa) = 50.35029 57.11798 53.73413
# Shear Modulus (GPa) = 30.72683 31.74086 31.23384
#
# Velocity S-wave (km/s) = 3.88162 3.94515 3.91352
# Velocity P-wave (km/s) = 6.69170 6.98286 6.83883
#
# Compressibility (1/GPa) = 0.01986086
#
# Stress axis : x y z
#
# Youngs Moduli (GPa) = 67.86305 67.86305 114.17119
#
# Poissons Ratio (x) = 0.15319 0.39544
# Poissons Ratio (y) = 0.15319 0.39544
# Poissons Ratio (z) = 0.23505 0.23505
#
# Static dielectric constant tensor:
#      x y z
#    x 3.883480 0.000000 0.000000 
#    y 0.000000 3.883480 0.000000 
#    z 0.000000 0.000000 3.800820 
# 
# 
# High freq. dielectric constant tensor:
#      x y z
#    x 1.792220 0.000000 0.000000 
#    y 0.000000 1.792220 0.000000 
#    z 0.000000 0.000000 1.806840 
# 
# From -- ./inp_files/9589.got.cif
#   From: 2010.03.12/outbox.cif.g09.slc.cpg/sg179_5_cif.got.tgz:9589.got - 2010.04.02 07:08:42.
