data_PCOD8326814
_publ_section_title
;
Structure prediction by ZEFSAII (Michael W. Deem and Ramdas Pophale) SiO2 
 PCOD8326814
Probable space group: P 63 M C
;
_chemical_formula_sum "Si O2"
_cell_formula_units_Z 34
_cell_length_a 10.871623
_cell_length_b 10.871623
_cell_length_c 18.817910
_cell_angle_alpha 90.000000
_cell_angle_beta 90.000000
_cell_angle_gamma 120.000000
_cell_volume 1926.153022
_symmetry_space_group_name_H-M "P 63 M C"
_symmetry_group_IT_number 186
_symmetry_cell_setting 'hexagonal'
loop_
_space_group_symop_operation_xyz
x,y,z
x-y,x,1/2+z
-y,x-y,z
-x,-y,1/2+z
-x+y,-x,z
y,-x+y,1/2+z
-x+y,y,z
x,x-y,z
-y,-x,z
y,x,1/2+z
x-y,-y,1/2+z
-x,-x+y,1/2+z
loop_
_atom_site_type_symbol
_atom_site_label
_atom_site_fract_x
_atom_site_fract_y
_atom_site_fract_z
Si Si1 0.666668 0.333334 0.880305
Si Si2 0.512437 0.487564 0.117286
Si Si3 0.333335 0.666668 0.550690
Si Si4 0.002449 0.291566 0.731222
Si Si5 0.422817 0.577184 0.979236
Si Si6 0.491896 0.983792 0.339295
O O1 0.591293 0.408708 0.844242
O O2 0.666667 0.333334 0.965409
O O3 0.588086 0.411915 0.080377
O O4 0.377827 0.375200 0.162218
O O5 0.453991 0.546010 0.057151
O O6 0.852961 0.147040 0.738285
O O7 0.034085 0.393885 0.799062
O O8 0.126342 0.252684 0.725545
O O9 0.495608 0.747804 0.970746
O O10 0.481481 0.518520 0.919285
#
# Coordination Sequence:
#
# PCOD8326814 Si02
#       6
#     2   6   2  12   6   6
#     4  12  21  39  66  87 117 157 200 253 294 354
#     4  11  22  39  60  89 117 159 200 245 298 362
#     4  12  21  39  66  87 117 157 200 253 294 354
#     4  11  23  38  60  86 123 159 202 244 300 355
#     4  10  22  38  60  88 116 150 192 246 304 348
#     4  11  22  39  60  89 117 159 200 245 298 362
#
# _framework density 17.651765999999999
#
# number of rings (size 3 to 8) (size 9 to 14) (size 15 to 20)
#    0.353    0.706    5.294    2.471    0.000    0.000 
#    2.118    0.000    0.000    0.000    0.000    0.000 
#    0.000    0.000    0.000    0.000    0.000    0.000 
#
# Total GULP energy -421551.151416 kJ/mol
# GULP energy per Si atom -12398.563277 kJ/mol
# Density = 1.761159 g / cm^3
# Si number density = 17.651766 Si / 1000 Ang^3
#
#
#
# Elastic Constant Matrix: (Units=GPa)
#
#
# Indices 1 2 3 4 5 6 
#
# 1 87.1255 26.9532 14.6157 0.0000 0.0000 0.0000
# 2 26.9532 87.1255 14.6153 0.0000 0.0000 0.0000
# 3 14.6157 14.6153 90.5368 0.0000 0.0000 0.0002
# 4 0.0000 0.0000 0.0000 27.8357 0.0000 0.0000
# 5 0.0000 0.0000 0.0000 0.0000 27.8357 0.0000
# 6 0.0000 0.0000 0.0002 0.0000 0.0000 30.0862
#
#
#
# Elastic Compliance Matrix: (Units=1/GPa)
#
#
# Indices 1 2 3 4 5 6 
#
# 1 0.012882 -0.003737 -0.001476 0.000000 0.000000 0.000000
# 2 -0.003737 0.012882 -0.001476 0.000000 0.000000 0.000000
# 3 -0.001476 -0.001476 0.011522 0.000000 0.000000 0.000000
# 4 0.000000 0.000000 0.000000 0.035925 0.000000 0.000000
# 5 0.000000 0.000000 0.000000 0.000000 0.035925 0.000000
# 6 0.000000 0.000000 0.000000 0.000000 0.000000 0.033238
#
#
# Mechanical properties :
#
#
# Convention : Reuss Voigt Hill
#
# Bulk Modulus (GPa) = 41.83143 41.90624 41.86883
# Shear Modulus (GPa) = 30.53982 31.05845 30.79913
#
# Velocity S-wave (km/s) = 4.16399 4.19920 4.18163
# Velocity P-wave (km/s) = 6.84602 6.87773 6.86189
#
# Compressibility (1/GPa) = 0.02390547
#
# Stress axis : x y z
#
# Youngs Moduli (GPa) = 77.63044 77.63062 86.79177
#
# Poissons Ratio (x) = 0.29014 0.12812
# Poissons Ratio (y) = 0.29014 0.12811
# Poissons Ratio (z) = 0.11460 0.11459
#
# Static dielectric constant tensor:
#      x y z
#    x 3.231400 -0.000010 0.000000 
#    y -0.000010 3.231430 0.000000 
#    z 0.000000 0.000000 3.312970 
# 
# 
# High freq. dielectric constant tensor:
#      x y z
#    x 1.689500 0.000000 0.000000 
#    y 0.000000 1.689500 0.000000 
#    z 0.000000 0.000000 1.694400 
# 
# From -- ./inp_files/2757.got.cif
#   From: 2010.03.12/outbox.cif.g09.slc.cpg/sg186_2_cif.got.tgz:2757.got - 2010.04.01 11:56:34.
