data_PCOD8326158
_publ_section_title
;
Structure prediction by ZEFSAII (Michael W. Deem and Ramdas Pophale) SiO2 
 PCOD8326158
Probable space group: P 62 2 2
;
_chemical_formula_sum "Si O2"
_cell_formula_units_Z 84
_cell_length_a 14.372088
_cell_length_b 14.372088
_cell_length_c 26.151115
_cell_angle_alpha 90.000000
_cell_angle_beta 90.000000
_cell_angle_gamma 120.000000
_cell_volume 4678.003880
_symmetry_space_group_name_H-M "P 62 2 2"
_symmetry_group_IT_number 180
_symmetry_cell_setting 'hexagonal'
loop_
_space_group_symop_operation_xyz
x,y,z
x-y,x,1/3+z
-y,x-y,2/3+z
-x,-y,z
-x+y,-x,1/3+z
y,-x+y,2/3+z
x-y,-y,-z
-x,-x+y,1/3-z
y,x,2/3-z
-y,-x,2/3-z
-x+y,y,-z
x,x-y,1/3-z
loop_
_atom_site_type_symbol
_atom_site_label
_atom_site_fract_x
_atom_site_fract_y
_atom_site_fract_z
Si Si1 0.256239 0.696290 0.475377
Si Si2 0.558425 0.634638 0.283911
Si Si3 0.934043 0.265515 0.318308
Si Si4 0.118752 0.537828 0.954453
Si Si5 0.939465 0.562482 0.115431
Si Si6 0.667255 0.134008 0.091916
Si Si7 0.752726 0.170898 0.662914
O O1 0.321896 0.643792 0.500000
O O2 0.197271 0.626234 0.426493
O O3 0.341674 0.817273 0.460186
O O4 0.170963 0.691150 0.516428
O O5 0.580212 0.580212 0.333334
O O6 0.433482 0.572103 0.266960
O O7 0.634932 0.626950 0.240438
O O8 0.593228 0.757246 0.293288
O O9 0.861025 0.138976 0.333334
O O10 0.878595 0.322172 0.348209
O O11 0.939802 0.292886 0.258187
O O12 0.056937 0.308401 0.334367
O O13 0.157627 0.636632 0.993535
O O14 0.000000 0.500000 0.933526
O O15 0.000000 0.500000 0.093723
O O16 0.000000 0.626645 0.166667
O O17 0.774437 0.208873 0.059222
#
# Coordination Sequence:
#
# PCOD8326158 Si02
#       7
#    12  12  12  12  12  12  12
#     4  12  23  33  52  83 116 154 192 231 279 348
#     4   9  18  35  57  83 109 142 191 241 286 347
#     4  11  22  37  56  77 112 154 190 239 294 346
#     4  10  23  37  52  76 114 155 188 232 289 352
#     4  11  21  37  54  80 116 149 195 236 280 348
#     4  10  20  33  55  83 111 148 187 239 290 336
#     4  10  19  35  57  79 105 143 196 235 284 346
#
# _framework density 17.956377
#
# number of rings (size 3 to 8) (size 9 to 14) (size 15 to 20)
#    0.000    1.571    2.857    6.000    4.000    1.143 
#    0.000    0.000    0.000    3.857    0.000    0.000 
#    0.000    0.000    0.000    0.000    0.000    0.000 
#
# Total GULP energy -1041166.980773 kJ/mol
# GULP energy per Si atom -12394.845009 kJ/mol
# Density = 1.791551 g / cm^3
# Si number density = 17.956377 Si / 1000 Ang^3
#
#
#
# Elastic Constant Matrix: (Units=GPa)
#
#
# Indices 1 2 3 4 5 6 
#
# 1 90.6660 36.7369 21.7895 0.0000 0.0000 0.0000
# 2 36.7369 90.6660 21.7895 0.0000 0.0000 0.0000
# 3 21.7895 21.7895 62.9038 0.0000 0.0000 0.0000
# 4 0.0000 0.0000 0.0000 22.6597 0.0000 0.0000
# 5 0.0000 0.0000 0.0000 0.0000 22.6597 0.0000
# 6 0.0000 0.0000 0.0000 0.0000 0.0000 26.9646
#
#
#
# Elastic Compliance Matrix: (Units=1/GPa)
#
#
# Indices 1 2 3 4 5 6 
#
# 1 0.013723 -0.004819 -0.003084 0.000000 0.000000 0.000000
# 2 -0.004819 0.013723 -0.003084 0.000000 0.000000 0.000000
# 3 -0.003084 -0.003084 0.018034 0.000000 0.000000 0.000000
# 4 0.000000 0.000000 0.000000 0.044131 0.000000 0.000000
# 5 0.000000 0.000000 0.000000 0.000000 0.044131 0.000000
# 6 0.000000 0.000000 0.000000 0.000000 0.000000 0.037086
#
#
# Mechanical properties :
#
#
# Convention : Reuss Voigt Hill
#
# Bulk Modulus (GPa) = 42.54414 44.98529 43.76472
# Shear Modulus (GPa) = 24.92020 25.38477 25.15249
#
# Velocity S-wave (km/s) = 3.72939 3.76399 3.74673
# Velocity P-wave (km/s) = 6.50299 6.63303 6.56833
#
# Compressibility (1/GPa) = 0.02350500
#
# Stress axis : x y z
#
# Youngs Moduli (GPa) = 72.86775 72.86775 55.45057
#
# Poissons Ratio (x) = 0.35118 0.17103
# Poissons Ratio (y) = 0.35118 0.17103
# Poissons Ratio (z) = 0.22475 0.22475
#
# Static dielectric constant tensor:
#      x y z
#    x 3.455760 0.000000 0.000000 
#    y 0.000000 3.455760 0.000000 
#    z 0.000000 0.000000 3.416050 
# 
# 
# High freq. dielectric constant tensor:
#      x y z
#    x 1.683250 0.000000 0.000000 
#    y 0.000000 1.683250 0.000000 
#    z 0.000000 0.000000 1.693910 
# 
# From -- ./inp_files/10276.got.cif
#   From: 2010.03.12/outbox.cif.g09.slc.cpg/sg180_6_cif.got.tgz:10276.got - 2010.04.01 11:35:50.
