data_PCOD8326176
_publ_section_title
;
Structure prediction by ZEFSAII (Michael W. Deem and Ramdas Pophale) SiO2 
 PCOD8326176
Probable space group: P 62 2 2
;
_chemical_formula_sum "Si O2"
_cell_formula_units_Z 72
_cell_length_a 14.903110
_cell_length_b 14.903110
_cell_length_c 17.835534
_cell_angle_alpha 90.000000
_cell_angle_beta 90.000000
_cell_angle_gamma 120.000000
_cell_volume 3430.603785
_symmetry_space_group_name_H-M "P 62 2 2"
_symmetry_group_IT_number 180
_symmetry_cell_setting 'hexagonal'
loop_
_space_group_symop_operation_xyz
x,y,z
x-y,x,1/3+z
-y,x-y,2/3+z
-x,-y,z
-x+y,-x,1/3+z
y,-x+y,2/3+z
x-y,-y,-z
-x,-x+y,1/3-z
y,x,2/3-z
-y,-x,2/3-z
-x+y,y,-z
x,x-y,1/3-z
loop_
_atom_site_type_symbol
_atom_site_label
_atom_site_fract_x
_atom_site_fract_y
_atom_site_fract_z
Si Si1 0.224052 0.479974 0.135092
Si Si2 0.275934 0.306847 0.418295
Si Si3 0.342415 0.583518 0.713043
Si Si4 0.755500 0.635713 0.641556
Si Si5 0.614409 0.579991 0.117873
Si Si6 0.263040 0.159019 0.870460
O O1 0.186880 0.537040 0.075203
O O2 0.268512 0.542997 0.212089
O O3 0.322792 0.478941 0.101209
O O4 0.133423 0.363261 0.151700
O O5 0.310283 0.310283 0.333334
O O6 0.192345 0.345340 0.416924
O O7 0.381107 0.383333 0.463346
O O8 0.231470 0.193231 0.457604
O O9 0.309800 0.654900 0.666667
O O10 0.316803 0.485066 0.662477
O O11 0.682755 0.668290 0.598905
O O12 0.798574 0.711664 0.711998
O O13 0.500000 0.500000 0.092561
O O14 0.169415 0.169415 0.833334
#
# Coordination Sequence:
#
# PCOD8326176 Si02
#       6
#    12  12  12  12  12  12
#     4   9  21  38  52  84 119 152 198 245 293 367
#     4   9  20  40  60  84 118 156 202 252 305 371
#     4  10  20  36  58  80 118 163 199 242 299 354
#     4  10  21  37  59  88 119 160 201 255 307 369
#     4  11  22  35  56  87 117 156 202 246 304 353
#     4   9  19  38  63  87 117 157 197 250 316 370
#
# _framework density 20.987558
#
# number of rings (size 3 to 8) (size 9 to 14) (size 15 to 20)
#    0.000    2.333    0.000    2.500    2.333    3.000 
#    0.000    8.333    0.000    8.000    0.000   38.500 
#    0.000    0.000    0.000    0.000    0.000    0.000 
#
# Total GULP energy -892322.334112 kJ/mol
# GULP energy per Si atom -12393.365752 kJ/mol
# Density = 2.093979 g / cm^3
# Si number density = 20.987558 Si / 1000 Ang^3
#
#
#
# Elastic Constant Matrix: (Units=GPa)
#
#
# Indices 1 2 3 4 5 6 
#
# 1 97.4191 36.0539 31.6404 0.0000 0.0000 0.0000
# 2 36.0539 97.4191 31.6404 0.0000 0.0000 0.0000
# 3 31.6404 31.6404 62.8998 0.0000 0.0000 0.0000
# 4 0.0000 0.0000 0.0000 32.2906 0.0000 0.0000
# 5 0.0000 0.0000 0.0000 0.0000 32.2906 0.0000
# 6 0.0000 0.0000 0.0000 0.0000 0.0000 30.6826
#
#
#
# Elastic Compliance Matrix: (Units=1/GPa)
#
#
# Indices 1 2 3 4 5 6 
#
# 1 0.013067 -0.003229 -0.004949 0.000000 0.000000 0.000000
# 2 -0.003229 0.013067 -0.004949 0.000000 0.000000 0.000000
# 3 -0.004949 -0.004949 0.020877 0.000000 0.000000 0.000000
# 4 0.000000 0.000000 0.000000 0.030969 0.000000 0.000000
# 5 0.000000 0.000000 0.000000 0.000000 0.030969 0.000000
# 6 0.000000 0.000000 0.000000 0.000000 0.000000 0.032592
#
#
# Mechanical properties :
#
#
# Convention : Reuss Voigt Hill
#
# Bulk Modulus (GPa) = 48.17378 50.71189 49.44284
# Shear Modulus (GPa) = 28.61818 29.61297 29.11558
#
# Velocity S-wave (km/s) = 3.69667 3.76037 3.72866
# Velocity P-wave (km/s) = 6.42058 6.56271 6.49203
#
# Compressibility (1/GPa) = 0.02075818
#
# Stress axis : x y z
#
# Youngs Moduli (GPa) = 76.52741 76.52741 47.89879
#
# Poissons Ratio (x) = 0.24708 0.23705
# Poissons Ratio (y) = 0.24708 0.23705
# Poissons Ratio (z) = 0.37874 0.37874
#
# Static dielectric constant tensor:
#      x y z
#    x 3.769500 0.000000 0.000000 
#    y 0.000000 3.769500 0.000000 
#    z 0.000000 0.000000 3.937540 
# 
# 
# High freq. dielectric constant tensor:
#      x y z
#    x 1.808180 0.000000 0.000000 
#    y 0.000000 1.808180 0.000000 
#    z 0.000000 0.000000 1.835160 
# 
# From -- ./inp_files/7796.got.cif
#   From: 2010.03.12/outbox.cif.g09.slc.cpg/sg180_4_cif.got.tgz:7796.got - 2010.04.01 11:35:50.
