data_PCOD8326876
_publ_section_title
;
Structure prediction by ZEFSAII (Michael W. Deem and Ramdas Pophale) SiO2 
 PCOD8326876
Probable space group: P -6 M 2
;
_chemical_formula_sum "Si O2"
_cell_formula_units_Z 72
_cell_length_a 23.196013
_cell_length_b 23.196013
_cell_length_c 8.891496
_cell_angle_alpha 90.000000
_cell_angle_beta 90.000000
_cell_angle_gamma 120.000000
_cell_volume 4143.164302
_symmetry_space_group_name_H-M "P -6 M 2"
_symmetry_group_IT_number 187
_symmetry_cell_setting 'hexagonal'
loop_
_space_group_symop_operation_xyz
x,y,z
-x+y,-x,-z
-y,x-y,z
x,y,-z
-x+y,-x,z
-y,x-y,-z
-y,-x,-z
-x+y,y,-z
x,x-y,-z
-x+y,y,z
x,x-y,z
-y,-x,z
loop_
_atom_site_type_symbol
_atom_site_label
_atom_site_fract_x
_atom_site_fract_y
_atom_site_fract_z
Si Si1 0.594300 0.056245 0.177377
Si Si2 0.931038 0.194484 0.321193
Si Si3 0.727041 0.141787 0.324492
Si Si4 0.718224 0.794687 0.678929
Si Si5 0.339268 0.410361 0.321476
Si Si6 0.462483 0.795696 0.679134
O O1 0.530047 0.060094 0.230910
O O2 0.660203 0.122835 0.232898
O O3 0.593162 0.993016 0.249866
O O4 0.595944 0.050686 0.000000
O O5 0.929613 0.193435 0.500000
O O6 0.880225 0.119776 0.259873
O O7 0.905803 0.244657 0.268497
O O8 0.006030 0.220194 0.262788
O O9 0.709598 0.130293 0.500000
O O10 0.781412 0.218589 0.291792
O O11 0.718556 0.798569 0.500000
O O12 0.724710 0.862355 0.747586
O O13 0.650317 0.731043 0.733805
O O14 0.346139 0.409146 0.500000
O O15 0.341674 0.476897 0.262857
O O16 0.462208 0.794032 0.500000
O O17 0.394338 0.788676 0.741532
O O18 0.469904 0.734952 0.743793
#
# Coordination Sequence:
#
# PCOD8326876 Si02
#       6
#    12  12  12  12  12  12
#     4  11  23  35  48  71 104 137 165 196 239 291
#     4   8  13  23  41  66  94 120 150 192 238 282
#     4   9  17  32  55  79  99 122 157 199 240 283
#     4   9  15  23  40  67  95 123 158 201 247 292
#     4  10  18  30  47  68  92 122 163 209 251 292
#     4   9  16  25  39  61  88 117 153 203 261 314
#
# _framework density 17.378022000000001
#
# number of rings (size 3 to 8) (size 9 to 14) (size 15 to 20)
#    0.000    2.667    1.667    2.667    0.000    5.000 
#    0.000    0.000    0.000    2.667    0.000    2.333 
#    0.000    1.333    0.000    0.000    0.000    3.333 
#
# Total GULP energy -892477.827560 kJ/mol
# GULP energy per Si atom -12395.525383 kJ/mol
# Density = 1.733847 g / cm^3
# Si number density = 17.378022 Si / 1000 Ang^3
#
#
#
# Elastic Constant Matrix: (Units=GPa)
#
#
# Indices 1 2 3 4 5 6 
#
# 1 137.8373 76.8162 22.6918 0.0000 -0.0001 0.0000
# 2 76.8162 137.8373 22.6918 0.0000 0.0001 0.0000
# 3 22.6918 22.6918 20.4529 0.0000 0.0000 0.0000
# 4 0.0000 0.0000 0.0000 7.8974 0.0000 0.0001
# 5 -0.0001 0.0001 0.0000 0.0000 7.8974 0.0000
# 6 0.0000 0.0000 0.0000 0.0001 0.0000 30.5106
#
#
#
# Elastic Compliance Matrix: (Units=1/GPa)
#
#
# Indices 1 2 3 4 5 6 
#
# 1 0.011237 -0.005151 -0.006753 0.000000 0.000000 0.000000
# 2 -0.005151 0.011237 -0.006753 0.000000 0.000000 0.000000
# 3 -0.006753 -0.006753 0.063876 0.000000 0.000000 0.000000
# 4 0.000000 0.000000 0.000000 0.126623 0.000000 0.000000
# 5 0.000000 0.000000 0.000000 0.000000 0.126623 0.000000
# 6 0.000000 0.000000 0.000000 0.000000 0.000000 0.032776
#
#
# Mechanical properties :
#
#
# Convention : Reuss Voigt Hill
#
# Bulk Modulus (GPa) = 20.39208 60.05858 40.22533
# Shear Modulus (GPa) = 11.73625 20.85627 16.29626
#
# Velocity S-wave (km/s) = 2.60157 3.46808 3.06559
# Velocity P-wave (km/s) = 4.55896 7.11842 5.97729
#
# Compressibility (1/GPa) = 0.04903864
#
# Stress axis : x y z
#
# Youngs Moduli (GPa) = 88.99124 88.99124 15.65524
#
# Poissons Ratio (x) = 0.45837 0.10571
# Poissons Ratio (y) = 0.45837 0.10571
# Poissons Ratio (z) = 0.60092 0.60092
#
# Static dielectric constant tensor:
#      x y z
#    x 3.499710 0.000000 0.000000 
#    y 0.000000 3.499710 0.000000 
#    z 0.000000 0.000000 2.717370 
# 
# 
# High freq. dielectric constant tensor:
#      x y z
#    x 1.673270 0.000000 0.000000 
#    y 0.000000 1.673270 0.000000 
#    z 0.000000 0.000000 1.614110 
# 
# From -- ./inp_files/951.got.cif
#   From: 2010.03.12/outbox.cif.g09.slc.cpg/sg187_1_cif.got.tgz:951.got - 2010.04.01 11:58:23.
