data_PCOD8326239
_publ_section_title
;
Structure prediction by ZEFSAII (Michael W. Deem and Ramdas Pophale) SiO2 
 PCOD8326239
Probable space group: P 62 2 2
;
_chemical_formula_sum "Si O2"
_cell_formula_units_Z 60
_cell_length_a 11.774019
_cell_length_b 11.774019
_cell_length_c 26.470236
_cell_angle_alpha 90.000000
_cell_angle_beta 90.000000
_cell_angle_gamma 120.000000
_cell_volume 3177.883043
_symmetry_space_group_name_H-M "P 62 2 2"
_symmetry_group_IT_number 180
_symmetry_cell_setting 'hexagonal'
loop_
_space_group_symop_operation_xyz
x,y,z
x-y,x,1/3+z
-y,x-y,2/3+z
-x,-y,z
-x+y,-x,1/3+z
y,-x+y,2/3+z
x-y,-y,-z
-x,-x+y,1/3-z
y,x,2/3-z
-y,-x,2/3-z
-x+y,y,-z
x,x-y,1/3-z
loop_
_atom_site_type_symbol
_atom_site_label
_atom_site_fract_x
_atom_site_fract_y
_atom_site_fract_z
Si Si1 0.831302 0.312108 0.529905
Si Si2 0.589558 0.689876 0.045993
Si Si3 0.121737 0.719805 0.787252
Si Si4 0.512256 0.826477 0.747130
Si Si5 0.142337 0.608432 0.062072
O O1 0.828893 0.444327 0.541571
O O2 0.806970 0.269207 0.471715
O O3 0.714124 0.197908 0.560660
O O4 0.965418 0.320209 0.546928
O O5 0.637183 0.834533 0.068029
O O6 0.696773 0.642001 0.053278
O O7 0.466130 0.598189 0.081392
O O8 0.545197 0.679397 0.988474
O O9 0.178037 0.821964 0.833334
O O10 0.462096 0.689771 0.717614
O O11 0.000000 0.500000 0.080018
#
# Coordination Sequence:
#
# PCOD8326239 Si02
#       5
#    12  12  12  12  12
#     4  11  22  34  59  90 120 152 197 256 310 358
#     4  11  21  35  62  84 117 159 202 243 301 375
#     4  11  18  35  60  88 115 152 203 248 302 370
#     4  11  20  37  57  83 116 164 196 231 306 375
#     4  12  25  37  57  90 130 154 198 252 308 368
#
# _framework density 18.880495
#
# number of rings (size 3 to 8) (size 9 to 14) (size 15 to 20)
#    0.000    0.800    8.000    2.400    0.000    2.400 
#    0.000    2.000    0.000    1.200    0.000    2.800 
#    0.000    0.000    0.000    0.000    0.000    0.000 
#
# Total GULP energy -743947.173067 kJ/mol
# GULP energy per Si atom -12399.119551 kJ/mol
# Density = 1.883752 g / cm^3
# Si number density = 18.880495 Si / 1000 Ang^3
#
#
#
# Elastic Constant Matrix: (Units=GPa)
#
#
# Indices 1 2 3 4 5 6 
#
# 1 81.6261 26.5235 24.1475 0.0000 0.0000 0.0000
# 2 26.5235 81.6261 24.1475 0.0000 0.0000 0.0000
# 3 24.1475 24.1475 104.0324 0.0000 0.0000 0.0000
# 4 0.0000 0.0000 0.0000 23.6237 0.0000 0.0000
# 5 0.0000 0.0000 0.0000 0.0000 23.6237 0.0000
# 6 0.0000 0.0000 0.0000 0.0000 0.0000 27.5513
#
#
#
# Elastic Compliance Matrix: (Units=1/GPa)
#
#
# Indices 1 2 3 4 5 6 
#
# 1 0.014232 -0.003916 -0.002394 0.000000 0.000000 0.000000
# 2 -0.003916 0.014232 -0.002394 0.000000 0.000000 0.000000
# 3 -0.002394 -0.002394 0.010724 0.000000 0.000000 0.000000
# 4 0.000000 0.000000 0.000000 0.042330 0.000000 0.000000
# 5 0.000000 0.000000 0.000000 0.000000 0.042330 0.000000
# 6 0.000000 0.000000 0.000000 0.000000 0.000000 0.036296
#
#
# Mechanical properties :
#
#
# Convention : Reuss Voigt Hill
#
# Bulk Modulus (GPa) = 45.91864 46.32459 46.12162
# Shear Modulus (GPa) = 27.05430 27.79081 27.42255
#
# Velocity S-wave (km/s) = 3.78950 3.84074 3.81521
# Velocity P-wave (km/s) = 6.59701 6.65262 6.62487
#
# Compressibility (1/GPa) = 0.02177765
#
# Stress axis : x y z
#
# Youngs Moduli (GPa) = 70.26504 70.26504 93.24915
#
# Poissons Ratio (x) = 0.27517 0.22328
# Poissons Ratio (y) = 0.27517 0.22328
# Poissons Ratio (z) = 0.16824 0.16824
#
# Static dielectric constant tensor:
#      x y z
#    x 3.469130 0.000000 0.000000 
#    y 0.000000 3.469130 0.000000 
#    z 0.000000 0.000000 3.404540 
# 
# 
# High freq. dielectric constant tensor:
#      x y z
#    x 1.713880 0.000000 0.000000 
#    y 0.000000 1.713880 0.000000 
#    z 0.000000 0.000000 1.743420 
# 
# From -- ./inp_files/11242.got.cif
#   From: 2010.03.12/outbox.cif.g09.slc.cpg/sg180_6_cif.got.tgz:11242.got - 2010.04.01 11:35:50.
