data_PCOD8326170
_publ_section_title
;
Structure prediction by ZEFSAII (Michael W. Deem and Ramdas Pophale) SiO2 
 PCOD8326170
Probable space group: P 62 2 2
;
_chemical_formula_sum "Si O2"
_cell_formula_units_Z 42
_cell_length_a 10.928808
_cell_length_b 10.928808
_cell_length_c 18.058195
_cell_angle_alpha 90.000000
_cell_angle_beta 90.000000
_cell_angle_gamma 120.000000
_cell_volume 1867.886841
_symmetry_space_group_name_H-M "P 62 2 2"
_symmetry_group_IT_number 180
_symmetry_cell_setting 'hexagonal'
loop_
_space_group_symop_operation_xyz
x,y,z
x-y,x,1/3+z
-y,x-y,2/3+z
-x,-y,z
-x+y,-x,1/3+z
y,-x+y,2/3+z
x-y,-y,-z
-x,-x+y,1/3-z
y,x,2/3-z
-y,-x,2/3-z
-x+y,y,-z
x,x-y,1/3-z
loop_
_atom_site_type_symbol
_atom_site_label
_atom_site_fract_x
_atom_site_fract_y
_atom_site_fract_z
Si Si1 0.194685 0.987862 0.620443
Si Si2 0.673602 0.347203 0.500000
Si Si3 0.352965 0.211833 0.503783
Si Si4 0.909724 0.344929 0.929347
O O1 0.115714 0.057857 0.666667
O O2 0.325537 0.118241 0.578207
O O3 0.102632 0.871782 0.558180
O O4 0.236131 0.900561 0.676115
O O5 0.509480 0.251620 0.476322
O O6 0.687858 0.442887 0.571326
O O7 0.341894 0.349399 0.522006
O O8 0.000000 0.500000 0.965161
#
# Coordination Sequence:
#
# PCOD8326170 Si02
#       4
#    12   6  12  12
#     4   9  18  33  55  81 112 146 192 241 287 345
#     4  10  20  33  52  81 116 154 184 238 302 348
#     4   9  19  33  54  83 114 147 192 241 289 348
#     4   9  19  34  51  77 112 147 186 235 291 345
#
# _framework density 22.485302999999998
#
# number of rings (size 3 to 8) (size 9 to 14) (size 15 to 20)
#    0.000    2.857    0.000    0.000    4.000    2.286 
#    0.000    1.429    0.000   24.000    0.000    0.000 
#    0.000    0.000    0.000    0.000    0.000    0.000 
#
# Total GULP energy -520418.721018 kJ/mol
# GULP energy per Si atom -12390.921929 kJ/mol
# Density = 2.243413 g / cm^3
# Si number density = 22.485303 Si / 1000 Ang^3
#
#
#
# Elastic Constant Matrix: (Units=GPa)
#
#
# Indices 1 2 3 4 5 6 
#
# 1 71.6746 20.0210 27.0969 0.0000 0.0000 0.0000
# 2 20.0210 71.6746 27.0969 0.0000 0.0000 0.0000
# 3 27.0969 27.0969 85.4672 0.0000 0.0000 0.0000
# 4 0.0000 0.0000 0.0000 13.8171 0.0000 0.0000
# 5 0.0000 0.0000 0.0000 0.0000 13.8171 0.0000
# 6 0.0000 0.0000 0.0000 0.0000 0.0000 25.8268
#
#
#
# Elastic Compliance Matrix: (Units=1/GPa)
#
#
# Indices 1 2 3 4 5 6 
#
# 1 0.016390 -0.002970 -0.004255 0.000000 0.000000 0.000000
# 2 -0.002970 0.016390 -0.004255 0.000000 0.000000 0.000000
# 3 -0.004255 -0.004255 0.014398 0.000000 0.000000 0.000000
# 4 0.000000 0.000000 0.000000 0.072374 0.000000 0.000000
# 5 0.000000 0.000000 0.000000 0.000000 0.072374 0.000000
# 6 0.000000 0.000000 0.000000 0.000000 0.000000 0.038719
#
#
# Mechanical properties :
#
#
# Convention : Reuss Voigt Hill
#
# Bulk Modulus (GPa) = 41.28879 41.91622 41.60250
# Shear Modulus (GPa) = 19.10742 20.99896 20.05319
#
# Velocity S-wave (km/s) = 2.91825 3.05929 2.98960
# Velocity P-wave (km/s) = 5.45503 5.58221 5.51899
#
# Compressibility (1/GPa) = 0.02421965
#
# Stress axis : x y z
#
# Youngs Moduli (GPa) = 61.01266 61.01266 69.45249
#
# Poissons Ratio (x) = 0.18119 0.29551
# Poissons Ratio (y) = 0.18119 0.29551
# Poissons Ratio (z) = 0.25960 0.25960
#
# Static dielectric constant tensor:
#      x y z
#    x 3.957310 0.000000 0.000000 
#    y 0.000000 3.957310 0.000000 
#    z 0.000000 0.000000 3.906460 
# 
# 
# High freq. dielectric constant tensor:
#      x y z
#    x 1.878050 0.000000 0.000000 
#    y 0.000000 1.878050 0.000000 
#    z 0.000000 0.000000 1.876450 
# 
# From -- ./inp_files/7158.got.cif
#   From: 2010.03.12/outbox.cif.g09.slc.cpg/sg180_4_cif.got.tgz:7158.got - 2010.04.01 11:35:50.
