data_PCOD8326455
_publ_section_title
;
Structure prediction by ZEFSAII (Michael W. Deem and Ramdas Pophale) SiO2 
 PCOD8326455
Probable space group: P 63 2 2
;
_chemical_formula_sum "Si O2"
_cell_formula_units_Z 80
_cell_length_a 18.094886
_cell_length_b 18.094886
_cell_length_c 18.394175
_cell_angle_alpha 90.000000
_cell_angle_beta 90.000000
_cell_angle_gamma 120.000000
_cell_volume 5215.820637
_symmetry_space_group_name_H-M "P 63 2 2"
_symmetry_group_IT_number 182
_symmetry_cell_setting 'hexagonal'
loop_
_space_group_symop_operation_xyz
x,y,z
x-y,x,1/2+z
-y,x-y,z
-x,-y,1/2+z
-x+y,-x,z
y,-x+y,1/2+z
x-y,-y,-z
-x,-x+y,-z
y,x,-z
-y,-x,1/2-z
-x+y,y,1/2-z
x,x-y,1/2-z
loop_
_atom_site_type_symbol
_atom_site_label
_atom_site_fract_x
_atom_site_fract_y
_atom_site_fract_z
Si Si1 0.508119 0.753094 0.906974
Si Si2 0.504760 0.752287 0.429209
Si Si3 0.614805 0.554011 0.933911
Si Si4 0.939453 0.555284 0.933792
Si Si5 0.666668 0.333335 0.661133
Si Si6 0.912156 0.541205 0.332689
Si Si7 0.333334 0.666668 0.833128
Si Si8 0.458830 0.088133 0.332059
O O1 0.563129 0.707462 0.887811
O O2 0.430088 0.708191 0.853945
O O3 0.560675 0.853009 0.886011
O O4 0.470653 0.735883 0.988207
O O5 0.562151 0.854957 0.422861
O O6 0.563186 0.708110 0.422441
O O7 0.429748 0.714507 0.369387
O O8 0.544035 0.454709 0.948537
O O9 0.596468 0.586746 0.858614
O O10 0.611275 0.611275 0.000000
O O11 0.991068 0.588628 0.858796
O O12 0.000000 0.612651 0.000000
O O13 0.666668 0.333334 0.750000
O O14 0.882329 0.441054 0.337703
O O15 0.905955 0.567561 0.250327
O O16 0.333334 0.666667 0.750000
#
# Coordination Sequence:
#
# PCOD8326455 Si02
#       8
#    12  12  12  12   4  12   4  12
#     4  12  20  30  50  73  97 129 167 206 261 307
#     4  12  22  38  56  66  95 130 171 216 247 285
#     4  10  20  34  50  71  93 125 169 206 245 294
#     4  10  20  34  50  71  93 125 169 206 245 294
#     4  12  28  38  46  75 100 131 187 222 238 266
#     4  10  20  32  47  70 101 128 159 208 257 298
#     4  12  22  26  37  69 106 128 160 195 247 311
#     4  10  20  32  47  70 101 128 159 208 257 298
#
# _framework density 15.337952
#
# number of rings (size 3 to 8) (size 9 to 14) (size 15 to 20)
#    0.000    1.200    6.000    2.250    0.000    1.200 
#    0.000    0.000    0.000    0.000    0.000    0.000 
#    0.000    0.000    0.000    8.100    0.000    5.100 
#
# Total GULP energy -991618.630469 kJ/mol
# GULP energy per Si atom -12395.232881 kJ/mol
# Density = 1.530304 g / cm^3
# Si number density = 15.337952 Si / 1000 Ang^3
#
#
#
# Elastic Constant Matrix: (Units=GPa)
#
#
# Indices 1 2 3 4 5 6 
#
# 1 79.4709 33.7015 26.1772 0.0000 0.0001 0.0000
# 2 33.7015 79.4707 26.1772 -0.0001 0.0002 0.0000
# 3 26.1772 26.1772 108.5886 0.0000 0.0004 0.0002
# 4 0.0000 -0.0001 0.0000 16.6040 -0.0001 0.0000
# 5 0.0001 0.0002 0.0004 -0.0001 16.6038 0.0000
# 6 0.0000 0.0000 0.0002 0.0000 0.0000 22.8847
#
#
#
# Elastic Compliance Matrix: (Units=1/GPa)
#
#
# Indices 1 2 3 4 5 6 
#
# 1 0.015897 -0.005952 -0.002397 0.000000 0.000000 0.000000
# 2 -0.005952 0.015897 -0.002397 0.000000 0.000000 0.000000
# 3 -0.002397 -0.002397 0.010365 0.000000 0.000000 0.000000
# 4 0.000000 0.000000 0.000000 0.060227 0.000000 0.000000
# 5 0.000000 0.000000 0.000000 0.000000 0.060227 0.000000
# 6 0.000000 0.000000 0.000000 0.000000 0.000000 0.043697
#
#
# Mechanical properties :
#
#
# Convention : Reuss Voigt Hill
#
# Bulk Modulus (GPa) = 48.38989 48.84911 48.61950
# Shear Modulus (GPa) = 21.30455 23.31679 22.31067
#
# Velocity S-wave (km/s) = 3.73098 3.90321 3.81807
# Velocity P-wave (km/s) = 7.08364 7.22710 7.15573
#
# Compressibility (1/GPa) = 0.02066547
#
# Stress axis : x y z
#
# Youngs Moduli (GPa) = 62.90536 62.90518 96.47881
#
# Poissons Ratio (x) = 0.37440 0.23130
# Poissons Ratio (y) = 0.37440 0.23130
# Poissons Ratio (z) = 0.15081 0.15081
#
# Static dielectric constant tensor:
#      x y z
#    x 2.815690 0.000000 -0.000010 
#    y 0.000000 2.815690 0.000010 
#    z -0.000010 0.000010 3.087700 
# 
# 
# High freq. dielectric constant tensor:
#      x y z
#    x 1.556050 0.000000 0.000000 
#    y 0.000000 1.556050 0.000000 
#    z 0.000000 0.000000 1.603580 
# 
# From -- ./inp_files/4489.got.cif
#   From: 2010.03.12/outbox.cif.g09.slc.cpg/sg182_3_cif.got.tgz:4489.got - 2010.04.01 11:49:36.
