data_PCOD8326052
_publ_section_title
;
Structure prediction by ZEFSAII (Michael W. Deem and Ramdas Pophale) SiO2 
 PCOD8326052
Probable space group: P 65 2 2
;
_chemical_formula_sum "Si O2"
_cell_formula_units_Z 30
_cell_length_a 13.531851
_cell_length_b 13.531851
_cell_length_c 7.966481
_cell_angle_alpha 90.000000
_cell_angle_beta 90.000000
_cell_angle_gamma 120.000000
_cell_volume 1263.314761
_symmetry_space_group_name_H-M "P 65 2 2"
_symmetry_group_IT_number 179
_symmetry_cell_setting 'hexagonal'
loop_
_space_group_symop_operation_xyz
x,y,z
x-y,x,5/6+z
-y,x-y,2/3+z
-x,-y,1/2+z
-x+y,-x,1/3+z
y,-x+y,1/6+z
x-y,-y,-z
-x,-x+y,1/3-z
y,x,2/3-z
-y,-x,1/6-z
-x+y,y,1/2-z
x,x-y,5/6-z
loop_
_atom_site_type_symbol
_atom_site_label
_atom_site_fract_x
_atom_site_fract_y
_atom_site_fract_z
Si Si1 0.000000 0.789701 0.666667
Si Si2 0.831767 0.559182 0.572576
Si Si3 0.887109 0.391297 0.739969
O O1 0.058685 0.742600 0.802455
O O2 0.907683 0.815365 0.750000
O O3 0.789873 0.579746 0.750000
O O4 0.857454 0.456362 0.595563
O O5 0.738411 0.523844 0.425541
O O6 0.000000 0.393820 0.666667
O O7 0.911791 0.455896 0.916667
#
# Coordination Sequence:
#
# PCOD8326052 Si02
#       3
#     6  12  12
#     4  10  20  40  70  90 128 188 234 282 354 412
#     4   9  19  38  70  93 133 177 223 281 354 423
#     4  10  20  40  68 101 137 182 228 284 363 422
#
# _framework density 23.747052
#
# number of rings (size 3 to 8) (size 9 to 14) (size 15 to 20)
#    0.000    2.400    2.000    0.000    0.000    0.000 
#    3.600   16.000    0.000    0.000    0.000    0.000 
#    0.000    0.000    0.000    0.000    0.000    0.000 
#
# Total GULP energy -371711.224333 kJ/mol
# GULP energy per Si atom -12390.374144 kJ/mol
# Density = 2.369300 g / cm^3
# Si number density = 23.747052 Si / 1000 Ang^3
#
#
#
# Elastic Constant Matrix: (Units=GPa)
#
#
# Indices 1 2 3 4 5 6 
#
# 1 168.9212 100.3918 35.9847 0.0000 0.0000 0.0000
# 2 100.3918 168.9212 35.9847 0.0000 0.0000 0.0000
# 3 35.9847 35.9847 64.8325 0.0000 0.0000 0.0000
# 4 0.0000 0.0000 0.0000 24.5470 0.0000 0.0000
# 5 0.0000 0.0000 0.0000 0.0000 24.5470 0.0000
# 6 0.0000 0.0000 0.0000 0.0000 0.0000 34.2647
#
#
#
# Elastic Compliance Matrix: (Units=1/GPa)
#
#
# Indices 1 2 3 4 5 6 
#
# 1 0.009476 -0.005116 -0.002420 0.000000 0.000000 0.000000
# 2 -0.005116 0.009476 -0.002420 0.000000 0.000000 0.000000
# 3 -0.002420 -0.002420 0.018111 0.000000 0.000000 0.000000
# 4 0.000000 0.000000 0.000000 0.040738 0.000000 0.000000
# 5 0.000000 0.000000 0.000000 0.000000 0.040738 0.000000
# 6 0.000000 0.000000 0.000000 0.000000 0.000000 0.029185
#
#
# Mechanical properties :
#
#
# Convention : Reuss Voigt Hill
#
# Bulk Modulus (GPa) = 58.30647 83.04414 70.67530
# Shear Modulus (GPa) = 28.84297 32.02599 30.43448
#
# Velocity S-wave (km/s) = 3.48888 3.67635 3.58384
# Velocity P-wave (km/s) = 6.39032 7.28471 6.85212
#
# Compressibility (1/GPa) = 0.01715075
#
# Stress axis : x y z
#
# Youngs Moduli (GPa) = 105.52916 105.52916 55.21620
#
# Poissons Ratio (x) = 0.53991 0.13362
# Poissons Ratio (y) = 0.53991 0.13362
# Poissons Ratio (z) = 0.25537 0.25537
#
# Static dielectric constant tensor:
#      x y z
#    x 4.533510 0.000000 0.000000 
#    y 0.000000 4.533510 0.000000 
#    z 0.000000 0.000000 3.935790 
# 
# 
# High freq. dielectric constant tensor:
#      x y z
#    x 1.947530 0.000000 0.000000 
#    y 0.000000 1.947530 0.000000 
#    z 0.000000 0.000000 1.907800 
# 
# From -- ./inp_files/1982.got.cif
#   From: 2010.03.12/outbox.cif.g09.slc.cpg/sg179_1_cif.got.tgz:1982.got - 2010.04.02 07:08:42.
