data_PCOD8326441
_publ_section_title
;
Structure prediction by ZEFSAII (Michael W. Deem and Ramdas Pophale) SiO2 
 PCOD8326441
Probable space group: P 63 2 2
;
_chemical_formula_sum "Si O2"
_cell_formula_units_Z 60
_cell_length_a 29.155800
_cell_length_b 29.155800
_cell_length_c 5.330977
_cell_angle_alpha 90.000000
_cell_angle_beta 90.000000
_cell_angle_gamma 120.000000
_cell_volume 3924.527398
_symmetry_space_group_name_H-M "P 63 2 2"
_symmetry_group_IT_number 182
_symmetry_cell_setting 'hexagonal'
loop_
_space_group_symop_operation_xyz
x,y,z
x-y,x,1/2+z
-y,x-y,z
-x,-y,1/2+z
-x+y,-x,z
y,-x+y,1/2+z
x-y,-y,-z
-x,-x+y,-z
y,x,-z
-y,-x,1/2-z
-x+y,y,1/2-z
x,x-y,1/2-z
loop_
_atom_site_type_symbol
_atom_site_label
_atom_site_fract_x
_atom_site_fract_y
_atom_site_fract_z
Si Si1 0.647157 0.937244 0.008099
Si Si2 0.905071 0.094930 0.250000
Si Si3 0.826594 0.826594 0.000000
Si Si4 0.936903 0.443477 0.001038
Si Si5 0.936924 0.339543 0.005364
Si Si6 0.741437 0.822146 0.368835
O O1 0.608877 0.914954 0.249688
O O2 0.688993 0.917611 0.035974
O O3 0.613827 0.915161 0.749895
O O4 0.676429 0.000000 0.000000
O O5 0.886855 0.043417 0.418762
O O6 0.925822 0.150522 0.387506
O O7 0.807225 0.777124 0.808812
O O8 0.915254 0.457627 0.750000
O O9 0.915011 0.457506 0.250000
O O10 0.915853 0.380982 0.011586
O O11 0.000000 0.476156 0.000000
O O12 0.000000 0.370143 0.000000
O O13 0.725147 0.862574 0.250000
#
# Coordination Sequence:
#
# PCOD8326441 Si02
#       6
#    12   6   6  12  12  12
#     4  10  19  29  44  61  87 115 141 183 223 274
#     4  10  20  34  50  72  94 110 142 170 224 282
#     4  10  20  34  50  72  94 110 140 176 216 290
#     4   9  15  24  38  53  78 109 143 184 217 252
#     4   9  18  27  39  61  82 111 148 177 223 264
#     4  10  22  33  50  67  93 115 146 177 231 284
#
# _framework density 15.288466
#
# number of rings (size 3 to 8) (size 9 to 14) (size 15 to 20)
#    0.000    2.400    0.000    3.000    9.800    4.800 
#    0.000    0.000    0.000    0.000    0.000    0.000 
#  315.000    0.000    0.000    0.000    0.000    0.000 
#
# Total GULP energy -743412.823973 kJ/mol
# GULP energy per Si atom -12390.213733 kJ/mol
# Density = 1.525367 g / cm^3
# Si number density = 15.288466 Si / 1000 Ang^3
#
#
#
# Elastic Constant Matrix: (Units=GPa)
#
#
# Indices 1 2 3 4 5 6 
#
# 1 49.3487 64.6266 43.8165 0.0000 0.0000 0.0000
# 2 64.6266 49.3487 43.8165 0.0000 0.0000 0.0000
# 3 43.8165 43.8165 126.7092 0.0000 0.0000 0.0000
# 4 0.0000 0.0000 0.0000 239.0225 0.0000 0.0000
# 5 0.0000 0.0000 0.0000 0.0000 239.0225 0.0000
# 6 0.0000 0.0000 0.0000 0.0000 0.0000 -7.6390
#
#
#
# Elastic Compliance Matrix: (Units=1/GPa)
#
#
# Indices 1 2 3 4 5 6 
#
# 1 -0.026751 0.038703 -0.004133 0.000000 0.000000 0.000000
# 2 0.038703 -0.026751 -0.004133 0.000000 0.000000 0.000000
# 3 -0.004133 -0.004133 0.010750 0.000000 0.000000 0.000000
# 4 0.000000 0.000000 0.000000 0.004184 0.000000 0.000000
# 5 0.000000 0.000000 0.000000 0.000000 0.004184 0.000000
# 6 0.000000 0.000000 0.000000 0.000000 0.000000 -0.130908
#
#
# Mechanical properties :
#
#
# Convention : Reuss Voigt Hill
#
# Bulk Modulus (GPa) = 55.18178 58.88066 57.03122
# Shear Modulus (GPa) = -22.71432 98.95768 38.12168
#
# Velocity S-wave (km/s) = -3.85868 8.05404 4.99891
# Velocity P-wave (km/s) = 4.03974 11.18422 8.40852
#
# Compressibility (1/GPa) = 0.01812192
#
# Stress axis : x y z
#
# Youngs Moduli (GPa) = -37.38155 -37.38155 93.01965
#
# Poissons Ratio (x) = 1.44677 0.38444
# Poissons Ratio (y) = 1.44677 0.38444
# Poissons Ratio (z) = -0.15449 -0.15449
#
# Static dielectric constant tensor:
#      x y z
#    x 2.509710 0.000000 0.000000 
#    y 0.000000 2.509710 0.000000 
#    z 0.000000 0.000000 3.354860 
# 
# 
# High freq. dielectric constant tensor:
#      x y z
#    x 1.546580 0.000000 0.000000 
#    y 0.000000 1.546580 0.000000 
#    z 0.000000 0.000000 1.613860 
# 
# From -- ./inp_files/732.got.cif
#   From: 2010.03.12/outbox.cif.g09.slc.cpg/sg182_1_cif.got.tgz:732.got - 2010.04.01 11:49:36.
