data_PCOD8326135
_publ_section_title
;
Structure prediction by ZEFSAII (Michael W. Deem and Ramdas Pophale) SiO2 
 PCOD8326135
Probable space group: P 62 2 2
;
_chemical_formula_sum "Si O2"
_cell_formula_units_Z 72
_cell_length_a 17.603333
_cell_length_b 17.603333
_cell_length_c 19.281869
_cell_angle_alpha 90.000000
_cell_angle_beta 90.000000
_cell_angle_gamma 120.000000
_cell_volume 5174.514029
_symmetry_space_group_name_H-M "P 62 2 2"
_symmetry_group_IT_number 180
_symmetry_cell_setting 'hexagonal'
loop_
_space_group_symop_operation_xyz
x,y,z
x-y,x,1/3+z
-y,x-y,2/3+z
-x,-y,z
-x+y,-x,1/3+z
y,-x+y,2/3+z
x-y,-y,-z
-x,-x+y,1/3-z
y,x,2/3-z
-y,-x,2/3-z
-x+y,y,-z
x,x-y,1/3-z
loop_
_atom_site_type_symbol
_atom_site_label
_atom_site_fract_x
_atom_site_fract_y
_atom_site_fract_z
Si Si1 0.484586 0.320786 0.480350
Si Si2 0.856992 0.518455 0.165609
Si Si3 0.164780 0.665398 0.812786
Si Si4 0.541475 0.638806 0.333456
Si Si5 0.410289 0.408800 0.097563
Si Si6 0.589133 0.590715 0.941870
O O1 0.486542 0.235873 0.506791
O O2 0.579094 0.406501 0.484739
O O3 0.452674 0.304715 0.400670
O O4 0.417968 0.335268 0.528488
O O5 0.840113 0.420057 0.166667
O O6 0.914056 0.572714 0.098904
O O7 0.910501 0.570628 0.234435
O O8 0.257772 0.742229 0.833334
O O9 0.147538 0.688239 0.735711
O O10 0.089319 0.660753 0.862804
O O11 0.625390 0.625390 0.333334
O O12 0.455131 0.544870 0.333334
O O13 0.500000 0.500000 0.096659
O O14 0.376714 0.374812 0.019481
O O15 0.500000 0.500000 0.945252
#
# Coordination Sequence:
#
# PCOD8326135 Si02
#       6
#    12  12  12  12  12  12
#     4  10  18  28  43  60  81 107 139 175 209 242
#     4   9  17  29  44  59  79 105 139 177 210 243
#     4  10  19  28  41  61  83 106 138 177 207 239
#     4   9  16  29  42  55  78 109 137 165 208 251
#     4   9  17  29  42  56  79 108 136 166 206 249
#     4   8  16  30  43  56  77 107 135 167 210 248
#
# _framework density 13.914350000000001
#
# number of rings (size 3 to 8) (size 9 to 14) (size 15 to 20)
#    0.000    2.833    1.667    1.500    2.333    0.667 
#    0.000    0.000    0.000    0.000    0.000    0.000 
#    0.000    0.000    0.000    3.000    0.000   17.333 
#
# Total GULP energy -892403.746630 kJ/mol
# GULP energy per Si atom -12394.496481 kJ/mol
# Density = 1.388268 g / cm^3
# Si number density = 13.914350 Si / 1000 Ang^3
#
#
#
# Elastic Constant Matrix: (Units=GPa)
#
#
# Indices 1 2 3 4 5 6 
#
# 1 58.0671 21.7525 33.6886 0.0000 0.0000 0.0000
# 2 21.7525 58.0671 33.6886 0.0000 0.0000 0.0000
# 3 33.6886 33.6886 133.2203 0.0000 0.0000 0.0000
# 4 0.0000 0.0000 0.0000 14.0276 0.0000 0.0000
# 5 0.0000 0.0000 0.0000 0.0000 14.0276 0.0000
# 6 0.0000 0.0000 0.0000 0.0000 0.0000 18.1573
#
#
#
# Elastic Compliance Matrix: (Units=1/GPa)
#
#
# Indices 1 2 3 4 5 6 
#
# 1 0.021733 -0.005804 -0.004028 0.000000 0.000000 0.000000
# 2 -0.005804 0.021733 -0.004028 0.000000 0.000000 0.000000
# 3 -0.004028 -0.004028 0.009544 0.000000 0.000000 0.000000
# 4 0.000000 0.000000 0.000000 0.071288 0.000000 0.000000
# 5 0.000000 0.000000 0.000000 0.000000 0.071288 0.000000
# 6 0.000000 0.000000 0.000000 0.000000 0.000000 0.055074
#
#
# Mechanical properties :
#
#
# Convention : Reuss Voigt Hill
#
# Bulk Modulus (GPa) = 39.54380 47.51265 43.52823
# Shear Modulus (GPa) = 17.43317 19.92414 18.67866
#
# Velocity S-wave (km/s) = 3.54346 3.78817 3.66786
# Velocity P-wave (km/s) = 6.72478 7.30440 7.02057
#
# Compressibility (1/GPa) = 0.02528841
#
# Stress axis : x y z
#
# Youngs Moduli (GPa) = 46.01357 46.01357 104.78303
#
# Poissons Ratio (x) = 0.26708 0.42206
# Poissons Ratio (y) = 0.26708 0.42206
# Poissons Ratio (z) = 0.18534 0.18534
#
# Static dielectric constant tensor:
#      x y z
#    x 2.472410 0.000000 0.000000 
#    y 0.000000 2.472410 0.000000 
#    z 0.000000 0.000000 3.222050 
# 
# 
# High freq. dielectric constant tensor:
#      x y z
#    x 1.496750 0.000000 0.000000 
#    y 0.000000 1.496750 0.000000 
#    z 0.000000 0.000000 1.551380 
# 
# From -- ./inp_files/7886.got.cif
#   From: 2010.03.12/outbox.cif.g09.slc.cpg/sg180_4_cif.got.tgz:7886.got - 2010.04.01 11:35:50.
