data_PCOD8326440
_publ_section_title
;
Structure prediction by ZEFSAII (Michael W. Deem and Ramdas Pophale) SiO2 
 PCOD8326440
Probable space group: P 63 2 2
;
_chemical_formula_sum "Si O2"
_cell_formula_units_Z 46
_cell_length_a 11.255614
_cell_length_b 11.255614
_cell_length_c 23.264755
_cell_angle_alpha 90.000000
_cell_angle_beta 90.000000
_cell_angle_gamma 120.000000
_cell_volume 2552.510263
_symmetry_space_group_name_H-M "P 63 2 2"
_symmetry_group_IT_number 182
_symmetry_cell_setting 'hexagonal'
loop_
_space_group_symop_operation_xyz
x,y,z
x-y,x,1/2+z
-y,x-y,z
-x,-y,1/2+z
-x+y,-x,z
y,-x+y,1/2+z
x-y,-y,-z
-x,-x+y,-z
y,x,-z
-y,-x,1/2-z
-x+y,y,1/2-z
x,x-y,1/2-z
loop_
_atom_site_type_symbol
_atom_site_label
_atom_site_fract_x
_atom_site_fract_y
_atom_site_fract_z
Si Si1 0.854417 0.146222 0.373220
Si Si2 0.176371 0.088186 0.250000
Si Si3 0.391991 0.335227 0.937302
Si Si4 0.000000 0.000000 0.068144
Si Si5 0.665307 0.057018 0.562666
O O1 0.863217 0.136956 0.304995
O O2 0.926116 0.077927 0.408308
O O3 0.934538 0.305875 0.391600
O O4 0.694893 0.064943 0.391649
O O5 0.077975 0.155949 0.250000
O O6 0.376569 0.188472 0.923554
O O7 0.550617 0.449763 0.932198
O O8 0.332931 0.332931 0.000000
O O9 0.000000 0.000000 0.000000
O O10 0.667597 0.000000 0.500000
#
# Coordination Sequence:
#
# PCOD8326440 Si02
#       5
#    12   6  12   4  12
#     4  12  20  36  58  86 114 144 197 240 295 344
#     4  10  18  34  56  90 114 142 180 248 292 328
#     4  11  22  36  55  84 118 154 189 238 298 355
#     4  12  18  28  62  88 114 129 181 245 298 348
#     4  11  22  36  55  84 118 154 189 238 298 355
#
# _framework density 18.021476
#
# number of rings (size 3 to 8) (size 9 to 14) (size 15 to 20)
#    0.261    0.522    7.826    2.087    0.000    0.000 
#    1.565    1.304    0.000    0.000    0.000    3.652 
#    0.000    0.000    0.000    0.000    0.000    0.000 
#
# Total GULP energy -570447.580962 kJ/mol
# GULP energy per Si atom -12401.034369 kJ/mol
# Density = 1.798046 g / cm^3
# Si number density = 18.021476 Si / 1000 Ang^3
#
#
#
# Elastic Constant Matrix: (Units=GPa)
#
#
# Indices 1 2 3 4 5 6 
#
# 1 70.9923 30.5700 26.3345 0.0000 0.0000 0.0000
# 2 30.5700 70.9923 26.3345 0.0000 0.0000 0.0000
# 3 26.3345 26.3345 147.1931 0.0000 0.0000 0.0000
# 4 0.0000 0.0000 0.0000 12.3182 0.0000 0.0000
# 5 0.0000 0.0000 0.0000 0.0000 12.3182 0.0000
# 6 0.0000 0.0000 0.0000 0.0000 0.0000 20.2112
#
#
#
# Elastic Compliance Matrix: (Units=1/GPa)
#
#
# Indices 1 2 3 4 5 6 
#
# 1 0.017796 -0.006943 -0.001942 0.000000 0.000000 0.000000
# 2 -0.006943 0.017796 -0.001942 0.000000 0.000000 0.000000
# 3 -0.001942 -0.001942 0.007489 0.000000 0.000000 0.000000
# 4 0.000000 0.000000 0.000000 0.081180 0.000000 0.000000
# 5 0.000000 0.000000 0.000000 0.000000 0.081180 0.000000
# 6 0.000000 0.000000 0.000000 0.000000 0.000000 0.049478
#
#
# Mechanical properties :
#
#
# Convention : Reuss Voigt Hill
#
# Bulk Modulus (GPa) = 46.66814 50.62840 48.64827
# Shear Modulus (GPa) = 17.62336 22.69877 20.16106
#
# Velocity S-wave (km/s) = 3.13055 3.55285 3.34836
# Velocity P-wave (km/s) = 6.24653 6.70706 6.48089
#
# Compressibility (1/GPa) = 0.02142789
#
# Stress axis : x y z
#
# Youngs Moduli (GPa) = 56.19245 56.19245 133.53634
#
# Poissons Ratio (x) = 0.39013 0.25929
# Poissons Ratio (y) = 0.39013 0.25929
# Poissons Ratio (z) = 0.10911 0.10911
#
# Static dielectric constant tensor:
#      x y z
#    x 3.613650 0.000000 0.000000 
#    y 0.000000 3.613650 0.000000 
#    z 0.000000 0.000000 3.219380 
# 
# 
# High freq. dielectric constant tensor:
#      x y z
#    x 1.692690 0.000000 0.000000 
#    y 0.000000 1.692690 0.000000 
#    z 0.000000 0.000000 1.681730 
# 
# From -- ./inp_files/5165.got.cif
#   From: 2010.03.12/outbox.cif.g09.slc.cpg/sg182_3_cif.got.tgz:5165.got - 2010.04.01 11:49:36.
