data_PCOD8326515
_publ_section_title
;
Structure prediction by ZEFSAII (Michael W. Deem and Ramdas Pophale) SiO2 
 PCOD8326515
Probable space group: P 6 M M
;
_chemical_formula_sum "Si O2"
_cell_formula_units_Z 72
_cell_length_a 18.757434
_cell_length_b 18.757434
_cell_length_c 15.095588
_cell_angle_alpha 90.000000
_cell_angle_beta 90.000000
_cell_angle_gamma 120.000000
_cell_volume 4599.678953
_symmetry_space_group_name_H-M "P 6 M M"
_symmetry_group_IT_number 183
_symmetry_cell_setting 'hexagonal'
loop_
_space_group_symop_operation_xyz
x,y,z
x-y,x,z
-y,x-y,z
-x,-y,z
-x+y,-x,z
y,-x+y,z
-x+y,y,z
x,x-y,z
-y,-x,z
y,x,z
x-y,-y,z
-x,-x+y,z
loop_
_atom_site_type_symbol
_atom_site_label
_atom_site_fract_x
_atom_site_fract_y
_atom_site_fract_z
Si Si1 0.345419 0.093001 0.686170
Si Si2 0.369641 0.908386 0.192860
Si Si3 0.254318 0.907287 0.891436
Si Si4 0.628321 0.531902 0.550767
Si Si5 0.170015 0.668417 0.010278
Si Si6 0.497695 0.828925 0.370071
O O1 0.312336 0.156168 0.664735
O O2 0.369848 0.098694 0.788465
O O3 0.429169 0.120128 0.632279
O O4 0.274226 0.000000 0.661126
O O5 0.454847 0.909693 0.200642
O O6 0.319205 0.852597 0.109918
O O7 0.318532 0.872613 0.283894
O O8 0.385155 0.000000 0.178333
O O9 0.159099 0.840902 0.916094
O O10 0.274083 0.000000 0.914948
O O11 0.317160 0.887902 0.943460
O O12 0.565404 0.434597 0.569662
O O13 0.576623 0.576623 0.536446
O O14 0.681220 0.547121 0.461191
O O15 0.154658 0.577329 0.993505
O O16 0.265530 0.734471 0.993916
O O17 0.422371 0.844741 0.369491
O O18 0.464867 0.732434 0.365388
#
# Coordination Sequence:
#
# PCOD8326515 Si02
#       6
#    12  12  12  12  12  12
#     4   9  17  30  47  66  87 111 141 175 213 257
#     4   9  17  28  41  56  75 102 137 176 214 251
#     4   9  18  31  47  66  87 112 141 175 214 256
#     4   9  17  28  42  60  82 109 141 176 210 246
#     4  10  19  30  44  63  88 116 146 178 212 250
#     4  10  18  27  39  55  77 104 135 171 212 255
#
# _framework density 15.653266
#
# number of rings (size 3 to 8) (size 9 to 14) (size 15 to 20)
#    0.000    2.667    0.000    2.333    0.000    3.667 
#    0.000    3.333    0.000    0.667    0.000    2.333 
#    0.000    0.000    0.000    0.000    0.000    0.000 
#
# Total GULP energy -892501.521188 kJ/mol
# GULP energy per Si atom -12395.854461 kJ/mol
# Density = 1.561764 g / cm^3
# Si number density = 15.653266 Si / 1000 Ang^3
#
#
#
# Elastic Constant Matrix: (Units=GPa)
#
#
# Indices 1 2 3 4 5 6 
#
# 1 73.7288 43.2265 42.0650 0.0000 0.0000 0.0000
# 2 43.2265 73.7288 42.0650 0.0000 0.0000 0.0000
# 3 42.0650 42.0650 81.6106 0.0000 0.0000 0.0000
# 4 0.0000 0.0000 0.0000 20.7136 0.0000 0.0000
# 5 0.0000 0.0000 0.0000 0.0000 20.7136 0.0000
# 6 0.0000 0.0000 0.0000 0.0000 0.0000 15.2511
#
#
#
# Elastic Compliance Matrix: (Units=1/GPa)
#
#
# Indices 1 2 3 4 5 6 
#
# 1 0.023186 -0.009598 -0.007004 0.000000 0.000000 0.000000
# 2 -0.009598 0.023186 -0.007004 0.000000 0.000000 0.000000
# 3 -0.007004 -0.007004 0.019474 0.000000 0.000000 0.000000
# 4 0.000000 0.000000 0.000000 0.048277 0.000000 0.000000
# 5 0.000000 0.000000 0.000000 0.000000 0.048277 0.000000
# 6 0.000000 0.000000 0.000000 0.000000 0.000000 0.065569
#
#
# Mechanical properties :
#
#
# Convention : Reuss Voigt Hill
#
# Bulk Modulus (GPa) = 53.66379 53.75346 53.70863
# Shear Modulus (GPa) = 17.76869 18.11643 17.94256
#
# Velocity S-wave (km/s) = 3.37284 3.40569 3.38930
# Velocity P-wave (km/s) = 7.03742 7.06255 7.05000
#
# Compressibility (1/GPa) = 0.01863454
#
# Stress axis : x y z
#
# Youngs Moduli (GPa) = 43.12857 43.12857 51.35168
#
# Poissons Ratio (x) = 0.41395 0.35967
# Poissons Ratio (y) = 0.41395 0.35967
# Poissons Ratio (z) = 0.30207 0.30207
#
# Static dielectric constant tensor:
#      x y z
#    x 2.919970 0.000000 0.000000 
#    y 0.000000 2.919970 0.000000 
#    z 0.000000 0.000000 3.211160 
# 
# 
# High freq. dielectric constant tensor:
#      x y z
#    x 1.581130 0.000000 0.000000 
#    y 0.000000 1.581130 0.000000 
#    z 0.000000 0.000000 1.613170 
# 
# From -- ./inp_files/2486.got.cif
#   From: 2010.03.12/outbox.cif.g09.slc.cpg/sg183_2_cif.got.tgz:2486.got - 2010.04.01 11:53:02.
