data_PCOD8326411
_publ_section_title
;
Structure prediction by ZEFSAII (Michael W. Deem and Ramdas Pophale) SiO2 
 PCOD8326411
Probable space group: P 64 2 2
;
_chemical_formula_sum "Si O2"
_cell_formula_units_Z 48
_cell_length_a 14.143587
_cell_length_b 14.143587
_cell_length_c 12.518906
_cell_angle_alpha 90.000000
_cell_angle_beta 90.000000
_cell_angle_gamma 120.000000
_cell_volume 2168.783211
_symmetry_space_group_name_H-M "P 64 2 2"
_symmetry_group_IT_number 181
_symmetry_cell_setting 'hexagonal'
loop_
_space_group_symop_operation_xyz
x,y,z
x-y,x,2/3+z
-y,x-y,1/3+z
-x,-y,z
-x+y,-x,2/3+z
y,-x+y,1/3+z
x-y,-y,-z
-x,-x+y,2/3-z
y,x,1/3-z
-y,-x,1/3-z
-x+y,y,-z
x,x-y,2/3-z
loop_
_atom_site_type_symbol
_atom_site_label
_atom_site_fract_x
_atom_site_fract_y
_atom_site_fract_z
Si Si1 0.559047 0.257196 0.095376
Si Si2 0.420982 0.048621 0.610181
Si Si3 0.969129 0.122347 0.454910
Si Si4 0.370659 0.111447 0.237765
O O1 0.655932 0.344069 0.166667
O O2 0.487838 0.308939 0.051461
O O3 0.482249 0.154281 0.170557
O O4 0.609673 0.219346 0.000000
O O5 0.500000 0.000000 0.622570
O O6 0.352611 0.000000 0.500000
O O7 0.338481 0.006162 0.710001
O O8 0.901674 0.181214 0.486784
O O9 0.000000 0.130280 0.333334
O O10 0.091598 0.183195 0.500000
O O11 0.900159 0.000000 0.500000
O O12 0.390611 0.195306 0.333334
#
# Coordination Sequence:
#
# PCOD8326411 Si02
#       4
#    12  12  12  12
#     4  12  25  46  75 106 149 194 246 311 373 434
#     4  11  21  42  72 103 137 187 250 300 357 445
#     4  11  25  46  72 107 149 193 238 299 369 446
#     4  12  25  43  76 109 143 188 252 303 373 448
#
# _framework density 22.132224999999998
#
# number of rings (size 3 to 8) (size 9 to 14) (size 15 to 20)
#    0.000    0.500    5.000    5.250    7.000    0.000 
#    9.000    0.000    0.000    0.000    0.000    0.000 
#    0.000    0.000    0.000    0.000    0.000    0.000 
#
# Total GULP energy -594960.301819 kJ/mol
# GULP energy per Si atom -12395.006288 kJ/mol
# Density = 2.208185 g / cm^3
# Si number density = 22.132225 Si / 1000 Ang^3
#
#
#
# Elastic Constant Matrix: (Units=GPa)
#
#
# Indices 1 2 3 4 5 6 
#
# 1 86.2139 24.8776 68.2576 0.0000 0.0000 0.0000
# 2 24.8776 86.2139 68.2576 0.0000 0.0000 0.0000
# 3 68.2576 68.2576 187.0777 0.0000 0.0000 0.0000
# 4 0.0000 0.0000 0.0000 -42.6297 0.0000 0.0000
# 5 0.0000 0.0000 0.0000 0.0000 -42.6297 0.0000
# 6 0.0000 0.0000 0.0000 0.0000 0.0000 30.6681
#
#
#
# Elastic Compliance Matrix: (Units=1/GPa)
#
#
# Indices 1 2 3 4 5 6 
#
# 1 0.016311 0.000007 -0.005954 0.000000 0.000000 0.000000
# 2 0.000007 0.016311 -0.005954 0.000000 0.000000 0.000000
# 3 -0.005954 -0.005954 0.009690 0.000000 0.000000 0.000000
# 4 0.000000 0.000000 0.000000 -0.023458 0.000000 0.000000
# 5 0.000000 0.000000 0.000000 0.000000 -0.023458 0.000000
# 6 0.000000 0.000000 0.000000 0.000000 0.000000 0.032607
#
#
# Mechanical properties :
#
#
# Convention : Reuss Voigt Hill
#
# Bulk Modulus (GPa) = 54.02286 75.81013 64.91649
# Shear Modulus (GPa) = 86.24535 2.28924 44.26729
#
# Velocity S-wave (km/s) = 6.24923 1.01813 4.47713
# Velocity P-wave (km/s) = 8.74829 5.97576 7.49141
#
# Compressibility (1/GPa) = 0.01851068
#
# Stress axis : x y z
#
# Youngs Moduli (GPa) = 61.30922 61.30922 103.19911
#
# Poissons Ratio (x) = -0.00044 0.61443
# Poissons Ratio (y) = -0.00044 0.61443
# Poissons Ratio (z) = 0.36502 0.36502
#
# Static dielectric constant tensor:
#      x y z
#    x 4.804000 0.000000 0.000000 
#    y 0.000000 4.804000 0.000000 
#    z 0.000000 0.000000 4.232840 
# 
# 
# High freq. dielectric constant tensor:
#      x y z
#    x 1.868030 0.000000 0.000000 
#    y 0.000000 1.868030 0.000000 
#    z 0.000000 0.000000 1.878120 
# 
# From -- ./inp_files/4345.got.cif
#   From: 2010.03.12/outbox.cif.g09.slc.cpg/sg181_3_cif.got.tgz:4345.got - 2010.04.01 11:42:41.
