data_PCOD8326352
_publ_section_title
;
Structure prediction by ZEFSAII (Michael W. Deem and Ramdas Pophale) SiO2 
 PCOD8326352
Probable space group: P 64 2 2
;
_chemical_formula_sum "Si O2"
_cell_formula_units_Z 60
_cell_length_a 15.685376
_cell_length_b 15.685376
_cell_length_c 12.741578
_cell_angle_alpha 90.000000
_cell_angle_beta 90.000000
_cell_angle_gamma 120.000000
_cell_volume 2714.836731
_symmetry_space_group_name_H-M "P 64 2 2"
_symmetry_group_IT_number 181
_symmetry_cell_setting 'hexagonal'
loop_
_space_group_symop_operation_xyz
x,y,z
x-y,x,2/3+z
-y,x-y,1/3+z
-x,-y,z
-x+y,-x,2/3+z
y,-x+y,1/3+z
x-y,-y,-z
-x,-x+y,2/3-z
y,x,1/3-z
-y,-x,1/3-z
-x+y,y,-z
x,x-y,2/3-z
loop_
_atom_site_type_symbol
_atom_site_label
_atom_site_fract_x
_atom_site_fract_y
_atom_site_fract_z
Si Si1 0.921043 0.534794 0.586336
Si Si2 0.362137 0.800091 0.892736
Si Si3 0.344698 0.046726 0.105297
Si Si4 0.520456 0.854855 0.521607
Si Si5 0.817329 0.716560 0.112611
O O1 0.828691 0.450734 0.521877
O O2 0.879370 0.556492 0.692040
O O3 0.000000 0.500000 0.609250
O O4 0.966189 0.638456 0.526111
O O5 0.356512 0.896587 0.923528
O O6 0.262327 0.721174 0.835549
O O7 0.377805 0.755609 0.000000
O O8 0.305528 0.117362 0.142567
O O9 0.284641 0.000000 0.000000
O O10 0.450089 0.900178 0.500000
O O11 0.614029 0.903063 0.441152
O O12 0.801929 0.801929 0.166667
O O13 0.873243 0.746485 0.000000
#
# Coordination Sequence:
#
# PCOD8326352 Si02
#       5
#    12  12  12  12  12
#     4  10  22  38  63  89 131 182 238 292 348 414
#     4  10  21  36  57  90 134 173 223 291 341 395
#     4  10  20  42  70  96 122 171 226 285 357 430
#     4  11  27  36  59  91 138 198 241 279 332 415
#     4  11  26  47  71 101 141 182 234 300 369 436
#
# _framework density 22.100776
#
# number of rings (size 3 to 8) (size 9 to 14) (size 15 to 20)
#    0.000    1.600    2.000    1.200   14.000    0.000 
#    0.000    3.000    0.000    1.800    0.000    0.000 
#    0.000    0.000    0.000    0.000    0.000    0.000 
#
# Total GULP energy -744030.156858 kJ/mol
# GULP energy per Si atom -12400.502614 kJ/mol
# Density = 2.205047 g / cm^3
# Si number density = 22.100776 Si / 1000 Ang^3
#
#
#
# Elastic Constant Matrix: (Units=GPa)
#
#
# Indices 1 2 3 4 5 6 
#
# 1 76.4203 34.7884 35.2452 0.0000 0.0000 0.0000
# 2 34.7884 76.4203 35.2452 0.0000 0.0000 0.0000
# 3 35.2452 35.2452 102.4108 0.0000 0.0000 0.0000
# 4 0.0000 0.0000 0.0000 30.8072 0.0000 0.0000
# 5 0.0000 0.0000 0.0000 0.0000 30.8072 0.0000
# 6 0.0000 0.0000 0.0000 0.0000 0.0000 20.8159
#
#
#
# Elastic Compliance Matrix: (Units=1/GPa)
#
#
# Indices 1 2 3 4 5 6 
#
# 1 0.017761 -0.006260 -0.003958 0.000000 0.000000 0.000000
# 2 -0.006260 0.017761 -0.003958 0.000000 0.000000 0.000000
# 3 -0.003958 -0.003958 0.012489 0.000000 0.000000 0.000000
# 4 0.000000 0.000000 0.000000 0.032460 0.000000 0.000000
# 5 0.000000 0.000000 0.000000 0.000000 0.032460 0.000000
# 6 0.000000 0.000000 0.000000 0.000000 0.000000 0.048040
#
#
# Mechanical properties :
#
#
# Convention : Reuss Voigt Hill
#
# Bulk Modulus (GPa) = 50.86858 51.75653 51.31256
# Shear Modulus (GPa) = 25.52654 26.48423 26.00538
#
# Velocity S-wave (km/s) = 3.40223 3.46546 3.43399
# Velocity P-wave (km/s) = 6.20485 6.28345 6.24428
#
# Compressibility (1/GPa) = 0.01965850
#
# Stress axis : x y z
#
# Youngs Moduli (GPa) = 56.30463 56.30463 80.07039
#
# Poissons Ratio (x) = 0.35244 0.31693
# Poissons Ratio (y) = 0.35244 0.31693
# Poissons Ratio (z) = 0.22286 0.22286
#
# Static dielectric constant tensor:
#      x y z
#    x 3.916100 0.000000 0.000000 
#    y 0.000000 3.916100 0.000000 
#    z 0.000000 0.000000 3.868800 
# 
# 
# High freq. dielectric constant tensor:
#      x y z
#    x 1.854690 0.000000 0.000000 
#    y 0.000000 1.854690 0.000000 
#    z 0.000000 0.000000 1.872160 
# 
# From -- ./inp_files/4839.got.cif
#   From: 2010.03.12/outbox.cif.g09.slc.cpg/sg181_3_cif.got.tgz:4839.got - 2010.04.01 11:42:41.
