data_PCOD8326048
_publ_section_title
;
Structure prediction by ZEFSAII (Michael W. Deem and Ramdas Pophale) SiO2 
 PCOD8326048
Probable space group: P 65 2 2
;
_chemical_formula_sum "Si O2"
_cell_formula_units_Z 60
_cell_length_a 17.127751
_cell_length_b 17.127751
_cell_length_c 11.508517
_cell_angle_alpha 90.000000
_cell_angle_beta 90.000000
_cell_angle_gamma 120.000000
_cell_volume 2923.820297
_symmetry_space_group_name_H-M "P 65 2 2"
_symmetry_group_IT_number 179
_symmetry_cell_setting 'hexagonal'
loop_
_space_group_symop_operation_xyz
x,y,z
x-y,x,5/6+z
-y,x-y,2/3+z
-x,-y,1/2+z
-x+y,-x,1/3+z
y,-x+y,1/6+z
x-y,-y,-z
-x,-x+y,1/3-z
y,x,2/3-z
-y,-x,1/6-z
-x+y,y,1/2-z
x,x-y,5/6-z
loop_
_atom_site_type_symbol
_atom_site_label
_atom_site_fract_x
_atom_site_fract_y
_atom_site_fract_z
Si Si1 0.663379 0.861656 0.797001
Si Si2 0.250805 0.501610 0.750000
Si Si3 0.396198 0.944461 0.679299
Si Si4 0.141460 0.433992 0.974581
Si Si5 0.205085 0.559719 0.171369
Si Si6 0.834731 0.917366 0.916667
O O1 0.610611 0.911758 0.754501
O O2 0.656154 0.790772 0.698612
O O3 0.768300 0.932729 0.829297
O O4 0.614719 0.807360 0.916667
O O5 0.172199 0.439735 0.841535
O O6 0.343423 0.558319 0.818878
O O7 0.458646 0.917291 0.750000
O O8 0.382608 0.894105 0.556350
O O9 0.439281 0.051323 0.673272
O O10 0.215602 0.520009 0.048159
O O11 0.287732 0.575464 0.250000
O O12 0.896727 0.896727 0.833334
#
# Coordination Sequence:
#
# PCOD8326048 Si02
#       6
#    12   6  12  12  12   6
#     4  10  21  41  68  97 127 176 227 282 328 407
#     4  12  28  38  60  89 140 178 219 284 354 406
#     4  12  23  37  65  96 129 167 232 293 333 396
#     4  12  23  43  58  95 128 175 227 282 345 401
#     4  12  22  40  64  86 121 172 229 280 331 406
#     4  10  20  38  72 115 136 168 215 288 346 418
#
# _framework density 20.521096
#
# number of rings (size 3 to 8) (size 9 to 14) (size 15 to 20)
#    0.600    0.000    4.000    6.000    1.400    0.000 
#    0.000    3.000    0.000    4.800    0.000    0.000 
#    0.000    0.000    0.000    0.000    0.000    0.000 
#
# Total GULP energy -743536.697320 kJ/mol
# GULP energy per Si atom -12392.278289 kJ/mol
# Density = 2.047439 g / cm^3
# Si number density = 20.521096 Si / 1000 Ang^3
#
#
#
# Elastic Constant Matrix: (Units=GPa)
#
#
# Indices 1 2 3 4 5 6 
#
# 1 102.7790 42.7805 51.5585 0.0000 0.0000 0.0000
# 2 42.7805 102.7790 51.5585 0.0000 0.0000 0.0000
# 3 51.5585 51.5585 117.4089 0.0000 0.0000 0.0000
# 4 0.0000 0.0000 0.0000 29.9351 0.0000 0.0000
# 5 0.0000 0.0000 0.0000 0.0000 29.9351 0.0000
# 6 0.0000 0.0000 0.0000 0.0000 0.0000 29.9992
#
#
#
# Elastic Compliance Matrix: (Units=1/GPa)
#
#
# Indices 1 2 3 4 5 6 
#
# 1 0.013320 -0.003347 -0.004379 0.000000 0.000000 0.000000
# 2 -0.003347 0.013320 -0.004379 0.000000 0.000000 0.000000
# 3 -0.004379 -0.004379 0.012363 0.000000 0.000000 0.000000
# 4 0.000000 0.000000 0.000000 0.033406 0.000000 0.000000
# 5 0.000000 0.000000 0.000000 0.000000 0.033406 0.000000
# 6 0.000000 0.000000 0.000000 0.000000 0.000000 0.033334
#
#
# Mechanical properties :
#
#
# Convention : Reuss Voigt Hill
#
# Bulk Modulus (GPa) = 67.60767 68.30688 67.95727
# Shear Modulus (GPa) = 29.71059 29.77853 29.74456
#
# Velocity S-wave (km/s) = 3.80913 3.81349 3.81131
# Velocity P-wave (km/s) = 7.23623 7.26283 7.24954
#
# Compressibility (1/GPa) = 0.01479122
#
# Stress axis : x y z
#
# Youngs Moduli (GPa) = 75.07660 75.07660 80.88389
#
# Poissons Ratio (x) = 0.25131 0.35421
# Poissons Ratio (y) = 0.25131 0.35421
# Poissons Ratio (z) = 0.32878 0.32878
#
# Static dielectric constant tensor:
#      x y z
#    x 3.584220 0.000000 0.000000 
#    y 0.000000 3.584220 0.000000 
#    z 0.000000 0.000000 3.665510 
# 
# 
# High freq. dielectric constant tensor:
#      x y z
#    x 1.793930 0.000000 0.000000 
#    y 0.000000 1.793930 0.000000 
#    z 0.000000 0.000000 1.785880 
# 
# From -- ./inp_files/4737.got.cif
#   From: 2010.03.12/outbox.cif.g09.slc.cpg/sg179_3_cif.got.tgz:4737.got - 2010.04.02 07:08:42.
