data_PCOD8326249
_publ_section_title
;
Structure prediction by ZEFSAII (Michael W. Deem and Ramdas Pophale) SiO2 
 PCOD8326249
Probable space group: P 62 2 2
;
_chemical_formula_sum "Si O2"
_cell_formula_units_Z 24
_cell_length_a 16.026114
_cell_length_b 16.026114
_cell_length_c 4.934487
_cell_angle_alpha 90.000000
_cell_angle_beta 90.000000
_cell_angle_gamma 120.000000
_cell_volume 1097.562086
_symmetry_space_group_name_H-M "P 62 2 2"
_symmetry_group_IT_number 180
_symmetry_cell_setting 'hexagonal'
loop_
_space_group_symop_operation_xyz
x,y,z
x-y,x,1/3+z
-y,x-y,2/3+z
-x,-y,z
-x+y,-x,1/3+z
y,-x+y,2/3+z
x-y,-y,-z
-x,-x+y,1/3-z
y,x,2/3-z
-y,-x,2/3-z
-x+y,y,-z
x,x-y,1/3-z
loop_
_atom_site_type_symbol
_atom_site_label
_atom_site_fract_x
_atom_site_fract_y
_atom_site_fract_z
Si Si1 0.528143 0.359195 0.091831
Si Si2 0.894926 0.217978 0.078085
O O1 0.562503 0.437498 0.333334
O O2 0.547767 0.273884 0.166667
O O3 0.589678 0.410323 0.833334
O O4 0.415086 0.315891 0.030774
O O5 0.822609 0.177392 0.333334
O O6 0.000000 0.239443 0.166667
O O7 0.859090 0.140911 0.833334
#
# Coordination Sequence:
#
# PCOD8326249 Si02
#       2
#    12  12
#     4  11  21  35  57  86 124 169 211 250 294 350
#     4  11  24  43  66  93 125 166 212 264 328 386
#
# _framework density 21.866644999999998
#
# number of rings (size 3 to 8) (size 9 to 14) (size 15 to 20)
#    0.000    1.000    0.000   10.500    0.000    1.000 
#    0.000    7.500    0.000    7.500    0.000    0.000 
#    0.000    0.000    0.000    0.000    0.000    0.000 
#
# Total GULP energy -297706.927124 kJ/mol
# GULP energy per Si atom -12404.455297 kJ/mol
# Density = 2.181688 g / cm^3
# Si number density = 21.866645 Si / 1000 Ang^3
#
#
#
# Elastic Constant Matrix: (Units=GPa)
#
#
# Indices 1 2 3 4 5 6 
#
# 1 92.8190 58.8517 53.6644 0.0000 0.0000 0.0000
# 2 58.8517 92.8190 53.6644 0.0000 0.0000 0.0000
# 3 53.6644 53.6644 175.8990 0.0000 0.0000 0.0000
# 4 0.0000 0.0000 0.0000 40.0583 0.0000 0.0000
# 5 0.0000 0.0000 0.0000 0.0000 40.0583 0.0000
# 6 0.0000 0.0000 0.0000 0.0000 0.0000 16.9837
#
#
#
# Elastic Compliance Matrix: (Units=1/GPa)
#
#
# Indices 1 2 3 4 5 6 
#
# 1 0.018924 -0.010516 -0.002565 0.000000 0.000000 0.000000
# 2 -0.010516 0.018924 -0.002565 0.000000 0.000000 0.000000
# 3 -0.002565 -0.002565 0.007250 0.000000 0.000000 0.000000
# 4 0.000000 0.000000 0.000000 0.024964 0.000000 0.000000
# 5 0.000000 0.000000 0.000000 0.000000 0.024964 0.000000
# 6 0.000000 0.000000 0.000000 0.000000 0.000000 0.058880
#
#
# Mechanical properties :
#
#
# Convention : Reuss Voigt Hill
#
# Bulk Modulus (GPa) = 72.43138 77.09976 74.76557
# Shear Modulus (GPa) = 26.34335 32.44384 29.39359
#
# Velocity S-wave (km/s) = 3.47468 3.85608 3.67034
# Velocity P-wave (km/s) = 7.02097 7.42707 7.22687
#
# Compressibility (1/GPa) = 0.01380617
#
# Stress axis : x y z
#
# Youngs Moduli (GPa) = 52.84205 52.84205 137.92373
#
# Poissons Ratio (x) = 0.55567 0.35382
# Poissons Ratio (y) = 0.55567 0.35382
# Poissons Ratio (z) = 0.13556 0.13556
#
# Static dielectric constant tensor:
#      x y z
#    x 3.722290 0.000000 0.000000 
#    y 0.000000 3.722290 0.000000 
#    z 0.000000 0.000000 4.362900 
# 
# 
# High freq. dielectric constant tensor:
#      x y z
#    x 1.839070 0.000000 0.000000 
#    y 0.000000 1.839070 0.000000 
#    z 0.000000 0.000000 1.891830 
# 
# From -- ./inp_files/136.got.cif
#   From: 2010.03.12/outbox.cif.g09.slc.cpg/sg180_1_cif.got.tgz:136.got - 2010.04.01 11:35:50.
