data_PCOD8326519
_publ_section_title
;
Structure prediction by ZEFSAII (Michael W. Deem and Ramdas Pophale) SiO2 
 PCOD8326519
Probable space group: P 6 M M
;
_chemical_formula_sum "Si O2"
_cell_formula_units_Z 96
_cell_length_a 18.124420
_cell_length_b 18.124420
_cell_length_c 20.711580
_cell_angle_alpha 90.000000
_cell_angle_beta 90.000000
_cell_angle_gamma 120.000000
_cell_volume 5892.126979
_symmetry_space_group_name_H-M "P 6 M M"
_symmetry_group_IT_number 183
_symmetry_cell_setting 'hexagonal'
loop_
_space_group_symop_operation_xyz
x,y,z
x-y,x,z
-y,x-y,z
-x,-y,z
-x+y,-x,z
y,-x+y,z
-x+y,y,z
x,x-y,z
-y,-x,z
y,x,z
x-y,-y,z
-x,-x+y,z
loop_
_atom_site_type_symbol
_atom_site_label
_atom_site_fract_x
_atom_site_fract_y
_atom_site_fract_z
Si Si1 0.632356 0.532558 0.274570
Si Si2 0.365903 0.459686 0.649764
Si Si3 0.263774 0.899670 0.392640
Si Si4 0.098228 0.363686 0.890971
Si Si5 0.632538 0.099895 0.007655
Si Si6 0.833503 0.502671 0.783751
Si Si7 0.668713 0.501220 0.141251
Si Si8 0.100970 0.468527 0.509835
O O1 0.570004 0.429997 0.284190
O O2 0.574103 0.574103 0.273798
O O3 0.699366 0.572385 0.332138
O O4 0.684278 0.554951 0.206955
O O5 0.457694 0.542307 0.648139
O O6 0.377330 0.377330 0.659593
O O7 0.312883 0.465343 0.709615
O O8 0.322157 0.455790 0.580207
O O9 0.160443 0.839558 0.391234
O O10 0.296466 0.872709 0.455540
O O11 0.291509 0.000000 0.392087
O O12 0.163060 0.326120 0.885162
O O13 0.130607 0.428589 0.951318
O O14 0.103382 0.418084 0.828083
O O15 0.000000 0.286975 0.898512
O O16 0.570163 0.140326 0.998949
O O17 0.575086 0.000000 0.004803
O O18 0.682195 0.126530 0.076289
O O19 0.735628 0.471255 0.801592
O O20 0.853153 0.426577 0.795262
O O21 0.731572 0.463144 0.139858
O O22 0.571801 0.428200 0.142098
O O23 0.138126 0.569063 0.493774
O O24 0.000000 0.424527 0.513286
#
# Coordination Sequence:
#
# PCOD8326519 Si02
#       8
#    12  12  12  12  12  12  12  12
#     4   9  17  29  45  63  82 107 139 174 214 259
#     4   8  14  25  41  60  82 111 147 182 214 249
#     4  10  19  30  45  64  85 110 142 181 222 263
#     4  10  20  33  49  68  88 111 141 179 222 265
#     4   9  17  29  45  64  86 114 147 179 209 243
#     4  10  19  29  42  62  90 123 155 185 214 245
#     4  10  18  27  39  57  84 116 147 175 203 237
#     4   8  14  26  44  64  85 110 141 176 213 254
#
# _framework density 16.292929000000001
#
# number of rings (size 3 to 8) (size 9 to 14) (size 15 to 20)
#    0.000    2.750    0.000    3.250    0.000    4.750 
#    0.000    0.000    0.000    7.000    0.000    0.000 
#    0.000    0.000    0.000    0.000    0.000   42.250 
#
# Total GULP energy -1189532.110603 kJ/mol
# GULP energy per Si atom -12390.959485 kJ/mol
# Density = 1.625585 g / cm^3
# Si number density = 16.292929 Si / 1000 Ang^3
#
#
#
# Elastic Constant Matrix: (Units=GPa)
#
#
# Indices 1 2 3 4 5 6 
#
# 1 50.6136 36.5940 29.3247 0.0000 0.0000 0.0000
# 2 36.5940 50.6136 29.3247 0.0000 0.0000 0.0000
# 3 29.3247 29.3247 126.0054 0.0000 0.0000 0.0000
# 4 0.0000 0.0000 0.0000 14.2362 0.0000 0.0000
# 5 0.0000 0.0000 0.0000 0.0000 14.2362 0.0000
# 6 0.0000 0.0000 0.0000 0.0000 0.0000 7.0098
#
#
#
# Elastic Compliance Matrix: (Units=1/GPa)
#
#
# Indices 1 2 3 4 5 6 
#
# 1 0.042462 -0.028867 -0.003164 0.000000 0.000000 0.000000
# 2 -0.028867 0.042462 -0.003164 0.000000 0.000000 0.000000
# 3 -0.003164 -0.003164 0.009409 0.000000 0.000000 0.000000
# 4 0.000000 0.000000 0.000000 0.070243 0.000000 0.000000
# 5 0.000000 0.000000 0.000000 0.000000 0.070243 0.000000
# 6 0.000000 0.000000 0.000000 0.000000 0.000000 0.142657
#
#
# Mechanical properties :
#
#
# Convention : Reuss Voigt Hill
#
# Bulk Modulus (GPa) = 41.76623 46.41324 44.08974
# Shear Modulus (GPa) = 10.96861 15.89573 13.43217
#
# Velocity S-wave (km/s) = 2.59745 3.12688 2.87438
# Velocity P-wave (km/s) = 5.88947 6.44865 6.17539
#
# Compressibility (1/GPa) = 0.02394279
#
# Stress axis : x y z
#
# Youngs Moduli (GPa) = 23.55067 23.55067 106.28380
#
# Poissons Ratio (x) = 0.67984 0.33626
# Poissons Ratio (y) = 0.67984 0.33626
# Poissons Ratio (z) = 0.07451 0.07451
#
# Static dielectric constant tensor:
#      x y z
#    x 2.805800 0.000000 0.000000 
#    y 0.000000 2.805800 0.000000 
#    z 0.000000 0.000000 3.620780 
# 
# 
# High freq. dielectric constant tensor:
#      x y z
#    x 1.591590 0.000000 0.000000 
#    y 0.000000 1.591590 0.000000 
#    z 0.000000 0.000000 1.652470 
# 
# From -- ./inp_files/3065.got.cif
#   From: 2010.03.12/outbox.cif.g09.slc.cpg/sg183_2_cif.got.tgz:3065.got - 2010.04.01 11:53:02.
