data_PCOD8326817
_publ_section_title
;
Structure prediction by ZEFSAII (Michael W. Deem and Ramdas Pophale) SiO2 
 PCOD8326817
Probable space group: P 63 M C
;
_chemical_formula_sum "Si O2"
_cell_formula_units_Z 84
_cell_length_a 20.582495
_cell_length_b 20.582495
_cell_length_c 11.319321
_cell_angle_alpha 90.000000
_cell_angle_beta 90.000000
_cell_angle_gamma 120.000000
_cell_volume 4152.857651
_symmetry_space_group_name_H-M "P 63 M C"
_symmetry_group_IT_number 186
_symmetry_cell_setting 'hexagonal'
loop_
_space_group_symop_operation_xyz
x,y,z
x-y,x,1/2+z
-y,x-y,z
-x,-y,1/2+z
-x+y,-x,z
y,-x+y,1/2+z
-x+y,y,z
x,x-y,z
-y,-x,z
y,x,1/2+z
x-y,-y,1/2+z
-x,-x+y,1/2+z
loop_
_atom_site_type_symbol
_atom_site_label
_atom_site_fract_x
_atom_site_fract_y
_atom_site_fract_z
Si Si1 0.475109 0.806363 0.294410
Si Si2 0.606870 0.063079 0.429198
Si Si3 0.414511 0.324125 0.969429
Si Si4 0.285891 0.867495 0.723235
Si Si5 0.250564 0.997315 0.723044
Si Si6 0.875204 0.603739 0.622803
Si Si7 0.244021 0.197131 0.970243
O O1 0.418825 0.837649 0.303701
O O2 0.431643 0.715822 0.296656
O O3 0.533357 0.834016 0.400702
O O4 0.520638 0.834324 0.174003
O O5 0.539166 0.078332 0.467827
O O6 0.649485 0.115772 0.318386
O O7 0.674173 0.077808 0.517781
O O8 0.572849 0.974258 0.409392
O O9 0.331147 0.255550 0.964021
O O10 0.442769 0.334199 0.103684
O O11 0.219612 0.780389 0.726864
O O12 0.248441 0.919155 0.741342
O O13 0.212612 0.999145 0.595598
O O14 0.335522 0.067845 0.717211
O O15 0.210165 0.004371 0.843467
O O16 0.812750 0.625500 0.581192
O O17 0.225333 0.112667 0.978254
#
# Coordination Sequence:
#
# PCOD8326817 Si02
#       7
#    12  12  12  12  12  12  12
#     4  11  22  36  54  77 107 148 198 251 308 364
#     4  12  24  38  57  85 119 154 209 264 307 375
#     4  11  21  38  56  83 112 151 201 255 314 364
#     4  11  22  40  62  85 119 158 199 253 317 382
#     4  11  19  37  60  90 122 161 210 245 308 389
#     4  11  21  37  59  85 118 153 194 248 315 375
#     4  11  21  36  59  89 126 167 203 252 309 379
#
# _framework density 20.227035999999998
#
# number of rings (size 3 to 8) (size 9 to 14) (size 15 to 20)
#    0.000    0.857    5.714    4.429    0.000    1.143 
#    0.000    2.143    0.000    3.143    0.000    0.000 
#    0.000    0.000    0.000   73.714    0.000    0.000 
#
# Total GULP energy -1040614.034463 kJ/mol
# GULP energy per Si atom -12388.262315 kJ/mol
# Density = 2.018100 g / cm^3
# Si number density = 20.227036 Si / 1000 Ang^3
#
#
#
# Elastic Constant Matrix: (Units=GPa)
#
#
# Indices 1 2 3 4 5 6 
#
# 1 55.8553 33.5029 14.2950 0.0000 0.0000 0.0000
# 2 33.5029 55.8553 14.2950 0.0000 0.0000 0.0000
# 3 14.2950 14.2950 115.9649 0.0000 0.0000 0.0000
# 4 0.0000 0.0000 0.0000 19.0210 0.0000 0.0000
# 5 0.0000 0.0000 0.0000 0.0000 19.0210 0.0000
# 6 0.0000 0.0000 0.0000 0.0000 0.0000 11.1762
#
#
#
# Elastic Compliance Matrix: (Units=1/GPa)
#
#
# Indices 1 2 3 4 5 6 
#
# 1 0.028194 -0.016544 -0.001436 0.000000 0.000000 0.000000
# 2 -0.016544 0.028194 -0.001436 0.000000 0.000000 0.000000
# 3 -0.001436 -0.001436 0.008977 0.000000 0.000000 0.000000
# 4 0.000000 0.000000 0.000000 0.052573 0.000000 0.000000
# 5 0.000000 0.000000 0.000000 0.000000 0.052573 0.000000
# 6 0.000000 0.000000 0.000000 0.000000 0.000000 0.089476
#
#
# Mechanical properties :
#
#
# Convention : Reuss Voigt Hill
#
# Bulk Modulus (GPa) = 37.68807 39.09570 38.39188
# Shear Modulus (GPa) = 16.25144 20.88248 18.56696
#
# Velocity S-wave (km/s) = 2.83760 3.21659 3.03302
# Velocity P-wave (km/s) = 5.42300 5.75896 5.59350
#
# Compressibility (1/GPa) = 0.02653360
#
# Stress axis : x y z
#
# Youngs Moduli (GPa) = 35.46832 35.46832 111.39118
#
# Poissons Ratio (x) = 0.58678 0.15997
# Poissons Ratio (y) = 0.58678 0.15997
# Poissons Ratio (z) = 0.05094 0.05094
#
# Static dielectric constant tensor:
#      x y z
#    x 3.498330 0.000000 0.000000 
#    y 0.000000 3.498330 0.000000 
#    z 0.000000 0.000000 4.233370 
# 
# 
# High freq. dielectric constant tensor:
#      x y z
#    x 1.765460 0.000000 0.000000 
#    y 0.000000 1.765460 0.000000 
#    z 0.000000 0.000000 1.807240 
# 
# From -- ./inp_files/1880.got.cif
#   From: 2010.03.12/outbox.cif.g09.slc.cpg/sg186_1_cif.got.tgz:1880.got - 2010.04.01 11:56:34.
