data_PCOD8326825
_publ_section_title
;
Structure prediction by ZEFSAII (Michael W. Deem and Ramdas Pophale) SiO2 
 PCOD8326825
Probable space group: P 63 M C
;
_chemical_formula_sum "Si O2"
_cell_formula_units_Z 72
_cell_length_a 17.188732
_cell_length_b 17.188732
_cell_length_c 17.972167
_cell_angle_alpha 90.000000
_cell_angle_beta 90.000000
_cell_angle_gamma 120.000000
_cell_volume 4598.527180
_symmetry_space_group_name_H-M "P 63 M C"
_symmetry_group_IT_number 186
_symmetry_cell_setting 'hexagonal'
loop_
_space_group_symop_operation_xyz
x,y,z
x-y,x,1/2+z
-y,x-y,z
-x,-y,1/2+z
-x+y,-x,z
y,-x+y,1/2+z
-x+y,y,z
x,x-y,z
-y,-x,z
y,x,1/2+z
x-y,-y,1/2+z
-x,-x+y,1/2+z
loop_
_atom_site_type_symbol
_atom_site_label
_atom_site_fract_x
_atom_site_fract_y
_atom_site_fract_z
Si Si1 0.088431 0.354337 0.976120
Si Si2 0.356289 0.088226 0.644643
Si Si3 0.031188 0.604266 0.276412
Si Si4 0.822360 0.001598 0.729903
Si Si5 0.666848 0.511104 0.345812
Si Si6 0.302358 0.062050 0.870488
O O1 0.160614 0.321227 0.975997
O O2 0.121532 0.443199 0.926468
O O3 0.996339 0.272755 0.944953
O O4 0.072421 0.374978 0.060067
O O5 0.383390 0.191695 0.659823
O O6 0.417631 0.062254 0.694267
O O7 0.251464 0.023940 0.664566
O O8 0.060211 0.530106 0.290917
O O9 0.080395 0.682810 0.337478
O O10 0.923239 0.560383 0.285127
O O11 0.928801 0.071200 0.727437
O O12 0.782779 0.008573 0.809044
O O13 0.803494 0.901747 0.717900
O O14 0.759775 0.519550 0.318030
O O15 0.592871 0.407130 0.354548
O O16 0.311991 0.155996 0.892538
#
# Coordination Sequence:
#
# PCOD8326825 Si02
#       6
#    12  12  12  12  12  12
#     4   9  17  29  44  64  90 116 142 173 211 254
#     4   9  18  30  43  62  89 117 143 176 213 248
#     4   9  17  29  45  63  83 110 142 176 213 253
#     4   9  16  26  41  60  83 112 145 178 211 247
#     4   9  17  29  46  67  88 109 135 171 217 265
#     4   9  17  29  45  64  85 112 145 180 215 251
#
# _framework density 15.657187
#
# number of rings (size 3 to 8) (size 9 to 14) (size 15 to 20)
#    0.000    3.000    0.000    2.333    0.000    5.333 
#    0.000    0.000    0.000    3.000    0.000    0.000 
#    0.000    1.333    0.000    0.000    0.000    0.000 
#
# Total GULP energy -892673.641397 kJ/mol
# GULP energy per Si atom -12398.245019 kJ/mol
# Density = 1.562155 g / cm^3
# Si number density = 15.657187 Si / 1000 Ang^3
#
#
#
# Elastic Constant Matrix: (Units=GPa)
#
#
# Indices 1 2 3 4 5 6 
#
# 1 72.5427 31.9847 28.6931 0.0000 0.0000 0.0000
# 2 31.9847 72.5427 28.6931 0.0000 0.0000 0.0000
# 3 28.6931 28.6931 89.9911 0.0000 0.0000 0.0000
# 4 0.0000 0.0000 0.0000 17.3454 0.0000 0.0000
# 5 0.0000 0.0000 0.0000 0.0000 17.3454 0.0000
# 6 0.0000 0.0000 0.0000 0.0000 0.0000 20.2790
#
#
#
# Elastic Compliance Matrix: (Units=1/GPa)
#
#
# Indices 1 2 3 4 5 6 
#
# 1 0.018126 -0.006530 -0.003698 0.000000 0.000000 0.000000
# 2 -0.006530 0.018126 -0.003698 0.000000 0.000000 0.000000
# 3 -0.003698 -0.003698 0.013470 0.000000 0.000000 0.000000
# 4 0.000000 0.000000 0.000000 0.057652 0.000000 0.000000
# 5 0.000000 0.000000 0.000000 0.000000 0.057652 0.000000
# 6 0.000000 0.000000 0.000000 0.000000 0.000000 0.049312
#
#
# Mechanical properties :
#
#
# Convention : Reuss Voigt Hill
#
# Bulk Modulus (GPa) = 45.71743 45.97982 45.84863
# Shear Modulus (GPa) = 20.04166 20.70766 20.37466
#
# Velocity S-wave (km/s) = 3.58163 3.64066 3.61126
# Velocity P-wave (km/s) = 6.80930 6.86315 6.83628
#
# Compressibility (1/GPa) = 0.02187349
#
# Stress axis : x y z
#
# Youngs Moduli (GPa) = 55.16799 55.16799 74.23842
#
# Poissons Ratio (x) = 0.36022 0.27450
# Poissons Ratio (y) = 0.36022 0.27450
# Poissons Ratio (z) = 0.20399 0.20399
#
# Static dielectric constant tensor:
#      x y z
#    x 2.956730 0.000000 0.000000 
#    y 0.000000 2.956730 0.000000 
#    z 0.000000 0.000000 2.910820 
# 
# 
# High freq. dielectric constant tensor:
#      x y z
#    x 1.595630 0.000000 0.000000 
#    y 0.000000 1.595630 0.000000 
#    z 0.000000 0.000000 1.587160 
# 
# From -- ./inp_files/2966.got.cif
#   From: 2010.03.12/outbox.cif.g09.slc.cpg/sg186_2_cif.got.tgz:2966.got - 2010.04.01 11:56:34.
