data_PCOD8326231
_publ_section_title
;
Structure prediction by ZEFSAII (Michael W. Deem and Ramdas Pophale) SiO2 
 PCOD8326231
Probable space group: P 62 2 2
;
_chemical_formula_sum "Si O2"
_cell_formula_units_Z 42
_cell_length_a 19.350889
_cell_length_b 19.350889
_cell_length_c 5.755773
_cell_angle_alpha 90.000000
_cell_angle_beta 90.000000
_cell_angle_gamma 120.000000
_cell_volume 1866.534978
_symmetry_space_group_name_H-M "P 62 2 2"
_symmetry_group_IT_number 180
_symmetry_cell_setting 'hexagonal'
loop_
_space_group_symop_operation_xyz
x,y,z
x-y,x,1/3+z
-y,x-y,2/3+z
-x,-y,z
-x+y,-x,1/3+z
y,-x+y,2/3+z
x-y,-y,-z
-x,-x+y,1/3-z
y,x,2/3-z
-y,-x,2/3-z
-x+y,y,-z
x,x-y,1/3-z
loop_
_atom_site_type_symbol
_atom_site_label
_atom_site_fract_x
_atom_site_fract_y
_atom_site_fract_z
Si Si1 0.926774 0.853547 0.000000
Si Si2 0.183693 0.672042 0.712888
Si Si3 0.790266 0.209735 0.333334
Si Si4 0.634834 0.926327 0.336642
Si Si5 0.000000 0.220513 0.666667
O O1 0.852074 0.797996 0.162579
O O2 0.000000 0.909695 0.166667
O O3 0.268065 0.731936 0.833334
O O4 0.175472 0.587736 0.666667
O O5 0.180141 0.706583 0.463027
O O6 0.109397 0.659162 0.873214
O O7 0.778632 0.141556 0.510457
O O8 0.649249 0.000000 0.500000
O O9 0.702706 0.944540 0.151452
#
# Coordination Sequence:
#
# PCOD8326231 Si02
#       5
#     6  12   6  12   6
#     4  12  30  48  70 101 136 176 232 290 348 411
#     4  10  24  43  71 106 140 178 231 287 348 421
#     4  10  24  45  68  99 138 177 230 283 336 419
#     4  11  25  45  69 100 139 183 232 284 346 416
#     4  12  28  47  71 100 136 184 234 288 354 410
#
# _framework density 22.501586
#
# number of rings (size 3 to 8) (size 9 to 14) (size 15 to 20)
#    0.000    1.143    0.000    3.429    2.000   28.000 
#    0.000   10.714    0.000    0.000    0.000    0.000 
#    0.000    0.000    0.000    0.000    0.000    0.000 
#
# Total GULP energy -520959.175617 kJ/mol
# GULP energy per Si atom -12403.789896 kJ/mol
# Density = 2.245037 g / cm^3
# Si number density = 22.501586 Si / 1000 Ang^3
#
#
#
# Elastic Constant Matrix: (Units=GPa)
#
#
# Indices 1 2 3 4 5 6 
#
# 1 149.7892 114.6395 94.5324 0.0000 0.0000 0.0000
# 2 114.6395 149.7892 94.5324 0.0000 0.0000 0.0000
# 3 94.5324 94.5324 177.1759 0.0000 0.0000 0.0000
# 4 0.0000 0.0000 0.0000 14.4511 0.0000 0.0000
# 5 0.0000 0.0000 0.0000 0.0000 14.4511 0.0000
# 6 0.0000 0.0000 0.0000 0.0000 0.0000 17.5749
#
#
#
# Elastic Compliance Matrix: (Units=1/GPa)
#
#
# Indices 1 2 3 4 5 6 
#
# 1 0.017282 -0.011168 -0.003262 0.000000 0.000000 0.000000
# 2 -0.011168 0.017282 -0.003262 0.000000 0.000000 0.000000
# 3 -0.003262 -0.003262 0.009125 0.000000 0.000000 0.000000
# 4 0.000000 0.000000 0.000000 0.069199 0.000000 0.000000
# 5 0.000000 0.000000 0.000000 0.000000 0.069199 0.000000
# 6 0.000000 0.000000 0.000000 0.000000 0.000000 0.056899
#
#
# Mechanical properties :
#
#
# Convention : Reuss Voigt Hill
#
# Bulk Modulus (GPa) = 120.41360 120.46254 120.43807
# Shear Modulus (GPa) = 18.04148 20.83209 19.43679
#
# Velocity S-wave (km/s) = 2.83466 3.04601 2.94223
# Velocity P-wave (km/s) = 8.02142 8.12541 8.07358
#
# Compressibility (1/GPa) = 0.00830471
#
# Stress axis : x y z
#
# Youngs Moduli (GPa) = 57.86377 57.86377 109.58592
#
# Poissons Ratio (x) = 0.64621 0.35750
# Poissons Ratio (y) = 0.64621 0.35750
# Poissons Ratio (z) = 0.18877 0.18877
#
# Static dielectric constant tensor:
#      x y z
#    x 4.012570 0.000000 0.000000 
#    y 0.000000 4.012570 0.000000 
#    z 0.000000 0.000000 5.857330 
# 
# 
# High freq. dielectric constant tensor:
#      x y z
#    x 1.884560 0.000000 0.000000 
#    y 0.000000 1.884560 0.000000 
#    z 0.000000 0.000000 1.918750 
# 
# From -- ./inp_files/878.got.cif
#   From: 2010.03.12/outbox.cif.g09.slc.cpg/sg180_1_cif.got.tgz:878.got - 2010.04.01 11:35:50.
