data_PCOD8326404
_publ_section_title
;
Structure prediction by ZEFSAII (Michael W. Deem and Ramdas Pophale) SiO2 
 PCOD8326404
Probable space group: P 64 2 2
;
_chemical_formula_sum "Si O2"
_cell_formula_units_Z 60
_cell_length_a 12.295101
_cell_length_b 12.295101
_cell_length_c 24.392059
_cell_angle_alpha 90.000000
_cell_angle_beta 90.000000
_cell_angle_gamma 120.000000
_cell_volume 3193.326278
_symmetry_space_group_name_H-M "P 64 2 2"
_symmetry_group_IT_number 181
_symmetry_cell_setting 'hexagonal'
loop_
_space_group_symop_operation_xyz
x,y,z
x-y,x,2/3+z
-y,x-y,1/3+z
-x,-y,z
-x+y,-x,2/3+z
y,-x+y,1/3+z
x-y,-y,-z
-x,-x+y,2/3-z
y,x,1/3-z
-y,-x,1/3-z
-x+y,y,-z
x,x-y,2/3-z
loop_
_atom_site_type_symbol
_atom_site_label
_atom_site_fract_x
_atom_site_fract_y
_atom_site_fract_z
Si Si1 0.450639 0.291120 0.277435
Si Si2 0.302290 0.472847 0.834115
Si Si3 0.314229 0.887961 0.138379
Si Si4 0.872186 0.314038 0.931129
Si Si5 0.311939 0.455628 0.652995
O O1 0.419411 0.209706 0.333334
O O2 0.457017 0.204333 0.229397
O O3 0.576255 0.423748 0.285052
O O4 0.346738 0.330218 0.261477
O O5 0.332033 0.366089 0.814295
O O6 0.434388 0.600960 0.829894
O O7 0.194145 0.465834 0.794730
O O8 0.179518 0.820483 0.166667
O O9 0.280810 0.842313 0.076751
O O10 0.812214 0.205996 0.976870
O O11 0.390604 0.390604 0.666667
O O12 0.396109 0.603892 0.666667
#
# Coordination Sequence:
#
# PCOD8326404 Si02
#       5
#    12  12  12  12  12
#     4  11  26  38  59  89 118 158 195 241 295 347
#     4  11  22  41  58  88 122 157 195 235 298 355
#     4  11  23  35  62  94 120 152 191 253 296 343
#     4  11  22  40  63  83 120 158 194 238 291 363
#     4  11  19  37  62  90 116 146 198 240 298 348
#
# _framework density 18.789183999999999
#
# number of rings (size 3 to 8) (size 9 to 14) (size 15 to 20)
#    0.000    1.000    4.000    4.200    5.600    3.200 
#    0.000    0.000    0.000    5.400    0.000    0.000 
#    0.000    0.000    0.000    0.000    0.000    0.000 
#
# Total GULP energy -743717.366122 kJ/mol
# GULP energy per Si atom -12395.289435 kJ/mol
# Density = 1.874642 g / cm^3
# Si number density = 18.789184 Si / 1000 Ang^3
#
#
#
# Elastic Constant Matrix: (Units=GPa)
#
#
# Indices 1 2 3 4 5 6 
#
# 1 65.7785 12.6483 20.7283 0.0000 0.0000 0.0000
# 2 12.6483 65.7785 20.7283 0.0000 0.0000 0.0000
# 3 20.7283 20.7283 133.8361 0.0000 0.0000 0.0000
# 4 0.0000 0.0000 0.0000 40.5982 0.0000 0.0000
# 5 0.0000 0.0000 0.0000 0.0000 40.5982 0.0000
# 6 0.0000 0.0000 0.0000 0.0000 0.0000 26.5651
#
#
#
# Elastic Compliance Matrix: (Units=1/GPa)
#
#
# Indices 1 2 3 4 5 6 
#
# 1 0.016355 -0.002467 -0.002151 0.000000 0.000000 0.000000
# 2 -0.002467 0.016355 -0.002151 0.000000 0.000000 0.000000
# 3 -0.002151 -0.002151 0.008138 0.000000 0.000000 0.000000
# 4 0.000000 0.000000 0.000000 0.024632 0.000000 0.000000
# 5 0.000000 0.000000 0.000000 0.000000 0.024632 0.000000
# 6 0.000000 0.000000 0.000000 0.000000 0.000000 0.037643
#
#
# Mechanical properties :
#
#
# Convention : Reuss Voigt Hill
#
# Bulk Modulus (GPa) = 36.61678 41.51145 39.06412
# Shear Modulus (GPa) = 33.24578 35.63818 34.44198
#
# Velocity S-wave (km/s) = 4.21100 4.35988 4.28609
# Velocity P-wave (km/s) = 6.57068 6.89101 6.73275
#
# Compressibility (1/GPa) = 0.02730988
#
# Stress axis : x y z
#
# Youngs Moduli (GPa) = 61.14448 61.14448 122.87901
#
# Poissons Ratio (x) = 0.15084 0.26430
# Poissons Ratio (y) = 0.15084 0.26430
# Poissons Ratio (z) = 0.13152 0.13152
#
# Static dielectric constant tensor:
#      x y z
#    x 3.286580 0.000000 0.000000 
#    y 0.000000 3.286580 0.000000 
#    z 0.000000 0.000000 3.378000 
# 
# 
# High freq. dielectric constant tensor:
#      x y z
#    x 1.720610 0.000000 0.000000 
#    y 0.000000 1.720610 0.000000 
#    z 0.000000 0.000000 1.747190 
# 
# From -- ./inp_files/11164.got.cif
#   From: 2010.03.12/outbox.cif.g09.slc.cpg/sg181_6_cif.got.tgz:11164.got - 2010.04.01 11:42:41.
