data_PCOD8326977
_publ_section_title
;
Structure prediction by ZEFSAII (Michael W. Deem and Ramdas Pophale) SiO2 
 PCOD8326977
Probable space group: P -6 M 2
;
_chemical_formula_sum "Si O2"
_cell_formula_units_Z 84
_cell_length_a 17.552958
_cell_length_b 17.552958
_cell_length_c 15.542661
_cell_angle_alpha 90.000000
_cell_angle_beta 90.000000
_cell_angle_gamma 120.000000
_cell_volume 4147.215794
_symmetry_space_group_name_H-M "P -6 M 2"
_symmetry_group_IT_number 187
_symmetry_cell_setting 'hexagonal'
loop_
_space_group_symop_operation_xyz
x,y,z
-x+y,-x,-z
-y,x-y,z
x,y,-z
-x+y,-x,z
-y,x-y,-z
-y,-x,-z
-x+y,y,-z
x,x-y,-z
-x+y,y,z
x,x-y,z
-y,-x,z
loop_
_atom_site_type_symbol
_atom_site_label
_atom_site_fract_x
_atom_site_fract_y
_atom_site_fract_z
Si Si1 0.825995 0.824296 0.240984
Si Si2 0.972017 0.400328 0.337675
Si Si3 0.839033 0.506087 0.819623
Si Si4 0.285771 0.055508 0.594811
Si Si5 0.317957 0.043460 0.096586
Si Si6 0.306294 0.444524 0.092982
Si Si7 0.500050 0.664900 0.724442
O O1 0.929535 0.859069 0.253197
O O2 0.774762 0.779985 0.330062
O O3 0.791456 0.753712 0.164017
O O4 0.811678 0.905839 0.219012
O O5 0.971227 0.485614 0.377366
O O6 0.902379 0.359788 0.261793
O O7 0.947064 0.323719 0.406727
O O8 0.069112 0.425985 0.305164
O O9 0.739544 0.479088 0.793496
O O10 0.839364 0.419682 0.856652
O O11 0.873396 0.585051 0.888421
O O12 0.241980 0.024029 0.500000
O O13 0.311342 0.155671 0.612558
O O14 0.329276 0.959999 0.107653
O O15 0.287422 0.050611 0.000000
O O16 0.200431 0.400862 0.093592
O O17 0.346351 0.511668 0.171936
O O18 0.344224 0.491538 0.000000
O O19 0.525742 0.762871 0.693818
O O20 0.405328 0.594673 0.685192
#
# Coordination Sequence:
#
# PCOD8326977 Si02
#       7
#    12  12  12  12  12  12  12
#     4  11  23  40  61  87 121 159 199 244 294 353
#     4  10  20  35  58  87 118 153 195 240 292 353
#     4  11  22  38  58  83 115 153 197 247 302 361
#     4  10  21  39  64  92 121 154 191 237 298 362
#     4  11  22  37  60  85 114 154 199 245 295 350
#     4   9  17  29  47  73 104 140 185 236 288 339
#     4  10  19  32  50  76 109 148 191 238 289 342
#
# _framework density 20.254553000000001
#
# number of rings (size 3 to 8) (size 9 to 14) (size 15 to 20)
#    0.000    1.714    2.857    1.714    0.000    4.857 
#    0.000    1.429    0.000    3.714    0.000    0.000 
#    0.000    1.143    0.000    0.000    0.000    0.000 
#
# Total GULP energy -1040943.056739 kJ/mol
# GULP energy per Si atom -12392.179247 kJ/mol
# Density = 2.020845 g / cm^3
# Si number density = 20.254553 Si / 1000 Ang^3
#
#
#
# Elastic Constant Matrix: (Units=GPa)
#
#
# Indices 1 2 3 4 5 6 
#
# 1 111.0656 52.3097 30.0508 0.0000 -0.0001 0.0000
# 2 52.3097 111.0656 30.0508 0.0000 0.0001 0.0000
# 3 30.0508 30.0508 90.1888 0.0000 0.0000 0.0000
# 4 0.0000 0.0000 0.0000 15.9230 0.0000 0.0001
# 5 -0.0001 0.0001 0.0000 0.0000 15.9230 0.0000
# 6 0.0000 0.0000 0.0000 0.0001 0.0000 29.3779
#
#
#
# Elastic Compliance Matrix: (Units=1/GPa)
#
#
# Indices 1 2 3 4 5 6 
#
# 1 0.011998 -0.005022 -0.002324 0.000000 0.000000 0.000000
# 2 -0.005022 0.011998 -0.002324 0.000000 0.000000 0.000000
# 3 -0.002324 -0.002324 0.012637 0.000000 0.000000 0.000000
# 4 0.000000 0.000000 0.000000 0.062802 0.000000 0.000000
# 5 0.000000 0.000000 0.000000 0.000000 0.062802 0.000000
# 6 0.000000 0.000000 0.000000 0.000000 0.000000 0.034039
#
#
# Mechanical properties :
#
#
# Convention : Reuss Voigt Hill
#
# Bulk Modulus (GPa) = 57.83287 59.68252 58.75769
# Shear Modulus (GPa) = 22.58555 25.57206 24.07881
#
# Velocity S-wave (km/s) = 3.34291 3.55707 3.45165
# Velocity P-wave (km/s) = 6.59660 6.81179 6.70506
#
# Compressibility (1/GPa) = 0.01729120
#
# Stress axis : x y z
#
# Youngs Moduli (GPa) = 83.34889 83.34889 79.13394
#
# Poissons Ratio (x) = 0.41856 0.18394
# Poissons Ratio (y) = 0.41856 0.18394
# Poissons Ratio (z) = 0.19373 0.19373
#
# Static dielectric constant tensor:
#      x y z
#    x 3.695300 0.000000 0.000000 
#    y 0.000000 3.695300 0.000000 
#    z 0.000000 0.000000 3.535020 
# 
# 
# High freq. dielectric constant tensor:
#      x y z
#    x 1.792110 0.000000 0.000000 
#    y 0.000000 1.792110 0.000000 
#    z 0.000000 0.000000 1.767310 
# 
# From -- ./inp_files/2585.got.cif
#   From: 2010.03.12/outbox.cif.g09.slc.cpg/sg187_2_cif.got.tgz:2585.got - 2010.04.01 11:58:23.
