data_PCOD8326234
_publ_section_title
;
Structure prediction by ZEFSAII (Michael W. Deem and Ramdas Pophale) SiO2 
 PCOD8326234
Probable space group: P 62 2 2
;
_chemical_formula_sum "Si O2"
_cell_formula_units_Z 54
_cell_length_a 12.528418
_cell_length_b 12.528418
_cell_length_c 19.753037
_cell_angle_alpha 90.000000
_cell_angle_beta 90.000000
_cell_angle_gamma 120.000000
_cell_volume 2685.078447
_symmetry_space_group_name_H-M "P 62 2 2"
_symmetry_group_IT_number 180
_symmetry_cell_setting 'hexagonal'
loop_
_space_group_symop_operation_xyz
x,y,z
x-y,x,1/3+z
-y,x-y,2/3+z
-x,-y,z
-x+y,-x,1/3+z
y,-x+y,2/3+z
x-y,-y,-z
-x,-x+y,1/3-z
y,x,2/3-z
-y,-x,2/3-z
-x+y,y,-z
x,x-y,1/3-z
loop_
_atom_site_type_symbol
_atom_site_label
_atom_site_fract_x
_atom_site_fract_y
_atom_site_fract_z
Si Si1 0.316169 0.683832 0.333334
Si Si2 0.000000 0.000000 0.833334
Si Si3 0.419342 0.856892 0.222927
Si Si4 0.807077 0.027437 0.079035
Si Si5 0.741583 0.522941 0.774116
Si Si6 0.000000 0.500000 0.166667
Si Si7 0.611706 0.805853 0.166667
O O1 0.358706 0.815033 0.297144
O O2 0.419475 0.699801 0.386459
O O3 0.961710 0.885978 0.783763
O O4 0.303671 0.789731 0.173381
O O5 0.521508 0.816690 0.219292
O O6 0.500000 0.000000 0.211247
O O7 0.811897 0.156776 0.081149
O O8 0.689004 0.925121 0.119879
O O9 0.811622 0.000000 0.000000
O O10 0.618191 0.529682 0.787621
#
# Coordination Sequence:
#
# PCOD8326234 Si02
#       7
#     6   3  12  12  12   3   6
#     4  12  24  42  67 104 132 181 234 284 344 442
#     4  10  24  48  66  92 148 170 228 298 344 410
#     4  12  24  43  66  97 138 175 223 290 356 409
#     4  11  24  43  71 101 131 186 234 286 351 423
#     4  12  25  43  70  98 140 183 231 289 357 415
#     4  12  24  48  66  98 150 188 230 280 364 438
#     4  11  21  43  66  97 137 169 228 294 340 413
#
# _framework density 20.111146000000002
#
# number of rings (size 3 to 8) (size 9 to 14) (size 15 to 20)
#    0.000    0.444    6.667    2.333    1.556    0.000 
#    0.000    0.000    0.000    0.000    0.000    0.000 
#    0.000    0.000    0.000    0.000    0.000    0.000 
#
# Total GULP energy -669358.302521 kJ/mol
# GULP energy per Si atom -12395.524121 kJ/mol
# Density = 2.006537 g / cm^3
# Si number density = 20.111146 Si / 1000 Ang^3
#
#
#
# Elastic Constant Matrix: (Units=GPa)
#
#
# Indices 1 2 3 4 5 6 
#
# 1 101.9754 74.2284 45.1044 0.0000 0.0000 0.0000
# 2 74.2284 101.9754 45.1044 0.0000 0.0000 0.0000
# 3 45.1044 45.1044 129.7395 0.0000 0.0000 0.0000
# 4 0.0000 0.0000 0.0000 55.4377 0.0000 0.0000
# 5 0.0000 0.0000 0.0000 0.0000 55.4377 0.0000
# 6 0.0000 0.0000 0.0000 0.0000 0.0000 13.8735
#
#
#
# Elastic Compliance Matrix: (Units=1/GPa)
#
#
# Indices 1 2 3 4 5 6 
#
# 1 0.021472 -0.014568 -0.002400 0.000000 0.000000 0.000000
# 2 -0.014568 0.021472 -0.002400 0.000000 0.000000 0.000000
# 3 -0.002400 -0.002400 0.009377 0.000000 0.000000 0.000000
# 4 0.000000 0.000000 0.000000 0.018038 0.000000 0.000000
# 5 0.000000 0.000000 0.000000 0.000000 0.018038 0.000000
# 6 0.000000 0.000000 0.000000 0.000000 0.000000 0.072080
#
#
# Mechanical properties :
#
#
# Convention : Reuss Voigt Hill
#
# Bulk Modulus (GPa) = 73.61669 73.61830 73.61750
# Shear Modulus (GPa) = 24.54089 36.23331 30.38710
#
# Velocity S-wave (km/s) = 3.49702 4.24919 3.89132
# Velocity P-wave (km/s) = 7.27941 7.79483 7.54153
#
# Compressibility (1/GPa) = 0.01358388
#
# Stress axis : x y z
#
# Youngs Moduli (GPa) = 46.57233 46.57233 106.64800
#
# Poissons Ratio (x) = 0.67846 0.25598
# Poissons Ratio (y) = 0.67846 0.25598
# Poissons Ratio (z) = 0.11178 0.11178
#
# Static dielectric constant tensor:
#      x y z
#    x 2.867910 0.000000 0.000000 
#    y 0.000000 2.867910 0.000000 
#    z 0.000000 0.000000 4.367830 
# 
# 
# High freq. dielectric constant tensor:
#      x y z
#    x 1.796810 0.000000 0.000000 
#    y 0.000000 1.796810 0.000000 
#    z 0.000000 0.000000 1.793210 
# 
# From -- ./inp_files/8961.got.cif
#   From: 2010.03.12/outbox.cif.g09.slc.cpg/sg180_5_cif.got.tgz:8961.got - 2010.04.01 11:35:50.
