data_PCOD8326772
_publ_section_title
;
Structure prediction by ZEFSAII (Michael W. Deem and Ramdas Pophale) SiO2 
 PCOD8326772
Probable space group: P 63 M C
;
_chemical_formula_sum "Si O2"
_cell_formula_units_Z 84
_cell_length_a 18.051294
_cell_length_b 18.051294
_cell_length_c 15.726913
_cell_angle_alpha 90.000000
_cell_angle_beta 90.000000
_cell_angle_gamma 120.000000
_cell_volume 4438.035739
_symmetry_space_group_name_H-M "P 63 M C"
_symmetry_group_IT_number 186
_symmetry_cell_setting 'hexagonal'
loop_
_space_group_symop_operation_xyz
x,y,z
x-y,x,1/2+z
-y,x-y,z
-x,-y,1/2+z
-x+y,-x,z
y,-x+y,1/2+z
-x+y,y,z
x,x-y,z
-y,-x,z
y,x,1/2+z
x-y,-y,1/2+z
-x,-x+y,1/2+z
loop_
_atom_site_type_symbol
_atom_site_label
_atom_site_fract_x
_atom_site_fract_y
_atom_site_fract_z
Si Si1 0.981479 0.576024 0.095260
Si Si2 0.211711 0.963483 0.871731
Si Si3 0.172688 0.172396 0.689804
Si Si4 0.500822 0.335872 0.575370
Si Si5 0.294814 0.231390 0.033015
Si Si6 0.695994 0.561646 0.395307
Si Si7 0.168633 0.664829 0.716775
O O1 0.968866 0.484433 0.061463
O O2 0.920793 0.562240 0.175074
O O3 0.079243 0.635961 0.130615
O O4 0.955486 0.625943 0.025669
O O5 0.119534 0.880467 0.886197
O O6 0.288897 0.942903 0.869330
O O7 0.213748 0.008107 0.782788
O O8 0.232084 0.026793 0.951544
O O9 0.176645 0.088323 0.667063
O O10 0.226076 0.243118 0.618618
O O11 0.074635 0.149270 0.689058
O O12 0.477152 0.238576 0.593690
O O13 0.601964 0.398037 0.592235
O O14 0.479219 0.357295 0.480945
O O15 0.330119 0.165060 0.037745
O O16 0.787074 0.574147 0.418564
O O17 0.652355 0.497211 0.317673
O O18 0.201084 0.600542 0.685939
O O19 0.238394 0.761606 0.692011
#
# Coordination Sequence:
#
# PCOD8326772 Si02
#       7
#    12  12  12  12  12  12  12
#     4  10  21  35  51  73 104 137 170 212 268 324
#     4  10  19  33  52  77 109 144 181 221 268 318
#     4  10  21  35  53  79 112 149 188 228 269 315
#     4  10  19  32  51  76 104 136 171 212 262 320
#     4  11  21  35  56  78 104 142 188 232 272 321
#     4   9  17  30  49  72 103 135 165 208 261 315
#     4  10  19  32  51  77 107 139 173 213 262 321
#
# _framework density 18.927292000000001
#
# number of rings (size 3 to 8) (size 9 to 14) (size 15 to 20)
#    0.000    2.000    1.429    3.000    0.000    2.857 
#    0.000    1.429    0.000    4.857    0.000    0.000 
#    0.000    0.000    0.000    0.429    0.000    0.000 
#
# Total GULP energy -1040873.190226 kJ/mol
# GULP energy per Si atom -12391.347503 kJ/mol
# Density = 1.888421 g / cm^3
# Si number density = 18.927292 Si / 1000 Ang^3
#
#
#
# Elastic Constant Matrix: (Units=GPa)
#
#
# Indices 1 2 3 4 5 6 
#
# 1 107.8606 52.8424 28.5352 0.0000 0.0000 0.0000
# 2 52.8424 107.8606 28.5352 0.0000 0.0000 0.0000
# 3 28.5352 28.5352 81.5470 0.0000 0.0000 0.0000
# 4 0.0000 0.0000 0.0000 21.2891 0.0000 0.0000
# 5 0.0000 0.0000 0.0000 0.0000 21.2891 0.0000
# 6 0.0000 0.0000 0.0000 0.0000 0.0000 27.5091
#
#
#
# Elastic Compliance Matrix: (Units=1/GPa)
#
#
# Indices 1 2 3 4 5 6 
#
# 1 0.012641 -0.005535 -0.002486 0.000000 0.000000 0.000000
# 2 -0.005535 0.012641 -0.002486 0.000000 0.000000 0.000000
# 3 -0.002486 -0.002486 0.014003 0.000000 0.000000 0.000000
# 4 0.000000 0.000000 0.000000 0.046972 0.000000 0.000000
# 5 0.000000 0.000000 0.000000 0.000000 0.046972 0.000000
# 6 0.000000 0.000000 0.000000 0.000000 0.000000 0.036352
#
#
# Mechanical properties :
#
#
# Convention : Reuss Voigt Hill
#
# Bulk Modulus (GPa) = 54.73883 57.45487 56.09685
# Shear Modulus (GPa) = 25.42121 26.50783 25.96452
#
# Velocity S-wave (km/s) = 3.66881 3.74640 3.70780
# Velocity P-wave (km/s) = 6.85056 7.00967 6.93057
#
# Compressibility (1/GPa) = 0.01826857
#
# Stress axis : x y z
#
# Youngs Moduli (GPa) = 79.10930 79.10930 71.41326
#
# Poissons Ratio (x) = 0.43787 0.17757
# Poissons Ratio (y) = 0.43787 0.17757
# Poissons Ratio (z) = 0.19670 0.19670
#
# Static dielectric constant tensor:
#      x y z
#    x 3.462410 0.000000 0.000000 
#    y 0.000000 3.462410 0.000000 
#    z 0.000000 0.000000 3.314940 
# 
# 
# High freq. dielectric constant tensor:
#      x y z
#    x 1.736620 0.000000 0.000000 
#    y 0.000000 1.736620 0.000000 
#    z 0.000000 0.000000 1.710430 
# 
# From -- ./inp_files/2556.got.cif
#   From: 2010.03.12/outbox.cif.g09.slc.cpg/sg186_2_cif.got.tgz:2556.got - 2010.04.01 11:56:34.
