data_PCOD8326130
_publ_section_title
;
Structure prediction by ZEFSAII (Michael W. Deem and Ramdas Pophale) SiO2 
 PCOD8326130
Probable space group: P 62 2 2
;
_chemical_formula_sum "Si O2"
_cell_formula_units_Z 66
_cell_length_a 13.830427
_cell_length_b 13.830427
_cell_length_c 24.976234
_cell_angle_alpha 90.000000
_cell_angle_beta 90.000000
_cell_angle_gamma 120.000000
_cell_volume 4137.411943
_symmetry_space_group_name_H-M "P 62 2 2"
_symmetry_group_IT_number 180
_symmetry_cell_setting 'hexagonal'
loop_
_space_group_symop_operation_xyz
x,y,z
x-y,x,1/3+z
-y,x-y,2/3+z
-x,-y,z
-x+y,-x,1/3+z
y,-x+y,2/3+z
x-y,-y,-z
-x,-x+y,1/3-z
y,x,2/3-z
-y,-x,2/3-z
-x+y,y,-z
x,x-y,1/3-z
loop_
_atom_site_type_symbol
_atom_site_label
_atom_site_fract_x
_atom_site_fract_y
_atom_site_fract_z
Si Si1 0.543975 0.669159 0.188644
Si Si2 0.341052 0.495873 0.035298
Si Si3 0.809209 0.336138 0.118781
Si Si4 0.878320 0.549399 0.844671
Si Si5 0.409875 0.676963 0.279090
Si Si6 0.500000 0.500000 0.710771
O O1 0.585398 0.792699 0.166667
O O2 0.432656 0.576907 0.158735
O O3 0.640888 0.638122 0.181510
O O4 0.512727 0.673460 0.250717
O O5 0.303004 0.428979 0.091864
O O6 0.429730 0.629011 0.043218
O O7 0.238590 0.477180 0.000000
O O8 0.395967 0.445717 0.996225
O O9 0.844536 0.422268 0.166667
O O10 0.777308 0.214845 0.144054
O O11 0.701702 0.325359 0.089762
O O12 0.914050 0.391915 0.078816
O O13 0.391828 0.608172 0.333334
#
# Coordination Sequence:
#
# PCOD8326130 Si02
#       6
#    12  12  12  12  12   6
#     4  10  18  29  48  71  96 141 179 201 243 303
#     4  11  19  32  49  73  99 133 168 212 254 297
#     4  11  19  32  47  70 101 135 163 205 258 303
#     4  10  19  32  48  69 102 137 174 209 247 308
#     4  10  17  31  47  64 102 133 167 205 243 293
#     4  12  21  28  52  74  96 134 169 208 258 302
#
# _framework density 15.952002
#
# number of rings (size 3 to 8) (size 9 to 14) (size 15 to 20)
#    0.000    1.455    7.273    2.455    0.000    0.000 
#    0.000    7.273    0.000    0.000    0.000    0.000 
#    0.000   13.091    0.000    0.000    0.000    0.000 
#
# Total GULP energy -817649.241184 kJ/mol
# GULP energy per Si atom -12388.624866 kJ/mol
# Density = 1.591569 g / cm^3
# Si number density = 15.952002 Si / 1000 Ang^3
#
#
#
# Elastic Constant Matrix: (Units=GPa)
#
#
# Indices 1 2 3 4 5 6 
#
# 1 70.0433 38.1473 35.3232 0.0000 0.0000 0.0000
# 2 38.1473 70.0433 35.3232 0.0000 0.0000 0.0000
# 3 35.3232 35.3232 115.7089 0.0000 0.0000 0.0000
# 4 0.0000 0.0000 0.0000 28.3666 0.0000 0.0000
# 5 0.0000 0.0000 0.0000 0.0000 28.3666 0.0000
# 6 0.0000 0.0000 0.0000 0.0000 0.0000 15.9480
#
#
#
# Elastic Compliance Matrix: (Units=1/GPa)
#
#
# Indices 1 2 3 4 5 6 
#
# 1 0.021448 -0.009904 -0.003524 0.000000 0.000000 0.000000
# 2 -0.009904 0.021448 -0.003524 0.000000 0.000000 0.000000
# 3 -0.003524 -0.003524 0.010794 0.000000 0.000000 0.000000
# 4 0.000000 0.000000 0.000000 0.035253 0.000000 0.000000
# 5 0.000000 0.000000 0.000000 0.000000 0.035253 0.000000
# 6 0.000000 0.000000 0.000000 0.000000 0.000000 0.062704
#
#
# Mechanical properties :
#
#
# Convention : Reuss Voigt Hill
#
# Bulk Modulus (GPa) = 50.54143 52.59808 51.56976
# Shear Modulus (GPa) = 21.98777 24.33634 23.16205
#
# Velocity S-wave (km/s) = 3.71667 3.91013 3.81462
# Velocity P-wave (km/s) = 7.08311 7.30957 7.19723
#
# Compressibility (1/GPa) = 0.01978575
#
# Stress axis : x y z
#
# Youngs Moduli (GPa) = 46.62430 46.62430 92.64349
#
# Poissons Ratio (x) = 0.46176 0.32649
# Poissons Ratio (y) = 0.46176 0.32649
# Poissons Ratio (z) = 0.16431 0.16431
#
# Static dielectric constant tensor:
#      x y z
#    x 2.843360 0.000000 0.000000 
#    y 0.000000 2.843360 0.000000 
#    z 0.000000 0.000000 3.521180 
# 
# 
# High freq. dielectric constant tensor:
#      x y z
#    x 1.574770 0.000000 0.000000 
#    y 0.000000 1.574770 0.000000 
#    z 0.000000 0.000000 1.642850 
# 
# From -- ./inp_files/10171.got.cif
#   From: 2010.03.12/outbox.cif.g09.slc.cpg/sg180_6_cif.got.tgz:10171.got - 2010.04.01 11:35:50.
