data_PCOD8326155
_publ_section_title
;
Structure prediction by ZEFSAII (Michael W. Deem and Ramdas Pophale) SiO2 
 PCOD8326155
Probable space group: P 62 2 2
;
_chemical_formula_sum "Si O2"
_cell_formula_units_Z 63
_cell_length_a 14.483618
_cell_length_b 14.483618
_cell_length_c 19.939302
_cell_angle_alpha 90.000000
_cell_angle_beta 90.000000
_cell_angle_gamma 120.000000
_cell_volume 3622.385834
_symmetry_space_group_name_H-M "P 62 2 2"
_symmetry_group_IT_number 180
_symmetry_cell_setting 'hexagonal'
loop_
_space_group_symop_operation_xyz
x,y,z
x-y,x,1/3+z
-y,x-y,2/3+z
-x,-y,z
-x+y,-x,1/3+z
y,-x+y,2/3+z
x-y,-y,-z
-x,-x+y,1/3-z
y,x,2/3-z
-y,-x,2/3-z
-x+y,y,-z
x,x-y,1/3-z
loop_
_atom_site_type_symbol
_atom_site_label
_atom_site_fract_x
_atom_site_fract_y
_atom_site_fract_z
Si Si1 0.762155 0.686642 0.891485
Si Si2 0.986499 0.333190 0.966066
Si Si3 0.994630 0.151673 0.893940
Si Si4 0.768071 0.450231 0.103871
Si Si5 0.150684 0.571147 0.968316
Si Si6 0.000000 0.000000 0.333334
O O1 0.684950 0.684950 0.833334
O O2 0.763523 0.576174 0.883391
O O3 0.879142 0.787521 0.878386
O O4 0.719037 0.695567 0.964385
O O5 0.967902 0.243883 0.911912
O O6 0.875691 0.333471 0.967035
O O7 0.067110 0.453258 0.941068
O O8 0.920875 0.079126 0.833334
O O9 0.968570 0.072210 0.955694
O O10 0.774094 0.387047 0.166667
O O11 0.647312 0.391543 0.076232
O O12 0.841568 0.443836 0.047110
#
# Coordination Sequence:
#
# PCOD8326155 Si02
#       6
#    12  12  12  12  12   3
#     4  11  20  35  56  80 113 148 186 234 287 334
#     4  10  19  37  57  77 111 148 188 234 281 338
#     4  12  24  37  55  83 110 150 188 228 277 343
#     4  10  19  33  54  86 113 136 181 239 288 341
#     4   9  19  34  57  82 107 146 186 228 291 346
#     4  12  22  40  56  78 112 146 186 232 272 328
#
# _framework density 17.391852
#
# number of rings (size 3 to 8) (size 9 to 14) (size 15 to 20)
#    0.000    1.524    3.810    2.571    0.000    2.667 
#    0.000    0.000    0.000    0.000    0.000    0.000 
#    0.000    0.000    0.000    0.000    0.000    0.000 
#
# Total GULP energy -780623.478395 kJ/mol
# GULP energy per Si atom -12390.848863 kJ/mol
# Density = 1.735227 g / cm^3
# Si number density = 17.391852 Si / 1000 Ang^3
#
#
#
# Elastic Constant Matrix: (Units=GPa)
#
#
# Indices 1 2 3 4 5 6 
#
# 1 100.9597 43.9527 45.4198 0.0000 0.0000 0.0000
# 2 43.9527 100.9597 45.4198 0.0000 0.0000 0.0000
# 3 45.4198 45.4198 90.3096 0.0000 0.0000 0.0000
# 4 0.0000 0.0000 0.0000 21.7669 0.0000 0.0000
# 5 0.0000 0.0000 0.0000 0.0000 21.7669 0.0000
# 6 0.0000 0.0000 0.0000 0.0000 0.0000 28.5035
#
#
#
# Elastic Compliance Matrix: (Units=1/GPa)
#
#
# Indices 1 2 3 4 5 6 
#
# 1 0.013810 -0.003732 -0.005069 0.000000 0.000000 0.000000
# 2 -0.003732 0.013810 -0.005069 0.000000 0.000000 0.000000
# 3 -0.005069 -0.005069 0.016171 0.000000 0.000000 0.000000
# 4 0.000000 0.000000 0.000000 0.045941 0.000000 0.000000
# 5 0.000000 0.000000 0.000000 0.000000 0.045941 0.000000
# 6 0.000000 0.000000 0.000000 0.000000 0.000000 0.035083
#
#
# Mechanical properties :
#
#
# Convention : Reuss Voigt Hill
#
# Bulk Modulus (GPa) = 62.29348 62.42375 62.35862
# Shear Modulus (GPa) = 24.52832 24.90325 24.71578
#
# Velocity S-wave (km/s) = 3.75952 3.78814 3.77385
# Velocity P-wave (km/s) = 7.39869 7.42319 7.41095
#
# Compressibility (1/GPa) = 0.01605304
#
# Stress axis : x y z
#
# Youngs Moduli (GPa) = 72.41207 72.41207 61.83773
#
# Poissons Ratio (x) = 0.27023 0.31343
# Poissons Ratio (y) = 0.27023 0.31343
# Poissons Ratio (z) = 0.36703 0.36703
#
# Static dielectric constant tensor:
#      x y z
#    x 3.308050 0.000000 0.000000 
#    y 0.000000 3.308050 0.000000 
#    z 0.000000 0.000000 3.148920 
# 
# 
# High freq. dielectric constant tensor:
#      x y z
#    x 1.670000 0.000000 0.000000 
#    y 0.000000 1.670000 0.000000 
#    z 0.000000 0.000000 1.661550 
# 
# From -- ./inp_files/7670.got.cif
#   From: 2010.03.12/outbox.cif.g09.slc.cpg/sg180_4_cif.got.tgz:7670.got - 2010.04.01 11:35:50.
