data_PCOD8326099
_publ_section_title
;
Structure prediction by ZEFSAII (Michael W. Deem and Ramdas Pophale) SiO2 
 PCOD8326099
Probable space group: P 65 2 2
;
_chemical_formula_sum "Si O2"
_cell_formula_units_Z 48
_cell_length_a 16.165544
_cell_length_b 16.165544
_cell_length_c 10.085023
_cell_angle_alpha 90.000000
_cell_angle_beta 90.000000
_cell_angle_gamma 120.000000
_cell_volume 2282.381154
_symmetry_space_group_name_H-M "P 65 2 2"
_symmetry_group_IT_number 179
_symmetry_cell_setting 'hexagonal'
loop_
_space_group_symop_operation_xyz
x,y,z
x-y,x,5/6+z
-y,x-y,2/3+z
-x,-y,1/2+z
-x+y,-x,1/3+z
y,-x+y,1/6+z
x-y,-y,-z
-x,-x+y,1/3-z
y,x,2/3-z
-y,-x,1/6-z
-x+y,y,1/2-z
x,x-y,5/6-z
loop_
_atom_site_type_symbol
_atom_site_label
_atom_site_fract_x
_atom_site_fract_y
_atom_site_fract_z
Si Si1 0.173971 0.532978 0.787244
Si Si2 0.063749 0.752498 0.041602
Si Si3 0.359008 0.826031 0.620578
Si Si4 0.752498 0.063748 0.125066
O O1 0.280782 0.561564 0.750000
O O2 0.114258 0.422383 0.826932
O O3 0.129057 0.564528 0.666667
O O4 0.176405 0.588203 0.916667
O O5 0.139060 0.860941 0.083334
O O6 0.000000 0.702097 0.166667
O O7 0.000000 0.750710 0.916667
O O8 0.280780 0.719221 0.583334
O O9 0.411797 0.823594 0.750000
O O10 0.308127 0.885746 0.660267
O O11 0.860941 0.139060 0.083334
O O12 0.702099 0.000000 0.000000
#
# Coordination Sequence:
#
# PCOD8326099 Si02
#       4
#    12  12  12  12
#     4  11  22  36  57  87 126 170 210 246 286 337
#     4  11  24  42  64  90 120 157 200 250 310 367
#     4  11  22  36  57  87 126 170 210 246 286 337
#     4  11  24  42  64  90 120 157 200 250 310 367
#
# _framework density 21.030666
#
# number of rings (size 3 to 8) (size 9 to 14) (size 15 to 20)
#    0.000    1.000    0.000    7.500    0.000   14.000 
#    0.000    0.000    0.000    7.500    0.000    0.000 
#    0.000    0.000    0.000    0.000    0.000    0.000 
#
# Total GULP energy -595333.931331 kJ/mol
# GULP energy per Si atom -12402.790236 kJ/mol
# Density = 2.098280 g / cm^3
# Si number density = 21.030666 Si / 1000 Ang^3
#
#
#
# Elastic Constant Matrix: (Units=GPa)
#
#
# Indices 1 2 3 4 5 6 
#
# 1 65.5002 94.1593 61.2487 0.0000 0.0000 0.0000
# 2 94.1593 65.5002 61.2487 0.0000 0.0000 0.0000
# 3 61.2487 61.2487 189.0952 0.0000 0.0000 0.0000
# 4 0.0000 0.0000 0.0000 32.3691 0.0000 0.0000
# 5 0.0000 0.0000 0.0000 0.0000 32.3691 0.0000
# 6 0.0000 0.0000 0.0000 0.0000 0.0000 -14.3295
#
#
#
# Elastic Compliance Matrix: (Units=1/GPa)
#
#
# Indices 1 2 3 4 5 6 
#
# 1 -0.013279 0.021614 -0.002700 0.000000 0.000000 0.000000
# 2 0.021614 -0.013279 -0.002700 0.000000 0.000000 0.000000
# 3 -0.002700 -0.002700 0.007037 0.000000 0.000000 0.000000
# 4 0.000000 0.000000 0.000000 0.030894 0.000000 0.000000
# 5 0.000000 0.000000 0.000000 0.000000 0.030894 0.000000
# 6 0.000000 0.000000 0.000000 0.000000 0.000000 -0.069786
#
#
# Mechanical properties :
#
#
# Convention : Reuss Voigt Hill
#
# Bulk Modulus (GPa) = 77.47189 83.71210 80.59199
# Shear Modulus (GPa) = -89.85301 16.97766 -36.43768
#
# Velocity S-wave (km/s) = -6.54351 2.84435 -4.16696
# Velocity P-wave (km/s) = 4.49138 7.11887 3.90550
#
# Compressibility (1/GPa) = 0.01290791
#
# Stress axis : x y z
#
# Youngs Moduli (GPa) = -75.30569 -75.30569 142.10262
#
# Poissons Ratio (x) = 1.62764 0.38362
# Poissons Ratio (y) = 1.62764 0.38362
# Poissons Ratio (z) = -0.20330 -0.20330
#
# Static dielectric constant tensor:
#      x y z
#    x 3.908750 0.000000 0.000000 
#    y 0.000000 3.908750 0.000000 
#    z 0.000000 0.000000 3.680600 
# 
# 
# High freq. dielectric constant tensor:
#      x y z
#    x 1.821800 0.000000 0.000000 
#    y 0.000000 1.821800 0.000000 
#    z 0.000000 0.000000 1.845100 
# 
# From -- ./inp_files/2598.got.cif
#   From: 2010.03.12/outbox.cif.g09.slc.cpg/sg179_2_cif.got.tgz:2598.got - 2010.04.02 07:08:42.
