data_PCOD8326809
_publ_section_title
;
Structure prediction by ZEFSAII (Michael W. Deem and Ramdas Pophale) SiO2 
 PCOD8326809
Probable space group: P 63 M C
;
_chemical_formula_sum "Si O2"
_cell_formula_units_Z 34
_cell_length_a 11.228655
_cell_length_b 11.228655
_cell_length_c 18.440048
_cell_angle_alpha 90.000000
_cell_angle_beta 90.000000
_cell_angle_gamma 120.000000
_cell_volume 2013.483874
_symmetry_space_group_name_H-M "P 63 M C"
_symmetry_group_IT_number 186
_symmetry_cell_setting 'hexagonal'
loop_
_space_group_symop_operation_xyz
x,y,z
x-y,x,1/2+z
-y,x-y,z
-x,-y,1/2+z
-x+y,-x,z
y,-x+y,1/2+z
-x+y,y,z
x,x-y,z
-y,-x,z
y,x,1/2+z
x-y,-y,1/2+z
-x,-x+y,1/2+z
loop_
_atom_site_type_symbol
_atom_site_label
_atom_site_fract_x
_atom_site_fract_y
_atom_site_fract_z
Si Si1 0.508825 0.754413 0.756341
Si Si2 0.698804 0.849402 0.892896
Si Si3 0.843258 0.686516 0.115541
Si Si4 0.000000 0.000000 0.327699
Si Si5 0.391788 0.328214 0.523107
Si Si6 0.000000 0.000000 0.154957
O O1 0.411628 0.823256 0.749981
O O2 0.580814 0.790407 0.833452
O O3 0.622861 0.811431 0.694859
O O4 0.846111 0.923056 0.856206
O O5 0.679188 0.722326 0.943643
O O6 0.701434 0.635349 0.073362
O O7 0.924744 0.849488 0.121582
O O8 0.000000 0.000000 0.241272
O O9 0.410444 0.205222 0.558247
O O10 0.538668 0.461333 0.513719
#
# Coordination Sequence:
#
# PCOD8326809 Si02
#       6
#     6   6   6   2  12   2
#     4  10  22  36  58  83 121 157 209 244 306 354
#     4  10  21  36  62  86 121 151 199 256 297 367
#     4  12  21  40  58  87 124 161 195 259 306 371
#     4  12  21  37  62  94 114 157 203 241 315 361
#     4  10  22  36  61  86 120 154 205 245 308 361
#     4  12  21  37  56  94 114 154 200 250 306 355
#
# _framework density 16.886156
#
# number of rings (size 3 to 8) (size 9 to 14) (size 15 to 20)
#    1.412    0.000    3.529    3.529    0.000    1.412 
#    1.059    0.000    0.000    0.000    0.000    0.000 
#    0.000    0.000    0.000    0.000    0.000    0.000 
#
# Total GULP energy -421438.406803 kJ/mol
# GULP energy per Si atom -12395.247259 kJ/mol
# Density = 1.684772 g / cm^3
# Si number density = 16.886156 Si / 1000 Ang^3
#
#
#
# Elastic Constant Matrix: (Units=GPa)
#
#
# Indices 1 2 3 4 5 6 
#
# 1 79.7515 13.5588 12.0554 0.0000 0.0000 0.0000
# 2 13.5588 79.7515 12.0554 0.0000 0.0000 0.0000
# 3 12.0554 12.0554 81.8929 0.0000 0.0000 0.0000
# 4 0.0000 0.0000 0.0000 34.7259 0.0000 0.0000
# 5 0.0000 0.0000 0.0000 0.0000 34.7259 0.0000
# 6 0.0000 0.0000 0.0000 0.0000 0.0000 33.0964
#
#
#
# Elastic Compliance Matrix: (Units=1/GPa)
#
#
# Indices 1 2 3 4 5 6 
#
# 1 0.013124 -0.001983 -0.001640 0.000000 0.000000 0.000000
# 2 -0.001983 0.013124 -0.001640 0.000000 0.000000 0.000000
# 3 -0.001640 -0.001640 0.012694 0.000000 0.000000 0.000000
# 4 0.000000 0.000000 0.000000 0.028797 0.000000 0.000000
# 5 0.000000 0.000000 0.000000 0.000000 0.028797 0.000000
# 6 0.000000 0.000000 0.000000 0.000000 0.000000 0.030215
#
#
# Mechanical properties :
#
#
# Convention : Reuss Voigt Hill
#
# Bulk Modulus (GPa) = 35.19236 35.19280 35.19258
# Shear Modulus (GPa) = 34.07174 34.09140 34.08157
#
# Velocity S-wave (km/s) = 4.49679 4.49809 4.49744
# Velocity P-wave (km/s) = 6.91720 6.91835 6.91777
#
# Compressibility (1/GPa) = 0.02841525
#
# Stress axis : x y z
#
# Youngs Moduli (GPa) = 76.19600 76.19600 78.77785
#
# Poissons Ratio (x) = 0.15112 0.12920
# Poissons Ratio (y) = 0.15112 0.12920
# Poissons Ratio (z) = 0.12496 0.12496
#
# Static dielectric constant tensor:
#      x y z
#    x 3.022050 0.000000 0.000000 
#    y 0.000000 3.022050 0.000000 
#    z 0.000000 0.000000 3.114630 
# 
# 
# High freq. dielectric constant tensor:
#      x y z
#    x 1.650220 0.000000 0.000000 
#    y 0.000000 1.650220 0.000000 
#    z 0.000000 0.000000 1.655380 
# 
# From -- ./inp_files/2177.got.cif
#   From: 2010.03.12/outbox.cif.g09.slc.cpg/sg186_2_cif.got.tgz:2177.got - 2010.04.01 11:56:34.
