data_PCOD8326398
_publ_section_title
;
Structure prediction by ZEFSAII (Michael W. Deem and Ramdas Pophale) SiO2 
 PCOD8326398
Probable space group: P 64 2 2
;
_chemical_formula_sum "Si O2"
_cell_formula_units_Z 48
_cell_length_a 14.246509
_cell_length_b 14.246509
_cell_length_c 13.162465
_cell_angle_alpha 90.000000
_cell_angle_beta 90.000000
_cell_angle_gamma 120.000000
_cell_volume 2313.581349
_symmetry_space_group_name_H-M "P 64 2 2"
_symmetry_group_IT_number 181
_symmetry_cell_setting 'hexagonal'
loop_
_space_group_symop_operation_xyz
x,y,z
x-y,x,2/3+z
-y,x-y,1/3+z
-x,-y,z
-x+y,-x,2/3+z
y,-x+y,1/3+z
x-y,-y,-z
-x,-x+y,2/3-z
y,x,1/3-z
-y,-x,1/3-z
-x+y,y,-z
x,x-y,2/3-z
loop_
_atom_site_type_symbol
_atom_site_label
_atom_site_fract_x
_atom_site_fract_y
_atom_site_fract_z
Si Si1 0.358491 0.814067 0.099777
Si Si2 0.943454 0.237851 0.229848
Si Si3 0.882636 0.320398 0.549177
Si Si4 0.110913 0.453447 0.880083
O O1 0.291393 0.708608 0.166667
O O2 0.288229 0.869379 0.068968
O O3 0.470304 0.896308 0.156647
O O4 0.384334 0.768667 0.000000
O O5 0.874368 0.125633 0.166667
O O6 0.000000 0.225232 0.333334
O O7 0.028643 0.317829 0.148871
O O8 0.770234 0.215068 0.518456
O O9 0.899532 0.353146 0.665969
O O10 0.128318 0.564159 0.833334
O O11 0.000000 0.353555 0.833334
#
# Coordination Sequence:
#
# PCOD8326398 Si02
#       4
#    12  12  12  12
#     4  11  24  37  61  93 138 179 222 269 329 407
#     4  11  25  42  66  97 132 178 225 283 344 411
#     4  11  24  40  63  91 129 173 219 273 328 397
#     4  10  25  41  63  92 128 169 219 270 331 399
#
# _framework density 20.747053999999999
#
# number of rings (size 3 to 8) (size 9 to 14) (size 15 to 20)
#    0.000    1.250    2.500    1.500   17.500    0.000 
#    0.000    0.000    0.000    0.750    0.000    0.000 
#    0.000    0.000    0.000    0.000    0.000    0.000 
#
# Total GULP energy -595181.462736 kJ/mol
# GULP energy per Si atom -12399.613807 kJ/mol
# Density = 2.069983 g / cm^3
# Si number density = 20.747054 Si / 1000 Ang^3
#
#
#
# Elastic Constant Matrix: (Units=GPa)
#
#
# Indices 1 2 3 4 5 6 
#
# 1 85.7291 49.4931 57.2708 0.0000 0.0000 0.0000
# 2 49.4931 85.7291 57.2708 0.0000 0.0000 0.0000
# 3 57.2708 57.2708 147.6000 0.0000 0.0000 0.0000
# 4 0.0000 0.0000 0.0000 37.6610 0.0000 0.0000
# 5 0.0000 0.0000 0.0000 0.0000 37.6610 0.0000
# 6 0.0000 0.0000 0.0000 0.0000 0.0000 18.1180
#
#
#
# Elastic Compliance Matrix: (Units=1/GPa)
#
#
# Indices 1 2 3 4 5 6 
#
# 1 0.019306 -0.008291 -0.004274 0.000000 0.000000 0.000000
# 2 -0.008291 0.019306 -0.004274 0.000000 0.000000 0.000000
# 3 -0.004274 -0.004274 0.010092 0.000000 0.000000 0.000000
# 4 0.000000 0.000000 0.000000 0.026553 0.000000 0.000000
# 5 0.000000 0.000000 0.000000 0.000000 0.026553 0.000000
# 6 0.000000 0.000000 0.000000 0.000000 0.000000 0.055194
#
#
# Mechanical properties :
#
#
# Convention : Reuss Voigt Hill
#
# Bulk Modulus (GPa) = 66.54902 71.90307 69.22604
# Shear Modulus (GPa) = 25.55051 29.02289 27.28670
#
# Velocity S-wave (km/s) = 3.51312 3.74423 3.63051
# Velocity P-wave (km/s) = 6.97151 7.30922 7.14236
#
# Compressibility (1/GPa) = 0.01502652
#
# Stress axis : x y z
#
# Youngs Moduli (GPa) = 51.79646 51.79646 99.08811
#
# Poissons Ratio (x) = 0.42942 0.42353
# Poissons Ratio (y) = 0.42942 0.42353
# Poissons Ratio (z) = 0.22139 0.22139
#
# Static dielectric constant tensor:
#      x y z
#    x 3.792970 0.000000 0.000000 
#    y 0.000000 3.792970 0.000000 
#    z 0.000000 0.000000 4.034050 
# 
# 
# High freq. dielectric constant tensor:
#      x y z
#    x 1.801370 0.000000 0.000000 
#    y 0.000000 1.801370 0.000000 
#    z 0.000000 0.000000 1.831670 
# 
# From -- ./inp_files/4357.got.cif
#   From: 2010.03.12/outbox.cif.g09.slc.cpg/sg181_3_cif.got.tgz:4357.got - 2010.04.01 11:42:41.
