data_PCOD8326374
_publ_section_title
;
Structure prediction by ZEFSAII (Michael W. Deem and Ramdas Pophale) SiO2 
 PCOD8326374
Probable space group: P 64 2 2
;
_chemical_formula_sum "Si O2"
_cell_formula_units_Z 72
_cell_length_a 14.403475
_cell_length_b 14.403475
_cell_length_c 20.378759
_cell_angle_alpha 90.000000
_cell_angle_beta 90.000000
_cell_angle_gamma 120.000000
_cell_volume 3661.364205
_symmetry_space_group_name_H-M "P 64 2 2"
_symmetry_group_IT_number 181
_symmetry_cell_setting 'hexagonal'
loop_
_space_group_symop_operation_xyz
x,y,z
x-y,x,2/3+z
-y,x-y,1/3+z
-x,-y,z
-x+y,-x,2/3+z
y,-x+y,1/3+z
x-y,-y,-z
-x,-x+y,2/3-z
y,x,1/3-z
-y,-x,1/3-z
-x+y,y,-z
x,x-y,2/3-z
loop_
_atom_site_type_symbol
_atom_site_label
_atom_site_fract_x
_atom_site_fract_y
_atom_site_fract_z
Si Si1 0.838403 0.122990 0.495647
Si Si2 0.271447 0.516946 0.166482
Si Si3 0.820869 0.124289 0.988231
Si Si4 0.048359 0.778170 0.621281
Si Si5 0.490972 0.601720 0.392980
Si Si6 0.277914 0.742926 0.350402
O O1 0.744085 0.145686 0.520927
O O2 0.869247 0.161335 0.422403
O O3 0.938096 0.190424 0.544362
O O4 0.802025 0.000000 0.500000
O O5 0.395528 0.604473 0.166667
O O6 0.196626 0.544072 0.119529
O O7 0.240716 0.510783 0.241495
O O8 0.768414 0.192610 0.017204
O O9 0.931472 0.175940 0.027114
O O10 0.744340 0.000000 0.000000
O O11 0.124237 0.875764 0.666667
O O12 0.075027 0.683299 0.635970
O O13 0.500000 0.500000 0.418207
O O14 0.401009 0.568320 0.335360
O O15 0.253672 0.626836 0.333334
#
# Coordination Sequence:
#
# PCOD8326374 Si02
#       6
#    12  12  12  12  12  12
#     4  10  22  41  62  92 127 162 214 270 320 376
#     4  10  22  38  60  96 129 160 210 265 316 385
#     4  11  25  44  62  92 128 169 220 262 321 391
#     4  11  22  40  67  94 127 167 212 273 324 384
#     4  11  22  41  68  95 130 174 216 261 326 396
#     4  11  22  43  66  93 129 169 213 263 320 386
#
# _framework density 19.664801000000001
#
# number of rings (size 3 to 8) (size 9 to 14) (size 15 to 20)
#    0.000    1.333    5.000    0.500    2.333    1.667 
#    9.000    2.500    0.000    0.000    0.000    0.000 
#    0.000    0.000    0.000    0.000    0.000    0.000 
#
# Total GULP energy -892013.468334 kJ/mol
# GULP energy per Si atom -12389.075949 kJ/mol
# Density = 1.962004 g / cm^3
# Si number density = 19.664801 Si / 1000 Ang^3
#
#
#
# Elastic Constant Matrix: (Units=GPa)
#
#
# Indices 1 2 3 4 5 6 
#
# 1 3.8769 139.3735 19.5524 0.0000 0.0000 0.0000
# 2 139.3735 3.8769 19.5524 0.0000 0.0000 0.0000
# 3 19.5524 19.5524 81.3186 0.0000 0.0000 0.0000
# 4 0.0000 0.0000 0.0000 18.8090 0.0000 0.0000
# 5 0.0000 0.0000 0.0000 0.0000 18.8090 0.0000
# 6 0.0000 0.0000 0.0000 0.0000 0.0000 -67.7483
#
#
#
# Elastic Compliance Matrix: (Units=1/GPa)
#
#
# Indices 1 2 3 4 5 6 
#
# 1 0.000045 0.007426 -0.001796 0.000000 0.000000 0.000000
# 2 0.007426 0.000045 -0.001796 0.000000 0.000000 0.000000
# 3 -0.001796 -0.001796 0.013161 0.000000 0.000000 0.000000
# 4 0.000000 0.000000 0.000000 0.053166 0.000000 0.000000
# 5 0.000000 0.000000 0.000000 0.000000 0.053166 0.000000
# 6 0.000000 0.000000 0.000000 0.000000 0.000000 -0.014761
#
#
# Mechanical properties :
#
#
# Convention : Reuss Voigt Hill
#
# Bulk Modulus (GPa) = 47.80578 49.55876 48.68227
# Shear Modulus (GPa) = 48.01666 -11.98646 18.01510
#
# Velocity S-wave (km/s) = 4.94677 -2.47156 3.03001
# Velocity P-wave (km/s) = 7.54921 4.13662 6.08696
#
# Compressibility (1/GPa) = 0.02091797
#
# Stress axis : x y z
#
# Youngs Moduli (GPa) = 22001.45643 22001.44733 75.98113
#
# Poissons Ratio (x) = -163.37634 0.13649
# Poissons Ratio (y) = -163.37640 0.13649
# Poissons Ratio (z) = 39.52292 39.52291
#
# Static dielectric constant tensor:
#      x y z
#    x 4.527870 0.000000 0.000000 
#    y 0.000000 4.527870 0.000000 
#    z 0.000000 0.000000 -0.023370 
# 
# 
# High freq. dielectric constant tensor:
#      x y z
#    x 1.767800 0.000000 0.000000 
#    y 0.000000 1.767800 0.000000 
#    z 0.000000 0.000000 1.769070 
# 
# From -- ./inp_files/7797.got.cif
#   From: 2010.03.12/outbox.cif.g09.slc.cpg/sg181_4_cif.got.tgz:7797.got - 2010.04.01 11:42:41.
