data_PCOD8326365
_publ_section_title
;
Structure prediction by ZEFSAII (Michael W. Deem and Ramdas Pophale) SiO2 
 PCOD8326365
Probable space group: P 64 2 2
;
_chemical_formula_sum "Si O2"
_cell_formula_units_Z 60
_cell_length_a 13.924215
_cell_length_b 13.924215
_cell_length_c 15.067814
_cell_angle_alpha 90.000000
_cell_angle_beta 90.000000
_cell_angle_gamma 120.000000
_cell_volume 2530.010498
_symmetry_space_group_name_H-M "P 64 2 2"
_symmetry_group_IT_number 181
_symmetry_cell_setting 'hexagonal'
loop_
_space_group_symop_operation_xyz
x,y,z
x-y,x,2/3+z
-y,x-y,1/3+z
-x,-y,z
-x+y,-x,2/3+z
y,-x+y,1/3+z
x-y,-y,-z
-x,-x+y,2/3-z
y,x,1/3-z
-y,-x,1/3-z
-x+y,y,-z
x,x-y,2/3-z
loop_
_atom_site_type_symbol
_atom_site_label
_atom_site_fract_x
_atom_site_fract_y
_atom_site_fract_z
Si Si1 0.870078 0.229071 0.016710
Si Si2 0.377909 0.454198 0.018030
Si Si3 0.205144 0.335021 0.154542
Si Si4 0.337187 0.742437 0.258500
Si Si5 0.002671 0.131895 0.582494
O O1 0.785717 0.249026 0.074796
O O2 0.885418 0.128619 0.053059
O O3 0.818380 0.200282 0.917385
O O4 0.993409 0.335557 0.022952
O O5 0.500000 0.500000 0.062522
O O6 0.284556 0.439162 0.090443
O O7 0.383685 0.538209 0.941374
O O8 0.259093 0.259093 0.166667
O O9 0.085046 0.254376 0.114023
O O10 0.321907 0.678094 0.166667
O O11 0.302462 0.651231 0.333334
O O12 0.953510 0.046490 0.666667
O O13 0.041300 0.082600 0.500000
#
# Coordination Sequence:
#
# PCOD8326365 Si02
#       5
#    12  12  12  12  12
#     4  10  23  45  67  99 145 187 238 298 369 452
#     4   9  20  38  69 100 138 184 238 304 367 430
#     4  10  21  41  67 105 139 180 240 300 367 434
#     4  11  26  42  67 107 142 186 238 304 372 445
#     4  12  25  45  69 102 146 201 247 308 366 444
#
# _framework density 23.715316999999999
#
# number of rings (size 3 to 8) (size 9 to 14) (size 15 to 20)
#    0.000    1.600    4.000    0.600    5.600    9.600 
#    3.600    0.000    0.000   12.600    0.000    0.000 
#    0.000    0.000    0.000    0.000    0.000    0.000 
#
# Total GULP energy -743537.355989 kJ/mol
# GULP energy per Si atom -12392.289266 kJ/mol
# Density = 2.366134 g / cm^3
# Si number density = 23.715317 Si / 1000 Ang^3
#
#
#
# Elastic Constant Matrix: (Units=GPa)
#
#
# Indices 1 2 3 4 5 6 
#
# 1 83.3469 31.3927 50.1352 0.0000 0.0000 0.0000
# 2 31.3927 83.3469 50.1352 0.0000 0.0000 0.0000
# 3 50.1352 50.1352 178.8782 0.0000 0.0000 0.0000
# 4 0.0000 0.0000 0.0000 32.1198 0.0000 0.0000
# 5 0.0000 0.0000 0.0000 0.0000 32.1198 0.0000
# 6 0.0000 0.0000 0.0000 0.0000 0.0000 25.9771
#
#
#
# Elastic Compliance Matrix: (Units=1/GPa)
#
#
# Indices 1 2 3 4 5 6 
#
# 1 0.015395 -0.003853 -0.003235 0.000000 0.000000 0.000000
# 2 -0.003853 0.015395 -0.003235 0.000000 0.000000 0.000000
# 3 -0.003235 -0.003235 0.007404 0.000000 0.000000 0.000000
# 4 0.000000 0.000000 0.000000 0.031133 0.000000 0.000000
# 5 0.000000 0.000000 0.000000 0.000000 0.031133 0.000000
# 6 0.000000 0.000000 0.000000 0.000000 0.000000 0.038496
#
#
# Mechanical properties :
#
#
# Convention : Reuss Voigt Hill
#
# Bulk Modulus (GPa) = 56.98489 67.65535 62.32012
# Shear Modulus (GPa) = 30.22032 32.30392 31.26212
#
# Velocity S-wave (km/s) = 3.57360 3.69474 3.63468
# Velocity P-wave (km/s) = 6.41158 6.84043 6.62948
#
# Compressibility (1/GPa) = 0.01754851
#
# Stress axis : x y z
#
# Youngs Moduli (GPa) = 64.95559 64.95559 135.06531
#
# Poissons Ratio (x) = 0.25025 0.43695
# Poissons Ratio (y) = 0.25025 0.43695
# Poissons Ratio (z) = 0.21014 0.21014
#
# Static dielectric constant tensor:
#      x y z
#    x 4.292790 0.000000 0.000000 
#    y 0.000000 4.292790 0.000000 
#    z 0.000000 0.000000 4.612680 
# 
# 
# High freq. dielectric constant tensor:
#      x y z
#    x 1.933330 0.000000 0.000000 
#    y 0.000000 1.933330 0.000000 
#    z 0.000000 0.000000 1.931370 
# 
# From -- ./inp_files/6128.got.cif
#   From: 2010.03.12/outbox.cif.g09.slc.cpg/sg181_4_cif.got.tgz:6128.got - 2010.04.01 11:42:41.
