data_PCOD8326580
_publ_section_title
;
Structure prediction by ZEFSAII (Michael W. Deem and Ramdas Pophale) SiO2 
 PCOD8326580
Probable space group: P 6 C C
;
_chemical_formula_sum "Si O2"
_cell_formula_units_Z 90
_cell_length_a 24.269880
_cell_length_b 24.269880
_cell_length_c 8.619487
_cell_angle_alpha 90.000000
_cell_angle_beta 90.000000
_cell_angle_gamma 120.000000
_cell_volume 4396.907292
_symmetry_space_group_name_H-M "P 6 C C"
_symmetry_group_IT_number 184
_symmetry_cell_setting 'hexagonal'
loop_
_space_group_symop_operation_xyz
x,y,z
x-y,x,z
-y,x-y,z
-x,-y,z
-x+y,-x,z
y,-x+y,z
-x+y,y,1/2+z
x,x-y,1/2+z
-y,-x,1/2+z
y,x,1/2+z
x-y,-y,1/2+z
-x,-x+y,1/2+z
loop_
_atom_site_type_symbol
_atom_site_label
_atom_site_fract_x
_atom_site_fract_y
_atom_site_fract_z
Si Si1 0.916986 0.743505 0.821390
Si Si2 0.242399 0.191746 0.469748
Si Si3 0.760655 0.302077 0.344228
Si Si4 0.383667 0.268070 0.428366
Si Si5 0.769697 0.599939 0.265096
Si Si6 0.500000 0.500000 0.197985
Si Si7 0.784595 0.361501 0.015220
Si Si8 0.481703 0.406535 0.452878
O O1 0.937623 0.766509 0.647427
O O2 0.866728 0.765551 0.866057
O O3 0.887273 0.666211 0.839043
O O4 0.977619 0.783455 0.930417
O O5 0.311546 0.251289 0.438880
O O6 0.817142 0.283730 0.344887
O O7 0.769682 0.352069 0.478112
O O8 0.692765 0.239952 0.381935
O O9 0.755195 0.330229 0.180281
O O10 0.395914 0.233829 0.282903
O O11 0.405495 0.246774 0.583863
O O12 0.420162 0.342594 0.400929
O O13 0.508919 0.450525 0.302161
O O14 0.561500 0.538543 0.088695
O O15 0.859826 0.395237 0.024317
#
# Coordination Sequence:
#
# PCOD8326580 Si02
#       8
#    12  12  12  12  12   6  12  12
#     4  10  21  38  65  94 132 165 211 251 311 362
#     4  10  21  38  62  97 129 168 204 258 304 366
#     4  12  23  42  61  92 119 163 209 272 321 399
#     4  10  21  39  63  89 121 154 206 252 315 366
#     4  10  20  40  61  88 122 154 204 258 307 374
#     4  10  26  42  60  80 116 154 210 250 308 380
#     4  12  25  40  67  87 126 157 213 259 336 378
#     4  11  22  45  59  85 114 161 201 260 310 384
#
# _framework density 20.468933
#
# number of rings (size 3 to 8) (size 9 to 14) (size 15 to 20)
#    0.000    1.333    2.667    2.667    0.000    3.200 
#    4.800    0.000    0.000    0.267    0.000    1.867 
#    0.000    0.000    0.000    0.000    0.000    0.000 
#
# Total GULP energy -1115789.981984 kJ/mol
# GULP energy per Si atom -12397.666466 kJ/mol
# Density = 2.042235 g / cm^3
# Si number density = 20.468933 Si / 1000 Ang^3
#
#
#
# Elastic Constant Matrix: (Units=GPa)
#
#
# Indices 1 2 3 4 5 6 
#
# 1 103.7641 39.8401 39.3399 0.0000 0.0000 0.0000
# 2 39.8401 103.7641 39.3399 0.0000 0.0000 0.0000
# 3 39.3399 39.3399 90.8654 0.0000 0.0000 0.0000
# 4 0.0000 0.0000 0.0000 28.5865 0.0000 0.0000
# 5 0.0000 0.0000 0.0000 0.0000 28.5865 0.0000
# 6 0.0000 0.0000 0.0000 0.0000 0.0000 31.9620
#
#
#
# Elastic Compliance Matrix: (Units=1/GPa)
#
#
# Indices 1 2 3 4 5 6 
#
# 1 0.012386 -0.003257 -0.003952 0.000000 0.000000 0.000000
# 2 -0.003257 0.012386 -0.003952 0.000000 0.000000 0.000000
# 3 -0.003952 -0.003952 0.014428 0.000000 0.000000 0.000000
# 4 0.000000 0.000000 0.000000 0.034982 0.000000 0.000000
# 5 0.000000 0.000000 0.000000 0.000000 0.034982 0.000000
# 6 0.000000 0.000000 0.000000 0.000000 0.000000 0.031287
#
#
# Mechanical properties :
#
#
# Convention : Reuss Voigt Hill
#
# Bulk Modulus (GPa) = 59.25508 59.49259 59.37384
# Shear Modulus (GPa) = 29.69119 29.81858 29.75488
#
# Velocity S-wave (km/s) = 3.81274 3.82091 3.81683
# Velocity P-wave (km/s) = 6.95660 6.97092 6.96376
#
# Compressibility (1/GPa) = 0.01687619
#
# Stress axis : x y z
#
# Youngs Moduli (GPa) = 80.73413 80.73413 69.31134
#
# Poissons Ratio (x) = 0.26297 0.27395
# Poissons Ratio (y) = 0.26297 0.27395
# Poissons Ratio (z) = 0.31909 0.31909
#
# Static dielectric constant tensor:
#      x y z
#    x 3.733390 0.000000 0.000000 
#    y 0.000000 3.733390 0.000000 
#    z 0.000000 0.000000 3.710130 
# 
# 
# High freq. dielectric constant tensor:
#      x y z
#    x 1.794640 0.000000 0.000000 
#    y 0.000000 1.794640 0.000000 
#    z 0.000000 0.000000 1.804110 
# 
# From -- ./inp_files/411.got.cif
#   From: 2010.03.12/outbox.cif.g09.slc.cpg/sg184_cif.got.tgz:411.got - 2010.04.01 11:54:36.
