data_PCOD8326520
_publ_section_title
;
Structure prediction by ZEFSAII (Michael W. Deem and Ramdas Pophale) SiO2 
 PCOD8326520
Probable space group: P 6 M M
;
_chemical_formula_sum "Si O2"
_cell_formula_units_Z 96
_cell_length_a 17.662233
_cell_length_b 17.662233
_cell_length_c 20.746093
_cell_angle_alpha 90.000000
_cell_angle_beta 90.000000
_cell_angle_gamma 120.000000
_cell_volume 5604.774853
_symmetry_space_group_name_H-M "P 6 M M"
_symmetry_group_IT_number 183
_symmetry_cell_setting 'hexagonal'
loop_
_space_group_symop_operation_xyz
x,y,z
x-y,x,z
-y,x-y,z
-x,-y,z
-x+y,-x,z
y,-x+y,z
-x+y,y,z
x,x-y,z
-y,-x,z
y,x,z
x-y,-y,z
-x,-x+y,z
loop_
_atom_site_type_symbol
_atom_site_label
_atom_site_fract_x
_atom_site_fract_y
_atom_site_fract_z
Si Si1 0.511474 0.667985 0.647780
Si Si2 0.364820 0.898047 0.406350
Si Si3 0.668828 0.164018 0.271753
Si Si4 0.269393 0.369832 0.527027
Si Si5 0.897651 0.532656 0.891188
Si Si6 0.629610 0.897886 0.015778
Si Si7 0.100490 0.729787 0.769404
Si Si8 0.364991 0.466882 0.137272
O O1 0.483649 0.741825 0.647927
O O2 0.426038 0.573963 0.649076
O O3 0.567217 0.674869 0.584982
O O4 0.570390 0.676922 0.709026
O O5 0.427174 0.854347 0.411837
O O6 0.315208 0.875813 0.337125
O O7 0.293955 0.864732 0.462927
O O8 0.425214 0.000000 0.413962
O O9 0.568522 0.137043 0.271526
O O10 0.731992 0.268008 0.272039
O O11 0.685277 0.124741 0.206243
O O12 0.165115 0.330229 0.538578
O O13 0.290903 0.290903 0.521137
O O14 0.853718 0.426859 0.890100
O O15 0.874571 0.561904 0.957717
O O16 0.864839 0.566323 0.831535
O O17 0.000000 0.573571 0.884426
O O18 0.674537 0.837269 0.009421
O O19 0.704920 0.000000 0.016134
O O20 0.571508 0.866574 0.080326
O O21 0.165395 0.834606 0.760360
O O22 0.000000 0.708200 0.776973
O O23 0.427113 0.572888 0.131547
O O24 0.426227 0.426227 0.130416
#
# Coordination Sequence:
#
# PCOD8326520 Si02
#       8
#    12  12  12  12  12  12  12  12
#     4  10  20  33  50  73 100 128 156 188 227 271
#     4   9  17  29  45  64  86 114 148 184 221 264
#     4  10  18  27  39  57  84 116 148 179 213 256
#     4  10  20  33  49  69  92 119 152 190 231 273
#     4   9  17  30  49  71  93 118 149 184 222 268
#     4  10  19  31  48  69  92 119 153 192 232 274
#     4  10  20  33  50  72  97 127 163 201 239 278
#     4   9  17  29  45  63  83 111 147 186 228 272
#
# _framework density 17.128253000000001
#
# number of rings (size 3 to 8) (size 9 to 14) (size 15 to 20)
#    0.000    2.375    0.000    3.250    0.000    5.000 
#    0.000    0.000    0.000   10.375    0.000    0.000 
#    0.000    6.000    0.000    0.000    0.000   26.500 
#
# Total GULP energy -1189835.241884 kJ/mol
# GULP energy per Si atom -12394.117103 kJ/mol
# Density = 1.708927 g / cm^3
# Si number density = 17.128253 Si / 1000 Ang^3
#
#
#
# Elastic Constant Matrix: (Units=GPa)
#
#
# Indices 1 2 3 4 5 6 
#
# 1 74.3595 43.6684 28.7135 0.0000 0.0000 0.0000
# 2 43.6684 74.3595 28.7135 0.0000 0.0000 0.0000
# 3 28.7135 28.7135 137.1699 0.0000 0.0000 0.0000
# 4 0.0000 0.0000 0.0000 -24.5445 0.0000 0.0000
# 5 0.0000 0.0000 0.0000 0.0000 -24.5445 0.0000
# 6 0.0000 0.0000 0.0000 0.0000 0.0000 15.3455
#
#
#
# Elastic Compliance Matrix: (Units=1/GPa)
#
#
# Indices 1 2 3 4 5 6 
#
# 1 0.021008 -0.011575 -0.001975 0.000000 0.000000 0.000000
# 2 -0.011575 0.021008 -0.001975 0.000000 0.000000 0.000000
# 3 -0.001975 -0.001975 0.008117 0.000000 0.000000 0.000000
# 4 0.000000 0.000000 0.000000 -0.040742 0.000000 0.000000
# 5 0.000000 0.000000 0.000000 0.000000 -0.040742 0.000000
# 6 0.000000 0.000000 0.000000 0.000000 0.000000 0.065166
#
#
# Mechanical properties :
#
#
# Convention : Reuss Voigt Hill
#
# Bulk Modulus (GPa) = 52.39722 54.23109 53.31416
# Shear Modulus (GPa) = 70.20154 5.57089 37.88622
#
# Velocity S-wave (km/s) = 6.40896 1.80541 4.70820
# Velocity P-wave (km/s) = 9.24251 6.00637 7.79424
#
# Compressibility (1/GPa) = 0.01908498
#
# Stress axis : x y z
#
# Youngs Moduli (GPa) = 47.60078 47.60078 123.19922
#
# Poissons Ratio (x) = 0.55096 0.24328
# Poissons Ratio (y) = 0.55096 0.24328
# Poissons Ratio (z) = 0.09400 0.09400
#
# Static dielectric constant tensor:
#      x y z
#    x 3.069690 0.000000 0.000000 
#    y 0.000000 3.069690 0.000000 
#    z 0.000000 0.000000 3.561330 
# 
# 
# High freq. dielectric constant tensor:
#      x y z
#    x 1.634510 0.000000 0.000000 
#    y 0.000000 1.634510 0.000000 
#    z 0.000000 0.000000 1.687870 
# 
# From -- ./inp_files/3033.got.cif
#   From: 2010.03.12/outbox.cif.g09.slc.cpg/sg183_2_cif.got.tgz:3033.got - 2010.04.01 11:53:02.
