data_PCOD8326295
_publ_section_title
;
Structure prediction by ZEFSAII (Michael W. Deem and Ramdas Pophale) SiO2 
 PCOD8326295
Probable space group: P 64 2 2
;
_chemical_formula_sum "Si O2"
_cell_formula_units_Z 39
_cell_length_a 13.558081
_cell_length_b 13.558081
_cell_length_c 14.971755
_cell_angle_alpha 90.000000
_cell_angle_beta 90.000000
_cell_angle_gamma 120.000000
_cell_volume 2383.415678
_symmetry_space_group_name_H-M "P 64 2 2"
_symmetry_group_IT_number 181
_symmetry_cell_setting 'hexagonal'
loop_
_space_group_symop_operation_xyz
x,y,z
x-y,x,2/3+z
-y,x-y,1/3+z
-x,-y,z
-x+y,-x,2/3+z
y,-x+y,1/3+z
x-y,-y,-z
-x,-x+y,2/3-z
y,x,1/3-z
-y,-x,1/3-z
-x+y,y,-z
x,x-y,2/3-z
loop_
_atom_site_type_symbol
_atom_site_label
_atom_site_fract_x
_atom_site_fract_y
_atom_site_fract_z
Si Si1 0.337174 0.453425 0.409921
Si Si2 0.542093 0.657321 0.324811
Si Si3 0.338932 0.454504 0.619927
Si Si4 0.500000 0.500000 0.166667
O O1 0.423482 0.579100 0.374384
O O2 0.358151 0.355378 0.371256
O O3 0.360626 0.460174 0.514800
O O4 0.213961 0.422326 0.372351
O O5 0.575791 0.787896 0.333334
O O6 0.529432 0.612344 0.223617
O O7 0.356774 0.356774 0.666667
O O8 0.424820 0.575181 0.666667
#
# Coordination Sequence:
#
# PCOD8326295 Si02
#       4
#    12  12  12   3
#     4   9  20  31  45  75  95 117 164 194 223 287
#     4  10  19  32  48  67  98 127 153 193 237 279
#     4  10  18  31  51  69  95 127 153 193 239 273
#     4   8  20  32  44  72  94 122 164 192 224 282
#
# _framework density 16.363071000000001
#
# number of rings (size 3 to 8) (size 9 to 14) (size 15 to 20)
#    0.000    2.769    0.000    4.615    0.000   12.308 
#    0.000    0.000    0.000    0.923    0.000    4.308 
#    0.000    0.000    0.000    0.000    0.000    0.000 
#
# Total GULP energy -483259.908806 kJ/mol
# GULP energy per Si atom -12391.279713 kJ/mol
# Density = 1.632583 g / cm^3
# Si number density = 16.363071 Si / 1000 Ang^3
#
#
#
# Elastic Constant Matrix: (Units=GPa)
#
#
# Indices 1 2 3 4 5 6 
#
# 1 116.9227 73.8737 60.4387 0.0000 0.0000 0.0000
# 2 73.8737 116.9227 60.4387 0.0000 0.0000 0.0000
# 3 60.4387 60.4387 126.8939 0.0000 0.0000 0.0000
# 4 0.0000 0.0000 0.0000 20.1204 0.0000 0.0000
# 5 0.0000 0.0000 0.0000 0.0000 20.1204 0.0000
# 6 0.0000 0.0000 0.0000 0.0000 0.0000 21.5245
#
#
#
# Elastic Compliance Matrix: (Units=1/GPa)
#
#
# Indices 1 2 3 4 5 6 
#
# 1 0.015368 -0.007862 -0.003575 0.000000 0.000000 0.000000
# 2 -0.007862 0.015368 -0.003575 0.000000 0.000000 0.000000
# 3 -0.003575 -0.003575 0.011286 0.000000 0.000000 0.000000
# 4 0.000000 0.000000 0.000000 0.049701 0.000000 0.000000
# 5 0.000000 0.000000 0.000000 0.000000 0.049701 0.000000
# 6 0.000000 0.000000 0.000000 0.000000 0.000000 0.046459
#
#
# Mechanical properties :
#
#
# Convention : Reuss Voigt Hill
#
# Bulk Modulus (GPa) = 83.34701 83.36016 83.35358
# Shear Modulus (GPa) = 22.53214 23.41893 22.97553
#
# Velocity S-wave (km/s) = 3.71484 3.78723 3.75121
# Velocity P-wave (km/s) = 8.33346 8.37728 8.35540
#
# Compressibility (1/GPa) = 0.01199803
#
# Stress axis : x y z
#
# Youngs Moduli (GPa) = 65.07129 65.07129 88.60351
#
# Poissons Ratio (x) = 0.51156 0.31677
# Poissons Ratio (y) = 0.51156 0.31677
# Poissons Ratio (z) = 0.23264 0.23264
#
# Static dielectric constant tensor:
#      x y z
#    x 2.939770 0.000000 0.000000 
#    y 0.000000 2.939770 0.000000 
#    z 0.000000 0.000000 3.278070 
# 
# 
# High freq. dielectric constant tensor:
#      x y z
#    x 1.614720 0.000000 0.000000 
#    y 0.000000 1.614720 0.000000 
#    z 0.000000 0.000000 1.651980 
# 
# From -- ./inp_files/5694.got.cif
#   From: 2010.03.12/outbox.cif.g09.slc.cpg/sg181_3_cif.got.tgz:5694.got - 2010.04.01 11:42:41.
