data_PCOD8326638
_publ_section_title
;
Structure prediction by ZEFSAII (Michael W. Deem and Ramdas Pophale) SiO2 
 PCOD8326638
Probable space group: P 63 C M
;
_chemical_formula_sum "Si O2"
_cell_formula_units_Z 96
_cell_length_a 13.810180
_cell_length_b 13.810180
_cell_length_c 29.529443
_cell_angle_alpha 90.000000
_cell_angle_beta 90.000000
_cell_angle_gamma 120.000000
_cell_volume 4877.357225
_symmetry_space_group_name_H-M "P 63 C M"
_symmetry_group_IT_number 185
_symmetry_cell_setting 'hexagonal'
loop_
_space_group_symop_operation_xyz
x,y,z
x-y,x,1/2+z
-y,x-y,z
-x,-y,1/2+z
-x+y,-x,z
y,-x+y,1/2+z
-x+y,y,1/2+z
x,x-y,1/2+z
-y,-x,1/2+z
y,x,z
x-y,-y,z
-x,-x+y,z
loop_
_atom_site_type_symbol
_atom_site_label
_atom_site_fract_x
_atom_site_fract_y
_atom_site_fract_z
Si Si1 0.332863 0.209162 0.675280
Si Si2 0.546469 0.872603 0.117880
Si Si3 0.128426 0.680799 0.929247
Si Si4 0.550972 0.130889 0.200809
Si Si5 0.251597 0.125459 0.268748
Si Si6 0.654153 0.524814 0.887665
Si Si7 0.334193 0.465465 0.286546
Si Si8 0.223139 0.688371 0.020902
O O1 0.278173 0.278173 0.653554
O O2 0.349515 0.138728 0.636264
O O3 0.451155 0.293638 0.699232
O O4 0.253504 0.125924 0.714007
O O5 0.447166 0.820630 0.155397
O O6 0.510510 0.808281 0.071194
O O7 0.584021 0.000000 0.107911
O O8 0.154109 0.582029 0.917405
O O9 0.216901 0.793409 0.903203
O O10 0.000000 0.645151 0.916860
O O11 0.146168 0.701684 0.983324
O O12 0.624832 0.184098 0.246737
O O13 0.506925 0.000000 0.201634
O O14 0.169756 0.169756 0.285645
O O15 0.378245 0.200874 0.286554
O O16 0.205264 0.000000 0.287271
O O17 0.623101 0.623101 0.891771
O O18 0.636318 0.478588 0.836069
O O19 0.392321 0.392321 0.277264
O O20 0.214285 0.567092 0.014893
#
# Coordination Sequence:
#
# PCOD8326638 Si02
#       8
#    12  12  12  12  12  12  12  12
#     4  10  20  33  50  74 109 150 191 231 276 335
#     4  11  20  34  55  79 109 144 183 229 284 339
#     4  11  21  39  64  88 118 152 194 242 297 358
#     4   9  18  33  49  69 104 145 184 225 274 331
#     4  10  19  33  53  77 108 147 191 235 277 328
#     4  10  21  38  60  86 121 157 195 247 298 351
#     4   9  18  34  53  76 109 151 191 234 287 333
#     4  10  20  36  59  83 114 138 179 235 284 349
#
# _framework density 19.682791999999999
#
# number of rings (size 3 to 8) (size 9 to 14) (size 15 to 20)
#    0.250    1.750    2.500    1.875    0.000    1.500 
#    0.750    3.750    0.000    0.500    0.000    0.000 
#    0.000    0.000    0.000    0.000    0.000    0.000 
#
# Total GULP energy -1189881.577619 kJ/mol
# GULP energy per Si atom -12394.599767 kJ/mol
# Density = 1.963799 g / cm^3
# Si number density = 19.682792 Si / 1000 Ang^3
#
#
#
# Elastic Constant Matrix: (Units=GPa)
#
#
# Indices 1 2 3 4 5 6 
#
# 1 56.4206 8.2797 10.7045 0.0000 0.0000 0.0000
# 2 8.2797 56.4206 10.7045 0.0000 0.0000 0.0000
# 3 10.7045 10.7045 107.2701 0.0000 0.0000 0.0000
# 4 0.0000 0.0000 0.0000 21.4252 0.0000 0.0000
# 5 0.0000 0.0000 0.0000 0.0000 21.4252 0.0000
# 6 0.0000 0.0000 0.0000 0.0000 0.0000 24.0704
#
#
#
# Elastic Compliance Matrix: (Units=1/GPa)
#
#
# Indices 1 2 3 4 5 6 
#
# 1 0.018378 -0.002394 -0.001595 0.000000 0.000000 0.000000
# 2 -0.002394 0.018378 -0.001595 0.000000 0.000000 0.000000
# 3 -0.001595 -0.001595 0.009641 0.000000 0.000000 0.000000
# 4 0.000000 0.000000 0.000000 0.046674 0.000000 0.000000
# 5 0.000000 0.000000 0.000000 0.000000 0.046674 0.000000
# 6 0.000000 0.000000 0.000000 0.000000 0.000000 0.041545
#
#
# Mechanical properties :
#
#
# Convention : Reuss Voigt Hill
#
# Bulk Modulus (GPa) = 28.38663 31.05432 29.72047
# Shear Modulus (GPa) = 24.48570 26.07900 25.28235
#
# Velocity S-wave (km/s) = 3.53089 3.64396 3.58787
# Velocity P-wave (km/s) = 5.57461 5.78932 5.68298
#
# Compressibility (1/GPa) = 0.03522785
#
# Stress axis : x y z
#
# Youngs Moduli (GPa) = 54.41285 54.41285 103.72803
#
# Poissons Ratio (x) = 0.13028 0.16545
# Poissons Ratio (y) = 0.13028 0.16545
# Poissons Ratio (z) = 0.08679 0.08679
#
# Static dielectric constant tensor:
#      x y z
#    x 3.460680 0.000000 0.000000 
#    y 0.000000 3.460680 0.000000 
#    z 0.000000 0.000000 3.455010 
# 
# 
# High freq. dielectric constant tensor:
#      x y z
#    x 1.752450 0.000000 0.000000 
#    y 0.000000 1.752450 0.000000 
#    z 0.000000 0.000000 1.758120 
# 
# From -- ./inp_files/2235.got.cif
#   From: 2010.03.12/outbox.cif.g09.slc.cpg/sg185_cif.got.tgz:2235.got - 2010.04.01 11:55:19.
