data_PCOD8326450
_publ_section_title
;
Structure prediction by ZEFSAII (Michael W. Deem and Ramdas Pophale) SiO2 
 PCOD8326450
Probable space group: P 63 2 2
;
_chemical_formula_sum "Si O2"
_cell_formula_units_Z 80
_cell_length_a 17.006077
_cell_length_b 17.006077
_cell_length_c 17.618042
_cell_angle_alpha 90.000000
_cell_angle_beta 90.000000
_cell_angle_gamma 120.000000
_cell_volume 4412.620263
_symmetry_space_group_name_H-M "P 63 2 2"
_symmetry_group_IT_number 182
_symmetry_cell_setting 'hexagonal'
loop_
_space_group_symop_operation_xyz
x,y,z
x-y,x,1/2+z
-y,x-y,z
-x,-y,1/2+z
-x+y,-x,z
y,-x+y,1/2+z
x-y,-y,-z
-x,-x+y,-z
y,x,-z
-y,-x,1/2-z
-x+y,y,1/2-z
x,x-y,1/2-z
loop_
_atom_site_type_symbol
_atom_site_label
_atom_site_fract_x
_atom_site_fract_y
_atom_site_fract_z
Si Si1 0.000000 0.000000 0.089616
Si Si2 0.364493 0.278735 0.329928
Si Si3 0.179753 0.519706 0.566174
Si Si4 0.161420 0.964447 0.415096
Si Si5 0.333334 0.666668 0.661592
Si Si6 0.088111 0.739716 0.839726
Si Si7 0.240181 0.937278 0.065714
Si Si8 0.329858 0.480862 0.527490
O O1 0.079558 0.100246 0.117425
O O2 0.000000 0.000000 0.000000
O O3 0.336574 0.174967 0.338195
O O4 0.382511 0.309570 0.242161
O O5 0.280681 0.289792 0.356753
O O6 0.449466 0.334279 0.386130
O O7 0.235180 0.587390 0.634956
O O8 0.099721 0.424224 0.598799
O O9 0.250463 0.505194 0.516348
O O10 0.139763 0.570514 0.513878
O O11 0.138872 0.860921 0.415586
O O12 0.185785 0.000000 0.500000
O O13 0.248938 0.008299 0.361175
O O14 0.333334 0.666667 0.750000
O O15 0.308013 0.903744 0.034799
O O16 0.233001 0.000000 0.000000
#
# Coordination Sequence:
#
# PCOD8326450 Si02
#       8
#     4  12  12  12   4  12  12  12
#     4   9  18  30  51  76 101 133 184 227 244 300
#     4   9  19  34  49  72 103 141 168 202 259 311
#     4   9  18  30  48  76 105 127 163 211 258 315
#     4  11  19  31  50  74  99 135 177 219 260 295
#     4   9  18  24  48  78  99 132 165 196 257 319
#     4  10  20  31  50  76 108 134 167 212 258 316
#     4  10  19  35  53  68  98 137 176 211 259 316
#     4   9  18  33  53  75 100 134 168 213 259 314
#
# _framework density 18.129816999999999
#
# number of rings (size 3 to 8) (size 9 to 14) (size 15 to 20)
#    0.000    2.400    0.000    5.250    6.300    0.600 
#    0.000    6.750    0.000    1.800    0.000    0.000 
#    0.000    0.000    0.000    0.000    0.000    0.000 
#
# Total GULP energy -991450.739446 kJ/mol
# GULP energy per Si atom -12393.134243 kJ/mol
# Density = 1.808855 g / cm^3
# Si number density = 18.129817 Si / 1000 Ang^3
#
#
#
# Elastic Constant Matrix: (Units=GPa)
#
#
# Indices 1 2 3 4 5 6 
#
# 1 89.9212 35.2560 20.2467 0.0000 0.0000 0.0000
# 2 35.2560 89.9210 20.2466 0.0000 0.0000 0.0000
# 3 20.2467 20.2466 42.1049 0.0000 0.0000 0.0000
# 4 0.0000 0.0000 0.0000 13.1102 0.0000 0.0000
# 5 0.0000 0.0000 0.0000 0.0000 13.1102 0.0000
# 6 0.0000 0.0000 0.0000 0.0000 0.0000 27.3325
#
#
#
# Elastic Compliance Matrix: (Units=1/GPa)
#
#
# Indices 1 2 3 4 5 6 
#
# 1 0.013877 -0.004416 -0.004549 0.000000 0.000000 0.000000
# 2 -0.004416 0.013877 -0.004549 0.000000 0.000000 0.000000
# 3 -0.004549 -0.004549 0.028125 0.000000 0.000000 0.000000
# 4 0.000000 0.000000 0.000000 0.076276 0.000000 0.000000
# 5 0.000000 0.000000 0.000000 0.000000 0.076276 0.000000
# 6 0.000000 0.000000 0.000000 0.000000 0.000000 0.036587
#
#
# Mechanical properties :
#
#
# Convention : Reuss Voigt Hill
#
# Bulk Modulus (GPa) = 34.66283 41.49397 38.07840
# Shear Modulus (GPa) = 17.75167 20.45711 19.10439
#
# Velocity S-wave (km/s) = 3.13252 3.36276 3.24968
# Velocity P-wave (km/s) = 5.67841 6.16558 5.92700
#
# Compressibility (1/GPa) = 0.02884935
#
# Stress axis : x y z
#
# Youngs Moduli (GPa) = 72.06314 72.06308 35.55536
#
# Poissons Ratio (x) = 0.31826 0.16174
# Poissons Ratio (y) = 0.31826 0.16174
# Poissons Ratio (z) = 0.32782 0.32782
#
# Static dielectric constant tensor:
#      x y z
#    x 3.438070 0.000000 0.000000 
#    y 0.000000 3.438070 0.000000 
#    z 0.000000 0.000000 3.172580 
# 
# 
# High freq. dielectric constant tensor:
#      x y z
#    x 1.699540 0.000000 0.000000 
#    y 0.000000 1.699540 0.000000 
#    z 0.000000 0.000000 1.662760 
# 
# From -- ./inp_files/4493.got.cif
#   From: 2010.03.12/outbox.cif.g09.slc.cpg/sg182_3_cif.got.tgz:4493.got - 2010.04.01 11:49:36.
