data_PCOD8326926
_publ_section_title
;
Structure prediction by ZEFSAII (Michael W. Deem and Ramdas Pophale) SiO2 
 PCOD8326926
Probable space group: P -6 M 2
;
_chemical_formula_sum "Si O2"
_cell_formula_units_Z 90
_cell_length_a 17.576311
_cell_length_b 17.576311
_cell_length_c 20.495366
_cell_angle_alpha 90.000000
_cell_angle_beta 90.000000
_cell_angle_gamma 120.000000
_cell_volume 5483.296963
_symmetry_space_group_name_H-M "P -6 M 2"
_symmetry_group_IT_number 187
_symmetry_cell_setting 'hexagonal'
loop_
_space_group_symop_operation_xyz
x,y,z
-x+y,-x,-z
-y,x-y,z
x,y,-z
-x+y,-x,z
-y,x-y,-z
-y,-x,-z
-x+y,y,-z
x,x-y,-z
-x+y,y,z
x,x-y,z
-y,-x,z
loop_
_atom_site_type_symbol
_atom_site_label
_atom_site_fract_x
_atom_site_fract_y
_atom_site_fract_z
Si Si1 0.829407 0.999758 0.128750
Si Si2 0.158143 0.665771 0.926256
Si Si3 0.030313 0.426734 0.192069
Si Si4 0.634606 0.906151 0.311024
Si Si5 0.730112 0.095578 0.120844
Si Si6 0.172140 0.000023 0.716564
Si Si7 0.333408 0.841877 0.425728
Si Si8 0.489196 0.157573 0.000000
O O1 0.929240 0.070761 0.109300
O O2 0.761475 0.026634 0.098187
O O3 0.808493 0.904246 0.102682
O O4 0.817725 0.998073 0.206070
O O5 0.189776 0.594888 0.917755
O O6 0.239712 0.760289 0.910701
O O7 0.082810 0.647090 0.874561
O O8 0.122559 0.661430 0.000000
O O9 0.011441 0.505721 0.202670
O O10 0.080693 0.420937 0.254789
O O11 0.939167 0.335601 0.182598
O O12 0.630356 0.815178 0.294506
O O13 0.736226 0.983169 0.314506
O O14 0.590737 0.904316 0.380234
O O15 0.814730 0.185271 0.144127
O O16 0.679697 0.110255 0.062236
O O17 0.075248 0.924753 0.694253
O O18 0.187590 0.093795 0.691907
O O19 0.335576 0.872659 0.500000
O O20 0.425410 0.850819 0.405199
O O21 0.259461 0.740540 0.416546
O O22 0.571661 0.143322 0.000000
O O23 0.521876 0.260938 0.000000
#
# Coordination Sequence:
#
# PCOD8326926 Si02
#       8
#    12  12  12  12  12  12  12   6
#     4   9  16  28  47  70  96 124 155 189 227 276
#     4   9  18  31  46  63  86 118 154 185 215 257
#     4  11  21  31  46  68  93 120 150 188 236 290
#     4  10  19  30  46  69  99 129 158 196 240 283
#     4  10  21  35  51  69  90 117 151 195 244 288
#     4   9  16  27  45  69  95 125 159 192 225 267
#     4   9  17  30  48  69  94 127 167 207 244 284
#     4  10  21  38  57  72  86 110 150 200 249 298
#
# _framework density 16.413481999999998
#
# number of rings (size 3 to 8) (size 9 to 14) (size 15 to 20)
#    0.000    2.400    1.333    1.800    0.933    2.667 
#    0.000    0.333    0.000    4.933    0.000    0.933 
#    0.000    1.067    0.000    0.000    0.000    1.333 
#
# Total GULP energy -1115874.995133 kJ/mol
# GULP energy per Si atom -12398.611057 kJ/mol
# Density = 1.637612 g / cm^3
# Si number density = 16.413482 Si / 1000 Ang^3
#
#
#
# Elastic Constant Matrix: (Units=GPa)
#
#
# Indices 1 2 3 4 5 6 
#
# 1 108.8370 59.9338 40.4462 0.0000 -0.0003 0.0000
# 2 59.9338 108.8370 40.4462 0.0000 0.0003 0.0000
# 3 40.4462 40.4462 65.5822 0.0000 0.0000 0.0000
# 4 0.0000 0.0000 0.0000 17.9693 0.0000 0.0003
# 5 -0.0003 0.0003 0.0000 0.0000 17.9693 0.0000
# 6 0.0000 0.0000 0.0000 0.0003 0.0000 24.4516
#
#
#
# Elastic Compliance Matrix: (Units=1/GPa)
#
#
# Indices 1 2 3 4 5 6 
#
# 1 0.014430 -0.006018 -0.005188 0.000000 0.000000 0.000000
# 2 -0.006018 0.014430 -0.005188 0.000000 0.000000 0.000000
# 3 -0.005188 -0.005188 0.021647 0.000000 0.000000 0.000000
# 4 0.000000 0.000000 0.000000 0.055651 0.000000 -0.000001
# 5 0.000000 0.000000 0.000000 0.000000 0.055651 0.000000
# 6 0.000000 0.000000 0.000000 -0.000001 0.000000 0.040897
#
#
# Mechanical properties :
#
#
# Convention : Reuss Voigt Hill
#
# Bulk Modulus (GPa) = 56.43542 62.76765 59.60153
# Shear Modulus (GPa) = 20.71257 21.57337 21.14297
#
# Velocity S-wave (km/s) = 3.55621 3.62936 3.59297
# Velocity P-wave (km/s) = 7.16383 7.47579 7.32147
#
# Compressibility (1/GPa) = 0.01771937
#
# Stress axis : x y z
#
# Youngs Moduli (GPa) = 69.29955 69.29955 46.19620
#
# Poissons Ratio (x) = 0.41707 0.23965
# Poissons Ratio (y) = 0.41707 0.23965
# Poissons Ratio (z) = 0.35951 0.35951
#
# Static dielectric constant tensor:
#      x y z
#    x 3.177920 0.000000 0.000000 
#    y 0.000000 3.177920 0.000000 
#    z 0.000000 0.000000 2.880090 
# 
# 
# High freq. dielectric constant tensor:
#      x y z
#    x 1.633190 0.000000 0.000000 
#    y 0.000000 1.633190 0.000000 
#    z 0.000000 0.000000 1.596320 
# 
# From -- ./inp_files/3258.got.cif
#   From: 2010.03.12/outbox.cif.g09.slc.cpg/sg187_2_cif.got.tgz:3258.got - 2010.04.01 11:58:23.
