data_PCOD8326521
_publ_section_title
;
Structure prediction by ZEFSAII (Michael W. Deem and Ramdas Pophale) SiO2 
 PCOD8326521
Probable space group: P 6 M M
;
_chemical_formula_sum "Si O2"
_cell_formula_units_Z 84
_cell_length_a 22.558787
_cell_length_b 22.558787
_cell_length_c 12.823025
_cell_angle_alpha 90.000000
_cell_angle_beta 90.000000
_cell_angle_gamma 120.000000
_cell_volume 5651.355245
_symmetry_space_group_name_H-M "P 6 M M"
_symmetry_group_IT_number 183
_symmetry_cell_setting 'hexagonal'
loop_
_space_group_symop_operation_xyz
x,y,z
x-y,x,z
-y,x-y,z
-x,-y,z
-x+y,-x,z
y,-x+y,z
-x+y,y,z
x,x-y,z
-y,-x,z
y,x,z
x-y,-y,z
-x,-x+y,z
loop_
_atom_site_type_symbol
_atom_site_label
_atom_site_fract_x
_atom_site_fract_y
_atom_site_fract_z
Si Si1 0.285304 0.433044 0.250000
Si Si2 0.393878 0.919021 0.661157
Si Si3 0.590979 0.671985 0.860064
Si Si4 0.793249 0.076058 0.184219
Si Si5 0.793166 0.076427 0.942694
Si Si6 0.921110 0.530552 0.427794
Si Si7 0.390619 0.920851 0.069345
O O1 0.228198 0.456396 0.246439
O O2 0.249122 0.351001 0.251316
O O3 0.329491 0.460498 0.354585
O O4 0.334950 0.464077 0.151568
O O5 0.443854 0.887708 0.676403
O O6 0.335569 0.887514 0.750695
O O7 0.361388 0.902004 0.545678
O O8 0.438505 0.000000 0.674086
O O9 0.630920 0.630920 0.854523
O O10 0.646371 0.751336 0.878498
O O11 0.536911 0.641048 0.954470
O O12 0.874457 0.125544 0.202612
O O13 0.773712 0.000000 0.219844
O O14 0.774464 0.077468 0.063460
O O15 0.873619 0.126382 0.920889
O O16 0.774028 0.000000 0.908536
O O17 0.910278 0.455139 0.413400
O O18 0.000000 0.586076 0.401113
O O19 0.456295 0.912590 0.080809
O O20 0.411153 0.000000 0.089825
#
# Coordination Sequence:
#
# PCOD8326521 Si02
#       7
#    12  12  12  12  12  12  12
#     4  11  20  28  40  58  85 114 143 178 212 251
#     4   8  14  25  41  62  86 110 135 166 207 250
#     4   9  15  24  40  63  90 113 133 161 203 255
#     4   9  16  26  40  58  81 109 139 172 211 256
#     4   9  16  26  40  59  84 113 143 173 210 255
#     4   9  17  30  48  65  82 108 142 179 215 251
#     4  10  18  27  43  66  88 109 135 170 209 249
#
# _framework density 14.863690999999999
#
# number of rings (size 3 to 8) (size 9 to 14) (size 15 to 20)
#    0.000    2.714    1.429    3.000    0.000    2.857 
#    0.000    0.714    0.000    2.571    0.000    2.000 
#    0.000    0.000    0.000    0.000    0.000    0.000 
#
# Total GULP energy -1041174.742725 kJ/mol
# GULP energy per Si atom -12394.937413 kJ/mol
# Density = 1.482986 g / cm^3
# Si number density = 14.863691 Si / 1000 Ang^3
#
#
#
# Elastic Constant Matrix: (Units=GPa)
#
#
# Indices 1 2 3 4 5 6 
#
# 1 78.3158 38.9036 41.2023 0.0000 0.0000 0.0000
# 2 38.9036 78.3158 41.2023 0.0000 0.0000 0.0000
# 3 41.2023 41.2023 90.0390 0.0000 0.0000 0.0000
# 4 0.0000 0.0000 0.0000 13.5335 0.0000 0.0000
# 5 0.0000 0.0000 0.0000 0.0000 13.5335 0.0000
# 6 0.0000 0.0000 0.0000 0.0000 0.0000 19.7061
#
#
#
# Elastic Compliance Matrix: (Units=1/GPa)
#
#
# Indices 1 2 3 4 5 6 
#
# 1 0.018975 -0.006398 -0.005755 0.000000 0.000000 0.000000
# 2 -0.006398 0.018975 -0.005755 0.000000 0.000000 0.000000
# 3 -0.005755 -0.005755 0.016374 0.000000 0.000000 0.000000
# 4 0.000000 0.000000 0.000000 0.073890 0.000000 0.000000
# 5 0.000000 0.000000 0.000000 0.000000 0.073890 0.000000
# 6 0.000000 0.000000 0.000000 0.000000 0.000000 0.050746
#
#
# Mechanical properties :
#
#
# Convention : Reuss Voigt Hill
#
# Bulk Modulus (GPa) = 54.03543 54.36521 54.20032
# Shear Modulus (GPa) = 16.95859 17.71213 17.33536
#
# Velocity S-wave (km/s) = 3.38145 3.45576 3.41880
# Velocity P-wave (km/s) = 7.18877 7.25109 7.22000
#
# Compressibility (1/GPa) = 0.01850638
#
# Stress axis : x y z
#
# Youngs Moduli (GPa) = 52.70121 52.70121 61.07402
#
# Poissons Ratio (x) = 0.33718 0.35150
# Poissons Ratio (y) = 0.33718 0.35150
# Poissons Ratio (z) = 0.30331 0.30331
#
# Static dielectric constant tensor:
#      x y z
#    x 2.770750 0.000000 0.000000 
#    y 0.000000 2.770750 0.000000 
#    z 0.000000 0.000000 2.994750 
# 
# 
# High freq. dielectric constant tensor:
#      x y z
#    x 1.545440 0.000000 0.000000 
#    y 0.000000 1.545440 0.000000 
#    z 0.000000 0.000000 1.562780 
# 
# From -- ./inp_files/1881.got.cif
#   From: 2010.03.12/outbox.cif.g09.slc.cpg/sg183_1_cif.got.tgz:1881.got - 2010.04.01 11:53:02.
