data_PCOD8326459
_publ_section_title
;
Structure prediction by ZEFSAII (Michael W. Deem and Ramdas Pophale) SiO2 
 PCOD8326459
Probable space group: P 63 2 2
;
_chemical_formula_sum "Si O2"
_cell_formula_units_Z 48
_cell_length_a 17.901289
_cell_length_b 17.901289
_cell_length_c 8.426393
_cell_angle_alpha 90.000000
_cell_angle_beta 90.000000
_cell_angle_gamma 120.000000
_cell_volume 2338.519254
_symmetry_space_group_name_H-M "P 63 2 2"
_symmetry_group_IT_number 182
_symmetry_cell_setting 'hexagonal'
loop_
_space_group_symop_operation_xyz
x,y,z
x-y,x,1/2+z
-y,x-y,z
-x,-y,1/2+z
-x+y,-x,z
y,-x+y,1/2+z
x-y,-y,-z
-x,-x+y,-z
y,x,-z
-y,-x,1/2-z
-x+y,y,1/2-z
x,x-y,1/2-z
loop_
_atom_site_type_symbol
_atom_site_label
_atom_site_fract_x
_atom_site_fract_y
_atom_site_fract_z
Si Si1 0.667122 0.168512 0.192830
Si Si2 0.165520 0.407949 0.405107
Si Si3 0.663791 0.738304 0.883993
Si Si4 0.774871 0.966675 0.169002
O O1 0.735873 0.264127 0.250000
O O2 0.574051 0.148102 0.250000
O O3 0.681223 0.094106 0.264681
O O4 0.677205 0.161740 0.001333
O O5 0.225407 0.450814 0.250000
O O6 0.199451 0.359899 0.520955
O O7 0.073914 0.329010 0.349532
O O8 0.753393 0.799202 0.789569
O O9 0.672848 0.672848 0.000000
O O10 0.799013 0.899507 0.250000
O O11 0.823609 0.000000 0.000000
#
# Coordination Sequence:
#
# PCOD8326459 Si02
#       4
#    12  12  12  12
#     4  10  22  40  61  85 124 173 215 263 318 376
#     4  10  20  36  62  89 125 158 209 263 310 381
#     4  11  20  36  57  89 126 159 208 257 317 372
#     4  11  21  35  61  91 129 161 205 266 319 389
#
# _framework density 20.525808999999999
#
# number of rings (size 3 to 8) (size 9 to 14) (size 15 to 20)
#    0.000    1.500    7.500    0.250    0.000    0.000 
#    4.500    5.000    0.000    0.000    0.000    0.000 
#  100.000    0.000    0.000    0.000    0.000    0.000 
#
# Total GULP energy -594913.945932 kJ/mol
# GULP energy per Si atom -12394.040540 kJ/mol
# Density = 2.047909 g / cm^3
# Si number density = 20.525809 Si / 1000 Ang^3
#
#
#
# Elastic Constant Matrix: (Units=GPa)
#
#
# Indices 1 2 3 4 5 6 
#
# 1 77.1620 30.1460 45.1770 0.0000 0.0000 0.0000
# 2 30.1460 77.1620 45.1770 0.0000 0.0000 0.0000
# 3 45.1770 45.1770 166.8868 0.0000 0.0000 0.0000
# 4 0.0000 0.0000 0.0000 34.5566 0.0000 0.0000
# 5 0.0000 0.0000 0.0000 0.0000 34.5566 0.0000
# 6 0.0000 0.0000 0.0000 0.0000 0.0000 23.5080
#
#
#
# Elastic Compliance Matrix: (Units=1/GPa)
#
#
# Indices 1 2 3 4 5 6 
#
# 1 0.016670 -0.004600 -0.003267 0.000000 0.000000 0.000000
# 2 -0.004600 0.016670 -0.003267 0.000000 0.000000 0.000000
# 3 -0.003267 -0.003267 0.007761 0.000000 0.000000 0.000000
# 4 0.000000 0.000000 0.000000 0.028938 0.000000 0.000000
# 5 0.000000 0.000000 0.000000 0.000000 0.028938 0.000000
# 6 0.000000 0.000000 0.000000 0.000000 0.000000 0.042539
#
#
# Mechanical properties :
#
#
# Convention : Reuss Voigt Hill
#
# Bulk Modulus (GPa) = 53.10203 62.46786 57.78494
# Shear Modulus (GPa) = 29.40114 31.90499 30.65307
#
# Velocity S-wave (km/s) = 3.78881 3.94684 3.86863
# Velocity P-wave (km/s) = 6.71321 7.16031 6.94036
#
# Compressibility (1/GPa) = 0.01883167
#
# Stress axis : x y z
#
# Youngs Moduli (GPa) = 59.98891 59.98891 128.84755
#
# Poissons Ratio (x) = 0.27592 0.42100
# Poissons Ratio (y) = 0.27592 0.42100
# Poissons Ratio (z) = 0.19601 0.19601
#
# Static dielectric constant tensor:
#      x y z
#    x 3.555930 0.000000 0.000000 
#    y 0.000000 3.555930 0.000000 
#    z 0.000000 0.000000 4.477920 
# 
# 
# High freq. dielectric constant tensor:
#      x y z
#    x 1.773110 0.000000 0.000000 
#    y 0.000000 1.773110 0.000000 
#    z 0.000000 0.000000 1.831490 
# 
# From -- ./inp_files/1404.got.cif
#   From: 2010.03.12/outbox.cif.g09.slc.cpg/sg182_1_cif.got.tgz:1404.got - 2010.04.01 11:49:36.
