data_PCOD8326870
_publ_section_title
;
Structure prediction by ZEFSAII (Michael W. Deem and Ramdas Pophale) SiO2 
 PCOD8326870
Probable space group: P -6 M 2
;
_chemical_formula_sum "Si O2"
_cell_formula_units_Z 90
_cell_length_a 17.184475
_cell_length_b 17.184475
_cell_length_c 20.517509
_cell_angle_alpha 90.000000
_cell_angle_beta 90.000000
_cell_angle_gamma 120.000000
_cell_volume 5247.202219
_symmetry_space_group_name_H-M "P -6 M 2"
_symmetry_group_IT_number 187
_symmetry_cell_setting 'hexagonal'
loop_
_space_group_symop_operation_xyz
x,y,z
-x+y,-x,-z
-y,x-y,z
x,y,-z
-x+y,-x,z
-y,x-y,-z
-y,-x,-z
-x+y,y,-z
x,x-y,-z
-x+y,y,z
x,x-y,z
-y,-x,z
loop_
_atom_site_type_symbol
_atom_site_label
_atom_site_fract_x
_atom_site_fract_y
_atom_site_fract_z
Si Si1 0.972509 0.572543 0.814122
Si Si2 0.332196 0.841107 0.754657
Si Si3 0.608717 0.040601 0.426364
Si Si4 0.001040 0.817715 0.000000
Si Si5 0.282609 0.231743 0.871829
Si Si6 0.086460 0.740007 0.355439
Si Si7 0.844183 0.510159 0.304170
Si Si8 0.181895 0.999816 0.261960
O O1 0.944239 0.472120 0.838288
O O2 0.941574 0.620170 0.866863
O O3 0.927291 0.568126 0.744053
O O4 0.079828 0.631643 0.807597
O O5 0.408619 0.817237 0.736301
O O6 0.246262 0.753739 0.784982
O O7 0.304798 0.871319 0.689527
O O8 0.637030 0.075638 0.500000
O O9 0.502070 0.004140 0.415438
O O10 0.665497 0.123313 0.377688
O O11 0.633902 0.963321 0.413861
O O12 0.005846 0.766424 0.064045
O O13 0.082902 0.917099 0.000000
O O14 0.912950 0.825900 0.000000
O O15 0.302056 0.151028 0.878713
O O16 0.222226 0.220786 0.809019
O O17 0.166473 0.833528 0.384596
O O18 0.017474 0.760102 0.315307
O O19 0.764250 0.528500 0.286058
O O20 0.809062 0.404531 0.296800
O O21 0.078727 0.921274 0.262109
O O22 0.186854 0.093427 0.278836
#
# Coordination Sequence:
#
# PCOD8326870 Si02
#       8
#    12  12  12   6  12  12  12  12
#     4  10  19  32  52  74  99 129 160 202 252 295
#     4  10  18  29  46  69  96 123 153 193 241 292
#     4  10  20  34  50  67  92 126 160 196 244 298
#     4  10  21  34  51  74 106 142 174 204 241 288
#     4  10  19  32  50  74 102 134 170 206 245 291
#     4  10  19  31  49  71  95 123 158 201 245 291
#     4  10  19  32  50  73  99 127 159 197 244 296
#     4  10  19  31  49  73 101 131 163 202 247 294
#
# _framework density 17.151997000000001
#
# number of rings (size 3 to 8) (size 9 to 14) (size 15 to 20)
#    0.000    2.000    2.667    1.667    0.000    2.667 
#    0.000    1.667    0.000    1.333    0.000    0.000 
#    0.000    1.067    0.000    0.000    0.000    0.000 
#
# Total GULP energy -1115942.328773 kJ/mol
# GULP energy per Si atom -12399.359209 kJ/mol
# Density = 1.711296 g / cm^3
# Si number density = 17.151997 Si / 1000 Ang^3
#
#
#
# Elastic Constant Matrix: (Units=GPa)
#
#
# Indices 1 2 3 4 5 6 
#
# 1 97.8322 40.6946 31.6758 0.0000 0.0001 0.0000
# 2 40.6946 97.8322 31.6758 0.0000 -0.0001 0.0000
# 3 31.6758 31.6758 66.4810 0.0000 0.0000 0.0000
# 4 0.0000 0.0000 0.0000 21.0488 0.0000 -0.0001
# 5 0.0001 -0.0001 0.0000 0.0000 21.0488 0.0000
# 6 0.0000 0.0000 0.0000 -0.0001 0.0000 28.5688
#
#
#
# Elastic Compliance Matrix: (Units=1/GPa)
#
#
# Indices 1 2 3 4 5 6 
#
# 1 0.013366 -0.004136 -0.004398 0.000000 0.000000 0.000000
# 2 -0.004136 0.013366 -0.004398 0.000000 0.000000 0.000000
# 3 -0.004398 -0.004398 0.019233 0.000000 0.000000 0.000000
# 4 0.000000 0.000000 0.000000 0.047509 0.000000 0.000000
# 5 0.000000 0.000000 0.000000 0.000000 0.047509 0.000000
# 6 0.000000 0.000000 0.000000 0.000000 0.000000 0.035003
#
#
# Mechanical properties :
#
#
# Convention : Reuss Voigt Hill
#
# Bulk Modulus (GPa) = 49.74730 52.24867 50.99799
# Shear Modulus (GPa) = 23.97530 24.67323 24.32426
#
# Velocity S-wave (km/s) = 3.74279 3.79688 3.76993
# Velocity P-wave (km/s) = 6.90976 7.05337 6.98193
#
# Compressibility (1/GPa) = 0.02010159
#
# Stress axis : x y z
#
# Youngs Moduli (GPa) = 74.81769 74.81769 51.99491
#
# Poissons Ratio (x) = 0.30943 0.22866
# Poissons Ratio (y) = 0.30943 0.22866
# Poissons Ratio (z) = 0.32903 0.32903
#
# Static dielectric constant tensor:
#      x y z
#    x 3.309790 0.000000 0.000000 
#    y 0.000000 3.309790 0.000000 
#    z 0.000000 0.000000 2.973820 
# 
# 
# High freq. dielectric constant tensor:
#      x y z
#    x 1.669020 0.000000 0.000000 
#    y 0.000000 1.669020 0.000000 
#    z 0.000000 0.000000 1.624140 
# 
# From -- ./inp_files/3243.got.cif
#   From: 2010.03.12/outbox.cif.g09.slc.cpg/sg187_2_cif.got.tgz:3243.got - 2010.04.01 11:58:23.
