data_PCOD8326202
_publ_section_title
;
Structure prediction by ZEFSAII (Michael W. Deem and Ramdas Pophale) SiO2 
 PCOD8326202
Probable space group: P 62 2 2
;
_chemical_formula_sum "Si O2"
_cell_formula_units_Z 36
_cell_length_a 8.914483
_cell_length_b 8.914483
_cell_length_c 23.948331
_cell_angle_alpha 90.000000
_cell_angle_beta 90.000000
_cell_angle_gamma 120.000000
_cell_volume 1648.155583
_symmetry_space_group_name_H-M "P 62 2 2"
_symmetry_group_IT_number 180
_symmetry_cell_setting 'hexagonal'
loop_
_space_group_symop_operation_xyz
x,y,z
x-y,x,1/3+z
-y,x-y,2/3+z
-x,-y,z
-x+y,-x,1/3+z
y,-x+y,2/3+z
x-y,-y,-z
-x,-x+y,1/3-z
y,x,2/3-z
-y,-x,2/3-z
-x+y,y,-z
x,x-y,1/3-z
loop_
_atom_site_type_symbol
_atom_site_label
_atom_site_fract_x
_atom_site_fract_y
_atom_site_fract_z
Si Si1 0.155016 0.173791 0.938513
Si Si2 0.832017 0.328209 0.575092
Si Si3 0.501407 0.331412 0.557739
O O1 0.332178 0.167482 0.936305
O O2 0.176849 0.329971 0.901897
O O3 0.097164 0.194328 0.000000
O O4 0.000000 0.000000 0.911250
O O5 0.657167 0.328834 0.591361
O O6 0.827725 0.334030 0.508604
O O7 0.000000 0.500000 0.598264
O O8 0.500000 0.500000 0.580973
#
# Coordination Sequence:
#
# PCOD8326202 Si02
#       3
#    12  12  12
#     4  11  24  40  57  86 124 164 204 244 300 361
#     4  10  21  40  65  91 121 156 200 252 302 359
#     4  10  21  38  64  95 120 153 200 249 305 362
#
# _framework density 21.842597999999999
#
# number of rings (size 3 to 8) (size 9 to 14) (size 15 to 20)
#    0.000    1.667    0.000    4.000    0.000   10.667 
#    0.000   10.000    0.000    0.000    0.000    0.000 
#    0.000    0.000    0.000    0.000    0.000    0.000 
#
# Total GULP energy -446263.272224 kJ/mol
# GULP energy per Si atom -12396.202006 kJ/mol
# Density = 2.179288 g / cm^3
# Si number density = 21.842598 Si / 1000 Ang^3
#
#
#
# Elastic Constant Matrix: (Units=GPa)
#
#
# Indices 1 2 3 4 5 6 
#
# 1 196.5300 89.3862 17.1621 0.0000 0.0000 0.0000
# 2 89.3862 196.5300 17.1621 0.0000 0.0000 0.0000
# 3 17.1621 17.1621 17.4080 0.0000 0.0000 0.0000
# 4 0.0000 0.0000 0.0000 13.5461 0.0000 0.0000
# 5 0.0000 0.0000 0.0000 0.0000 13.5461 0.0000
# 6 0.0000 0.0000 0.0000 0.0000 0.0000 53.5719
#
#
#
# Elastic Compliance Matrix: (Units=1/GPa)
#
#
# Indices 1 2 3 4 5 6 
#
# 1 0.006650 -0.002683 -0.003911 0.000000 0.000000 0.000000
# 2 -0.002683 0.006650 -0.003911 0.000000 0.000000 0.000000
# 3 -0.003911 -0.003911 0.065157 0.000000 0.000000 0.000000
# 4 0.000000 0.000000 0.000000 0.073822 0.000000 0.000000
# 5 0.000000 0.000000 0.000000 0.000000 0.073822 0.000000
# 6 0.000000 0.000000 0.000000 0.000000 0.000000 0.018667
#
#
# Mechanical properties :
#
#
# Convention : Reuss Voigt Hill
#
# Bulk Modulus (GPa) = 17.40747 73.09872 45.25309
# Shear Modulus (GPa) = 17.54842 35.25001 26.39921
#
# Velocity S-wave (km/s) = 2.83751 4.02160 3.48028
# Velocity P-wave (km/s) = 4.32691 7.42315 6.07557
#
# Compressibility (1/GPa) = 0.05744659
#
# Stress axis : x y z
#
# Youngs Moduli (GPa) = 150.37260 150.37260 15.34766
#
# Poissons Ratio (x) = 0.40347 0.06002
# Poissons Ratio (y) = 0.40347 0.06002
# Poissons Ratio (z) = 0.58811 0.58811
#
# Static dielectric constant tensor:
#      x y z
#    x 4.467100 0.000000 0.000000 
#    y 0.000000 4.467100 0.000000 
#    z 0.000000 0.000000 3.543920 
# 
# 
# High freq. dielectric constant tensor:
#      x y z
#    x 1.878970 0.000000 0.000000 
#    y 0.000000 1.878970 0.000000 
#    z 0.000000 0.000000 1.836480 
# 
# From -- ./inp_files/10716.got.cif
#   From: 2010.03.12/outbox.cif.g09.slc.cpg/sg180_6_cif.got.tgz:10716.got - 2010.04.01 11:35:50.
