data_PCOD8326834
_publ_section_title
;
Structure prediction by ZEFSAII (Michael W. Deem and Ramdas Pophale) SiO2 
 PCOD8326834
Probable space group: P -6 M 2
;
_chemical_formula_sum "Si O2"
_cell_formula_units_Z 66
_cell_length_a 16.555843
_cell_length_b 16.555843
_cell_length_c 15.917533
_cell_angle_alpha 90.000000
_cell_angle_beta 90.000000
_cell_angle_gamma 120.000000
_cell_volume 3778.409193
_symmetry_space_group_name_H-M "P -6 M 2"
_symmetry_group_IT_number 187
_symmetry_cell_setting 'hexagonal'
loop_
_space_group_symop_operation_xyz
x,y,z
-x+y,-x,-z
-y,x-y,z
x,y,-z
-x+y,-x,z
-y,x-y,-z
-y,-x,-z
-x+y,y,-z
x,x-y,-z
-x+y,y,z
x,x-y,z
-y,-x,z
loop_
_atom_site_type_symbol
_atom_site_label
_atom_site_fract_x
_atom_site_fract_y
_atom_site_fract_z
Si Si1 0.623016 0.657438 0.595917
Si Si2 0.179404 0.000397 0.400139
Si Si3 0.850004 0.333193 0.668285
Si Si4 0.334491 0.479848 0.751144
Si Si5 0.667042 0.525933 0.000000
Si Si6 0.426301 0.382514 0.831057
O O1 0.601777 0.671999 0.500000
O O2 0.720418 0.741336 0.630422
O O3 0.628650 0.563163 0.601711
O O4 0.542154 0.653893 0.654128
O O5 0.179209 0.003562 0.500000
O O6 0.198268 0.099134 0.363073
O O7 0.080193 0.919807 0.365978
O O8 0.814371 0.407186 0.675133
O O9 0.764856 0.235145 0.637348
O O10 0.886301 0.318251 0.758090
O O11 0.234736 0.469472 0.768422
O O12 0.414337 0.585664 0.770283
O O13 0.344111 0.406135 0.812051
O O14 0.668094 0.586204 0.919981
O O15 0.577325 0.422676 0.000000
O O16 0.757347 0.514693 0.000000
O O17 0.520780 0.479221 0.828929
#
# Coordination Sequence:
#
# PCOD8326834 Si02
#       6
#    12  12  12  12   6  12
#     4  10  20  33  47  64  90 124 160 203 260 316
#     4   9  16  26  41  61  83 108 141 183 232 287
#     4  10  19  31  46  65  92 128 169 206 239 281
#     4  10  20  35  53  71  92 122 163 208 253 300
#     4  10  17  28  49  78 110 140 170 198 227 268
#     4   8  17  31  47  70 100 130 156 191 239 284
#
# _framework density 17.467669000000001
#
# number of rings (size 3 to 8) (size 9 to 14) (size 15 to 20)
#    0.000    2.545    0.000    3.909    0.000    4.364 
#    0.000    2.273    0.000    2.182    0.000    1.273 
#    0.000    0.000    0.000   10.545    0.000    0.000 
#
# Total GULP energy -818207.240019 kJ/mol
# GULP energy per Si atom -12397.079394 kJ/mol
# Density = 1.742791 g / cm^3
# Si number density = 17.467669 Si / 1000 Ang^3
#
#
#
# Elastic Constant Matrix: (Units=GPa)
#
#
# Indices 1 2 3 4 5 6 
#
# 1 87.8646 27.1285 16.0461 0.0000 -0.0001 0.0000
# 2 27.1285 87.8646 16.0461 0.0000 0.0001 0.0000
# 3 16.0461 16.0461 69.9100 0.0000 0.0000 0.0000
# 4 0.0000 0.0000 0.0000 14.6349 0.0000 0.0001
# 5 -0.0001 0.0001 0.0000 0.0000 14.6349 0.0000
# 6 0.0000 0.0000 0.0000 0.0001 0.0000 30.3680
#
#
#
# Elastic Compliance Matrix: (Units=1/GPa)
#
#
# Indices 1 2 3 4 5 6 
#
# 1 0.012878 -0.003587 -0.002133 0.000000 0.000000 0.000000
# 2 -0.003587 0.012878 -0.002133 0.000000 0.000000 0.000000
# 3 -0.002133 -0.002133 0.015283 0.000000 0.000000 0.000000
# 4 0.000000 0.000000 0.000000 0.068330 0.000000 0.000000
# 5 0.000000 0.000000 0.000000 0.000000 0.068330 0.000000
# 6 0.000000 0.000000 0.000000 0.000000 0.000000 0.032929
#
#
# Mechanical properties :
#
#
# Convention : Reuss Voigt Hill
#
# Bulk Modulus (GPa) = 39.47050 40.45338 39.96194
# Shear Modulus (GPa) = 21.29681 24.35547 22.82614
#
# Velocity S-wave (km/s) = 3.49551 3.73811 3.61884
# Velocity P-wave (km/s) = 6.23994 6.46843 6.35521
#
# Compressibility (1/GPa) = 0.02533538
#
# Stress axis : x y z
#
# Youngs Moduli (GPa) = 77.65175 77.65175 65.43192
#
# Poissons Ratio (x) = 0.27851 0.13954
# Poissons Ratio (y) = 0.27851 0.13954
# Poissons Ratio (z) = 0.16560 0.16560
#
# Static dielectric constant tensor:
#      x y z
#    x 3.242170 0.000000 0.000000 
#    y 0.000000 3.242170 0.000000 
#    z 0.000000 0.000000 3.203280 
# 
# 
# High freq. dielectric constant tensor:
#      x y z
#    x 1.670670 0.000000 0.000000 
#    y 0.000000 1.670670 0.000000 
#    z 0.000000 0.000000 1.639880 
# 
# From -- ./inp_files/2494.got.cif
#   From: 2010.03.12/outbox.cif.g09.slc.cpg/sg187_2_cif.got.tgz:2494.got - 2010.04.01 11:58:23.
