data_PCOD8326245
_publ_section_title
;
Structure prediction by ZEFSAII (Michael W. Deem and Ramdas Pophale) SiO2 
 PCOD8326245
Probable space group: P 62 2 2
;
_chemical_formula_sum "Si O2"
_cell_formula_units_Z 48
_cell_length_a 16.325527
_cell_length_b 16.325527
_cell_length_c 9.988460
_cell_angle_alpha 90.000000
_cell_angle_beta 90.000000
_cell_angle_gamma 120.000000
_cell_volume 2305.491819
_symmetry_space_group_name_H-M "P 62 2 2"
_symmetry_group_IT_number 180
_symmetry_cell_setting 'hexagonal'
loop_
_space_group_symop_operation_xyz
x,y,z
x-y,x,1/3+z
-y,x-y,2/3+z
-x,-y,z
-x+y,-x,1/3+z
y,-x+y,2/3+z
x-y,-y,-z
-x,-x+y,1/3-z
y,x,2/3-z
-y,-x,2/3-z
-x+y,y,-z
x,x-y,1/3-z
loop_
_atom_site_type_symbol
_atom_site_label
_atom_site_fract_x
_atom_site_fract_y
_atom_site_fract_z
Si Si1 0.358463 0.827767 0.618734
Si Si2 0.935121 0.251739 0.543092
Si Si3 0.778827 0.671511 0.626082
Si Si4 0.640927 0.465301 0.210633
O O1 0.436102 0.872203 0.500000
O O2 0.313658 0.894256 0.648725
O O3 0.279532 0.722795 0.580451
O O4 0.406331 0.819689 0.750750
O O5 0.858404 0.144398 0.589353
O O6 0.886217 0.311708 0.502357
O O7 0.000000 0.307377 0.666667
O O8 0.000627 0.251282 0.420466
O O9 0.820185 0.640370 0.500000
O O10 0.566268 0.433733 0.333334
#
# Coordination Sequence:
#
# PCOD8326245 Si02
#       4
#    12  12  12  12
#     4  11  21  32  48  72 105 147 199 248 287 328
#     4   9  18  32  51  74 102 139 193 244 291 348
#     4   9  18  33  52  75 102 141 196 246 295 352
#     4  11  20  31  49  71 101 145 198 251 290 331
#
# _framework density 20.819853999999999
#
# number of rings (size 3 to 8) (size 9 to 14) (size 15 to 20)
#    0.000    2.000    0.000    7.500    0.000    3.500 
#    0.000    2.500    0.000    0.000    0.000    0.000 
#    0.000    0.000    0.000    0.000    0.000 3277.500 
#
# Total GULP energy -594975.023156 kJ/mol
# GULP energy per Si atom -12395.312982 kJ/mol
# Density = 2.077247 g / cm^3
# Si number density = 20.819854 Si / 1000 Ang^3
#
#
#
# Elastic Constant Matrix: (Units=GPa)
#
#
# Indices 1 2 3 4 5 6 
#
# 1 106.6387 66.8153 60.3783 0.0000 0.0000 0.0000
# 2 66.8153 106.6387 60.3783 0.0000 0.0000 0.0000
# 3 60.3783 60.3783 119.7627 0.0000 0.0000 0.0000
# 4 0.0000 0.0000 0.0000 32.5414 0.0000 0.0000
# 5 0.0000 0.0000 0.0000 0.0000 32.5414 0.0000
# 6 0.0000 0.0000 0.0000 0.0000 0.0000 19.9117
#
#
#
# Elastic Compliance Matrix: (Units=1/GPa)
#
#
# Indices 1 2 3 4 5 6 
#
# 1 0.016997 -0.008114 -0.004478 0.000000 0.000000 0.000000
# 2 -0.008114 0.016997 -0.004478 0.000000 0.000000 0.000000
# 3 -0.004478 -0.004478 0.012865 0.000000 0.000000 0.000000
# 4 0.000000 0.000000 0.000000 0.030730 0.000000 0.000000
# 5 0.000000 0.000000 0.000000 0.000000 0.030730 0.000000
# 6 0.000000 0.000000 0.000000 0.000000 0.000000 0.050222
#
#
# Mechanical properties :
#
#
# Convention : Reuss Voigt Hill
#
# Bulk Modulus (GPa) = 78.62912 78.68707 78.65809
# Shear Modulus (GPa) = 25.39079 26.69678 26.04379
#
# Velocity S-wave (km/s) = 3.49599 3.58477 3.54066
# Velocity P-wave (km/s) = 7.35828 7.41690 7.38765
#
# Compressibility (1/GPa) = 0.01271793
#
# Stress axis : x y z
#
# Youngs Moduli (GPa) = 58.83411 58.83411 77.72806
#
# Poissons Ratio (x) = 0.47738 0.34809
# Poissons Ratio (y) = 0.47738 0.34809
# Poissons Ratio (z) = 0.26348 0.26348
#
# Static dielectric constant tensor:
#      x y z
#    x 3.784630 0.000000 0.000000 
#    y 0.000000 3.784630 0.000000 
#    z 0.000000 0.000000 3.933710 
# 
# 
# High freq. dielectric constant tensor:
#      x y z
#    x 1.796910 0.000000 0.000000 
#    y 0.000000 1.796910 0.000000 
#    z 0.000000 0.000000 1.815480 
# 
# From -- ./inp_files/2597.got.cif
#   From: 2010.03.12/outbox.cif.g09.slc.cpg/sg180_2_cif.got.tgz:2597.got - 2010.04.01 11:35:50.
