data_PCOD8326986
_publ_section_title
;
Structure prediction by ZEFSAII (Michael W. Deem and Ramdas Pophale) SiO2 
 PCOD8326986
Probable space group: P -6 M 2
;
_chemical_formula_sum "Si O2"
_cell_formula_units_Z 44
_cell_length_a 15.464462
_cell_length_b 15.464462
_cell_length_c 12.455605
_cell_angle_alpha 90.000000
_cell_angle_beta 90.000000
_cell_angle_gamma 120.000000
_cell_volume 2579.675567
_symmetry_space_group_name_H-M "P -6 M 2"
_symmetry_group_IT_number 187
_symmetry_cell_setting 'hexagonal'
loop_
_space_group_symop_operation_xyz
x,y,z
-x+y,-x,-z
-y,x-y,z
x,y,-z
-x+y,-x,z
-y,x-y,-z
-y,-x,-z
-x+y,y,-z
x,x-y,-z
-x+y,y,z
x,x-y,z
-y,-x,z
loop_
_atom_site_type_symbol
_atom_site_label
_atom_site_fract_x
_atom_site_fract_y
_atom_site_fract_z
Si Si1 0.443675 0.887349 0.182489
Si Si2 0.998295 0.200915 0.500000
Si Si3 0.073349 0.348266 0.879792
Si Si4 0.333335 0.666668 0.870610
Si Si5 0.511733 0.488268 0.627230
Si Si6 0.725010 0.074203 0.692726
O O1 0.376837 0.922995 0.119616
O O2 0.385646 0.771291 0.183893
O O3 0.459775 0.919549 0.307751
O O4 0.915836 0.084165 0.500000
O O5 0.987378 0.256827 0.398173
O O6 0.106459 0.212917 0.500000
O O7 0.179166 0.358332 0.843686
O O8 0.983504 0.277669 0.801289
O O9 0.046733 0.303867 0.000000
O O10 0.333334 0.666667 0.000000
O O11 0.502015 0.497986 0.500000
O O12 0.455251 0.372826 0.664979
O O13 0.812900 0.187101 0.701895
#
# Coordination Sequence:
#
# PCOD8326986 Si02
#       6
#     6   6  12   2   6  12
#     4  10  20  30  50  80 108 141 180 214 251 306
#     4  10  19  33  54  78 104 132 168 209 259 318
#     4  10  19  32  52  79 109 141 176 214 259 315
#     4  12  18  30  52  74 112 150 186 210 238 299
#     4  10  20  38  54  74 106 136 177 227 274 318
#     4  10  21  36  55  77 104 137 178 224 271 320
#
# _framework density 17.056408999999999
#
# number of rings (size 3 to 8) (size 9 to 14) (size 15 to 20)
#    0.000    1.909    2.727    2.182    0.000    0.545 
#    0.818    0.682    0.000    0.545    0.000    0.000 
#    0.000    0.000    0.000    0.000    0.000    0.000 
#
# Total GULP energy -545354.913379 kJ/mol
# GULP energy per Si atom -12394.429850 kJ/mol
# Density = 1.701759 g / cm^3
# Si number density = 17.056409 Si / 1000 Ang^3
#
#
#
# Elastic Constant Matrix: (Units=GPa)
#
#
# Indices 1 2 3 4 5 6 
#
# 1 111.5945 65.7523 58.5274 -0.0001 -0.0008 -0.0001
# 2 65.7523 111.5944 58.5274 0.0000 0.0008 0.0000
# 3 58.5274 58.5274 130.8628 -0.0001 -0.0001 0.0000
# 4 -0.0001 0.0000 -0.0001 18.8413 0.0000 0.0008
# 5 -0.0008 0.0008 -0.0001 0.0000 18.8413 0.0000
# 6 -0.0001 0.0000 0.0000 0.0008 0.0000 22.9211
#
#
#
# Elastic Compliance Matrix: (Units=1/GPa)
#
#
# Indices 1 2 3 4 5 6 
#
# 1 0.014907 -0.006907 -0.003578 0.000000 0.000001 0.000000
# 2 -0.006907 0.014907 -0.003578 0.000000 -0.000001 0.000000
# 3 -0.003578 -0.003578 0.010842 0.000000 0.000000 0.000000
# 4 0.000000 0.000000 0.000000 0.053075 0.000000 -0.000002
# 5 0.000001 -0.000001 0.000000 0.000000 0.053075 0.000000
# 6 0.000000 0.000000 0.000000 -0.000002 0.000000 0.043628
#
#
# Mechanical properties :
#
#
# Convention : Reuss Voigt Hill
#
# Bulk Modulus (GPa) = 79.80564 79.96290 79.88427
# Shear Modulus (GPa) = 22.44801 23.53705 22.99253
#
# Velocity S-wave (km/s) = 3.63175 3.71880 3.67553
# Velocity P-wave (km/s) = 8.02975 8.08842 8.05914
#
# Compressibility (1/GPa) = 0.01253044
#
# Stress axis : x y z
#
# Youngs Moduli (GPa) = 67.08185 67.08183 92.23275
#
# Poissons Ratio (x) = 0.46332 0.33002
# Poissons Ratio (y) = 0.46332 0.33002
# Poissons Ratio (z) = 0.24002 0.24002
#
# Static dielectric constant tensor:
#      x y z
#    x 3.080820 -0.000020 -0.000010 
#    y -0.000020 3.080810 -0.000020 
#    z -0.000010 -0.000020 3.312910 
# 
# 
# High freq. dielectric constant tensor:
#      x y z
#    x 1.654430 0.000000 0.000000 
#    y 0.000000 1.654430 0.000000 
#    z 0.000000 0.000000 1.667510 
# 
# From -- ./inp_files/1453.got.cif
#   From: 2010.03.12/outbox.cif.g09.slc.cpg/sg187_1_cif.got.tgz:1453.got - 2010.04.01 11:58:23.
