data_PCOD8326549
_publ_section_title
;
Structure prediction by ZEFSAII (Michael W. Deem and Ramdas Pophale) SiO2 
 PCOD8326549
Probable space group: P 6 M M
;
_chemical_formula_sum "Si O2"
_cell_formula_units_Z 96
_cell_length_a 18.355401
_cell_length_b 18.355401
_cell_length_c 20.439472
_cell_angle_alpha 90.000000
_cell_angle_beta 90.000000
_cell_angle_gamma 120.000000
_cell_volume 5963.868486
_symmetry_space_group_name_H-M "P 6 M M"
_symmetry_group_IT_number 183
_symmetry_cell_setting 'hexagonal'
loop_
_space_group_symop_operation_xyz
x,y,z
x-y,x,z
-y,x-y,z
-x,-y,z
-x+y,-x,z
y,-x+y,z
-x+y,y,z
x,x-y,z
-y,-x,z
y,x,z
x-y,-y,z
-x,-x+y,z
loop_
_atom_site_type_symbol
_atom_site_label
_atom_site_fract_x
_atom_site_fract_y
_atom_site_fract_z
Si Si1 0.094483 0.745778 0.804820
Si Si2 0.495467 0.331450 0.274667
Si Si3 0.499968 0.168323 0.419405
Si Si4 0.630393 0.530555 0.906376
Si Si5 0.468200 0.098338 0.552147
Si Si6 0.369235 0.468785 0.051951
Si Si7 0.649150 0.905195 0.656305
Si Si8 0.902184 0.637981 0.166176
O O1 0.153516 0.846485 0.811571
O O2 0.132557 0.702953 0.852165
O O3 0.096830 0.716275 0.730907
O O4 0.000000 0.721904 0.824797
O O5 0.522780 0.261390 0.262065
O O6 0.576757 0.423244 0.263325
O O7 0.457163 0.321213 0.348261
O O8 0.419932 0.316700 0.227176
O O9 0.575402 0.150804 0.423016
O O10 0.533964 0.266982 0.426040
O O11 0.441580 0.120523 0.481974
O O12 0.567719 0.432282 0.890033
O O13 0.578417 0.578417 0.903964
O O14 0.668906 0.538832 0.979150
O O15 0.569728 0.139455 0.559095
O O16 0.433371 0.130518 0.610843
O O17 0.426789 0.000000 0.557842
O O18 0.432340 0.567661 0.069583
O O19 0.423459 0.423459 0.053954
O O20 0.293310 0.422873 0.102933
O O21 0.688671 0.844336 0.647808
O O22 0.720251 0.000000 0.636464
O O23 0.836907 0.673814 0.174127
O O24 0.000000 0.713979 0.160428
#
# Coordination Sequence:
#
# PCOD8326549 Si02
#       8
#    12  12  12  12  12  12  12  12
#     4   9  17  28  43  63  85 110 142 180 220 261
#     4   9  17  28  43  64  90 119 147 174 205 244
#     4   9  16  26  40  58  82 112 143 170 196 232
#     4   8  14  25  42  64  87 110 137 168 201 239
#     4   9  17  27  39  58  83 109 138 173 210 247
#     4   8  14  26  44  65  88 111 135 165 201 243
#     4   9  17  29  44  61  82 109 141 178 220 264
#     4  10  20  32  46  65  88 114 145 182 222 260
#
# _framework density 16.096934999999998
#
# number of rings (size 3 to 8) (size 9 to 14) (size 15 to 20)
#    0.000    3.125    0.000    1.750    0.000    3.250 
#    0.000    3.750    0.000    1.125    0.000    1.750 
#    0.000    0.000    0.000    6.250    0.000   19.500 
#
# Total GULP energy -1189296.024340 kJ/mol
# GULP energy per Si atom -12388.500254 kJ/mol
# Density = 1.606030 g / cm^3
# Si number density = 16.096935 Si / 1000 Ang^3
#
#
#
# Elastic Constant Matrix: (Units=GPa)
#
#
# Indices 1 2 3 4 5 6 
#
# 1 61.9218 32.4100 38.8174 0.0000 0.0000 0.0000
# 2 32.4100 61.9218 38.8174 0.0000 0.0000 0.0000
# 3 38.8174 38.8174 102.8042 0.0000 0.0000 0.0000
# 4 0.0000 0.0000 0.0000 87.1180 0.0000 0.0000
# 5 0.0000 0.0000 0.0000 0.0000 87.1180 0.0000
# 6 0.0000 0.0000 0.0000 0.0000 0.0000 14.7559
#
#
#
# Elastic Compliance Matrix: (Units=1/GPa)
#
#
# Indices 1 2 3 4 5 6 
#
# 1 0.024633 -0.009252 -0.005807 0.000000 0.000000 0.000000
# 2 -0.009252 0.024633 -0.005807 0.000000 0.000000 0.000000
# 3 -0.005807 -0.005807 0.014113 0.000000 0.000000 0.000000
# 4 0.000000 0.000000 0.000000 0.011479 0.000000 0.000000
# 5 0.000000 0.000000 0.000000 0.000000 0.011479 0.000000
# 6 0.000000 0.000000 0.000000 0.000000 0.000000 0.067769
#
#
# Mechanical properties :
#
#
# Convention : Reuss Voigt Hill
#
# Bulk Modulus (GPa) = 46.20234 49.63746 47.91990
# Shear Modulus (GPa) = 24.62406 45.57191 35.09799
#
# Velocity S-wave (km/s) = 3.91543 5.32657 4.67456
# Velocity P-wave (km/s) = 7.01467 8.29056 7.67916
#
# Compressibility (1/GPa) = 0.02164393
#
# Stress axis : x y z
#
# Youngs Moduli (GPa) = 40.59669 40.59669 70.85760
#
# Poissons Ratio (x) = 0.37561 0.41150
# Poissons Ratio (y) = 0.37561 0.41150
# Poissons Ratio (z) = 0.23576 0.23576
#
# Static dielectric constant tensor:
#      x y z
#    x 2.864880 0.000000 0.000000 
#    y 0.000000 2.864880 0.000000 
#    z 0.000000 0.000000 3.488420 
# 
# 
# High freq. dielectric constant tensor:
#      x y z
#    x 1.588690 0.000000 0.000000 
#    y 0.000000 1.588690 0.000000 
#    z 0.000000 0.000000 1.637170 
# 
# From -- ./inp_files/2822.got.cif
#   From: 2010.03.12/outbox.cif.g09.slc.cpg/sg183_2_cif.got.tgz:2822.got - 2010.04.01 11:53:02.
