data_PCOD8326945
_publ_section_title
;
Structure prediction by ZEFSAII (Michael W. Deem and Ramdas Pophale) SiO2 
 PCOD8326945
Probable space group: P -6 M 2
;
_chemical_formula_sum "Si O2"
_cell_formula_units_Z 54
_cell_length_a 17.450798
_cell_length_b 17.450798
_cell_length_c 12.715440
_cell_angle_alpha 90.000000
_cell_angle_beta 90.000000
_cell_angle_gamma 120.000000
_cell_volume 3353.455962
_symmetry_space_group_name_H-M "P -6 M 2"
_symmetry_group_IT_number 187
_symmetry_cell_setting 'hexagonal'
loop_
_space_group_symop_operation_xyz
x,y,z
-x+y,-x,-z
-y,x-y,z
x,y,-z
-x+y,-x,z
-y,x-y,-z
-y,-x,-z
-x+y,y,-z
x,x-y,-z
-x+y,y,z
x,x-y,z
-y,-x,z
loop_
_atom_site_type_symbol
_atom_site_label
_atom_site_fract_x
_atom_site_fract_y
_atom_site_fract_z
Si Si1 0.491268 0.333069 0.375547
Si Si2 0.515812 0.667205 0.500000
Si Si3 0.999635 0.831530 0.874992
Si Si4 0.573858 0.605921 0.691115
Si Si5 0.633755 0.906523 0.879709
O O1 0.480111 0.333806 0.500000
O O2 0.480862 0.240431 0.336431
O O3 0.588352 0.411649 0.341934
O O4 0.413416 0.345035 0.322522
O O5 0.418550 0.581451 0.500000
O O6 0.504879 0.752440 0.500000
O O7 0.573187 0.670480 0.601255
O O8 0.072302 0.927699 0.831089
O O9 0.025763 0.759224 0.840828
O O10 0.903378 0.806755 0.829884
O O11 0.000715 0.835822 0.000000
O O12 0.486422 0.513579 0.678227
O O13 0.572532 0.646065 0.804574
O O14 0.611800 0.805900 0.867926
O O15 0.618280 0.924695 0.000000
#
# Coordination Sequence:
#
# PCOD8326945 Si02
#       5
#    12   6  12  12  12
#     4   9  16  28  46  69  96 124 153 187 228 274
#     4  10  19  32  49  68  88 112 142 182 231 278
#     4   8  13  22  38  60  85 112 143 178 213 249
#     4  10  19  31  47  68  92 116 148 190 230 270
#     4   9  18  31  45  63  89 121 153 184 223 272
#
# _framework density 16.102789999999999
#
# number of rings (size 3 to 8) (size 9 to 14) (size 15 to 20)
#    0.000    2.889    1.111    2.556    0.000    3.111 
#    0.000    0.000    0.000    0.444    0.000    0.000 
#    0.000    1.778    0.000    0.444    0.000    0.000 
#
# Total GULP energy -669284.870335 kJ/mol
# GULP energy per Si atom -12394.164265 kJ/mol
# Density = 1.606614 g / cm^3
# Si number density = 16.102790 Si / 1000 Ang^3
#
#
#
# Elastic Constant Matrix: (Units=GPa)
#
#
# Indices 1 2 3 4 5 6 
#
# 1 61.6245 27.9240 29.0708 0.0000 -0.0002 0.0000
# 2 27.9240 61.6245 29.0708 0.0000 0.0002 0.0000
# 3 29.0708 29.0708 68.5447 0.0000 0.0000 0.0000
# 4 0.0000 0.0000 0.0000 19.8689 0.0000 0.0002
# 5 -0.0002 0.0002 0.0000 0.0000 19.8689 0.0000
# 6 0.0000 0.0000 0.0000 0.0002 0.0000 16.8503
#
#
#
# Elastic Compliance Matrix: (Units=1/GPa)
#
#
# Indices 1 2 3 4 5 6 
#
# 1 0.022542 -0.007131 -0.006536 0.000000 0.000000 0.000000
# 2 -0.007131 0.022542 -0.006536 0.000000 0.000000 0.000000
# 3 -0.006536 -0.006536 0.020133 0.000000 0.000000 0.000000
# 4 0.000000 0.000000 0.000000 0.050330 0.000000 -0.000001
# 5 0.000000 0.000000 0.000000 0.000000 0.050330 0.000000
# 6 0.000000 0.000000 0.000000 -0.000001 0.000000 0.059346
#
#
# Mechanical properties :
#
#
# Convention : Reuss Voigt Hill
#
# Bulk Modulus (GPa) = 40.30505 40.43610 40.37058
# Shear Modulus (GPa) = 18.25488 18.36615 18.31052
#
# Velocity S-wave (km/s) = 3.37062 3.38088 3.37575
# Velocity P-wave (km/s) = 6.34289 6.35659 6.34974
#
# Compressibility (1/GPa) = 0.02481078
#
# Stress axis : x y z
#
# Youngs Moduli (GPa) = 44.36173 44.36173 49.66974
#
# Poissons Ratio (x) = 0.31635 0.32464
# Poissons Ratio (y) = 0.31635 0.32464
# Poissons Ratio (z) = 0.28995 0.28995
#
# Static dielectric constant tensor:
#      x y z
#    x 3.116640 0.000000 0.000000 
#    y 0.000000 3.116640 0.000000 
#    z 0.000000 0.000000 2.726710 
# 
# 
# High freq. dielectric constant tensor:
#      x y z
#    x 1.615660 0.000000 0.000000 
#    y 0.000000 1.615660 0.000000 
#    z 0.000000 0.000000 1.585770 
# 
# From -- ./inp_files/1532.got.cif
#   From: 2010.03.12/outbox.cif.g09.slc.cpg/sg187_1_cif.got.tgz:1532.got - 2010.04.01 11:58:23.
