data_PCOD8326283
_publ_section_title
;
Structure prediction by ZEFSAII (Michael W. Deem and Ramdas Pophale) SiO2 
 PCOD8326283
Probable space group: P 64 2 2
;
_chemical_formula_sum "Si O2"
_cell_formula_units_Z 60
_cell_length_a 27.839606
_cell_length_b 27.839606
_cell_length_c 5.239736
_cell_angle_alpha 90.000000
_cell_angle_beta 90.000000
_cell_angle_gamma 120.000000
_cell_volume 3516.950104
_symmetry_space_group_name_H-M "P 64 2 2"
_symmetry_group_IT_number 181
_symmetry_cell_setting 'hexagonal'
loop_
_space_group_symop_operation_xyz
x,y,z
x-y,x,2/3+z
-y,x-y,1/3+z
-x,-y,z
-x+y,-x,2/3+z
y,-x+y,1/3+z
x-y,-y,-z
-x,-x+y,2/3-z
y,x,1/3-z
-y,-x,1/3-z
-x+y,y,-z
x,x-y,2/3-z
loop_
_atom_site_type_symbol
_atom_site_label
_atom_site_fract_x
_atom_site_fract_y
_atom_site_fract_z
Si Si1 0.409969 0.759548 0.261669
Si Si2 0.394533 0.973933 0.747389
Si Si3 0.252649 0.852578 0.249979
Si Si4 0.463312 0.312614 0.418986
Si Si5 0.688955 0.978216 0.748917
O O1 0.391461 0.782921 0.500000
O O2 0.396560 0.698280 0.333334
O O3 0.474811 0.799690 0.232408
O O4 0.378932 0.757864 0.000000
O O5 0.368303 0.908148 0.718110
O O6 0.433375 0.000000 0.500000
O O7 0.346849 0.990553 0.749417
O O8 0.432388 0.000000 0.000000
O O9 0.190029 0.809972 0.166667
O O10 0.268889 0.837724 0.523911
O O11 0.258906 0.912501 0.262098
O O12 0.291458 0.851367 0.031851
O O13 0.728367 0.000000 0.500000
O O14 0.727795 0.000000 0.000000
#
# Coordination Sequence:
#
# PCOD8326283 Si02
#       5
#    12  12  12  12  12
#     4  12  26  45  64  80 100 129 162 201 256 320
#     4  10  16  31  54  77  99 140 167 187 233 308
#     4  12  21  31  50  83 112 130 165 215 255 286
#     4  12  22  37  58  82 106 126 163 209 249 296
#     4  10  16  30  48  71  99 146 172 189 239 311
#
# _framework density 17.060236
#
# number of rings (size 3 to 8) (size 9 to 14) (size 15 to 20)
#    0.000    0.800    8.000    4.200    0.000    0.000 
#    0.000    0.000    0.000    3.600    0.000    0.000 
#    0.000    0.000    0.000    0.000    0.000    0.000 
#
# Total GULP energy -743669.821840 kJ/mol
# GULP energy per Si atom -12394.497031 kJ/mol
# Density = 1.702141 g / cm^3
# Si number density = 17.060236 Si / 1000 Ang^3
#
#
#
# Elastic Constant Matrix: (Units=GPa)
#
#
# Indices 1 2 3 4 5 6 
#
# 1 50.4901 43.7952 27.7077 0.0000 0.0000 0.0000
# 2 43.7952 50.4901 27.7077 0.0000 0.0000 0.0000
# 3 27.7077 27.7077 157.2113 0.0000 0.0000 0.0000
# 4 0.0000 0.0000 0.0000 31.7835 0.0000 0.0000
# 5 0.0000 0.0000 0.0000 0.0000 31.7835 0.0000
# 6 0.0000 0.0000 0.0000 0.0000 0.0000 3.3475
#
#
#
# Elastic Compliance Matrix: (Units=1/GPa)
#
#
# Indices 1 2 3 4 5 6 
#
# 1 0.080599 -0.068767 -0.002085 0.000000 0.000000 0.000000
# 2 -0.068767 0.080599 -0.002085 0.000000 0.000000 0.000000
# 3 -0.002085 -0.002085 0.007096 0.000000 0.000000 0.000000
# 4 0.000000 0.000000 0.000000 0.031463 0.000000 0.000000
# 5 0.000000 0.000000 0.000000 0.000000 0.031463 0.000000
# 6 0.000000 0.000000 0.000000 0.000000 0.000000 0.298732
#
#
# Mechanical properties :
#
#
# Convention : Reuss Voigt Hill
#
# Bulk Modulus (GPa) = 44.60657 50.73473 47.67065
# Shear Modulus (GPa) = 7.31743 23.98165 15.64954
#
# Velocity S-wave (km/s) = 2.07328 3.75334 3.03200
# Velocity P-wave (km/s) = 5.65107 6.97041 6.34512
#
# Compressibility (1/GPa) = 0.02241822
#
# Stress axis : x y z
#
# Youngs Moduli (GPa) = 12.40711 12.40711 140.92638
#
# Poissons Ratio (x) = 0.85320 0.29387
# Poissons Ratio (y) = 0.85320 0.29387
# Poissons Ratio (z) = 0.02587 0.02587
#
# Static dielectric constant tensor:
#      x y z
#    x 2.930450 0.000000 0.000000 
#    y 0.000000 2.930450 0.000000 
#    z 0.000000 0.000000 6.026960 
# 
# 
# High freq. dielectric constant tensor:
#      x y z
#    x 1.621200 0.000000 0.000000 
#    y 0.000000 1.621200 0.000000 
#    z 0.000000 0.000000 1.703120 
# 
# From -- ./inp_files/1439.got.cif
#   From: 2010.03.12/outbox.cif.g09.slc.cpg/sg181_1_cif.got.tgz:1439.got - 2010.04.01 11:42:41.
