data_PCOD8326299
_publ_section_title
;
Structure prediction by ZEFSAII (Michael W. Deem and Ramdas Pophale) SiO2 
 PCOD8326299
Probable space group: P 64 2 2
;
_chemical_formula_sum "Si O2"
_cell_formula_units_Z 60
_cell_length_a 14.889676
_cell_length_b 14.889676
_cell_length_c 13.339593
_cell_angle_alpha 90.000000
_cell_angle_beta 90.000000
_cell_angle_gamma 120.000000
_cell_volume 2561.201255
_symmetry_space_group_name_H-M "P 64 2 2"
_symmetry_group_IT_number 181
_symmetry_cell_setting 'hexagonal'
loop_
_space_group_symop_operation_xyz
x,y,z
x-y,x,2/3+z
-y,x-y,1/3+z
-x,-y,z
-x+y,-x,2/3+z
y,-x+y,1/3+z
x-y,-y,-z
-x,-x+y,2/3-z
y,x,1/3-z
-y,-x,1/3-z
-x+y,y,-z
x,x-y,2/3-z
loop_
_atom_site_type_symbol
_atom_site_label
_atom_site_fract_x
_atom_site_fract_y
_atom_site_fract_z
Si Si1 0.597270 0.487797 0.047919
Si Si2 0.224959 0.012441 0.813269
Si Si3 0.527474 0.795090 0.570708
Si Si4 0.066435 0.445550 0.170331
Si Si5 0.064461 0.820713 0.927219
O O1 0.500000 0.500000 0.083490
O O2 0.689974 0.534685 0.127446
O O3 0.557872 0.364772 0.032451
O O4 0.641193 0.545575 0.945480
O O5 0.262164 0.131082 0.833334
O O6 0.193612 0.994494 0.694098
O O7 0.319891 0.997837 0.851090
O O8 0.125814 0.938762 0.883493
O O9 0.500211 0.675292 0.564171
O O10 0.637993 0.856971 0.624959
O O11 0.000000 0.500000 0.201370
O O12 0.000000 0.751440 0.833334
#
# Coordination Sequence:
#
# PCOD8326299 Si02
#       5
#    12  12  12  12  12
#     4  10  18  32  57  93 128 156 203 279 344 399
#     4  11  24  41  62  92 128 171 215 263 319 391
#     4  10  19  32  58  92 125 157 208 269 331 392
#     4  10  21  38  60  86 126 171 219 265 323 400
#     4  11  21  38  64  93 125 166 208 262 326 382
#
# _framework density 23.426506
#
# number of rings (size 3 to 8) (size 9 to 14) (size 15 to 20)
#    0.000    1.600    0.000    7.800    0.000    3.600 
#    3.600    2.000    0.000    8.400    0.000    0.000 
#    0.000    0.000    0.000    0.000    0.000    0.000 
#
# Total GULP energy -743323.621999 kJ/mol
# GULP energy per Si atom -12388.727033 kJ/mol
# Density = 2.337319 g / cm^3
# Si number density = 23.426506 Si / 1000 Ang^3
#
#
#
# Elastic Constant Matrix: (Units=GPa)
#
#
# Indices 1 2 3 4 5 6 
#
# 1 116.4265 48.8930 4.5287 0.0000 0.0000 0.0000
# 2 48.8930 116.4265 4.5287 0.0000 0.0000 0.0000
# 3 4.5287 4.5287 44.4868 0.0000 0.0000 0.0000
# 4 0.0000 0.0000 0.0000 24.7151 0.0000 0.0000
# 5 0.0000 0.0000 0.0000 0.0000 24.7151 0.0000
# 6 0.0000 0.0000 0.0000 0.0000 0.0000 33.7668
#
#
#
# Elastic Compliance Matrix: (Units=1/GPa)
#
#
# Indices 1 2 3 4 5 6 
#
# 1 0.010445 -0.004362 -0.000619 0.000000 0.000000 0.000000
# 2 -0.004362 0.010445 -0.000619 0.000000 0.000000 0.000000
# 3 -0.000619 -0.000619 0.022605 0.000000 0.000000 0.000000
# 4 0.000000 0.000000 0.000000 0.040461 0.000000 0.000000
# 5 0.000000 0.000000 0.000000 0.000000 0.040461 0.000000
# 6 0.000000 0.000000 0.000000 0.000000 0.000000 0.029615
#
#
# Mechanical properties :
#
#
# Convention : Reuss Voigt Hill
#
# Bulk Modulus (GPa) = 30.96610 43.69343 37.32977
# Shear Modulus (GPa) = 28.40939 31.26534 29.83737
#
# Velocity S-wave (km/s) = 3.48617 3.65720 3.57271
# Velocity P-wave (km/s) = 5.42693 6.04361 5.74355
#
# Compressibility (1/GPa) = 0.03229338
#
# Stress axis : x y z
#
# Youngs Moduli (GPa) = 95.73830 95.73830 44.23868
#
# Poissons Ratio (x) = 0.41764 0.02739
# Poissons Ratio (y) = 0.41764 0.02739
# Poissons Ratio (z) = 0.05928 0.05928
#
# Static dielectric constant tensor:
#      x y z
#    x 4.203170 0.000000 0.000000 
#    y 0.000000 4.203170 0.000000 
#    z 0.000000 0.000000 4.170270 
# 
# 
# High freq. dielectric constant tensor:
#      x y z
#    x 1.922330 0.000000 0.000000 
#    y 0.000000 1.922330 0.000000 
#    z 0.000000 0.000000 1.911680 
# 
# From -- ./inp_files/6132.got.cif
#   From: 2010.03.12/outbox.cif.g09.slc.cpg/sg181_4_cif.got.tgz:6132.got - 2010.04.01 11:42:41.
