data_PCOD8326119
_publ_section_title
;
Structure prediction by ZEFSAII (Michael W. Deem and Ramdas Pophale) SiO2 
 PCOD8326119
Probable space group: P 65 2 2
;
_chemical_formula_sum "Si O2"
_cell_formula_units_Z 24
_cell_length_a 10.663365
_cell_length_b 10.663365
_cell_length_c 9.801553
_cell_angle_alpha 90.000000
_cell_angle_beta 90.000000
_cell_angle_gamma 120.000000
_cell_volume 965.192802
_symmetry_space_group_name_H-M "P 65 2 2"
_symmetry_group_IT_number 179
_symmetry_cell_setting 'hexagonal'
loop_
_space_group_symop_operation_xyz
x,y,z
x-y,x,5/6+z
-y,x-y,2/3+z
-x,-y,1/2+z
-x+y,-x,1/3+z
y,-x+y,1/6+z
x-y,-y,-z
-x,-x+y,1/3-z
y,x,2/3-z
-y,-x,1/6-z
-x+y,y,1/2-z
x,x-y,5/6-z
loop_
_atom_site_type_symbol
_atom_site_label
_atom_site_fract_x
_atom_site_fract_y
_atom_site_fract_z
Si Si1 0.479400 0.479400 0.833334
Si Si2 0.252638 0.240648 0.667742
Si Si3 0.592480 0.796240 0.916667
O O1 0.376670 0.404964 0.702067
O O2 0.491855 0.633282 0.864172
O O3 0.103283 0.238050 0.630346
O O4 0.300463 0.185837 0.537874
#
# Coordination Sequence:
#
# PCOD8326119 Si02
#       3
#     6  12   6
#     4  12  28  50  80 120 160 212 266 328 402 480
#     4  12  27  53  80 120 159 213 269 332 407 482
#     4  12  26  52  82 116 162 208 268 332 404 476
#
# _framework density 24.865497999999999
#
# number of rings (size 3 to 8) (size 9 to 14) (size 15 to 20)
#    0.000    0.000    5.000    3.000    0.000    8.000 
#   27.000    0.000    0.000    0.000    0.000    0.000 
#    0.000    0.000    0.000    0.000    0.000    0.000 
#
# Total GULP energy -297741.589696 kJ/mol
# GULP energy per Si atom -12405.899571 kJ/mol
# Density = 2.480890 g / cm^3
# Si number density = 24.865498 Si / 1000 Ang^3
#
#
#
# Elastic Constant Matrix: (Units=GPa)
#
#
# Indices 1 2 3 4 5 6 
#
# 1 207.6144 110.4033 77.0595 0.0000 0.0000 0.0000
# 2 110.4033 207.6144 77.0595 0.0000 0.0000 0.0000
# 3 77.0595 77.0595 144.5021 0.0000 0.0000 0.0000
# 4 0.0000 0.0000 0.0000 36.5189 0.0000 0.0000
# 5 0.0000 0.0000 0.0000 0.0000 36.5189 0.0000
# 6 0.0000 0.0000 0.0000 0.0000 0.0000 48.6055
#
#
#
# Elastic Compliance Matrix: (Units=1/GPa)
#
#
# Indices 1 2 3 4 5 6 
#
# 1 0.007264 -0.003023 -0.002261 0.000000 0.000000 0.000000
# 2 -0.003023 0.007264 -0.002261 0.000000 0.000000 0.000000
# 3 -0.002261 -0.002261 0.009332 0.000000 0.000000 0.000000
# 4 0.000000 0.000000 0.000000 0.027383 0.000000 0.000000
# 5 0.000000 0.000000 0.000000 0.000000 0.027383 0.000000
# 6 0.000000 0.000000 0.000000 0.000000 0.000000 0.020574
#
#
# Mechanical properties :
#
#
# Convention : Reuss Voigt Hill
#
# Bulk Modulus (GPa) = 114.05531 120.97506 117.51519
# Shear Modulus (GPa) = 42.65722 44.00924 43.33323
#
# Velocity S-wave (km/s) = 4.14637 4.21157 4.17910
# Velocity P-wave (km/s) = 8.30010 8.50924 8.40532
#
# Compressibility (1/GPa) = 0.00876768
#
# Stress axis : x y z
#
# Youngs Moduli (GPa) = 137.67241 137.67241 107.15718
#
# Poissons Ratio (x) = 0.41622 0.24231
# Poissons Ratio (y) = 0.41622 0.24231
# Poissons Ratio (z) = 0.31132 0.31132
#
# Static dielectric constant tensor:
#      x y z
#    x 4.631550 0.000000 0.000000 
#    y 0.000000 4.631550 0.000000 
#    z 0.000000 0.000000 5.055220 
# 
# 
# High freq. dielectric constant tensor:
#      x y z
#    x 2.002000 0.000000 0.000000 
#    y 0.000000 2.002000 0.000000 
#    z 0.000000 0.000000 2.041740 
# 
# From -- ./inp_files/3841.got.cif
#   From: 2010.03.12/outbox.cif.g09.slc.cpg/sg179_2_cif.got.tgz:3841.got - 2010.04.02 07:08:42.
