data_PCOD8326124
_publ_section_title
;
Structure prediction by ZEFSAII (Michael W. Deem and Ramdas Pophale) SiO2 
 PCOD8326124
Probable space group: P 62 2 2
;
_chemical_formula_sum "Si O2"
_cell_formula_units_Z 66
_cell_length_a 29.497729
_cell_length_b 29.497729
_cell_length_c 5.249037
_cell_angle_alpha 90.000000
_cell_angle_beta 90.000000
_cell_angle_gamma 120.000000
_cell_volume 3955.372853
_symmetry_space_group_name_H-M "P 62 2 2"
_symmetry_group_IT_number 180
_symmetry_cell_setting 'hexagonal'
loop_
_space_group_symop_operation_xyz
x,y,z
x-y,x,1/3+z
-y,x-y,2/3+z
-x,-y,z
-x+y,-x,1/3+z
y,-x+y,2/3+z
x-y,-y,-z
-x,-x+y,1/3-z
y,x,2/3-z
-y,-x,2/3-z
-x+y,y,-z
x,x-y,1/3-z
loop_
_atom_site_type_symbol
_atom_site_label
_atom_site_fract_x
_atom_site_fract_y
_atom_site_fract_z
Si Si1 0.016176 0.409679 0.917927
Si Si2 0.318764 0.290594 0.084582
Si Si3 0.310104 0.865016 0.267054
Si Si4 0.695261 0.304740 0.333334
Si Si5 0.145821 0.751823 0.896541
Si Si6 0.625485 0.433219 0.089214
O O1 0.072824 0.416597 0.936939
O O2 0.000000 0.430545 0.666667
O O3 0.976024 0.347169 0.913258
O O4 0.000000 0.431136 0.166667
O O5 0.283292 0.283292 0.333334
O O6 0.339874 0.249563 0.092655
O O7 0.283903 0.283903 0.833334
O O8 0.269239 0.843970 0.502412
O O9 0.351805 0.845818 0.286977
O O10 0.281216 0.848277 0.997946
O O11 0.708848 0.354424 0.166667
O O12 0.749780 0.324180 0.481846
O O13 0.188578 0.811423 0.833334
O O14 0.587236 0.412765 0.333334
O O15 0.594807 0.405194 0.833334
#
# Coordination Sequence:
#
# PCOD8326124 Si02
#       6
#    12  12  12   6  12  12
#     4  10  16  31  56  76  91 133 180 192 218 299
#     4  10  16  32  52  72  98 139 181 191 226 304
#     4  12  22  38  56  78 107 131 160 204 257 306
#     4  10  20  40  62  72  90 122 165 178 224 316
#     4  12  23  33  51  86 112 128 158 215 261 292
#     4  11  25  41  57  78  98 123 155 201 244 290
#
# _framework density 16.686163000000001
#
# number of rings (size 3 to 8) (size 9 to 14) (size 15 to 20)
#    0.000    1.091    8.182    1.636    2.545    0.000 
#    0.000    0.000    0.000    3.273    0.000    0.000 
#    0.000    0.000    0.000    0.000    0.000    0.000 
#
# Total GULP energy -817780.754130 kJ/mol
# GULP energy per Si atom -12390.617487 kJ/mol
# Density = 1.664818 g / cm^3
# Si number density = 16.686163 Si / 1000 Ang^3
#
#
#
# Elastic Constant Matrix: (Units=GPa)
#
#
# Indices 1 2 3 4 5 6 
#
# 1 58.0772 50.2745 32.3384 0.0000 0.0000 0.0000
# 2 50.2745 58.0772 32.3384 0.0000 0.0000 0.0000
# 3 32.3384 32.3384 155.4153 0.0000 0.0000 0.0000
# 4 0.0000 0.0000 0.0000 18.3879 0.0000 0.0000
# 5 0.0000 0.0000 0.0000 0.0000 18.3879 0.0000
# 6 0.0000 0.0000 0.0000 0.0000 0.0000 3.9013
#
#
#
# Elastic Compliance Matrix: (Units=1/GPa)
#
#
# Indices 1 2 3 4 5 6 
#
# 1 0.069350 -0.058812 -0.002193 0.000000 0.000000 0.000000
# 2 -0.058812 0.069350 -0.002193 0.000000 0.000000 0.000000
# 3 -0.002193 -0.002193 0.007347 0.000000 0.000000 0.000000
# 4 0.000000 0.000000 0.000000 0.054384 0.000000 0.000000
# 5 0.000000 0.000000 0.000000 0.000000 0.054384 0.000000
# 6 0.000000 0.000000 0.000000 0.000000 0.000000 0.256323
#
#
# Mechanical properties :
#
#
# Convention : Reuss Voigt Hill
#
# Bulk Modulus (GPa) = 50.88513 55.71914 53.30213
# Shear Modulus (GPa) = 7.76300 18.57666 13.16983
#
# Velocity S-wave (km/s) = 2.15927 3.34023 2.81244
# Velocity P-wave (km/s) = 6.06450 6.95278 6.52378
#
# Compressibility (1/GPa) = 0.01965211
#
# Stress axis : x y z
#
# Youngs Moduli (GPa) = 14.41967 14.41967 136.11202
#
# Poissons Ratio (x) = 0.84804 0.29846
# Poissons Ratio (y) = 0.84804 0.29846
# Poissons Ratio (z) = 0.03162 0.03162
#
# Static dielectric constant tensor:
#      x y z
#    x 2.984790 0.000000 0.000000 
#    y 0.000000 2.984790 0.000000 
#    z 0.000000 0.000000 4.116670 
# 
# 
# High freq. dielectric constant tensor:
#      x y z
#    x 1.607960 0.000000 0.000000 
#    y 0.000000 1.607960 0.000000 
#    z 0.000000 0.000000 1.677530 
# 
# From -- ./inp_files/1556.got.cif
#   From: 2010.03.12/outbox.cif.g09.slc.cpg/sg180_1_cif.got.tgz:1556.got - 2010.04.01 11:35:50.
