data_PCOD8326790
_publ_section_title
;
Structure prediction by ZEFSAII (Michael W. Deem and Ramdas Pophale) SiO2 
 PCOD8326790
Probable space group: P 63 M C
;
_chemical_formula_sum "Si O2"
_cell_formula_units_Z 60
_cell_length_a 12.318192
_cell_length_b 12.318192
_cell_length_c 25.480793
_cell_angle_alpha 90.000000
_cell_angle_beta 90.000000
_cell_angle_gamma 120.000000
_cell_volume 3348.401359
_symmetry_space_group_name_H-M "P 63 M C"
_symmetry_group_IT_number 186
_symmetry_cell_setting 'hexagonal'
loop_
_space_group_symop_operation_xyz
x,y,z
x-y,x,1/2+z
-y,x-y,z
-x,-y,1/2+z
-x+y,-x,z
y,-x+y,1/2+z
-x+y,y,z
x,x-y,z
-y,-x,z
y,x,1/2+z
x-y,-y,1/2+z
-x,-x+y,1/2+z
loop_
_atom_site_type_symbol
_atom_site_label
_atom_site_fract_x
_atom_site_fract_y
_atom_site_fract_z
Si Si1 0.252004 0.001060 0.453820
Si Si2 0.666599 0.081562 0.554102
Si Si3 0.334476 0.415137 0.654127
Si Si4 0.414300 0.080870 0.354237
Si Si5 0.334366 0.918934 0.253705
O O1 0.132992 0.867009 0.463993
O O2 0.209464 0.104732 0.455985
O O3 0.354426 0.026551 0.498009
O O4 0.310943 0.001428 0.397791
O O5 0.559081 0.118162 0.552810
O O6 0.795179 0.204822 0.568738
O O7 0.639056 0.976943 0.597487
O O8 0.200668 0.401335 0.663125
O O9 0.439291 0.560710 0.659207
O O10 0.356132 0.334176 0.697770
O O11 0.538886 0.077772 0.368240
O O12 0.448449 0.224225 0.353769
O O13 0.359471 0.021008 0.298022
O O14 0.438375 0.876749 0.255499
O O15 0.200778 0.799223 0.263840
#
# Coordination Sequence:
#
# PCOD8326790 Si02
#       5
#    12  12  12  12  12
#     4  10  20  34  52  74 102 136 172 208 248 296
#     4  10  20  34  54  78 104 134 168 209 254 301
#     4  10  20  34  53  76 103 135 170 210 254 301
#     4  10  20  34  54  78 104 134 168 209 254 301
#     4  10  20  34  53  76 103 135 170 210 254 301
#
# _framework density 17.918998999999999
#
# number of rings (size 3 to 8) (size 9 to 14) (size 15 to 20)
#    0.000    2.000    0.000    4.000    0.000    0.000 
#    0.000    6.000    0.000   15.200    0.000    0.000 
#    0.000    0.000    0.000    0.000    0.000    0.000 
#
# Total GULP energy -744294.318277 kJ/mol
# GULP energy per Si atom -12404.905305 kJ/mol
# Density = 1.787821 g / cm^3
# Si number density = 17.918999 Si / 1000 Ang^3
#
#
#
# Elastic Constant Matrix: (Units=GPa)
#
#
# Indices 1 2 3 4 5 6 
#
# 1 78.5611 33.9177 12.9503 0.0000 0.0000 0.0000
# 2 33.9177 78.5611 12.9503 0.0000 0.0000 0.0000
# 3 12.9503 12.9503 79.5883 0.0000 0.0000 0.0000
# 4 0.0000 0.0000 0.0000 23.6783 0.0000 0.0000
# 5 0.0000 0.0000 0.0000 0.0000 23.6783 0.0000
# 6 0.0000 0.0000 0.0000 0.0000 0.0000 22.3217
#
#
#
# Elastic Compliance Matrix: (Units=1/GPa)
#
#
# Indices 1 2 3 4 5 6 
#
# 1 0.015818 -0.006582 -0.001503 0.000000 0.000000 0.000000
# 2 -0.006582 0.015818 -0.001503 0.000000 0.000000 0.000000
# 3 -0.001503 -0.001503 0.013054 0.000000 0.000000 0.000000
# 4 0.000000 0.000000 0.000000 0.042233 0.000000 0.000000
# 5 0.000000 0.000000 0.000000 0.000000 0.042233 0.000000
# 6 0.000000 0.000000 0.000000 0.000000 0.000000 0.044799
#
#
# Mechanical properties :
#
#
# Convention : Reuss Voigt Hill
#
# Bulk Modulus (GPa) = 39.19224 39.59414 39.39319
# Shear Modulus (GPa) = 24.79726 25.72847 25.26286
#
# Velocity S-wave (km/s) = 3.72405 3.79333 3.75885
# Velocity P-wave (km/s) = 6.35695 6.42884 6.39300
#
# Compressibility (1/GPa) = 0.02551526
#
# Stress axis : x y z
#
# Youngs Moduli (GPa) = 63.21833 63.21833 76.60620
#
# Poissons Ratio (x) = 0.41607 0.11514
# Poissons Ratio (y) = 0.41607 0.11514
# Poissons Ratio (z) = 0.09501 0.09501
#
# Static dielectric constant tensor:
#      x y z
#    x 3.209500 0.000000 0.000000 
#    y 0.000000 3.209500 0.000000 
#    z 0.000000 0.000000 3.474840 
# 
# 
# High freq. dielectric constant tensor:
#      x y z
#    x 1.693250 0.000000 0.000000 
#    y 0.000000 1.693250 0.000000 
#    z 0.000000 0.000000 1.711330 
# 
# From -- ./inp_files/3962.got.cif
#   From: 2010.03.12/outbox.cif.g09.slc.cpg/sg186_2_cif.got.tgz:3962.got - 2010.04.01 11:56:34.
