data_PCOD8326692
_publ_section_title
;
Structure prediction by ZEFSAII (Michael W. Deem and Ramdas Pophale) SiO2 
 PCOD8326692
Probable space group: P 63 C M
;
_chemical_formula_sum "Si O2"
_cell_formula_units_Z 48
_cell_length_a 13.756344
_cell_length_b 13.756344
_cell_length_c 19.272644
_cell_angle_alpha 90.000000
_cell_angle_beta 90.000000
_cell_angle_gamma 120.000000
_cell_volume 3158.478944
_symmetry_space_group_name_H-M "P 63 C M"
_symmetry_group_IT_number 185
_symmetry_cell_setting 'hexagonal'
loop_
_space_group_symop_operation_xyz
x,y,z
x-y,x,1/2+z
-y,x-y,z
-x,-y,1/2+z
-x+y,-x,z
y,-x+y,1/2+z
-x+y,y,1/2+z
x,x-y,1/2+z
-y,-x,1/2+z
y,x,z
x-y,-y,z
-x,-x+y,z
loop_
_atom_site_type_symbol
_atom_site_label
_atom_site_fract_x
_atom_site_fract_y
_atom_site_fract_z
Si Si1 0.541246 0.209479 0.036460
Si Si2 0.668233 0.458754 0.188616
Si Si3 0.540986 0.667683 0.892099
Si Si4 0.459014 0.332317 0.832977
O O1 0.665344 0.222536 0.029871
O O2 0.489830 0.158332 0.112538
O O3 0.461483 0.130529 0.975881
O O4 0.557192 0.334656 0.195204
O O5 0.669046 0.538518 0.249195
O O6 0.628867 0.628867 0.868811
O O7 0.417174 0.582826 0.862538
O O8 0.582816 0.791408 0.862538
O O9 0.371133 0.371133 0.856265
#
# Coordination Sequence:
#
# PCOD8326692 Si02
#       4
#    12  12  12  12
#     4   8  14  26  44  62  91 121 144 181 222 272
#     4   8  14  26  44  62  91 121 144 181 222 272
#     4  11  19  29  47  67  91 121 153 188 227 271
#     4  11  19  29  47  67  91 121 153 188 227 271
#
# _framework density 15.197189
#
# number of rings (size 3 to 8) (size 9 to 14) (size 15 to 20)
#    1.000    1.500    5.000    0.500    0.000    1.000 
#    0.000    0.000    0.000    2.000    0.000    0.000 
#    0.000    0.000    0.000    0.000    0.000    0.000 
#
# Total GULP energy -594655.151250 kJ/mol
# GULP energy per Si atom -12388.648984 kJ/mol
# Density = 1.516260 g / cm^3
# Si number density = 15.197189 Si / 1000 Ang^3
#
#
#
# Elastic Constant Matrix: (Units=GPa)
#
#
# Indices 1 2 3 4 5 6 
#
# 1 59.9191 31.5220 25.6743 0.0000 0.0000 0.0000
# 2 31.5220 59.9191 25.6743 0.0000 0.0000 0.0000
# 3 25.6743 25.6743 117.3069 0.0000 0.0000 0.0000
# 4 0.0000 0.0000 0.0000 14.5095 0.0000 0.0000
# 5 0.0000 0.0000 0.0000 0.0000 14.5095 0.0000
# 6 0.0000 0.0000 0.0000 0.0000 0.0000 14.1985
#
#
#
# Elastic Compliance Matrix: (Units=1/GPa)
#
#
# Indices 1 2 3 4 5 6 
#
# 1 0.023842 -0.011373 -0.002729 0.000000 0.000000 0.000000
# 2 -0.011373 0.023842 -0.002729 0.000000 0.000000 0.000000
# 3 -0.002729 -0.002729 0.009719 0.000000 0.000000 0.000000
# 4 0.000000 0.000000 0.000000 0.068920 0.000000 0.000000
# 5 0.000000 0.000000 0.000000 0.000000 0.068920 0.000000
# 6 0.000000 0.000000 0.000000 0.000000 0.000000 0.070430
#
#
# Mechanical properties :
#
#
# Convention : Reuss Voigt Hill
#
# Bulk Modulus (GPa) = 42.12223 44.76512 43.44367
# Shear Modulus (GPa) = 16.27347 18.92847 17.60097
#
# Velocity S-wave (km/s) = 3.27589 3.53303 3.40689
# Velocity P-wave (km/s) = 6.48736 6.79435 6.64263
#
# Compressibility (1/GPa) = 0.02374043
#
# Stress axis : x y z
#
# Youngs Moduli (GPa) = 41.94342 41.94342 102.88958
#
# Poissons Ratio (x) = 0.47703 0.28077
# Poissons Ratio (y) = 0.47703 0.28077
# Poissons Ratio (z) = 0.11446 0.11446
#
# Static dielectric constant tensor:
#      x y z
#    x 2.475510 0.000000 0.000000 
#    y 0.000000 2.475510 0.000000 
#    z 0.000000 0.000000 3.045770 
# 
# 
# High freq. dielectric constant tensor:
#      x y z
#    x 1.532490 0.000000 0.000000 
#    y 0.000000 1.532490 0.000000 
#    z 0.000000 0.000000 1.606550 
# 
# From -- ./inp_files/1838.got.cif
#   From: 2010.03.12/outbox.cif.g09.slc.cpg/sg185_cif.got.tgz:1838.got - 2010.04.01 11:55:19.
