data_PCOD8326370
_publ_section_title
;
Structure prediction by ZEFSAII (Michael W. Deem and Ramdas Pophale) SiO2 
 PCOD8326370
Probable space group: P 64 2 2
;
_chemical_formula_sum "Si O2"
_cell_formula_units_Z 48
_cell_length_a 14.322744
_cell_length_b 14.322744
_cell_length_c 13.922895
_cell_angle_alpha 90.000000
_cell_angle_beta 90.000000
_cell_angle_gamma 120.000000
_cell_volume 2473.504124
_symmetry_space_group_name_H-M "P 64 2 2"
_symmetry_group_IT_number 181
_symmetry_cell_setting 'hexagonal'
loop_
_space_group_symop_operation_xyz
x,y,z
x-y,x,2/3+z
-y,x-y,1/3+z
-x,-y,z
-x+y,-x,2/3+z
y,-x+y,1/3+z
x-y,-y,-z
-x,-x+y,2/3-z
y,x,1/3-z
-y,-x,1/3-z
-x+y,y,-z
x,x-y,2/3-z
loop_
_atom_site_type_symbol
_atom_site_label
_atom_site_fract_x
_atom_site_fract_y
_atom_site_fract_z
Si Si1 0.355795 0.355795 0.666667
Si Si2 0.570107 0.756163 0.537819
Si Si3 0.846997 0.371736 0.181455
Si Si4 0.763067 0.526133 0.000000
Si Si5 0.110142 0.592781 0.971202
O O1 0.338322 0.255700 0.598175
O O2 0.380762 0.455198 0.598988
O O3 0.455364 0.646963 0.543211
O O4 0.602565 0.776232 0.424466
O O5 0.556366 0.852126 0.582114
O O6 0.745502 0.254499 0.166667
O O7 0.913468 0.397242 0.082736
O O8 0.642750 0.444611 0.036194
O O9 0.000000 0.500000 0.923774
#
# Coordination Sequence:
#
# PCOD8326370 Si02
#       5
#     6  12  12   6  12
#     4  12  23  36  58  84 118 161 214 263 296 360
#     4  11  21  35  54  79 114 158 207 256 299 357
#     4  11  20  34  56  82 113 158 209 251 301 356
#     4  10  22  36  52  75 116 157 198 256 300 352
#     4  11  22  37  56  82 116 161 209 246 303 368
#
# _framework density 19.405669
#
# number of rings (size 3 to 8) (size 9 to 14) (size 15 to 20)
#    0.000    1.000    2.500    9.000    0.000    2.000 
#    0.000    0.000    0.000    0.000    0.000    0.000 
#    0.000    1.000    1.500    0.250    0.500    0.000 
#
# Total GULP energy -594844.216816 kJ/mol
# GULP energy per Si atom -12392.587850 kJ/mol
# Density = 1.936150 g / cm^3
# Si number density = 19.405669 Si / 1000 Ang^3
#
#
#
# Elastic Constant Matrix: (Units=GPa)
#
#
# Indices 1 2 3 4 5 6 
#
# 1 93.1176 39.3243 32.8789 0.0000 0.0000 0.0000
# 2 39.3243 93.1176 32.8789 0.0000 0.0000 0.0000
# 3 32.8789 32.8789 144.8868 0.0000 0.0000 0.0000
# 4 0.0000 0.0000 0.0000 89.6264 0.0000 0.0000
# 5 0.0000 0.0000 0.0000 0.0000 89.6264 0.0000
# 6 0.0000 0.0000 0.0000 0.0000 0.0000 26.8967
#
#
#
# Elastic Compliance Matrix: (Units=1/GPa)
#
#
# Indices 1 2 3 4 5 6 
#
# 1 0.013549 -0.005040 -0.001931 0.000000 0.000000 0.000000
# 2 -0.005040 0.013549 -0.001931 0.000000 0.000000 0.000000
# 3 -0.001931 -0.001931 0.007778 0.000000 0.000000 0.000000
# 4 0.000000 0.000000 0.000000 0.011157 0.000000 0.000000
# 5 0.000000 0.000000 0.000000 0.000000 0.011157 0.000000
# 6 0.000000 0.000000 0.000000 0.000000 0.000000 0.037179
#
#
# Mechanical properties :
#
#
# Convention : Reuss Voigt Hill
#
# Bulk Modulus (GPa) = 58.57256 60.14290 59.35773
# Shear Modulus (GPa) = 42.42079 56.29921 49.36000
#
# Velocity S-wave (km/s) = 4.68054 5.39210 5.04887
# Velocity P-wave (km/s) = 7.71095 8.35620 8.04005
#
# Compressibility (1/GPa) = 0.01707284
#
# Stress axis : x y z
#
# Youngs Moduli (GPa) = 73.80378 73.80378 128.56235
#
# Poissons Ratio (x) = 0.37199 0.24825
# Poissons Ratio (y) = 0.37199 0.24825
# Poissons Ratio (z) = 0.14251 0.14251
#
# Static dielectric constant tensor:
#      x y z
#    x 3.483430 0.000000 0.000000 
#    y 0.000000 3.483430 0.000000 
#    z 0.000000 0.000000 4.317730 
# 
# 
# High freq. dielectric constant tensor:
#      x y z
#    x 1.714160 0.000000 0.000000 
#    y 0.000000 1.714160 0.000000 
#    z 0.000000 0.000000 1.799280 
# 
# From -- ./inp_files/5910.got.cif
#   From: 2010.03.12/outbox.cif.g09.slc.cpg/sg181_3_cif.got.tgz:5910.got - 2010.04.01 11:42:41.
