data_PCOD8326143
_publ_section_title
;
Structure prediction by ZEFSAII (Michael W. Deem and Ramdas Pophale) SiO2 
 PCOD8326143
Probable space group: P 62 2 2
;
_chemical_formula_sum "Si O2"
_cell_formula_units_Z 84
_cell_length_a 14.682795
_cell_length_b 14.682795
_cell_length_c 22.307607
_cell_angle_alpha 90.000000
_cell_angle_beta 90.000000
_cell_angle_gamma 120.000000
_cell_volume 4164.866517
_symmetry_space_group_name_H-M "P 62 2 2"
_symmetry_group_IT_number 180
_symmetry_cell_setting 'hexagonal'
loop_
_space_group_symop_operation_xyz
x,y,z
x-y,x,1/3+z
-y,x-y,2/3+z
-x,-y,z
-x+y,-x,1/3+z
y,-x+y,2/3+z
x-y,-y,-z
-x,-x+y,1/3-z
y,x,2/3-z
-y,-x,2/3-z
-x+y,y,-z
x,x-y,1/3-z
loop_
_atom_site_type_symbol
_atom_site_label
_atom_site_fract_x
_atom_site_fract_y
_atom_site_fract_z
Si Si1 0.652762 0.987469 0.260305
Si Si2 0.214845 0.793334 0.402743
Si Si3 0.187138 0.422945 0.608710
Si Si4 0.241295 0.456761 0.255125
Si Si5 0.600643 0.604046 0.464848
Si Si6 0.401515 0.391307 0.939715
Si Si7 0.652030 0.307341 0.736741
O O1 0.763956 0.095096 0.249724
O O2 0.583731 0.973313 0.201434
O O3 0.667867 0.886417 0.267836
O O4 0.596287 0.994159 0.321039
O O5 0.222710 0.777291 0.333334
O O6 0.245399 0.710593 0.432794
O O7 0.295711 0.913264 0.421598
O O8 0.169220 0.441807 0.677669
O O9 0.285501 0.530906 0.582782
O O10 0.081915 0.381486 0.571627
O O11 0.288893 0.404281 0.210982
O O12 0.115490 0.405436 0.248888
O O13 0.294156 0.577399 0.234721
O O14 0.500000 0.500000 0.438723
O O15 0.500000 0.500000 0.916732
O O16 0.643447 0.321724 0.666667
#
# Coordination Sequence:
#
# PCOD8326143 Si02
#       7
#    12  12  12  12  12  12  12
#     4  10  23  35  52  83 112 146 182 233 281 329
#     4   9  18  32  56  80 108 141 186 230 271 321
#     4  10  21  35  55  74 111 153 194 220 265 330
#     4  10  20  34  54  81 110 148 189 224 268 335
#     4  12  23  35  50  79 117 150 182 226 282 332
#     4  10  18  35  61  83 105 140 188 233 276 331
#     4   9  16  28  49  79 107 144 181 221 262 319
#
# _framework density 20.168714000000001
#
# number of rings (size 3 to 8) (size 9 to 14) (size 15 to 20)
#    0.000    2.000    2.857    1.286    8.000    0.571 
#    0.000    1.429    0.000    1.714    0.000    7.000 
#    0.000    0.000    0.000    0.000    0.000    0.000 
#
# Total GULP energy -1041038.814263 kJ/mol
# GULP energy per Si atom -12393.319217 kJ/mol
# Density = 2.012281 g / cm^3
# Si number density = 20.168714 Si / 1000 Ang^3
#
#
#
# Elastic Constant Matrix: (Units=GPa)
#
#
# Indices 1 2 3 4 5 6 
#
# 1 106.6169 51.3672 6.2854 0.0000 0.0000 0.0000
# 2 51.3672 106.6169 6.2854 0.0000 0.0000 0.0000
# 3 6.2854 6.2854 38.8850 0.0000 0.0000 0.0000
# 4 0.0000 0.0000 0.0000 11.8336 0.0000 0.0000
# 5 0.0000 0.0000 0.0000 0.0000 11.8336 0.0000
# 6 0.0000 0.0000 0.0000 0.0000 0.0000 27.6249
#
#
#
# Elastic Compliance Matrix: (Units=1/GPa)
#
#
# Indices 1 2 3 4 5 6 
#
# 1 0.012256 -0.005844 -0.001036 0.000000 0.000000 0.000000
# 2 -0.005844 0.012256 -0.001036 0.000000 0.000000 0.000000
# 3 -0.001036 -0.001036 0.026052 0.000000 0.000000 0.000000
# 4 0.000000 0.000000 0.000000 0.084505 0.000000 0.000000
# 5 0.000000 0.000000 0.000000 0.000000 0.084505 0.000000
# 6 0.000000 0.000000 0.000000 0.000000 0.000000 0.036199
#
#
# Mechanical properties :
#
#
# Convention : Reuss Voigt Hill
#
# Bulk Modulus (GPa) = 28.79313 42.22162 35.50738
# Shear Modulus (GPa) = 17.65639 22.80380 20.23010
#
# Velocity S-wave (km/s) = 2.96198 3.36616 3.17052
# Velocity P-wave (km/s) = 5.09950 6.00731 5.57192
#
# Compressibility (1/GPa) = 0.03473050
#
# Stress axis : x y z
#
# Youngs Moduli (GPa) = 81.59312 81.59312 38.38486
#
# Poissons Ratio (x) = 0.47681 0.03978
# Poissons Ratio (y) = 0.47681 0.03978
# Poissons Ratio (z) = 0.08457 0.08457
#
# Static dielectric constant tensor:
#      x y z
#    x 3.699930 0.000000 0.000000 
#    y 0.000000 3.699930 0.000000 
#    z 0.000000 0.000000 3.498320 
# 
# 
# High freq. dielectric constant tensor:
#      x y z
#    x 1.770570 0.000000 0.000000 
#    y 0.000000 1.770570 0.000000 
#    z 0.000000 0.000000 1.779270 
# 
# From -- ./inp_files/10282.got.cif
#   From: 2010.03.12/outbox.cif.g09.slc.cpg/sg180_6_cif.got.tgz:10282.got - 2010.04.01 11:35:50.
