data_PCOD8326004
_publ_section_title
;
Structure prediction by ZEFSAII (Michael W. Deem and Ramdas Pophale) SiO2 
 PCOD8326004
Probable space group: P 61 2 2
;
_chemical_formula_sum "Si O2"
_cell_formula_units_Z 42
_cell_length_a 8.380555
_cell_length_b 8.380555
_cell_length_c 28.631674
_cell_angle_alpha 90.000000
_cell_angle_beta 90.000000
_cell_angle_gamma 120.000000
_cell_volume 1741.497813
_symmetry_space_group_name_H-M "P 61 2 2"
_symmetry_group_IT_number 178
_symmetry_cell_setting 'hexagonal'
loop_
_space_group_symop_operation_xyz
x,y,z
x-y,x,1/6+z
-y,x-y,1/3+z
-x,-y,1/2+z
-x+y,-x,2/3+z
y,-x+y,5/6+z
x-y,-y,-z
-x,-x+y,2/3-z
y,x,1/3-z
-y,-x,5/6-z
-x+y,y,1/2-z
x,x-y,1/6-z
loop_
_atom_site_type_symbol
_atom_site_label
_atom_site_fract_x
_atom_site_fract_y
_atom_site_fract_z
Si Si1 0.895463 0.262734 0.584657
Si Si2 0.224607 0.936303 0.641615
Si Si3 0.000000 0.317933 0.833334
Si Si4 0.510684 0.576117 0.588437
O O1 0.949314 0.474657 0.583334
O O2 0.898807 0.194404 0.636702
O O3 0.037810 0.239189 0.551981
O O4 0.686602 0.133382 0.566857
O O5 0.402238 0.924449 0.625510
O O6 0.274067 0.146230 0.633376
O O7 0.119202 0.485967 0.868751
O O8 0.581337 0.790669 0.583334
#
# Coordination Sequence:
#
# PCOD8326004 Si02
#       4
#    12  12   6  12
#     4  12  28  49  82 115 158 203 263 326 390 474
#     4  12  27  51  77 116 155 205 261 322 397 466
#     4  12  28  50  78 106 160 204 254 322 388 460
#     4  12  30  48  77 114 154 205 258 321 393 470
#
# _framework density 24.117170999999999
#
# number of rings (size 3 to 8) (size 9 to 14) (size 15 to 20)
#    0.000    0.000    2.857    5.143   16.000    0.000 
#    0.000    0.000    0.000    0.000    0.000    0.000 
#    0.000    0.000    0.000    0.000    0.000    0.000 
#
# Total GULP energy -521107.052615 kJ/mol
# GULP energy per Si atom -12407.310777 kJ/mol
# Density = 2.406228 g / cm^3
# Si number density = 24.117171 Si / 1000 Ang^3
#
#
#
# Elastic Constant Matrix: (Units=GPa)
#
#
# Indices 1 2 3 4 5 6 
#
# 1 126.3312 49.7919 50.4878 0.0000 0.0000 0.0000
# 2 49.7919 126.3312 50.4878 0.0000 0.0000 0.0000
# 3 50.4878 50.4878 152.7905 0.0000 0.0000 0.0000
# 4 0.0000 0.0000 0.0000 39.6393 0.0000 0.0000
# 5 0.0000 0.0000 0.0000 0.0000 39.6393 0.0000
# 6 0.0000 0.0000 0.0000 0.0000 0.0000 38.2697
#
#
#
# Elastic Compliance Matrix: (Units=1/GPa)
#
#
# Indices 1 2 3 4 5 6 
#
# 1 0.010035 -0.003030 -0.002315 0.000000 0.000000 0.000000
# 2 -0.003030 0.010035 -0.002315 0.000000 0.000000 0.000000
# 3 -0.002315 -0.002315 0.008075 0.000000 0.000000 0.000000
# 4 0.000000 0.000000 0.000000 0.025227 0.000000 0.000000
# 5 0.000000 0.000000 0.000000 0.000000 0.025227 0.000000
# 6 0.000000 0.000000 0.000000 0.000000 0.000000 0.026130
#
#
# Mechanical properties :
#
#
# Convention : Reuss Voigt Hill
#
# Bulk Modulus (GPa) = 77.96845 78.55421 78.26133
# Shear Modulus (GPa) = 40.21738 40.48867 40.35303
#
# Velocity S-wave (km/s) = 4.08804 4.10180 4.09492
# Velocity P-wave (km/s) = 7.39472 7.42130 7.40802
#
# Compressibility (1/GPa) = 0.01282570
#
# Stress axis : x y z
#
# Youngs Moduli (GPa) = 99.65071 99.65071 123.84457
#
# Poissons Ratio (x) = 0.30195 0.28666
# Poissons Ratio (y) = 0.30195 0.28666
# Poissons Ratio (z) = 0.23066 0.23066
#
# Static dielectric constant tensor:
#      x y z
#    x 4.321620 0.000000 0.000000 
#    y 0.000000 4.321620 0.000000 
#    z 0.000000 0.000000 4.404240 
# 
# 
# High freq. dielectric constant tensor:
#      x y z
#    x 1.964070 0.000000 0.000000 
#    y 0.000000 1.964070 0.000000 
#    z 0.000000 0.000000 1.970720 
# 
# From -- ./inp_files/9269.got.cif
#   From: 2010.03.12/outbox.cif.g09.slc.cpg/sg178_5_cif.got.tgz:9269.got - 2010.04.02 07:02:38.
