data_PCOD8326611
_publ_section_title
;
Structure prediction by ZEFSAII (Michael W. Deem and Ramdas Pophale) SiO2 
 PCOD8326611
Probable space group: P 6 C C
;
_chemical_formula_sum "Si O2"
_cell_formula_units_Z 44
_cell_length_a 13.733109
_cell_length_b 13.733109
_cell_length_c 13.655631
_cell_angle_alpha 90.000000
_cell_angle_beta 90.000000
_cell_angle_gamma 120.000000
_cell_volume 2230.386556
_symmetry_space_group_name_H-M "P 6 C C"
_symmetry_group_IT_number 184
_symmetry_cell_setting 'hexagonal'
loop_
_space_group_symop_operation_xyz
x,y,z
x-y,x,z
-y,x-y,z
-x,-y,z
-x+y,-x,z
y,-x+y,z
-x+y,y,1/2+z
x,x-y,1/2+z
-y,-x,1/2+z
y,x,1/2+z
x-y,-y,1/2+z
-x,-x+y,1/2+z
loop_
_atom_site_type_symbol
_atom_site_label
_atom_site_fract_x
_atom_site_fract_y
_atom_site_fract_z
Si Si1 0.176314 0.427668 0.484060
Si Si2 0.666668 0.333334 0.213189
Si Si3 0.593687 0.628165 0.887406
Si Si4 0.333335 0.666668 0.941686
Si Si5 0.622030 0.098472 0.669622
O O1 0.280303 0.408717 0.460854
O O2 0.219374 0.560330 0.477816
O O3 0.120862 0.397870 0.593555
O O4 0.076899 0.361853 0.404769
O O5 0.666668 0.333334 0.327243
O O6 0.599639 0.206902 0.174994
O O7 0.500000 0.500000 0.913803
O O8 0.584345 0.657503 0.775207
O O9 0.500000 0.000000 0.634679
#
# Coordination Sequence:
#
# PCOD8326611 Si02
#       5
#    12   4  12   4  12
#     4  12  23  39  63  90 130 174 218 277 341 411
#     4  12  22  38  61  88 131 178 217 284 331 412
#     4  11  24  40  61  93 129 173 224 281 340 415
#     4  12  19  38  61  85 131 169 214 266 331 394
#     4  11  25  38  60  91 131 179 226 271 344 414
#
# _framework density 19.727519999999998
#
# number of rings (size 3 to 8) (size 9 to 14) (size 15 to 20)
#    0.000    0.545    5.455    4.091    3.818    0.000 
#    0.000    0.000    0.000    0.545    0.000    0.000 
#    0.000    4.364    0.000    0.000    0.000    0.000 
#
# Total GULP energy -545194.592637 kJ/mol
# GULP energy per Si atom -12390.786196 kJ/mol
# Density = 1.968262 g / cm^3
# Si number density = 19.727520 Si / 1000 Ang^3
#
#
#
# Elastic Constant Matrix: (Units=GPa)
#
#
# Indices 1 2 3 4 5 6 
#
# 1 109.8348 42.1887 46.4405 -0.0002 -0.0001 0.0002
# 2 42.1887 109.8346 46.4401 0.0004 0.0001 -0.0002
# 3 46.4405 46.4401 130.0690 0.0000 0.0000 0.0001
# 4 -0.0002 0.0004 0.0000 34.1625 -0.0003 -0.0001
# 5 -0.0001 0.0001 0.0000 -0.0003 34.1641 0.0003
# 6 0.0002 -0.0002 0.0001 -0.0001 0.0003 33.8226
#
#
#
# Elastic Compliance Matrix: (Units=1/GPa)
#
#
# Indices 1 2 3 4 5 6 
#
# 1 0.011598 -0.003185 -0.003004 0.000000 0.000000 0.000000
# 2 -0.003185 0.011598 -0.003004 0.000000 0.000000 0.000000
# 3 -0.003004 -0.003004 0.009833 0.000000 0.000000 0.000000
# 4 0.000000 0.000000 0.000000 0.029272 0.000000 0.000000
# 5 0.000000 0.000000 0.000000 0.000000 0.029270 0.000000
# 6 0.000000 0.000000 0.000000 0.000000 0.000000 0.029566
#
#
# Mechanical properties :
#
#
# Convention : Reuss Voigt Hill
#
# Bulk Modulus (GPa) = 68.28673 68.87522 68.58098
# Shear Modulus (GPa) = 34.62505 34.74113 34.68309
#
# Velocity S-wave (km/s) = 4.19401 4.20104 4.19753
# Velocity P-wave (km/s) = 7.62516 7.64988 7.63753
#
# Compressibility (1/GPa) = 0.01464413
#
# Stress axis : x y z
#
# Youngs Moduli (GPa) = 86.22160 86.22167 101.69569
#
# Poissons Ratio (x) = 0.27460 0.30548
# Poissons Ratio (y) = 0.27460 0.30548
# Poissons Ratio (z) = 0.25900 0.25900
#
# Static dielectric constant tensor:
#      x y z
#    x 3.366040 0.000000 0.000000 
#    y 0.000000 3.366050 0.000000 
#    z 0.000000 0.000000 3.982790 
# 
# 
# High freq. dielectric constant tensor:
#      x y z
#    x 1.742270 0.000000 0.000000 
#    y 0.000000 1.742270 0.000000 
#    z 0.000000 0.000000 1.796790 
# 
# From -- ./inp_files/764.got.cif
#   From: 2010.03.12/outbox.cif.g09.slc.cpg/sg184_cif.got.tgz:764.got - 2010.04.01 11:54:36.
