data_PCOD8326802
_publ_section_title
;
Structure prediction by ZEFSAII (Michael W. Deem and Ramdas Pophale) SiO2 
 PCOD8326802
Probable space group: P 63 M C
;
_chemical_formula_sum "Si O2"
_cell_formula_units_Z 30
_cell_length_a 17.429694
_cell_length_b 17.429694
_cell_length_c 4.763543
_cell_angle_alpha 90.000000
_cell_angle_beta 90.000000
_cell_angle_gamma 120.000000
_cell_volume 1253.257311
_symmetry_space_group_name_H-M "P 63 M C"
_symmetry_group_IT_number 186
_symmetry_cell_setting 'hexagonal'
loop_
_space_group_symop_operation_xyz
x,y,z
x-y,x,1/2+z
-y,x-y,z
-x,-y,1/2+z
-x+y,-x,z
y,-x+y,1/2+z
-x+y,y,z
x,x-y,z
-y,-x,z
y,x,1/2+z
x-y,-y,1/2+z
-x,-x+y,1/2+z
loop_
_atom_site_type_symbol
_atom_site_label
_atom_site_fract_x
_atom_site_fract_y
_atom_site_fract_z
Si Si1 0.664618 0.504973 0.174310
Si Si2 0.937462 0.240981 0.396757
Si Si3 0.469863 0.939725 0.255302
O O1 0.744991 0.489981 0.108598
O O2 0.585376 0.414625 0.323724
O O3 0.692046 0.591152 0.362887
O O4 0.631943 0.518552 0.865654
O O5 0.859677 0.140324 0.338893
O O6 0.976007 0.247850 0.705403
O O7 0.517630 0.035259 0.425017
#
# Coordination Sequence:
#
# PCOD8326802 Si02
#       3
#    12  12   6
#     4   9  20  36  62  90 130 169 213 259 305 366
#     4  11  23  41  66  95 125 163 206 256 314 374
#     4  10  20  36  58  80 114 162 208 252 300 358
#
# _framework density 23.937621
#
# number of rings (size 3 to 8) (size 9 to 14) (size 15 to 20)
#    1.200    0.800    0.000    4.000    0.000    0.000 
#    0.000    6.000    0.000    8.000    0.000    0.000 
#    0.000    0.000    0.000    0.000    0.000    0.000 
#
# Total GULP energy -371701.190518 kJ/mol
# GULP energy per Si atom -12390.039684 kJ/mol
# Density = 2.388314 g / cm^3
# Si number density = 23.937621 Si / 1000 Ang^3
#
#
#
# Elastic Constant Matrix: (Units=GPa)
#
#
# Indices 1 2 3 4 5 6 
#
# 1 141.7973 59.5828 2.5201 0.0000 0.0000 0.0000
# 2 59.5828 141.7973 2.5201 0.0000 0.0000 0.0000
# 3 2.5201 2.5201 47.4140 0.0000 0.0000 0.0000
# 4 0.0000 0.0000 0.0000 24.2307 0.0000 0.0000
# 5 0.0000 0.0000 0.0000 0.0000 24.2307 0.0000
# 6 0.0000 0.0000 0.0000 0.0000 0.0000 41.1072
#
#
#
# Elastic Compliance Matrix: (Units=1/GPa)
#
#
# Indices 1 2 3 4 5 6 
#
# 1 0.008568 -0.003595 -0.000264 0.000000 0.000000 0.000000
# 2 -0.003595 0.008568 -0.000264 0.000000 0.000000 0.000000
# 3 -0.000264 -0.000264 0.021119 0.000000 0.000000 0.000000
# 4 0.000000 0.000000 0.000000 0.041270 0.000000 0.000000
# 5 0.000000 0.000000 0.000000 0.000000 0.041270 0.000000
# 6 0.000000 0.000000 0.000000 0.000000 0.000000 0.024327
#
#
# Mechanical properties :
#
#
# Convention : Reuss Voigt Hill
#
# Bulk Modulus (GPa) = 33.32615 51.13941 42.23278
# Shear Modulus (GPa) = 30.60509 35.67274 33.13892
#
# Velocity S-wave (km/s) = 3.57954 3.86455 3.72477
# Velocity P-wave (km/s) = 5.57104 6.42829 6.01496
#
# Compressibility (1/GPa) = 0.03000647
#
# Stress axis : x y z
#
# Youngs Moduli (GPa) = 116.71567 116.71567 47.35090
#
# Poissons Ratio (x) = 0.41965 0.01251
# Poissons Ratio (y) = 0.41965 0.01251
# Poissons Ratio (z) = 0.03085 0.03085
#
# Static dielectric constant tensor:
#      x y z
#    x 4.348020 0.000000 0.000000 
#    y 0.000000 4.348020 0.000000 
#    z 0.000000 0.000000 4.028550 
# 
# 
# High freq. dielectric constant tensor:
#      x y z
#    x 1.953390 0.000000 0.000000 
#    y 0.000000 1.953390 0.000000 
#    z 0.000000 0.000000 1.944230 
# 
# From -- ./inp_files/91.got.cif
#   From: 2010.03.12/outbox.cif.g09.slc.cpg/sg186_1_cif.got.tgz:91.got - 2010.04.01 11:56:34.
