data_PCOD8326325
_publ_section_title
;
Structure prediction by ZEFSAII (Michael W. Deem and Ramdas Pophale) SiO2 
 PCOD8326325
Probable space group: P 64 2 2
;
_chemical_formula_sum "Si O2"
_cell_formula_units_Z 51
_cell_length_a 16.488914
_cell_length_b 16.488914
_cell_length_c 10.046391
_cell_angle_alpha 90.000000
_cell_angle_beta 90.000000
_cell_angle_gamma 120.000000
_cell_volume 2365.510141
_symmetry_space_group_name_H-M "P 64 2 2"
_symmetry_group_IT_number 181
_symmetry_cell_setting 'hexagonal'
loop_
_space_group_symop_operation_xyz
x,y,z
x-y,x,2/3+z
-y,x-y,1/3+z
-x,-y,z
-x+y,-x,2/3+z
y,-x+y,1/3+z
x-y,-y,-z
-x,-x+y,2/3-z
y,x,1/3-z
-y,-x,1/3-z
-x+y,y,-z
x,x-y,2/3-z
loop_
_atom_site_type_symbol
_atom_site_label
_atom_site_fract_x
_atom_site_fract_y
_atom_site_fract_z
Si Si1 0.491908 0.837591 0.173852
Si Si2 0.500000 0.500000 0.666667
Si Si3 0.676449 0.890237 0.708588
Si Si4 0.698961 0.899416 0.211628
Si Si5 0.527280 0.308702 0.972455
O O1 0.588400 0.854412 0.233845
O O2 0.420254 0.819805 0.295440
O O3 0.444565 0.743911 0.082657
O O4 0.520760 0.931926 0.090001
O O5 0.647787 0.823894 0.833334
O O6 0.724040 0.859252 0.592388
O O7 0.574913 0.871367 0.657440
O O8 0.741188 0.990057 0.773105
O O9 0.740483 0.870242 0.333334
O O10 0.525651 0.262826 0.833334
#
# Coordination Sequence:
#
# PCOD8326325 Si02
#       5
#    12   3  12  12  12
#     4  11  23  35  62  86 130 165 221 266 323 375
#     4  12  20  36  60  88 118 164 226 288 290 360
#     4  10  22  40  68  93 124 161 217 264 318 384
#     4  11  24  41  63  94 130 167 204 264 329 396
#     4  10  19  37  54  89 119 165 209 268 310 370
#
# _framework density 21.559832
#
# number of rings (size 3 to 8) (size 9 to 14) (size 15 to 20)
#    0.000    1.412    2.353    2.824    6.588    1.882 
#    0.000    3.529    0.000   12.706    0.000    0.000 
#    0.000    0.000    0.000    0.000    0.000    0.000 
#
# Total GULP energy -631925.763685 kJ/mol
# GULP energy per Si atom -12390.701249 kJ/mol
# Density = 2.151076 g / cm^3
# Si number density = 21.559832 Si / 1000 Ang^3
#
#
#
# Elastic Constant Matrix: (Units=GPa)
#
#
# Indices 1 2 3 4 5 6 
#
# 1 92.7540 39.1276 33.8145 0.0000 0.0000 0.0000
# 2 39.1276 92.7540 33.8145 0.0000 0.0000 0.0000
# 3 33.8145 33.8145 88.8419 0.0000 0.0000 0.0000
# 4 0.0000 0.0000 0.0000 35.3257 0.0000 0.0000
# 5 0.0000 0.0000 0.0000 0.0000 35.3257 0.0000
# 6 0.0000 0.0000 0.0000 0.0000 0.0000 26.8132
#
#
#
# Elastic Compliance Matrix: (Units=1/GPa)
#
#
# Indices 1 2 3 4 5 6 
#
# 1 0.014034 -0.004613 -0.003586 0.000000 0.000000 0.000000
# 2 -0.004613 0.014034 -0.003586 0.000000 0.000000 0.000000
# 3 -0.003586 -0.003586 0.013986 0.000000 0.000000 0.000000
# 4 0.000000 0.000000 0.000000 0.028308 0.000000 0.000000
# 5 0.000000 0.000000 0.000000 0.000000 0.028308 0.000000
# 6 0.000000 0.000000 0.000000 0.000000 0.000000 0.037295
#
#
# Mechanical properties :
#
#
# Convention : Reuss Voigt Hill
#
# Bulk Modulus (GPa) = 54.09850 54.20700 54.15275
# Shear Modulus (GPa) = 30.17552 30.66579 30.42065
#
# Velocity S-wave (km/s) = 3.74520 3.77551 3.76039
# Velocity P-wave (km/s) = 6.62184 6.64854 6.63521
#
# Compressibility (1/GPa) = 0.01848480
#
# Stress axis : x y z
#
# Youngs Moduli (GPa) = 71.25303 71.25303 71.50180
#
# Poissons Ratio (x) = 0.32869 0.25640
# Poissons Ratio (y) = 0.32869 0.25640
# Poissons Ratio (z) = 0.25551 0.25551
#
# Static dielectric constant tensor:
#      x y z
#    x 3.997790 0.000000 0.000000 
#    y 0.000000 3.997790 0.000000 
#    z 0.000000 0.000000 3.844160 
# 
# 
# High freq. dielectric constant tensor:
#      x y z
#    x 1.839700 0.000000 0.000000 
#    y 0.000000 1.839700 0.000000 
#    z 0.000000 0.000000 1.839130 
# 
# From -- ./inp_files/2775.got.cif
#   From: 2010.03.12/outbox.cif.g09.slc.cpg/sg181_2_cif.got.tgz:2775.got - 2010.04.01 11:42:41.
