data_PCOD8326146
_publ_section_title
;
Structure prediction by ZEFSAII (Michael W. Deem and Ramdas Pophale) SiO2 
 PCOD8326146
Probable space group: P 62 2 2
;
_chemical_formula_sum "Si O2"
_cell_formula_units_Z 96
_cell_length_a 14.728348
_cell_length_b 14.728348
_cell_length_c 23.103449
_cell_angle_alpha 90.000000
_cell_angle_beta 90.000000
_cell_angle_gamma 120.000000
_cell_volume 4340.257780
_symmetry_space_group_name_H-M "P 62 2 2"
_symmetry_group_IT_number 180
_symmetry_cell_setting 'hexagonal'
loop_
_space_group_symop_operation_xyz
x,y,z
x-y,x,1/3+z
-y,x-y,2/3+z
-x,-y,z
-x+y,-x,1/3+z
y,-x+y,2/3+z
x-y,-y,-z
-x,-x+y,1/3-z
y,x,2/3-z
-y,-x,2/3-z
-x+y,y,-z
x,x-y,1/3-z
loop_
_atom_site_type_symbol
_atom_site_label
_atom_site_fract_x
_atom_site_fract_y
_atom_site_fract_z
Si Si1 0.050435 0.739543 0.105650
Si Si2 0.156260 0.641032 0.594380
Si Si3 0.342095 0.453029 0.129088
Si Si4 0.811874 0.441547 0.229796
Si Si5 0.463751 0.342159 0.112508
Si Si6 0.299126 0.434885 0.423598
Si Si7 0.765301 0.056239 0.054244
Si Si8 0.156129 0.732612 0.274864
O O1 0.105977 0.670158 0.109851
O O2 0.128837 0.860358 0.086615
O O3 0.000000 0.741715 0.166667
O O4 0.956639 0.682304 0.059186
O O5 0.108650 0.646806 0.531874
O O6 0.282296 0.704971 0.593048
O O7 0.118887 0.520981 0.613333
O O8 0.114428 0.701819 0.636709
O O9 0.368243 0.365255 0.106447
O O10 0.423716 0.559332 0.095387
O O11 0.224099 0.420649 0.112715
O O12 0.781498 0.390749 0.166667
O O13 0.859182 0.383612 0.268254
O O14 0.436897 0.242959 0.071215
O O15 0.479864 0.322568 0.178819
O O16 0.276900 0.316632 0.427106
O O17 0.787460 0.000000 0.000000
O O18 0.214652 0.785349 0.333334
#
# Coordination Sequence:
#
# PCOD8326146 Si02
#       8
#    12  12  12  12  12  12  12  12
#     4  11  24  45  75  99 128 189 250 289 353 436
#     4  10  19  35  62  91 131 181 229 268 338 434
#     4  10  18  37  58  87 127 170 221 272 339 425
#     4  11  20  39  70 100 138 180 235 289 340 443
#     4   9  19  32  58  87 118 163 208 272 332 393
#     4  10  19  33  57  90 126 166 219 269 332 408
#     4  11  24  41  61  93 133 176 226 290 358 416
#     4  12  25  40  63 100 139 174 225 298 365 416
#
# _framework density 22.118500999999998
#
# number of rings (size 3 to 8) (size 9 to 14) (size 15 to 20)
#    0.000    1.500    3.750    2.250    1.750    2.000 
#   13.500    0.000    0.000    2.625    0.000    0.000 
#    0.000    0.000    0.000    0.000    0.000    0.000 
#
# Total GULP energy -1189832.627325 kJ/mol
# GULP energy per Si atom -12394.089868 kJ/mol
# Density = 2.206816 g / cm^3
# Si number density = 22.118501 Si / 1000 Ang^3
#
#
#
# Elastic Constant Matrix: (Units=GPa)
#
#
# Indices 1 2 3 4 5 6 
#
# 1 138.2877 59.4420 20.1285 0.0000 0.0000 0.0000
# 2 59.4420 138.2877 20.1285 0.0000 0.0000 0.0000
# 3 20.1285 20.1285 28.1153 0.0000 0.0000 0.0000
# 4 0.0000 0.0000 0.0000 30.5950 0.0000 0.0000
# 5 0.0000 0.0000 0.0000 0.0000 30.5950 0.0000
# 6 0.0000 0.0000 0.0000 0.0000 0.0000 39.4229
#
#
#
# Elastic Compliance Matrix: (Units=1/GPa)
#
#
# Indices 1 2 3 4 5 6 
#
# 1 0.009302 -0.003381 -0.004239 0.000000 0.000000 0.000000
# 2 -0.003381 0.009302 -0.004239 0.000000 0.000000 0.000000
# 3 -0.004239 -0.004239 0.041637 0.000000 0.000000 0.000000
# 4 0.000000 0.000000 0.000000 0.032685 0.000000 0.000000
# 5 0.000000 0.000000 0.000000 0.000000 0.032685 0.000000
# 6 0.000000 0.000000 0.000000 0.000000 0.000000 0.025366
#
#
# Mechanical properties :
#
#
# Convention : Reuss Voigt Hill
#
# Bulk Modulus (GPa) = 27.37974 56.00986 41.69480
# Shear Modulus (GPa) = 26.75691 33.78869 30.27280
#
# Velocity S-wave (km/s) = 3.48186 3.91272 3.70356
# Velocity P-wave (km/s) = 5.34509 6.76684 6.09754
#
# Compressibility (1/GPa) = 0.03652335
#
# Stress axis : x y z
#
# Youngs Moduli (GPa) = 107.50745 107.50745 24.01718
#
# Poissons Ratio (x) = 0.36352 0.10180
# Poissons Ratio (y) = 0.36352 0.10180
# Poissons Ratio (z) = 0.45568 0.45568
#
# Static dielectric constant tensor:
#      x y z
#    x 4.129830 0.000000 0.000000 
#    y 0.000000 4.129830 0.000000 
#    z 0.000000 0.000000 3.727550 
# 
# 
# High freq. dielectric constant tensor:
#      x y z
#    x 1.863370 0.000000 0.000000 
#    y 0.000000 1.863370 0.000000 
#    z 0.000000 0.000000 1.853560 
# 
# From -- ./inp_files/11442.got.cif
#   From: 2010.03.12/outbox.cif.g09.slc.cpg/sg180_6_cif.got.tgz:11442.got - 2010.04.01 11:35:50.
