data_PCOD8326061
_publ_section_title
;
Structure prediction by ZEFSAII (Michael W. Deem and Ramdas Pophale) SiO2 
 PCOD8326061
Probable space group: P 65 2 2
;
_chemical_formula_sum "Si O2"
_cell_formula_units_Z 42
_cell_length_a 14.880338
_cell_length_b 14.880338
_cell_length_c 11.254896
_cell_angle_alpha 90.000000
_cell_angle_beta 90.000000
_cell_angle_gamma 120.000000
_cell_volume 2158.229926
_symmetry_space_group_name_H-M "P 65 2 2"
_symmetry_group_IT_number 179
_symmetry_cell_setting 'hexagonal'
loop_
_space_group_symop_operation_xyz
x,y,z
x-y,x,5/6+z
-y,x-y,2/3+z
-x,-y,1/2+z
-x+y,-x,1/3+z
y,-x+y,1/6+z
x-y,-y,-z
-x,-x+y,1/3-z
y,x,2/3-z
-y,-x,1/6-z
-x+y,y,1/2-z
x,x-y,5/6-z
loop_
_atom_site_type_symbol
_atom_site_label
_atom_site_fract_x
_atom_site_fract_y
_atom_site_fract_z
Si Si1 0.578705 0.969443 0.810443
Si Si2 0.831766 0.427376 0.554437
Si Si3 0.633853 0.716905 0.428116
Si Si4 0.504499 0.752250 0.916667
O O1 0.466576 0.933152 0.750000
O O2 0.576252 0.871149 0.873355
O O3 0.600541 0.062353 0.900939
O O4 0.675146 0.022650 0.719213
O O5 0.795964 0.397982 0.416667
O O6 0.853569 0.340786 0.608934
O O7 0.746349 0.432191 0.638482
O O8 0.700879 0.700879 0.333334
O O9 0.677894 0.838947 0.416667
#
# Coordination Sequence:
#
# PCOD8326061 Si02
#       4
#    12  12  12   6
#     4   9  21  38  56  86 124 159 200 249 304 359
#     4   9  21  40  56  86 127 158 198 247 301 360
#     4  10  21  38  60  82 118 157 199 246 302 365
#     4  12  20  36  66  86 124 164 204 254 300 366
#
# _framework density 19.460391000000001
#
# number of rings (size 3 to 8) (size 9 to 14) (size 15 to 20)
#    0.000    2.857    0.000    4.286    8.000    1.143 
#   12.857    0.000    0.000    0.000    3.714    0.000 
#    0.000    0.000    0.000    0.000    0.000    0.000 
#
# Total GULP energy -520345.506750 kJ/mol
# GULP energy per Si atom -12389.178732 kJ/mol
# Density = 1.941610 g / cm^3
# Si number density = 19.460391 Si / 1000 Ang^3
#
#
#
# Elastic Constant Matrix: (Units=GPa)
#
#
# Indices 1 2 3 4 5 6 
#
# 1 84.2348 65.0769 61.5243 0.0000 0.0000 0.0000
# 2 65.0769 84.2348 61.5243 0.0000 0.0000 0.0000
# 3 61.5243 61.5243 103.8482 0.0000 0.0000 0.0000
# 4 0.0000 0.0000 0.0000 104.1817 0.0000 0.0000
# 5 0.0000 0.0000 0.0000 0.0000 104.1817 0.0000
# 6 0.0000 0.0000 0.0000 0.0000 0.0000 9.5789
#
#
#
# Elastic Compliance Matrix: (Units=1/GPa)
#
#
# Indices 1 2 3 4 5 6 
#
# 1 0.032642 -0.019555 -0.007753 0.000000 0.000000 0.000000
# 2 -0.019555 0.032642 -0.007753 0.000000 0.000000 0.000000
# 3 -0.007753 -0.007753 0.018816 0.000000 0.000000 0.000000
# 4 0.000000 0.000000 0.000000 0.009599 0.000000 0.000000
# 5 0.000000 0.000000 0.000000 0.000000 0.009599 0.000000
# 6 0.000000 0.000000 0.000000 0.000000 0.000000 0.104396
#
#
# Mechanical properties :
#
#
# Convention : Reuss Voigt Hill
#
# Bulk Modulus (GPa) = 71.54639 72.06321 71.80480
# Shear Modulus (GPa) = 17.70058 49.20130 33.45094
#
# Velocity S-wave (km/s) = 3.01918 5.03365 4.15049
# Velocity P-wave (km/s) = 6.99992 8.41990 7.74253
#
# Compressibility (1/GPa) = 0.01397695
#
# Stress axis : x y z
#
# Youngs Moduli (GPa) = 30.63505 30.63505 53.14577
#
# Poissons Ratio (x) = 0.59908 0.41205
# Poissons Ratio (y) = 0.59908 0.41205
# Poissons Ratio (z) = 0.23752 0.23752
#
# Static dielectric constant tensor:
#      x y z
#    x 3.021490 0.000000 0.000000 
#    y 0.000000 3.021490 0.000000 
#    z 0.000000 0.000000 3.571550 
# 
# 
# High freq. dielectric constant tensor:
#      x y z
#    x 1.733200 0.000000 0.000000 
#    y 0.000000 1.733200 0.000000 
#    z 0.000000 0.000000 1.768680 
# 
# From -- ./inp_files/4111.got.cif
#   From: 2010.03.12/outbox.cif.g09.slc.cpg/sg179_3_cif.got.tgz:4111.got - 2010.04.02 07:08:42.
