data_PCOD8326378
_publ_section_title
;
Structure prediction by ZEFSAII (Michael W. Deem and Ramdas Pophale) SiO2 
 PCOD8326378
Probable space group: P 64 2 2
;
_chemical_formula_sum "Si O2"
_cell_formula_units_Z 42
_cell_length_a 14.033451
_cell_length_b 14.033451
_cell_length_c 10.765889
_cell_angle_alpha 90.000000
_cell_angle_beta 90.000000
_cell_angle_gamma 120.000000
_cell_volume 1836.155655
_symmetry_space_group_name_H-M "P 64 2 2"
_symmetry_group_IT_number 181
_symmetry_cell_setting 'hexagonal'
loop_
_space_group_symop_operation_xyz
x,y,z
x-y,x,2/3+z
-y,x-y,1/3+z
-x,-y,z
-x+y,-x,2/3+z
y,-x+y,1/3+z
x-y,-y,-z
-x,-x+y,2/3-z
y,x,1/3-z
-y,-x,1/3-z
-x+y,y,-z
x,x-y,2/3-z
loop_
_atom_site_type_symbol
_atom_site_label
_atom_site_fract_x
_atom_site_fract_y
_atom_site_fract_z
Si Si1 0.251048 0.102428 0.072496
Si Si2 0.183516 0.091758 0.333334
Si Si3 0.792768 0.267439 0.868277
Si Si4 0.123603 0.523757 0.025083
O O1 0.256917 0.088344 0.220907
O O2 0.143019 0.108812 0.040548
O O3 0.367824 0.207714 0.042110
O O4 0.244849 0.000000 0.000000
O O5 0.669044 0.181636 0.816885
O O6 0.878019 0.321462 0.751480
O O7 0.794237 0.357273 0.962243
O O8 0.000000 0.500000 0.053120
#
# Coordination Sequence:
#
# PCOD8326378 Si02
#       4
#    12   6  12  12
#     4  11  23  40  65 103 137 181 230 280 348 433
#     4  10  23  38  66  94 146 180 222 268 357 424
#     4  10  22  40  67  96 134 172 232 290 355 415
#     4  10  22  42  70  99 129 179 233 290 362 430
#
# _framework density 22.873875999999999
#
# number of rings (size 3 to 8) (size 9 to 14) (size 15 to 20)
#    0.000    1.714    0.000    4.714   12.000    2.286 
#    0.000   14.286    0.000    0.000    0.000    0.000 
#    0.000    0.000    0.000    0.000    0.000    0.000 
#
# Total GULP energy -520356.237326 kJ/mol
# GULP energy per Si atom -12389.434222 kJ/mol
# Density = 2.282181 g / cm^3
# Si number density = 22.873876 Si / 1000 Ang^3
#
#
#
# Elastic Constant Matrix: (Units=GPa)
#
#
# Indices 1 2 3 4 5 6 
#
# 1 124.2325 58.7815 41.4997 0.0000 0.0000 0.0000
# 2 58.7815 124.2325 41.4997 0.0000 0.0000 0.0000
# 3 41.4997 41.4997 80.0153 0.0000 0.0000 0.0000
# 4 0.0000 0.0000 0.0000 26.2290 0.0000 0.0000
# 5 0.0000 0.0000 0.0000 0.0000 26.2290 0.0000
# 6 0.0000 0.0000 0.0000 0.0000 0.0000 32.7255
#
#
#
# Elastic Compliance Matrix: (Units=1/GPa)
#
#
# Indices 1 2 3 4 5 6 
#
# 1 0.011212 -0.004067 -0.003706 0.000000 0.000000 0.000000
# 2 -0.004067 0.011212 -0.003706 0.000000 0.000000 0.000000
# 3 -0.003706 -0.003706 0.016341 0.000000 0.000000 0.000000
# 4 0.000000 0.000000 0.000000 0.038126 0.000000 0.000000
# 5 0.000000 0.000000 0.000000 0.000000 0.038126 0.000000
# 6 0.000000 0.000000 0.000000 0.000000 0.000000 0.030557
#
#
# Mechanical properties :
#
#
# Convention : Reuss Voigt Hill
#
# Bulk Modulus (GPa) = 63.25745 68.00466 65.63106
# Shear Modulus (GPa) = 28.76889 29.48330 29.12610
#
# Velocity S-wave (km/s) = 3.55028 3.59409 3.57225
# Velocity P-wave (km/s) = 6.67240 6.85698 6.76532
#
# Compressibility (1/GPa) = 0.01580841
#
# Stress axis : x y z
#
# Youngs Moduli (GPa) = 89.19339 89.19339 61.19459
#
# Poissons Ratio (x) = 0.36275 0.22676
# Poissons Ratio (y) = 0.36275 0.22676
# Poissons Ratio (z) = 0.33051 0.33051
#
# Static dielectric constant tensor:
#      x y z
#    x 4.087740 0.000000 0.000000 
#    y 0.000000 4.087740 0.000000 
#    z 0.000000 0.000000 4.148630 
# 
# 
# High freq. dielectric constant tensor:
#      x y z
#    x 1.899130 0.000000 0.000000 
#    y 0.000000 1.899130 0.000000 
#    z 0.000000 0.000000 1.882430 
# 
# From -- ./inp_files/4235.got.cif
#   From: 2010.03.12/outbox.cif.g09.slc.cpg/sg181_3_cif.got.tgz:4235.got - 2010.04.01 11:42:41.
