data_PCOD8326267
_publ_section_title
;
Structure prediction by ZEFSAII (Michael W. Deem and Ramdas Pophale) SiO2 
 PCOD8326267
Probable space group: P 62 2 2
;
_chemical_formula_sum "Si O2"
_cell_formula_units_Z 51
_cell_length_a 11.665598
_cell_length_b 11.665598
_cell_length_c 19.864260
_cell_angle_alpha 90.000000
_cell_angle_beta 90.000000
_cell_angle_gamma 120.000000
_cell_volume 2341.084209
_symmetry_space_group_name_H-M "P 62 2 2"
_symmetry_group_IT_number 180
_symmetry_cell_setting 'hexagonal'
loop_
_space_group_symop_operation_xyz
x,y,z
x-y,x,1/3+z
-y,x-y,2/3+z
-x,-y,z
-x+y,-x,1/3+z
y,-x+y,2/3+z
x-y,-y,-z
-x,-x+y,1/3-z
y,x,2/3-z
-y,-x,2/3-z
-x+y,y,-z
x,x-y,1/3-z
loop_
_atom_site_type_symbol
_atom_site_label
_atom_site_fract_x
_atom_site_fract_y
_atom_site_fract_z
Si Si1 0.000000 0.000000 0.666667
Si Si2 0.035825 0.304279 0.462431
Si Si3 0.348315 0.906159 0.664182
Si Si4 0.608664 0.217327 0.000000
Si Si5 0.778873 0.967215 0.576948
Si Si6 0.500000 0.000000 0.110401
O O1 0.913310 0.040645 0.620217
O O2 0.127492 0.254984 0.500000
O O3 0.123420 0.395239 0.401605
O O4 0.909725 0.190268 0.421250
O O5 0.981766 0.376705 0.511366
O O6 0.311279 0.759486 0.642086
O O7 0.500000 0.000000 0.680231
O O8 0.314891 0.980958 0.605745
O O9 0.588711 0.127555 0.935073
O O10 0.808759 0.000000 0.500000
#
# Coordination Sequence:
#
# PCOD8326267 Si02
#       6
#     3  12  12   6  12   6
#     4  12  22  42  76 106 148 184 230 306 370 434
#     4  12  23  45  72 105 142 188 242 300 373 436
#     4  12  27  46  72 104 146 195 242 301 366 444
#     4  11  26  45  70 105 148 187 246 308 364 439
#     4  12  27  45  71 109 144 185 236 303 368 439
#     4  11  24  44  74 104 141 192 248 304 363 444
#
# _framework density 21.784779
#
# number of rings (size 3 to 8) (size 9 to 14) (size 15 to 20)
#    0.000    0.235    5.882    3.176    3.294    2.353 
#    0.000    0.000    0.000    0.000    0.000    0.000 
#    0.000    0.000    0.000    0.000    0.000    0.000 
#
# Total GULP energy -632231.804468 kJ/mol
# GULP energy per Si atom -12396.702048 kJ/mol
# Density = 2.173520 g / cm^3
# Si number density = 21.784779 Si / 1000 Ang^3
#
#
#
# Elastic Constant Matrix: (Units=GPa)
#
#
# Indices 1 2 3 4 5 6 
#
# 1 121.8739 60.7913 36.5384 0.0000 0.0000 0.0000
# 2 60.7913 121.8739 36.5384 0.0000 0.0000 0.0000
# 3 36.5384 36.5384 126.0909 0.0000 0.0000 0.0000
# 4 0.0000 0.0000 0.0000 40.4850 0.0000 0.0000
# 5 0.0000 0.0000 0.0000 0.0000 40.4850 0.0000
# 6 0.0000 0.0000 0.0000 0.0000 0.0000 30.5413
#
#
#
# Elastic Compliance Matrix: (Units=1/GPa)
#
#
# Indices 1 2 3 4 5 6 
#
# 1 0.011282 -0.005089 -0.001794 0.000000 0.000000 0.000000
# 2 -0.005089 0.011282 -0.001794 0.000000 0.000000 0.000000
# 3 -0.001794 -0.001794 0.008971 0.000000 0.000000 0.000000
# 4 0.000000 0.000000 0.000000 0.024701 0.000000 0.000000
# 5 0.000000 0.000000 0.000000 0.000000 0.024701 0.000000
# 6 0.000000 0.000000 0.000000 0.000000 0.000000 0.032743
#
#
# Mechanical properties :
#
#
# Convention : Reuss Voigt Hill
#
# Bulk Modulus (GPa) = 70.53265 70.84166 70.68715
# Shear Modulus (GPa) = 36.82957 38.03362 37.43160
#
# Velocity S-wave (km/s) = 4.11616 4.18291 4.14967
# Velocity P-wave (km/s) = 7.41874 7.47786 7.44836
#
# Compressibility (1/GPa) = 0.01417783
#
# Stress axis : x y z
#
# Youngs Moduli (GPa) = 88.63816 88.63816 111.47337
#
# Poissons Ratio (x) = 0.45112 0.20003
# Poissons Ratio (y) = 0.45112 0.20003
# Poissons Ratio (z) = 0.15905 0.15905
#
# Static dielectric constant tensor:
#      x y z
#    x 0.463120 0.000000 0.000000 
#    y 0.000000 0.463120 0.000000 
#    z 0.000000 0.000000 4.090680 
# 
# 
# High freq. dielectric constant tensor:
#      x y z
#    x 1.854230 0.000000 0.000000 
#    y 0.000000 1.854230 0.000000 
#    z 0.000000 0.000000 1.877170 
# 
# From -- ./inp_files/8945.got.cif
#   From: 2010.03.12/outbox.cif.g09.slc.cpg/sg180_5_cif.got.tgz:8945.got - 2010.04.01 11:35:50.
