data_PCOD8326838
_publ_section_title
;
Structure prediction by ZEFSAII (Michael W. Deem and Ramdas Pophale) SiO2 
 PCOD8326838
Probable space group: P -6 M 2
;
_chemical_formula_sum "Si O2"
_cell_formula_units_Z 72
_cell_length_a 23.774227
_cell_length_b 23.774227
_cell_length_c 8.970544
_cell_angle_alpha 90.000000
_cell_angle_beta 90.000000
_cell_angle_gamma 120.000000
_cell_volume 4390.987721
_symmetry_space_group_name_H-M "P -6 M 2"
_symmetry_group_IT_number 187
_symmetry_cell_setting 'hexagonal'
loop_
_space_group_symop_operation_xyz
x,y,z
-x+y,-x,-z
-y,x-y,z
x,y,-z
-x+y,-x,z
-y,x-y,-z
-y,-x,-z
-x+y,y,-z
x,x-y,-z
-x+y,y,z
x,x-y,z
-y,-x,z
loop_
_atom_site_type_symbol
_atom_site_label
_atom_site_fract_x
_atom_site_fract_y
_atom_site_fract_z
Si Si1 0.029336 0.188254 0.673697
Si Si2 0.480154 0.519847 0.674865
Si Si3 0.096729 0.320814 0.170266
Si Si4 0.818391 0.636781 0.178283
Si Si5 0.430503 0.326066 0.826457
Si Si6 0.213847 0.106924 0.176613
Si Si7 0.368646 0.411022 0.825707
Si Si8 0.548507 0.451494 0.826949
O O1 0.012574 0.180735 0.500000
O O2 0.085402 0.170804 0.710408
O O3 0.052592 0.261516 0.721991
O O4 0.966076 0.140756 0.765326
O O5 0.475870 0.524131 0.500000
O O6 0.407398 0.479954 0.741318
O O7 0.517595 0.482406 0.721323
O O8 0.172320 0.344639 0.191733
O O9 0.087866 0.381201 0.213645
O O10 0.073981 0.298390 0.000000
O O11 0.853613 0.598774 0.246842
O O12 0.855723 0.711445 0.234109
O O13 0.817366 0.634732 0.000000
O O14 0.392014 0.361417 0.766857
O O15 0.508895 0.373416 0.795264
O O16 0.417048 0.313450 0.000000
O O17 0.212386 0.106193 0.000000
O O18 0.383017 0.424002 0.000000
O O19 0.536843 0.463158 0.000000
#
# Coordination Sequence:
#
# PCOD8326838 Si02
#       8
#    12   6  12   6  12   6  12   6
#     4  10  21  36  51  68  93 125 155 190 245 304
#     4  10  18  26  40  64  89 113 147 185 217 256
#     4   9  17  30  50  73  95 121 155 190 223 272
#     4   9  16  25  41  68  93 113 145 191 237 275
#     4   8  13  22  38  59  84 115 147 176 213 267
#     4  11  21  33  51  71  90 115 157 209 251 291
#     4   9  16  28  44  63  91 123 150 179 224 272
#     4   8  14  26  42  59  82 115 147 175 217 270
#
# _framework density 16.397221999999999
#
# number of rings (size 3 to 8) (size 9 to 14) (size 15 to 20)
#    0.000    2.833    0.000    3.500    0.000    4.333 
#    0.500    0.000    0.000    1.333    0.000    2.333 
#    0.833    0.000    1.500    0.000    0.500    0.000 
#
# Total GULP energy -892275.583256 kJ/mol
# GULP energy per Si atom -12392.716434 kJ/mol
# Density = 1.635990 g / cm^3
# Si number density = 16.397222 Si / 1000 Ang^3
#
#
#
# Elastic Constant Matrix: (Units=GPa)
#
#
# Indices 1 2 3 4 5 6 
#
# 1 113.0798 65.8433 38.3748 0.0000 0.0000 0.0000
# 2 65.8433 113.0798 38.3748 0.0000 0.0000 0.0000
# 3 38.3748 38.3748 55.1355 0.0000 0.0000 0.0000
# 4 0.0000 0.0000 0.0000 13.7997 0.0000 0.0000
# 5 0.0000 0.0000 0.0000 0.0000 13.7997 0.0000
# 6 0.0000 0.0000 0.0000 0.0000 0.0000 23.6183
#
#
#
# Elastic Compliance Matrix: (Units=1/GPa)
#
#
# Indices 1 2 3 4 5 6 
#
# 1 0.014569 -0.006601 -0.005546 0.000000 0.000000 0.000000
# 2 -0.006601 0.014569 -0.005546 0.000000 0.000000 0.000000
# 3 -0.005546 -0.005546 0.025857 0.000000 0.000000 0.000000
# 4 0.000000 0.000000 0.000000 0.072466 0.000000 0.000000
# 5 0.000000 0.000000 0.000000 0.000000 0.072466 0.000000
# 6 0.000000 0.000000 0.000000 0.000000 0.000000 0.042340
#
#
# Mechanical properties :
#
#
# Convention : Reuss Voigt Hill
#
# Bulk Modulus (GPa) = 50.99501 62.94231 56.96866
# Shear Modulus (GPa) = 17.59402 19.49033 18.54218
#
# Velocity S-wave (km/s) = 3.27920 3.45140 3.36640
# Velocity P-wave (km/s) = 6.74573 7.37239 7.06601
#
# Compressibility (1/GPa) = 0.01960976
#
# Stress axis : x y z
#
# Youngs Moduli (GPa) = 68.63915 68.63915 38.67450
#
# Poissons Ratio (x) = 0.45309 0.21448
# Poissons Ratio (y) = 0.45309 0.21448
# Poissons Ratio (z) = 0.38065 0.38065
#
# Static dielectric constant tensor:
#      x y z
#    x 3.242760 0.000000 0.000000 
#    y 0.000000 3.242760 0.000000 
#    z 0.000000 0.000000 2.871010 
# 
# 
# High freq. dielectric constant tensor:
#      x y z
#    x 1.620010 0.000000 0.000000 
#    y 0.000000 1.620010 0.000000 
#    z 0.000000 0.000000 1.607030 
# 
# From -- ./inp_files/1120.got.cif
#   From: 2010.03.12/outbox.cif.g09.slc.cpg/sg187_1_cif.got.tgz:1120.got - 2010.04.01 11:58:23.
