data_PCOD8326639
_publ_section_title
;
Structure prediction by ZEFSAII (Michael W. Deem and Ramdas Pophale) SiO2 
 PCOD8326639
Probable space group: P 63 C M
;
_chemical_formula_sum "Si O2"
_cell_formula_units_Z 84
_cell_length_a 14.495311
_cell_length_b 14.495311
_cell_length_c 25.473303
_cell_angle_alpha 90.000000
_cell_angle_beta 90.000000
_cell_angle_gamma 120.000000
_cell_volume 4635.226583
_symmetry_space_group_name_H-M "P 63 C M"
_symmetry_group_IT_number 185
_symmetry_cell_setting 'hexagonal'
loop_
_space_group_symop_operation_xyz
x,y,z
x-y,x,1/2+z
-y,x-y,z
-x,-y,1/2+z
-x+y,-x,z
y,-x+y,1/2+z
-x+y,y,1/2+z
x,x-y,1/2+z
-y,-x,1/2+z
y,x,z
x-y,-y,z
-x,-x+y,z
loop_
_atom_site_type_symbol
_atom_site_label
_atom_site_fract_x
_atom_site_fract_y
_atom_site_fract_z
Si Si1 0.123596 0.247571 0.446860
Si Si2 0.584134 0.788124 0.859671
Si Si3 0.645046 0.877673 0.662786
Si Si4 0.875031 0.122477 0.065667
Si Si5 0.748524 0.875520 0.264959
Si Si6 0.653871 0.211099 0.717871
Si Si7 0.451158 0.573137 0.329910
O O1 0.159195 0.159195 0.441595
O O2 0.200375 0.350069 0.412227
O O3 0.137794 0.290948 0.506390
O O4 0.000000 0.192107 0.428954
O O5 0.665709 0.823559 0.811944
O O6 0.529311 0.860930 0.868768
O O7 0.486617 0.668658 0.850828
O O8 0.652491 0.830209 0.606388
O O9 0.680281 0.830387 0.711307
O O10 0.527961 0.863199 0.674178
O O11 0.729474 0.000000 0.659987
O O12 0.000000 0.169315 0.071633
O O13 0.820430 0.000000 0.081359
O O14 0.810832 0.810832 0.269666
O O15 0.833371 0.000000 0.267686
O O16 0.766671 0.322993 0.710275
O O17 0.640106 0.165140 0.776034
O O18 0.484655 0.484655 0.323454
#
# Coordination Sequence:
#
# PCOD8326639 Si02
#       7
#    12  12  12  12  12  12  12
#     4  10  20  36  58  85 116 149 185 228 282 346
#     4  12  23  37  54  82 109 142 190 235 280 339
#     4  10  19  33  54  79 109 145 184 226 275 328
#     4   9  18  33  56  82 112 147 185 226 273 338
#     4  11  21  33  50  79 117 149 174 210 270 341
#     4  10  19  35  54  76 104 137 184 231 271 323
#     4  12  21  35  56  77 108 147 186 232 281 325
#
# _framework density 18.122091000000001
#
# number of rings (size 3 to 8) (size 9 to 14) (size 15 to 20)
#    0.286    1.143    2.857    4.143    0.000    1.143 
#    0.000    5.000    3.143    0.000    0.000    0.000 
#    0.000    0.000    0.000    0.000    0.000    0.000 
#
# Total GULP energy -1040981.728755 kJ/mol
# GULP energy per Si atom -12392.639628 kJ/mol
# Density = 1.808084 g / cm^3
# Si number density = 18.122091 Si / 1000 Ang^3
#
#
#
# Elastic Constant Matrix: (Units=GPa)
#
#
# Indices 1 2 3 4 5 6 
#
# 1 74.0310 10.0299 39.0863 0.0000 0.0000 0.0000
# 2 10.0299 74.0310 39.0863 0.0000 0.0000 0.0000
# 3 39.0863 39.0863 110.3088 0.0000 0.0000 0.0000
# 4 0.0000 0.0000 0.0000 23.8204 0.0000 0.0000
# 5 0.0000 0.0000 0.0000 0.0000 23.8204 0.0000
# 6 0.0000 0.0000 0.0000 0.0000 0.0000 32.0006
#
#
#
# Elastic Compliance Matrix: (Units=1/GPa)
#
#
# Indices 1 2 3 4 5 6 
#
# 1 0.016684 0.001059 -0.006287 0.000000 0.000000 0.000000
# 2 0.001059 0.016684 -0.006287 0.000000 0.000000 0.000000
# 3 -0.006287 -0.006287 0.013521 0.000000 0.000000 0.000000
# 4 0.000000 0.000000 0.000000 0.041981 0.000000 0.000000
# 5 0.000000 0.000000 0.000000 0.000000 0.041981 0.000000
# 6 0.000000 0.000000 0.000000 0.000000 0.000000 0.031249
#
#
# Mechanical properties :
#
#
# Convention : Reuss Voigt Hill
#
# Bulk Modulus (GPa) = 41.91356 48.30840 45.11098
# Shear Modulus (GPa) = 25.89583 27.27285 26.58434
#
# Velocity S-wave (km/s) = 3.78427 3.88358 3.83424
# Velocity P-wave (km/s) = 6.50176 6.84285 6.67448
#
# Compressibility (1/GPa) = 0.02385863
#
# Stress axis : x y z
#
# Youngs Moduli (GPa) = 59.93891 59.93891 73.96041
#
# Poissons Ratio (x) = -0.06347 0.46498
# Poissons Ratio (y) = -0.06347 0.46498
# Poissons Ratio (z) = 0.37683 0.37683
#
# Static dielectric constant tensor:
#      x y z
#    x 3.341240 0.000000 0.000000 
#    y 0.000000 3.341240 0.000000 
#    z 0.000000 0.000000 3.490430 
# 
# 
# High freq. dielectric constant tensor:
#      x y z
#    x 1.700090 0.000000 0.000000 
#    y 0.000000 1.700090 0.000000 
#    z 0.000000 0.000000 1.686240 
# 
# From -- ./inp_files/2067.got.cif
#   From: 2010.03.12/outbox.cif.g09.slc.cpg/sg185_cif.got.tgz:2067.got - 2010.04.01 11:55:19.
