data_PCOD8326019
_publ_section_title
;
Structure prediction by ZEFSAII (Michael W. Deem and Ramdas Pophale) SiO2 
 PCOD8326019
Probable space group: P 65 2 2
;
_chemical_formula_sum "Si O2"
_cell_formula_units_Z 48
_cell_length_a 16.785208
_cell_length_b 16.785208
_cell_length_c 12.093952
_cell_angle_alpha 90.000000
_cell_angle_beta 90.000000
_cell_angle_gamma 120.000000
_cell_volume 2950.885287
_symmetry_space_group_name_H-M "P 65 2 2"
_symmetry_group_IT_number 179
_symmetry_cell_setting 'hexagonal'
loop_
_space_group_symop_operation_xyz
x,y,z
x-y,x,5/6+z
-y,x-y,2/3+z
-x,-y,1/2+z
-x+y,-x,1/3+z
y,-x+y,1/6+z
x-y,-y,-z
-x,-x+y,1/3-z
y,x,2/3-z
-y,-x,1/6-z
-x+y,y,1/2-z
x,x-y,5/6-z
loop_
_atom_site_type_symbol
_atom_site_label
_atom_site_fract_x
_atom_site_fract_y
_atom_site_fract_z
Si Si1 0.000000 0.667075 0.666667
Si Si2 0.959830 0.387315 0.396073
Si Si3 0.234140 0.706546 0.961770
Si Si4 0.844242 0.329208 0.890315
Si Si5 0.611478 0.805739 0.916667
O O1 0.037274 0.629545 0.764848
O O2 0.087267 0.763541 0.622696
O O3 0.955445 0.477723 0.416667
O O4 0.868247 0.306590 0.453279
O O5 0.051528 0.399037 0.453925
O O6 0.238303 0.619152 0.916667
O O7 0.297521 0.797077 0.893302
O O8 0.274151 0.725850 0.083334
O O9 0.844952 0.422476 0.916667
O O10 0.794509 0.252837 0.985090
#
# Coordination Sequence:
#
# PCOD8326019 Si02
#       5
#     6  12  12  12   6
#     4  10  18  36  56  80 106 134 178 226 274 324
#     4   9  20  34  50  71 100 138 172 217 262 311
#     4  11  23  34  49  72 102 136 180 219 256 311
#     4  10  21  33  51  74 101 141 170 217 268 307
#     4  10  20  34  58  78 112 134 180 222 274 322
#
# _framework density 16.266304999999999
#
# number of rings (size 3 to 8) (size 9 to 14) (size 15 to 20)
#    0.000    2.000    2.500    0.750    5.250    7.000 
#    0.000    0.000    0.000    0.000    0.000    0.000 
#   15.000    0.000    0.000    0.000    0.000    0.000 
#
# Total GULP energy -594772.999945 kJ/mol
# GULP energy per Si atom -12391.104166 kJ/mol
# Density = 1.622928 g / cm^3
# Si number density = 16.266305 Si / 1000 Ang^3
#
#
#
# Elastic Constant Matrix: (Units=GPa)
#
#
# Indices 1 2 3 4 5 6 
#
# 1 82.0125 51.7969 53.1953 0.0000 0.0000 0.0000
# 2 51.7969 82.0125 53.1953 0.0000 0.0000 0.0000
# 3 53.1953 53.1953 122.7430 0.0000 0.0000 0.0000
# 4 0.0000 0.0000 0.0000 -7.6302 0.0000 0.0000
# 5 0.0000 0.0000 0.0000 0.0000 -7.6302 0.0000
# 6 0.0000 0.0000 0.0000 0.0000 0.0000 15.1078
#
#
#
# Elastic Compliance Matrix: (Units=1/GPa)
#
#
# Indices 1 2 3 4 5 6 
#
# 1 0.022249 -0.010847 -0.004942 0.000000 0.000000 0.000000
# 2 -0.010847 0.022249 -0.004942 0.000000 0.000000 0.000000
# 3 -0.004942 -0.004942 0.012430 0.000000 0.000000 0.000000
# 4 0.000000 0.000000 0.000000 -0.131058 0.000000 0.000000
# 5 0.000000 0.000000 0.000000 0.000000 -0.131058 0.000000
# 6 0.000000 0.000000 0.000000 0.000000 0.000000 0.066191
#
#
# Mechanical properties :
#
#
# Convention : Reuss Voigt Hill
#
# Bulk Modulus (GPa) = 64.64724 67.01587 65.83155
# Shear Modulus (GPa) = -54.12378 8.54151 -22.79114
#
# Velocity S-wave (km/s) = -5.77458 2.29400 -3.74722
# Velocity P-wave (km/s) = 2.15215 6.95020 4.67298
#
# Compressibility (1/GPa) = 0.01546856
#
# Stress axis : x y z
#
# Youngs Moduli (GPa) = 44.94592 44.94592 80.44798
#
# Poissons Ratio (x) = 0.48751 0.39755
# Poissons Ratio (y) = 0.48751 0.39755
# Poissons Ratio (z) = 0.22211 0.22211
#
# Static dielectric constant tensor:
#      x y z
#    x 3.562210 0.000000 0.000000 
#    y 0.000000 3.562210 0.000000 
#    z 0.000000 0.000000 3.032390 
# 
# 
# High freq. dielectric constant tensor:
#      x y z
#    x 1.615830 0.000000 0.000000 
#    y 0.000000 1.615830 0.000000 
#    z 0.000000 0.000000 1.629270 
# 
# From -- ./inp_files/2689.got.cif
#   From: 2010.03.12/outbox.cif.g09.slc.cpg/sg179_2_cif.got.tgz:2689.got - 2010.04.02 07:08:42.
