data_PCOD8326602
_publ_section_title
;
Structure prediction by ZEFSAII (Michael W. Deem and Ramdas Pophale) SiO2 
 PCOD8326602
Probable space group: P 6 C C
;
_chemical_formula_sum "Si O2"
_cell_formula_units_Z 60
_cell_length_a 14.415493
_cell_length_b 14.415493
_cell_length_c 13.391467
_cell_angle_alpha 90.000000
_cell_angle_beta 90.000000
_cell_angle_gamma 120.000000
_cell_volume 2410.004127
_symmetry_space_group_name_H-M "P 6 C C"
_symmetry_group_IT_number 184
_symmetry_cell_setting 'hexagonal'
loop_
_space_group_symop_operation_xyz
x,y,z
x-y,x,z
-y,x-y,z
-x,-y,z
-x+y,-x,z
y,-x+y,z
-x+y,y,1/2+z
x,x-y,1/2+z
-y,-x,1/2+z
y,x,1/2+z
x-y,-y,1/2+z
-x,-x+y,1/2+z
loop_
_atom_site_type_symbol
_atom_site_label
_atom_site_fract_x
_atom_site_fract_y
_atom_site_fract_z
Si Si1 0.117724 0.521579 0.183010
Si Si2 0.924079 0.374758 0.902112
Si Si3 0.192158 0.459829 0.597331
Si Si4 0.059020 0.225903 0.629231
Si Si5 0.215348 0.021286 0.898549
O O1 0.130994 0.499843 0.297111
O O2 0.153556 0.456165 0.107722
O O3 0.200858 0.646921 0.166754
O O4 0.000000 0.500000 0.152847
O O5 0.986443 0.309130 0.886289
O O6 0.000000 0.500000 0.933329
O O7 0.830832 0.311246 0.983698
O O8 0.094355 0.349875 0.641035
O O9 0.149609 0.205070 0.680389
O O10 0.040539 0.196756 0.512842
O O11 0.213971 0.124025 0.848392
#
# Coordination Sequence:
#
# PCOD8326602 Si02
#       5
#    12  12  12  12  12
#     4  11  25  44  68 101 139 184 240 298 363 439
#     4  10  24  43  68 102 145 188 237 298 363 436
#     4  11  23  42  67  97 135 181 234 291 354 424
#     4   9  17  32  59  94 132 171 214 265 328 402
#     4   9  18  35  63 100 138 180 226 280 347 421
#
# _framework density 24.896222000000002
#
# number of rings (size 3 to 8) (size 9 to 14) (size 15 to 20)
#    0.000    2.000    0.000    2.600    0.000   12.800 
#    0.000    0.000    0.000    2.000    0.000    2.800 
#    0.000    0.000    0.000    0.000    0.000    0.400 
#
# Total GULP energy -743562.998362 kJ/mol
# GULP energy per Si atom -12392.716639 kJ/mol
# Density = 2.483956 g / cm^3
# Si number density = 24.896222 Si / 1000 Ang^3
#
#
#
# Elastic Constant Matrix: (Units=GPa)
#
#
# Indices 1 2 3 4 5 6 
#
# 1 151.6930 66.0246 65.1006 0.0000 0.0000 0.0000
# 2 66.0246 151.6930 65.1006 0.0000 0.0000 0.0000
# 3 65.1006 65.1006 103.8046 0.0000 0.0000 0.0000
# 4 0.0000 0.0000 0.0000 10.2562 0.0000 0.0000
# 5 0.0000 0.0000 0.0000 0.0000 10.2562 0.0000
# 6 0.0000 0.0000 0.0000 0.0000 0.0000 42.8342
#
#
#
# Elastic Compliance Matrix: (Units=1/GPa)
#
#
# Indices 1 2 3 4 5 6 
#
# 1 0.009511 -0.002162 -0.004609 0.000000 0.000000 0.000000
# 2 -0.002162 0.009511 -0.004609 0.000000 0.000000 0.000000
# 3 -0.004609 -0.004609 0.015415 0.000000 0.000000 0.000000
# 4 0.000000 0.000000 0.000000 0.097502 0.000000 0.000000
# 5 0.000000 0.000000 0.000000 0.000000 0.097502 0.000000
# 6 0.000000 0.000000 0.000000 0.000000 0.000000 0.023346
#
#
# Mechanical properties :
#
#
# Convention : Reuss Voigt Hill
#
# Bulk Modulus (GPa) = 85.63871 88.84915 87.24393
# Shear Modulus (GPa) = 17.89295 26.73364 22.31329
#
# Velocity S-wave (km/s) = 2.68377 3.28045 2.99699
# Velocity P-wave (km/s) = 6.63901 7.07911 6.86259
#
# Compressibility (1/GPa) = 0.01167696
#
# Stress axis : x y z
#
# Youngs Moduli (GPa) = 105.13876 105.13876 64.87262
#
# Poissons Ratio (x) = 0.22728 0.29901
# Poissons Ratio (y) = 0.22728 0.29901
# Poissons Ratio (z) = 0.48461 0.48461
#
# Static dielectric constant tensor:
#      x y z
#    x 4.638690 0.000000 0.000000 
#    y 0.000000 4.638690 0.000000 
#    z 0.000000 0.000000 4.232810 
# 
# 
# High freq. dielectric constant tensor:
#      x y z
#    x 1.994710 0.000000 0.000000 
#    y 0.000000 1.994710 0.000000 
#    z 0.000000 0.000000 1.991300 
# 
# From -- ./inp_files/808.got.cif
#   From: 2010.03.12/outbox.cif.g09.slc.cpg/sg184_cif.got.tgz:808.got - 2010.04.01 11:54:36.
