data_PCOD8326463
_publ_section_title
;
Structure prediction by ZEFSAII (Michael W. Deem and Ramdas Pophale) SiO2 
 PCOD8326463
Probable space group: P 63 2 2
;
_chemical_formula_sum "Si O2"
_cell_formula_units_Z 48
_cell_length_a 21.760804
_cell_length_b 21.760804
_cell_length_c 6.544808
_cell_angle_alpha 90.000000
_cell_angle_beta 90.000000
_cell_angle_gamma 120.000000
_cell_volume 2683.968514
_symmetry_space_group_name_H-M "P 63 2 2"
_symmetry_group_IT_number 182
_symmetry_cell_setting 'hexagonal'
loop_
_space_group_symop_operation_xyz
x,y,z
x-y,x,1/2+z
-y,x-y,z
-x,-y,1/2+z
-x+y,-x,z
y,-x+y,1/2+z
x-y,-y,-z
-x,-x+y,-z
y,x,-z
-y,-x,1/2-z
-x+y,y,1/2-z
x,x-y,1/2-z
loop_
_atom_site_type_symbol
_atom_site_label
_atom_site_fract_x
_atom_site_fract_y
_atom_site_fract_z
Si Si1 0.344765 0.344765 0.000000
Si Si2 0.412781 0.587220 0.750000
Si Si3 0.564704 0.930506 0.617992
Si Si4 0.454446 0.790534 0.141749
Si Si5 0.385945 0.262302 0.734693
O O1 0.361155 0.409926 0.850508
O O2 0.330615 0.277548 0.860019
O O3 0.391743 0.517998 0.613864
O O4 0.430560 0.652513 0.596905
O O5 0.607228 0.896872 0.499104
O O6 0.575883 0.000000 0.500000
O O7 0.412403 0.824805 0.250000
O O8 0.432459 0.716230 0.250000
O O9 0.537941 0.843928 0.155900
O O10 0.356988 0.178494 0.750000
#
# Coordination Sequence:
#
# PCOD8326463 Si02
#       5
#     6   6  12  12  12
#     4  10  20  38  54  84 106 134 178 226 280 336
#     4  12  22  36  56  78 102 146 174 232 312 340
#     4  10  22  34  56  82 108 137 178 234 284 342
#     4  11  23  39  53  72 102 135 185 232 289 360
#     4  10  21  38  57  77 109 138 178 227 273 340
#
# _framework density 17.883963999999999
#
# number of rings (size 3 to 8) (size 9 to 14) (size 15 to 20)
#    0.000    1.500    5.000    0.250    1.750    2.000 
#    0.000    0.000    0.000    0.000    0.000    0.000 
#    0.000    0.000    0.000    0.000    0.000    0.000 
#
# Total GULP energy -594971.753981 kJ/mol
# GULP energy per Si atom -12395.244875 kJ/mol
# Density = 1.784326 g / cm^3
# Si number density = 17.883964 Si / 1000 Ang^3
#
#
#
# Elastic Constant Matrix: (Units=GPa)
#
#
# Indices 1 2 3 4 5 6 
#
# 1 67.1174 32.7032 33.9328 0.0000 0.0000 0.0000
# 2 32.7032 67.1174 33.9328 0.0000 0.0000 0.0000
# 3 33.9328 33.9328 123.8466 0.0000 0.0000 0.0000
# 4 0.0000 0.0000 0.0000 26.7422 0.0000 0.0000
# 5 0.0000 0.0000 0.0000 0.0000 26.7422 0.0000
# 6 0.0000 0.0000 0.0000 0.0000 0.0000 17.2071
#
#
#
# Elastic Compliance Matrix: (Units=1/GPa)
#
#
# Indices 1 2 3 4 5 6 
#
# 1 0.020685 -0.008373 -0.003373 0.000000 0.000000 0.000000
# 2 -0.008373 0.020685 -0.003373 0.000000 0.000000 0.000000
# 3 -0.003373 -0.003373 0.009923 0.000000 0.000000 0.000000
# 4 0.000000 0.000000 0.000000 0.037394 0.000000 0.000000
# 5 0.000000 0.000000 0.000000 0.000000 0.037394 0.000000
# 6 0.000000 0.000000 0.000000 0.000000 0.000000 0.058116
#
#
# Mechanical properties :
#
#
# Convention : Reuss Voigt Hill
#
# Bulk Modulus (GPa) = 47.49950 51.02432 49.26191
# Shear Modulus (GPa) = 22.57817 24.63912 23.60864
#
# Velocity S-wave (km/s) = 3.55700 3.71579 3.63726
# Velocity P-wave (km/s) = 6.59448 6.85582 6.72642
#
# Compressibility (1/GPa) = 0.02105285
#
# Stress axis : x y z
#
# Youngs Moduli (GPa) = 48.34522 48.34522 100.77645
#
# Poissons Ratio (x) = 0.40481 0.33994
# Poissons Ratio (y) = 0.40481 0.33994
# Poissons Ratio (z) = 0.16308 0.16308
#
# Static dielectric constant tensor:
#      x y z
#    x 3.132100 0.000000 0.000000 
#    y 0.000000 3.132100 0.000000 
#    z 0.000000 0.000000 3.640680 
# 
# 
# High freq. dielectric constant tensor:
#      x y z
#    x 1.655790 0.000000 0.000000 
#    y 0.000000 1.655790 0.000000 
#    z 0.000000 0.000000 1.719140 
# 
# From -- ./inp_files/516.got.cif
#   From: 2010.03.12/outbox.cif.g09.slc.cpg/sg182_1_cif.got.tgz:516.got - 2010.04.01 11:49:36.
