data_PCOD8326310
_publ_section_title
;
Structure prediction by ZEFSAII (Michael W. Deem and Ramdas Pophale) SiO2 
 PCOD8326310
Probable space group: P 64 2 2
;
_chemical_formula_sum "Si O2"
_cell_formula_units_Z 60
_cell_length_a 29.506206
_cell_length_b 29.506206
_cell_length_c 4.968339
_cell_angle_alpha 90.000000
_cell_angle_beta 90.000000
_cell_angle_gamma 120.000000
_cell_volume 3746.007072
_symmetry_space_group_name_H-M "P 64 2 2"
_symmetry_group_IT_number 181
_symmetry_cell_setting 'hexagonal'
loop_
_space_group_symop_operation_xyz
x,y,z
x-y,x,2/3+z
-y,x-y,1/3+z
-x,-y,z
-x+y,-x,2/3+z
y,-x+y,1/3+z
x-y,-y,-z
-x,-x+y,2/3-z
y,x,1/3-z
-y,-x,1/3-z
-x+y,y,-z
x,x-y,2/3-z
loop_
_atom_site_type_symbol
_atom_site_label
_atom_site_fract_x
_atom_site_fract_y
_atom_site_fract_z
Si Si1 0.380026 0.218855 0.092308
Si Si2 0.164219 0.634521 0.320379
Si Si3 0.374168 0.431765 0.618105
Si Si4 0.630016 0.943036 0.459306
Si Si5 0.295227 0.793324 0.516997
O O1 0.356832 0.178416 0.333334
O O2 0.353127 0.254484 0.112700
O O3 0.442036 0.256171 0.113924
O O4 0.364574 0.182287 0.833334
O O5 0.178705 0.589353 0.333334
O O6 0.102332 0.610018 0.272938
O O7 0.170117 0.660562 0.609253
O O8 0.203789 0.676280 0.099374
O O9 0.424774 0.424774 0.666667
O O10 0.354737 0.414615 0.317373
O O11 0.327105 0.394773 0.825135
O O12 0.681510 0.000000 0.500000
O O13 0.263443 0.736558 0.666667
#
# Coordination Sequence:
#
# PCOD8326310 Si02
#       5
#    12  12  12  12  12
#     4  11  19  30  52  75  94 119 160 201 225 264
#     4  12  22  36  55  77  97 120 156 187 225 288
#     4  10  19  33  49  70 103 132 154 180 220 282
#     4  10  19  32  49  69 103 135 153 184 237 286
#     4  11  22  37  55  73  97 115 147 192 244 276
#
# _framework density 16.017053000000001
#
# number of rings (size 3 to 8) (size 9 to 14) (size 15 to 20)
#    0.000    1.200    4.000    4.800    0.000    0.400 
#    0.000    0.000    0.000   12.000    0.000    0.000 
#    0.000    0.000    0.000    0.000    0.000    0.000 
#
# Total GULP energy -743532.487816 kJ/mol
# GULP energy per Si atom -12392.208130 kJ/mol
# Density = 1.598060 g / cm^3
# Si number density = 16.017053 Si / 1000 Ang^3
#
#
#
# Elastic Constant Matrix: (Units=GPa)
#
#
# Indices 1 2 3 4 5 6 
#
# 1 68.8813 29.0628 14.3682 0.0000 0.0000 0.0000
# 2 29.0628 68.8813 14.3682 0.0000 0.0000 0.0000
# 3 14.3682 14.3682 85.4466 0.0000 0.0000 0.0000
# 4 0.0000 0.0000 0.0000 56.7944 0.0000 0.0000
# 5 0.0000 0.0000 0.0000 0.0000 56.7944 0.0000
# 6 0.0000 0.0000 0.0000 0.0000 0.0000 19.9093
#
#
#
# Elastic Compliance Matrix: (Units=1/GPa)
#
#
# Indices 1 2 3 4 5 6 
#
# 1 0.017927 -0.007187 -0.001806 0.000000 0.000000 0.000000
# 2 -0.007187 0.017927 -0.001806 0.000000 0.000000 0.000000
# 3 -0.001806 -0.001806 0.012311 0.000000 0.000000 0.000000
# 4 0.000000 0.000000 0.000000 0.017607 0.000000 0.000000
# 5 0.000000 0.000000 0.000000 0.000000 0.017607 0.000000
# 6 0.000000 0.000000 0.000000 0.000000 0.000000 0.050228
#
#
# Mechanical properties :
#
#
# Convention : Reuss Voigt Hill
#
# Bulk Modulus (GPa) = 37.64159 37.64527 37.64343
# Shear Modulus (GPa) = 30.47661 37.72696 34.10178
#
# Velocity S-wave (km/s) = 4.36680 4.85854 4.61921
# Velocity P-wave (km/s) = 6.99837 7.41809 7.21129
#
# Compressibility (1/GPa) = 0.02656636
#
# Stress axis : x y z
#
# Youngs Moduli (GPa) = 55.78224 55.78224 81.23107
#
# Poissons Ratio (x) = 0.40091 0.14670
# Poissons Ratio (y) = 0.40091 0.14670
# Poissons Ratio (z) = 0.10074 0.10074
#
# Static dielectric constant tensor:
#      x y z
#    x 3.110240 0.000000 0.000000 
#    y 0.000000 3.110240 0.000000 
#    z 0.000000 0.000000 3.001370 
# 
# 
# High freq. dielectric constant tensor:
#      x y z
#    x 1.582100 0.000000 0.000000 
#    y 0.000000 1.582100 0.000000 
#    z 0.000000 0.000000 1.646670 
# 
# From -- ./inp_files/1464.got.cif
#   From: 2010.03.12/outbox.cif.g09.slc.cpg/sg181_1_cif.got.tgz:1464.got - 2010.04.01 11:42:41.
