data_PCOD8326572
_publ_section_title
;
Structure prediction by ZEFSAII (Michael W. Deem and Ramdas Pophale) SiO2 
 PCOD8326572
Probable space group: P 6 C C
;
_chemical_formula_sum "Si O2"
_cell_formula_units_Z 90
_cell_length_a 24.849002
_cell_length_b 24.849002
_cell_length_c 9.072243
_cell_angle_alpha 90.000000
_cell_angle_beta 90.000000
_cell_angle_gamma 120.000000
_cell_volume 4851.356704
_symmetry_space_group_name_H-M "P 6 C C"
_symmetry_group_IT_number 184
_symmetry_cell_setting 'hexagonal'
loop_
_space_group_symop_operation_xyz
x,y,z
x-y,x,z
-y,x-y,z
-x,-y,z
-x+y,-x,z
y,-x+y,z
-x+y,y,1/2+z
x,x-y,1/2+z
-y,-x,1/2+z
y,x,1/2+z
x-y,-y,1/2+z
-x,-x+y,1/2+z
loop_
_atom_site_type_symbol
_atom_site_label
_atom_site_fract_x
_atom_site_fract_y
_atom_site_fract_z
Si Si1 0.085689 0.939541 0.888140
Si Si2 0.000000 0.500000 0.523677
Si Si3 0.964265 0.261020 0.087110
Si Si4 0.405114 0.450768 0.272092
Si Si5 0.107376 0.872859 0.129917
Si Si6 0.052019 0.360181 0.276746
Si Si7 0.843492 0.218494 0.608431
Si Si8 0.400064 0.132669 0.280049
O O1 0.120861 0.911077 0.794932
O O2 0.011664 0.902170 0.861284
O O3 0.106321 0.930313 0.050082
O O4 0.957190 0.441191 0.421035
O O5 0.954305 0.512083 0.626996
O O6 0.948646 0.191039 0.057419
O O7 0.925901 0.260903 0.231671
O O8 0.032593 0.306158 0.150002
O O9 0.950921 0.289548 0.943443
O O10 0.397241 0.382175 0.262310
O O11 0.340461 0.451159 0.275907
O O12 0.170331 0.869537 0.124811
O O13 0.123016 0.399981 0.222212
O O14 0.846513 0.239740 0.441951
O O15 0.771604 0.186243 0.660585
#
# Coordination Sequence:
#
# PCOD8326572 Si02
#       8
#    12   6  12  12  12  12  12  12
#     4  12  27  44  57  68  85 120 165 241 316 383
#     4  10  20  34  58  78 114 154 210 230 262 304
#     4  10  21  33  52  79 108 141 175 227 274 360
#     4  10  20  36  53  85 114 161 195 239 271 323
#     4  11  24  39  57  78  97 120 177 224 296 354
#     4  11  20  33  57  81 119 150 185 221 290 337
#     4  11  21  35  55  82 115 152 179 233 282 372
#     4  10  20  36  51  78 117 155 192 220 284 332
#
# _framework density 18.551511999999999
#
# number of rings (size 3 to 8) (size 9 to 14) (size 15 to 20)
#    0.000    1.333    0.000    8.933    5.600    0.000 
#    0.000    1.333    0.000    0.000    0.000    0.000 
#    0.000    0.000    0.000   88.800    0.000    0.000 
#
# Total GULP energy -1115233.012231 kJ/mol
# GULP energy per Si atom -12391.477914 kJ/mol
# Density = 1.850929 g / cm^3
# Si number density = 18.551512 Si / 1000 Ang^3
#
#
#
# Elastic Constant Matrix: (Units=GPa)
#
#
# Indices 1 2 3 4 5 6 
#
# 1 84.9841 40.1711 39.3182 0.0000 0.0000 0.0000
# 2 40.1711 84.9841 39.3182 0.0000 0.0000 0.0000
# 3 39.3182 39.3182 123.5567 0.0000 0.0000 0.0000
# 4 0.0000 0.0000 0.0000 26.3010 0.0000 0.0000
# 5 0.0000 0.0000 0.0000 0.0000 26.3010 0.0000
# 6 0.0000 0.0000 0.0000 0.0000 0.0000 22.4065
#
#
#
# Elastic Compliance Matrix: (Units=1/GPa)
#
#
# Indices 1 2 3 4 5 6 
#
# 1 0.016151 -0.006164 -0.003178 0.000000 0.000000 0.000000
# 2 -0.006164 0.016151 -0.003178 0.000000 0.000000 0.000000
# 3 -0.003178 -0.003178 0.010116 0.000000 0.000000 0.000000
# 4 0.000000 0.000000 0.000000 0.038021 0.000000 0.000000
# 5 0.000000 0.000000 0.000000 0.000000 0.038021 0.000000
# 6 0.000000 0.000000 0.000000 0.000000 0.000000 0.044630
#
#
# Mechanical properties :
#
#
# Convention : Reuss Voigt Hill
#
# Bulk Modulus (GPa) = 57.54494 59.01553 58.28023
# Shear Modulus (GPa) = 25.78343 26.64956 26.21649
#
# Velocity S-wave (km/s) = 3.73209 3.79425 3.76330
# Velocity P-wave (km/s) = 7.04682 7.14674 7.09695
#
# Compressibility (1/GPa) = 0.01737772
#
# Stress axis : x y z
#
# Youngs Moduli (GPa) = 61.91610 61.91610 98.85269
#
# Poissons Ratio (x) = 0.38165 0.31416
# Poissons Ratio (y) = 0.38165 0.31416
# Poissons Ratio (z) = 0.19677 0.19677
#
# Static dielectric constant tensor:
#      x y z
#    x 3.448680 0.000000 0.000000 
#    y 0.000000 3.448680 0.000000 
#    z 0.000000 0.000000 3.504160 
# 
# 
# High freq. dielectric constant tensor:
#      x y z
#    x 1.692690 0.000000 0.000000 
#    y 0.000000 1.692690 0.000000 
#    z 0.000000 0.000000 1.745670 
# 
# From -- ./inp_files/424.got.cif
#   From: 2010.03.12/outbox.cif.g09.slc.cpg/sg184_cif.got.tgz:424.got - 2010.04.01 11:54:36.
