data_PCOD8326907
_publ_section_title
;
Structure prediction by ZEFSAII (Michael W. Deem and Ramdas Pophale) SiO2 
 PCOD8326907
Probable space group: P -6 M 2
;
_chemical_formula_sum "Si O2"
_cell_formula_units_Z 96
_cell_length_a 17.472110
_cell_length_b 17.472110
_cell_length_c 23.210769
_cell_angle_alpha 90.000000
_cell_angle_beta 90.000000
_cell_angle_gamma 120.000000
_cell_volume 6136.360583
_symmetry_space_group_name_H-M "P -6 M 2"
_symmetry_group_IT_number 187
_symmetry_cell_setting 'hexagonal'
loop_
_space_group_symop_operation_xyz
x,y,z
-x+y,-x,-z
-y,x-y,z
x,y,-z
-x+y,-x,z
-y,x-y,-z
-y,-x,-z
-x+y,y,-z
x,x-y,-z
-x+y,y,z
x,x-y,z
-y,-x,z
loop_
_atom_site_type_symbol
_atom_site_label
_atom_site_fract_x
_atom_site_fract_y
_atom_site_fract_z
Si Si1 0.929412 0.244298 0.734610
Si Si2 0.425152 0.406082 0.062177
Si Si3 0.157139 0.490307 0.434296
Si Si4 0.061655 0.768124 0.063382
Si Si5 0.332374 0.488797 0.223453
Si Si6 0.997802 0.172945 0.834272
Si Si7 0.432305 0.037371 0.186767
Si Si8 0.097401 0.728885 0.331895
O O1 0.835796 0.164205 0.711602
O O2 0.974417 0.208218 0.778019
O O3 0.911255 0.314156 0.769186
O O4 0.997823 0.290488 0.682169
O O5 0.487960 0.512041 0.065591
O O6 0.324702 0.383929 0.062773
O O7 0.441565 0.365559 0.121108
O O8 0.443420 0.371609 0.000000
O O9 0.127788 0.461123 0.500000
O O10 0.259140 0.518280 0.424685
O O11 0.146526 0.573263 0.417237
O O12 0.094251 0.406688 0.394448
O O13 0.160669 0.839332 0.080674
O O14 0.993260 0.768311 0.109611
O O15 0.036283 0.788034 0.000000
O O16 0.240831 0.481661 0.200651
O O17 0.409008 0.590993 0.224230
O O18 0.360449 0.429093 0.184799
O O19 0.318531 0.449748 0.287649
O O20 0.929848 0.070153 0.844285
O O21 0.094029 0.188058 0.824571
O O22 0.526238 0.052476 0.209047
O O23 0.165196 0.834805 0.331601
#
# Coordination Sequence:
#
# PCOD8326907 Si02
#       8
#    12  12  12  12  12  12  12  12
#     4  10  19  31  47  65  84 111 145 183 227 270
#     4   9  16  27  43  60  78 102 135 175 217 263
#     4   9  16  26  43  70 105 141 170 189 205 231
#     4   9  17  28  42  60  82 110 143 178 216 262
#     4   9  16  24  37  58  86 118 148 176 207 245
#     4  10  19  30  44  62  85 113 144 179 220 267
#     4   9  17  29  43  62  83 105 135 176 222 267
#     4   9  17  28  42  62  89 121 153 185 218 252
#
# _framework density 15.644451999999999
#
# number of rings (size 3 to 8) (size 9 to 14) (size 15 to 20)
#    0.000    2.750    1.250    1.125    0.000    2.250 
#    0.000    1.250    0.000    2.250    0.000    1.750 
#    0.000    0.000    0.000    0.000    0.000    0.000 
#
# Total GULP energy -1189319.263548 kJ/mol
# GULP energy per Si atom -12388.742329 kJ/mol
# Density = 1.560884 g / cm^3
# Si number density = 15.644452 Si / 1000 Ang^3
#
#
#
# Elastic Constant Matrix: (Units=GPa)
#
#
# Indices 1 2 3 4 5 6 
#
# 1 73.6812 31.8009 33.6191 0.0000 0.0001 0.0000
# 2 31.8009 73.6812 33.6191 0.0000 -0.0001 0.0000
# 3 33.6191 33.6191 84.3916 0.0000 0.0000 0.0000
# 4 0.0000 0.0000 0.0000 16.9667 0.0000 -0.0001
# 5 0.0001 -0.0001 0.0000 0.0000 16.9667 0.0000
# 6 0.0000 0.0000 0.0000 -0.0001 0.0000 20.9401
#
#
#
# Elastic Compliance Matrix: (Units=1/GPa)
#
#
# Indices 1 2 3 4 5 6 
#
# 1 0.018292 -0.005585 -0.005062 0.000000 0.000000 0.000000
# 2 -0.005585 0.018292 -0.005062 0.000000 0.000000 0.000000
# 3 -0.005062 -0.005062 0.015883 0.000000 0.000000 0.000000
# 4 0.000000 0.000000 0.000000 0.058939 0.000000 0.000000
# 5 0.000000 0.000000 0.000000 0.000000 0.058939 0.000000
# 6 0.000000 0.000000 0.000000 0.000000 0.000000 0.047755
#
#
# Mechanical properties :
#
#
# Convention : Reuss Voigt Hill
#
# Bulk Modulus (GPa) = 47.50959 47.75912 47.63435
# Shear Modulus (GPa) = 19.49048 19.82237 19.65643
#
# Velocity S-wave (km/s) = 3.53347 3.56343 3.54849
# Velocity P-wave (km/s) = 6.86160 6.89383 6.87773
#
# Compressibility (1/GPa) = 0.02104838
#
# Stress axis : x y z
#
# Youngs Moduli (GPa) = 54.66771 54.66771 62.96147
#
# Poissons Ratio (x) = 0.30533 0.31872
# Poissons Ratio (y) = 0.30533 0.31872
# Poissons Ratio (z) = 0.27673 0.27673
#
# Static dielectric constant tensor:
#      x y z
#    x 2.884720 0.000000 0.000000 
#    y 0.000000 2.884720 0.000000 
#    z 0.000000 0.000000 3.073240 
# 
# 
# High freq. dielectric constant tensor:
#      x y z
#    x 1.577890 0.000000 0.000000 
#    y 0.000000 1.577890 0.000000 
#    z 0.000000 0.000000 1.593320 
# 
# From -- ./inp_files/4099.got.cif
#   From: 2010.03.12/outbox.cif.g09.slc.cpg/sg187_3_cif.got.tgz:4099.got - 2010.04.01 11:58:23.
