data_PCOD8326950
_publ_section_title
;
Structure prediction by ZEFSAII (Michael W. Deem and Ramdas Pophale) SiO2 
 PCOD8326950
Probable space group: P -6 M 2
;
_chemical_formula_sum "Si O2"
_cell_formula_units_Z 72
_cell_length_a 24.067484
_cell_length_b 24.067484
_cell_length_c 8.877869
_cell_angle_alpha 90.000000
_cell_angle_beta 90.000000
_cell_angle_gamma 120.000000
_cell_volume 4453.492729
_symmetry_space_group_name_H-M "P -6 M 2"
_symmetry_group_IT_number 187
_symmetry_cell_setting 'hexagonal'
loop_
_space_group_symop_operation_xyz
x,y,z
-x+y,-x,-z
-y,x-y,z
x,y,-z
-x+y,-x,z
-y,x-y,-z
-y,-x,-z
-x+y,y,-z
x,x-y,-z
-x+y,y,z
x,x-y,z
-y,-x,z
loop_
_atom_site_type_symbol
_atom_site_label
_atom_site_fract_x
_atom_site_fract_y
_atom_site_fract_z
Si Si1 0.515605 0.031209 0.170743
Si Si2 0.074459 0.148918 0.166462
Si Si3 0.816430 0.408215 0.832742
Si Si4 0.150200 0.300399 0.836369
Si Si5 0.403001 0.369982 0.321077
Si Si6 0.841126 0.031886 0.326241
Si Si7 0.706357 0.733644 0.819014
Si Si8 0.821892 0.520644 0.674123
O O1 0.553628 0.107256 0.170178
O O2 0.558156 0.007244 0.259714
O O3 0.502052 0.004104 0.000000
O O4 0.112223 0.224446 0.146051
O O5 0.119468 0.128656 0.256893
O O6 0.058300 0.116600 0.000000
O O7 0.791785 0.451466 0.752626
O O8 0.788424 0.394212 0.000000
O O9 0.100308 0.317927 0.756779
O O10 0.166788 0.333575 0.000000
O O11 0.396895 0.371703 0.500000
O O12 0.334980 0.344418 0.243802
O O13 0.429053 0.322366 0.269007
O O14 0.823934 0.012184 0.500000
O O15 0.893310 0.106690 0.309508
O O16 0.777464 0.021216 0.241562
O O17 0.708441 0.733786 0.000000
O O18 0.825464 0.507389 0.500000
O O19 0.774470 0.548940 0.706199
#
# Coordination Sequence:
#
# PCOD8326950 Si02
#       8
#     6   6   6   6  12  12  12  12
#     4   9  17  31  49  67  89 119 152 186 225 272
#     4   9  17  31  49  65  83 111 149 190 237 292
#     4   9  17  29  45  63  81 103 137 184 233 276
#     4   7  14  29  47  65  87 115 146 182 219 262
#     4  10  19  31  48  71  96 122 154 192 234 282
#     4  10  20  33  48  66  90 120 154 198 248 295
#     4  10  19  32  50  71  94 123 158 193 232 282
#     4   9  18  32  47  61  82 115 151 186 229 284
#
# _framework density 16.167085
#
# number of rings (size 3 to 8) (size 9 to 14) (size 15 to 20)
#    0.000    2.667    0.000    3.250    0.000    5.000 
#    1.000    2.917    0.000    0.000    0.000    0.000 
#    0.000    0.000    0.000    0.500    0.000    8.167 
#
# Total GULP energy -892341.830346 kJ/mol
# GULP energy per Si atom -12393.636533 kJ/mol
# Density = 1.613029 g / cm^3
# Si number density = 16.167085 Si / 1000 Ang^3
#
#
#
# Elastic Constant Matrix: (Units=GPa)
#
#
# Indices 1 2 3 4 5 6 
#
# 1 88.2038 53.8921 39.3451 0.0000 0.0001 0.0000
# 2 53.8921 88.2038 39.3451 0.0000 -0.0001 0.0000
# 3 39.3451 39.3451 87.5693 0.0000 0.0000 0.0000
# 4 0.0000 0.0000 0.0000 24.0128 0.0000 -0.0001
# 5 0.0001 -0.0001 0.0000 0.0000 24.0128 0.0000
# 6 0.0000 0.0000 0.0000 -0.0001 0.0000 17.1558
#
#
#
# Elastic Compliance Matrix: (Units=1/GPa)
#
#
# Indices 1 2 3 4 5 6 
#
# 1 0.019257 -0.009888 -0.004209 0.000000 0.000000 0.000000
# 2 -0.009888 0.019257 -0.004209 0.000000 0.000000 0.000000
# 3 -0.004209 -0.004209 0.015202 0.000000 0.000000 0.000000
# 4 0.000000 0.000000 0.000000 0.041644 0.000000 0.000000
# 5 0.000000 0.000000 0.000000 0.000000 0.041644 0.000000
# 6 0.000000 0.000000 0.000000 0.000000 0.000000 0.058289
#
#
# Mechanical properties :
#
#
# Convention : Reuss Voigt Hill
#
# Bulk Modulus (GPa) = 58.47309 58.79349 58.63329
# Shear Modulus (GPa) = 21.04314 21.79593 21.41954
#
# Velocity S-wave (km/s) = 3.61169 3.67572 3.64385
# Velocity P-wave (km/s) = 7.32386 7.37968 7.35182
#
# Compressibility (1/GPa) = 0.01710188
#
# Stress axis : x y z
#
# Youngs Moduli (GPa) = 51.93033 51.93033 65.78061
#
# Poissons Ratio (x) = 0.51349 0.27689
# Poissons Ratio (y) = 0.51349 0.27689
# Poissons Ratio (z) = 0.21859 0.21859
#
# Static dielectric constant tensor:
#      x y z
#    x 3.015300 0.000000 0.000000 
#    y 0.000000 3.015300 0.000000 
#    z 0.000000 0.000000 3.180400 
# 
# 
# High freq. dielectric constant tensor:
#      x y z
#    x 1.595810 0.000000 0.000000 
#    y 0.000000 1.595810 0.000000 
#    z 0.000000 0.000000 1.631290 
# 
# From -- ./inp_files/1108.got.cif
#   From: 2010.03.12/outbox.cif.g09.slc.cpg/sg187_1_cif.got.tgz:1108.got - 2010.04.01 11:58:23.
