data_PCOD8326752
_publ_section_title
;
Structure prediction by ZEFSAII (Michael W. Deem and Ramdas Pophale) SiO2 
 PCOD8326752
Probable space group: P 63 M C
;
_chemical_formula_sum "Si O2"
_cell_formula_units_Z 96
_cell_length_a 17.172434
_cell_length_b 17.172434
_cell_length_c 23.074674
_cell_angle_alpha 90.000000
_cell_angle_beta 90.000000
_cell_angle_gamma 120.000000
_cell_volume 5892.911481
_symmetry_space_group_name_H-M "P 63 M C"
_symmetry_group_IT_number 186
_symmetry_cell_setting 'hexagonal'
loop_
_space_group_symop_operation_xyz
x,y,z
x-y,x,1/2+z
-y,x-y,z
-x,-y,1/2+z
-x+y,-x,z
y,-x+y,1/2+z
-x+y,y,z
x,x-y,z
-y,-x,z
y,x,1/2+z
x-y,-y,1/2+z
-x,-x+y,1/2+z
loop_
_atom_site_type_symbol
_atom_site_label
_atom_site_fract_x
_atom_site_fract_y
_atom_site_fract_z
Si Si1 0.667515 0.518914 0.679140
Si Si2 0.391060 0.429367 0.941504
Si Si3 0.390494 0.426340 0.070215
Si Si4 0.100349 0.724540 0.291389
Si Si5 0.510032 0.667491 0.402128
Si Si6 0.652602 0.913550 0.837524
Si Si7 0.503896 0.837341 0.741812
Si Si8 0.846532 0.513339 0.109513
O O1 0.749910 0.499821 0.683815
O O2 0.575327 0.424674 0.683899
O O3 0.675433 0.570212 0.618587
O O4 0.672245 0.585575 0.730654
O O5 0.469215 0.530786 0.926252
O O6 0.432556 0.363238 0.941053
O O7 0.309919 0.398624 0.896477
O O8 0.351572 0.423861 0.005990
O O9 0.486310 0.513691 0.078509
O O10 0.408450 0.342881 0.077241
O O11 0.171239 0.828762 0.282776
O O12 0.134558 0.676084 0.335790
O O13 0.013843 0.726127 0.318239
O O14 0.524696 0.762348 0.425976
O O15 0.404877 0.595124 0.404706
O O16 0.693385 0.846693 0.845426
O O17 0.586371 0.882307 0.784074
O O18 0.431683 0.863365 0.764063
O O19 0.459126 0.729563 0.742413
O O20 0.534689 0.871540 0.676932
O O21 0.760847 0.521693 0.090856
O O22 0.825628 0.412814 0.093907
#
# Coordination Sequence:
#
# PCOD8326752 Si02
#       8
#    12  12  12  12  12  12  12  12
#     4  10  19  31  48  68  90 117 149 182 216 257
#     4   9  18  31  43  58  85 120 154 187 224 259
#     4   9  18  30  42  58  84 119 155 190 226 258
#     4   9  18  31  46  66  91 113 132 168 223 270
#     4   9  16  26  42  64  90 119 150 183 220 265
#     4  10  19  30  47  67  84 109 145 179 211 256
#     4   9  16  25  39  61  88 115 142 174 211 248
#     4   9  16  26  41  62  89 120 153 187 222 263
#
# _framework density 16.290759000000001
#
# number of rings (size 3 to 8) (size 9 to 14) (size 15 to 20)
#    0.000    2.750    0.000    2.000    0.000    4.500 
#    0.000    1.250    0.000    2.000    0.000    0.000 
#    0.000    0.000    0.000    0.375    0.000    6.875 
#
# Total GULP energy -1189812.988938 kJ/mol
# GULP energy per Si atom -12393.885301 kJ/mol
# Density = 1.625368 g / cm^3
# Si number density = 16.290759 Si / 1000 Ang^3
#
#
#
# Elastic Constant Matrix: (Units=GPa)
#
#
# Indices 1 2 3 4 5 6 
#
# 1 62.0710 24.8135 23.2453 0.0000 0.0000 0.0000
# 2 24.8135 62.0710 23.2453 0.0000 0.0000 0.0000
# 3 23.2453 23.2453 79.8026 0.0000 0.0000 0.0000
# 4 0.0000 0.0000 0.0000 17.7514 0.0000 0.0000
# 5 0.0000 0.0000 0.0000 0.0000 17.7514 0.0000
# 6 0.0000 0.0000 0.0000 0.0000 0.0000 18.6287
#
#
#
# Elastic Compliance Matrix: (Units=1/GPa)
#
#
# Indices 1 2 3 4 5 6 
#
# 1 0.020237 -0.006603 -0.003972 0.000000 0.000000 0.000000
# 2 -0.006603 0.020237 -0.003972 0.000000 0.000000 0.000000
# 3 -0.003972 -0.003972 0.014845 0.000000 0.000000 0.000000
# 4 0.000000 0.000000 0.000000 0.056334 0.000000 0.000000
# 5 0.000000 0.000000 0.000000 0.000000 0.056334 0.000000
# 6 0.000000 0.000000 0.000000 0.000000 0.000000 0.053681
#
#
# Mechanical properties :
#
#
# Convention : Reuss Voigt Hill
#
# Bulk Modulus (GPa) = 38.12769 38.50589 38.31679
# Shear Modulus (GPa) = 19.26767 19.66898 19.46832
#
# Velocity S-wave (km/s) = 3.44282 3.47849 3.46070
# Velocity P-wave (km/s) = 6.26573 6.31040 6.28810
#
# Compressibility (1/GPa) = 0.02622766
#
# Stress axis : x y z
#
# Youngs Moduli (GPa) = 49.41328 49.41328 67.36439
#
# Poissons Ratio (x) = 0.32627 0.26754
# Poissons Ratio (y) = 0.32627 0.26754
# Poissons Ratio (z) = 0.19625 0.19625
#
# Static dielectric constant tensor:
#      x y z
#    x 3.048780 0.000000 0.000000 
#    y 0.000000 3.048780 0.000000 
#    z 0.000000 0.000000 3.189870 
# 
# 
# High freq. dielectric constant tensor:
#      x y z
#    x 1.603110 0.000000 0.000000 
#    y 0.000000 1.603110 0.000000 
#    z 0.000000 0.000000 1.636990 
# 
# From -- ./inp_files/3577.got.cif
#   From: 2010.03.12/outbox.cif.g09.slc.cpg/sg186_2_cif.got.tgz:3577.got - 2010.04.01 11:56:34.
