data_PCOD8326946
_publ_section_title
;
Structure prediction by ZEFSAII (Michael W. Deem and Ramdas Pophale) SiO2 
 PCOD8326946
Probable space group: P -6 M 2
;
_chemical_formula_sum "Si O2"
_cell_formula_units_Z 72
_cell_length_a 23.695695
_cell_length_b 23.695695
_cell_length_c 9.010714
_cell_angle_alpha 90.000000
_cell_angle_beta 90.000000
_cell_angle_gamma 120.000000
_cell_volume 4381.559760
_symmetry_space_group_name_H-M "P -6 M 2"
_symmetry_group_IT_number 187
_symmetry_cell_setting 'hexagonal'
loop_
_space_group_symop_operation_xyz
x,y,z
-x+y,-x,-z
-y,x-y,z
x,y,-z
-x+y,-x,z
-y,x-y,-z
-y,-x,-z
-x+y,y,-z
x,x-y,-z
-x+y,y,z
x,x-y,z
-y,-x,z
loop_
_atom_site_type_symbol
_atom_site_label
_atom_site_fract_x
_atom_site_fract_y
_atom_site_fract_z
Si Si1 0.552825 0.891216 0.175871
Si Si2 0.554612 0.109223 0.676523
Si Si3 0.766274 0.659044 0.829826
Si Si4 0.705873 0.852937 0.664953
Si Si5 0.038842 0.296432 0.171527
Si Si6 0.224498 0.775503 0.330409
Si Si7 0.699989 0.175102 0.675643
Si Si8 0.479340 0.520661 0.322366
O O1 0.628944 0.937374 0.213425
O O2 0.526290 0.818902 0.243701
O O3 0.516206 0.923617 0.256029
O O4 0.539192 0.885095 0.000000
O O5 0.555388 0.110776 0.500000
O O6 0.627959 0.148684 0.741196
O O7 0.517127 0.034254 0.729949
O O8 0.843191 0.686382 0.806560
O O9 0.749730 0.713988 0.781031
O O10 0.723871 0.597331 0.728339
O O11 0.745583 0.638229 0.000000
O O12 0.733395 0.866698 0.500000
O O13 0.732486 0.810455 0.743614
O O14 0.628370 0.814185 0.671358
O O15 0.050850 0.291389 0.000000
O O16 0.237710 0.762291 0.500000
O O17 0.697396 0.172852 0.500000
O O18 0.750816 0.249185 0.730204
O O19 0.476346 0.523655 0.500000
#
# Coordination Sequence:
#
# PCOD8326946 Si02
#       8
#    12   6  12   6  12   6  12   6
#     4  10  19  31  47  68  93 120 152 189 227 271
#     4   9  18  31  45  65  92 120 155 203 253 298
#     4   9  17  29  45  65  90 119 151 185 225 273
#     4   9  17  27  43  67  92 116 143 175 209 252
#     4   9  17  29  45  65  91 121 149 180 222 268
#     4   9  17  31  49  68  90 117 147 175 215 265
#     4   9  17  30  46  63  85 116 155 198 245 293
#     4  11  21  31  45  66  94 125 157 195 241 287
#
# _framework density 16.432504000000002
#
# number of rings (size 3 to 8) (size 9 to 14) (size 15 to 20)
#    0.000    2.667    0.000    2.250    0.000    3.333 
#    0.500    1.250    0.000    0.333    0.000    2.333 
#    0.833    0.000    1.500    0.000    0.500    0.000 
#
# Total GULP energy -892616.458976 kJ/mol
# GULP energy per Si atom -12397.450819 kJ/mol
# Density = 1.639510 g / cm^3
# Si number density = 16.432504 Si / 1000 Ang^3
#
#
#
# Elastic Constant Matrix: (Units=GPa)
#
#
# Indices 1 2 3 4 5 6 
#
# 1 121.0030 74.3602 41.5533 0.0000 0.0002 0.0000
# 2 74.3602 121.0030 41.5533 0.0000 -0.0002 0.0000
# 3 41.5533 41.5533 55.7802 0.0000 0.0000 0.0000
# 4 0.0000 0.0000 0.0000 20.9801 0.0000 -0.0002
# 5 0.0002 -0.0002 0.0000 0.0000 20.9801 0.0000
# 6 0.0000 0.0000 0.0000 -0.0002 0.0000 23.3214
#
#
#
# Elastic Compliance Matrix: (Units=1/GPa)
#
#
# Indices 1 2 3 4 5 6 
#
# 1 0.014466 -0.006973 -0.005582 0.000000 0.000000 0.000000
# 2 -0.006973 0.014466 -0.005582 0.000000 0.000000 0.000000
# 3 -0.005582 -0.005582 0.026244 0.000000 0.000000 0.000000
# 4 0.000000 0.000000 0.000000 0.047664 0.000000 0.000000
# 5 0.000000 0.000000 0.000000 0.000000 0.047664 0.000000
# 6 0.000000 0.000000 0.000000 0.000000 0.000000 0.042879
#
#
# Mechanical properties :
#
#
# Convention : Reuss Voigt Hill
#
# Bulk Modulus (GPa) = 52.90330 68.07998 60.49164
# Shear Modulus (GPa) = 21.19005 22.41096 21.80050
#
# Velocity S-wave (km/s) = 3.59488 3.69700 3.64630
# Velocity P-wave (km/s) = 7.03528 7.72941 7.39050
#
# Compressibility (1/GPa) = 0.01890241
#
# Stress axis : x y z
#
# Youngs Moduli (GPa) = 69.12576 69.12576 38.10363
#
# Poissons Ratio (x) = 0.48202 0.21270
# Poissons Ratio (y) = 0.48202 0.21270
# Poissons Ratio (z) = 0.38587 0.38587
#
# Static dielectric constant tensor:
#      x y z
#    x 3.155490 0.000000 0.000000 
#    y 0.000000 3.155490 0.000000 
#    z 0.000000 0.000000 3.109780 
# 
# 
# High freq. dielectric constant tensor:
#      x y z
#    x 1.620350 0.000000 0.000000 
#    y 0.000000 1.620350 0.000000 
#    z 0.000000 0.000000 1.632310 
# 
# From -- ./inp_files/1090.got.cif
#   From: 2010.03.12/outbox.cif.g09.slc.cpg/sg187_1_cif.got.tgz:1090.got - 2010.04.01 11:58:23.
