data_PCOD8326703
_publ_section_title
;
Structure prediction by ZEFSAII (Michael W. Deem and Ramdas Pophale) SiO2 
 PCOD8326703
Probable space group: P 63 M C
;
_chemical_formula_sum "Si O2"
_cell_formula_units_Z 60
_cell_length_a 22.900822
_cell_length_b 22.900822
_cell_length_c 8.426171
_cell_angle_alpha 90.000000
_cell_angle_beta 90.000000
_cell_angle_gamma 120.000000
_cell_volume 3827.040361
_symmetry_space_group_name_H-M "P 63 M C"
_symmetry_group_IT_number 186
_symmetry_cell_setting 'hexagonal'
loop_
_space_group_symop_operation_xyz
x,y,z
x-y,x,1/2+z
-y,x-y,z
-x,-y,1/2+z
-x+y,-x,z
y,-x+y,1/2+z
-x+y,y,z
x,x-y,z
-y,-x,z
y,x,1/2+z
x-y,-y,1/2+z
-x,-x+y,1/2+z
loop_
_atom_site_type_symbol
_atom_site_label
_atom_site_fract_x
_atom_site_fract_y
_atom_site_fract_z
Si Si1 0.706855 0.026015 0.109600
Si Si2 0.487435 0.974869 0.926415
Si Si3 0.165680 0.702965 0.174210
Si Si4 0.317553 0.093328 0.809590
Si Si5 0.928833 0.341039 0.395319
Si Si6 0.448969 0.551032 0.249245
O O1 0.701721 0.074421 0.241138
O O2 0.721010 0.970566 0.192866
O O3 0.769065 0.070791 0.993279
O O4 0.637968 0.990221 0.009313
O O5 0.528764 0.943313 0.842123
O O6 0.528298 0.056595 0.908658
O O7 0.477091 0.954182 0.110798
O O8 0.245868 0.754133 0.177874
O O9 0.127298 0.729650 0.285862
O O10 0.150465 0.631214 0.241138
O O11 0.141019 0.698134 0.992047
O O12 0.292347 0.146174 0.771774
#
# Coordination Sequence:
#
# PCOD8326703 Si02
#       6
#    12   6  12  12  12   6
#     4   9  16  27  41  62  85 111 139 166 206 249
#     4  10  16  24  40  62  80 100 132 180 232 254
#     4   9  18  30  41  58  83 112 145 177 217 264
#     4   9  17  29  44  61  87 115 140 170 205 250
#     4   9  16  25  40  59  84 108 135 178 218 258
#     4  10  18  28  44  62  82 104 136 184 226 262
#
# _framework density 15.677911999999999
#
# number of rings (size 3 to 8) (size 9 to 14) (size 15 to 20)
#    0.000    2.800    0.000    4.800    0.000    0.800 
#    0.600    3.000    0.000    0.000    0.000    0.000 
#    0.000    0.000    0.000    6.000    0.000    0.000 
#
# Total GULP energy -743816.861004 kJ/mol
# GULP energy per Si atom -12396.947683 kJ/mol
# Density = 1.564223 g / cm^3
# Si number density = 15.677912 Si / 1000 Ang^3
#
#
#
# Elastic Constant Matrix: (Units=GPa)
#
#
# Indices 1 2 3 4 5 6 
#
# 1 77.2904 40.8134 31.5100 0.0000 0.0000 0.0000
# 2 40.8134 77.2904 31.5100 0.0000 0.0000 0.0000
# 3 31.5100 31.5100 75.4656 0.0000 0.0000 0.0000
# 4 0.0000 0.0000 0.0000 15.8626 0.0000 0.0000
# 5 0.0000 0.0000 0.0000 0.0000 15.8626 0.0000
# 6 0.0000 0.0000 0.0000 0.0000 0.0000 18.2385
#
#
#
# Elastic Compliance Matrix: (Units=1/GPa)
#
#
# Indices 1 2 3 4 5 6 
#
# 1 0.019154 -0.008260 -0.004549 0.000000 0.000000 0.000000
# 2 -0.008260 0.019154 -0.004549 0.000000 0.000000 0.000000
# 3 -0.004549 -0.004549 0.017050 0.000000 0.000000 0.000000
# 4 0.000000 0.000000 0.000000 0.063041 0.000000 0.000000
# 5 0.000000 0.000000 0.000000 0.000000 0.063041 0.000000
# 6 0.000000 0.000000 0.000000 0.000000 0.000000 0.054829
#
#
# Mechanical properties :
#
#
# Convention : Reuss Voigt Hill
#
# Bulk Modulus (GPa) = 48.44236 48.63480 48.53858
# Shear Modulus (GPa) = 17.99422 18.40694 18.20058
#
# Velocity S-wave (km/s) = 3.39151 3.43019 3.41090
# Velocity P-wave (km/s) = 6.80456 6.83936 6.82198
#
# Compressibility (1/GPa) = 0.02064309
#
# Stress axis : x y z
#
# Youngs Moduli (GPa) = 52.20709 52.20709 58.65190
#
# Poissons Ratio (x) = 0.43123 0.26680
# Poissons Ratio (y) = 0.43123 0.26680
# Poissons Ratio (z) = 0.23748 0.23748
#
# Static dielectric constant tensor:
#      x y z
#    x 2.853970 0.000000 0.000000 
#    y 0.000000 2.853970 0.000000 
#    z 0.000000 0.000000 3.054620 
# 
# 
# High freq. dielectric constant tensor:
#      x y z
#    x 1.575330 0.000000 0.000000 
#    y 0.000000 1.575330 0.000000 
#    z 0.000000 0.000000 1.602720 
# 
# From -- ./inp_files/1001.got.cif
#   From: 2010.03.12/outbox.cif.g09.slc.cpg/sg186_1_cif.got.tgz:1001.got - 2010.04.01 11:56:34.
