data_PCOD8326361
_publ_section_title
;
Structure prediction by ZEFSAII (Michael W. Deem and Ramdas Pophale) SiO2 
 PCOD8326361
Probable space group: P 64 2 2
;
_chemical_formula_sum "Si O2"
_cell_formula_units_Z 60
_cell_length_a 15.696002
_cell_length_b 15.696002
_cell_length_c 13.068200
_cell_angle_alpha 90.000000
_cell_angle_beta 90.000000
_cell_angle_gamma 120.000000
_cell_volume 2788.203672
_symmetry_space_group_name_H-M "P 64 2 2"
_symmetry_group_IT_number 181
_symmetry_cell_setting 'hexagonal'
loop_
_space_group_symop_operation_xyz
x,y,z
x-y,x,2/3+z
-y,x-y,1/3+z
-x,-y,z
-x+y,-x,2/3+z
y,-x+y,1/3+z
x-y,-y,-z
-x,-x+y,2/3-z
y,x,1/3-z
-y,-x,1/3-z
-x+y,y,-z
x,x-y,2/3-z
loop_
_atom_site_type_symbol
_atom_site_label
_atom_site_fract_x
_atom_site_fract_y
_atom_site_fract_z
Si Si1 0.872232 0.014219 0.762846
Si Si2 0.669293 0.190888 0.584807
Si Si3 0.142647 0.793717 0.483351
Si Si4 0.213710 0.863350 0.273706
Si Si5 0.402252 0.421461 0.929883
O O1 0.944482 0.055519 0.666667
O O2 0.870299 0.104766 0.821925
O O3 0.910013 0.955007 0.833334
O O4 0.764181 0.940485 0.724292
O O5 0.718022 0.281979 0.666667
O O6 0.605161 0.210322 0.500000
O O7 0.754712 0.175225 0.537161
O O8 0.603734 0.088357 0.642622
O O9 0.153257 0.785976 0.362152
O O10 0.062717 0.685374 0.516461
O O11 0.193671 0.806330 0.166667
O O12 0.329109 0.917205 0.302787
O O13 0.500000 0.500000 0.869775
#
# Coordination Sequence:
#
# PCOD8326361 Si02
#       5
#    12  12  12  12  12
#     4  10  22  40  61  87 120 161 210 260 313 377
#     4  10  21  39  66  97 128 159 204 264 322 387
#     4  10  21  41  62  87 125 162 203 262 320 375
#     4  10  22  40  61  85 123 166 203 255 321 375
#     4  10  21  38  63  94 118 154 212 257 307 385
#
# _framework density 21.519233
#
# number of rings (size 3 to 8) (size 9 to 14) (size 15 to 20)
#    0.000    2.000    0.000    4.200    0.000   12.400 
#    0.000   19.000    0.000    0.000    0.000    0.000 
#    0.000    0.000    0.000    0.000    0.000    0.000 
#
# Total GULP energy -743718.682229 kJ/mol
# GULP energy per Si atom -12395.311370 kJ/mol
# Density = 2.147025 g / cm^3
# Si number density = 21.519233 Si / 1000 Ang^3
#
#
#
# Elastic Constant Matrix: (Units=GPa)
#
#
# Indices 1 2 3 4 5 6 
#
# 1 108.0874 55.2254 60.8861 0.0000 0.0000 0.0000
# 2 55.2254 108.0874 60.8861 0.0000 0.0000 0.0000
# 3 60.8861 60.8861 159.0487 0.0000 0.0000 0.0000
# 4 0.0000 0.0000 0.0000 26.7526 0.0000 0.0000
# 5 0.0000 0.0000 0.0000 0.0000 26.7526 0.0000
# 6 0.0000 0.0000 0.0000 0.0000 0.0000 26.4310
#
#
#
# Elastic Compliance Matrix: (Units=1/GPa)
#
#
# Indices 1 2 3 4 5 6 
#
# 1 0.013743 -0.005174 -0.003280 0.000000 0.000000 0.000000
# 2 -0.005174 0.013743 -0.003280 0.000000 0.000000 0.000000
# 3 -0.003280 -0.003280 0.008799 0.000000 0.000000 0.000000
# 4 0.000000 0.000000 0.000000 0.037380 0.000000 0.000000
# 5 0.000000 0.000000 0.000000 0.000000 0.037380 0.000000
# 6 0.000000 0.000000 0.000000 0.000000 0.000000 0.037834
#
#
# Mechanical properties :
#
#
# Convention : Reuss Voigt Hill
#
# Bulk Modulus (GPa) = 78.02906 81.02426 79.52666
# Shear Modulus (GPa) = 28.30931 29.20231 28.75581
#
# Velocity S-wave (km/s) = 3.63097 3.68779 3.65949
# Velocity P-wave (km/s) = 7.34285 7.47441 7.40892
#
# Compressibility (1/GPa) = 0.01281574
#
# Stress axis : x y z
#
# Youngs Moduli (GPa) = 72.76326 72.76326 113.64973
#
# Poissons Ratio (x) = 0.37648 0.37282
# Poissons Ratio (y) = 0.37648 0.37282
# Poissons Ratio (z) = 0.23869 0.23869
#
# Static dielectric constant tensor:
#      x y z
#    x 4.100430 0.000000 0.000000 
#    y 0.000000 4.100430 0.000000 
#    z 0.000000 0.000000 3.952350 
# 
# 
# High freq. dielectric constant tensor:
#      x y z
#    x 1.847120 0.000000 0.000000 
#    y 0.000000 1.847120 0.000000 
#    z 0.000000 0.000000 1.839380 
# 
# From -- ./inp_files/4875.got.cif
#   From: 2010.03.12/outbox.cif.g09.slc.cpg/sg181_3_cif.got.tgz:4875.got - 2010.04.01 11:42:41.
