data_PCOD8326104
_publ_section_title
;
Structure prediction by ZEFSAII (Michael W. Deem and Ramdas Pophale) SiO2 
 PCOD8326104
Probable space group: P 65 2 2
;
_chemical_formula_sum "Si O2"
_cell_formula_units_Z 48
_cell_length_a 18.288702
_cell_length_b 18.288702
_cell_length_c 7.562102
_cell_angle_alpha 90.000000
_cell_angle_beta 90.000000
_cell_angle_gamma 120.000000
_cell_volume 2190.478171
_symmetry_space_group_name_H-M "P 65 2 2"
_symmetry_group_IT_number 179
_symmetry_cell_setting 'hexagonal'
loop_
_space_group_symop_operation_xyz
x,y,z
x-y,x,5/6+z
-y,x-y,2/3+z
-x,-y,1/2+z
-x+y,-x,1/3+z
y,-x+y,1/6+z
x-y,-y,-z
-x,-x+y,1/3-z
y,x,2/3-z
-y,-x,1/6-z
-x+y,y,1/2-z
x,x-y,5/6-z
loop_
_atom_site_type_symbol
_atom_site_label
_atom_site_fract_x
_atom_site_fract_y
_atom_site_fract_z
Si Si1 0.163028 0.000000 0.000000
Si Si2 0.598973 0.401028 0.583334
Si Si3 0.095413 0.444714 0.199811
Si Si4 0.718816 0.782982 0.993587
Si Si5 0.776813 0.473289 0.428226
O O1 0.202622 0.970203 0.844610
O O2 0.149114 0.074557 0.916667
O O3 0.542238 0.404059 0.425369
O O4 0.696748 0.438238 0.552826
O O5 0.103820 0.382970 0.346612
O O6 0.000000 0.418730 0.166667
O O7 0.143557 0.444841 0.018077
O O8 0.738146 0.738146 0.833334
O O9 0.747362 0.873681 0.916667
O O10 0.751367 0.502734 0.250000
O O11 0.801312 0.400656 0.416667
#
# Coordination Sequence:
#
# PCOD8326104 Si02
#       5
#     6   6  12  12  12
#     4  12  26  46  82 116 144 196 250 302 382 444
#     4  12  22  42  72 100 142 180 248 316 368 424
#     4  11  27  46  65 103 150 195 242 313 372 448
#     4  11  23  47  71 101 152 190 242 303 370 454
#     4  12  22  42  74 102 137 186 251 312 382 436
#
# _framework density 21.913025000000001
#
# number of rings (size 3 to 8) (size 9 to 14) (size 15 to 20)
#    0.000    0.500    6.250    2.250    1.750    1.000 
#   20.250    0.000    0.000    0.000    0.000    0.000 
#    0.000    0.000    0.000    0.000    0.000    0.000 
#
# Total GULP energy -594694.124429 kJ/mol
# GULP energy per Si atom -12389.460926 kJ/mol
# Density = 2.186315 g / cm^3
# Si number density = 21.913025 Si / 1000 Ang^3
#
#
#
# Elastic Constant Matrix: (Units=GPa)
#
#
# Indices 1 2 3 4 5 6 
#
# 1 98.2660 55.5188 50.2356 0.0000 0.0000 0.0000
# 2 55.5188 98.2660 50.2356 0.0000 0.0000 0.0000
# 3 50.2356 50.2356 134.5799 0.0000 0.0000 0.0000
# 4 0.0000 0.0000 0.0000 33.4036 0.0000 0.0000
# 5 0.0000 0.0000 0.0000 0.0000 33.4036 0.0000
# 6 0.0000 0.0000 0.0000 0.0000 0.0000 21.3736
#
#
#
# Elastic Compliance Matrix: (Units=1/GPa)
#
#
# Indices 1 2 3 4 5 6 
#
# 1 0.015997 -0.007397 -0.003210 0.000000 0.000000 0.000000
# 2 -0.007397 0.015997 -0.003210 0.000000 0.000000 0.000000
# 3 -0.003210 -0.003210 0.009827 0.000000 0.000000 0.000000
# 4 0.000000 0.000000 0.000000 0.029937 0.000000 0.000000
# 5 0.000000 0.000000 0.000000 0.000000 0.029937 0.000000
# 6 0.000000 0.000000 0.000000 0.000000 0.000000 0.046787
#
#
# Mechanical properties :
#
#
# Convention : Reuss Voigt Hill
#
# Bulk Modulus (GPa) = 70.49076 71.45462 70.97269
# Shear Modulus (GPa) = 27.64821 29.31095 28.47958
#
# Velocity S-wave (km/s) = 3.55593 3.66129 3.60900
# Velocity P-wave (km/s) = 7.00698 7.11003 7.05869
#
# Compressibility (1/GPa) = 0.01418626
#
# Stress axis : x y z
#
# Youngs Moduli (GPa) = 62.51326 62.51326 101.75982
#
# Poissons Ratio (x) = 0.46240 0.32666
# Poissons Ratio (y) = 0.46240 0.32666
# Poissons Ratio (z) = 0.20068 0.20068
#
# Static dielectric constant tensor:
#      x y z
#    x 4.813400 0.000000 0.000000 
#    y 0.000000 4.813400 0.000000 
#    z 0.000000 0.000000 4.037480 
# 
# 
# High freq. dielectric constant tensor:
#      x y z
#    x 1.869500 0.000000 0.000000 
#    y 0.000000 1.869500 0.000000 
#    z 0.000000 0.000000 1.860050 
# 
# From -- ./inp_files/2696.got.cif
#   From: 2010.03.12/outbox.cif.g09.slc.cpg/sg179_2_cif.got.tgz:2696.got - 2010.04.02 07:08:42.
