data_PCOD8326211
_publ_section_title
;
Structure prediction by ZEFSAII (Michael W. Deem and Ramdas Pophale) SiO2 
 PCOD8326211
Probable space group: P 62 2 2
;
_chemical_formula_sum "Si O2"
_cell_formula_units_Z 54
_cell_length_a 12.192995
_cell_length_b 12.192995
_cell_length_c 19.846504
_cell_angle_alpha 90.000000
_cell_angle_beta 90.000000
_cell_angle_gamma 120.000000
_cell_volume 2555.262016
_symmetry_space_group_name_H-M "P 62 2 2"
_symmetry_group_IT_number 180
_symmetry_cell_setting 'hexagonal'
loop_
_space_group_symop_operation_xyz
x,y,z
x-y,x,1/3+z
-y,x-y,2/3+z
-x,-y,z
-x+y,-x,1/3+z
y,-x+y,2/3+z
x-y,-y,-z
-x,-x+y,1/3-z
y,x,2/3-z
-y,-x,2/3-z
-x+y,y,-z
x,x-y,1/3-z
loop_
_atom_site_type_symbol
_atom_site_label
_atom_site_fract_x
_atom_site_fract_y
_atom_site_fract_z
Si Si1 0.543913 0.854903 0.983873
Si Si2 0.041415 0.742965 0.970345
Si Si3 0.831922 0.089857 0.439319
Si Si4 0.500000 0.500000 0.097401
Si Si5 0.513107 0.226387 0.835216
O O1 0.553688 0.818197 0.907710
O O2 0.392657 0.785314 0.000000
O O3 0.623358 0.816384 0.033721
O O4 0.599900 0.000000 0.000000
O O5 0.978872 0.797299 0.916850
O O6 0.995884 0.599828 0.952160
O O7 0.999098 0.751170 0.045084
O O8 0.769513 0.175888 0.456407
O O9 0.826836 0.000000 0.500000
O O10 0.428952 0.553905 0.144224
O O11 0.635093 0.364908 0.833334
#
# Coordination Sequence:
#
# PCOD8326211 Si02
#       5
#    12  12  12   6  12
#     4  11  23  41  66  96 131 169 216 274 341 407
#     4  10  22  39  66  92 137 172 226 286 334 412
#     4  10  21  41  65  96 132 178 229 282 343 411
#     4  10  22  38  58  96 128 170 220 274 340 406
#     4  11  23  39  65  94 131 174 221 273 346 416
#
# _framework density 21.132860999999998
#
# number of rings (size 3 to 8) (size 9 to 14) (size 15 to 20)
#    0.000    1.556    2.222    2.667    3.111    0.444 
#    0.000    5.556    4.889    0.000    0.000    0.000 
#    0.000    0.000    0.000    0.000    0.000    0.000 
#
# Total GULP energy -669335.085469 kJ/mol
# GULP energy per Si atom -12395.094175 kJ/mol
# Density = 2.108476 g / cm^3
# Si number density = 21.132861 Si / 1000 Ang^3
#
#
#
# Elastic Constant Matrix: (Units=GPa)
#
#
# Indices 1 2 3 4 5 6 
#
# 1 121.8770 61.0134 51.3146 0.0000 0.0000 0.0000
# 2 61.0134 121.8770 51.3146 0.0000 0.0000 0.0000
# 3 51.3146 51.3146 106.5286 0.0000 0.0000 0.0000
# 4 0.0000 0.0000 0.0000 23.1666 0.0000 0.0000
# 5 0.0000 0.0000 0.0000 0.0000 23.1666 0.0000
# 6 0.0000 0.0000 0.0000 0.0000 0.0000 30.4318
#
#
#
# Elastic Compliance Matrix: (Units=1/GPa)
#
#
# Indices 1 2 3 4 5 6 
#
# 1 0.011962 -0.004468 -0.003609 0.000000 0.000000 0.000000
# 2 -0.004468 0.011962 -0.003609 0.000000 0.000000 0.000000
# 3 -0.003609 -0.003609 0.012864 0.000000 0.000000 0.000000
# 4 0.000000 0.000000 0.000000 0.043166 0.000000 0.000000
# 5 0.000000 0.000000 0.000000 0.000000 0.043166 0.000000
# 6 0.000000 0.000000 0.000000 0.000000 0.000000 0.032860
#
#
# Mechanical properties :
#
#
# Convention : Reuss Voigt Hill
#
# Bulk Modulus (GPa) = 74.55424 75.28534 74.91979
# Shear Modulus (GPa) = 27.19975 27.79568 27.49772
#
# Velocity S-wave (km/s) = 3.59149 3.63062 3.61110
# Velocity P-wave (km/s) = 7.24940 7.29913 7.27431
#
# Compressibility (1/GPa) = 0.01341305
#
# Stress axis : x y z
#
# Youngs Moduli (GPa) = 83.60019 83.60019 77.73334
#
# Poissons Ratio (x) = 0.37357 0.28058
# Poissons Ratio (y) = 0.37357 0.28058
# Poissons Ratio (z) = 0.30175 0.30175
#
# Static dielectric constant tensor:
#      x y z
#    x 4.049810 0.000000 0.000000 
#    y 0.000000 4.049810 0.000000 
#    z 0.000000 0.000000 4.001570 
# 
# 
# High freq. dielectric constant tensor:
#      x y z
#    x 1.828900 0.000000 0.000000 
#    y 0.000000 1.828900 0.000000 
#    z 0.000000 0.000000 1.833300 
# 
# From -- ./inp_files/8854.got.cif
#   From: 2010.03.12/outbox.cif.g09.slc.cpg/sg180_5_cif.got.tgz:8854.got - 2010.04.01 11:35:50.
