data_PCOD8326511
_publ_section_title
;
Structure prediction by ZEFSAII (Michael W. Deem and Ramdas Pophale) SiO2 
 PCOD8326511
Probable space group: P 6 M M
;
_chemical_formula_sum "Si O2"
_cell_formula_units_Z 84
_cell_length_a 18.863779
_cell_length_b 18.863779
_cell_length_c 17.733408
_cell_angle_alpha 90.000000
_cell_angle_beta 90.000000
_cell_angle_gamma 120.000000
_cell_volume 5464.875060
_symmetry_space_group_name_H-M "P 6 M M"
_symmetry_group_IT_number 183
_symmetry_cell_setting 'hexagonal'
loop_
_space_group_symop_operation_xyz
x,y,z
x-y,x,z
-y,x-y,z
-x,-y,z
-x+y,-x,z
y,-x+y,z
-x+y,y,z
x,x-y,z
-y,-x,z
y,x,z
x-y,-y,z
-x,-x+y,z
loop_
_atom_site_type_symbol
_atom_site_label
_atom_site_fract_x
_atom_site_fract_y
_atom_site_fract_z
Si Si1 0.172934 0.669181 0.413940
Si Si2 0.668366 0.170597 0.109481
Si Si3 0.907304 0.250366 0.835801
Si Si4 0.530035 0.627309 0.727155
Si Si5 0.090960 0.461462 0.264400
Si Si6 0.461105 0.370425 0.562633
Si Si7 0.346212 0.253738 0.010857
O O1 0.157097 0.578549 0.414610
O O2 0.268661 0.731340 0.405152
O O3 0.125980 0.679652 0.342250
O O4 0.142099 0.687440 0.492897
O O5 0.577893 0.155786 0.094412
O O6 0.734370 0.265631 0.096183
O O7 0.679706 0.147408 0.194295
O O8 0.683584 0.113131 0.053046
O O9 0.846079 0.153922 0.819050
O O10 0.875291 0.302679 0.789803
O O11 0.903132 0.269805 0.922822
O O12 0.000000 0.274532 0.812590
O O13 0.434100 0.565901 0.747715
O O14 0.574059 0.574059 0.722210
O O15 0.538872 0.668610 0.644387
O O16 0.088767 0.544384 0.270997
O O17 0.000000 0.385493 0.251468
O O18 0.543478 0.456523 0.556837
O O19 0.383353 0.383353 0.555445
O O20 0.317915 0.158958 0.031908
O O21 0.274584 0.274584 0.032256
#
# Coordination Sequence:
#
# PCOD8326511 Si02
#       7
#    12  12  12  12  12  12  12
#     4  10  18  26  36  51  72  97 125 159 201 246
#     4  10  19  30  44  63  88 115 141 169 202 241
#     4   9  17  29  45  64  85 109 138 172 209 249
#     4   8  14  25  41  60  80 103 133 168 204 242
#     4   9  17  28  41  55  71  96 132 170 203 236
#     4   8  14  25  39  53  71  97 129 163 196 232
#     4   9  18  31  46  64  85 110 139 172 210 249
#
# _framework density 15.370891
#
# number of rings (size 3 to 8) (size 9 to 14) (size 15 to 20)
#    0.000    3.000    0.000    2.429    0.000    3.714 
#    0.000    2.857    0.000    0.571    0.000    2.000 
#    0.000    0.000    0.000    0.000    0.000    0.000 
#
# Total GULP energy -1040907.051707 kJ/mol
# GULP energy per Si atom -12391.750616 kJ/mol
# Density = 1.533591 g / cm^3
# Si number density = 15.370891 Si / 1000 Ang^3
#
#
#
# Elastic Constant Matrix: (Units=GPa)
#
#
# Indices 1 2 3 4 5 6 
#
# 1 66.9385 36.9743 38.8610 0.0000 0.0000 0.0000
# 2 36.9743 66.9385 38.8610 0.0000 0.0000 0.0000
# 3 38.8610 38.8610 82.1368 0.0000 0.0000 0.0000
# 4 0.0000 0.0000 0.0000 17.3381 0.0000 0.0000
# 5 0.0000 0.0000 0.0000 0.0000 17.3381 0.0000
# 6 0.0000 0.0000 0.0000 0.0000 0.0000 14.9821
#
#
#
# Elastic Compliance Matrix: (Units=1/GPa)
#
#
# Indices 1 2 3 4 5 6 
#
# 1 0.024134 -0.009239 -0.007047 0.000000 0.000000 0.000000
# 2 -0.009239 0.024134 -0.007047 0.000000 0.000000 0.000000
# 3 -0.007047 -0.007047 0.018843 0.000000 0.000000 0.000000
# 4 0.000000 0.000000 0.000000 0.057676 0.000000 0.000000
# 5 0.000000 0.000000 0.000000 0.000000 0.057676 0.000000
# 6 0.000000 0.000000 0.000000 0.000000 0.000000 0.066746
#
#
# Mechanical properties :
#
#
# Convention : Reuss Voigt Hill
#
# Bulk Modulus (GPa) = 48.91423 49.48959 49.20191
# Shear Modulus (GPa) = 16.51854 16.68616 16.60235
#
# Velocity S-wave (km/s) = 3.28176 3.29837 3.29008
# Velocity P-wave (km/s) = 6.80086 6.83904 6.81998
#
# Compressibility (1/GPa) = 0.02044395
#
# Stress axis : x y z
#
# Youngs Moduli (GPa) = 41.43591 41.43591 53.07046
#
# Poissons Ratio (x) = 0.38285 0.37398
# Poissons Ratio (y) = 0.38285 0.37398
# Poissons Ratio (z) = 0.29199 0.29199
#
# Static dielectric constant tensor:
#      x y z
#    x 2.801550 0.000000 0.000000 
#    y 0.000000 2.801550 0.000000 
#    z 0.000000 0.000000 3.287610 
# 
# 
# High freq. dielectric constant tensor:
#      x y z
#    x 1.559000 0.000000 0.000000 
#    y 0.000000 1.559000 0.000000 
#    z 0.000000 0.000000 1.605520 
# 
# From -- ./inp_files/2868.got.cif
#   From: 2010.03.12/outbox.cif.g09.slc.cpg/sg183_2_cif.got.tgz:2868.got - 2010.04.01 11:53:02.
