data_PCOD8326778
_publ_section_title
;
Structure prediction by ZEFSAII (Michael W. Deem and Ramdas Pophale) SiO2 
 PCOD8326778
Probable space group: P 63 M C
;
_chemical_formula_sum "Si O2"
_cell_formula_units_Z 84
_cell_length_a 21.072430
_cell_length_b 21.072430
_cell_length_c 10.906804
_cell_angle_alpha 90.000000
_cell_angle_beta 90.000000
_cell_angle_gamma 120.000000
_cell_volume 4194.279619
_symmetry_space_group_name_H-M "P 63 M C"
_symmetry_group_IT_number 186
_symmetry_cell_setting 'hexagonal'
loop_
_space_group_symop_operation_xyz
x,y,z
x-y,x,1/2+z
-y,x-y,z
-x,-y,1/2+z
-x+y,-x,z
y,-x+y,1/2+z
-x+y,y,z
x,x-y,z
-y,-x,z
y,x,1/2+z
x-y,-y,1/2+z
-x,-x+y,1/2+z
loop_
_atom_site_type_symbol
_atom_site_label
_atom_site_fract_x
_atom_site_fract_y
_atom_site_fract_z
Si Si1 0.521456 0.189856 0.700010
Si Si2 0.941856 0.540708 0.096003
Si Si3 0.999793 0.148620 0.978060
Si Si4 0.773917 0.812023 0.727053
Si Si5 0.354267 0.022329 0.302970
Si Si6 0.588738 0.866819 0.420219
Si Si7 0.910831 0.385806 0.474648
O O1 0.595394 0.190788 0.731086
O O2 0.539263 0.269632 0.654450
O O3 0.475570 0.168382 0.823005
O O4 0.475562 0.132373 0.594726
O O5 0.910541 0.455271 0.133141
O O6 0.988898 0.594676 0.206350
O O7 0.001910 0.561607 0.990565
O O8 0.876817 0.554094 0.046931
O O9 0.069934 0.139868 0.975194
O O10 0.005071 0.195389 0.099907
O O11 0.993934 0.184309 0.850381
O O12 0.931057 0.068944 0.990214
O O13 0.769016 0.884508 0.724131
O O14 0.692249 0.743892 0.731274
O O15 0.415567 0.091250 0.383713
O O16 0.296452 0.947285 0.373213
O O17 0.619993 0.809997 0.440706
O O18 0.880996 0.440498 0.427769
#
# Coordination Sequence:
#
# PCOD8326778 Si02
#       7
#    12  12  12  12  12  12  12
#     4  10  19  34  55  83 116 150 189 237 295 356
#     4  10  20  36  59  84 112 149 199 247 287 343
#     4  10  21  40  63  88 115 155 202 252 298 351
#     4  10  24  39  57  86 123 156 196 247 304 364
#     4  11  22  37  58  83 111 155 194 239 296 357
#     4  10  22  36  56  86 120 156 193 240 301 359
#     4   9  19  34  54  80 110 143 191 246 287 336
#
# _framework density 20.027277999999999
#
# number of rings (size 3 to 8) (size 9 to 14) (size 15 to 20)
#    0.000    2.000    1.429    1.571    4.000    3.429 
#    0.000    4.286    0.000    0.286    0.000    0.000 
#    0.000    0.000    0.000    0.000    0.000    0.000 
#
# Total GULP energy -1040721.491820 kJ/mol
# GULP energy per Si atom -12389.541569 kJ/mol
# Density = 1.998169 g / cm^3
# Si number density = 20.027278 Si / 1000 Ang^3
#
#
#
# Elastic Constant Matrix: (Units=GPa)
#
#
# Indices 1 2 3 4 5 6 
#
# 1 42.4261 4.2483 11.9922 0.0000 0.0000 0.0000
# 2 4.2483 42.4261 11.9922 0.0000 0.0000 0.0000
# 3 11.9922 11.9922 85.5057 0.0000 0.0000 0.0000
# 4 0.0000 0.0000 0.0000 29.2930 0.0000 0.0000
# 5 0.0000 0.0000 0.0000 0.0000 29.2930 0.0000
# 6 0.0000 0.0000 0.0000 0.0000 0.0000 19.0889
#
#
#
# Elastic Compliance Matrix: (Units=1/GPa)
#
#
# Indices 1 2 3 4 5 6 
#
# 1 0.024641 -0.001552 -0.003238 0.000000 0.000000 0.000000
# 2 -0.001552 0.024641 -0.003238 0.000000 0.000000 0.000000
# 3 -0.003238 -0.003238 0.012603 0.000000 0.000000 0.000000
# 4 0.000000 0.000000 0.000000 0.034138 0.000000 0.000000
# 5 0.000000 0.000000 0.000000 0.000000 0.034138 0.000000
# 6 0.000000 0.000000 0.000000 0.000000 0.000000 0.052386
#
#
# Mechanical properties :
#
#
# Convention : Reuss Voigt Hill
#
# Bulk Modulus (GPa) = 21.82048 25.20261 23.51154
# Shear Modulus (GPa) = 23.37745 25.00998 24.19372
#
# Velocity S-wave (km/s) = 3.42026 3.53766 3.47946
# Velocity P-wave (km/s) = 5.14942 5.41278 5.28274
#
# Compressibility (1/GPa) = 0.04582851
#
# Stress axis : x y z
#
# Youngs Moduli (GPa) = 40.58256 40.58256 79.34336
#
# Poissons Ratio (x) = 0.06299 0.25693
# Poissons Ratio (y) = 0.06299 0.25693
# Poissons Ratio (z) = 0.13142 0.13142
#
# Static dielectric constant tensor:
#      x y z
#    x 3.724150 0.000000 0.000000 
#    y 0.000000 3.724150 0.000000 
#    z 0.000000 0.000000 3.823690 
# 
# 
# High freq. dielectric constant tensor:
#      x y z
#    x 1.772910 0.000000 0.000000 
#    y 0.000000 1.772910 0.000000 
#    z 0.000000 0.000000 1.783960 
# 
# From -- ./inp_files/1905.got.cif
#   From: 2010.03.12/outbox.cif.g09.slc.cpg/sg186_1_cif.got.tgz:1905.got - 2010.04.01 11:56:34.
