data_PCOD8326427
_publ_section_title
;
Structure prediction by ZEFSAII (Michael W. Deem and Ramdas Pophale) SiO2 
 PCOD8326427
Probable space group: P 64 2 2
;
_chemical_formula_sum "Si O2"
_cell_formula_units_Z 51
_cell_length_a 11.494764
_cell_length_b 11.494764
_cell_length_c 19.706319
_cell_angle_alpha 90.000000
_cell_angle_beta 90.000000
_cell_angle_gamma 120.000000
_cell_volume 2254.946585
_symmetry_space_group_name_H-M "P 64 2 2"
_symmetry_group_IT_number 181
_symmetry_cell_setting 'hexagonal'
loop_
_space_group_symop_operation_xyz
x,y,z
x-y,x,2/3+z
-y,x-y,1/3+z
-x,-y,z
-x+y,-x,2/3+z
y,-x+y,1/3+z
x-y,-y,-z
-x,-x+y,2/3-z
y,x,1/3-z
-y,-x,1/3-z
-x+y,y,-z
x,x-y,2/3-z
loop_
_atom_site_type_symbol
_atom_site_label
_atom_site_fract_x
_atom_site_fract_y
_atom_site_fract_z
Si Si1 0.778373 0.572052 0.225754
Si Si2 0.361012 0.180506 0.833334
Si Si3 0.718174 0.359087 0.333334
Si Si4 0.500000 0.000000 0.500000
Si Si5 0.580140 0.141118 0.778317
Si Si6 0.133957 0.127047 0.587731
O O1 0.801543 0.501007 0.292900
O O2 0.623025 0.528891 0.216406
O O3 0.833005 0.538749 0.157510
O O4 0.857932 0.732526 0.232552
O O5 0.462147 0.123112 0.829323
O O6 0.266302 0.123070 0.898908
O O7 0.627380 0.368926 0.391362
O O8 0.500000 0.000000 0.737978
O O9 0.119246 0.119246 0.666667
O O10 0.000000 0.000000 0.556104
#
# Coordination Sequence:
#
# PCOD8326427 Si02
#       6
#    12   6   6   3  12  12
#     4  12  26  47  75 105 151 196 246 309 373 451
#     4  12  22  46  72 104 146 186 248 304 364 440
#     4  12  24  46  71 116 145 188 256 308 374 456
#     4  12  26  48  66 110 152 196 238 300 384 434
#     4  12  25  44  70 108 146 190 247 307 375 439
#     4  11  27  48  73 112 147 198 250 302 382 456
#
# _framework density 22.616945000000001
#
# number of rings (size 3 to 8) (size 9 to 14) (size 15 to 20)
#    0.000    0.235    7.059    1.765    4.941    0.000 
#    0.000    0.000    0.000    0.000    0.000    0.000 
#    0.000    0.000    0.000    0.000    0.000    0.000 
#
# Total GULP energy -632038.099551 kJ/mol
# GULP energy per Si atom -12392.903913 kJ/mol
# Density = 2.256547 g / cm^3
# Si number density = 22.616945 Si / 1000 Ang^3
#
#
#
# Elastic Constant Matrix: (Units=GPa)
#
#
# Indices 1 2 3 4 5 6 
#
# 1 147.6817 56.8371 32.6882 0.0000 0.0000 0.0000
# 2 56.8371 147.6817 32.6882 0.0000 0.0000 0.0000
# 3 32.6882 32.6882 101.5656 0.0000 0.0000 0.0000
# 4 0.0000 0.0000 0.0000 -26.0669 0.0000 0.0000
# 5 0.0000 0.0000 0.0000 0.0000 -26.0669 0.0000
# 6 0.0000 0.0000 0.0000 0.0000 0.0000 45.4223
#
#
#
# Elastic Compliance Matrix: (Units=1/GPa)
#
#
# Indices 1 2 3 4 5 6 
#
# 1 0.008229 -0.002779 -0.001754 0.000000 0.000000 0.000000
# 2 -0.002779 0.008229 -0.001754 0.000000 0.000000 0.000000
# 3 -0.001754 -0.001754 0.010975 0.000000 0.000000 0.000000
# 4 0.000000 0.000000 0.000000 -0.038363 0.000000 0.000000
# 5 0.000000 0.000000 0.000000 0.000000 -0.038363 0.000000
# 6 0.000000 0.000000 0.000000 0.000000 0.000000 0.022016
#
#
# Mechanical properties :
#
#
# Convention : Reuss Voigt Hill
#
# Bulk Modulus (GPa) = 67.29949 71.26178 69.28064
# Shear Modulus (GPa) = -512.82580 16.97205 -247.92687
#
# Velocity S-wave (km/s) = -15.07436 2.74234 -10.48131
# Velocity P-wave (km/s) = 16.52758 6.45010 10.76005
#
# Compressibility (1/GPa) = 0.01485895
#
# Stress axis : x y z
#
# Youngs Moduli (GPa) = 121.52097 121.52097 91.11653
#
# Poissons Ratio (x) = 0.33768 0.15983
# Poissons Ratio (y) = 0.33768 0.15983
# Poissons Ratio (z) = 0.21316 0.21316
#
# Static dielectric constant tensor:
#      x y z
#    x 4.927820 0.000000 0.000000 
#    y 0.000000 4.927820 0.000000 
#    z 0.000000 0.000000 3.925870 
# 
# 
# High freq. dielectric constant tensor:
#      x y z
#    x 1.902720 0.000000 0.000000 
#    y 0.000000 1.902720 0.000000 
#    z 0.000000 0.000000 1.890380 
# 
# From -- ./inp_files/8848.got.cif
#   From: 2010.03.12/outbox.cif.g09.slc.cpg/sg181_5_cif.got.tgz:8848.got - 2010.04.01 11:42:41.
