data_PCOD8326185
_publ_section_title
;
Structure prediction by ZEFSAII (Michael W. Deem and Ramdas Pophale) SiO2 
 PCOD8326185
Probable space group: P 62 2 2
;
_chemical_formula_sum "Si O2"
_cell_formula_units_Z 42
_cell_length_a 21.959409
_cell_length_b 21.959409
_cell_length_c 5.103126
_cell_angle_alpha 90.000000
_cell_angle_beta 90.000000
_cell_angle_gamma 120.000000
_cell_volume 2131.121539
_symmetry_space_group_name_H-M "P 62 2 2"
_symmetry_group_IT_number 180
_symmetry_cell_setting 'hexagonal'
loop_
_space_group_symop_operation_xyz
x,y,z
x-y,x,1/3+z
-y,x-y,2/3+z
-x,-y,z
-x+y,-x,1/3+z
y,-x+y,2/3+z
x-y,-y,-z
-x,-x+y,1/3-z
y,x,2/3-z
-y,-x,2/3-z
-x+y,y,-z
x,x-y,1/3-z
loop_
_atom_site_type_symbol
_atom_site_label
_atom_site_fract_x
_atom_site_fract_y
_atom_site_fract_z
Si Si1 0.613074 0.468284 0.592207
Si Si2 0.954049 0.323409 0.923634
Si Si3 0.234091 0.047541 0.251569
Si Si4 0.705017 0.294984 0.833334
O O1 0.568775 0.431226 0.333334
O O2 0.655842 0.550992 0.549615
O O3 0.678051 0.454864 0.661772
O O4 0.558395 0.441606 0.833334
O O5 0.922841 0.239849 0.982069
O O6 0.000000 0.343942 0.666667
O O7 0.000000 0.368444 0.166667
O O8 0.220188 0.110094 0.166667
O O9 0.186860 0.000000 0.500000
O O10 0.214539 0.000000 0.000000
O O11 0.725829 0.362915 0.666667
#
# Coordination Sequence:
#
# PCOD8326185 Si02
#       4
#    12  12  12   6
#     4  11  23  36  58  82 107 157 192 246 310 349
#     4  10  22  39  57  86 120 151 195 243 291 355
#     4  10  21  39  64  92 124 160 198 241 288 344
#     4  10  20  38  54  76 113 138 202 246 289 346
#
# _framework density 19.707932
#
# number of rings (size 3 to 8) (size 9 to 14) (size 15 to 20)
#    0.000    1.714    1.429    2.571    2.000    3.429 
#    0.000    0.000    0.000    4.286    0.000    0.000 
#    0.000    0.000    0.000    0.000    0.000    0.000 
#
# Total GULP energy -520329.503060 kJ/mol
# GULP energy per Si atom -12388.797692 kJ/mol
# Density = 1.966308 g / cm^3
# Si number density = 19.707932 Si / 1000 Ang^3
#
#
#
# Elastic Constant Matrix: (Units=GPa)
#
#
# Indices 1 2 3 4 5 6 
#
# 1 147.5224 33.3436 30.8436 0.0000 0.0000 0.0000
# 2 33.3436 147.5224 30.8436 0.0000 0.0000 0.0000
# 3 30.8436 30.8436 124.2022 0.0000 0.0000 0.0000
# 4 0.0000 0.0000 0.0000 27.4484 0.0000 0.0000
# 5 0.0000 0.0000 0.0000 0.0000 27.4484 0.0000
# 6 0.0000 0.0000 0.0000 0.0000 0.0000 57.0894
#
#
#
# Elastic Compliance Matrix: (Units=1/GPa)
#
#
# Indices 1 2 3 4 5 6 
#
# 1 0.007399 -0.001359 -0.001500 0.000000 0.000000 0.000000
# 2 -0.001359 0.007399 -0.001500 0.000000 0.000000 0.000000
# 3 -0.001500 -0.001500 0.008796 0.000000 0.000000 0.000000
# 4 0.000000 0.000000 0.000000 0.036432 0.000000 0.000000
# 5 0.000000 0.000000 0.000000 0.000000 0.036432 0.000000
# 6 0.000000 0.000000 0.000000 0.000000 0.000000 0.017516
#
#
# Mechanical properties :
#
#
# Convention : Reuss Voigt Hill
#
# Bulk Modulus (GPa) = 67.21664 67.70096 67.45880
# Shear Modulus (GPa) = 39.16879 44.01164 41.59022
#
# Velocity S-wave (km/s) = 4.46293 4.73080 4.59882
# Velocity P-wave (km/s) = 7.79343 8.01669 7.90584
#
# Compressibility (1/GPa) = 0.01487727
#
# Stress axis : x y z
#
# Youngs Moduli (GPa) = 135.14629 135.14629 113.68249
#
# Poissons Ratio (x) = 0.18364 0.17053
# Poissons Ratio (y) = 0.18364 0.17053
# Poissons Ratio (z) = 0.20273 0.20273
#
# Static dielectric constant tensor:
#      x y z
#    x 3.453110 0.000000 0.000000 
#    y 0.000000 3.453110 0.000000 
#    z 0.000000 0.000000 3.666820 
# 
# 
# High freq. dielectric constant tensor:
#      x y z
#    x 1.764240 0.000000 0.000000 
#    y 0.000000 1.764240 0.000000 
#    z 0.000000 0.000000 1.780500 
# 
# From -- ./inp_files/832.got.cif
#   From: 2010.03.12/outbox.cif.g09.slc.cpg/sg180_1_cif.got.tgz:832.got - 2010.04.01 11:35:50.
