data_PCOD8326046
_publ_section_title
;
Structure prediction by ZEFSAII (Michael W. Deem and Ramdas Pophale) SiO2 
 PCOD8326046
Probable space group: P 65 2 2
;
_chemical_formula_sum "Si O2"
_cell_formula_units_Z 84
_cell_length_a 14.453273
_cell_length_b 14.453273
_cell_length_c 23.581337
_cell_angle_alpha 90.000000
_cell_angle_beta 90.000000
_cell_angle_gamma 120.000000
_cell_volume 4266.104292
_symmetry_space_group_name_H-M "P 65 2 2"
_symmetry_group_IT_number 179
_symmetry_cell_setting 'hexagonal'
loop_
_space_group_symop_operation_xyz
x,y,z
x-y,x,5/6+z
-y,x-y,2/3+z
-x,-y,1/2+z
-x+y,-x,1/3+z
y,-x+y,1/6+z
x-y,-y,-z
-x,-x+y,1/3-z
y,x,2/3-z
-y,-x,1/6-z
-x+y,y,1/2-z
x,x-y,5/6-z
loop_
_atom_site_type_symbol
_atom_site_label
_atom_site_fract_x
_atom_site_fract_y
_atom_site_fract_z
Si Si1 0.731834 0.630661 0.144324
Si Si2 0.905705 0.151896 0.850253
Si Si3 0.726178 0.541797 0.022413
Si Si4 0.492183 0.681940 0.367840
Si Si5 0.894490 0.967096 0.782809
Si Si6 0.404186 0.801806 0.914030
Si Si7 0.508028 0.038523 0.877501
O O1 0.785948 0.756631 0.153221
O O2 0.719380 0.599146 0.078789
O O3 0.805728 0.596858 0.180337
O O4 0.610464 0.576714 0.166050
O O5 0.828430 0.201202 0.846281
O O6 0.888311 0.093964 0.910710
O O7 0.882294 0.067323 0.800758
O O8 0.742459 0.443013 0.040046
O O9 0.624665 0.507510 0.981798
O O10 0.434579 0.717290 0.416667
O O11 0.424964 0.628284 0.312488
O O12 0.515700 0.594960 0.396520
O O13 0.892155 0.892155 0.833334
O O14 0.007097 0.014193 0.750000
O O15 0.462460 0.731230 0.916667
O O16 0.486585 0.919518 0.890332
#
# Coordination Sequence:
#
# PCOD8326046 Si02
#       7
#    12  12  12  12  12  12  12
#     4  10  20  38  63  92 120 156 202 258 316 375
#     4  11  19  37  60  90 118 157 211 246 313 373
#     4  11  22  40  64  88 125 164 207 263 305 381
#     4   9  20  38  62  88 121 156 200 259 325 368
#     4   9  20  36  56  84 124 158 192 254 308 371
#     4  11  22  41  62  88 128 167 207 260 315 374
#     4  11  22  40  61  93 126 162 209 256 319 380
#
# _framework density 19.690096
#
# number of rings (size 3 to 8) (size 9 to 14) (size 15 to 20)
#    0.000    1.714    2.857    3.429    0.000    1.714 
#    2.571    5.000    0.000    0.000    0.000    0.000 
#    0.000    0.000    0.000    0.000    0.000    0.000 
#
# Total GULP energy -1040938.441593 kJ/mol
# GULP energy per Si atom -12392.124305 kJ/mol
# Density = 1.964528 g / cm^3
# Si number density = 19.690096 Si / 1000 Ang^3
#
#
#
# Elastic Constant Matrix: (Units=GPa)
#
#
# Indices 1 2 3 4 5 6 
#
# 1 92.4350 35.0733 40.6489 0.0000 0.0000 0.0000
# 2 35.0733 92.4350 40.6489 0.0000 0.0000 0.0000
# 3 40.6489 40.6489 102.3529 0.0000 0.0000 0.0000
# 4 0.0000 0.0000 0.0000 19.3051 0.0000 0.0000
# 5 0.0000 0.0000 0.0000 0.0000 19.3051 0.0000
# 6 0.0000 0.0000 0.0000 0.0000 0.0000 28.6809
#
#
#
# Elastic Compliance Matrix: (Units=1/GPa)
#
#
# Indices 1 2 3 4 5 6 
#
# 1 0.013968 -0.003466 -0.004171 0.000000 0.000000 0.000000
# 2 -0.003466 0.013968 -0.004171 0.000000 0.000000 0.000000
# 3 -0.004171 -0.004171 0.013083 0.000000 0.000000 0.000000
# 4 0.000000 0.000000 0.000000 0.051800 0.000000 0.000000
# 5 0.000000 0.000000 0.000000 0.000000 0.051800 0.000000
# 6 0.000000 0.000000 0.000000 0.000000 0.000000 0.034866
#
#
# Mechanical properties :
#
#
# Convention : Reuss Voigt Hill
#
# Bulk Modulus (GPa) = 57.45941 57.77391 57.61666
# Shear Modulus (GPa) = 23.93495 24.84834 24.39165
#
# Velocity S-wave (km/s) = 3.49030 3.55628 3.52345
# Velocity P-wave (km/s) = 6.74449 6.80207 6.77334
#
# Compressibility (1/GPa) = 0.01740359
#
# Stress axis : x y z
#
# Youngs Moduli (GPa) = 71.59458 71.59458 76.43564
#
# Poissons Ratio (x) = 0.24812 0.31879
# Poissons Ratio (y) = 0.24812 0.31879
# Poissons Ratio (z) = 0.29860 0.29860
#
# Static dielectric constant tensor:
#      x y z
#    x 3.454580 0.000000 0.000000 
#    y 0.000000 3.454580 0.000000 
#    z 0.000000 0.000000 3.822760 
# 
# 
# High freq. dielectric constant tensor:
#      x y z
#    x 1.752040 0.000000 0.000000 
#    y 0.000000 1.752040 0.000000 
#    z 0.000000 0.000000 1.782360 
# 
# From -- ./inp_files/8366.got.cif
#   From: 2010.03.12/outbox.cif.g09.slc.cpg/sg179_5_cif.got.tgz:8366.got - 2010.04.02 07:08:42.
