data_PCOD8326792
_publ_section_title
;
Structure prediction by ZEFSAII (Michael W. Deem and Ramdas Pophale) SiO2 
 PCOD8326792
Probable space group: P 63 M C
;
_chemical_formula_sum "Si O2"
_cell_formula_units_Z 96
_cell_length_a 17.423058
_cell_length_b 17.423058
_cell_length_c 20.221729
_cell_angle_alpha 90.000000
_cell_angle_beta 90.000000
_cell_angle_gamma 120.000000
_cell_volume 5316.155580
_symmetry_space_group_name_H-M "P 63 M C"
_symmetry_group_IT_number 186
_symmetry_cell_setting 'hexagonal'
loop_
_space_group_symop_operation_xyz
x,y,z
x-y,x,1/2+z
-y,x-y,z
-x,-y,1/2+z
-x+y,-x,z
y,-x+y,1/2+z
-x+y,y,z
x,x-y,z
-y,-x,z
y,x,1/2+z
x-y,-y,1/2+z
-x,-x+y,1/2+z
loop_
_atom_site_type_symbol
_atom_site_label
_atom_site_fract_x
_atom_site_fract_y
_atom_site_fract_z
Si Si1 0.568749 0.965194 0.883550
Si Si2 0.313822 0.312600 0.203848
Si Si3 0.828734 0.000433 0.950825
Si Si4 0.488212 0.334668 0.257727
Si Si5 0.316869 0.245291 0.839065
Si Si6 0.845404 0.333707 0.651300
Si Si7 0.156187 0.666724 0.999230
Si Si8 0.821176 0.820626 0.100584
O O1 0.499692 0.999384 0.889445
O O2 0.537797 0.885686 0.831218
O O3 0.578256 0.926031 0.953665
O O4 0.658287 0.053052 0.861332
O O5 0.407294 0.315077 0.208636
O O6 0.254386 0.274820 0.270284
O O7 0.333079 0.412286 0.195444
O O8 0.260055 0.250779 0.143409
O O9 0.807053 0.903527 0.930529
O O10 0.783406 0.029377 0.896540
O O11 0.793135 0.000666 0.024511
O O12 0.934395 0.065606 0.950649
O O13 0.505543 0.252772 0.256977
O O14 0.577466 0.422535 0.233785
O O15 0.352687 0.176344 0.831923
O O16 0.838703 0.419352 0.670005
O O17 0.751595 0.248406 0.667512
O O18 0.871418 0.334639 0.574894
O O19 0.180052 0.590026 0.985046
O O20 0.240867 0.759134 0.980210
O O21 0.820405 0.910202 0.118045
O O22 0.918355 0.836709 0.116520
#
# Coordination Sequence:
#
# PCOD8326792 Si02
#       8
#    12  12  12  12  12  12  12  12
#     4   9  19  33  51  77 106 136 171 216 269 320
#     4  11  22  36  53  78 109 142 178 224 269 320
#     4   9  19  34  54  77 103 135 172 213 258 311
#     4  10  20  35  55  79 108 143 180 218 262 317
#     4  10  21  36  52  73 103 139 177 216 261 310
#     4  10  20  34  53  77 107 142 180 221 270 326
#     4   9  17  29  48  76 109 139 168 206 260 324
#     4  10  20  35  54  77 105 138 178 222 271 322
#
# _framework density 18.058161999999999
#
# number of rings (size 3 to 8) (size 9 to 14) (size 15 to 20)
#    0.000    2.250    0.000    2.875    1.750    5.500 
#    0.000    1.250    0.000    1.750    0.000    0.000 
#    0.000    0.000    0.000    0.000    0.000    0.000 
#
# Total GULP energy -1190343.409314 kJ/mol
# GULP energy per Si atom -12399.410514 kJ/mol
# Density = 1.801706 g / cm^3
# Si number density = 18.058162 Si / 1000 Ang^3
#
#
#
# Elastic Constant Matrix: (Units=GPa)
#
#
# Indices 1 2 3 4 5 6 
#
# 1 102.7126 45.8505 37.3175 0.0000 0.0000 0.0000
# 2 45.8505 102.7126 37.3175 0.0000 0.0000 0.0000
# 3 37.3175 37.3175 71.6845 0.0000 0.0000 0.0000
# 4 0.0000 0.0000 0.0000 25.3935 0.0000 0.0000
# 5 0.0000 0.0000 0.0000 0.0000 25.3935 0.0000
# 6 0.0000 0.0000 0.0000 0.0000 0.0000 28.4310
#
#
#
# Elastic Compliance Matrix: (Units=1/GPa)
#
#
# Indices 1 2 3 4 5 6 
#
# 1 0.013351 -0.004236 -0.004745 0.000000 0.000000 0.000000
# 2 -0.004236 0.013351 -0.004745 0.000000 0.000000 0.000000
# 3 -0.004745 -0.004745 0.018890 0.000000 0.000000 0.000000
# 4 0.000000 0.000000 0.000000 0.039380 0.000000 0.000000
# 5 0.000000 0.000000 0.000000 0.000000 0.039380 0.000000
# 6 0.000000 0.000000 0.000000 0.000000 0.000000 0.035173
#
#
# Mechanical properties :
#
#
# Convention : Reuss Voigt Hill
#
# Bulk Modulus (GPa) = 55.12665 57.56454 56.34559
# Shear Modulus (GPa) = 25.90358 26.28519 26.09438
#
# Velocity S-wave (km/s) = 3.79153 3.81935 3.80546
# Velocity P-wave (km/s) = 7.05415 7.16913 7.11187
#
# Compressibility (1/GPa) = 0.01814005
#
# Stress axis : x y z
#
# Youngs Moduli (GPa) = 74.90242 74.90242 52.93694
#
# Poissons Ratio (x) = 0.31727 0.25119
# Poissons Ratio (y) = 0.31727 0.25119
# Poissons Ratio (z) = 0.35542 0.35542
#
# Static dielectric constant tensor:
#      x y z
#    x 3.369870 0.000000 0.000000 
#    y 0.000000 3.369870 0.000000 
#    z 0.000000 0.000000 3.416130 
# 
# 
# High freq. dielectric constant tensor:
#      x y z
#    x 1.696500 0.000000 0.000000 
#    y 0.000000 1.696500 0.000000 
#    z 0.000000 0.000000 1.701420 
# 
# From -- ./inp_files/3605.got.cif
#   From: 2010.03.12/outbox.cif.g09.slc.cpg/sg186_2_cif.got.tgz:3605.got - 2010.04.01 11:56:34.
