data_PCOD8326795
_publ_section_title
;
Structure prediction by ZEFSAII (Michael W. Deem and Ramdas Pophale) SiO2 
 PCOD8326795
Probable space group: P 63 M C
;
_chemical_formula_sum "Si O2"
_cell_formula_units_Z 96
_cell_length_a 17.153298
_cell_length_b 17.153298
_cell_length_c 19.950467
_cell_angle_alpha 90.000000
_cell_angle_beta 90.000000
_cell_angle_gamma 120.000000
_cell_volume 5083.688867
_symmetry_space_group_name_H-M "P 63 M C"
_symmetry_group_IT_number 186
_symmetry_cell_setting 'hexagonal'
loop_
_space_group_symop_operation_xyz
x,y,z
x-y,x,1/2+z
-y,x-y,z
-x,-y,1/2+z
-x+y,-x,z
y,-x+y,1/2+z
-x+y,y,z
x,x-y,z
-y,-x,z
y,x,1/2+z
x-y,-y,1/2+z
-x,-x+y,1/2+z
loop_
_atom_site_type_symbol
_atom_site_label
_atom_site_fract_x
_atom_site_fract_y
_atom_site_fract_z
Si Si1 0.666285 0.507754 0.559130
Si Si2 0.235867 0.942517 0.402038
Si Si3 0.755434 0.067530 0.157080
Si Si4 0.582096 0.594360 0.323035
Si Si5 0.703496 0.942140 0.030576
Si Si6 0.156933 0.490629 0.212934
Si Si7 0.001008 0.178000 0.273375
Si Si8 0.152599 0.486271 0.734423
O O1 0.734546 0.469092 0.553792
O O2 0.568716 0.431285 0.533228
O O3 0.701238 0.596884 0.514124
O O4 0.662931 0.534858 0.636012
O O5 0.163967 0.836034 0.407288
O O6 0.333857 0.957762 0.382931
O O7 0.240023 0.988668 0.472579
O O8 0.204652 0.990360 0.348320
O O9 0.853232 0.146769 0.134798
O O10 0.761962 0.023137 0.226207
O O11 0.689895 0.108196 0.171549
O O12 0.719872 0.993777 0.099934
O O13 0.484881 0.515119 0.347890
O O14 0.572582 0.642886 0.256891
O O15 0.644468 0.552593 0.301484
O O16 0.732461 0.866231 0.037379
O O17 0.235596 0.471193 0.234430
O O18 0.191488 0.595744 0.224823
O O19 0.925921 0.074080 0.272737
O O20 0.093222 0.186444 0.247247
O O21 0.249883 0.499765 0.752553
O O22 0.161329 0.580665 0.712612
#
# Coordination Sequence:
#
# PCOD8326795 Si02
#       8
#    12  12  12  12  12  12  12  12
#     4   9  18  31  51  78 110 145 181 226 279 338
#     4  11  23  38  57  81 112 150 189 234 285 341
#     4  10  20  36  58  83 111 145 183 232 283 329
#     4  10  20  34  54  81 111 146 189 237 282 333
#     4  11  23  37  55  80 111 148 189 230 280 338
#     4   9  16  28  49  80 115 146 179 222 281 343
#     4  10  20  35  57  82 109 141 180 227 281 340
#     4  10  20  35  57  85 117 151 188 232 281 332
#
# _framework density 18.883925000000001
#
# number of rings (size 3 to 8) (size 9 to 14) (size 15 to 20)
#    0.000    2.000    1.250    2.750    0.000    3.500 
#    0.000    0.000    0.000    3.750    0.000    4.375 
#    0.000    0.000    0.000    0.000    0.000    0.000 
#
# Total GULP energy -1190491.599637 kJ/mol
# GULP energy per Si atom -12400.954163 kJ/mol
# Density = 1.884094 g / cm^3
# Si number density = 18.883925 Si / 1000 Ang^3
#
#
#
# Elastic Constant Matrix: (Units=GPa)
#
#
# Indices 1 2 3 4 5 6 
#
# 1 115.8929 56.4512 34.2118 0.0000 0.0000 0.0000
# 2 56.4512 115.8929 34.2118 0.0000 0.0000 0.0000
# 3 34.2118 34.2118 62.1490 0.0000 0.0000 0.0000
# 4 0.0000 0.0000 0.0000 24.5321 0.0000 0.0000
# 5 0.0000 0.0000 0.0000 0.0000 24.5321 0.0000
# 6 0.0000 0.0000 0.0000 0.0000 0.0000 29.7208
#
#
#
# Elastic Compliance Matrix: (Units=1/GPa)
#
#
# Indices 1 2 3 4 5 6 
#
# 1 0.012124 -0.004699 -0.004087 0.000000 0.000000 0.000000
# 2 -0.004699 0.012124 -0.004087 0.000000 0.000000 0.000000
# 3 -0.004087 -0.004087 0.020590 0.000000 0.000000 0.000000
# 4 0.000000 0.000000 0.000000 0.040763 0.000000 0.000000
# 5 0.000000 0.000000 0.000000 0.000000 0.040763 0.000000
# 6 0.000000 0.000000 0.000000 0.000000 0.000000 0.033646
#
#
# Mechanical properties :
#
#
# Convention : Reuss Voigt Hill
#
# Bulk Modulus (GPa) = 52.38042 60.40941 56.39491
# Shear Modulus (GPa) = 26.02507 27.02765 26.52636
#
# Velocity S-wave (km/s) = 3.71639 3.78729 3.75201
# Velocity P-wave (km/s) = 6.79806 7.15431 6.97846
#
# Compressibility (1/GPa) = 0.01909110
#
# Stress axis : x y z
#
# Youngs Moduli (GPa) = 82.47995 82.47995 48.56633
#
# Poissons Ratio (x) = 0.38758 0.19851
# Poissons Ratio (y) = 0.38758 0.19851
# Poissons Ratio (z) = 0.33713 0.33713
#
# Static dielectric constant tensor:
#      x y z
#    x 3.553900 0.000000 0.000000 
#    y 0.000000 3.553900 0.000000 
#    z 0.000000 0.000000 3.118540 
# 
# 
# High freq. dielectric constant tensor:
#      x y z
#    x 1.743770 0.000000 0.000000 
#    y 0.000000 1.743770 0.000000 
#    z 0.000000 0.000000 1.700190 
# 
# From -- ./inp_files/3543.got.cif
#   From: 2010.03.12/outbox.cif.g09.slc.cpg/sg186_2_cif.got.tgz:3543.got - 2010.04.01 11:56:34.
