data_PCOD8326974
_publ_section_title
;
Structure prediction by ZEFSAII (Michael W. Deem and Ramdas Pophale) SiO2 
 PCOD8326974
Probable space group: P -6 M 2
;
_chemical_formula_sum "Si O2"
_cell_formula_units_Z 84
_cell_length_a 17.540391
_cell_length_b 17.540391
_cell_length_c 15.530683
_cell_angle_alpha 90.000000
_cell_angle_beta 90.000000
_cell_angle_gamma 120.000000
_cell_volume 4138.088050
_symmetry_space_group_name_H-M "P -6 M 2"
_symmetry_group_IT_number 187
_symmetry_cell_setting 'hexagonal'
loop_
_space_group_symop_operation_xyz
x,y,z
-x+y,-x,-z
-y,x-y,z
x,y,-z
-x+y,-x,z
-y,x-y,-z
-y,-x,-z
-x+y,y,-z
x,x-y,-z
-x+y,y,z
x,x-y,z
-y,-x,z
loop_
_atom_site_type_symbol
_atom_site_label
_atom_site_fract_x
_atom_site_fract_y
_atom_site_fract_z
Si Si1 0.841580 0.331900 0.760023
Si Si2 0.172023 0.171787 0.819178
Si Si3 0.380825 0.103112 0.405049
Si Si4 0.067635 0.761632 0.662977
Si Si5 0.335079 0.834829 0.724306
Si Si6 0.139131 0.446043 0.093716
Si Si7 0.709027 0.055685 0.903851
O O1 0.855182 0.427591 0.781574
O O2 0.737976 0.262025 0.750644
O O3 0.890634 0.338120 0.669662
O O4 0.879758 0.298841 0.836222
O O5 0.085517 0.171033 0.856816
O O6 0.207982 0.234780 0.737385
O O7 0.250815 0.206398 0.888118
O O8 0.145568 0.072784 0.792239
O O9 0.424588 0.116033 0.500000
O O10 0.353799 0.176900 0.387386
O O11 0.291230 0.008438 0.406397
O O12 0.153132 0.846869 0.622107
O O13 0.093366 0.691933 0.700546
O O14 0.428495 0.856989 0.682063
O O15 0.260988 0.739013 0.691496
O O16 0.347553 0.833703 0.827764
O O17 0.199836 0.399671 0.099977
O O18 0.038504 0.375732 0.104717
O O19 0.154408 0.493261 0.000000
O O20 0.717296 0.094626 0.000000
#
# Coordination Sequence:
#
# PCOD8326974 Si02
#       7
#    12  12  12  12  12  12  12
#     4  11  24  43  64  87 117 154 196 244 299 361
#     4  11  21  36  57  84 118 157 201 248 297 354
#     4  10  21  39  64  93 123 154 189 236 297 359
#     4  10  20  35  57  85 119 158 198 239 290 350
#     4  10  19  32  50  75 106 145 191 241 293 345
#     4   9  17  30  48  72 104 142 184 233 289 343
#     4  11  22  37  60  85 115 155 198 244 295 350
#
# _framework density 20.299229
#
# number of rings (size 3 to 8) (size 9 to 14) (size 15 to 20)
#    0.000    1.714    2.857    1.714    0.000    5.429 
#    0.000    1.429    0.000    3.714    0.000    0.000 
#    0.000    1.143    0.000    0.000    0.000    0.000 
#
# Total GULP energy -1040956.236509 kJ/mol
# GULP energy per Si atom -12392.336149 kJ/mol
# Density = 2.025303 g / cm^3
# Si number density = 20.299229 Si / 1000 Ang^3
#
#
#
# Elastic Constant Matrix: (Units=GPa)
#
#
# Indices 1 2 3 4 5 6 
#
# 1 107.9519 49.8325 32.4243 0.0000 -0.0001 0.0000
# 2 49.8325 107.9519 32.4243 0.0000 0.0001 0.0000
# 3 32.4243 32.4243 92.5723 0.0000 0.0000 0.0000
# 4 0.0000 0.0000 0.0000 13.2820 0.0000 0.0001
# 5 -0.0001 0.0001 0.0000 0.0000 13.2820 0.0000
# 6 0.0000 0.0000 0.0000 0.0001 0.0000 29.0597
#
#
#
# Elastic Compliance Matrix: (Units=1/GPa)
#
#
# Indices 1 2 3 4 5 6 
#
# 1 0.012305 -0.004901 -0.002593 0.000000 0.000000 0.000000
# 2 -0.004901 0.012305 -0.002593 0.000000 0.000000 0.000000
# 3 -0.002593 -0.002593 0.012619 0.000000 0.000000 0.000000
# 4 0.000000 0.000000 0.000000 0.075290 0.000000 0.000000
# 5 0.000000 0.000000 0.000000 0.000000 0.075290 0.000000
# 6 0.000000 0.000000 0.000000 0.000000 0.000000 0.034412
#
#
# Mechanical properties :
#
#
# Convention : Reuss Voigt Hill
#
# Bulk Modulus (GPa) = 58.63945 59.75982 59.19964
# Shear Modulus (GPa) = 20.15478 24.04439 22.09959
#
# Velocity S-wave (km/s) = 3.15442 3.44539 3.30311
# Velocity P-wave (km/s) = 6.49749 6.73283 6.61621
#
# Compressibility (1/GPa) = 0.01705337
#
# Stress axis : x y z
#
# Youngs Moduli (GPa) = 81.26946 81.26946 79.24609
#
# Poissons Ratio (x) = 0.39832 0.20550
# Poissons Ratio (y) = 0.39832 0.20550
# Poissons Ratio (z) = 0.21074 0.21074
#
# Static dielectric constant tensor:
#      x y z
#    x 3.675200 0.000000 0.000000 
#    y 0.000000 3.675200 0.000000 
#    z 0.000000 0.000000 3.578000 
# 
# 
# High freq. dielectric constant tensor:
#      x y z
#    x 1.791750 0.000000 0.000000 
#    y 0.000000 1.791750 0.000000 
#    z 0.000000 0.000000 1.769750 
# 
# From -- ./inp_files/2582.got.cif
#   From: 2010.03.12/outbox.cif.g09.slc.cpg/sg187_2_cif.got.tgz:2582.got - 2010.04.01 11:58:23.
