data_PCOD8326784
_publ_section_title
;
Structure prediction by ZEFSAII (Michael W. Deem and Ramdas Pophale) SiO2 
 PCOD8326784
Probable space group: P 63 M C
;
_chemical_formula_sum "Si O2"
_cell_formula_units_Z 60
_cell_length_a 12.657264
_cell_length_b 12.657264
_cell_length_c 26.138893
_cell_angle_alpha 90.000000
_cell_angle_beta 90.000000
_cell_angle_gamma 120.000000
_cell_volume 3626.581984
_symmetry_space_group_name_H-M "P 63 M C"
_symmetry_group_IT_number 186
_symmetry_cell_setting 'hexagonal'
loop_
_space_group_symop_operation_xyz
x,y,z
x-y,x,1/2+z
-y,x-y,z
-x,-y,1/2+z
-x+y,-x,z
y,-x+y,1/2+z
-x+y,y,z
x,x-y,z
-y,-x,z
y,x,1/2+z
x-y,-y,1/2+z
-x,-x+y,1/2+z
loop_
_atom_site_type_symbol
_atom_site_label
_atom_site_fract_x
_atom_site_fract_y
_atom_site_fract_z
Si Si1 0.581734 0.667720 0.000000
Si Si2 0.335305 0.420210 0.813255
Si Si3 0.336149 0.420711 0.591505
Si Si4 0.571134 0.664712 0.702373
Si Si5 0.752543 0.753618 0.905078
O O1 0.554098 0.777049 0.004035
O O2 0.455057 0.544944 0.993649
O O3 0.663640 0.680756 0.951396
O O4 0.653875 0.668271 0.050789
O O5 0.224180 0.448360 0.813448
O O6 0.456735 0.543266 0.829928
O O7 0.351453 0.374710 0.756359
O O8 0.310726 0.313424 0.852337
O O9 0.205721 0.411442 0.586385
O O10 0.439723 0.560278 0.580805
O O11 0.356866 0.378358 0.648456
O O12 0.601909 0.800954 0.699402
O O13 0.425560 0.574441 0.704436
O O14 0.872537 0.745073 0.910855
O O15 0.788904 0.894452 0.905596
#
# Coordination Sequence:
#
# PCOD8326784 Si02
#       5
#    12  12  12  12  12
#     4  10  20  33  49  68  90 116 147 185 227 270
#     4   9  16  27  46  71  96 120 148 185 226 264
#     4   9  16  27  45  69  96 123 151 184 222 264
#     4   8  13  22  39  65  94 121 149 182 220 258
#     4  10  20  33  48  65  86 114 147 182 221 266
#
# _framework density 16.544502999999999
#
# number of rings (size 3 to 8) (size 9 to 14) (size 15 to 20)
#    0.000    2.800    0.000    2.200    0.000    3.200 
#    0.000    3.000    0.000    4.800    0.000    0.000 
#    0.000    0.000    0.000    0.000    0.000    0.000 
#
# Total GULP energy -743326.725306 kJ/mol
# GULP energy per Si atom -12388.778755 kJ/mol
# Density = 1.650685 g / cm^3
# Si number density = 16.544503 Si / 1000 Ang^3
#
#
#
# Elastic Constant Matrix: (Units=GPa)
#
#
# Indices 1 2 3 4 5 6 
#
# 1 73.2101 41.5839 55.7222 0.0000 0.0000 0.0000
# 2 41.5839 73.2101 55.7222 0.0000 0.0000 0.0000
# 3 55.7222 55.7222 158.8496 0.0000 0.0000 0.0000
# 4 0.0000 0.0000 0.0000 22.9156 0.0000 0.0000
# 5 0.0000 0.0000 0.0000 0.0000 22.9156 0.0000
# 6 0.0000 0.0000 0.0000 0.0000 0.0000 15.8131
#
#
#
# Elastic Compliance Matrix: (Units=1/GPa)
#
#
# Indices 1 2 3 4 5 6 
#
# 1 0.022415 -0.009205 -0.004634 0.000000 0.000000 0.000000
# 2 -0.009205 0.022415 -0.004634 0.000000 0.000000 0.000000
# 3 -0.004634 -0.004634 0.009546 0.000000 0.000000 0.000000
# 4 0.000000 0.000000 0.000000 0.043638 0.000000 0.000000
# 5 0.000000 0.000000 0.000000 0.000000 0.043638 0.000000
# 6 0.000000 0.000000 0.000000 0.000000 0.000000 0.063239
#
#
# Mechanical properties :
#
#
# Convention : Reuss Voigt Hill
#
# Bulk Modulus (GPa) = 57.37025 67.92517 62.64771
# Shear Modulus (GPa) = 20.19012 22.47830 21.33421
#
# Velocity S-wave (km/s) = 3.49714 3.69000 3.59486
# Velocity P-wave (km/s) = 7.14551 7.70064 7.42826
#
# Compressibility (1/GPa) = 0.01743064
#
# Stress axis : x y z
#
# Youngs Moduli (GPa) = 44.61375 44.61375 104.75339
#
# Poissons Ratio (x) = 0.41066 0.48541
# Poissons Ratio (y) = 0.41066 0.48541
# Poissons Ratio (z) = 0.20673 0.20673
#
# Static dielectric constant tensor:
#      x y z
#    x 2.841730 0.000000 0.000000 
#    y 0.000000 2.841730 0.000000 
#    z 0.000000 0.000000 3.757960 
# 
# 
# High freq. dielectric constant tensor:
#      x y z
#    x 1.609460 0.000000 0.000000 
#    y 0.000000 1.609460 0.000000 
#    z 0.000000 0.000000 1.667320 
# 
# From -- ./inp_files/3965.got.cif
#   From: 2010.03.12/outbox.cif.g09.slc.cpg/sg186_2_cif.got.tgz:3965.got - 2010.04.01 11:56:34.
