data_PCOD8326123
_publ_section_title
;
Structure prediction by ZEFSAII (Michael W. Deem and Ramdas Pophale) SiO2 
 PCOD8326123
Probable space group: P 62 2 2
;
_chemical_formula_sum "Si O2"
_cell_formula_units_Z 48
_cell_length_a 11.153330
_cell_length_b 11.153330
_cell_length_c 24.832403
_cell_angle_alpha 90.000000
_cell_angle_beta 90.000000
_cell_angle_gamma 120.000000
_cell_volume 2675.213723
_symmetry_space_group_name_H-M "P 62 2 2"
_symmetry_group_IT_number 180
_symmetry_cell_setting 'hexagonal'
loop_
_space_group_symop_operation_xyz
x,y,z
x-y,x,1/3+z
-y,x-y,2/3+z
-x,-y,z
-x+y,-x,1/3+z
y,-x+y,2/3+z
x-y,-y,-z
-x,-x+y,1/3-z
y,x,2/3-z
-y,-x,2/3-z
-x+y,y,-z
x,x-y,1/3-z
loop_
_atom_site_type_symbol
_atom_site_label
_atom_site_fract_x
_atom_site_fract_y
_atom_site_fract_z
Si Si1 0.797328 0.594655 0.000000
Si Si2 0.000000 0.500000 0.477165
Si Si3 0.067882 0.663853 0.042985
Si Si4 0.247349 0.537391 0.792070
Si Si5 0.652395 0.446976 0.608150
O O1 0.681950 0.499034 0.043746
O O2 0.941873 0.693149 0.031438
O O3 0.097576 0.634430 0.513195
O O4 0.099126 0.467096 0.439989
O O5 0.149862 0.733965 0.098029
O O6 0.000000 0.500000 0.048169
O O7 0.175425 0.720462 0.992963
O O8 0.373254 0.626747 0.833334
O O9 0.248647 0.638542 0.745069
#
# Coordination Sequence:
#
# PCOD8326123 Si02
#       5
#     6   6  12  12  12
#     4  10  16  28  54  71 101 136 174 208 256 328
#     4  10  20  32  45  72 111 132 164 216 284 314
#     4  10  17  30  50  73 104 138 176 208 265 331
#     4  10  20  31  48  76 109 136 171 223 271 326
#     4  10  16  32  50  70 101 141 170 205 262 329
#
# _framework density 17.942492999999999
#
# number of rings (size 3 to 8) (size 9 to 14) (size 15 to 20)
#    0.000    2.000    8.750    0.000    0.000    0.500 
#    0.000    2.500    0.000    0.000    0.000    3.500 
#    7.500    0.000    0.000    0.000    0.000    0.000 
#
# Total GULP energy -594833.335451 kJ/mol
# GULP energy per Si atom -12392.361155 kJ/mol
# Density = 1.790165 g / cm^3
# Si number density = 17.942493 Si / 1000 Ang^3
#
#
#
# Elastic Constant Matrix: (Units=GPa)
#
#
# Indices 1 2 3 4 5 6 
#
# 1 69.3920 33.0743 44.0209 0.0000 0.0000 0.0000
# 2 33.0743 69.3920 44.0209 0.0000 0.0000 0.0000
# 3 44.0209 44.0209 103.0717 0.0000 0.0000 0.0000
# 4 0.0000 0.0000 0.0000 29.9636 0.0000 0.0000
# 5 0.0000 0.0000 0.0000 0.0000 29.9636 0.0000
# 6 0.0000 0.0000 0.0000 0.0000 0.0000 18.1588
#
#
#
# Elastic Compliance Matrix: (Units=1/GPa)
#
#
# Indices 1 2 3 4 5 6 
#
# 1 0.021476 -0.006059 -0.006584 0.000000 0.000000 0.000000
# 2 -0.006059 0.021476 -0.006584 0.000000 0.000000 0.000000
# 3 -0.006584 -0.006584 0.015326 0.000000 0.000000 0.000000
# 4 0.000000 0.000000 0.000000 0.033374 0.000000 0.000000
# 5 0.000000 0.000000 0.000000 0.000000 0.033374 0.000000
# 6 0.000000 0.000000 0.000000 0.000000 0.000000 0.055070
#
#
# Mechanical properties :
#
#
# Convention : Reuss Voigt Hill
#
# Bulk Modulus (GPa) = 50.44816 53.78755 52.11785
# Shear Modulus (GPa) = 22.20664 23.66651 22.93658
#
# Velocity S-wave (km/s) = 3.52185 3.63577 3.57926
# Velocity P-wave (km/s) = 6.68697 6.90420 6.79645
#
# Compressibility (1/GPa) = 0.01982233
#
# Stress axis : x y z
#
# Youngs Moduli (GPa) = 46.56410 46.56410 65.24771
#
# Poissons Ratio (x) = 0.28213 0.42961
# Poissons Ratio (y) = 0.28213 0.42961
# Poissons Ratio (z) = 0.30659 0.30659
#
# Static dielectric constant tensor:
#      x y z
#    x 3.196130 0.000000 0.000000 
#    y 0.000000 3.196130 0.000000 
#    z 0.000000 0.000000 3.652470 
# 
# 
# High freq. dielectric constant tensor:
#      x y z
#    x 1.648960 0.000000 0.000000 
#    y 0.000000 1.648960 0.000000 
#    z 0.000000 0.000000 1.714840 
# 
# From -- ./inp_files/9993.got.cif
#   From: 2010.03.12/outbox.cif.g09.slc.cpg/sg180_5_cif.got.tgz:9993.got - 2010.04.01 11:35:50.
