data_PCOD8326257
_publ_section_title
;
Structure prediction by ZEFSAII (Michael W. Deem and Ramdas Pophale) SiO2 
 PCOD8326257
Probable space group: P 62 2 2
;
_chemical_formula_sum "Si O2"
_cell_formula_units_Z 51
_cell_length_a 16.204803
_cell_length_b 16.204803
_cell_length_c 10.411650
_cell_angle_alpha 90.000000
_cell_angle_beta 90.000000
_cell_angle_gamma 120.000000
_cell_volume 2367.760131
_symmetry_space_group_name_H-M "P 62 2 2"
_symmetry_group_IT_number 180
_symmetry_cell_setting 'hexagonal'
loop_
_space_group_symop_operation_xyz
x,y,z
x-y,x,1/3+z
-y,x-y,2/3+z
-x,-y,z
-x+y,-x,1/3+z
y,-x+y,2/3+z
x-y,-y,-z
-x,-x+y,1/3-z
y,x,2/3-z
-y,-x,2/3-z
-x+y,y,-z
x,x-y,1/3-z
loop_
_atom_site_type_symbol
_atom_site_label
_atom_site_fract_x
_atom_site_fract_y
_atom_site_fract_z
Si Si1 0.757087 0.684969 0.214859
Si Si2 0.163497 0.651900 0.002259
Si Si3 0.810735 0.464346 0.783997
Si Si4 0.095530 0.790057 0.945255
Si Si5 0.000000 0.500000 0.166667
O O1 0.718663 0.718663 0.333334
O O2 0.684767 0.573730 0.197748
O O3 0.866040 0.709603 0.249622
O O4 0.752384 0.733113 0.078931
O O5 0.252662 0.708009 0.097713
O O6 0.141796 0.723081 0.920199
O O7 0.066795 0.590874 0.080976
O O8 0.191778 0.590456 0.912334
O O9 0.839440 0.419720 0.666667
O O10 0.132310 0.867691 0.833334
#
# Coordination Sequence:
#
# PCOD8326257 Si02
#       5
#    12  12  12  12   3
#     4   9  17  29  51  81 117 156 205 254 307 367
#     4  11  24  39  55  82 116 160 216 264 322 380
#     4  11  22  37  61  87 115 159 212 267 318 383
#     4   9  17  33  53  81 112 154 204 254 307 371
#     4  12  28  40  54  76 116 168 202 266 324 364
#
# _framework density 21.539342000000001
#
# number of rings (size 3 to 8) (size 9 to 14) (size 15 to 20)
#    0.000    1.882    0.000    6.353    3.294    2.353 
#    0.000    0.000    0.000    0.000    0.000    0.000 
#    0.000    0.000    0.000  880.941   18.824    0.000 
#
# Total GULP energy -631955.428268 kJ/mol
# GULP energy per Si atom -12391.282907 kJ/mol
# Density = 2.149032 g / cm^3
# Si number density = 21.539342 Si / 1000 Ang^3
#
#
#
# Elastic Constant Matrix: (Units=GPa)
#
#
# Indices 1 2 3 4 5 6 
#
# 1 130.6530 67.4851 57.5040 0.0000 0.0000 0.0000
# 2 67.4851 130.6530 57.5040 0.0000 0.0000 0.0000
# 3 57.5040 57.5040 80.6415 0.0000 0.0000 0.0000
# 4 0.0000 0.0000 0.0000 34.9524 0.0000 0.0000
# 5 0.0000 0.0000 0.0000 0.0000 34.9524 0.0000
# 6 0.0000 0.0000 0.0000 0.0000 0.0000 31.5839
#
#
#
# Elastic Compliance Matrix: (Units=1/GPa)
#
#
# Indices 1 2 3 4 5 6 
#
# 1 0.012221 -0.003610 -0.006140 0.000000 0.000000 0.000000
# 2 -0.003610 0.012221 -0.006140 0.000000 0.000000 0.000000
# 3 -0.006140 -0.006140 0.021158 0.000000 0.000000 0.000000
# 4 0.000000 0.000000 0.000000 0.028610 0.000000 0.000000
# 5 0.000000 0.000000 0.000000 0.000000 0.028610 0.000000
# 6 0.000000 0.000000 0.000000 0.000000 0.000000 0.031662
#
#
# Mechanical properties :
#
#
# Convention : Reuss Voigt Hill
#
# Bulk Modulus (GPa) = 72.36756 78.54819 75.45788
# Shear Modulus (GPa) = 29.26203 30.92805 30.09504
#
# Velocity S-wave (km/s) = 3.68983 3.79342 3.74199
# Velocity P-wave (km/s) = 7.19889 7.46547 7.33339
#
# Compressibility (1/GPa) = 0.01381835
#
# Stress axis : x y z
#
# Youngs Moduli (GPa) = 81.82629 81.82629 47.26364
#
# Poissons Ratio (x) = 0.29538 0.29022
# Poissons Ratio (y) = 0.29538 0.29022
# Poissons Ratio (z) = 0.50245 0.50245
#
# Static dielectric constant tensor:
#      x y z
#    x 4.156290 0.000000 0.000000 
#    y 0.000000 4.156290 0.000000 
#    z 0.000000 0.000000 3.813130 
# 
# 
# High freq. dielectric constant tensor:
#      x y z
#    x 1.842910 0.000000 0.000000 
#    y 0.000000 1.842910 0.000000 
#    z 0.000000 0.000000 1.825220 
# 
# From -- ./inp_files/2757.got.cif
#   From: 2010.03.12/outbox.cif.g09.slc.cpg/sg180_2_cif.got.tgz:2757.got - 2010.04.01 11:35:50.
