data_PCOD8326608
_publ_section_title
;
Structure prediction by ZEFSAII (Michael W. Deem and Ramdas Pophale) SiO2 
 PCOD8326608
Probable space group: P 6 C C
;
_chemical_formula_sum "Si O2"
_cell_formula_units_Z 72
_cell_length_a 14.640350
_cell_length_b 14.640350
_cell_length_c 17.924799
_cell_angle_alpha 90.000000
_cell_angle_beta 90.000000
_cell_angle_gamma 120.000000
_cell_volume 3327.268471
_symmetry_space_group_name_H-M "P 6 C C"
_symmetry_group_IT_number 184
_symmetry_cell_setting 'hexagonal'
loop_
_space_group_symop_operation_xyz
x,y,z
x-y,x,z
-y,x-y,z
-x,-y,z
-x+y,-x,z
y,-x+y,z
-x+y,y,1/2+z
x,x-y,1/2+z
-y,-x,1/2+z
y,x,1/2+z
x-y,-y,1/2+z
-x,-x+y,1/2+z
loop_
_atom_site_type_symbol
_atom_site_label
_atom_site_fract_x
_atom_site_fract_y
_atom_site_fract_z
Si Si1 0.252683 0.435640 0.411500
Si Si2 0.591636 0.470448 0.857622
Si Si3 0.177267 0.239338 0.309167
Si Si4 0.291208 0.886696 0.080728
Si Si5 0.566227 0.442453 0.691989
Si Si6 0.641080 0.902731 0.158440
O O1 0.350047 0.543970 0.382034
O O2 0.150379 0.451495 0.403517
O O3 0.240704 0.335276 0.366241
O O4 0.281619 0.422039 0.494771
O O5 0.500000 0.500000 0.870979
O O6 0.626607 0.477092 0.771212
O O7 0.197649 0.143113 0.322997
O O8 0.224546 0.279147 0.227216
O O9 0.351195 0.833374 0.123424
O O10 0.174700 0.841751 0.113072
O O11 0.348679 0.010182 0.099029
O O12 0.500000 0.500000 0.685745
O O13 0.481063 0.318033 0.687197
#
# Coordination Sequence:
#
# PCOD8326608 Si02
#       6
#    12  12  12  12  12  12
#     4  12  27  43  70 106 146 184 237 292 367 428
#     4  11  24  44  70 100 139 187 228 287 350 426
#     4  12  25  47  74 105 139 188 247 303 358 430
#     4  11  26  41  68 101 139 184 233 288 356 422
#     4   9  21  42  67  93 130 176 231 277 336 417
#     4  11  22  45  69  98 135 184 236 288 350 423
#
# _framework density 21.639371000000001
#
# number of rings (size 3 to 8) (size 9 to 14) (size 15 to 20)
#    0.000    1.000    3.333    2.500    9.333    0.667 
#    1.000    0.000    0.000    0.000    0.000    0.000 
#    0.000    0.000    0.000    0.000    0.000    0.000 
#
# Total GULP energy -892403.142239 kJ/mol
# GULP energy per Si atom -12394.488087 kJ/mol
# Density = 2.159012 g / cm^3
# Si number density = 21.639371 Si / 1000 Ang^3
#
#
#
# Elastic Constant Matrix: (Units=GPa)
#
#
# Indices 1 2 3 4 5 6 
#
# 1 84.1975 18.6176 48.4508 0.0000 0.0000 0.0000
# 2 18.6176 84.1975 48.4508 0.0000 0.0000 0.0000
# 3 48.4508 48.4508 161.3531 0.0000 0.0000 0.0000
# 4 0.0000 0.0000 0.0000 29.5263 0.0000 0.0000
# 5 0.0000 0.0000 0.0000 0.0000 29.5263 0.0000
# 6 0.0000 0.0000 0.0000 0.0000 0.0000 32.7900
#
#
#
# Elastic Compliance Matrix: (Units=1/GPa)
#
#
# Indices 1 2 3 4 5 6 
#
# 1 0.014407 -0.000842 -0.004073 0.000000 0.000000 0.000000
# 2 -0.000842 0.014407 -0.004073 0.000000 0.000000 0.000000
# 3 -0.004073 -0.004073 0.008644 0.000000 0.000000 0.000000
# 4 0.000000 0.000000 0.000000 0.033868 0.000000 0.000000
# 5 0.000000 0.000000 0.000000 0.000000 0.033868 0.000000
# 6 0.000000 0.000000 0.000000 0.000000 0.000000 0.030497
#
#
# Mechanical properties :
#
#
# Convention : Reuss Voigt Hill
#
# Bulk Modulus (GPa) = 51.33206 62.30959 56.82083
# Shear Modulus (GPa) = 31.21848 32.65042 31.93445
#
# Velocity S-wave (km/s) = 3.80237 3.88860 3.84573
# Velocity P-wave (km/s) = 6.56129 7.00133 6.78488
#
# Compressibility (1/GPa) = 0.01948100
#
# Stress axis : x y z
#
# Youngs Moduli (GPa) = 69.41106 69.41106 115.68897
#
# Poissons Ratio (x) = 0.05842 0.47124
# Poissons Ratio (y) = 0.05842 0.47124
# Poissons Ratio (z) = 0.28274 0.28274
#
# Static dielectric constant tensor:
#      x y z
#    x 4.315780 0.000000 0.000000 
#    y 0.000000 4.315780 0.000000 
#    z 0.000000 0.000000 3.981080 
# 
# 
# High freq. dielectric constant tensor:
#      x y z
#    x 1.852270 0.000000 0.000000 
#    y 0.000000 1.852270 0.000000 
#    z 0.000000 0.000000 1.845850 
# 
# From -- ./inp_files/1091.got.cif
#   From: 2010.03.12/outbox.cif.g09.slc.cpg/sg184_cif.got.tgz:1091.got - 2010.04.01 11:54:36.
