data_PCOD8326382
_publ_section_title
;
Structure prediction by ZEFSAII (Michael W. Deem and Ramdas Pophale) SiO2 
 PCOD8326382
Probable space group: P 64 2 2
;
_chemical_formula_sum "Si O2"
_cell_formula_units_Z 33
_cell_length_a 8.489368
_cell_length_b 8.489368
_cell_length_c 21.561134
_cell_angle_alpha 90.000000
_cell_angle_beta 90.000000
_cell_angle_gamma 120.000000
_cell_volume 1345.714557
_symmetry_space_group_name_H-M "P 64 2 2"
_symmetry_group_IT_number 181
_symmetry_cell_setting 'hexagonal'
loop_
_space_group_symop_operation_xyz
x,y,z
x-y,x,2/3+z
-y,x-y,1/3+z
-x,-y,z
-x+y,-x,2/3+z
y,-x+y,1/3+z
x-y,-y,-z
-x,-x+y,2/3-z
y,x,1/3-z
-y,-x,1/3-z
-x+y,y,-z
x,x-y,2/3-z
loop_
_atom_site_type_symbol
_atom_site_label
_atom_site_fract_x
_atom_site_fract_y
_atom_site_fract_z
Si Si1 0.131099 0.262198 0.000000
Si Si2 0.786159 0.572318 0.500000
Si Si3 0.500000 0.000000 0.741139
Si Si4 0.121622 0.863021 0.887549
Si Si5 0.000000 0.500000 0.833334
O O1 0.318869 0.387436 0.964672
O O2 0.969376 0.135587 0.952997
O O3 0.624882 0.453813 0.452357
O O4 0.723851 0.683360 0.545983
O O5 0.000000 0.877511 0.833334
O O6 0.126035 0.674037 0.877783
#
# Coordination Sequence:
#
# PCOD8326382 Si02
#       5
#     6   6   6  12   3
#     4  12  26  43  76 109 140 184 256 293 366 439
#     4  12  27  49  72 104 150 198 238 299 384 427
#     4  12  29  46  73 109 144 191 240 308 366 444
#     4  10  22  45  74 102 137 192 240 302 353 441
#     4   8  18  36  72  94 136 176 240 306 362 396
#
# _framework density 24.522290000000002
#
# number of rings (size 3 to 8) (size 9 to 14) (size 15 to 20)
#    1.091    0.000    3.636    1.636    0.000   11.636 
#    0.000    0.000    0.000    2.182    0.000    0.000 
#    0.000    0.000    0.000    0.000    0.000    0.000 
#
# Total GULP energy -408878.104387 kJ/mol
# GULP energy per Si atom -12390.245587 kJ/mol
# Density = 2.446648 g / cm^3
# Si number density = 24.522290 Si / 1000 Ang^3
#
#
#
# Elastic Constant Matrix: (Units=GPa)
#
#
# Indices 1 2 3 4 5 6 
#
# 1 76.3184 2.6857 32.7921 0.0000 0.0000 0.0000
# 2 2.6857 76.3184 32.7921 0.0000 0.0000 0.0000
# 3 32.7921 32.7921 172.1257 0.0000 0.0000 0.0000
# 4 0.0000 0.0000 0.0000 263.1556 0.0000 0.0000
# 5 0.0000 0.0000 0.0000 0.0000 263.1556 0.0000
# 6 0.0000 0.0000 0.0000 0.0000 0.0000 36.8164
#
#
#
# Elastic Compliance Matrix: (Units=1/GPa)
#
#
# Indices 1 2 3 4 5 6 
#
# 1 0.014308 0.000727 -0.002864 0.000000 0.000000 0.000000
# 2 0.000727 0.014308 -0.002864 0.000000 0.000000 0.000000
# 3 -0.002864 -0.002864 0.006901 0.000000 0.000000 0.000000
# 4 0.000000 0.000000 0.000000 0.003800 0.000000 0.000000
# 5 0.000000 0.000000 0.000000 0.000000 0.003800 0.000000
# 6 0.000000 0.000000 0.000000 0.000000 0.000000 0.027162
#
#
# Mechanical properties :
#
#
# Convention : Reuss Voigt Hill
#
# Bulk Modulus (GPa) = 39.19376 51.25581 45.22479
# Shear Modulus (GPa) = 56.31432 129.72503 93.01967
#
# Velocity S-wave (km/s) = 4.79733 7.28119 6.16563
# Velocity P-wave (km/s) = 6.83399 9.57260 8.31680
#
# Compressibility (1/GPa) = 0.02551427
#
# Stress axis : x y z
#
# Youngs Moduli (GPa) = 69.89008 69.89008 144.90375
#
# Poissons Ratio (x) = -0.05083 0.41507
# Poissons Ratio (y) = -0.05083 0.41507
# Poissons Ratio (z) = 0.20020 0.20020
#
# Static dielectric constant tensor:
#      x y z
#    x 4.284620 0.000000 0.000000 
#    y 0.000000 4.284620 0.000000 
#    z 0.000000 0.000000 4.575720 
# 
# 
# High freq. dielectric constant tensor:
#      x y z
#    x 1.978100 0.000000 0.000000 
#    y 0.000000 1.978100 0.000000 
#    z 0.000000 0.000000 1.969780 
# 
# From -- ./inp_files/9619.got.cif
#   From: 2010.03.12/outbox.cif.g09.slc.cpg/sg181_5_cif.got.tgz:9619.got - 2010.04.01 11:42:41.
