data_PCOD8326544
_publ_section_title
;
Structure prediction by ZEFSAII (Michael W. Deem and Ramdas Pophale) SiO2 
 PCOD8326544
Probable space group: P 6 M M
;
_chemical_formula_sum "Si O2"
_cell_formula_units_Z 96
_cell_length_a 17.928679
_cell_length_b 17.928679
_cell_length_c 20.259575
_cell_angle_alpha 90.000000
_cell_angle_beta 90.000000
_cell_angle_gamma 120.000000
_cell_volume 5639.720035
_symmetry_space_group_name_H-M "P 6 M M"
_symmetry_group_IT_number 183
_symmetry_cell_setting 'hexagonal'
loop_
_space_group_symop_operation_xyz
x,y,z
x-y,x,z
-y,x-y,z
-x,-y,z
-x+y,-x,z
y,-x+y,z
-x+y,y,z
x,x-y,z
-y,-x,z
y,x,z
x-y,-y,z
-x,-x+y,z
loop_
_atom_site_type_symbol
_atom_site_label
_atom_site_fract_x
_atom_site_fract_y
_atom_site_fract_z
Si Si1 0.095492 0.361230 0.089390
Si Si2 0.331388 0.496959 0.978969
Si Si3 0.366726 0.100382 0.712353
Si Si4 0.099380 0.633267 0.837789
Si Si5 0.834429 0.331388 0.199810
Si Si6 0.533888 0.633267 0.340990
Si Si7 0.899618 0.633274 0.466426
Si Si8 0.532310 0.633427 0.589390
O O1 0.163954 0.327908 0.089390
O O2 0.104730 0.416626 0.154222
O O3 0.000000 0.278236 0.089390
O O4 0.104730 0.416626 0.024558
O O5 0.264957 0.529914 0.996557
O O6 0.427885 0.572116 0.993138
O O7 0.317297 0.468547 0.902724
O O8 0.324579 0.162290 0.709380
O O9 0.419096 0.120137 0.779973
O O10 0.436303 0.128828 0.654072
O O11 0.291787 0.000000 0.706418
O O12 0.125264 0.562632 0.814605
O O13 0.000000 0.585954 0.857048
O O14 0.855769 0.427885 0.185641
O O15 0.735043 0.264957 0.182222
O O16 0.848749 0.317297 0.276055
O O17 0.437370 0.562631 0.364174
O O18 0.585956 0.585956 0.321730
O O19 0.580904 0.701041 0.398806
O O20 0.837710 0.675420 0.469400
O O21 0.871172 0.563696 0.524707
O O22 0.000000 0.708213 0.472361
O O23 0.428025 0.571976 0.589390
O O24 0.572278 0.572278 0.589390
#
# Coordination Sequence:
#
# PCOD8326544 Si02
#       8
#    12  12  12  12  12  12  12  12
#     4  10  21  35  51  70  91 117 150 190 233 275
#     4  10  19  30  45  67  97 130 161 190 221 260
#     4  10  19  31  48  69  93 122 158 197 235 276
#     4   9  17  29  46  67  90 119 156 196 235 275
#     4  10  19  30  45  67  97 130 161 190 221 260
#     4   9  17  29  46  67  90 119 156 196 235 275
#     4  10  19  31  48  69  93 122 158 197 235 276
#     4   9  17  30  49  70  90 114 144 179 221 270
#
# _framework density 17.022120999999999
#
# number of rings (size 3 to 8) (size 9 to 14) (size 15 to 20)
#    0.000    2.375    0.000    3.250    0.000    5.000 
#    0.000    1.250    0.000    8.875    0.000    0.000 
#    0.000    3.000    0.000    8.000    0.000    0.000 
#
# Total GULP energy -1190152.929219 kJ/mol
# GULP energy per Si atom -12397.426346 kJ/mol
# Density = 1.698338 g / cm^3
# Si number density = 17.022121 Si / 1000 Ang^3
#
#
#
# Elastic Constant Matrix: (Units=GPa)
#
#
# Indices 1 2 3 4 5 6 
#
# 1 94.5763 53.9361 37.8741 0.0000 0.0000 0.0000
# 2 53.9361 94.5763 37.8741 0.0000 0.0000 0.0000
# 3 37.8741 37.8741 79.2368 0.0000 0.0000 0.0000
# 4 0.0000 0.0000 0.0000 39.4931 0.0000 0.0000
# 5 0.0000 0.0000 0.0000 0.0000 39.4931 0.0000
# 6 0.0000 0.0000 0.0000 0.0000 0.0000 20.3201
#
#
#
# Elastic Compliance Matrix: (Units=1/GPa)
#
#
# Indices 1 2 3 4 5 6 
#
# 1 0.016755 -0.007851 -0.004256 0.000000 0.000000 0.000000
# 2 -0.007851 0.016755 -0.004256 0.000000 0.000000 0.000000
# 3 -0.004256 -0.004256 0.016689 0.000000 0.000000 0.000000
# 4 0.000000 0.000000 0.000000 0.025321 0.000000 0.000000
# 5 0.000000 0.000000 0.000000 0.000000 0.025321 0.000000
# 6 0.000000 0.000000 0.000000 0.000000 0.000000 0.049212
#
#
# Mechanical properties :
#
#
# Convention : Reuss Voigt Hill
#
# Bulk Modulus (GPa) = 57.23055 58.63978 57.93517
# Shear Modulus (GPa) = 26.51050 29.10827 27.80939
#
# Velocity S-wave (km/s) = 3.95069 4.13973 4.04632
# Velocity P-wave (km/s) = 7.38274 7.57455 7.47926
#
# Compressibility (1/GPa) = 0.01747319
#
# Stress axis : x y z
#
# Youngs Moduli (GPa) = 59.68286 59.68286 59.91922
#
# Poissons Ratio (x) = 0.46857 0.25502
# Poissons Ratio (y) = 0.46857 0.25502
# Poissons Ratio (z) = 0.25402 0.25402
#
# Static dielectric constant tensor:
#      x y z
#    x 3.027000 0.000000 0.000000 
#    y 0.000000 3.027000 0.000000 
#    z 0.000000 0.000000 3.342710 
# 
# 
# High freq. dielectric constant tensor:
#      x y z
#    x 1.635120 0.000000 0.000000 
#    y 0.000000 1.635120 0.000000 
#    z 0.000000 0.000000 1.675260 
# 
# From -- ./inp_files/3118.got.cif
#   From: 2010.03.12/outbox.cif.g09.slc.cpg/sg183_2_cif.got.tgz:3118.got - 2010.04.01 11:53:02.
