data_PCOD8326268
_publ_section_title
;
Structure prediction by ZEFSAII (Michael W. Deem and Ramdas Pophale) SiO2 
 PCOD8326268
Probable space group: P 62 2 2
;
_chemical_formula_sum "Si O2"
_cell_formula_units_Z 39
_cell_length_a 9.157599
_cell_length_b 9.157599
_cell_length_c 24.395993
_cell_angle_alpha 90.000000
_cell_angle_beta 90.000000
_cell_angle_gamma 120.000000
_cell_volume 1771.790532
_symmetry_space_group_name_H-M "P 62 2 2"
_symmetry_group_IT_number 180
_symmetry_cell_setting 'hexagonal'
loop_
_space_group_symop_operation_xyz
x,y,z
x-y,x,1/3+z
-y,x-y,2/3+z
-x,-y,z
-x+y,-x,1/3+z
y,-x+y,2/3+z
x-y,-y,-z
-x,-x+y,1/3-z
y,x,2/3-z
-y,-x,2/3-z
-x+y,y,-z
x,x-y,1/3-z
loop_
_atom_site_type_symbol
_atom_site_label
_atom_site_fract_x
_atom_site_fract_y
_atom_site_fract_z
Si Si1 0.990761 0.325316 0.488842
Si Si2 0.200514 0.762712 0.079705
Si Si3 0.500000 0.000000 0.000000
Si Si4 0.748772 0.572132 0.939009
O O1 0.852755 0.195538 0.531018
O O2 0.926983 0.265464 0.426701
O O3 0.000000 0.500000 0.501491
O O4 0.169521 0.339042 0.500000
O O5 0.219739 0.599674 0.093186
O O6 0.019922 0.702068 0.052951
O O7 0.341599 0.887894 0.038139
O O8 0.757117 0.514233 0.000000
#
# Coordination Sequence:
#
# PCOD8326268 Si02
#       4
#    12  12   3  12
#     4  12  27  46  74 104 143 191 240 297 363 433
#     4  11  25  46  71 104 145 190 237 297 357 435
#     4  12  24  44  70 108 140 190 242 288 358 424
#     4  11  26  45  72 105 145 188 237 296 364 430
#
# _framework density 22.011631000000001
#
# number of rings (size 3 to 8) (size 9 to 14) (size 15 to 20)
#    0.000    0.615    3.077    3.692    8.615    4.923 
#    0.000    0.000    0.000    0.000    0.000    0.000 
#    0.000    0.000    0.000    0.000    0.000    0.000 
#
# Total GULP energy -483705.485795 kJ/mol
# GULP energy per Si atom -12402.704764 kJ/mol
# Density = 2.196153 g / cm^3
# Si number density = 22.011631 Si / 1000 Ang^3
#
#
#
# Elastic Constant Matrix: (Units=GPa)
#
#
# Indices 1 2 3 4 5 6 
#
# 1 126.3124 65.3019 38.8648 0.0000 0.0000 0.0000
# 2 65.3019 126.3124 38.8648 0.0000 0.0000 0.0000
# 3 38.8648 38.8648 115.8052 0.0000 0.0000 0.0000
# 4 0.0000 0.0000 0.0000 35.2785 0.0000 0.0000
# 5 0.0000 0.0000 0.0000 0.0000 35.2785 0.0000
# 6 0.0000 0.0000 0.0000 0.0000 0.0000 30.5052
#
#
#
# Elastic Compliance Matrix: (Units=1/GPa)
#
#
# Indices 1 2 3 4 5 6 
#
# 1 0.011216 -0.005175 -0.002027 0.000000 0.000000 0.000000
# 2 -0.005175 0.011216 -0.002027 0.000000 0.000000 0.000000
# 3 -0.002027 -0.002027 0.009996 0.000000 0.000000 0.000000
# 4 0.000000 0.000000 0.000000 0.028346 0.000000 0.000000
# 5 0.000000 0.000000 0.000000 0.000000 0.028346 0.000000
# 6 0.000000 0.000000 0.000000 0.000000 0.000000 0.032781
#
#
# Mechanical properties :
#
#
# Convention : Reuss Voigt Hill
#
# Bulk Modulus (GPa) = 71.58872 72.72146 72.15509
# Shear Modulus (GPa) = 34.47883 35.23901 34.85892
#
# Velocity S-wave (km/s) = 3.96206 4.00550 3.98384
# Velocity P-wave (km/s) = 7.31603 7.38251 7.34935
#
# Compressibility (1/GPa) = 0.01396868
#
# Stress axis : x y z
#
# Youngs Moduli (GPa) = 89.15868 89.15868 100.03947
#
# Poissons Ratio (x) = 0.46137 0.20283
# Poissons Ratio (y) = 0.46137 0.20283
# Poissons Ratio (z) = 0.18077 0.18077
#
# Static dielectric constant tensor:
#      x y z
#    x 4.081580 0.000000 0.000000 
#    y 0.000000 4.081580 0.000000 
#    z 0.000000 0.000000 3.975660 
# 
# 
# High freq. dielectric constant tensor:
#      x y z
#    x 1.873770 0.000000 0.000000 
#    y 0.000000 1.873770 0.000000 
#    z 0.000000 0.000000 1.871060 
# 
# From -- ./inp_files/11855.got.cif
#   From: 2010.03.12/outbox.cif.g09.slc.cpg/sg180_6_cif.got.tgz:11855.got - 2010.04.01 11:35:50.
