data_PCOD8326309
_publ_section_title
;
Structure prediction by ZEFSAII (Michael W. Deem and Ramdas Pophale) SiO2 
 PCOD8326309
Probable space group: P 64 2 2
;
_chemical_formula_sum "Si O2"
_cell_formula_units_Z 36
_cell_length_a 7.860410
_cell_length_b 7.860410
_cell_length_c 28.082010
_cell_angle_alpha 90.000000
_cell_angle_beta 90.000000
_cell_angle_gamma 120.000000
_cell_volume 1502.620191
_symmetry_space_group_name_H-M "P 64 2 2"
_symmetry_group_IT_number 181
_symmetry_cell_setting 'hexagonal'
loop_
_space_group_symop_operation_xyz
x,y,z
x-y,x,2/3+z
-y,x-y,1/3+z
-x,-y,z
-x+y,-x,2/3+z
y,-x+y,1/3+z
x-y,-y,-z
-x,-x+y,2/3-z
y,x,1/3-z
-y,-x,1/3-z
-x+y,y,-z
x,x-y,2/3-z
loop_
_atom_site_type_symbol
_atom_site_label
_atom_site_fract_x
_atom_site_fract_y
_atom_site_fract_z
Si Si1 0.696502 0.929252 0.612902
Si Si2 0.071329 0.303716 0.613388
Si Si3 0.236150 0.618304 0.217987
O O1 0.800957 0.801170 0.613340
O O2 0.626286 0.937021 0.666441
O O3 0.507870 0.825536 0.578664
O O4 0.851419 0.149575 0.594668
O O5 0.175400 0.492540 0.579366
O O6 0.333907 0.666094 0.166667
O O7 0.000000 0.500000 0.214323
#
# Coordination Sequence:
#
# PCOD8326309 Si02
#       3
#    12  12  12
#     4   8  14  27  50  82 116 152 204 263 308 368
#     4   8  14  27  50  81 115 152 206 261 309 368
#     4  10  19  31  50  82 124 166 198 250 321 387
#
# _framework density 23.958148000000001
#
# number of rings (size 3 to 8) (size 9 to 14) (size 15 to 20)
#    0.000    3.333    0.000    3.000    0.000    4.000 
#    0.000   13.333    0.000    4.000   17.333    0.000 
#    0.000    0.000    0.000    0.000    0.000   14.667 
#
# Total GULP energy -446265.222378 kJ/mol
# GULP energy per Si atom -12396.256177 kJ/mol
# Density = 2.390362 g / cm^3
# Si number density = 23.958148 Si / 1000 Ang^3
#
#
#
# Elastic Constant Matrix: (Units=GPa)
#
#
# Indices 1 2 3 4 5 6 
#
# 1 113.6089 71.8520 76.7096 0.0000 0.0000 0.0000
# 2 71.8520 113.6089 76.7096 0.0000 0.0000 0.0000
# 3 76.7096 76.7096 184.7936 0.0000 0.0000 0.0000
# 4 0.0000 0.0000 0.0000 8.5643 0.0000 0.0000
# 5 0.0000 0.0000 0.0000 0.0000 8.5643 0.0000
# 6 0.0000 0.0000 0.0000 0.0000 0.0000 20.8784
#
#
#
# Elastic Compliance Matrix: (Units=1/GPa)
#
#
# Indices 1 2 3 4 5 6 
#
# 1 0.016080 -0.007868 -0.003409 0.000000 0.000000 0.000000
# 2 -0.007868 0.016080 -0.003409 0.000000 0.000000 0.000000
# 3 -0.003409 -0.003409 0.008242 0.000000 0.000000 0.000000
# 4 0.000000 0.000000 0.000000 0.116764 0.000000 0.000000
# 5 0.000000 0.000000 0.000000 0.000000 0.116764 0.000000
# 6 0.000000 0.000000 0.000000 0.000000 0.000000 0.047896
#
#
# Mechanical properties :
#
#
# Convention : Reuss Voigt Hill
#
# Bulk Modulus (GPa) = 90.66231 95.83931 93.25081
# Shear Modulus (GPa) = 14.08953 20.05076 17.07015
#
# Velocity S-wave (km/s) = 2.42769 2.89607 2.67216
# Velocity P-wave (km/s) = 6.76626 7.16049 6.96617
#
# Compressibility (1/GPa) = 0.01102994
#
# Stress axis : x y z
#
# Youngs Moduli (GPa) = 62.18906 62.18906 121.33697
#
# Poissons Ratio (x) = 0.48931 0.41362
# Poissons Ratio (y) = 0.48931 0.41362
# Poissons Ratio (z) = 0.21199 0.21199
#
# Static dielectric constant tensor:
#      x y z
#    x 4.548170 0.000000 0.000000 
#    y 0.000000 4.548170 0.000000 
#    z 0.000000 0.000000 4.204100 
# 
# 
# High freq. dielectric constant tensor:
#      x y z
#    x 1.959450 0.000000 0.000000 
#    y 0.000000 1.959450 0.000000 
#    z 0.000000 0.000000 1.924610 
# 
# From -- ./inp_files/10783.got.cif
#   From: 2010.03.12/outbox.cif.g09.slc.cpg/sg181_6_cif.got.tgz:10783.got - 2010.04.01 11:42:41.
