data_PCOD8326690
_publ_section_title
;
Structure prediction by ZEFSAII (Michael W. Deem and Ramdas Pophale) SiO2 
 PCOD8326690
Probable space group: P 63 C M
;
_chemical_formula_sum "Si O2"
_cell_formula_units_Z 52
_cell_length_a 11.186486
_cell_length_b 11.186486
_cell_length_c 23.707619
_cell_angle_alpha 90.000000
_cell_angle_beta 90.000000
_cell_angle_gamma 120.000000
_cell_volume 2569.247471
_symmetry_space_group_name_H-M "P 63 C M"
_symmetry_group_IT_number 185
_symmetry_cell_setting 'hexagonal'
loop_
_space_group_symop_operation_xyz
x,y,z
x-y,x,1/2+z
-y,x-y,z
-x,-y,1/2+z
-x+y,-x,z
y,-x+y,1/2+z
-x+y,y,1/2+z
x,x-y,1/2+z
-y,-x,1/2+z
y,x,z
x-y,-y,z
-x,-x+y,z
loop_
_atom_site_type_symbol
_atom_site_label
_atom_site_fract_x
_atom_site_fract_y
_atom_site_fract_z
Si Si1 0.000000 0.000000 0.742115
Si Si2 0.729913 0.000000 0.108422
Si Si3 0.494533 0.281376 0.318801
Si Si4 0.729913 0.729913 0.742076
Si Si5 0.718624 0.213157 0.031697
Si Si6 0.843672 0.156328 0.425249
Si Si7 0.000000 0.000000 0.108383
O O1 0.000000 0.134722 0.764875
O O2 0.000000 0.000000 0.675249
O O3 0.720958 0.000000 0.175249
O O4 0.738331 0.139380 0.085906
O O5 0.865278 0.000000 0.085623
O O6 0.559141 0.179901 0.317428
O O7 0.401049 0.261669 0.264592
O O8 0.406918 0.253888 0.375209
O O9 0.820099 0.379240 0.033070
O O10 0.746112 0.153029 0.975289
O O11 0.000000 0.216392 0.403458
O O12 0.783608 0.000000 0.447040
#
# Coordination Sequence:
#
# PCOD8326690 Si02
#       7
#     2   6  12   6  12  12   2
#     4   9  24  45  66  97 128 181 228 285 343 395
#     4  11  24  45  71  99 141 182 234 290 342 420
#     4  10  25  42  66 102 135 182 229 279 353 411
#     4  11  24  45  71  99 141 182 234 290 342 420
#     4  10  25  42  66 102 135 182 229 279 353 411
#     4  12  25  42  70 103 142 184 228 292 350 421
#     4   9  24  45  66  97 128 181 228 285 343 395
#
# _framework density 20.239388000000002
#
# number of rings (size 3 to 8) (size 9 to 14) (size 15 to 20)
#    0.923    0.462    2.308    1.615    6.462    3.692 
#    0.000    2.308    0.000    0.000    0.000    0.000 
#    0.000    0.000    0.000    0.000    0.000    0.000 
#
# Total GULP energy -644707.771180 kJ/mol
# GULP energy per Si atom -12398.226369 kJ/mol
# Density = 2.019332 g / cm^3
# Si number density = 20.239388 Si / 1000 Ang^3
#
#
#
# Elastic Constant Matrix: (Units=GPa)
#
#
# Indices 1 2 3 4 5 6 
#
# 1 136.3039 69.1945 48.1457 0.0000 0.0000 0.0000
# 2 69.1945 136.3039 48.1457 0.0000 0.0000 0.0000
# 3 48.1457 48.1457 116.0797 0.0000 0.0000 0.0000
# 4 0.0000 0.0000 0.0000 37.6428 0.0000 0.0000
# 5 0.0000 0.0000 0.0000 0.0000 37.6428 0.0000
# 6 0.0000 0.0000 0.0000 0.0000 0.0000 33.5547
#
#
#
# Elastic Compliance Matrix: (Units=1/GPa)
#
#
# Indices 1 2 3 4 5 6 
#
# 1 0.010471 -0.004430 -0.002505 0.000000 0.000000 0.000000
# 2 -0.004430 0.010471 -0.002505 0.000000 0.000000 0.000000
# 3 -0.002505 -0.002505 0.010693 0.000000 0.000000 0.000000
# 4 0.000000 0.000000 0.000000 0.026565 0.000000 0.000000
# 5 0.000000 0.000000 0.000000 0.000000 0.026565 0.000000
# 6 0.000000 0.000000 0.000000 0.000000 0.000000 0.029802
#
#
# Mechanical properties :
#
#
# Convention : Reuss Voigt Hill
#
# Bulk Modulus (GPa) = 78.41751 79.96213 79.18982
# Shear Modulus (GPa) = 36.31091 36.64819 36.47955
#
# Velocity S-wave (km/s) = 4.24024 4.25989 4.25008
# Velocity P-wave (km/s) = 7.92477 7.98683 7.95586
#
# Compressibility (1/GPa) = 0.01275225
#
# Stress axis : x y z
#
# Youngs Moduli (GPa) = 95.50578 95.50578 93.51984
#
# Poissons Ratio (x) = 0.42314 0.23429
# Poissons Ratio (y) = 0.42314 0.23429
# Poissons Ratio (z) = 0.23926 0.23926
#
# Static dielectric constant tensor:
#      x y z
#    x 3.790910 0.000000 0.000000 
#    y 0.000000 3.790910 0.000000 
#    z 0.000000 0.000000 3.410650 
# 
# 
# High freq. dielectric constant tensor:
#      x y z
#    x 1.799120 0.000000 0.000000 
#    y 0.000000 1.799120 0.000000 
#    z 0.000000 0.000000 1.779770 
# 
# From -- ./inp_files/2041.got.cif
#   From: 2010.03.12/outbox.cif.g09.slc.cpg/sg185_cif.got.tgz:2041.got - 2010.04.01 11:55:19.
