data_PCOD8326612
_publ_section_title
;
Structure prediction by ZEFSAII (Michael W. Deem and Ramdas Pophale) SiO2 
 PCOD8326612
Probable space group: P 6 C C
;
_chemical_formula_sum "Si O2"
_cell_formula_units_Z 48
_cell_length_a 16.569049
_cell_length_b 16.569049
_cell_length_c 9.259019
_cell_angle_alpha 90.000000
_cell_angle_beta 90.000000
_cell_angle_gamma 120.000000
_cell_volume 2201.358483
_symmetry_space_group_name_H-M "P 6 C C"
_symmetry_group_IT_number 184
_symmetry_cell_setting 'hexagonal'
loop_
_space_group_symop_operation_xyz
x,y,z
x-y,x,z
-y,x-y,z
-x,-y,z
-x+y,-x,z
y,-x+y,z
-x+y,y,1/2+z
x,x-y,1/2+z
-y,-x,1/2+z
y,x,1/2+z
x-y,-y,1/2+z
-x,-x+y,1/2+z
loop_
_atom_site_type_symbol
_atom_site_label
_atom_site_fract_x
_atom_site_fract_y
_atom_site_fract_z
Si Si1 0.379756 0.477527 0.670110
Si Si2 0.218259 0.075319 0.995237
Si Si3 0.175890 0.826252 0.746824
Si Si4 0.621362 0.093488 0.839395
O O1 0.268911 0.423773 0.671640
O O2 0.428948 0.578697 0.751886
O O3 0.413012 0.416538 0.757780
O O4 0.413031 0.492208 0.504452
O O5 0.170365 0.138750 0.001594
O O6 0.277346 0.092638 0.849628
O O7 0.289230 0.097154 0.126686
O O8 0.267724 0.856583 0.840024
#
# Coordination Sequence:
#
# PCOD8326612 Si02
#       4
#    12  12  12  12
#     4  11  24  42  69  99 131 170 218 279 344 414
#     4  12  25  44  68 102 144 194 246 300 349 406
#     4  12  26  42  69 102 138 184 235 288 348 426
#     4  11  24  42  69  99 131 170 218 279 344 414
#
# _framework density 21.804718000000001
#
# number of rings (size 3 to 8) (size 9 to 14) (size 15 to 20)
#    0.000    0.500    2.500    7.750    7.000    0.000 
#    1.500    2.500    0.000    0.000    0.000    0.000 
#    0.000    0.000    0.000    0.000    0.000    0.000 
#
# Total GULP energy -595109.003128 kJ/mol
# GULP energy per Si atom -12398.104232 kJ/mol
# Density = 2.175509 g / cm^3
# Si number density = 21.804718 Si / 1000 Ang^3
#
#
#
# Elastic Constant Matrix: (Units=GPa)
#
#
# Indices 1 2 3 4 5 6 
#
# 1 96.1164 21.1337 20.1501 0.0000 0.0000 0.0000
# 2 21.1337 96.1164 20.1501 0.0000 0.0000 0.0000
# 3 20.1501 20.1501 143.9507 0.0000 0.0000 0.0000
# 4 0.0000 0.0000 0.0000 27.2104 0.0000 0.0000
# 5 0.0000 0.0000 0.0000 0.0000 27.2104 0.0000
# 6 0.0000 0.0000 0.0000 0.0000 0.0000 37.4913
#
#
#
# Elastic Compliance Matrix: (Units=1/GPa)
#
#
# Indices 1 2 3 4 5 6 
#
# 1 0.011148 -0.002188 -0.001254 0.000000 0.000000 0.000000
# 2 -0.002188 0.011148 -0.001254 0.000000 0.000000 0.000000
# 3 -0.001254 -0.001254 0.007298 0.000000 0.000000 0.000000
# 4 0.000000 0.000000 0.000000 0.036751 0.000000 0.000000
# 5 0.000000 0.000000 0.000000 0.000000 0.036751 0.000000
# 6 0.000000 0.000000 0.000000 0.000000 0.000000 0.026673
#
#
# Mechanical properties :
#
#
# Convention : Reuss Voigt Hill
#
# Bulk Modulus (GPa) = 49.50277 51.00569 50.25423
# Shear Modulus (GPa) = 34.27118 36.69909 35.48513
#
# Velocity S-wave (km/s) = 3.96881 4.10699 4.03849
# Velocity P-wave (km/s) = 6.61468 6.77736 6.69651
#
# Compressibility (1/GPa) = 0.02020089
#
# Stress axis : x y z
#
# Youngs Moduli (GPa) = 89.70111 89.70111 137.02491
#
# Poissons Ratio (x) = 0.19629 0.17186
# Poissons Ratio (y) = 0.19629 0.17186
# Poissons Ratio (z) = 0.11250 0.11250
#
# Static dielectric constant tensor:
#      x y z
#    x 4.170260 0.000000 0.000000 
#    y 0.000000 4.170260 0.000000 
#    z 0.000000 0.000000 4.150430 
# 
# 
# High freq. dielectric constant tensor:
#      x y z
#    x 1.852940 0.000000 0.000000 
#    y 0.000000 1.852940 0.000000 
#    z 0.000000 0.000000 1.879150 
# 
# From -- ./inp_files/192.got.cif
#   From: 2010.03.12/outbox.cif.g09.slc.cpg/sg184_cif.got.tgz:192.got - 2010.04.01 11:54:36.
