data_PCOD8326880
_publ_section_title
;
Structure prediction by ZEFSAII (Michael W. Deem and Ramdas Pophale) SiO2 
 PCOD8326880
Probable space group: P -6 M 2
;
_chemical_formula_sum "Si O2"
_cell_formula_units_Z 84
_cell_length_a 17.189023
_cell_length_b 17.189023
_cell_length_c 18.102887
_cell_angle_alpha 90.000000
_cell_angle_beta 90.000000
_cell_angle_gamma 120.000000
_cell_volume 4632.131262
_symmetry_space_group_name_H-M "P -6 M 2"
_symmetry_group_IT_number 187
_symmetry_cell_setting 'hexagonal'
loop_
_space_group_symop_operation_xyz
x,y,z
-x+y,-x,-z
-y,x-y,z
x,y,-z
-x+y,-x,z
-y,x-y,-z
-y,-x,-z
-x+y,y,-z
x,x-y,-z
-x+y,y,z
x,x-y,z
-y,-x,z
loop_
_atom_site_type_symbol
_atom_site_label
_atom_site_fract_x
_atom_site_fract_y
_atom_site_fract_z
Si Si1 0.843326 0.332564 0.221357
Si Si2 0.515309 0.847479 0.728118
Si Si3 0.733810 0.094165 0.354851
Si Si4 0.564012 0.615439 0.581208
Si Si5 0.678730 0.752574 0.834892
Si Si6 0.373047 0.098174 0.916346
Si Si7 0.173772 0.174850 0.711936
O O1 0.861956 0.430978 0.241577
O O2 0.737752 0.262248 0.230459
O O3 0.901620 0.306995 0.275350
O O4 0.874463 0.331328 0.137847
O O5 0.428591 0.857181 0.743448
O O6 0.487201 0.743601 0.734077
O O7 0.556164 0.880807 0.645927
O O8 0.591082 0.907632 0.787634
O O9 0.805256 0.194745 0.382618
O O10 0.655078 0.044555 0.413740
O O11 0.783422 0.036388 0.347816
O O12 0.560379 0.653958 0.500000
O O13 0.485648 0.514353 0.590138
O O14 0.663218 0.831609 0.867468
O O15 0.698071 0.702790 0.901277
O O16 0.766891 0.796273 0.785403
O O17 0.335977 0.167989 0.903904
O O18 0.407041 0.104381 0.000000
O O19 0.086731 0.173462 0.676887
O O20 0.149278 0.074639 0.733723
#
# Coordination Sequence:
#
# PCOD8326880 Si02
#       7
#    12  12  12  12  12  12  12
#     4  10  19  32  50  72  97 129 168 211 255 303
#     4  10  20  35  54  77 103 134 170 211 257 307
#     4  10  19  32  52  73  99 132 169 212 255 299
#     4  10  20  33  50  74 104 136 169 207 253 305
#     4  10  19  32  53  76 101 131 168 211 252 295
#     4  10  20  34  51  72 102 137 167 202 253 307
#     4  10  18  30  49  74 101 128 161 202 248 294
#
# _framework density 18.134201000000001
#
# number of rings (size 3 to 8) (size 9 to 14) (size 15 to 20)
#    0.000    2.000    2.857    1.286    0.000    2.857 
#    0.000    0.000    0.000    2.286    0.000    0.000 
#    0.000    2.286    0.000    0.000    0.000    0.000 
#
# Total GULP energy -1041366.982280 kJ/mol
# GULP energy per Si atom -12397.225980 kJ/mol
# Density = 1.809293 g / cm^3
# Si number density = 18.134201 Si / 1000 Ang^3
#
#
#
# Elastic Constant Matrix: (Units=GPa)
#
#
# Indices 1 2 3 4 5 6 
#
# 1 95.9476 38.1752 23.4603 0.0000 0.0000 0.0000
# 2 38.1752 95.9476 23.4603 0.0000 0.0000 0.0000
# 3 23.4603 23.4603 54.5209 0.0000 0.0000 0.0000
# 4 0.0000 0.0000 0.0000 20.6045 0.0000 0.0000
# 5 0.0000 0.0000 0.0000 0.0000 20.6045 0.0000
# 6 0.0000 0.0000 0.0000 0.0000 0.0000 28.8862
#
#
#
# Elastic Compliance Matrix: (Units=1/GPa)
#
#
# Indices 1 2 3 4 5 6 
#
# 1 0.013043 -0.004266 -0.003777 0.000000 0.000000 0.000000
# 2 -0.004266 0.013043 -0.003777 0.000000 0.000000 0.000000
# 3 -0.003777 -0.003777 0.021592 0.000000 0.000000 0.000000
# 4 0.000000 0.000000 0.000000 0.048533 0.000000 0.000000
# 5 0.000000 0.000000 0.000000 0.000000 0.048533 0.000000
# 6 0.000000 0.000000 0.000000 0.000000 0.000000 0.034619
#
#
# Mechanical properties :
#
#
# Convention : Reuss Voigt Hill
#
# Bulk Modulus (GPa) = 41.59914 46.28974 43.94444
# Shear Modulus (GPa) = 23.69496 24.77372 24.23434
#
# Velocity S-wave (km/s) = 3.61868 3.70013 3.65963
# Velocity P-wave (km/s) = 6.35996 6.62090 6.49174
#
# Compressibility (1/GPa) = 0.02403896
#
# Stress axis : x y z
#
# Youngs Moduli (GPa) = 76.66829 76.66829 46.31374
#
# Poissons Ratio (x) = 0.32707 0.17492
# Poissons Ratio (y) = 0.32707 0.17492
# Poissons Ratio (z) = 0.28956 0.28956
#
# Static dielectric constant tensor:
#      x y z
#    x 3.436520 0.000000 0.000000 
#    y 0.000000 3.436520 0.000000 
#    z 0.000000 0.000000 3.119930 
# 
# 
# High freq. dielectric constant tensor:
#      x y z
#    x 1.707360 0.000000 0.000000 
#    y 0.000000 1.707360 0.000000 
#    z 0.000000 0.000000 1.669380 
# 
# From -- ./inp_files/2583.got.cif
#   From: 2010.03.12/outbox.cif.g09.slc.cpg/sg187_2_cif.got.tgz:2583.got - 2010.04.01 11:58:23.
