data_PCOD8326848
_publ_section_title
;
Structure prediction by ZEFSAII (Michael W. Deem and Ramdas Pophale) SiO2 
 PCOD8326848
Probable space group: P -6 M 2
;
_chemical_formula_sum "Si O2"
_cell_formula_units_Z 84
_cell_length_a 16.668485
_cell_length_b 16.668485
_cell_length_c 24.175284
_cell_angle_alpha 90.000000
_cell_angle_beta 90.000000
_cell_angle_gamma 120.000000
_cell_volume 5816.938517
_symmetry_space_group_name_H-M "P -6 M 2"
_symmetry_group_IT_number 187
_symmetry_cell_setting 'hexagonal'
loop_
_space_group_symop_operation_xyz
x,y,z
-x+y,-x,-z
-y,x-y,z
x,y,-z
-x+y,-x,z
-y,x-y,-z
-y,-x,-z
-x+y,y,-z
x,x-y,-z
-x+y,y,z
x,x-y,z
-y,-x,z
loop_
_atom_site_type_symbol
_atom_site_label
_atom_site_fract_x
_atom_site_fract_y
_atom_site_fract_z
Si Si1 0.296753 0.242866 0.274163
Si Si2 0.333816 0.844051 0.934627
Si Si3 0.998129 0.185716 0.168973
Si Si4 0.478883 0.143935 0.667451
Si Si5 0.186752 0.998717 0.379668
Si Si6 0.238517 0.286201 0.939033
Si Si7 0.370881 0.280350 0.560780
O O1 0.303672 0.151836 0.278306
O O2 0.263761 0.254167 0.213334
O O3 0.400012 0.325721 0.289091
O O4 0.220280 0.232426 0.318720
O O5 0.431553 0.863106 0.909380
O O6 0.250855 0.749146 0.908594
O O7 0.319848 0.931284 0.921235
O O8 0.332628 0.831741 0.000000
O O9 0.097152 0.194304 0.175363
O O10 0.983028 0.214190 0.107527
O O11 0.919970 0.080031 0.179828
O O12 0.573730 0.147459 0.683021
O O13 0.494629 0.247315 0.670325
O O14 0.446045 0.099936 0.606100
O O15 0.094301 0.905700 0.396066
O O16 0.166144 0.083072 0.381779
O O17 0.266852 0.013051 0.422540
O O18 0.144881 0.289761 0.942512
O O19 0.257927 0.257560 0.000000
O O20 0.394566 0.328215 0.500000
O O21 0.374227 0.187114 0.558980
#
# Coordination Sequence:
#
# PCOD8326848 Si02
#       7
#    12  12  12  12  12  12  12
#     4   8  16  28  39  54  76  98 119 154 203 237
#     4   8  12  19  33  52  72  94 120 147 176 216
#     4  10  18  28  42  57  74  99 133 166 192 225
#     4   9  16  27  43  60  77  98 125 154 185 226
#     4   9  15  23  36  53  74 102 137 171 198 227
#     4   8  15  26  37  52  77 104 126 156 200 236
#     4   8  15  26  36  50  77 107 129 155 194 229
#
# _framework density 14.440586
#
# number of rings (size 3 to 8) (size 9 to 14) (size 15 to 20)
#    0.000    3.429    0.000    3.571    0.000    1.429 
#    0.000    2.143    0.000    2.571    0.000    0.000 
#    0.000    0.000    0.000   54.000    0.000   43.000 
#
# Total GULP energy -1040700.831791 kJ/mol
# GULP energy per Si atom -12389.295617 kJ/mol
# Density = 1.440772 g / cm^3
# Si number density = 14.440586 Si / 1000 Ang^3
#
#
#
# Elastic Constant Matrix: (Units=GPa)
#
#
# Indices 1 2 3 4 5 6 
#
# 1 60.4194 25.0234 27.6660 0.0000 0.0001 0.0000
# 2 25.0234 60.4194 27.6660 0.0000 -0.0001 0.0000
# 3 27.6660 27.6660 91.3702 0.0000 0.0000 0.0000
# 4 0.0000 0.0000 0.0000 12.7539 0.0000 -0.0001
# 5 0.0001 -0.0001 0.0000 0.0000 12.7539 0.0000
# 6 0.0000 0.0000 0.0000 -0.0001 0.0000 17.6980
#
#
#
# Elastic Compliance Matrix: (Units=1/GPa)
#
#
# Indices 1 2 3 4 5 6 
#
# 1 0.021405 -0.006847 -0.004408 0.000000 0.000000 0.000000
# 2 -0.006847 0.021405 -0.004408 0.000000 0.000000 0.000000
# 3 -0.004408 -0.004408 0.013614 0.000000 0.000000 0.000000
# 4 0.000000 0.000000 0.000000 0.078408 0.000000 0.000000
# 5 0.000000 0.000000 0.000000 0.000000 0.078408 0.000000
# 6 0.000000 0.000000 0.000000 0.000000 0.000000 0.056504
#
#
# Mechanical properties :
#
#
# Convention : Reuss Voigt Hill
#
# Bulk Modulus (GPa) = 39.84350 41.43555 40.63952
# Shear Modulus (GPa) = 16.15850 17.43139 16.79494
#
# Velocity S-wave (km/s) = 3.34872 3.47812 3.41403
# Velocity P-wave (km/s) = 6.52711 6.69969 6.61396
#
# Compressibility (1/GPa) = 0.02509820
#
# Stress axis : x y z
#
# Youngs Moduli (GPa) = 46.71787 46.71787 73.45393
#
# Poissons Ratio (x) = 0.31986 0.32380
# Poissons Ratio (y) = 0.31986 0.32380
# Poissons Ratio (z) = 0.20594 0.20594
#
# Static dielectric constant tensor:
#      x y z
#    x 2.670510 0.000000 0.000000 
#    y 0.000000 2.670510 0.000000 
#    z 0.000000 0.000000 3.079770 
# 
# 
# High freq. dielectric constant tensor:
#      x y z
#    x 1.525980 0.000000 0.000000 
#    y 0.000000 1.525980 0.000000 
#    z 0.000000 0.000000 1.544470 
# 
# From -- ./inp_files/3641.got.cif
#   From: 2010.03.12/outbox.cif.g09.slc.cpg/sg187_2_cif.got.tgz:3641.got - 2010.04.01 11:58:23.
