data_PCOD8326561
_publ_section_title
;
Structure prediction by ZEFSAII (Michael W. Deem and Ramdas Pophale) SiO2 
 PCOD8326561
Probable space group: P 6 C C
;
_chemical_formula_sum "Si O2"
_cell_formula_units_Z 72
_cell_length_a 21.827133
_cell_length_b 21.827133
_cell_length_c 8.849053
_cell_angle_alpha 90.000000
_cell_angle_beta 90.000000
_cell_angle_gamma 120.000000
_cell_volume 3651.075531
_symmetry_space_group_name_H-M "P 6 C C"
_symmetry_group_IT_number 184
_symmetry_cell_setting 'hexagonal'
loop_
_space_group_symop_operation_xyz
x,y,z
x-y,x,z
-y,x-y,z
-x,-y,z
-x+y,-x,z
y,-x+y,z
-x+y,y,1/2+z
x,x-y,1/2+z
-y,-x,1/2+z
y,x,1/2+z
x-y,-y,1/2+z
-x,-x+y,1/2+z
loop_
_atom_site_type_symbol
_atom_site_label
_atom_site_fract_x
_atom_site_fract_y
_atom_site_fract_z
Si Si1 0.650544 0.710592 0.852240
Si Si2 0.084177 0.715800 0.690465
Si Si3 0.109486 0.944599 0.478361
Si Si4 0.916983 0.514578 0.332342
Si Si5 0.861202 0.127436 0.735475
Si Si6 0.472442 0.398947 0.692188
O O1 0.699607 0.679945 0.799619
O O2 0.699851 0.794843 0.847929
O O3 0.579531 0.681895 0.747385
O O4 0.626408 0.684816 0.023085
O O5 0.125617 0.678179 0.766789
O O6 0.132155 0.799745 0.678910
O O7 0.153098 0.925096 0.596372
O O8 0.134635 0.930817 0.317187
O O9 0.025134 0.895623 0.495940
O O10 0.921327 0.517624 0.512736
O O11 0.883814 0.433730 0.272929
O O12 0.993540 0.559228 0.253661
#
# Coordination Sequence:
#
# PCOD8326561 Si02
#       6
#    12  12  12  12  12  12
#     4  11  22  36  55  78 109 145 187 234 291 358
#     4  11  22  36  55  78 109 145 187 234 291 358
#     4  12  25  44  62  82 104 144 200 270 340 410
#     4  10  18  30  51  78 111 144 176 207 250 311
#     4  12  26  38  59  82 112 146 194 252 324 390
#     4  10  18  30  51  78 111 144 176 207 250 311
#
# _framework density 19.720217999999999
#
# number of rings (size 3 to 8) (size 9 to 14) (size 15 to 20)
#    0.000    1.000    1.667   10.167    4.667    0.000 
#    0.000    1.667    0.000    0.000    0.000    0.000 
#    1.667    0.000    2.000    0.000    1.333    0.000 
#
# Total GULP energy -892300.663936 kJ/mol
# GULP energy per Si atom -12393.064777 kJ/mol
# Density = 1.967533 g / cm^3
# Si number density = 19.720218 Si / 1000 Ang^3
#
#
#
# Elastic Constant Matrix: (Units=GPa)
#
#
# Indices 1 2 3 4 5 6 
#
# 1 68.2179 11.0184 2.8895 0.0000 0.0000 0.0000
# 2 11.0184 68.2179 2.8895 0.0000 0.0000 0.0000
# 3 2.8895 2.8895 114.0059 0.0000 0.0000 0.0000
# 4 0.0000 0.0000 0.0000 27.8726 0.0000 0.0000
# 5 0.0000 0.0000 0.0000 0.0000 27.8726 0.0000
# 6 0.0000 0.0000 0.0000 0.0000 0.0000 28.5997
#
#
#
# Elastic Compliance Matrix: (Units=1/GPa)
#
#
# Indices 1 2 3 4 5 6 
#
# 1 0.015063 -0.002419 -0.000320 0.000000 0.000000 0.000000
# 2 -0.002419 0.015063 -0.000320 0.000000 0.000000 0.000000
# 3 -0.000320 -0.000320 0.008788 0.000000 0.000000 0.000000
# 4 0.000000 0.000000 0.000000 0.035878 0.000000 0.000000
# 5 0.000000 0.000000 0.000000 0.000000 0.035878 0.000000
# 6 0.000000 0.000000 0.000000 0.000000 0.000000 0.034965
#
#
# Mechanical properties :
#
#
# Convention : Reuss Voigt Hill
#
# Bulk Modulus (GPa) = 30.49377 31.55960 31.02669
# Shear Modulus (GPa) = 30.73396 32.44528 31.58962
#
# Velocity S-wave (km/s) = 3.95207 4.06061 4.00670
# Velocity P-wave (km/s) = 6.02676 6.16629 6.09693
#
# Compressibility (1/GPa) = 0.03279358
#
# Stress axis : x y z
#
# Youngs Moduli (GPa) = 66.38669 66.38669 113.79513
#
# Poissons Ratio (x) = 0.16062 0.03647
# Poissons Ratio (y) = 0.16062 0.03647
# Poissons Ratio (z) = 0.02127 0.02127
#
# Static dielectric constant tensor:
#      x y z
#    x 3.957250 0.000000 0.000000 
#    y 0.000000 3.957250 0.000000 
#    z 0.000000 0.000000 3.727550 
# 
# 
# High freq. dielectric constant tensor:
#      x y z
#    x 1.740820 0.000000 0.000000 
#    y 0.000000 1.740820 0.000000 
#    z 0.000000 0.000000 1.793870 
# 
# From -- ./inp_files/351.got.cif
#   From: 2010.03.12/outbox.cif.g09.slc.cpg/sg184_cif.got.tgz:351.got - 2010.04.01 11:54:36.
