data_PCOD8326732
_publ_section_title
;
Structure prediction by ZEFSAII (Michael W. Deem and Ramdas Pophale) SiO2 
 PCOD8326732
Probable space group: P 63 M C
;
_chemical_formula_sum "Si O2"
_cell_formula_units_Z 72
_cell_length_a 23.592976
_cell_length_b 23.592976
_cell_length_c 9.442212
_cell_angle_alpha 90.000000
_cell_angle_beta 90.000000
_cell_angle_gamma 120.000000
_cell_volume 4551.660178
_symmetry_space_group_name_H-M "P 63 M C"
_symmetry_group_IT_number 186
_symmetry_cell_setting 'hexagonal'
loop_
_space_group_symop_operation_xyz
x,y,z
x-y,x,1/2+z
-y,x-y,z
-x,-y,1/2+z
-x+y,-x,z
y,-x+y,1/2+z
-x+y,y,z
x,x-y,z
-y,-x,z
y,x,1/2+z
x-y,-y,1/2+z
-x,-x+y,1/2+z
loop_
_atom_site_type_symbol
_atom_site_label
_atom_site_fract_x
_atom_site_fract_y
_atom_site_fract_z
Si Si1 0.468455 0.400357 0.399430
Si Si2 0.855199 0.579472 0.235973
Si Si3 0.069499 0.264539 0.425936
Si Si4 0.147045 0.419171 0.413130
Si Si5 0.590049 0.953735 0.206980
Si Si6 0.715245 0.741252 0.709894
O O1 0.541939 0.458062 0.381706
O O2 0.465824 0.334853 0.340807
O O3 0.420772 0.415459 0.307029
O O4 0.449483 0.393213 0.563843
O O5 0.782746 0.565492 0.267090
O O6 0.906409 0.655590 0.270249
O O7 0.862339 0.561833 0.072907
O O8 0.117074 0.234148 0.402119
O O9 0.110672 0.341644 0.404884
O O10 0.039961 0.249302 0.582174
O O11 0.008165 0.233993 0.321008
O O12 0.224217 0.448433 0.379957
O O13 0.114549 0.443513 0.295496
O O14 0.665333 0.978613 0.165664
#
# Coordination Sequence:
#
# PCOD8326732 Si02
#       6
#    12  12  12  12  12  12
#     4  11  21  31  44  65  93 124 158 193 231 276
#     4   9  17  31  50  69  90 117 150 189 234 282
#     4   9  16  26  40  61  91 123 151 180 217 260
#     4   8  15  28  46  67  90 118 151 188 230 274
#     4  10  18  29  44  63  91 124 158 192 225 267
#     4   9  15  27  44  63  88 120 154 182 216 261
#
# _framework density 15.818403
#
# number of rings (size 3 to 8) (size 9 to 14) (size 15 to 20)
#    0.000    2.667    0.000    7.000    0.000    0.667 
#    0.000    5.833    0.000    0.333    0.000    0.000 
#    0.000    1.333    0.000   19.000    0.000    1.833 
#
# Total GULP energy -892441.158514 kJ/mol
# GULP energy per Si atom -12395.016090 kJ/mol
# Density = 1.578240 g / cm^3
# Si number density = 15.818403 Si / 1000 Ang^3
#
#
#
# Elastic Constant Matrix: (Units=GPa)
#
#
# Indices 1 2 3 4 5 6 
#
# 1 70.2767 43.1856 53.4086 0.0000 0.0000 0.0000
# 2 43.1856 70.2767 53.4086 0.0000 0.0000 0.0000
# 3 53.4086 53.4086 112.9750 0.0000 0.0000 0.0000
# 4 0.0000 0.0000 0.0000 15.9326 0.0000 0.0000
# 5 0.0000 0.0000 0.0000 0.0000 15.9326 0.0000
# 6 0.0000 0.0000 0.0000 0.0000 0.0000 13.5456
#
#
#
# Elastic Compliance Matrix: (Units=1/GPa)
#
#
# Indices 1 2 3 4 5 6 
#
# 1 0.026397 -0.010515 -0.007508 0.000000 0.000000 0.000000
# 2 -0.010515 0.026397 -0.007508 0.000000 0.000000 0.000000
# 3 -0.007508 -0.007508 0.015950 0.000000 0.000000 0.000000
# 4 0.000000 0.000000 0.000000 0.062764 0.000000 0.000000
# 5 0.000000 0.000000 0.000000 0.000000 0.062764 0.000000
# 6 0.000000 0.000000 0.000000 0.000000 0.000000 0.073825
#
#
# Mechanical properties :
#
#
# Convention : Reuss Voigt Hill
#
# Bulk Modulus (GPa) = 56.55561 61.50380 59.02970
# Shear Modulus (GPa) = 15.38200 15.98386 15.68293
#
# Velocity S-wave (km/s) = 3.12173 3.18222 3.15212
# Velocity P-wave (km/s) = 6.98744 7.24345 7.11660
#
# Compressibility (1/GPa) = 0.01768171
#
# Stress axis : x y z
#
# Youngs Moduli (GPa) = 37.88287 37.88287 62.69431
#
# Poissons Ratio (x) = 0.39835 0.47072
# Poissons Ratio (y) = 0.39835 0.47072
# Poissons Ratio (z) = 0.28443 0.28443
#
# Static dielectric constant tensor:
#      x y z
#    x 2.924710 0.000000 0.000000 
#    y 0.000000 2.924710 0.000000 
#    z 0.000000 0.000000 3.122000 
# 
# 
# High freq. dielectric constant tensor:
#      x y z
#    x 1.575290 0.000000 0.000000 
#    y 0.000000 1.575290 0.000000 
#    z 0.000000 0.000000 1.617260 
# 
# From -- ./inp_files/1195.got.cif
#   From: 2010.03.12/outbox.cif.g09.slc.cpg/sg186_1_cif.got.tgz:1195.got - 2010.04.01 11:56:34.
