data_PCOD8326633
_publ_section_title
;
Structure prediction by ZEFSAII (Michael W. Deem and Ramdas Pophale) SiO2 
 PCOD8326633
Probable space group: P 63 C M
;
_chemical_formula_sum "Si O2"
_cell_formula_units_Z 42
_cell_length_a 13.492568
_cell_length_b 13.492568
_cell_length_c 13.927837
_cell_angle_alpha 90.000000
_cell_angle_beta 90.000000
_cell_angle_gamma 120.000000
_cell_volume 2195.854391
_symmetry_space_group_name_H-M "P 63 C M"
_symmetry_group_IT_number 185
_symmetry_cell_setting 'hexagonal'
loop_
_space_group_symop_operation_xyz
x,y,z
x-y,x,1/2+z
-y,x-y,z
-x,-y,1/2+z
-x+y,-x,z
y,-x+y,1/2+z
-x+y,y,1/2+z
x,x-y,1/2+z
-y,-x,1/2+z
y,x,z
x-y,-y,z
-x,-x+y,z
loop_
_atom_site_type_symbol
_atom_site_label
_atom_site_fract_x
_atom_site_fract_y
_atom_site_fract_z
Si Si1 0.126055 0.000000 0.926811
Si Si2 0.000000 0.787058 0.224143
Si Si3 0.566591 0.000000 0.269058
Si Si4 0.000000 0.566591 0.584563
Si Si5 0.373031 0.810254 0.926810
Si Si6 0.787058 0.787058 0.129478
O O1 0.196717 0.000000 0.837134
O O2 0.000000 0.886955 0.926810
O O3 0.196716 0.000000 0.016487
O O4 0.000000 0.670684 0.214683
O O5 0.889354 0.778708 0.176811
O O6 0.606397 0.113857 0.332140
O O7 0.500000 0.000000 0.176810
O O8 0.886143 0.492541 0.521481
O O9 0.000000 0.670684 0.638938
O O10 0.242201 0.701564 0.926810
#
# Coordination Sequence:
#
# PCOD8326633 Si02
#       6
#     6   6   6   6  12   6
#     4  10  18  38  62  88 136 166 192 266 318 394
#     4  12  24  41  66 100 130 169 219 266 338 405
#     4  11  26  43  66 107 129 173 238 273 329 407
#     4  11  26  43  66 107 129 173 238 273 329 407
#     4   9  23  46  70  88 138 178 220 282 340 382
#     4  12  24  41  66 100 130 169 219 266 338 405
#
# _framework density 19.126950999999998
#
# number of rings (size 3 to 8) (size 9 to 14) (size 15 to 20)
#    0.857    0.571    2.857    2.000    8.000    0.000 
#    0.000    0.000    0.000    0.000    0.000    0.000 
#    0.000    0.000    0.000    0.000    0.000    0.000 
#
# Total GULP energy -520568.306540 kJ/mol
# GULP energy per Si atom -12394.483489 kJ/mol
# Density = 1.908342 g / cm^3
# Si number density = 19.126951 Si / 1000 Ang^3
#
#
#
# Elastic Constant Matrix: (Units=GPa)
#
#
# Indices 1 2 3 4 5 6 
#
# 1 154.5766 77.0991 71.5008 0.0000 0.0000 0.0000
# 2 77.0991 154.5766 71.5008 0.0000 0.0000 0.0000
# 3 71.5008 71.5008 156.6596 0.0000 0.0000 0.0000
# 4 0.0000 0.0000 0.0000 8.4956 0.0000 0.0000
# 5 0.0000 0.0000 0.0000 0.0000 8.4956 0.0000
# 6 0.0000 0.0000 0.0000 0.0000 0.0000 38.7387
#
#
#
# Elastic Compliance Matrix: (Units=1/GPa)
#
#
# Indices 1 2 3 4 5 6 
#
# 1 0.009458 -0.003449 -0.002743 0.000000 0.000000 0.000000
# 2 -0.003449 0.009458 -0.002743 0.000000 0.000000 0.000000
# 3 -0.002743 -0.002743 0.008887 0.000000 0.000000 0.000000
# 4 0.000000 0.000000 0.000000 0.117708 0.000000 0.000000
# 5 0.000000 0.000000 0.000000 0.000000 0.117708 0.000000
# 6 0.000000 0.000000 0.000000 0.000000 0.000000 0.025814
#
#
# Mechanical properties :
#
#
# Convention : Reuss Voigt Hill
#
# Bulk Modulus (GPa) = 100.65763 100.66823 100.66293
# Shear Modulus (GPa) = 16.11793 27.52678 21.82236
#
# Velocity S-wave (km/s) = 2.90605 3.79774 3.38142
# Velocity P-wave (km/s) = 8.00003 8.48389 8.24551
#
# Compressibility (1/GPa) = 0.00993467
#
# Stress axis : x y z
#
# Youngs Moduli (GPa) = 105.72899 105.72899 112.52581
#
# Poissons Ratio (x) = 0.36464 0.30862
# Poissons Ratio (y) = 0.36464 0.30862
# Poissons Ratio (z) = 0.28998 0.28998
#
# Static dielectric constant tensor:
#      x y z
#    x 3.491580 0.000000 0.000000 
#    y 0.000000 3.491580 0.000000 
#    z 0.000000 0.000000 3.664580 
# 
# 
# High freq. dielectric constant tensor:
#      x y z
#    x 1.747830 0.000000 0.000000 
#    y 0.000000 1.747830 0.000000 
#    z 0.000000 0.000000 1.759080 
# 
# From -- ./inp_files/843.got.cif
#   From: 2010.03.12/outbox.cif.g09.slc.cpg/sg185_cif.got.tgz:843.got - 2010.04.01 11:55:19.
