data_PCOD8326192
_publ_section_title
;
Structure prediction by ZEFSAII (Michael W. Deem and Ramdas Pophale) SiO2 
 PCOD8326192
Probable space group: P 62 2 2
;
_chemical_formula_sum "Si O2"
_cell_formula_units_Z 54
_cell_length_a 11.854248
_cell_length_b 11.854248
_cell_length_c 21.003054
_cell_angle_alpha 90.000000
_cell_angle_beta 90.000000
_cell_angle_gamma 120.000000
_cell_volume 2556.001464
_symmetry_space_group_name_H-M "P 62 2 2"
_symmetry_group_IT_number 180
_symmetry_cell_setting 'hexagonal'
loop_
_space_group_symop_operation_xyz
x,y,z
x-y,x,1/3+z
-y,x-y,2/3+z
-x,-y,z
-x+y,-x,1/3+z
y,-x+y,2/3+z
x-y,-y,-z
-x,-x+y,1/3-z
y,x,2/3-z
-y,-x,2/3-z
-x+y,y,-z
x,x-y,1/3-z
loop_
_atom_site_type_symbol
_atom_site_label
_atom_site_fract_x
_atom_site_fract_y
_atom_site_fract_z
Si Si1 0.732327 0.732327 0.833334
Si Si2 0.003765 0.844014 0.441448
Si Si3 0.408358 0.263340 0.950096
Si Si4 0.697657 0.395314 0.000000
Si Si5 0.588483 0.637745 0.607505
Si Si6 0.000000 0.818623 0.666667
O O1 0.606986 0.712127 0.874250
O O2 0.842507 0.787943 0.888704
O O3 0.927203 0.854405 0.500000
O O4 0.940033 0.869077 0.380637
O O5 0.997821 0.706237 0.440610
O O6 0.315765 0.109758 0.967070
O O7 0.557675 0.304609 0.966504
O O8 0.372169 0.357540 0.989681
O O9 0.698986 0.494745 0.053032
O O10 0.500000 0.500000 0.574822
#
# Coordination Sequence:
#
# PCOD8326192 Si02
#       6
#     6  12  12   6  12   6
#     4  12  23  38  61 108 128 165 223 294 334 410
#     4  11  22  39  63  95 134 165 222 285 352 411
#     4  10  22  38  67  94 134 172 228 281 341 418
#     4  10  20  43  62  89 130 190 216 274 346 412
#     4   9  20  41  63  84 121 174 216 258 331 406
#     4  10  22  40  64  96 132 189 216 283 362 418
#
# _framework density 21.126747999999999
#
# number of rings (size 3 to 8) (size 9 to 14) (size 15 to 20)
#    0.000    1.778    2.222    1.667    0.000    4.000 
#    0.000   20.556    0.000    0.000    0.000    0.000 
#    0.000    0.000    0.000    0.000    0.000    0.000 
#
# Total GULP energy -668980.551876 kJ/mol
# GULP energy per Si atom -12388.528738 kJ/mol
# Density = 2.107866 g / cm^3
# Si number density = 21.126748 Si / 1000 Ang^3
#
#
#
# Elastic Constant Matrix: (Units=GPa)
#
#
# Indices 1 2 3 4 5 6 
#
# 1 115.4468 45.5132 28.4293 0.0000 0.0000 0.0000
# 2 45.5132 115.4468 28.4293 0.0000 0.0000 0.0000
# 3 28.4293 28.4293 68.4100 0.0000 0.0000 0.0000
# 4 0.0000 0.0000 0.0000 23.6870 0.0000 0.0000
# 5 0.0000 0.0000 0.0000 0.0000 23.6870 0.0000
# 6 0.0000 0.0000 0.0000 0.0000 0.0000 34.9668
#
#
#
# Elastic Compliance Matrix: (Units=1/GPa)
#
#
# Indices 1 2 3 4 5 6 
#
# 1 0.010790 -0.003509 -0.003026 0.000000 0.000000 0.000000
# 2 -0.003509 0.010790 -0.003026 0.000000 0.000000 0.000000
# 3 -0.003026 -0.003026 0.017133 0.000000 0.000000 0.000000
# 4 0.000000 0.000000 0.000000 0.042217 0.000000 0.000000
# 5 0.000000 0.000000 0.000000 0.000000 0.042217 0.000000
# 6 0.000000 0.000000 0.000000 0.000000 0.000000 0.028599
#
#
# Mechanical properties :
#
#
# Convention : Reuss Voigt Hill
#
# Bulk Modulus (GPa) = 51.04140 56.00523 53.52331
# Shear Modulus (GPa) = 28.18502 29.59696 28.89099
#
# Velocity S-wave (km/s) = 3.65648 3.74695 3.70199
# Velocity P-wave (km/s) = 6.48372 6.72951 6.60775
#
# Compressibility (1/GPa) = 0.01959194
#
# Stress axis : x y z
#
# Youngs Moduli (GPa) = 92.67437 92.67437 58.36746
#
# Poissons Ratio (x) = 0.32518 0.17662
# Poissons Ratio (y) = 0.32518 0.17662
# Poissons Ratio (z) = 0.28044 0.28044
#
# Static dielectric constant tensor:
#      x y z
#    x 4.098230 0.000000 0.000000 
#    y 0.000000 4.098230 0.000000 
#    z 0.000000 0.000000 4.346260 
# 
# 
# High freq. dielectric constant tensor:
#      x y z
#    x 1.835770 0.000000 0.000000 
#    y 0.000000 1.835770 0.000000 
#    z 0.000000 0.000000 1.804380 
# 
# From -- ./inp_files/10122.got.cif
#   From: 2010.03.12/outbox.cif.g09.slc.cpg/sg180_6_cif.got.tgz:10122.got - 2010.04.01 11:35:50.
