data_PCOD8326846
_publ_section_title
;
Structure prediction by ZEFSAII (Michael W. Deem and Ramdas Pophale) SiO2 
 PCOD8326846
Probable space group: P -6 M 2
;
_chemical_formula_sum "Si O2"
_cell_formula_units_Z 96
_cell_length_a 17.331970
_cell_length_b 17.331970
_cell_length_c 25.500766
_cell_angle_alpha 90.000000
_cell_angle_beta 90.000000
_cell_angle_gamma 120.000000
_cell_volume 6634.064888
_symmetry_space_group_name_H-M "P -6 M 2"
_symmetry_group_IT_number 187
_symmetry_cell_setting 'hexagonal'
loop_
_space_group_symop_operation_xyz
x,y,z
-x+y,-x,-z
-y,x-y,z
x,y,-z
-x+y,-x,z
-y,x-y,-z
-y,-x,-z
-x+y,y,-z
x,x-y,-z
-x+y,y,z
x,x-y,z
-y,-x,z
loop_
_atom_site_type_symbol
_atom_site_label
_atom_site_fract_x
_atom_site_fract_y
_atom_site_fract_z
Si Si1 0.940069 0.240421 0.844881
Si Si2 0.940750 0.241279 0.346751
Si Si3 0.666363 0.509583 0.810494
Si Si4 0.182410 0.183203 0.250560
Si Si5 0.163795 0.666298 0.937682
Si Si6 0.239330 0.297985 0.059817
Si Si7 0.178974 0.178974 0.440322
Si Si8 0.666305 0.156721 0.686554
O O1 0.847149 0.152852 0.836638
O O2 0.921002 0.322313 0.838318
O O3 0.006188 0.241340 0.800286
O O4 0.978091 0.236735 0.901870
O O5 0.846590 0.153411 0.340102
O O6 0.922030 0.323409 0.341067
O O7 0.004508 0.240585 0.301217
O O8 0.985252 0.245568 0.403059
O O9 0.745133 0.490266 0.826695
O O10 0.573355 0.426646 0.829641
O O11 0.667434 0.523492 0.748514
O O12 0.084829 0.169658 0.251093
O O13 0.172548 0.086274 0.250242
O O14 0.138846 0.569423 0.915152
O O15 0.260435 0.739566 0.915607
O O16 0.090754 0.692389 0.920901
O O17 0.168547 0.667476 0.000000
O O18 0.138116 0.276231 0.065014
O O19 0.258164 0.281786 0.000000
O O20 0.208908 0.209310 0.500000
O O21 0.091851 0.183702 0.425436
O O22 0.155146 0.077573 0.431227
O O23 0.573603 0.147206 0.667409
O O24 0.745557 0.254444 0.670208
#
# Coordination Sequence:
#
# PCOD8326846 Si02
#       8
#    12  12  12  12  12  12  12  12
#     4  10  19  30  43  60  81 103 131 169 209 245
#     4   9  16  26  39  58  84 109 137 174 209 241
#     4   9  16  27  43  63  85 108 134 166 204 246
#     4  10  18  28  41  58  80 107 135 165 202 244
#     4   8  13  22  38  59  80  99 119 145 179 221
#     4   9  18  31  44  58  77 103 134 165 197 236
#     4   9  16  25  38  57  83 117 153 183 209 242
#     4   9  15  25  41  61  84 110 140 174 210 249
#
# _framework density 14.470765
#
# number of rings (size 3 to 8) (size 9 to 14) (size 15 to 20)
#    0.000    2.875    1.250    2.125    0.000    2.750 
#    0.000    1.250    0.000    0.625    0.000    0.000 
#    0.000    2.000    0.000    5.500    0.000    1.750 
#
# Total GULP energy -1189927.166656 kJ/mol
# GULP energy per Si atom -12395.074653 kJ/mol
# Density = 1.443783 g / cm^3
# Si number density = 14.470765 Si / 1000 Ang^3
#
#
#
# Elastic Constant Matrix: (Units=GPa)
#
#
# Indices 1 2 3 4 5 6 
#
# 1 66.1429 31.5859 33.5276 0.0000 -0.0001 0.0000
# 2 31.5859 66.1429 33.5276 0.0000 0.0001 0.0000
# 3 33.5276 33.5276 71.3966 0.0000 0.0000 0.0000
# 4 0.0000 0.0000 0.0000 18.0455 0.0000 0.0001
# 5 -0.0001 0.0001 0.0000 0.0000 18.0455 0.0000
# 6 0.0000 0.0000 0.0000 0.0001 0.0000 17.2785
#
#
#
# Elastic Compliance Matrix: (Units=1/GPa)
#
#
# Indices 1 2 3 4 5 6 
#
# 1 0.022017 -0.006921 -0.007089 0.000000 0.000000 0.000000
# 2 -0.006921 0.022017 -0.007089 0.000000 0.000000 0.000000
# 3 -0.007089 -0.007089 0.020664 0.000000 0.000000 0.000000
# 4 0.000000 0.000000 0.000000 0.055416 0.000000 0.000000
# 5 0.000000 0.000000 0.000000 0.000000 0.055416 0.000000
# 6 0.000000 0.000000 0.000000 0.000000 0.000000 0.057875
#
#
# Mechanical properties :
#
#
# Convention : Reuss Voigt Hill
#
# Bulk Modulus (GPa) = 44.44349 44.55161 44.49755
# Shear Modulus (GPa) = 17.66135 17.67663 17.66899
#
# Velocity S-wave (km/s) = 3.49733 3.49885 3.49809
# Velocity P-wave (km/s) = 6.86205 6.86853 6.86529
#
# Compressibility (1/GPa) = 0.02250048
#
# Stress axis : x y z
#
# Youngs Moduli (GPa) = 45.41909 45.41909 48.39218
#
# Poissons Ratio (x) = 0.31433 0.34307
# Poissons Ratio (y) = 0.31433 0.34307
# Poissons Ratio (z) = 0.32199 0.32199
#
# Static dielectric constant tensor:
#      x y z
#    x 2.818210 0.000000 0.000000 
#    y 0.000000 2.818210 0.000000 
#    z 0.000000 0.000000 2.671330 
# 
# 
# High freq. dielectric constant tensor:
#      x y z
#    x 1.539950 0.000000 0.000000 
#    y 0.000000 1.539950 0.000000 
#    z 0.000000 0.000000 1.532300 
# 
# From -- ./inp_files/4087.got.cif
#   From: 2010.03.12/outbox.cif.g09.slc.cpg/sg187_3_cif.got.tgz:4087.got - 2010.04.01 11:58:23.
