data_PCOD8326725
_publ_section_title
;
Structure prediction by ZEFSAII (Michael W. Deem and Ramdas Pophale) SiO2 
 PCOD8326725
Probable space group: P 63 M C
;
_chemical_formula_sum "Si O2"
_cell_formula_units_Z 96
_cell_length_a 25.365807
_cell_length_b 25.365807
_cell_length_c 12.131123
_cell_angle_alpha 90.000000
_cell_angle_beta 90.000000
_cell_angle_gamma 120.000000
_cell_volume 6759.724642
_symmetry_space_group_name_H-M "P 63 M C"
_symmetry_group_IT_number 186
_symmetry_cell_setting 'hexagonal'
loop_
_space_group_symop_operation_xyz
x,y,z
x-y,x,1/2+z
-y,x-y,z
-x,-y,1/2+z
-x+y,-x,z
y,-x+y,1/2+z
-x+y,y,z
x,x-y,z
-y,-x,z
y,x,1/2+z
x-y,-y,1/2+z
-x,-x+y,1/2+z
loop_
_atom_site_type_symbol
_atom_site_label
_atom_site_fract_x
_atom_site_fract_y
_atom_site_fract_z
Si Si1 0.266443 0.858530 0.915700
Si Si2 0.607537 0.657760 0.092679
Si Si3 0.154814 0.637377 0.625752
Si Si4 0.062681 0.663954 0.726613
Si Si5 0.437280 0.443332 0.906532
Si Si6 0.454110 0.787593 0.859287
Si Si7 0.103959 0.494603 0.262612
Si Si8 0.783158 0.450047 0.903909
O O1 0.196521 0.803480 0.923983
O O2 0.275239 0.896154 0.800867
O O3 0.313872 0.832725 0.919339
O O4 0.282803 0.906883 0.017333
O O5 0.662827 0.658548 0.165405
O O6 0.556326 0.651103 0.176513
O O7 0.581738 0.597475 0.020094
O O8 0.129367 0.564684 0.611738
O O9 0.101425 0.653458 0.634491
O O10 0.200298 0.663327 0.729231
O O11 0.189837 0.674172 0.518154
O O12 0.043250 0.607504 0.807976
O O13 0.485351 0.514650 0.919349
O O14 0.469010 0.404297 0.874610
O O15 0.399108 0.798215 0.902945
O O16 0.435681 0.717841 0.881614
O O17 0.089436 0.544718 0.208871
O O18 0.172638 0.526116 0.300412
O O19 0.730924 0.461847 0.864136
O O20 0.757972 0.378986 0.924385
#
# Coordination Sequence:
#
# PCOD8326725 Si02
#       8
#    12  12  12  12  12  12  12  12
#     4   9  19  32  44  60  83 106 127 159 205 247
#     4  10  18  28  44  60  74  96 125 155 189 236
#     4   9  16  25  38  55  73  92 118 157 204 249
#     4   9  17  28  42  60  79  99 124 153 189 236
#     4   9  16  26  40  58  78  96 116 150 197 242
#     4   9  16  26  39  55  75 101 134 169 207 256
#     4   9  18  28  38  54  72  91 118 154 196 238
#     4  10  19  29  38  48  65  91 123 157 194 240
#
# _framework density 14.201762
#
# number of rings (size 3 to 8) (size 9 to 14) (size 15 to 20)
#    0.000    2.750    0.000    2.125    0.000    7.000 
#    0.000    1.250    0.000    0.000    0.000    4.375 
#    0.000    0.000    0.000    0.000    0.000    0.000 
#
# Total GULP energy -1189449.414147 kJ/mol
# GULP energy per Si atom -12390.098064 kJ/mol
# Density = 1.416944 g / cm^3
# Si number density = 14.201762 Si / 1000 Ang^3
#
#
#
# Elastic Constant Matrix: (Units=GPa)
#
#
# Indices 1 2 3 4 5 6 
#
# 1 55.9030 30.0183 22.8400 0.0000 0.0000 0.0000
# 2 30.0183 55.9030 22.8400 0.0000 0.0000 0.0000
# 3 22.8400 22.8400 51.6078 0.0000 0.0000 0.0000
# 4 0.0000 0.0000 0.0000 14.6716 0.0000 0.0000
# 5 0.0000 0.0000 0.0000 0.0000 14.6716 0.0000
# 6 0.0000 0.0000 0.0000 0.0000 0.0000 12.9424
#
#
#
# Elastic Compliance Matrix: (Units=1/GPa)
#
#
# Indices 1 2 3 4 5 6 
#
# 1 0.026926 -0.011707 -0.006736 0.000000 0.000000 0.000000
# 2 -0.011707 0.026926 -0.006736 0.000000 0.000000 0.000000
# 3 -0.006736 -0.006736 0.025339 0.000000 0.000000 0.000000
# 4 0.000000 0.000000 0.000000 0.068159 0.000000 0.000000
# 5 0.000000 0.000000 0.000000 0.000000 0.068159 0.000000
# 6 0.000000 0.000000 0.000000 0.000000 0.000000 0.077266
#
#
# Mechanical properties :
#
#
# Convention : Reuss Voigt Hill
#
# Bulk Modulus (GPa) = 34.67974 34.97892 34.82933
# Shear Modulus (GPa) = 14.17464 14.30482 14.23973
#
# Velocity S-wave (km/s) = 3.16268 3.17717 3.16994
# Velocity P-wave (km/s) = 6.14891 6.17598 6.16246
#
# Compressibility (1/GPa) = 0.02883528
#
# Stress axis : x y z
#
# Youngs Moduli (GPa) = 37.13851 37.13851 39.46492
#
# Poissons Ratio (x) = 0.43477 0.26583
# Poissons Ratio (y) = 0.43477 0.26583
# Poissons Ratio (z) = 0.25016 0.25016
#
# Static dielectric constant tensor:
#      x y z
#    x 2.651850 0.000000 0.000000 
#    y 0.000000 2.651850 0.000000 
#    z 0.000000 0.000000 2.786410 
# 
# 
# High freq. dielectric constant tensor:
#      x y z
#    x 1.507430 0.000000 0.000000 
#    y 0.000000 1.507430 0.000000 
#    z 0.000000 0.000000 1.547950 
# 
# From -- ./inp_files/2049.got.cif
#   From: 2010.03.12/outbox.cif.g09.slc.cpg/sg186_2_cif.got.tgz:2049.got - 2010.04.01 11:56:34.
