data_PCOD8326813
_publ_section_title
;
Structure prediction by ZEFSAII (Michael W. Deem and Ramdas Pophale) SiO2 
 PCOD8326813
Probable space group: P 63 M C
;
_chemical_formula_sum "Si O2"
_cell_formula_units_Z 60
_cell_length_a 18.851748
_cell_length_b 18.851748
_cell_length_c 10.066266
_cell_angle_alpha 90.000000
_cell_angle_beta 90.000000
_cell_angle_gamma 120.000000
_cell_volume 3098.148893
_symmetry_space_group_name_H-M "P 63 M C"
_symmetry_group_IT_number 186
_symmetry_cell_setting 'hexagonal'
loop_
_space_group_symop_operation_xyz
x,y,z
x-y,x,1/2+z
-y,x-y,z
-x,-y,1/2+z
-x+y,-x,z
y,-x+y,1/2+z
-x+y,y,z
x,x-y,z
-y,-x,z
y,x,1/2+z
x-y,-y,1/2+z
-x,-x+y,1/2+z
loop_
_atom_site_type_symbol
_atom_site_label
_atom_site_fract_x
_atom_site_fract_y
_atom_site_fract_z
Si Si1 0.972420 0.307809 0.862810
Si Si2 0.325439 0.244164 0.129910
Si Si3 0.364898 0.478517 0.957424
Si Si4 0.497648 0.829393 0.246678
Si Si5 0.175977 0.666795 0.676589
O O1 0.898768 0.322042 0.821497
O O2 0.007823 0.280899 0.737202
O O3 0.042320 0.387644 0.933511
O O4 0.944795 0.238473 0.978479
O O5 0.313704 0.156852 0.175374
O O6 0.421161 0.314930 0.124557
O O7 0.462974 0.537027 0.969486
O O8 0.330667 0.508375 0.836479
O O9 0.321616 0.484067 0.090194
O O10 0.418708 0.837416 0.283254
O O11 0.481700 0.740850 0.293238
O O12 0.156536 0.578268 0.621905
O O13 0.264755 0.735245 0.624131
#
# Coordination Sequence:
#
# PCOD8326813 Si02
#       5
#    12  12  12  12  12
#     4  11  20  39  57  80 112 153 197 246 297 360
#     4  10  22  38  57  84 113 148 195 244 293 351
#     4   9  18  31  49  73 101 144 200 249 296 351
#     4  11  22  35  54  81 117 158 205 254 303 352
#     4   9  17  29  47  70 102 141 190 247 299 344
#
# _framework density 19.366402999999998
#
# number of rings (size 3 to 8) (size 9 to 14) (size 15 to 20)
#    0.000    2.000    2.000    2.200    0.000    3.200 
#    0.000    2.000    0.000    2.400    0.000    0.000 
#    0.000    0.000    0.000   22.800    0.000    0.000 
#
# Total GULP energy -743765.641242 kJ/mol
# GULP energy per Si atom -12396.094021 kJ/mol
# Density = 1.932232 g / cm^3
# Si number density = 19.366403 Si / 1000 Ang^3
#
#
#
# Elastic Constant Matrix: (Units=GPa)
#
#
# Indices 1 2 3 4 5 6 
#
# 1 56.4359 27.4439 28.1238 0.0000 0.0000 0.0000
# 2 27.4439 56.4359 28.1238 0.0000 0.0000 0.0000
# 3 28.1238 28.1238 110.3512 0.0000 0.0000 0.0000
# 4 0.0000 0.0000 0.0000 15.6107 0.0000 0.0000
# 5 0.0000 0.0000 0.0000 0.0000 15.6107 0.0000
# 6 0.0000 0.0000 0.0000 0.0000 0.0000 14.4960
#
#
#
# Elastic Compliance Matrix: (Units=1/GPa)
#
#
# Indices 1 2 3 4 5 6 
#
# 1 0.024436 -0.010057 -0.003665 0.000000 0.000000 0.000000
# 2 -0.010057 0.024436 -0.003665 0.000000 0.000000 0.000000
# 3 -0.003665 -0.003665 0.010930 0.000000 0.000000 0.000000
# 4 0.000000 0.000000 0.000000 0.064059 0.000000 0.000000
# 5 0.000000 0.000000 0.000000 0.000000 0.064059 0.000000
# 6 0.000000 0.000000 0.000000 0.000000 0.000000 0.068985
#
#
# Mechanical properties :
#
#
# Convention : Reuss Voigt Hill
#
# Bulk Modulus (GPa) = 39.95241 43.40066 41.67654
# Shear Modulus (GPa) = 16.66564 18.44557 17.55561
#
# Velocity S-wave (km/s) = 2.93669 3.08953 3.01408
# Velocity P-wave (km/s) = 5.67216 5.93177 5.80341
#
# Compressibility (1/GPa) = 0.02502978
#
# Stress axis : x y z
#
# Youngs Moduli (GPa) = 40.92361 40.92361 91.49215
#
# Poissons Ratio (x) = 0.41155 0.33529
# Poissons Ratio (y) = 0.41155 0.33529
# Poissons Ratio (z) = 0.14997 0.14997
#
# Static dielectric constant tensor:
#      x y z
#    x 3.294270 0.000000 0.000000 
#    y 0.000000 3.294270 0.000000 
#    z 0.000000 0.000000 3.788030 
# 
# 
# High freq. dielectric constant tensor:
#      x y z
#    x 1.722310 0.000000 0.000000 
#    y 0.000000 1.722310 0.000000 
#    z 0.000000 0.000000 1.772600 
# 
# From -- ./inp_files/1758.got.cif
#   From: 2010.03.12/outbox.cif.g09.slc.cpg/sg186_1_cif.got.tgz:1758.got - 2010.04.01 11:56:34.
