data_PCOD8326181
_publ_section_title
;
Structure prediction by ZEFSAII (Michael W. Deem and Ramdas Pophale) SiO2 
 PCOD8326181
Probable space group: P 62 2 2
;
_chemical_formula_sum "Si O2"
_cell_formula_units_Z 33
_cell_length_a 7.716526
_cell_length_b 7.716526
_cell_length_c 27.334702
_cell_angle_alpha 90.000000
_cell_angle_beta 90.000000
_cell_angle_gamma 120.000000
_cell_volume 1409.576410
_symmetry_space_group_name_H-M "P 62 2 2"
_symmetry_group_IT_number 180
_symmetry_cell_setting 'hexagonal'
loop_
_space_group_symop_operation_xyz
x,y,z
x-y,x,1/3+z
-y,x-y,2/3+z
-x,-y,z
-x+y,-x,1/3+z
y,-x+y,2/3+z
x-y,-y,-z
-x,-x+y,1/3-z
y,x,2/3-z
-y,-x,2/3-z
-x+y,y,-z
x,x-y,1/3-z
loop_
_atom_site_type_symbol
_atom_site_label
_atom_site_fract_x
_atom_site_fract_y
_atom_site_fract_z
Si Si1 0.500000 0.500000 0.333334
Si Si2 0.817560 0.182441 0.833334
Si Si3 0.500000 0.000000 0.585438
Si Si4 0.755322 0.755322 0.833334
Si Si5 0.560083 0.223838 0.269568
O O1 0.435205 0.302608 0.300180
O O2 0.773777 0.286600 0.878877
O O3 0.049025 0.261574 0.824825
O O4 0.650239 0.973939 0.550969
O O5 0.595868 0.206538 0.616378
O O6 0.500000 0.000000 0.286351
#
# Coordination Sequence:
#
# PCOD8326181 Si02
#       5
#     3   6   6   6  12
#     4  12  32  52  78 112 164 216 256 328 406 472
#     4  11  22  43  72 116 152 195 262 333 374 460
#     4  11  22  40  72 107 150 197 254 318 388 463
#     4  10  20  36  70 116 150 192 248 324 398 444
#     4  12  27  50  77 113 158 208 264 327 395 469
#
# _framework density 23.411286
#
# number of rings (size 3 to 8) (size 9 to 14) (size 15 to 20)
#    0.000    0.727    3.636    4.364    5.091    0.000 
#    0.000    1.818    0.000    0.000    0.000    0.000 
#    0.000    0.000    0.000    0.000    0.000    0.000 
#
# Total GULP energy -408887.571661 kJ/mol
# GULP energy per Si atom -12390.532475 kJ/mol
# Density = 2.335800 g / cm^3
# Si number density = 23.411286 Si / 1000 Ang^3
#
#
#
# Elastic Constant Matrix: (Units=GPa)
#
#
# Indices 1 2 3 4 5 6 
#
# 1 132.0282 31.7206 20.2452 0.0000 0.0000 0.0000
# 2 31.7206 132.0282 20.2452 0.0000 0.0000 0.0000
# 3 20.2452 20.2452 54.1190 0.0000 0.0000 0.0000
# 4 0.0000 0.0000 0.0000 38.1807 0.0000 0.0000
# 5 0.0000 0.0000 0.0000 0.0000 38.1807 0.0000
# 6 0.0000 0.0000 0.0000 0.0000 0.0000 50.1538
#
#
#
# Elastic Compliance Matrix: (Units=1/GPa)
#
#
# Indices 1 2 3 4 5 6 
#
# 1 0.008349 -0.001620 -0.002517 0.000000 0.000000 0.000000
# 2 -0.001620 0.008349 -0.002517 0.000000 0.000000 0.000000
# 3 -0.002517 -0.002517 0.020361 0.000000 0.000000 0.000000
# 4 0.000000 0.000000 0.000000 0.026191 0.000000 0.000000
# 5 0.000000 0.000000 0.000000 0.000000 0.026191 0.000000
# 6 0.000000 0.000000 0.000000 0.000000 0.000000 0.019939
#
#
# Mechanical properties :
#
#
# Convention : Reuss Voigt Hill
#
# Bulk Modulus (GPa) = 42.10435 51.39972 46.75203
# Shear Modulus (GPa) = 38.28267 41.70066 39.99167
#
# Velocity S-wave (km/s) = 4.04818 4.22503 4.13755
# Velocity P-wave (km/s) = 6.31459 6.76786 6.54515
#
# Compressibility (1/GPa) = 0.02375051
#
# Stress axis : x y z
#
# Youngs Moduli (GPa) = 119.76963 119.76963 49.11293
#
# Poissons Ratio (x) = 0.19402 0.12364
# Poissons Ratio (y) = 0.19402 0.12364
# Poissons Ratio (z) = 0.30151 0.30151
#
# Static dielectric constant tensor:
#      x y z
#    x 4.435600 0.000000 0.000000 
#    y 0.000000 4.435600 0.000000 
#    z 0.000000 0.000000 4.019860 
# 
# 
# High freq. dielectric constant tensor:
#      x y z
#    x 1.935210 0.000000 0.000000 
#    y 0.000000 1.935210 0.000000 
#    z 0.000000 0.000000 1.929650 
# 
# From -- ./inp_files/10911.got.cif
#   From: 2010.03.12/outbox.cif.g09.slc.cpg/sg180_6_cif.got.tgz:10911.got - 2010.04.01 11:35:50.
