data_PCOD8326074
_publ_section_title
;
Structure prediction by ZEFSAII (Michael W. Deem and Ramdas Pophale) SiO2 
 PCOD8326074
Probable space group: P 65 2 2
;
_chemical_formula_sum "Si O2"
_cell_formula_units_Z 66
_cell_length_a 20.501587
_cell_length_b 20.501587
_cell_length_c 8.974130
_cell_angle_alpha 90.000000
_cell_angle_beta 90.000000
_cell_angle_gamma 120.000000
_cell_volume 3266.614979
_symmetry_space_group_name_H-M "P 65 2 2"
_symmetry_group_IT_number 179
_symmetry_cell_setting 'hexagonal'
loop_
_space_group_symop_operation_xyz
x,y,z
x-y,x,5/6+z
-y,x-y,2/3+z
-x,-y,1/2+z
-x+y,-x,1/3+z
y,-x+y,1/6+z
x-y,-y,-z
-x,-x+y,1/3-z
y,x,2/3-z
-y,-x,1/6-z
-x+y,y,1/2-z
x,x-y,5/6-z
loop_
_atom_site_type_symbol
_atom_site_label
_atom_site_fract_x
_atom_site_fract_y
_atom_site_fract_z
Si Si1 0.645499 0.210868 0.616868
Si Si2 0.781623 0.602978 0.594182
Si Si3 0.596242 0.000000 0.000000
Si Si4 0.083415 0.299586 0.672250
Si Si5 0.147269 0.621469 0.542858
Si Si6 0.415205 0.098719 0.754392
O O1 0.734286 0.265715 0.583334
O O2 0.624533 0.249065 0.750000
O O3 0.593992 0.207936 0.477584
O O4 0.630960 0.128520 0.671238
O O5 0.821814 0.643627 0.750000
O O6 0.775609 0.663978 0.491335
O O7 0.703080 0.528576 0.637371
O O8 0.831910 0.574225 0.513112
O O9 0.645655 0.022030 0.846956
O O10 0.517469 0.925560 0.978713
O O11 0.136035 0.272070 0.750000
O O12 0.079676 0.361104 0.773497
O O13 0.000000 0.227033 0.666667
O O14 0.120082 0.560041 0.416667
#
# Coordination Sequence:
#
# PCOD8326074 Si02
#       6
#    12  12   6  12  12  12
#     4  12  25  44  61  84 119 165 215 272 321 393
#     4  11  21  43  62  91 126 163 207 266 316 390
#     4  12  24  40  62  88 118 158 208 278 328 392
#     4  10  22  40  67  98 130 168 207 249 312 378
#     4  12  26  39  61  85 119 157 209 259 329 384
#     4  11  23  41  64  87 124 159 212 264 334 379
#
# _framework density 20.204402000000002
#
# number of rings (size 3 to 8) (size 9 to 14) (size 15 to 20)
#    0.000    0.727    3.636    4.909    2.545    2.909 
#    1.636    0.000    0.000    0.000    0.000    1.273 
#    0.000    0.000    0.000    0.000    0.000    0.000 
#
# Total GULP energy -817906.405605 kJ/mol
# GULP energy per Si atom -12392.521297 kJ/mol
# Density = 2.015842 g / cm^3
# Si number density = 20.204402 Si / 1000 Ang^3
#
#
#
# Elastic Constant Matrix: (Units=GPa)
#
#
# Indices 1 2 3 4 5 6 
#
# 1 84.3427 45.3157 40.4096 0.0000 0.0000 0.0000
# 2 45.3157 84.3427 40.4096 0.0000 0.0000 0.0000
# 3 40.4096 40.4096 125.6228 0.0000 0.0000 0.0000
# 4 0.0000 0.0000 0.0000 30.4307 0.0000 0.0000
# 5 0.0000 0.0000 0.0000 0.0000 30.4307 0.0000
# 6 0.0000 0.0000 0.0000 0.0000 0.0000 19.5135
#
#
#
# Elastic Compliance Matrix: (Units=1/GPa)
#
#
# Indices 1 2 3 4 5 6 
#
# 1 0.017635 -0.007988 -0.003103 0.000000 0.000000 0.000000
# 2 -0.007988 0.017635 -0.003103 0.000000 0.000000 0.000000
# 3 -0.003103 -0.003103 0.009957 0.000000 0.000000 0.000000
# 4 0.000000 0.000000 0.000000 0.032862 0.000000 0.000000
# 5 0.000000 0.000000 0.000000 0.000000 0.032862 0.000000
# 6 0.000000 0.000000 0.000000 0.000000 0.000000 0.051247
#
#
# Mechanical properties :
#
#
# Convention : Reuss Voigt Hill
#
# Bulk Modulus (GPa) = 59.39000 60.73090 60.06045
# Shear Modulus (GPa) = 25.48445 27.28653 26.38549
#
# Velocity S-wave (km/s) = 3.55538 3.67893 3.61768
# Velocity P-wave (km/s) = 6.80534 6.94043 6.87322
#
# Compressibility (1/GPa) = 0.01683785
#
# Stress axis : x y z
#
# Youngs Moduli (GPa) = 56.70527 56.70527 100.43455
#
# Poissons Ratio (x) = 0.45297 0.31166
# Poissons Ratio (y) = 0.45297 0.31166
# Poissons Ratio (z) = 0.17596 0.17596
#
# Static dielectric constant tensor:
#      x y z
#    x 3.603790 0.000000 0.000000 
#    y 0.000000 3.603790 0.000000 
#    z 0.000000 0.000000 4.979250 
# 
# 
# High freq. dielectric constant tensor:
#      x y z
#    x 1.764990 0.000000 0.000000 
#    y 0.000000 1.764990 0.000000 
#    z 0.000000 0.000000 1.825120 
# 
# From -- ./inp_files/3353.got.cif
#   From: 2010.03.12/outbox.cif.g09.slc.cpg/sg179_2_cif.got.tgz:3353.got - 2010.04.02 07:08:42.
