data_PCOD8326900
_publ_section_title
;
Structure prediction by ZEFSAII (Michael W. Deem and Ramdas Pophale) SiO2 
 PCOD8326900
Probable space group: P -6 M 2
;
_chemical_formula_sum "Si O2"
_cell_formula_units_Z 54
_cell_length_a 26.287746
_cell_length_b 26.287746
_cell_length_c 8.205610
_cell_angle_alpha 90.000000
_cell_angle_beta 90.000000
_cell_angle_gamma 120.000000
_cell_volume 4910.754272
_symmetry_space_group_name_H-M "P -6 M 2"
_symmetry_group_IT_number 187
_symmetry_cell_setting 'hexagonal'
loop_
_space_group_symop_operation_xyz
x,y,z
-x+y,-x,-z
-y,x-y,z
x,y,-z
-x+y,-x,z
-y,x-y,-z
-y,-x,-z
-x+y,y,-z
x,x-y,-z
-x+y,y,z
x,x-y,z
-y,-x,z
loop_
_atom_site_type_symbol
_atom_site_label
_atom_site_fract_x
_atom_site_fract_y
_atom_site_fract_z
Si Si1 0.023932 0.451634 0.817562
Si Si2 0.488406 0.097348 0.315016
Si Si3 0.332348 0.785793 0.000000
Si Si4 0.488129 0.855274 0.318759
Si Si5 0.779959 0.446967 0.808489
O O1 0.019265 0.509633 0.805285
O O2 0.077418 0.459332 0.704186
O O3 0.961336 0.396435 0.764842
O O4 0.038454 0.441365 0.000000
O O5 0.471364 0.097673 0.500000
O O6 0.548108 0.096216 0.292296
O O7 0.496709 0.156797 0.233261
O O8 0.326849 0.816500 0.166832
O O9 0.280754 0.719247 0.000000
O O10 0.393492 0.786983 0.000000
O O11 0.496061 0.833817 0.500000
O O12 0.426445 0.852890 0.312778
O O13 0.727977 0.455953 0.734213
O O14 0.774662 0.387331 0.733582
O O15 0.773116 0.440411 0.000000
#
# Coordination Sequence:
#
# PCOD8326900 Si02
#       5
#    12  12   6  12  12
#     4   9  14  22  36  51  64  76  91 115 148 181
#     4   9  16  23  31  45  61  74  90 115 148 182
#     4  10  19  30  40  52  68  88 109 126 142 164
#     4   9  16  26  39  53  67  82 101 124 149 175
#     4   9  16  25  34  42  53  73 100 126 150 180
#
# _framework density 10.996274
#
# number of rings (size 3 to 8) (size 9 to 14) (size 15 to 20)
#    0.000    2.889    1.111    1.667    0.000    7.111 
#    0.000    0.000    0.000    2.667    0.000    0.000 
#    0.000    0.000    0.000    0.000    0.000    0.000 
#
# Total GULP energy -668996.880726 kJ/mol
# GULP energy per Si atom -12388.831125 kJ/mol
# Density = 1.097125 g / cm^3
# Si number density = 10.996274 Si / 1000 Ang^3
#
#
#
# Elastic Constant Matrix: (Units=GPa)
#
#
# Indices 1 2 3 4 5 6 
#
# 1 27.2502 15.9895 18.9312 0.0000 0.0000 0.0000
# 2 15.9895 27.2502 18.9312 0.0000 0.0000 0.0000
# 3 18.9312 18.9312 65.4835 0.0000 0.0000 0.0000
# 4 0.0000 0.0000 0.0000 9.0932 0.0000 0.0000
# 5 0.0000 0.0000 0.0000 0.0000 9.0932 0.0000
# 6 0.0000 0.0000 0.0000 0.0000 0.0000 5.6304
#
#
#
# Elastic Compliance Matrix: (Units=1/GPa)
#
#
# Indices 1 2 3 4 5 6 
#
# 1 0.059885 -0.028919 -0.008952 0.000000 0.000000 0.000000
# 2 -0.028919 0.059885 -0.008952 0.000000 0.000000 0.000000
# 3 -0.008952 -0.008952 0.020447 0.000000 0.000000 0.000000
# 4 0.000000 0.000000 0.000000 0.109973 0.000000 0.000000
# 5 0.000000 0.000000 0.000000 0.000000 0.109973 0.000000
# 6 0.000000 0.000000 0.000000 0.000000 0.000000 0.177609
#
#
# Mechanical properties :
#
#
# Convention : Reuss Voigt Hill
#
# Bulk Modulus (GPa) = 21.47307 25.29864 23.38585
# Shear Modulus (GPa) = 7.72867 9.17214 8.45040
#
# Velocity S-wave (km/s) = 2.65400 2.89123 2.77515
# Velocity P-wave (km/s) = 5.38160 5.84826 5.61977
#
# Compressibility (1/GPa) = 0.04656995
#
# Stress axis : x y z
#
# Youngs Moduli (GPa) = 16.69867 16.69867 48.90663
#
# Poissons Ratio (x) = 0.48291 0.43782
# Poissons Ratio (y) = 0.48291 0.43782
# Poissons Ratio (z) = 0.14949 0.14949
#
# Static dielectric constant tensor:
#      x y z
#    x 2.189180 0.000000 0.000000 
#    y 0.000000 2.189180 0.000000 
#    z 0.000000 0.000000 2.535800 
# 
# 
# High freq. dielectric constant tensor:
#      x y z
#    x 1.373030 0.000000 0.000000 
#    y 0.000000 1.373030 0.000000 
#    z 0.000000 0.000000 1.432640 
# 
# From -- ./inp_files/827.got.cif
#   From: 2010.03.12/outbox.cif.g09.slc.cpg/sg187_1_cif.got.tgz:827.got - 2010.04.01 11:58:23.
