data_PCOD8326844
_publ_section_title
;
Structure prediction by ZEFSAII (Michael W. Deem and Ramdas Pophale) SiO2 
 PCOD8326844
Probable space group: P -6 M 2
;
_chemical_formula_sum "Si O2"
_cell_formula_units_Z 90
_cell_length_a 22.181183
_cell_length_b 22.181183
_cell_length_c 14.156784
_cell_angle_alpha 90.000000
_cell_angle_beta 90.000000
_cell_angle_gamma 120.000000
_cell_volume 6032.046034
_symmetry_space_group_name_H-M "P -6 M 2"
_symmetry_group_IT_number 187
_symmetry_cell_setting 'hexagonal'
loop_
_space_group_symop_operation_xyz
x,y,z
-x+y,-x,-z
-y,x-y,z
x,y,-z
-x+y,-x,z
-y,x-y,-z
-y,-x,-z
-x+y,y,-z
x,x-y,-z
-x+y,y,z
x,x-y,z
-y,-x,z
loop_
_atom_site_type_symbol
_atom_site_label
_atom_site_fract_x
_atom_site_fract_y
_atom_site_fract_z
Si Si1 0.253152 0.887104 0.257887
Si Si2 0.374031 0.253560 0.888558
Si Si3 0.944052 0.405870 0.889611
Si Si4 0.752706 0.948007 0.394652
Si Si5 0.860378 0.861378 0.759352
Si Si6 0.334925 0.807694 0.000000
Si Si7 0.517900 0.901048 0.181616
Si Si8 0.236799 0.979750 0.888627
O O1 0.190767 0.809234 0.268980
O O2 0.253189 0.935296 0.343751
O O3 0.324611 0.884403 0.260906
O O4 0.246518 0.919191 0.158455
O O5 0.381041 0.190521 0.841897
O O6 0.436707 0.328062 0.851673
O O7 0.300916 0.246293 0.860095
O O8 0.378709 0.249227 0.000000
O O9 0.911597 0.455799 0.868930
O O10 0.017919 0.436087 0.840666
O O11 0.957734 0.403254 0.000000
O O12 0.757209 0.977857 0.500000
O O13 0.751316 0.875658 0.397744
O O14 0.819685 0.001962 0.334045
O O15 0.926356 0.852712 0.776577
O O16 0.809653 0.832555 0.849768
O O17 0.884893 0.942447 0.746641
O O18 0.345277 0.854788 0.090644
O O19 0.258038 0.741963 0.000000
O O20 0.390714 0.781427 0.000000
O O21 0.442075 0.884150 0.219932
O O22 0.229848 0.966457 0.000000
#
# Coordination Sequence:
#
# PCOD8326844 Si02
#       8
#    12  12  12  12  12   6  12  12
#     4  10  19  29  45  68  87 111 147 182 220 266
#     4   9  16  25  38  55  76 104 139 175 212 250
#     4   9  15  25  39  54  76 105 139 173 204 239
#     4   8  16  32  50  66  84 104 133 179 228 267
#     4  10  20  32  45  62  85 115 150 184 222 269
#     4  10  19  28  38  54  83 122 156 184 216 254
#     4  10  18  28  40  59  86 114 146 182 213 246
#     4  10  19  30  42  60  87 117 150 189 225 254
#
# _framework density 14.920310000000001
#
# number of rings (size 3 to 8) (size 9 to 14) (size 15 to 20)
#    0.000    2.533    2.000    2.200    0.933    2.133 
#    0.000    0.000    0.000    2.533    0.000    1.867 
#    0.000    0.000    0.000    0.000    0.000    0.000 
#
# Total GULP energy -1115561.643961 kJ/mol
# GULP energy per Si atom -12395.129377 kJ/mol
# Density = 1.488635 g / cm^3
# Si number density = 14.920310 Si / 1000 Ang^3
#
#
#
# Elastic Constant Matrix: (Units=GPa)
#
#
# Indices 1 2 3 4 5 6 
#
# 1 73.2170 23.8181 8.4610 0.0000 -0.0002 0.0000
# 2 23.8181 73.2170 8.4610 0.0000 0.0002 0.0000
# 3 8.4610 8.4610 49.9355 0.0000 0.0000 0.0000
# 4 0.0000 0.0000 0.0000 8.8530 0.0000 0.0002
# 5 -0.0002 0.0002 0.0000 0.0000 8.8530 0.0000
# 6 0.0000 0.0000 0.0000 0.0002 0.0000 24.6994
#
#
#
# Elastic Compliance Matrix: (Units=1/GPa)
#
#
# Indices 1 2 3 4 5 6 
#
# 1 0.015431 -0.004812 -0.001799 0.000000 0.000000 0.000000
# 2 -0.004812 0.015431 -0.001799 0.000000 0.000000 0.000000
# 3 -0.001799 -0.001799 0.020636 0.000000 0.000000 0.000000
# 4 0.000000 0.000000 0.000000 0.112956 0.000000 -0.000001
# 5 0.000000 0.000000 0.000000 0.000000 0.112956 0.000000
# 6 0.000000 0.000000 0.000000 -0.000001 0.000000 0.040487
#
#
# Mechanical properties :
#
#
# Convention : Reuss Voigt Hill
#
# Bulk Modulus (GPa) = 28.83759 30.87219 29.85489
# Shear Modulus (GPa) = 14.43928 18.85637 16.64782
#
# Velocity S-wave (km/s) = 3.11426 3.55886 3.34396
# Velocity P-wave (km/s) = 5.68341 6.13381 5.91290
#
# Compressibility (1/GPa) = 0.03467696
#
# Stress axis : x y z
#
# Youngs Moduli (GPa) = 64.80309 64.80309 48.45998
#
# Poissons Ratio (x) = 0.31183 0.08720
# Poissons Ratio (y) = 0.31183 0.08720
# Poissons Ratio (z) = 0.11660 0.11660
#
# Static dielectric constant tensor:
#      x y z
#    x 3.004480 0.000000 0.000000 
#    y 0.000000 3.004480 0.000000 
#    z 0.000000 0.000000 2.701280 
# 
# 
# High freq. dielectric constant tensor:
#      x y z
#    x 1.568030 0.000000 0.000000 
#    y 0.000000 1.568030 0.000000 
#    z 0.000000 0.000000 1.525510 
# 
# From -- ./inp_files/2756.got.cif
#   From: 2010.03.12/outbox.cif.g09.slc.cpg/sg187_2_cif.got.tgz:2756.got - 2010.04.01 11:58:23.
