data_PCOD8326288
_publ_section_title
;
Structure prediction by ZEFSAII (Michael W. Deem and Ramdas Pophale) SiO2 
 PCOD8326288
Probable space group: P 64 2 2
;
_chemical_formula_sum "Si O2"
_cell_formula_units_Z 72
_cell_length_a 14.780967
_cell_length_b 14.780967
_cell_length_c 18.095825
_cell_angle_alpha 90.000000
_cell_angle_beta 90.000000
_cell_angle_gamma 120.000000
_cell_volume 3423.849876
_symmetry_space_group_name_H-M "P 64 2 2"
_symmetry_group_IT_number 181
_symmetry_cell_setting 'hexagonal'
loop_
_space_group_symop_operation_xyz
x,y,z
x-y,x,2/3+z
-y,x-y,1/3+z
-x,-y,z
-x+y,-x,2/3+z
y,-x+y,1/3+z
x-y,-y,-z
-x,-x+y,2/3-z
y,x,1/3-z
-y,-x,1/3-z
-x+y,y,-z
x,x-y,2/3-z
loop_
_atom_site_type_symbol
_atom_site_label
_atom_site_fract_x
_atom_site_fract_y
_atom_site_fract_z
Si Si1 0.738182 0.461284 0.912446
Si Si2 0.278324 0.209445 0.061783
Si Si3 0.214910 0.915160 0.230868
Si Si4 0.401197 0.500935 0.262573
Si Si5 0.303005 0.150232 0.211326
Si Si6 0.892022 0.407073 0.101900
O O1 0.793250 0.391451 0.895538
O O2 0.808700 0.575033 0.877695
O O3 0.623311 0.411871 0.874745
O O4 0.737354 0.474708 0.000000
O O5 0.391234 0.301139 0.086434
O O6 0.254473 0.127351 0.127899
O O7 0.192461 0.246169 0.066827
O O8 0.283854 0.165200 0.980444
O O9 0.126639 0.873362 0.166667
O O10 0.293858 0.874144 0.209154
O O11 0.282686 0.039378 0.239147
O O12 0.500000 0.500000 0.226046
O O13 0.421849 0.519187 0.348698
O O14 0.000000 0.500000 0.138458
#
# Coordination Sequence:
#
# PCOD8326288 Si02
#       6
#    12  12  12  12  12  12
#     4  10  17  30  56  87 122 164 197 237 303 376
#     4  10  22  38  57  93 123 148 200 253 311 381
#     4  11  23  41  62  82 116 166 207 256 299 356
#     4   9  16  29  53  86 126 154 182 243 309 363
#     4  11  21  36  62  89 118 153 192 252 316 373
#     4   9  17  32  55  82 113 157 210 242 285 359
#
# _framework density 21.028959
#
# number of rings (size 3 to 8) (size 9 to 14) (size 15 to 20)
#    0.000    2.000    3.333    1.500    0.000    1.333 
#    3.000    1.667    0.000    4.000    0.000    0.000 
#    0.000    0.000    0.000    0.000    0.000    0.000 
#
# Total GULP energy -892098.901602 kJ/mol
# GULP energy per Si atom -12390.262522 kJ/mol
# Density = 2.098110 g / cm^3
# Si number density = 21.028959 Si / 1000 Ang^3
#
#
#
# Elastic Constant Matrix: (Units=GPa)
#
#
# Indices 1 2 3 4 5 6 
#
# 1 79.5828 27.1972 10.3290 0.0000 0.0000 0.0000
# 2 27.1972 79.5828 10.3290 0.0000 0.0000 0.0000
# 3 10.3290 10.3290 97.3118 0.0000 0.0000 0.0000
# 4 0.0000 0.0000 0.0000 16.6237 0.0000 0.0000
# 5 0.0000 0.0000 0.0000 0.0000 16.6237 0.0000
# 6 0.0000 0.0000 0.0000 0.0000 0.0000 26.1928
#
#
#
# Elastic Compliance Matrix: (Units=1/GPa)
#
#
# Indices 1 2 3 4 5 6 
#
# 1 0.014325 -0.004764 -0.001015 0.000000 0.000000 0.000000
# 2 -0.004764 0.014325 -0.001015 0.000000 0.000000 0.000000
# 3 -0.001015 -0.001015 0.010492 0.000000 0.000000 0.000000
# 4 0.000000 0.000000 0.000000 0.060155 0.000000 0.000000
# 5 0.000000 0.000000 0.000000 0.000000 0.060155 0.000000
# 6 0.000000 0.000000 0.000000 0.000000 0.000000 0.038178
#
#
# Mechanical properties :
#
#
# Convention : Reuss Voigt Hill
#
# Bulk Modulus (GPa) = 39.13134 39.13197 39.13165
# Shear Modulus (GPa) = 22.75450 25.79617 24.27533
#
# Velocity S-wave (km/s) = 3.29303 3.50622 3.40130
# Velocity P-wave (km/s) = 5.75391 5.91950 5.83729
#
# Compressibility (1/GPa) = 0.02555497
#
# Stress axis : x y z
#
# Youngs Moduli (GPa) = 69.80648 69.80648 95.31357
#
# Poissons Ratio (x) = 0.33255 0.09673
# Poissons Ratio (y) = 0.33255 0.09673
# Poissons Ratio (z) = 0.07084 0.07084
#
# Static dielectric constant tensor:
#      x y z
#    x 3.786740 0.000000 0.000000 
#    y 0.000000 3.786740 0.000000 
#    z 0.000000 0.000000 3.796850 
# 
# 
# High freq. dielectric constant tensor:
#      x y z
#    x 1.808000 0.000000 0.000000 
#    y 0.000000 1.808000 0.000000 
#    z 0.000000 0.000000 1.824660 
# 
# From -- ./inp_files/7774.got.cif
#   From: 2010.03.12/outbox.cif.g09.slc.cpg/sg181_4_cif.got.tgz:7774.got - 2010.04.01 11:42:41.
