data_PCOD8326560
_publ_section_title
;
Structure prediction by ZEFSAII (Michael W. Deem and Ramdas Pophale) SiO2 
 PCOD8326560
Probable space group: P 6 C C
;
_chemical_formula_sum "Si O2"
_cell_formula_units_Z 84
_cell_length_a 33.589081
_cell_length_b 33.589081
_cell_length_c 5.156349
_cell_angle_alpha 90.000000
_cell_angle_beta 90.000000
_cell_angle_gamma 120.000000
_cell_volume 5038.127794
_symmetry_space_group_name_H-M "P 6 C C"
_symmetry_group_IT_number 184
_symmetry_cell_setting 'hexagonal'
loop_
_space_group_symop_operation_xyz
x,y,z
x-y,x,z
-y,x-y,z
-x,-y,z
-x+y,-x,z
y,-x+y,z
-x+y,y,1/2+z
x,x-y,1/2+z
-y,-x,1/2+z
y,x,1/2+z
x-y,-y,1/2+z
-x,-x+y,1/2+z
loop_
_atom_site_type_symbol
_atom_site_label
_atom_site_fract_x
_atom_site_fract_y
_atom_site_fract_z
Si Si1 0.756736 0.285068 0.121930
Si Si2 0.283895 0.401961 0.500270
Si Si3 0.971404 0.594331 0.911864
Si Si4 0.659566 0.844506 0.512093
Si Si5 0.488493 0.559561 0.827311
Si Si6 0.434279 0.613134 0.798753
Si Si7 0.255490 0.826312 0.492092
O O1 0.716749 0.266094 0.342311
O O2 0.796471 0.334452 0.211433
O O3 0.778764 0.252575 0.073432
O O4 0.327249 0.394976 0.504170
O O5 0.237364 0.351938 0.543795
O O6 0.282433 0.420176 0.217882
O O7 0.285528 0.435768 0.730886
O O8 0.953814 0.540493 0.921219
O O9 0.988078 0.610319 0.618962
O O10 0.687890 0.839082 0.749477
O O11 0.611347 0.796769 0.445815
O O12 0.480796 0.537533 0.540992
O O13 0.470363 0.595437 0.810856
O O14 0.393883 0.587019 0.586008
#
# Coordination Sequence:
#
# PCOD8326560 Si02
#       7
#    12  12  12  12  12  12  12
#     4  12  22  33  54  82 103 117 133 162 205 252
#     4  10  19  32  47  64  94 123 139 165 204 243
#     4  12  25  37  50  69  92 121 155 183 211 254
#     4   8  14  25  42  65  88 108 129 155 195 246
#     4  10  22  39  57  72  84 110 146 187 230 243
#     4  10  22  40  58  74  96 120 149 180 208 251
#     4  10  18  30  50  76  97 112 133 167 213 261
#
# _framework density 16.672861000000001
#
# number of rings (size 3 to 8) (size 9 to 14) (size 15 to 20)
#    0.000    1.714    0.000    6.857    0.000    5.143 
#    0.000    0.000    0.000    5.714    0.000    0.000 
#    0.000    0.000    0.000    0.000    0.000    0.000 
#
# Total GULP energy -1040881.694378 kJ/mol
# GULP energy per Si atom -12391.448743 kJ/mol
# Density = 1.663491 g / cm^3
# Si number density = 16.672861 Si / 1000 Ang^3
#
#
#
# Elastic Constant Matrix: (Units=GPa)
#
#
# Indices 1 2 3 4 5 6 
#
# 1 44.8116 13.7662 17.8700 0.0000 0.0000 0.0000
# 2 13.7662 44.8116 17.8700 0.0000 0.0000 0.0000
# 3 17.8700 17.8700 108.0116 0.0000 0.0000 0.0000
# 4 0.0000 0.0000 0.0000 21.6531 0.0000 0.0000
# 5 0.0000 0.0000 0.0000 0.0000 21.6531 0.0000
# 6 0.0000 0.0000 0.0000 0.0000 0.0000 15.5227
#
#
#
# Elastic Compliance Matrix: (Units=1/GPa)
#
#
# Indices 1 2 3 4 5 6 
#
# 1 0.025599 -0.006611 -0.003141 0.000000 0.000000 0.000000
# 2 -0.006611 0.025599 -0.003141 0.000000 0.000000 0.000000
# 3 -0.003141 -0.003141 0.010298 0.000000 0.000000 0.000000
# 4 0.000000 0.000000 0.000000 0.046183 0.000000 0.000000
# 5 0.000000 0.000000 0.000000 0.000000 0.046183 0.000000
# 6 0.000000 0.000000 0.000000 0.000000 0.000000 0.064422
#
#
# Mechanical properties :
#
#
# Convention : Reuss Voigt Hill
#
# Bulk Modulus (GPa) = 28.00503 32.96081 30.48292
# Shear Modulus (GPa) = 19.53311 21.64101 20.58706
#
# Velocity S-wave (km/s) = 3.42651 3.60666 3.51773
# Velocity P-wave (km/s) = 5.69981 6.09557 5.90101
#
# Compressibility (1/GPa) = 0.03570787
#
# Stress axis : x y z
#
# Youngs Moduli (GPa) = 39.06326 39.06326 97.10855
#
# Poissons Ratio (x) = 0.25827 0.30506
# Poissons Ratio (y) = 0.25827 0.30506
# Poissons Ratio (z) = 0.12272 0.12272
#
# Static dielectric constant tensor:
#      x y z
#    x 2.790410 0.000000 0.000000 
#    y 0.000000 2.790410 0.000000 
#    z 0.000000 0.000000 3.873260 
# 
# 
# High freq. dielectric constant tensor:
#      x y z
#    x 1.592010 0.000000 0.000000 
#    y 0.000000 1.592010 0.000000 
#    z 0.000000 0.000000 1.687490 
# 
# From -- ./inp_files/39.got.cif
#   From: 2010.03.12/outbox.cif.g09.slc.cpg/sg184_cif.got.tgz:39.got - 2010.04.01 11:54:36.
