data_PCOD8326355
_publ_section_title
;
Structure prediction by ZEFSAII (Michael W. Deem and Ramdas Pophale) SiO2 
 PCOD8326355
Probable space group: P 64 2 2
;
_chemical_formula_sum "Si O2"
_cell_formula_units_Z 60
_cell_length_a 17.812636
_cell_length_b 17.812636
_cell_length_c 14.228840
_cell_angle_alpha 90.000000
_cell_angle_beta 90.000000
_cell_angle_gamma 120.000000
_cell_volume 3909.817751
_symmetry_space_group_name_H-M "P 64 2 2"
_symmetry_group_IT_number 181
_symmetry_cell_setting 'hexagonal'
loop_
_space_group_symop_operation_xyz
x,y,z
x-y,x,2/3+z
-y,x-y,1/3+z
-x,-y,z
-x+y,-x,2/3+z
y,-x+y,1/3+z
x-y,-y,-z
-x,-x+y,2/3-z
y,x,1/3-z
-y,-x,1/3-z
-x+y,y,-z
x,x-y,2/3-z
loop_
_atom_site_type_symbol
_atom_site_label
_atom_site_fract_x
_atom_site_fract_y
_atom_site_fract_z
Si Si1 0.504573 0.830348 0.886671
Si Si2 0.687393 0.478249 0.757497
Si Si3 0.443763 0.149772 0.283852
Si Si4 0.167084 0.564287 0.730767
Si Si5 0.965493 0.565203 0.594814
O O1 0.502845 0.751423 0.833334
O O2 0.409940 0.819200 0.882440
O O3 0.572024 0.917963 0.832041
O O4 0.531836 0.836517 0.995669
O O5 0.725034 0.545569 0.842409
O O6 0.739579 0.427324 0.742266
O O7 0.398364 0.199182 0.333334
O O8 0.535593 0.180607 0.334852
O O9 0.384899 0.045105 0.288897
O O10 0.128514 0.564257 0.833334
O O11 0.100758 0.472844 0.682140
O O12 0.000000 0.500000 0.570675
#
# Coordination Sequence:
#
# PCOD8326355 Si02
#       5
#    12  12  12  12  12
#     4  11  20  32  49  69  96 123 163 212 253 295
#     4  11  20  29  49  70  90 123 162 204 254 295
#     4  11  22  35  46  66  93 125 166 213 251 295
#     4  11  20  32  50  68  95 124 165 211 255 292
#     4  10  21  36  46  69  96 125 168 211 259 296
#
# _framework density 15.345984
#
# number of rings (size 3 to 8) (size 9 to 14) (size 15 to 20)
#    0.000    1.200    8.000    0.600    2.800    4.400 
#    0.000    0.000    0.000    0.000    0.000    0.000 
#    0.000    0.000    0.000    0.000    0.000   10.000 
#
# Total GULP energy -743810.222649 kJ/mol
# GULP energy per Si atom -12396.837044 kJ/mol
# Density = 1.531106 g / cm^3
# Si number density = 15.345984 Si / 1000 Ang^3
#
#
#
# Elastic Constant Matrix: (Units=GPa)
#
#
# Indices 1 2 3 4 5 6 
#
# 1 56.7417 15.7388 32.0406 0.0000 0.0000 0.0000
# 2 15.7388 56.7417 32.0406 0.0000 0.0000 0.0000
# 3 32.0406 32.0406 127.7832 0.0000 0.0000 0.0000
# 4 0.0000 0.0000 0.0000 7.9369 0.0000 0.0000
# 5 0.0000 0.0000 0.0000 0.0000 7.9369 0.0000
# 6 0.0000 0.0000 0.0000 0.0000 0.0000 20.5015
#
#
#
# Elastic Compliance Matrix: (Units=1/GPa)
#
#
# Indices 1 2 3 4 5 6 
#
# 1 0.021058 -0.003331 -0.004445 0.000000 0.000000 0.000000
# 2 -0.003331 0.021058 -0.004445 0.000000 0.000000 0.000000
# 3 -0.004445 -0.004445 0.010055 0.000000 0.000000 0.000000
# 4 0.000000 0.000000 0.000000 0.125994 0.000000 0.000000
# 5 0.000000 0.000000 0.000000 0.000000 0.125994 0.000000
# 6 0.000000 0.000000 0.000000 0.000000 0.000000 0.048777
#
#
# Mechanical properties :
#
#
# Convention : Reuss Voigt Hill
#
# Bulk Modulus (GPa) = 36.06375 44.54519 40.30447
# Shear Modulus (GPa) = 12.93262 18.03814 15.48538
#
# Velocity S-wave (km/s) = 2.90614 3.43218 3.18005
# Velocity P-wave (km/s) = 5.90020 6.69303 6.30908
#
# Compressibility (1/GPa) = 0.02772867
#
# Stress axis : x y z
#
# Youngs Moduli (GPa) = 47.48895 47.48895 99.45551
#
# Poissons Ratio (x) = 0.15818 0.44206
# Poissons Ratio (y) = 0.15818 0.44206
# Poissons Ratio (z) = 0.21108 0.21108
#
# Static dielectric constant tensor:
#      x y z
#    x 2.834320 0.000000 0.000000 
#    y 0.000000 2.834320 0.000000 
#    z 0.000000 0.000000 3.416210 
# 
# 
# High freq. dielectric constant tensor:
#      x y z
#    x 1.545530 0.000000 0.000000 
#    y 0.000000 1.545530 0.000000 
#    z 0.000000 0.000000 1.619020 
# 
# From -- ./inp_files/6298.got.cif
#   From: 2010.03.12/outbox.cif.g09.slc.cpg/sg181_4_cif.got.tgz:6298.got - 2010.04.01 11:42:41.
