data_PCOD8326620
_publ_section_title
;
Structure prediction by ZEFSAII (Michael W. Deem and Ramdas Pophale) SiO2 
 PCOD8326620
Probable space group: P 63 C M
;
_chemical_formula_sum "Si O2"
_cell_formula_units_Z 42
_cell_length_a 24.309009
_cell_length_b 24.309009
_cell_length_c 5.271296
_cell_angle_alpha 90.000000
_cell_angle_beta 90.000000
_cell_angle_gamma 120.000000
_cell_volume 2697.631005
_symmetry_space_group_name_H-M "P 63 C M"
_symmetry_group_IT_number 185
_symmetry_cell_setting 'hexagonal'
loop_
_space_group_symop_operation_xyz
x,y,z
x-y,x,1/2+z
-y,x-y,z
-x,-y,1/2+z
-x+y,-x,z
y,-x+y,1/2+z
-x+y,y,1/2+z
x,x-y,1/2+z
-y,-x,1/2+z
y,x,z
x-y,-y,z
-x,-x+y,z
loop_
_atom_site_type_symbol
_atom_site_label
_atom_site_fract_x
_atom_site_fract_y
_atom_site_fract_z
Si Si1 0.925617 0.782791 0.298490
Si Si2 0.676349 0.070465 0.806965
Si Si3 0.000000 0.464208 0.329197
Si Si4 0.269751 0.924764 0.806877
O O1 0.891565 0.797314 0.527675
O O2 0.906673 0.709590 0.311529
O O3 0.000000 0.828753 0.331001
O O4 0.715479 0.105784 0.553557
O O5 0.668690 0.000000 0.805847
O O6 0.716699 0.106017 0.057970
O O7 0.605996 0.063026 0.810040
O O8 0.000000 0.507427 0.102564
O O9 0.318021 0.000000 0.804217
#
# Coordination Sequence:
#
# PCOD8326620 Si02
#       4
#    12  12   6  12
#     4  11  22  35  53  71  88 105 132 178 240 307
#     4   8  15  23  37  53  79 108 141 166 205 233
#     4  10  16  22  34  56  86 116 150 178 200 218
#     4   9  15  28  42  59  77 104 133 168 210 271
#
# _framework density 15.569216000000001
#
# number of rings (size 3 to 8) (size 9 to 14) (size 15 to 20)
#    0.857    1.714    0.000    4.286    0.000    4.571 
#    0.000    0.000    0.000    5.714    0.000    0.000 
#    0.000    0.000    0.000    0.000    0.000    0.000 
#
# Total GULP energy -520396.799498 kJ/mol
# GULP energy per Si atom -12390.399988 kJ/mol
# Density = 1.553378 g / cm^3
# Si number density = 15.569216 Si / 1000 Ang^3
#
#
#
# Elastic Constant Matrix: (Units=GPa)
#
#
# Indices 1 2 3 4 5 6 
#
# 1 44.9791 14.4205 17.2079 0.0000 0.0000 0.0000
# 2 14.4205 44.9791 17.2079 0.0000 0.0000 0.0000
# 3 17.2079 17.2079 129.5352 0.0000 0.0000 0.0000
# 4 0.0000 0.0000 0.0000 24.2726 0.0000 0.0000
# 5 0.0000 0.0000 0.0000 0.0000 24.2726 0.0000
# 6 0.0000 0.0000 0.0000 0.0000 0.0000 15.2793
#
#
#
# Elastic Compliance Matrix: (Units=1/GPa)
#
#
# Indices 1 2 3 4 5 6 
#
# 1 0.025481 -0.007243 -0.002423 0.000000 0.000000 0.000000
# 2 -0.007243 0.025481 -0.002423 0.000000 0.000000 0.000000
# 3 -0.002423 -0.002423 0.008364 0.000000 0.000000 0.000000
# 4 0.000000 0.000000 0.000000 0.041199 0.000000 0.000000
# 5 0.000000 0.000000 0.000000 0.000000 0.041199 0.000000
# 6 0.000000 0.000000 0.000000 0.000000 0.000000 0.065448
#
#
# Mechanical properties :
#
#
# Convention : Reuss Voigt Hill
#
# Bulk Modulus (GPa) = 28.44961 35.24067 31.84514
# Shear Modulus (GPa) = 20.57060 24.14204 22.35632
#
# Velocity S-wave (km/s) = 3.63882 3.94207 3.79348
# Velocity P-wave (km/s) = 5.99728 6.58816 6.29965
#
# Compressibility (1/GPa) = 0.03514987
#
# Stress axis : x y z
#
# Youngs Moduli (GPa) = 39.24421 39.24421 119.56505
#
# Poissons Ratio (x) = 0.28423 0.28970
# Poissons Ratio (y) = 0.28423 0.28970
# Poissons Ratio (z) = 0.09509 0.09509
#
# Static dielectric constant tensor:
#      x y z
#    x 2.608300 0.000000 0.000000 
#    y 0.000000 2.608300 0.000000 
#    z 0.000000 0.000000 3.434380 
# 
# 
# High freq. dielectric constant tensor:
#      x y z
#    x 1.549240 0.000000 0.000000 
#    y 0.000000 1.549240 0.000000 
#    z 0.000000 0.000000 1.633210 
# 
# From -- ./inp_files/81.got.cif
#   From: 2010.03.12/outbox.cif.g09.slc.cpg/sg185_cif.got.tgz:81.got - 2010.04.01 11:55:19.
