data_PCOD8326276
_publ_section_title
;
Structure prediction by ZEFSAII (Michael W. Deem and Ramdas Pophale) SiO2 
 PCOD8326276
Probable space group: P 62 2 2
;
_chemical_formula_sum "Si O2"
_cell_formula_units_Z 24
_cell_length_a 15.483932
_cell_length_b 15.483932
_cell_length_c 4.753420
_cell_angle_alpha 90.000000
_cell_angle_beta 90.000000
_cell_angle_gamma 120.000000
_cell_volume 986.959500
_symmetry_space_group_name_H-M "P 62 2 2"
_symmetry_group_IT_number 180
_symmetry_cell_setting 'hexagonal'
loop_
_space_group_symop_operation_xyz
x,y,z
x-y,x,1/3+z
-y,x-y,2/3+z
-x,-y,z
-x+y,-x,1/3+z
y,-x+y,2/3+z
x-y,-y,-z
-x,-x+y,1/3-z
y,x,2/3-z
-y,-x,2/3-z
-x+y,y,-z
x,x-y,1/3-z
loop_
_atom_site_type_symbol
_atom_site_label
_atom_site_fract_x
_atom_site_fract_y
_atom_site_fract_z
Si Si1 0.705020 0.000000 0.500000
Si Si2 0.495276 0.186205 0.417550
Si Si3 0.821452 0.000000 0.000000
O O1 0.686819 0.082677 0.652898
O O2 0.738705 0.952322 0.752712
O O3 0.581821 0.163642 0.500000
O O4 0.465327 0.232664 0.666667
O O5 0.531788 0.265894 0.166667
O O6 0.919733 0.080268 0.833334
#
# Coordination Sequence:
#
# PCOD8326276 Si02
#       3
#     6  12   6
#     4  12  25  46  73 104 142 190 240 294 357 428
#     4  12  25  44  70 103 141 185 235 292 353 421
#     4  12  26  48  74 104 142 188 240 298 359 426
#
# _framework density 24.317108999999999
#
# number of rings (size 3 to 8) (size 9 to 14) (size 15 to 20)
#    0.000    0.000    0.000   12.750    0.000    0.000 
#    0.000   18.750    0.000    0.000    0.000    0.000 
#    0.000    0.000    0.000    0.000    0.000    0.000 
#
# Total GULP energy -297530.922455 kJ/mol
# GULP energy per Si atom -12397.121769 kJ/mol
# Density = 2.426176 g / cm^3
# Si number density = 24.317109 Si / 1000 Ang^3
#
#
#
# Elastic Constant Matrix: (Units=GPa)
#
#
# Indices 1 2 3 4 5 6 
#
# 1 153.2425 72.7859 54.3805 0.0000 0.0000 0.0000
# 2 72.7859 153.2425 54.3805 0.0000 0.0000 0.0000
# 3 54.3805 54.3805 159.0782 0.0000 0.0000 0.0000
# 4 0.0000 0.0000 0.0000 44.7144 0.0000 0.0000
# 5 0.0000 0.0000 0.0000 0.0000 44.7144 0.0000
# 6 0.0000 0.0000 0.0000 0.0000 0.0000 40.2283
#
#
#
# Elastic Compliance Matrix: (Units=1/GPa)
#
#
# Indices 1 2 3 4 5 6 
#
# 1 0.008862 -0.003567 -0.001810 0.000000 0.000000 0.000000
# 2 -0.003567 0.008862 -0.001810 0.000000 0.000000 0.000000
# 3 -0.001810 -0.001810 0.007524 0.000000 0.000000 0.000000
# 4 0.000000 0.000000 0.000000 0.022364 0.000000 0.000000
# 5 0.000000 0.000000 0.000000 0.000000 0.022364 0.000000
# 6 0.000000 0.000000 0.000000 0.000000 0.000000 0.024858
#
#
# Mechanical properties :
#
#
# Convention : Reuss Voigt Hill
#
# Bulk Modulus (GPa) = 91.96551 92.07300 92.01926
# Shear Modulus (GPa) = 44.31306 44.86586 44.58946
#
# Velocity S-wave (km/s) = 4.27347 4.30004 4.28678
# Velocity P-wave (km/s) = 7.88996 7.91198 7.90098
#
# Compressibility (1/GPa) = 0.01087364
#
# Stress axis : x y z
#
# Youngs Moduli (GPa) = 112.83943 112.83943 132.91129
#
# Poissons Ratio (x) = 0.40249 0.24059
# Poissons Ratio (y) = 0.40249 0.24059
# Poissons Ratio (z) = 0.20426 0.20426
#
# Static dielectric constant tensor:
#      x y z
#    x 4.275010 0.000000 0.000000 
#    y 0.000000 4.275010 0.000000 
#    z 0.000000 0.000000 4.530740 
# 
# 
# High freq. dielectric constant tensor:
#      x y z
#    x 1.973350 0.000000 0.000000 
#    y 0.000000 1.973350 0.000000 
#    z 0.000000 0.000000 1.979650 
# 
# From -- ./inp_files/229.got.cif
#   From: 2010.03.12/outbox.cif.g09.slc.cpg/sg180_1_cif.got.tgz:229.got - 2010.04.01 11:35:50.
