data_PCOD8326392
_publ_section_title
;
Structure prediction by ZEFSAII (Michael W. Deem and Ramdas Pophale) SiO2 
 PCOD8326392
Probable space group: P 64 2 2
;
_chemical_formula_sum "Si O2"
_cell_formula_units_Z 57
_cell_length_a 13.903342
_cell_length_b 13.903342
_cell_length_c 13.828776
_cell_angle_alpha 90.000000
_cell_angle_beta 90.000000
_cell_angle_gamma 120.000000
_cell_volume 2315.009541
_symmetry_space_group_name_H-M "P 64 2 2"
_symmetry_group_IT_number 181
_symmetry_cell_setting 'hexagonal'
loop_
_space_group_symop_operation_xyz
x,y,z
x-y,x,2/3+z
-y,x-y,1/3+z
-x,-y,z
-x+y,-x,2/3+z
y,-x+y,1/3+z
x-y,-y,-z
-x,-x+y,2/3-z
y,x,1/3-z
-y,-x,1/3-z
-x+y,y,-z
x,x-y,2/3-z
loop_
_atom_site_type_symbol
_atom_site_label
_atom_site_fract_x
_atom_site_fract_y
_atom_site_fract_z
Si Si1 0.253047 0.746954 0.666667
Si Si2 0.405390 0.515353 0.273883
Si Si3 0.722995 0.103727 0.105838
Si Si4 0.500000 0.500000 0.666667
Si Si5 0.204246 0.297397 0.893073
Si Si6 0.909952 0.190068 0.958574
O O1 0.383053 0.789240 0.661424
O O2 0.197139 0.776330 0.576579
O O3 0.500000 0.500000 0.326834
O O4 0.444575 0.555426 0.166667
O O5 0.289818 0.404372 0.278906
O O6 0.781126 0.218875 0.166667
O O7 0.690685 0.005463 0.180998
O O8 0.609161 0.084259 0.059958
O O9 0.810787 0.103464 0.028095
O O10 0.103004 0.236841 0.814928
O O11 0.196525 0.231280 0.996790
#
# Coordination Sequence:
#
# PCOD8326392 Si02
#       6
#     6  12  12   3  12  12
#     4  12  24  41  70 104 142 212 243 318 386 462
#     4  11  23  41  66 101 155 189 254 310 376 459
#     4  10  24  43  67  99 142 191 244 304 366 453
#     4  12  20  42  76 100 148 196 250 292 380 454
#     4  11  23  42  70 102 141 191 263 305 393 462
#     4  11  22  45  69 104 144 203 249 322 381 471
#
# _framework density 24.621928
#
# number of rings (size 3 to 8) (size 9 to 14) (size 15 to 20)
#    0.000    1.053    6.316    0.000    0.000    5.053 
#    0.000    4.211    0.000    0.000    0.000   66.316 
#    0.000    0.000    0.000    0.000    0.000    0.000 
#
# Total GULP energy -706157.164383 kJ/mol
# GULP energy per Si atom -12388.722182 kJ/mol
# Density = 2.456589 g / cm^3
# Si number density = 24.621928 Si / 1000 Ang^3
#
#
#
# Elastic Constant Matrix: (Units=GPa)
#
#
# Indices 1 2 3 4 5 6 
#
# 1 117.8795 52.1154 41.0081 0.0000 0.0000 0.0000
# 2 52.1154 117.8795 41.0081 0.0000 0.0000 0.0000
# 3 41.0081 41.0081 148.0143 0.0000 0.0000 0.0000
# 4 0.0000 0.0000 0.0000 46.5406 0.0000 0.0000
# 5 0.0000 0.0000 0.0000 0.0000 46.5406 0.0000
# 6 0.0000 0.0000 0.0000 0.0000 0.0000 32.8820
#
#
#
# Elastic Compliance Matrix: (Units=1/GPa)
#
#
# Indices 1 2 3 4 5 6 
#
# 1 0.010998 -0.004208 -0.001881 0.000000 0.000000 0.000000
# 2 -0.004208 0.010998 -0.001881 0.000000 0.000000 0.000000
# 3 -0.001881 -0.001881 0.007799 0.000000 0.000000 0.000000
# 4 0.000000 0.000000 0.000000 0.021487 0.000000 0.000000
# 5 0.000000 0.000000 0.000000 0.000000 0.021487 0.000000
# 6 0.000000 0.000000 0.000000 0.000000 0.000000 0.030412
#
#
# Mechanical properties :
#
#
# Convention : Reuss Voigt Hill
#
# Bulk Modulus (GPa) = 72.18206 72.44848 72.31527
# Shear Modulus (GPa) = 40.40790 41.83544 41.12167
#
# Velocity S-wave (km/s) = 4.05549 4.12650 4.09115
# Velocity P-wave (km/s) = 7.16304 7.22442 7.19380
#
# Compressibility (1/GPa) = 0.01385386
#
# Stress axis : x y z
#
# Youngs Moduli (GPa) = 90.92547 90.92547 128.22941
#
# Poissons Ratio (x) = 0.38260 0.24123
# Poissons Ratio (y) = 0.38260 0.24123
# Poissons Ratio (z) = 0.17105 0.17105
#
# Static dielectric constant tensor:
#      x y z
#    x 4.304930 0.000000 0.000000 
#    y 0.000000 4.304930 0.000000 
#    z 0.000000 0.000000 5.819510 
# 
# 
# High freq. dielectric constant tensor:
#      x y z
#    x 1.971360 0.000000 0.000000 
#    y 0.000000 1.971360 0.000000 
#    z 0.000000 0.000000 2.000120 
# 
# From -- ./inp_files/6196.got.cif
#   From: 2010.03.12/outbox.cif.g09.slc.cpg/sg181_4_cif.got.tgz:6196.got - 2010.04.01 11:42:41.
