data_PCOD8326757
_publ_section_title
;
Structure prediction by ZEFSAII (Michael W. Deem and Ramdas Pophale) SiO2 
 PCOD8326757
Probable space group: P 63 M C
;
_chemical_formula_sum "Si O2"
_cell_formula_units_Z 84
_cell_length_a 32.197735
_cell_length_b 32.197735
_cell_length_c 5.123175
_cell_angle_alpha 90.000000
_cell_angle_beta 90.000000
_cell_angle_gamma 120.000000
_cell_volume 4599.604243
_symmetry_space_group_name_H-M "P 63 M C"
_symmetry_group_IT_number 186
_symmetry_cell_setting 'hexagonal'
loop_
_space_group_symop_operation_xyz
x,y,z
x-y,x,1/2+z
-y,x-y,z
-x,-y,1/2+z
-x+y,-x,z
y,-x+y,1/2+z
-x+y,y,z
x,x-y,z
-y,-x,z
y,x,1/2+z
x-y,-y,1/2+z
-x,-x+y,1/2+z
loop_
_atom_site_type_symbol
_atom_site_label
_atom_site_fract_x
_atom_site_fract_y
_atom_site_fract_z
Si Si1 0.646054 0.095531 0.690350
Si Si2 0.207232 0.649558 0.691743
Si Si3 0.701238 0.208377 0.690887
Si Si4 0.967621 0.839528 0.666552
Si Si5 0.029666 0.248815 0.255916
Si Si6 0.500511 0.406579 0.191144
Si Si7 0.693273 0.031904 0.653720
O O1 0.683648 0.152236 0.688933
O O2 0.610997 0.077087 0.441889
O O3 0.679311 0.072136 0.699421
O O4 0.610361 0.077705 0.935875
O O5 0.230162 0.615081 0.690502
O O6 0.224051 0.682348 0.438546
O O7 0.150400 0.617033 0.694600
O O8 0.224594 0.682544 0.944326
O O9 0.759553 0.240448 0.691448
O O10 0.926539 0.853077 0.701652
O O11 0.943500 0.781214 0.691129
O O12 0.991758 0.857742 0.385120
O O13 0.057391 0.305784 0.189003
O O14 0.016749 0.242675 0.562743
O O15 0.535505 0.464496 0.192737
O O16 0.677929 0.010676 0.364044
#
# Coordination Sequence:
#
# PCOD8326757 Si02
#       7
#    12  12  12  12  12  12  12
#     4  10  19  31  50  73  96 126 162 199 242 293
#     4   9  17  30  49  68  86 115 156 190 215 256
#     4  10  19  31  48  71  97 122 149 185 231 283
#     4  10  19  33  54  79 107 139 178 220 262 307
#     4   8  16  30  49  72  96 126 165 207 246 292
#     4   9  17  30  49  71  92 120 162 201 228 270
#     4  10  19  33  52  72  97 128 164 204 248 297
#
# _framework density 18.262440999999999
#
# number of rings (size 3 to 8) (size 9 to 14) (size 15 to 20)
#    0.000    2.571    0.000    2.571    0.000    3.429 
#    0.000    0.714    0.000   17.143    0.000   14.000 
#    0.000    0.000    0.000    0.000    0.000    0.000 
#
# Total GULP energy -1040948.762476 kJ/mol
# GULP energy per Si atom -12392.247172 kJ/mol
# Density = 1.822088 g / cm^3
# Si number density = 18.262441 Si / 1000 Ang^3
#
#
#
# Elastic Constant Matrix: (Units=GPa)
#
#
# Indices 1 2 3 4 5 6 
#
# 1 78.5759 43.0377 22.1898 0.0000 0.0000 0.0000
# 2 43.0377 78.5759 22.1898 0.0000 0.0000 0.0000
# 3 22.1898 22.1898 127.8140 0.0000 0.0000 0.0000
# 4 0.0000 0.0000 0.0000 27.0969 0.0000 0.0000
# 5 0.0000 0.0000 0.0000 0.0000 27.0969 0.0000
# 6 0.0000 0.0000 0.0000 0.0000 0.0000 17.7691
#
#
#
# Elastic Compliance Matrix: (Units=1/GPa)
#
#
# Indices 1 2 3 4 5 6 
#
# 1 0.018459 -0.009680 -0.001524 0.000000 0.000000 0.000000
# 2 -0.009680 0.018459 -0.001524 0.000000 0.000000 0.000000
# 3 -0.001524 -0.001524 0.008353 0.000000 0.000000 0.000000
# 4 0.000000 0.000000 0.000000 0.036905 0.000000 0.000000
# 5 0.000000 0.000000 0.000000 0.000000 0.036905 0.000000
# 6 0.000000 0.000000 0.000000 0.000000 0.000000 0.056277
#
#
# Mechanical properties :
#
#
# Convention : Reuss Voigt Hill
#
# Bulk Modulus (GPa) = 50.46807 51.08895 50.77851
# Shear Modulus (GPa) = 24.10586 27.56248 25.83417
#
# Velocity S-wave (km/s) = 3.63708 3.88911 3.76521
# Velocity P-wave (km/s) = 6.73296 6.94281 6.83869
#
# Compressibility (1/GPa) = 0.01981451
#
# Stress axis : x y z
#
# Youngs Moduli (GPa) = 54.17460 54.17460 119.71644
#
# Poissons Ratio (x) = 0.52440 0.18246
# Poissons Ratio (y) = 0.52440 0.18246
# Poissons Ratio (z) = 0.08257 0.08257
#
# Static dielectric constant tensor:
#      x y z
#    x 3.190450 0.000000 0.000000 
#    y 0.000000 3.190450 0.000000 
#    z 0.000000 0.000000 3.698870 
# 
# 
# High freq. dielectric constant tensor:
#      x y z
#    x 1.682320 0.000000 0.000000 
#    y 0.000000 1.682320 0.000000 
#    z 0.000000 0.000000 1.733820 
# 
# From -- ./inp_files/437.got.cif
#   From: 2010.03.12/outbox.cif.g09.slc.cpg/sg186_1_cif.got.tgz:437.got - 2010.04.01 11:56:34.
