data_PCOD8326428
_publ_section_title
;
Structure prediction by ZEFSAII (Michael W. Deem and Ramdas Pophale) SiO2 
 PCOD8326428
Probable space group: P 64 2 2
;
_chemical_formula_sum "Si O2"
_cell_formula_units_Z 84
_cell_length_a 17.221000
_cell_length_b 17.221000
_cell_length_c 13.647271
_cell_angle_alpha 90.000000
_cell_angle_beta 90.000000
_cell_angle_gamma 120.000000
_cell_volume 3505.041632
_symmetry_space_group_name_H-M "P 64 2 2"
_symmetry_group_IT_number 181
_symmetry_cell_setting 'hexagonal'
loop_
_space_group_symop_operation_xyz
x,y,z
x-y,x,2/3+z
-y,x-y,1/3+z
-x,-y,z
-x+y,-x,2/3+z
y,-x+y,1/3+z
x-y,-y,-z
-x,-x+y,2/3-z
y,x,1/3-z
-y,-x,1/3-z
-x+y,y,-z
x,x-y,2/3-z
loop_
_atom_site_type_symbol
_atom_site_label
_atom_site_fract_x
_atom_site_fract_y
_atom_site_fract_z
Si Si1 0.285932 0.977529 0.716025
Si Si2 0.938089 0.729771 0.253649
Si Si3 0.851296 0.862471 0.054571
Si Si4 0.215683 0.763292 0.885840
Si Si5 0.364563 0.872551 0.284127
Si Si6 0.609761 0.224407 0.883072
Si Si7 0.486840 0.161583 0.358102
O O1 0.242605 0.988298 0.816489
O O2 0.276142 0.880097 0.707640
O O3 0.227216 0.987918 0.631898
O O4 0.392151 0.045200 0.705800
O O5 0.929238 0.812575 0.297428
O O6 0.839202 0.647004 0.243300
O O7 0.000000 0.715917 0.333334
O O8 0.874355 0.874355 0.166667
O O9 0.944801 0.889602 0.000000
O O10 0.317945 0.804200 0.848418
O O11 0.147859 0.690079 0.806696
O O12 0.209888 0.713853 0.989133
O O13 0.362063 0.846561 0.169001
O O14 0.456651 0.887584 0.333684
O O15 0.641579 0.320790 0.833334
O O16 0.610171 0.220342 0.000000
O O17 0.537769 0.268884 0.333334
#
# Coordination Sequence:
#
# PCOD8326428 Si02
#       7
#    12  12  12  12  12  12  12
#     4  12  26  47  78 111 162 204 264 327 406 498
#     4  12  28  50  76 111 155 208 262 335 417 495
#     4  12  25  50  83 117 155 206 265 332 418 500
#     4  12  25  46  72 110 152 203 255 327 401 471
#     4  12  26  43  72 114 152 200 265 325 393 474
#     4  12  25  42  70 105 152 204 258 321 387 469
#     4  12  23  44  75 108 154 205 261 321 390 473
#
# _framework density 23.965478000000001
#
# number of rings (size 3 to 8) (size 9 to 14) (size 15 to 20)
#    0.000    0.000    7.143    3.000    2.000    0.857 
#    0.000    2.143    0.000    0.000    0.000    0.000 
#    0.000    0.000    0.000    0.000    0.000    0.000 
#
# Total GULP energy -1040902.188235 kJ/mol
# GULP energy per Si atom -12391.692717 kJ/mol
# Density = 2.391093 g / cm^3
# Si number density = 23.965478 Si / 1000 Ang^3
#
#
#
# Elastic Constant Matrix: (Units=GPa)
#
#
# Indices 1 2 3 4 5 6 
#
# 1 79.1923 68.2960 41.6433 0.0000 0.0000 0.0000
# 2 68.2960 79.1923 41.6433 0.0000 0.0000 0.0000
# 3 41.6433 41.6433 161.4282 0.0000 0.0000 0.0000
# 4 0.0000 0.0000 0.0000 38.3194 0.0000 0.0000
# 5 0.0000 0.0000 0.0000 0.0000 38.3194 0.0000
# 6 0.0000 0.0000 0.0000 0.0000 0.0000 5.4482
#
#
#
# Elastic Compliance Matrix: (Units=1/GPa)
#
#
# Indices 1 2 3 4 5 6 
#
# 1 0.049855 -0.041919 -0.002047 0.000000 0.000000 0.000000
# 2 -0.041919 0.049855 -0.002047 0.000000 0.000000 0.000000
# 3 -0.002047 -0.002047 0.007251 0.000000 0.000000 0.000000
# 4 0.000000 0.000000 0.000000 0.026096 0.000000 0.000000
# 5 0.000000 0.000000 0.000000 0.000000 0.026096 0.000000
# 6 0.000000 0.000000 0.000000 0.000000 0.000000 0.183548
#
#
# Mechanical properties :
#
#
# Convention : Reuss Voigt Hill
#
# Bulk Modulus (GPa) = 66.95966 69.21976 68.08971
# Shear Modulus (GPa) = 11.37118 27.63275 19.50196
#
# Velocity S-wave (km/s) = 2.18062 3.39930 2.85573
# Velocity P-wave (km/s) = 5.86011 6.65979 6.27271
#
# Compressibility (1/GPa) = 0.01493436
#
# Stress axis : x y z
#
# Youngs Moduli (GPa) = 20.05806 20.05806 137.91229
#
# Poissons Ratio (x) = 0.84081 0.28235
# Poissons Ratio (y) = 0.84081 0.28235
# Poissons Ratio (z) = 0.04107 0.04107
#
# Static dielectric constant tensor:
#      x y z
#    x 3.474880 0.000000 0.000000 
#    y 0.000000 3.474880 0.000000 
#    z 0.000000 0.000000 4.511710 
# 
# 
# High freq. dielectric constant tensor:
#      x y z
#    x 1.945880 0.000000 0.000000 
#    y 0.000000 1.945880 0.000000 
#    z 0.000000 0.000000 1.969530 
# 
# From -- ./inp_files/6512.got.cif
#   From: 2010.03.12/outbox.cif.g09.slc.cpg/sg181_4_cif.got.tgz:6512.got - 2010.04.01 11:42:41.
