data_PCOD8326475
_publ_section_title
;
Structure prediction by ZEFSAII (Michael W. Deem and Ramdas Pophale) SiO2 
 PCOD8326475
Probable space group: P 63 2 2
;
_chemical_formula_sum "Si O2"
_cell_formula_units_Z 36
_cell_length_a 8.427556
_cell_length_b 8.427556
_cell_length_c 29.114840
_cell_angle_alpha 90.000000
_cell_angle_beta 90.000000
_cell_angle_gamma 120.000000
_cell_volume 1790.805145
_symmetry_space_group_name_H-M "P 63 2 2"
_symmetry_group_IT_number 182
_symmetry_cell_setting 'hexagonal'
loop_
_space_group_symop_operation_xyz
x,y,z
x-y,x,1/2+z
-y,x-y,z
-x,-y,1/2+z
-x+y,-x,z
y,-x+y,1/2+z
x-y,-y,-z
-x,-x+y,-z
y,x,-z
-y,-x,1/2-z
-x+y,y,1/2-z
x,x-y,1/2-z
loop_
_atom_site_type_symbol
_atom_site_label
_atom_site_fract_x
_atom_site_fract_y
_atom_site_fract_z
Si Si1 0.666417 0.665712 0.230980
Si Si2 0.668188 0.538374 0.133392
Si Si3 0.800848 0.007551 0.448858
O O1 0.462964 0.537037 0.250000
O O2 0.795532 0.591063 0.250000
O O3 0.669116 0.660996 0.175784
O O4 0.739079 0.869540 0.250000
O O5 0.487484 0.335394 0.134716
O O6 0.666300 0.644282 0.087623
O O7 0.817131 0.824353 0.442593
O O8 0.721836 0.000000 0.500000
#
# Coordination Sequence:
#
# PCOD8326475 Si02
#       3
#    12  12  12
#     4  12  24  42  62  92 127 166 210 268 324 386
#     4  10  21  38  60  88 122 160 201 259 317 370
#     4   8  18  37  60  86 116 157 208 254 305 380
#
# _framework density 20.102692000000001
#
# number of rings (size 3 to 8) (size 9 to 14) (size 15 to 20)
#    1.333    0.667    3.333    1.000    4.667    0.000 
#    6.000    0.000    0.000    1.333    0.000    0.000 
#    0.000    0.000    0.000    0.000    0.000    0.000 
#
# Total GULP energy -446095.522744 kJ/mol
# GULP energy per Si atom -12391.542298 kJ/mol
# Density = 2.005694 g / cm^3
# Si number density = 20.102692 Si / 1000 Ang^3
#
#
#
# Elastic Constant Matrix: (Units=GPa)
#
#
# Indices 1 2 3 4 5 6 
#
# 1 58.8525 19.3631 49.0217 0.0000 0.0000 0.0000
# 2 19.3631 58.8525 49.0217 0.0000 0.0000 0.0000
# 3 49.0217 49.0217 203.9292 0.0000 0.0000 0.0000
# 4 0.0000 0.0000 0.0000 33.8779 0.0000 0.0000
# 5 0.0000 0.0000 0.0000 0.0000 33.8779 0.0000
# 6 0.0000 0.0000 0.0000 0.0000 0.0000 19.7447
#
#
#
# Elastic Compliance Matrix: (Units=1/GPa)
#
#
# Indices 1 2 3 4 5 6 
#
# 1 0.021811 -0.003512 -0.004399 0.000000 0.000000 0.000000
# 2 -0.003512 0.021811 -0.004399 0.000000 0.000000 0.000000
# 3 -0.004399 -0.004399 0.007019 0.000000 0.000000 0.000000
# 4 0.000000 0.000000 0.000000 0.029518 0.000000 0.000000
# 5 0.000000 0.000000 0.000000 0.000000 0.029518 0.000000
# 6 0.000000 0.000000 0.000000 0.000000 0.000000 0.050647
#
#
# Mechanical properties :
#
#
# Convention : Reuss Voigt Hill
#
# Bulk Modulus (GPa) = 38.42994 61.82747 50.12870
# Shear Modulus (GPa) = 25.82425 31.11526 28.46975
#
# Velocity S-wave (km/s) = 3.58804 3.93850 3.76735
# Velocity P-wave (km/s) = 6.02692 7.17669 6.62679
#
# Compressibility (1/GPa) = 0.02602138
#
# Stress axis : x y z
#
# Youngs Moduli (GPa) = 45.84798 45.84798 142.48039
#
# Poissons Ratio (x) = 0.16102 0.62675
# Poissons Ratio (y) = 0.16102 0.62675
# Poissons Ratio (z) = 0.20168 0.20168
#
# Static dielectric constant tensor:
#      x y z
#    x 3.209090 0.000000 0.000000 
#    y 0.000000 3.209090 0.000000 
#    z 0.000000 0.000000 3.562710 
# 
# 
# High freq. dielectric constant tensor:
#      x y z
#    x 1.754590 0.000000 0.000000 
#    y 0.000000 1.754590 0.000000 
#    z 0.000000 0.000000 1.796200 
# 
# From -- ./inp_files/5382.got.cif
#   From: 2010.03.12/outbox.cif.g09.slc.cpg/sg182_3_cif.got.tgz:5382.got - 2010.04.01 11:49:36.
