data_PCOD8326683
_publ_section_title
;
Structure prediction by ZEFSAII (Michael W. Deem and Ramdas Pophale) SiO2 
 PCOD8326683
Probable space group: P 63 C M
;
_chemical_formula_sum "Si O2"
_cell_formula_units_Z 96
_cell_length_a 14.203784
_cell_length_b 14.203784
_cell_length_c 26.072269
_cell_angle_alpha 90.000000
_cell_angle_beta 90.000000
_cell_angle_gamma 120.000000
_cell_volume 4555.306239
_symmetry_space_group_name_H-M "P 63 C M"
_symmetry_group_IT_number 185
_symmetry_cell_setting 'hexagonal'
loop_
_space_group_symop_operation_xyz
x,y,z
x-y,x,1/2+z
-y,x-y,z
-x,-y,1/2+z
-x+y,-x,z
y,-x+y,1/2+z
-x+y,y,1/2+z
x,x-y,1/2+z
-y,-x,1/2+z
y,x,z
x-y,-y,z
-x,-x+y,z
loop_
_atom_site_type_symbol
_atom_site_label
_atom_site_fract_x
_atom_site_fract_y
_atom_site_fract_z
Si Si1 0.227097 0.430905 0.501080
Si Si2 0.875836 0.419432 0.805836
Si Si3 0.758799 0.210797 0.751464
Si Si4 0.121711 0.557499 0.550751
Si Si5 0.872532 0.745187 0.078840
Si Si6 0.753141 0.876134 0.307530
Si Si7 0.687361 0.127486 0.642848
Si Si8 0.598025 0.875993 0.392748
O O1 0.198978 0.517025 0.527028
O O2 0.352121 0.471620 0.514442
O O3 0.148753 0.308784 0.522202
O O4 0.221541 0.430314 0.439385
O O5 0.855346 0.333632 0.760202
O O6 0.804901 0.476396 0.795558
O O7 0.850106 0.360919 0.861432
O O8 0.000000 0.512840 0.802166
O O9 0.805582 0.129236 0.760308
O O10 0.708429 0.194053 0.695148
O O11 0.160084 0.614896 0.606745
O O12 0.000000 0.454931 0.553634
O O13 0.833782 0.833782 0.080906
O O14 0.803485 0.644477 0.117399
O O15 0.000000 0.804445 0.092900
O O16 0.836802 0.836802 0.322239
O O17 0.679237 0.859954 0.356433
O O18 0.819989 0.000000 0.289440
O O19 0.621067 0.000000 0.654399
O O20 0.657504 0.000000 0.413153
#
# Coordination Sequence:
#
# PCOD8326683 Si02
#       8
#    12  12  12  12  12  12  12  12
#     4  11  21  38  60  82 113 153 196 241 295 356
#     4  10  22  38  57  86 121 154 193 243 293 344
#     4  11  21  38  61  85 116 156 200 241 290 353
#     4  10  22  38  56  83 115 146 187 239 293 347
#     4  10  21  37  58  85 117 154 198 247 298 353
#     4  10  21  37  58  86 120 157 198 243 292 348
#     4   9  20  38  58  83 118 154 191 243 298 348
#     4   9  20  38  58  84 120 156 193 243 297 349
#
# _framework density 21.074323
#
# number of rings (size 3 to 8) (size 9 to 14) (size 15 to 20)
#    0.000    2.000    0.000    5.250    0.000    6.000 
#    0.000    0.000    0.000    3.000    0.000    0.000 
#    0.000    0.000    0.000    0.000    0.000    0.000 
#
# Total GULP energy -1190194.972277 kJ/mol
# GULP energy per Si atom -12397.864295 kJ/mol
# Density = 2.102636 g / cm^3
# Si number density = 21.074323 Si / 1000 Ang^3
#
#
#
# Elastic Constant Matrix: (Units=GPa)
#
#
# Indices 1 2 3 4 5 6 
#
# 1 94.3162 27.6614 37.0866 0.0000 0.0000 0.0000
# 2 27.6614 94.3162 37.0866 0.0000 0.0000 0.0000
# 3 37.0866 37.0866 110.9728 0.0000 0.0000 0.0000
# 4 0.0000 0.0000 0.0000 23.0348 0.0000 0.0000
# 5 0.0000 0.0000 0.0000 0.0000 23.0348 0.0000
# 6 0.0000 0.0000 0.0000 0.0000 0.0000 33.3274
#
#
#
# Elastic Compliance Matrix: (Units=1/GPa)
#
#
# Indices 1 2 3 4 5 6 
#
# 1 0.012646 -0.002357 -0.003439 0.000000 0.000000 0.000000
# 2 -0.002357 0.012646 -0.003439 0.000000 0.000000 0.000000
# 3 -0.003439 -0.003439 0.011310 0.000000 0.000000 0.000000
# 4 0.000000 0.000000 0.000000 0.043413 0.000000 0.000000
# 5 0.000000 0.000000 0.000000 0.000000 0.043413 0.000000
# 6 0.000000 0.000000 0.000000 0.000000 0.000000 0.030005
#
#
# Mechanical properties :
#
#
# Convention : Reuss Voigt Hill
#
# Bulk Modulus (GPa) = 55.14641 55.91935 55.53288
# Shear Modulus (GPa) = 28.09866 29.06409 28.58137
#
# Velocity S-wave (km/s) = 3.65542 3.71768 3.68668
# Velocity P-wave (km/s) = 6.63630 6.70971 6.67311
#
# Compressibility (1/GPa) = 0.01813355
#
# Stress axis : x y z
#
# Youngs Moduli (GPa) = 79.07676 79.07676 88.42087
#
# Poissons Ratio (x) = 0.18636 0.30404
# Poissons Ratio (y) = 0.18636 0.30404
# Poissons Ratio (z) = 0.27191 0.27191
#
# Static dielectric constant tensor:
#      x y z
#    x 3.743370 0.000000 0.000000 
#    y 0.000000 3.743370 0.000000 
#    z 0.000000 0.000000 3.662570 
# 
# 
# High freq. dielectric constant tensor:
#      x y z
#    x 1.827120 0.000000 0.000000 
#    y 0.000000 1.827120 0.000000 
#    z 0.000000 0.000000 1.811710 
# 
# From -- ./inp_files/2185.got.cif
#   From: 2010.03.12/outbox.cif.g09.slc.cpg/sg185_cif.got.tgz:2185.got - 2010.04.01 11:55:19.
