data_PCOD8326562
_publ_section_title
;
Structure prediction by ZEFSAII (Michael W. Deem and Ramdas Pophale) SiO2 
 PCOD8326562
Probable space group: P 6 C C
;
_chemical_formula_sum "Si O2"
_cell_formula_units_Z 72
_cell_length_a 22.733113
_cell_length_b 22.733113
_cell_length_c 9.197124
_cell_angle_alpha 90.000000
_cell_angle_beta 90.000000
_cell_angle_gamma 120.000000
_cell_volume 4116.238164
_symmetry_space_group_name_H-M "P 6 C C"
_symmetry_group_IT_number 184
_symmetry_cell_setting 'hexagonal'
loop_
_space_group_symop_operation_xyz
x,y,z
x-y,x,z
-y,x-y,z
-x,-y,z
-x+y,-x,z
y,-x+y,z
-x+y,y,1/2+z
x,x-y,1/2+z
-y,-x,1/2+z
y,x,1/2+z
x-y,-y,1/2+z
-x,-x+y,1/2+z
loop_
_atom_site_type_symbol
_atom_site_label
_atom_site_fract_x
_atom_site_fract_y
_atom_site_fract_z
Si Si1 0.786447 0.711803 0.939270
Si Si2 0.928710 0.405427 0.581283
Si Si3 0.616563 0.743427 0.698346
Si Si4 0.592676 0.073314 0.731870
Si Si5 0.618585 0.742501 0.185417
Si Si6 0.921624 0.716463 0.942826
O O1 0.738757 0.642811 0.847797
O O2 0.867473 0.741959 0.912741
O O3 0.773676 0.774607 0.908029
O O4 0.762193 0.682558 0.100064
O O5 0.893742 0.444449 0.659433
O O6 0.933747 0.416731 0.406923
O O7 0.885722 0.326911 0.622369
O O8 0.001431 0.433927 0.655558
O O9 0.550783 0.670035 0.681813
O O10 0.589569 0.795672 0.672546
O O11 0.646106 0.748172 0.858519
O O12 0.691975 0.774584 0.107334
#
# Coordination Sequence:
#
# PCOD8326562 Si02
#       6
#    12  12  12  12  12  12
#     4  10  20  30  53  72 107 133 179 213 269 311
#     4  11  22  35  52  78 107 137 171 206 257 310
#     4  10  21  34  52  75 103 137 175 215 260 304
#     4  11  22  35  52  78 107 137 171 206 257 310
#     4  10  21  34  52  75 103 137 175 215 260 304
#     4  10  18  34  47  78  99 141 169 221 261 317
#
# _framework density 17.491699000000001
#
# number of rings (size 3 to 8) (size 9 to 14) (size 15 to 20)
#    0.000    1.667    1.667    5.000    4.667    0.000 
#    0.000    0.000    0.000    1.000    0.000    0.000 
#    0.000    8.000    0.000    0.000    0.000    1.333 
#
# Total GULP energy -892208.005812 kJ/mol
# GULP energy per Si atom -12391.777859 kJ/mol
# Density = 1.745189 g / cm^3
# Si number density = 17.491699 Si / 1000 Ang^3
#
#
#
# Elastic Constant Matrix: (Units=GPa)
#
#
# Indices 1 2 3 4 5 6 
#
# 1 126.8461 63.3747 34.3787 0.0000 0.0000 0.0000
# 2 63.3747 126.8461 34.3787 0.0000 0.0000 0.0000
# 3 34.3787 34.3787 81.5742 0.0000 0.0000 0.0000
# 4 0.0000 0.0000 0.0000 20.8644 0.0000 0.0000
# 5 0.0000 0.0000 0.0000 0.0000 20.8644 0.0000
# 6 0.0000 0.0000 0.0000 0.0000 0.0000 31.7357
#
#
#
# Elastic Compliance Matrix: (Units=1/GPa)
#
#
# Indices 1 2 3 4 5 6 
#
# 1 0.010978 -0.004777 -0.002614 0.000000 0.000000 0.000000
# 2 -0.004777 0.010978 -0.002614 0.000000 0.000000 0.000000
# 3 -0.002614 -0.002614 0.014462 0.000000 0.000000 0.000000
# 4 0.000000 0.000000 0.000000 0.047929 0.000000 0.000000
# 5 0.000000 0.000000 0.000000 0.000000 0.047929 0.000000
# 6 0.000000 0.000000 0.000000 0.000000 0.000000 0.031510
#
#
# Mechanical properties :
#
#
# Convention : Reuss Voigt Hill
#
# Bulk Modulus (GPa) = 60.93606 66.61450 63.77528
# Shear Modulus (GPa) = 26.41805 28.23517 27.32661
#
# Velocity S-wave (km/s) = 3.89050 4.02207 3.95683
# Velocity P-wave (km/s) = 7.42254 7.72888 7.57726
#
# Compressibility (1/GPa) = 0.01641065
#
# Stress axis : x y z
#
# Youngs Moduli (GPa) = 91.08738 91.08738 69.14762
#
# Poissons Ratio (x) = 0.43509 0.18073
# Poissons Ratio (y) = 0.43509 0.18073
# Poissons Ratio (z) = 0.23807 0.23807
#
# Static dielectric constant tensor:
#      x y z
#    x 3.184500 0.000000 0.000000 
#    y 0.000000 3.184500 0.000000 
#    z 0.000000 0.000000 3.503230 
# 
# 
# High freq. dielectric constant tensor:
#      x y z
#    x 1.654630 0.000000 0.000000 
#    y 0.000000 1.654630 0.000000 
#    z 0.000000 0.000000 1.703630 
# 
# From -- ./inp_files/360.got.cif
#   From: 2010.03.12/outbox.cif.g09.slc.cpg/sg184_cif.got.tgz:360.got - 2010.04.01 11:54:36.
