data_PCOD8326744
_publ_section_title
;
Structure prediction by ZEFSAII (Michael W. Deem and Ramdas Pophale) SiO2 
 PCOD8326744
Probable space group: P 63 M C
;
_chemical_formula_sum "Si O2"
_cell_formula_units_Z 66
_cell_length_a 19.543905
_cell_length_b 19.543905
_cell_length_c 11.309642
_cell_angle_alpha 90.000000
_cell_angle_beta 90.000000
_cell_angle_gamma 120.000000
_cell_volume 3741.124622
_symmetry_space_group_name_H-M "P 63 M C"
_symmetry_group_IT_number 186
_symmetry_cell_setting 'hexagonal'
loop_
_space_group_symop_operation_xyz
x,y,z
x-y,x,1/2+z
-y,x-y,z
-x,-y,1/2+z
-x+y,-x,z
y,-x+y,1/2+z
-x+y,y,z
x,x-y,z
-y,-x,z
y,x,1/2+z
x-y,-y,1/2+z
-x,-x+y,1/2+z
loop_
_atom_site_type_symbol
_atom_site_label
_atom_site_fract_x
_atom_site_fract_y
_atom_site_fract_z
Si Si1 0.192023 0.384045 0.857900
Si Si2 0.616386 0.808193 0.594032
Si Si3 0.926711 0.315735 0.529417
Si Si4 0.918267 0.309347 0.909983
Si Si5 0.764422 0.882211 0.726264
Si Si6 0.509137 0.335340 0.714744
Si Si7 0.210105 0.260725 0.217822
O O1 0.211797 0.423594 0.725801
O O2 0.144516 0.289032 0.844253
O O3 0.270351 0.408505 0.929772
O O4 0.592913 0.863064 0.522453
O O5 0.711246 0.855623 0.608318
O O6 0.889387 0.355205 0.611382
O O7 0.954795 0.263364 0.604925
O O8 0.001700 0.383780 0.460694
O O9 0.871815 0.342325 0.835182
O O10 0.939559 0.251274 0.835766
O O11 0.809078 0.830847 0.726164
O O12 0.495009 0.247505 0.698857
O O13 0.601898 0.398103 0.714502
O O14 0.126587 0.253174 0.199722
#
# Coordination Sequence:
#
# PCOD8326744 Si02
#       7
#     6   6  12  12   6  12  12
#     4  10  18  31  55  85 108 143 179 233 291 345
#     4  10  18  31  55  85 108 143 179 233 291 345
#     4  11  19  35  60  85 112 141 189 245 290 329
#     4  11  19  35  60  85 112 141 189 245 290 329
#     4  10  20  30  46  80 104 156 196 224 294 342
#     4  11  24  41  62  87 116 156 192 221 280 346
#     4  11  20  31  51  77 112 152 194 241 289 343
#
# _framework density 17.641753999999999
#
# number of rings (size 3 to 8) (size 9 to 14) (size 15 to 20)
#    0.545    0.727    7.273    1.273    2.545    0.727 
#    0.545    0.000    0.000    0.000    0.000    3.818 
#    0.000    0.000    0.000    0.000    0.000    0.000 
#
# Total GULP energy -817730.166801 kJ/mol
# GULP energy per Si atom -12389.851012 kJ/mol
# Density = 1.760160 g / cm^3
# Si number density = 17.641754 Si / 1000 Ang^3
#
#
#
# Elastic Constant Matrix: (Units=GPa)
#
#
# Indices 1 2 3 4 5 6 
#
# 1 65.7323 19.6366 13.4249 0.0000 0.0000 0.0000
# 2 19.6366 65.7323 13.4249 0.0000 0.0000 0.0000
# 3 13.4249 13.4249 95.6589 0.0000 0.0000 0.0000
# 4 0.0000 0.0000 0.0000 17.9295 0.0000 0.0000
# 5 0.0000 0.0000 0.0000 0.0000 17.9295 0.0000
# 6 0.0000 0.0000 0.0000 0.0000 0.0000 23.0479
#
#
#
# Elastic Compliance Matrix: (Units=1/GPa)
#
#
# Indices 1 2 3 4 5 6 
#
# 1 0.016974 -0.004720 -0.001720 0.000000 0.000000 0.000000
# 2 -0.004720 0.016974 -0.001720 0.000000 0.000000 0.000000
# 3 -0.001720 -0.001720 0.010937 0.000000 0.000000 0.000000
# 4 0.000000 0.000000 0.000000 0.055774 0.000000 0.000000
# 5 0.000000 0.000000 0.000000 0.000000 0.055774 0.000000
# 6 0.000000 0.000000 0.000000 0.000000 0.000000 0.043388
#
#
# Mechanical properties :
#
#
# Convention : Reuss Voigt Hill
#
# Bulk Modulus (GPa) = 35.00579 35.56625 35.28602
# Shear Modulus (GPa) = 22.15703 23.82386 22.99044
#
# Velocity S-wave (km/s) = 3.54777 3.67880 3.61388
# Velocity P-wave (km/s) = 6.05540 6.18456 6.12032
#
# Compressibility (1/GPa) = 0.02856671
#
# Stress axis : x y z
#
# Youngs Moduli (GPa) = 58.91231 58.91231 91.43655
#
# Poissons Ratio (x) = 0.27804 0.15726
# Poissons Ratio (y) = 0.27804 0.15726
# Poissons Ratio (z) = 0.10132 0.10132
#
# Static dielectric constant tensor:
#      x y z
#    x 3.058650 0.000000 0.000000 
#    y 0.000000 3.058650 0.000000 
#    z 0.000000 0.000000 3.447960 
# 
# 
# High freq. dielectric constant tensor:
#      x y z
#    x 1.658860 0.000000 0.000000 
#    y 0.000000 1.658860 0.000000 
#    z 0.000000 0.000000 1.697500 
# 
# From -- ./inp_files/1843.got.cif
#   From: 2010.03.12/outbox.cif.g09.slc.cpg/sg186_1_cif.got.tgz:1843.got - 2010.04.01 11:56:34.
