data_PCOD8326160
_publ_section_title
;
Structure prediction by ZEFSAII (Michael W. Deem and Ramdas Pophale) SiO2 
 PCOD8326160
Probable space group: P 62 2 2
;
_chemical_formula_sum "Si O2"
_cell_formula_units_Z 54
_cell_length_a 12.177794
_cell_length_b 12.177794
_cell_length_c 20.168036
_cell_angle_alpha 90.000000
_cell_angle_beta 90.000000
_cell_angle_gamma 120.000000
_cell_volume 2590.189187
_symmetry_space_group_name_H-M "P 62 2 2"
_symmetry_group_IT_number 180
_symmetry_cell_setting 'hexagonal'
loop_
_space_group_symop_operation_xyz
x,y,z
x-y,x,1/3+z
-y,x-y,2/3+z
-x,-y,z
-x+y,-x,1/3+z
y,-x+y,2/3+z
x-y,-y,-z
-x,-x+y,1/3-z
y,x,2/3-z
-y,-x,2/3-z
-x+y,y,-z
x,x-y,1/3-z
loop_
_atom_site_type_symbol
_atom_site_label
_atom_site_fract_x
_atom_site_fract_y
_atom_site_fract_z
Si Si1 0.465688 0.721101 0.460359
Si Si2 0.928346 0.353251 0.019657
Si Si3 0.199684 0.301242 0.884610
Si Si4 0.500000 0.500000 0.191350
Si Si5 0.319039 0.064918 0.220456
O O1 0.334036 0.668072 0.500000
O O2 0.481009 0.808703 0.397744
O O3 0.569110 0.807273 0.513954
O O4 0.470603 0.596803 0.433837
O O5 0.000000 0.500000 0.997233
O O6 0.030623 0.326789 0.055698
O O7 0.870090 0.256987 0.956776
O O8 0.202263 0.202263 0.833334
O O9 0.054967 0.239266 0.908666
O O10 0.591196 0.613099 0.145133
O O11 0.296643 0.148322 0.166667
#
# Coordination Sequence:
#
# PCOD8326160 Si02
#       5
#    12  12  12   6  12
#     4  10  19  36  64  96 130 163 210 285 343 398
#     4  11  20  38  69 103 124 157 231 296 341 389
#     4   9  20  37  64  97 126 161 214 285 336 392
#     4  10  22  40  55  84 129 174 208 246 340 408
#     4  11  23  41  59  88 135 175 214 265 332 419
#
# _framework density 20.847895999999999
#
# number of rings (size 3 to 8) (size 9 to 14) (size 15 to 20)
#    0.000    1.778    3.333    1.333    0.000    0.444 
#    0.000   15.556    0.000    8.000    0.000    0.000 
#    0.000    0.000    0.000    0.000    0.000    0.000 
#
# Total GULP energy -669020.106673 kJ/mol
# GULP energy per Si atom -12389.261235 kJ/mol
# Density = 2.080045 g / cm^3
# Si number density = 20.847896 Si / 1000 Ang^3
#
#
#
# Elastic Constant Matrix: (Units=GPa)
#
#
# Indices 1 2 3 4 5 6 
#
# 1 98.0838 49.7327 35.0282 0.0000 0.0000 0.0000
# 2 49.7327 98.0838 35.0282 0.0000 0.0000 0.0000
# 3 35.0282 35.0282 99.7713 0.0000 0.0000 0.0000
# 4 0.0000 0.0000 0.0000 20.0935 0.0000 0.0000
# 5 0.0000 0.0000 0.0000 0.0000 20.0935 0.0000
# 6 0.0000 0.0000 0.0000 0.0000 0.0000 24.1755
#
#
#
# Elastic Compliance Matrix: (Units=1/GPa)
#
#
# Indices 1 2 3 4 5 6 
#
# 1 0.014399 -0.006283 -0.002849 0.000000 0.000000 0.000000
# 2 -0.006283 0.014399 -0.002849 0.000000 0.000000 0.000000
# 3 -0.002849 -0.002849 0.012024 0.000000 0.000000 0.000000
# 4 0.000000 0.000000 0.000000 0.049767 0.000000 0.000000
# 5 0.000000 0.000000 0.000000 0.000000 0.049767 0.000000
# 6 0.000000 0.000000 0.000000 0.000000 0.000000 0.041364
#
#
# Mechanical properties :
#
#
# Convention : Reuss Voigt Hill
#
# Bulk Modulus (GPa) = 59.32025 59.50193 59.41109
# Shear Modulus (GPa) = 23.66276 24.61584 24.13930
#
# Velocity S-wave (km/s) = 3.37266 3.43991 3.40645
# Velocity P-wave (km/s) = 6.60924 6.66185 6.63560
#
# Compressibility (1/GPa) = 0.01685765
#
# Stress axis : x y z
#
# Youngs Moduli (GPa) = 69.45029 69.45029 83.17000
#
# Poissons Ratio (x) = 0.43638 0.23697
# Poissons Ratio (y) = 0.43638 0.23697
# Poissons Ratio (z) = 0.19788 0.19788
#
# Static dielectric constant tensor:
#      x y z
#    x 3.970090 0.000000 0.000000 
#    y 0.000000 3.970090 0.000000 
#    z 0.000000 0.000000 3.672960 
# 
# 
# High freq. dielectric constant tensor:
#      x y z
#    x 1.815220 0.000000 0.000000 
#    y 0.000000 1.815220 0.000000 
#    z 0.000000 0.000000 1.800970 
# 
# From -- ./inp_files/8866.got.cif
#   From: 2010.03.12/outbox.cif.g09.slc.cpg/sg180_5_cif.got.tgz:8866.got - 2010.04.01 11:35:50.
