data_PCOD8326591
_publ_section_title
;
Structure prediction by ZEFSAII (Michael W. Deem and Ramdas Pophale) SiO2 
 PCOD8326591
Probable space group: P 6 C C
;
_chemical_formula_sum "Si O2"
_cell_formula_units_Z 60
_cell_length_a 14.014687
_cell_length_b 14.014687
_cell_length_c 13.197350
_cell_angle_alpha 90.000000
_cell_angle_beta 90.000000
_cell_angle_gamma 120.000000
_cell_volume 2244.833692
_symmetry_space_group_name_H-M "P 6 C C"
_symmetry_group_IT_number 184
_symmetry_cell_setting 'hexagonal'
loop_
_space_group_symop_operation_xyz
x,y,z
x-y,x,z
-y,x-y,z
-x,-y,z
-x+y,-x,z
y,-x+y,z
-x+y,y,1/2+z
x,x-y,1/2+z
-y,-x,1/2+z
y,x,1/2+z
x-y,-y,1/2+z
-x,-x+y,1/2+z
loop_
_atom_site_type_symbol
_atom_site_label
_atom_site_fract_x
_atom_site_fract_y
_atom_site_fract_z
Si Si1 0.929340 0.167913 0.184110
Si Si2 0.126327 0.577899 0.777933
Si Si3 0.241663 0.473645 0.160050
Si Si4 0.903758 0.525359 0.984278
Si Si5 0.766072 0.806832 0.923658
O O1 0.885380 0.248184 0.146965
O O2 0.946848 0.172968 0.303871
O O3 0.048689 0.207094 0.136975
O O4 0.202092 0.565907 0.691401
O O5 0.159445 0.705063 0.757195
O O6 0.155424 0.556470 0.889630
O O7 0.000000 0.500000 0.753933
O O8 0.194027 0.505386 0.063164
O O9 0.953808 0.651344 0.950231
O O10 0.000000 0.500000 0.023530
O O11 0.860311 0.782841 0.968423
#
# Coordination Sequence:
#
# PCOD8326591 Si02
#       5
#    12  12  12  12  12
#     4  10  21  40  71 109 151 195 245 309 387 480
#     4  11  26  47  74 106 153 204 263 336 413 487
#     4  12  25  46  73 109 146 204 266 328 400 482
#     4  11  27  46  75 115 160 211 274 337 409 491
#     4  10  22  43  74 115 155 206 257 326 406 496
#
# _framework density 26.728035999999999
#
# number of rings (size 3 to 8) (size 9 to 14) (size 15 to 20)
#    0.000    1.200    2.000    2.600    8.400    8.000 
#    0.000    0.000    0.000    4.400    0.000    0.000 
#    0.000    0.000    0.000    0.000    0.000    0.000 
#
# Total GULP energy -743660.617050 kJ/mol
# GULP energy per Si atom -12394.343618 kJ/mol
# Density = 2.666720 g / cm^3
# Si number density = 26.728036 Si / 1000 Ang^3
#
#
#
# Elastic Constant Matrix: (Units=GPa)
#
#
# Indices 1 2 3 4 5 6 
#
# 1 98.2828 0.2405 38.0477 0.0000 0.0000 0.0000
# 2 0.2405 98.2828 38.0477 0.0000 0.0000 0.0000
# 3 38.0477 38.0477 100.7167 0.0000 0.0000 0.0000
# 4 0.0000 0.0000 0.0000 46.6178 0.0000 0.0000
# 5 0.0000 0.0000 0.0000 0.0000 46.6178 0.0000
# 6 0.0000 0.0000 0.0000 0.0000 0.0000 49.0212
#
#
#
# Elastic Compliance Matrix: (Units=1/GPa)
#
#
# Indices 1 2 3 4 5 6 
#
# 1 0.012266 0.002066 -0.005414 0.000000 0.000000 0.000000
# 2 0.002066 0.012266 -0.005414 0.000000 0.000000 0.000000
# 3 -0.005414 -0.005414 0.014019 0.000000 0.000000 0.000000
# 4 0.000000 0.000000 0.000000 0.021451 0.000000 0.000000
# 5 0.000000 0.000000 0.000000 0.000000 0.021451 0.000000
# 6 0.000000 0.000000 0.000000 0.000000 0.000000 0.020399
#
#
# Mechanical properties :
#
#
# Convention : Reuss Voigt Hill
#
# Bulk Modulus (GPa) = 47.55962 49.99492 48.77727
# Shear Modulus (GPa) = 39.56172 43.18110 41.37141
#
# Velocity S-wave (km/s) = 3.85146 4.02378 3.93856
# Velocity P-wave (km/s) = 6.13277 6.35086 6.24276
#
# Compressibility (1/GPa) = 0.02102624
#
# Stress axis : x y z
#
# Youngs Moduli (GPa) = 81.52917 81.52917 71.33013
#
# Poissons Ratio (x) = -0.16843 0.38618
# Poissons Ratio (y) = -0.16843 0.38618
# Poissons Ratio (z) = 0.44140 0.44140
#
# Static dielectric constant tensor:
#      x y z
#    x 5.036560 0.000000 0.000000 
#    y 0.000000 5.036560 0.000000 
#    z 0.000000 0.000000 4.879250 
# 
# 
# High freq. dielectric constant tensor:
#      x y z
#    x 2.081230 0.000000 0.000000 
#    y 0.000000 2.081230 0.000000 
#    z 0.000000 0.000000 2.089720 
# 
# From -- ./inp_files/806.got.cif
#   From: 2010.03.12/outbox.cif.g09.slc.cpg/sg184_cif.got.tgz:806.got - 2010.04.01 11:54:36.
