data_PCOD8326301
_publ_section_title
;
Structure prediction by ZEFSAII (Michael W. Deem and Ramdas Pophale) SiO2 
 PCOD8326301
Probable space group: P 64 2 2
;
_chemical_formula_sum "Si O2"
_cell_formula_units_Z 90
_cell_length_a 18.651674
_cell_length_b 18.651674
_cell_length_c 16.645202
_cell_angle_alpha 90.000000
_cell_angle_beta 90.000000
_cell_angle_gamma 120.000000
_cell_volume 5014.819823
_symmetry_space_group_name_H-M "P 64 2 2"
_symmetry_group_IT_number 181
_symmetry_cell_setting 'hexagonal'
loop_
_space_group_symop_operation_xyz
x,y,z
x-y,x,2/3+z
-y,x-y,1/3+z
-x,-y,z
-x+y,-x,2/3+z
y,-x+y,1/3+z
x-y,-y,-z
-x,-x+y,2/3-z
y,x,1/3-z
-y,-x,1/3-z
-x+y,y,-z
x,x-y,2/3-z
loop_
_atom_site_type_symbol
_atom_site_label
_atom_site_fract_x
_atom_site_fract_y
_atom_site_fract_z
Si Si1 0.901381 0.370253 0.322107
Si Si2 0.626428 0.731803 0.824427
Si Si3 0.640446 0.280861 0.748505
Si Si4 0.610341 0.677488 0.524287
Si Si5 0.534246 0.903956 0.517248
Si Si6 0.781639 0.231746 0.577798
Si Si7 0.500000 0.000000 0.219894
Si Si8 0.649315 0.130517 0.299743
O O1 0.864139 0.432070 0.333334
O O2 0.866705 0.316686 0.239790
O O3 0.875638 0.305809 0.396396
O O4 0.000000 0.421173 0.333334
O O5 0.660364 0.830182 0.833334
O O6 0.694705 0.705322 0.798830
O O7 0.601624 0.699104 0.915013
O O8 0.665639 0.334362 0.666667
O O9 0.655118 0.327559 0.833334
O O10 0.690253 0.232266 0.756960
O O11 0.543484 0.222087 0.732197
O O12 0.611685 0.741306 0.460425
O O13 0.554713 0.578940 0.503165
O O14 0.440622 0.881243 0.500000
O O15 0.556979 0.849848 0.460523
O O16 0.540688 0.876982 0.607105
O O17 0.598158 0.000000 0.500000
O O18 0.792029 0.207972 0.666667
O O19 0.447753 0.924628 0.280175
#
# Coordination Sequence:
#
# PCOD8326301 Si02
#       8
#    12  12  12  12  12  12   6  12
#     4   9  17  33  53  77  97 132 179 217 259 315
#     4  10  22  35  53  78 106 132 172 221 273 331
#     4  11  22  37  52  74 109 144 187 237 287 326
#     4  10  20  35  58  74 103 141 177 227 267 319
#     4  11  24  39  58  78 105 144 184 228 273 320
#     4  11  23  37  55  79 103 141 191 228 266 317
#     4  10  18  34  56  74  94 142 182 216 263 323
#     4  11  21  35  54  74 105 135 181 225 279 316
#
# _framework density 17.946805999999999
#
# number of rings (size 3 to 8) (size 9 to 14) (size 15 to 20)
#    0.000    1.600    1.333    6.400    5.600    0.000 
#    2.400    0.000    0.000    0.000    0.000    0.000 
#    0.000    0.533    0.000    1.200    0.000    0.000 
#
# Total GULP energy -1115116.960661 kJ/mol
# GULP energy per Si atom -12390.188452 kJ/mol
# Density = 1.790596 g / cm^3
# Si number density = 17.946806 Si / 1000 Ang^3
#
#
#
# Elastic Constant Matrix: (Units=GPa)
#
#
# Indices 1 2 3 4 5 6 
#
# 1 71.8814 29.9330 33.0598 0.0000 0.0000 0.0000
# 2 29.9330 71.8814 33.0598 0.0000 0.0000 0.0000
# 3 33.0598 33.0598 148.6192 0.0000 0.0000 0.0000
# 4 0.0000 0.0000 0.0000 16.6452 0.0000 0.0000
# 5 0.0000 0.0000 0.0000 0.0000 16.6452 0.0000
# 6 0.0000 0.0000 0.0000 0.0000 0.0000 20.9742
#
#
#
# Elastic Compliance Matrix: (Units=1/GPa)
#
#
# Indices 1 2 3 4 5 6 
#
# 1 0.017659 -0.006179 -0.002554 0.000000 0.000000 0.000000
# 2 -0.006179 0.017659 -0.002554 0.000000 0.000000 0.000000
# 3 -0.002554 -0.002554 0.007865 0.000000 0.000000 0.000000
# 4 0.000000 0.000000 0.000000 0.060078 0.000000 0.000000
# 5 0.000000 0.000000 0.000000 0.000000 0.060078 0.000000
# 6 0.000000 0.000000 0.000000 0.000000 0.000000 0.047678
#
#
# Mechanical properties :
#
#
# Convention : Reuss Voigt Hill
#
# Bulk Modulus (GPa) = 48.51955 53.83191 51.17573
# Shear Modulus (GPa) = 20.79348 23.94155 22.36751
#
# Velocity S-wave (km/s) = 3.40754 3.65640 3.53416
# Velocity P-wave (km/s) = 6.52500 6.91997 6.72539
#
# Compressibility (1/GPa) = 0.02061025
#
# Stress axis : x y z
#
# Youngs Moduli (GPa) = 56.62675 56.62675 127.14981
#
# Poissons Ratio (x) = 0.34991 0.32471
# Poissons Ratio (y) = 0.34991 0.32471
# Poissons Ratio (z) = 0.14461 0.14461
#
# Static dielectric constant tensor:
#      x y z
#    x 3.153140 0.000000 0.000000 
#    y 0.000000 3.153140 0.000000 
#    z 0.000000 0.000000 3.790710 
# 
# 
# High freq. dielectric constant tensor:
#      x y z
#    x 1.657130 0.000000 0.000000 
#    y 0.000000 1.657130 0.000000 
#    z 0.000000 0.000000 1.723960 
# 
# From -- ./inp_files/7985.got.cif
#   From: 2010.03.12/outbox.cif.g09.slc.cpg/sg181_4_cif.got.tgz:7985.got - 2010.04.01 11:42:41.
