data_PCOD8326178
_publ_section_title
;
Structure prediction by ZEFSAII (Michael W. Deem and Ramdas Pophale) SiO2 
 PCOD8326178
Probable space group: P 62 2 2
;
_chemical_formula_sum "Si O2"
_cell_formula_units_Z 66
_cell_length_a 18.259275
_cell_length_b 18.259275
_cell_length_c 11.290077
_cell_angle_alpha 90.000000
_cell_angle_beta 90.000000
_cell_angle_gamma 120.000000
_cell_volume 3259.827316
_symmetry_space_group_name_H-M "P 62 2 2"
_symmetry_group_IT_number 180
_symmetry_cell_setting 'hexagonal'
loop_
_space_group_symop_operation_xyz
x,y,z
x-y,x,1/3+z
-y,x-y,2/3+z
-x,-y,z
-x+y,-x,1/3+z
y,-x+y,2/3+z
x-y,-y,-z
-x,-x+y,1/3-z
y,x,2/3-z
-y,-x,2/3-z
-x+y,y,-z
x,x-y,1/3-z
loop_
_atom_site_type_symbol
_atom_site_label
_atom_site_fract_x
_atom_site_fract_y
_atom_site_fract_z
Si Si1 0.894915 0.374859 0.932072
Si Si2 0.146768 0.240197 0.866234
Si Si3 0.413186 0.317845 0.826026
Si Si4 0.759662 0.669854 0.282638
Si Si5 0.201575 0.798426 0.833334
Si Si6 0.451058 0.360949 0.573862
O O1 0.838081 0.301396 0.842263
O O2 0.885753 0.452759 0.885239
O O3 0.989641 0.391514 0.919607
O O4 0.860312 0.340036 0.065675
O O5 0.162561 0.162561 0.833334
O O6 0.228741 0.328030 0.829534
O O7 0.075599 0.245829 0.787661
O O8 0.115838 0.231676 0.000000
O O9 0.394608 0.394608 0.833334
O O10 0.453154 0.318323 0.698640
O O11 0.689501 0.689501 0.333334
O O12 0.812076 0.653629 0.384161
O O13 0.710507 0.587678 0.195357
#
# Coordination Sequence:
#
# PCOD8326178 Si02
#       6
#    12  12  12  12   6  12
#     4  10  20  36  59  91 130 161 206 264 318 389
#     4  11  23  40  68  97 130 164 216 282 343 404
#     4   9  17  33  60  91 121 151 198 257 315 374
#     4  12  25  40  64  93 128 170 220 271 333 404
#     4  12  24  38  56  90 133 170 217 272 326 390
#     4  10  20  37  60  92 121 166 211 258 322 385
#
# _framework density 20.246472000000001
#
# number of rings (size 3 to 8) (size 9 to 14) (size 15 to 20)
#    0.000    1.455    5.455    0.545    2.545    2.909 
#    0.000    0.000    0.000    6.000    0.000    0.000 
#    0.000    0.000    0.000    0.000    0.000    0.000 
#
# Total GULP energy -817880.888588 kJ/mol
# GULP energy per Si atom -12392.134676 kJ/mol
# Density = 2.020039 g / cm^3
# Si number density = 20.246472 Si / 1000 Ang^3
#
#
#
# Elastic Constant Matrix: (Units=GPa)
#
#
# Indices 1 2 3 4 5 6 
#
# 1 69.3445 16.8550 37.8115 0.0000 0.0000 0.0000
# 2 16.8550 69.3445 37.8115 0.0000 0.0000 0.0000
# 3 37.8115 37.8115 142.6163 0.0000 0.0000 0.0000
# 4 0.0000 0.0000 0.0000 29.6915 0.0000 0.0000
# 5 0.0000 0.0000 0.0000 0.0000 29.6915 0.0000
# 6 0.0000 0.0000 0.0000 0.0000 0.0000 26.2447
#
#
#
# Elastic Compliance Matrix: (Units=1/GPa)
#
#
# Indices 1 2 3 4 5 6 
#
# 1 0.017084 -0.001967 -0.004008 0.000000 0.000000 0.000000
# 2 -0.001967 0.017084 -0.004008 0.000000 0.000000 0.000000
# 3 -0.004008 -0.004008 0.009137 0.000000 0.000000 0.000000
# 4 0.000000 0.000000 0.000000 0.033680 0.000000 0.000000
# 5 0.000000 0.000000 0.000000 0.000000 0.033680 0.000000
# 6 0.000000 0.000000 0.000000 0.000000 0.000000 0.038103
#
#
# Mechanical properties :
#
#
# Convention : Reuss Voigt Hill
#
# Bulk Modulus (GPa) = 42.84575 51.80683 47.32629
# Shear Modulus (GPa) = 28.32638 29.71404 29.02021
#
# Velocity S-wave (km/s) = 3.74448 3.83510 3.79006
# Velocity P-wave (km/s) = 6.31687 6.72713 6.52523
#
# Compressibility (1/GPa) = 0.02333954
#
# Stress axis : x y z
#
# Youngs Moduli (GPa) = 58.53319 58.53319 109.44422
#
# Poissons Ratio (x) = 0.11514 0.43865
# Poissons Ratio (y) = 0.11514 0.43865
# Poissons Ratio (z) = 0.23460 0.23460
#
# Static dielectric constant tensor:
#      x y z
#    x 3.486430 0.000000 0.000000 
#    y 0.000000 3.486430 0.000000 
#    z 0.000000 0.000000 3.974520 
# 
# 
# High freq. dielectric constant tensor:
#      x y z
#    x 1.762760 0.000000 0.000000 
#    y 0.000000 1.762760 0.000000 
#    z 0.000000 0.000000 1.810790 
# 
# From -- ./inp_files/3233.got.cif
#   From: 2010.03.12/outbox.cif.g09.slc.cpg/sg180_2_cif.got.tgz:3233.got - 2010.04.01 11:35:50.
