data_PCOD8326302
_publ_section_title
;
Structure prediction by ZEFSAII (Michael W. Deem and Ramdas Pophale) SiO2 
 PCOD8326302
Probable space group: P 64 2 2
;
_chemical_formula_sum "Si O2"
_cell_formula_units_Z 69
_cell_length_a 21.702474
_cell_length_b 21.702474
_cell_length_c 8.527576
_cell_angle_alpha 90.000000
_cell_angle_beta 90.000000
_cell_angle_gamma 120.000000
_cell_volume 3478.361533
_symmetry_space_group_name_H-M "P 64 2 2"
_symmetry_group_IT_number 181
_symmetry_cell_setting 'hexagonal'
loop_
_space_group_symop_operation_xyz
x,y,z
x-y,x,2/3+z
-y,x-y,1/3+z
-x,-y,z
-x+y,-x,2/3+z
y,-x+y,1/3+z
x-y,-y,-z
-x,-x+y,2/3-z
y,x,1/3-z
-y,-x,1/3-z
-x+y,y,-z
x,x-y,2/3-z
loop_
_atom_site_type_symbol
_atom_site_label
_atom_site_fract_x
_atom_site_fract_y
_atom_site_fract_z
Si Si1 0.789701 0.224028 0.840928
Si Si2 0.976999 0.686584 0.499431
Si Si3 0.500000 0.500000 0.166667
Si Si4 0.269888 0.107076 0.171970
Si Si5 0.863058 0.726116 0.500000
Si Si6 0.906868 0.358444 0.007963
Si Si7 0.463930 0.792521 0.928479
O O1 0.768326 0.231674 0.666667
O O2 0.815613 0.166875 0.851738
O O3 0.853862 0.301072 0.884996
O O4 0.719224 0.198229 0.941586
O O5 0.897461 0.675569 0.500923
O O6 0.971936 0.627972 0.619431
O O7 0.000000 0.670001 0.333334
O O8 0.031124 0.768301 0.541762
O O9 0.564010 0.510568 0.273444
O O10 0.236818 0.118409 0.333334
O O11 0.231354 0.108679 0.004435
O O12 0.863300 0.359365 0.158295
O O13 0.439949 0.719975 0.833334
O O14 0.393301 0.786602 0.000000
#
# Coordination Sequence:
#
# PCOD8326302 Si02
#       7
#    12  12   3  12   6  12  12
#     4  10  22  40  66  85 116 155 204 256 320 374
#     4  10  21  36  63  89 122 160 203 248 307 373
#     4  12  32  40  58  96 126 172 206 250 344 360
#     4  10  21  34  59  92 115 160 203 239 310 366
#     4  10  18  36  54  86 129 151 188 250 298 360
#     4  11  25  43  62  83 129 161 206 262 315 398
#     4  10  23  42  64  88 113 157 207 262 322 375
#
# _framework density 19.836925000000001
#
# number of rings (size 3 to 8) (size 9 to 14) (size 15 to 20)
#    0.000    1.739    1.739    2.087    9.739    2.783 
#    3.130    0.000    0.000    0.000    0.000    0.000 
#    0.000   18.783    0.000    0.000    0.000    0.000 
#
# Total GULP energy -854887.994348 kJ/mol
# GULP energy per Si atom -12389.681078 kJ/mol
# Density = 1.979178 g / cm^3
# Si number density = 19.836925 Si / 1000 Ang^3
#
#
#
# Elastic Constant Matrix: (Units=GPa)
#
#
# Indices 1 2 3 4 5 6 
#
# 1 85.1325 54.0936 50.8747 0.0000 0.0000 0.0000
# 2 54.0936 85.1325 50.8747 0.0000 0.0000 0.0000
# 3 50.8747 50.8747 168.7415 0.0000 0.0000 0.0000
# 4 0.0000 0.0000 0.0000 27.0175 0.0000 0.0000
# 5 0.0000 0.0000 0.0000 0.0000 27.0175 0.0000
# 6 0.0000 0.0000 0.0000 0.0000 0.0000 15.5195
#
#
#
# Elastic Compliance Matrix: (Units=1/GPa)
#
#
# Indices 1 2 3 4 5 6 
#
# 1 0.020715 -0.011503 -0.002777 0.000000 0.000000 0.000000
# 2 -0.011503 0.020715 -0.002777 0.000000 0.000000 0.000000
# 3 -0.002777 -0.002777 0.007601 0.000000 0.000000 0.000000
# 4 0.000000 0.000000 0.000000 0.037013 0.000000 0.000000
# 5 0.000000 0.000000 0.000000 0.000000 0.037013 0.000000
# 6 0.000000 0.000000 0.000000 0.000000 0.000000 0.064435
#
#
# Mechanical properties :
#
#
# Convention : Reuss Voigt Hill
#
# Bulk Modulus (GPa) = 67.04268 72.29917 69.67093
# Shear Modulus (GPa) = 22.06730 26.12179 24.09454
#
# Velocity S-wave (km/s) = 3.33894 3.63275 3.48894
# Velocity P-wave (km/s) = 6.98104 7.35674 7.17135
#
# Compressibility (1/GPa) = 0.01491587
#
# Stress axis : x y z
#
# Youngs Moduli (GPa) = 48.27416 48.27416 131.56123
#
# Poissons Ratio (x) = 0.55528 0.36541
# Poissons Ratio (y) = 0.55528 0.36541
# Poissons Ratio (z) = 0.13408 0.13408
#
# Static dielectric constant tensor:
#      x y z
#    x 3.498860 0.000000 0.000000 
#    y 0.000000 3.498860 0.000000 
#    z 0.000000 0.000000 4.235080 
# 
# 
# High freq. dielectric constant tensor:
#      x y z
#    x 1.756210 0.000000 0.000000 
#    y 0.000000 1.756210 0.000000 
#    z 0.000000 0.000000 1.796890 
# 
# From -- ./inp_files/3231.got.cif
#   From: 2010.03.12/outbox.cif.g09.slc.cpg/sg181_2_cif.got.tgz:3231.got - 2010.04.01 11:42:41.
