data_PCOD8326746
_publ_section_title
;
Structure prediction by ZEFSAII (Michael W. Deem and Ramdas Pophale) SiO2 
 PCOD8326746
Probable space group: P 63 M C
;
_chemical_formula_sum "Si O2"
_cell_formula_units_Z 96
_cell_length_a 17.334062
_cell_length_b 17.334062
_cell_length_c 19.476201
_cell_angle_alpha 90.000000
_cell_angle_beta 90.000000
_cell_angle_gamma 120.000000
_cell_volume 5067.987918
_symmetry_space_group_name_H-M "P 63 M C"
_symmetry_group_IT_number 186
_symmetry_cell_setting 'hexagonal'
loop_
_space_group_symop_operation_xyz
x,y,z
x-y,x,1/2+z
-y,x-y,z
-x,-y,1/2+z
-x+y,-x,z
y,-x+y,1/2+z
-x+y,y,z
x,x-y,z
-y,-x,z
y,x,1/2+z
x-y,-y,1/2+z
-x,-x+y,1/2+z
loop_
_atom_site_type_symbol
_atom_site_label
_atom_site_fract_x
_atom_site_fract_y
_atom_site_fract_z
Si Si1 0.485136 0.152370 0.472160
Si Si2 0.312288 0.006486 0.417505
Si Si3 0.179513 0.999069 0.303949
Si Si4 0.796881 0.763550 0.150176
Si Si5 0.610706 0.713085 0.114022
Si Si6 0.999664 0.168037 0.008668
Si Si7 0.160437 0.664500 0.241532
Si Si8 0.335802 0.847537 0.393917
O O1 0.574962 0.149923 0.459013
O O2 0.507290 0.253645 0.465925
O O3 0.445624 0.111477 0.546562
O O4 0.412160 0.091388 0.414719
O O5 0.259189 0.000718 0.347903
O O6 0.264821 0.020706 0.483585
O O7 0.316409 0.917003 0.433696
O O8 0.086891 0.913110 0.325210
O O9 0.174287 0.087144 0.319598
O O10 0.195914 0.990894 0.223655
O O11 0.857702 0.715404 0.154580
O O12 0.697507 0.701891 0.121393
O O13 0.839951 0.839259 0.091307
O O14 0.634026 0.817013 0.116623
O O15 0.555261 0.652263 0.178416
O O16 0.905474 0.094527 0.976647
O O17 0.074720 0.149439 0.978611
O O18 0.202479 0.601240 0.230739
O O19 0.234721 0.765280 0.239341
O O20 0.114248 0.645489 0.315918
O O21 0.423461 0.846921 0.422603
O O22 0.252561 0.747439 0.399051
#
# Coordination Sequence:
#
# PCOD8326746 Si02
#       8
#    12  12  12  12  12  12  12  12
#     4  11  23  39  59  82 110 144 183 229 282 342
#     4  12  23  37  55  79 112 147 186 234 282 335
#     4  11  22  36  55  81 115 155 197 238 281 331
#     4  10  21  35  54  79 111 150 189 228 273 329
#     4  10  18  32  53  77 108 141 177 222 272 326
#     4  11  21  35  54  78 108 144 186 231 278 330
#     4   9  17  29  50  79 111 143 175 218 273 336
#     4  10  20  35  54  79 109 144 185 228 279 337
#
# _framework density 18.942429000000001
#
# number of rings (size 3 to 8) (size 9 to 14) (size 15 to 20)
#    0.000    1.500    1.250    5.500    0.000    2.000 
#    0.000    3.750    0.000    0.250    0.000    0.000 
#    0.000    0.000    0.000    0.750    0.000    0.000 
#
# Total GULP energy -1189497.448303 kJ/mol
# GULP energy per Si atom -12390.598420 kJ/mol
# Density = 1.889932 g / cm^3
# Si number density = 18.942429 Si / 1000 Ang^3
#
#
#
# Elastic Constant Matrix: (Units=GPa)
#
#
# Indices 1 2 3 4 5 6 
#
# 1 118.3423 50.0417 28.5504 0.0000 0.0000 0.0000
# 2 50.0417 118.3423 28.5504 0.0000 0.0000 0.0000
# 3 28.5504 28.5504 72.1536 0.0000 0.0000 0.0000
# 4 0.0000 0.0000 0.0000 23.8785 0.0000 0.0000
# 5 0.0000 0.0000 0.0000 0.0000 23.8785 0.0000
# 6 0.0000 0.0000 0.0000 0.0000 0.0000 34.1503
#
#
#
# Elastic Compliance Matrix: (Units=1/GPa)
#
#
# Indices 1 2 3 4 5 6 
#
# 1 0.010750 -0.003891 -0.002714 0.000000 0.000000 0.000000
# 2 -0.003891 0.010750 -0.002714 0.000000 0.000000 0.000000
# 3 -0.002714 -0.002714 0.016007 0.000000 0.000000 0.000000
# 4 0.000000 0.000000 0.000000 0.041879 0.000000 0.000000
# 5 0.000000 0.000000 0.000000 0.000000 0.041879 0.000000
# 6 0.000000 0.000000 0.000000 0.000000 0.000000 0.029282
#
#
# Mechanical properties :
#
#
# Convention : Reuss Voigt Hill
#
# Bulk Modulus (GPa) = 52.99655 58.12481 55.56068
# Shear Modulus (GPa) = 28.49403 29.82783 29.16093
#
# Velocity S-wave (km/s) = 3.88267 3.97250 3.92784
# Velocity P-wave (km/s) = 6.93819 7.19671 7.06863
#
# Compressibility (1/GPa) = 0.01886915
#
# Stress axis : x y z
#
# Youngs Moduli (GPa) = 93.02169 93.02169 62.47185
#
# Poissons Ratio (x) = 0.36195 0.16956
# Poissons Ratio (y) = 0.36195 0.16956
# Poissons Ratio (z) = 0.25247 0.25247
#
# Static dielectric constant tensor:
#      x y z
#    x 3.450720 0.000000 0.000000 
#    y 0.000000 3.450720 0.000000 
#    z 0.000000 0.000000 3.616470 
# 
# 
# High freq. dielectric constant tensor:
#      x y z
#    x 1.727340 0.000000 0.000000 
#    y 0.000000 1.727340 0.000000 
#    z 0.000000 0.000000 1.735010 
# 
# From -- ./inp_files/3550.got.cif
#   From: 2010.03.12/outbox.cif.g09.slc.cpg/sg186_2_cif.got.tgz:3550.got - 2010.04.01 11:56:34.
