data_PCOD8326285
_publ_section_title
;
Structure prediction by ZEFSAII (Michael W. Deem and Ramdas Pophale) SiO2 
 PCOD8326285
Probable space group: P 64 2 2
;
_chemical_formula_sum "Si O2"
_cell_formula_units_Z 72
_cell_length_a 23.233673
_cell_length_b 23.233673
_cell_length_c 9.004710
_cell_angle_alpha 90.000000
_cell_angle_beta 90.000000
_cell_angle_gamma 120.000000
_cell_volume 4209.554220
_symmetry_space_group_name_H-M "P 64 2 2"
_symmetry_group_IT_number 181
_symmetry_cell_setting 'hexagonal'
loop_
_space_group_symop_operation_xyz
x,y,z
x-y,x,2/3+z
-y,x-y,1/3+z
-x,-y,z
-x+y,-x,2/3+z
y,-x+y,1/3+z
x-y,-y,-z
-x,-x+y,2/3-z
y,x,1/3-z
-y,-x,1/3-z
-x+y,y,-z
x,x-y,2/3-z
loop_
_atom_site_type_symbol
_atom_site_label
_atom_site_fract_x
_atom_site_fract_y
_atom_site_fract_z
Si Si1 0.897130 0.756451 0.154682
Si Si2 0.624797 0.196085 0.359648
Si Si3 0.749527 0.678647 0.611932
Si Si4 0.158154 0.952520 0.256012
Si Si5 0.528788 0.698451 0.787556
Si Si6 0.325566 0.573636 0.773561
O O1 0.895502 0.698858 0.256184
O O2 0.857316 0.788202 0.237854
O O3 0.970639 0.815913 0.111704
O O4 0.861310 0.722621 0.000000
O O5 0.577183 0.154365 0.500000
O O6 0.643583 0.152048 0.251798
O O7 0.690251 0.251382 0.446332
O O8 0.588571 0.228161 0.266147
O O9 0.691875 0.691875 0.666667
O O10 0.786707 0.721411 0.467266
O O11 0.712925 0.602509 0.567381
O O12 0.089491 0.910510 0.166667
O O13 0.528528 0.764264 0.833334
O O14 0.489197 0.672277 0.633071
O O15 0.363361 0.636640 0.666667
#
# Coordination Sequence:
#
# PCOD8326285 Si02
#       6
#    12  12  12  12  12  12
#     4  10  18  29  48  72  96 122 155 197 237 282
#     4  10  17  26  43  67  95 124 151 180 219 271
#     4   9  18  33  51  68  89 122 160 194 237 283
#     4   9  17  30  49  69  93 125 157 190 233 287
#     4   9  17  29  45  67  94 120 147 188 231 268
#     4   9  16  25  41  63  92 125 152 179 216 269
#
# _framework density 17.103949
#
# number of rings (size 3 to 8) (size 9 to 14) (size 15 to 20)
#    0.000    2.667    0.000    6.500    0.000    0.000 
#    0.000    5.000    0.000    9.500    0.000    1.167 
#    0.000    0.000    0.000    0.000    0.000    0.000 
#
# Total GULP energy -892153.876824 kJ/mol
# GULP energy per Si atom -12391.026067 kJ/mol
# Density = 1.706502 g / cm^3
# Si number density = 17.103949 Si / 1000 Ang^3
#
#
#
# Elastic Constant Matrix: (Units=GPa)
#
#
# Indices 1 2 3 4 5 6 
#
# 1 75.2974 34.3515 39.6369 0.0000 0.0000 0.0000
# 2 34.3515 75.2974 39.6369 0.0000 0.0000 0.0000
# 3 39.6369 39.6369 130.5696 0.0000 0.0000 0.0000
# 4 0.0000 0.0000 0.0000 16.7490 0.0000 0.0000
# 5 0.0000 0.0000 0.0000 0.0000 16.7490 0.0000
# 6 0.0000 0.0000 0.0000 0.0000 0.0000 20.4730
#
#
#
# Elastic Compliance Matrix: (Units=1/GPa)
#
#
# Indices 1 2 3 4 5 6 
#
# 1 0.018053 -0.006369 -0.003547 0.000000 0.000000 0.000000
# 2 -0.006369 0.018053 -0.003547 0.000000 0.000000 0.000000
# 3 -0.003547 -0.003547 0.009812 0.000000 0.000000 0.000000
# 4 0.000000 0.000000 0.000000 0.059705 0.000000 0.000000
# 5 0.000000 0.000000 0.000000 0.000000 0.059705 0.000000
# 6 0.000000 0.000000 0.000000 0.000000 0.000000 0.048845
#
#
# Mechanical properties :
#
#
# Convention : Reuss Voigt Hill
#
# Bulk Modulus (GPa) = 52.65085 56.49053 54.57069
# Shear Modulus (GPa) = 20.20765 21.96349 21.08557
#
# Velocity S-wave (km/s) = 3.44097 3.58735 3.51492
# Velocity P-wave (km/s) = 6.82911 7.08930 6.96042
#
# Compressibility (1/GPa) = 0.01899305
#
# Stress axis : x y z
#
# Youngs Moduli (GPa) = 55.39107 55.39107 101.91298
#
# Poissons Ratio (x) = 0.35279 0.36149
# Poissons Ratio (y) = 0.35279 0.36149
# Poissons Ratio (z) = 0.19647 0.19647
#
# Static dielectric constant tensor:
#      x y z
#    x 3.037360 0.000000 0.000000 
#    y 0.000000 3.037360 0.000000 
#    z 0.000000 0.000000 3.529640 
# 
# 
# High freq. dielectric constant tensor:
#      x y z
#    x 1.629700 0.000000 0.000000 
#    y 0.000000 1.629700 0.000000 
#    z 0.000000 0.000000 1.674530 
# 
# From -- ./inp_files/3351.got.cif
#   From: 2010.03.12/outbox.cif.g09.slc.cpg/sg181_2_cif.got.tgz:3351.got - 2010.04.01 11:42:41.
