data_PCOD8326212
_publ_section_title
;
Structure prediction by ZEFSAII (Michael W. Deem and Ramdas Pophale) SiO2 
 PCOD8326212
Probable space group: P 62 2 2
;
_chemical_formula_sum "Si O2"
_cell_formula_units_Z 36
_cell_length_a 8.745874
_cell_length_b 8.745874
_cell_length_c 24.099758
_cell_angle_alpha 90.000000
_cell_angle_beta 90.000000
_cell_angle_gamma 120.000000
_cell_volume 1596.429505
_symmetry_space_group_name_H-M "P 62 2 2"
_symmetry_group_IT_number 180
_symmetry_cell_setting 'hexagonal'
loop_
_space_group_symop_operation_xyz
x,y,z
x-y,x,1/3+z
-y,x-y,2/3+z
-x,-y,z
-x+y,-x,1/3+z
y,-x+y,2/3+z
x-y,-y,-z
-x,-x+y,1/3-z
y,x,2/3-z
-y,-x,2/3-z
-x+y,y,-z
x,x-y,1/3-z
loop_
_atom_site_type_symbol
_atom_site_label
_atom_site_fract_x
_atom_site_fract_y
_atom_site_fract_z
Si Si1 0.327013 0.809545 0.893926
Si Si2 0.520200 0.829983 0.608786
Si Si3 0.987038 0.830105 0.438198
O O1 0.273912 0.726089 0.833334
O O2 0.357044 0.678338 0.931422
O O3 0.164340 0.816746 0.923638
O O4 0.500000 0.000000 0.891313
O O5 0.589051 0.794526 0.666667
O O6 0.661813 0.839411 0.562816
O O7 0.500000 0.000000 0.609261
O O8 0.912979 0.825958 0.500000
O O9 0.000000 0.000000 0.407046
#
# Coordination Sequence:
#
# PCOD8326212 Si02
#       3
#    12  12  12
#     4  11  22  40  66  97 132 174 221 276 332 399
#     4  12  26  44  66  96 134 178 224 279 340 404
#     4  10  21  41  66  96 130 169 217 271 326 393
#
# _framework density 22.550319999999999
#
# number of rings (size 3 to 8) (size 9 to 14) (size 15 to 20)
#    0.000    1.000    0.000    9.000    0.000    4.667 
#    0.000    6.667    0.000    0.000    0.000    0.000 
#    0.000    0.000    0.000    0.000    0.000    0.000 
#
# Total GULP energy -446206.138444 kJ/mol
# GULP energy per Si atom -12394.614957 kJ/mol
# Density = 2.249899 g / cm^3
# Si number density = 22.550320 Si / 1000 Ang^3
#
#
#
# Elastic Constant Matrix: (Units=GPa)
#
#
# Indices 1 2 3 4 5 6 
#
# 1 216.4926 97.0539 36.9656 0.0000 0.0000 0.0000
# 2 97.0539 216.4926 36.9656 0.0000 0.0000 0.0000
# 3 36.9656 36.9656 64.6847 0.0000 0.0000 0.0000
# 4 0.0000 0.0000 0.0000 16.4382 0.0000 0.0000
# 5 0.0000 0.0000 0.0000 0.0000 16.4382 0.0000
# 6 0.0000 0.0000 0.0000 0.0000 0.0000 59.7193
#
#
#
# Elastic Compliance Matrix: (Units=1/GPa)
#
#
# Indices 1 2 3 4 5 6 
#
# 1 0.006029 -0.002343 -0.002106 0.000000 0.000000 0.000000
# 2 -0.002343 0.006029 -0.002106 0.000000 0.000000 0.000000
# 3 -0.002106 -0.002106 0.017867 0.000000 0.000000 0.000000
# 4 0.000000 0.000000 0.000000 0.060834 0.000000 0.000000
# 5 0.000000 0.000000 0.000000 0.000000 0.060834 0.000000
# 6 0.000000 0.000000 0.000000 0.000000 0.000000 0.016745
#
#
# Mechanical properties :
#
#
# Convention : Reuss Voigt Hill
#
# Bulk Modulus (GPa) = 59.47651 93.29334 76.38493
# Shear Modulus (GPa) = 26.73011 40.29815 33.51413
#
# Velocity S-wave (km/s) = 3.44663 4.23192 3.85930
# Velocity P-wave (km/s) = 6.50164 8.08331 7.33523
#
# Compressibility (1/GPa) = 0.01681336
#
# Stress axis : x y z
#
# Youngs Moduli (GPa) = 165.85816 165.85816 55.96860
#
# Poissons Ratio (x) = 0.38865 0.11790
# Poissons Ratio (y) = 0.38865 0.11790
# Poissons Ratio (z) = 0.34937 0.34937
#
# Static dielectric constant tensor:
#      x y z
#    x 4.949120 0.000000 0.000000 
#    y 0.000000 4.949120 0.000000 
#    z 0.000000 0.000000 3.795310 
# 
# 
# High freq. dielectric constant tensor:
#      x y z
#    x 1.914810 0.000000 0.000000 
#    y 0.000000 1.914810 0.000000 
#    z 0.000000 0.000000 1.851870 
# 
# From -- ./inp_files/10796.got.cif
#   From: 2010.03.12/outbox.cif.g09.slc.cpg/sg180_6_cif.got.tgz:10796.got - 2010.04.01 11:35:50.
