data_PCOD8326645
_publ_section_title
;
Structure prediction by ZEFSAII (Michael W. Deem and Ramdas Pophale) SiO2 
 PCOD8326645
Probable space group: P 63 C M
;
_chemical_formula_sum "Si O2"
_cell_formula_units_Z 60
_cell_length_a 16.519764
_cell_length_b 16.519764
_cell_length_c 14.173840
_cell_angle_alpha 90.000000
_cell_angle_beta 90.000000
_cell_angle_gamma 120.000000
_cell_volume 3349.853660
_symmetry_space_group_name_H-M "P 63 C M"
_symmetry_group_IT_number 185
_symmetry_cell_setting 'hexagonal'
loop_
_space_group_symop_operation_xyz
x,y,z
x-y,x,1/2+z
-y,x-y,z
-x,-y,1/2+z
-x+y,-x,z
y,-x+y,1/2+z
-x+y,y,1/2+z
x,x-y,1/2+z
-y,-x,1/2+z
y,x,z
x-y,-y,z
-x,-x+y,z
loop_
_atom_site_type_symbol
_atom_site_label
_atom_site_fract_x
_atom_site_fract_y
_atom_site_fract_z
Si Si1 0.356470 0.893172 0.967140
Si Si2 0.643530 0.536702 0.496884
Si Si3 0.221196 0.110401 0.232012
Si Si4 0.815061 0.216057 0.127937
Si Si5 0.216057 0.815061 0.336088
O O1 0.286206 0.836048 0.883571
O O2 0.413828 0.000000 0.934770
O O3 0.426337 0.852673 0.982012
O O4 0.303446 0.885371 0.064789
O O5 0.586172 0.586172 0.529254
O O6 0.713794 0.549842 0.580453
O O7 0.696554 0.581924 0.399235
O O8 0.159256 0.159256 0.232012
O O9 0.288712 0.142579 0.139354
O O10 0.288712 0.142579 0.324670
O O11 0.152800 0.000000 0.232012
O O12 0.805963 0.251828 0.232012
#
# Coordination Sequence:
#
# PCOD8326645 Si02
#       5
#    12  12  12  12  12
#     4  10  20  36  59  83 109 147 196 240 288 353
#     4  10  20  36  59  83 109 147 196 240 288 353
#     4  10  19  34  58  86 118 154 194 234 283 348
#     4   9  21  37  55  84 118 154 185 244 300 341
#     4   9  21  37  55  84 118 154 185 244 300 341
#
# _framework density 17.91123
#
# number of rings (size 3 to 8) (size 9 to 14) (size 15 to 20)
#    1.200    1.200    0.000    2.600    0.000    1.600 
#    9.600    4.000    0.000    0.000    0.000   14.000 
#    0.000    0.000    0.000    0.000    0.000    0.000 
#
# Total GULP energy -743676.055333 kJ/mol
# GULP energy per Si atom -12394.600922 kJ/mol
# Density = 1.787046 g / cm^3
# Si number density = 17.911230 Si / 1000 Ang^3
#
#
#
# Elastic Constant Matrix: (Units=GPa)
#
#
# Indices 1 2 3 4 5 6 
#
# 1 106.7953 34.0741 14.8863 0.0000 0.0000 0.0000
# 2 34.0741 106.7953 14.8863 0.0000 0.0000 0.0000
# 3 14.8863 14.8863 92.9020 0.0000 0.0000 0.0000
# 4 0.0000 0.0000 0.0000 22.8411 0.0000 0.0000
# 5 0.0000 0.0000 0.0000 0.0000 22.8411 0.0000
# 6 0.0000 0.0000 0.0000 0.0000 0.0000 36.3606
#
#
#
# Elastic Compliance Matrix: (Units=1/GPa)
#
#
# Indices 1 2 3 4 5 6 
#
# 1 0.010549 -0.003202 -0.001177 0.000000 0.000000 0.000000
# 2 -0.003202 0.010549 -0.001177 0.000000 0.000000 0.000000
# 3 -0.001177 -0.001177 0.011141 0.000000 0.000000 0.000000
# 4 0.000000 0.000000 0.000000 0.043781 0.000000 0.000000
# 5 0.000000 0.000000 0.000000 0.000000 0.043781 0.000000
# 6 0.000000 0.000000 0.000000 0.000000 0.000000 0.027502
#
#
# Mechanical properties :
#
#
# Convention : Reuss Voigt Hill
#
# Bulk Modulus (GPa) = 47.33250 48.24289 47.78769
# Shear Modulus (GPa) = 30.21896 32.58497 31.40197
#
# Velocity S-wave (km/s) = 4.11195 4.26989 4.19167
# Velocity P-wave (km/s) = 7.00198 7.16256 7.08272
#
# Compressibility (1/GPa) = 0.02112713
#
# Stress axis : x y z
#
# Youngs Moduli (GPa) = 94.79231 94.79231 89.75582
#
# Poissons Ratio (x) = 0.30350 0.10567
# Poissons Ratio (y) = 0.30350 0.10567
# Poissons Ratio (z) = 0.11160 0.11160
#
# Static dielectric constant tensor:
#      x y z
#    x 3.249540 0.000000 0.000000 
#    y 0.000000 3.249540 0.000000 
#    z 0.000000 0.000000 3.217330 
# 
# 
# High freq. dielectric constant tensor:
#      x y z
#    x 1.692980 0.000000 0.000000 
#    y 0.000000 1.692980 0.000000 
#    z 0.000000 0.000000 1.686110 
# 
# From -- ./inp_files/1350.got.cif
#   From: 2010.03.12/outbox.cif.g09.slc.cpg/sg185_cif.got.tgz:1350.got - 2010.04.01 11:55:19.
