data_PCOD8326430
_publ_section_title
;
Structure prediction by ZEFSAII (Michael W. Deem and Ramdas Pophale) SiO2 
 PCOD8326430
Probable space group: P 64 2 2
;
_chemical_formula_sum "Si O2"
_cell_formula_units_Z 45
_cell_length_a 12.292145
_cell_length_b 12.292145
_cell_length_c 16.216614
_cell_angle_alpha 90.000000
_cell_angle_beta 90.000000
_cell_angle_gamma 120.000000
_cell_volume 2122.003815
_symmetry_space_group_name_H-M "P 64 2 2"
_symmetry_group_IT_number 181
_symmetry_cell_setting 'hexagonal'
loop_
_space_group_symop_operation_xyz
x,y,z
x-y,x,2/3+z
-y,x-y,1/3+z
-x,-y,z
-x+y,-x,2/3+z
y,-x+y,1/3+z
x-y,-y,-z
-x,-x+y,2/3-z
y,x,1/3-z
-y,-x,1/3-z
-x+y,y,-z
x,x-y,2/3-z
loop_
_atom_site_type_symbol
_atom_site_label
_atom_site_fract_x
_atom_site_fract_y
_atom_site_fract_z
Si Si1 0.353084 0.907297 0.274879
Si Si2 0.000000 0.000000 0.166667
Si Si3 0.679284 0.358568 0.500000
Si Si4 0.748447 0.827848 0.422997
Si Si5 0.419657 0.295366 0.126413
O O1 0.325350 0.550902 0.429644
O O2 0.288648 0.890182 0.362982
O O3 0.500000 0.000000 0.283129
O O4 0.293428 0.976455 0.223915
O O5 0.018173 0.104683 0.100924
O O6 0.720650 0.261865 0.468258
O O7 0.704070 0.852035 0.333334
O O8 0.692588 0.870696 0.496424
O O9 0.417732 0.417732 0.166667
#
# Coordination Sequence:
#
# PCOD8326430 Si02
#       5
#    12   3   6  12  12
#     4  12  25  45  71 102 146 186 235 293 358 433
#     4  12  24  44  72  98 144 180 236 302 356 420
#     4  12  26  44  70 104 142 188 230 298 364 412
#     4  12  24  45  71 105 140 187 239 295 358 430
#     4  12  24  43  72 105 134 182 244 293 345 428
#
# _framework density 21.206368999999999
#
# number of rings (size 3 to 8) (size 9 to 14) (size 15 to 20)
#    0.000    0.000    6.667    4.000    0.000    0.000 
#    0.000    4.000    0.000    0.000    0.000    0.000 
#    0.000    0.000    0.000    0.000    0.000    0.000 
#
# Total GULP energy -557484.846702 kJ/mol
# GULP energy per Si atom -12388.552149 kJ/mol
# Density = 2.115810 g / cm^3
# Si number density = 21.206369 Si / 1000 Ang^3
#
#
#
# Elastic Constant Matrix: (Units=GPa)
#
#
# Indices 1 2 3 4 5 6 
#
# 1 146.9693 60.5781 51.3252 0.0000 0.0000 0.0000
# 2 60.5781 146.9693 51.3252 0.0000 0.0000 0.0000
# 3 51.3252 51.3252 123.3180 0.0000 0.0000 0.0000
# 4 0.0000 0.0000 0.0000 -3.3928 0.0000 0.0000
# 5 0.0000 0.0000 0.0000 0.0000 -3.3928 0.0000
# 6 0.0000 0.0000 0.0000 0.0000 0.0000 43.1956
#
#
#
# Elastic Compliance Matrix: (Units=1/GPa)
#
#
# Indices 1 2 3 4 5 6 
#
# 1 0.008821 -0.002754 -0.002525 0.000000 0.000000 0.000000
# 2 -0.002754 0.008821 -0.002525 0.000000 0.000000 0.000000
# 3 -0.002525 -0.002525 0.010211 0.000000 0.000000 0.000000
# 4 0.000000 0.000000 0.000000 -0.294743 0.000000 0.000000
# 5 0.000000 0.000000 0.000000 0.000000 -0.294743 0.000000
# 6 0.000000 0.000000 0.000000 0.000000 0.000000 0.023150
#
#
# Mechanical properties :
#
#
# Convention : Reuss Voigt Hill
#
# Bulk Modulus (GPa) = 81.66815 82.63486 82.15150
# Shear Modulus (GPa) = -9.63776 24.21723 7.28973
#
# Velocity S-wave (km/s) = -2.13415 3.38298 1.85607
# Velocity P-wave (km/s) = 5.70280 7.36960 6.58912
#
# Compressibility (1/GPa) = 0.01224468
#
# Stress axis : x y z
#
# Youngs Moduli (GPa) = 113.36379 113.36379 97.93323
#
# Poissons Ratio (x) = 0.31221 0.24729
# Poissons Ratio (y) = 0.31221 0.24729
# Poissons Ratio (z) = 0.28626 0.28626
#
# Static dielectric constant tensor:
#      x y z
#    x 4.064650 0.000000 0.000000 
#    y 0.000000 4.064650 0.000000 
#    z 0.000000 0.000000 3.791580 
# 
# 
# High freq. dielectric constant tensor:
#      x y z
#    x 1.848500 0.000000 0.000000 
#    y 0.000000 1.848500 0.000000 
#    z 0.000000 0.000000 1.822340 
# 
# From -- ./inp_files/7392.got.cif
#   From: 2010.03.12/outbox.cif.g09.slc.cpg/sg181_4_cif.got.tgz:7392.got - 2010.04.01 11:42:41.
