data_PCOD8326226
_publ_section_title
;
Structure prediction by ZEFSAII (Michael W. Deem and Ramdas Pophale) SiO2 
 PCOD8326226
Probable space group: P 62 2 2
;
_chemical_formula_sum "Si O2"
_cell_formula_units_Z 66
_cell_length_a 18.806681
_cell_length_b 18.806681
_cell_length_c 8.595520
_cell_angle_alpha 90.000000
_cell_angle_beta 90.000000
_cell_angle_gamma 120.000000
_cell_volume 2632.855978
_symmetry_space_group_name_H-M "P 62 2 2"
_symmetry_group_IT_number 180
_symmetry_cell_setting 'hexagonal'
loop_
_space_group_symop_operation_xyz
x,y,z
x-y,x,1/3+z
-y,x-y,2/3+z
-x,-y,z
-x+y,-x,1/3+z
y,-x+y,2/3+z
x-y,-y,-z
-x,-x+y,1/3-z
y,x,2/3-z
-y,-x,2/3-z
-x+y,y,-z
x,x-y,1/3-z
loop_
_atom_site_type_symbol
_atom_site_label
_atom_site_fract_x
_atom_site_fract_y
_atom_site_fract_z
Si Si1 0.402190 0.091943 0.658130
Si Si2 0.845932 0.280015 0.651659
Si Si3 0.670589 0.465301 0.754478
Si Si4 0.946575 0.409150 0.903110
Si Si5 0.261835 0.130918 0.666667
Si Si6 0.157984 0.906888 0.997983
O O1 0.458345 0.162096 0.538056
O O2 0.313663 0.084155 0.663206
O O3 0.390074 0.000496 0.638954
O O4 0.447976 0.123056 0.822304
O O5 0.752666 0.264263 0.678676
O O6 0.912375 0.340737 0.772460
O O7 0.844623 0.193634 0.663131
O O8 0.626180 0.373821 0.833334
O O9 0.596905 0.464550 0.656930
O O10 0.000000 0.500000 0.833180
O O11 0.213644 0.107279 0.497152
O O12 0.108128 0.891873 0.833334
O O13 0.231685 0.000000 0.000000
#
# Coordination Sequence:
#
# PCOD8326226 Si02
#       6
#    12  12  12  12   6  12
#     4  11  21  42  64  95 137 177 238 303 367 443
#     4  11  24  43  68  97 144 187 240 309 378 440
#     4  12  23  43  67  99 139 188 238 302 376 452
#     4  12  25  40  68 101 132 179 249 310 370 436
#     4  10  22  42  68 102 145 194 234 306 375 436
#     4  11  23  43  70 112 152 193 240 299 374 453
#
# _framework density 25.067834999999999
#
# number of rings (size 3 to 8) (size 9 to 14) (size 15 to 20)
#    0.000    0.727    5.455    4.909    0.000    2.182 
#    6.545    0.000    8.000    0.000    0.000    3.182 
#    0.000    0.000    0.000    0.000    0.000    0.000 
#
# Total GULP energy -817618.124101 kJ/mol
# GULP energy per Si atom -12388.153395 kJ/mol
# Density = 2.501078 g / cm^3
# Si number density = 25.067835 Si / 1000 Ang^3
#
#
#
# Elastic Constant Matrix: (Units=GPa)
#
#
# Indices 1 2 3 4 5 6 
#
# 1 86.7461 25.4976 11.7229 0.0000 0.0000 0.0000
# 2 25.4976 86.7461 11.7229 0.0000 0.0000 0.0000
# 3 11.7229 11.7229 160.6850 0.0000 0.0000 0.0000
# 4 0.0000 0.0000 0.0000 26.4911 0.0000 0.0000
# 5 0.0000 0.0000 0.0000 0.0000 26.4911 0.0000
# 6 0.0000 0.0000 0.0000 0.0000 0.0000 30.6243
#
#
#
# Elastic Compliance Matrix: (Units=1/GPa)
#
#
# Indices 1 2 3 4 5 6 
#
# 1 0.012687 -0.003640 -0.000660 0.000000 0.000000 0.000000
# 2 -0.003640 0.012687 -0.000660 0.000000 0.000000 0.000000
# 3 -0.000660 -0.000660 0.006320 0.000000 0.000000 0.000000
# 4 0.000000 0.000000 0.000000 0.037748 0.000000 0.000000
# 5 0.000000 0.000000 0.000000 0.000000 0.037748 0.000000
# 6 0.000000 0.000000 0.000000 0.000000 0.000000 0.032654
#
#
# Mechanical properties :
#
#
# Convention : Reuss Voigt Hill
#
# Bulk Modulus (GPa) = 45.92710 48.00711 46.96711
# Shear Modulus (GPa) = 31.84261 35.73691 33.78976
#
# Velocity S-wave (km/s) = 3.56793 3.77982 3.67540
# Velocity P-wave (km/s) = 5.94428 6.18400 6.06532
#
# Compressibility (1/GPa) = 0.02177363
#
# Stress axis : x y z
#
# Youngs Moduli (GPa) = 78.82092 78.82092 158.23633
#
# Poissons Ratio (x) = 0.28690 0.10444
# Poissons Ratio (y) = 0.28690 0.10444
# Poissons Ratio (z) = 0.05202 0.05202
#
# Static dielectric constant tensor:
#      x y z
#    x 4.168720 0.000000 0.000000 
#    y 0.000000 4.168720 0.000000 
#    z 0.000000 0.000000 5.197750 
# 
# 
# High freq. dielectric constant tensor:
#      x y z
#    x 1.967720 0.000000 0.000000 
#    y 0.000000 1.967720 0.000000 
#    z 0.000000 0.000000 2.025670 
# 
# From -- ./inp_files/3216.got.cif
#   From: 2010.03.12/outbox.cif.g09.slc.cpg/sg180_2_cif.got.tgz:3216.got - 2010.04.01 11:35:50.
