data_PCOD8326015
_publ_section_title
;
Structure prediction by ZEFSAII (Michael W. Deem and Ramdas Pophale) SiO2 
 PCOD8326015
Probable space group: P 65 2 2
;
_chemical_formula_sum "Si O2"
_cell_formula_units_Z 66
_cell_length_a 11.701078
_cell_length_b 11.701078
_cell_length_c 29.125536
_cell_angle_alpha 90.000000
_cell_angle_beta 90.000000
_cell_angle_gamma 120.000000
_cell_volume 3453.474924
_symmetry_space_group_name_H-M "P 65 2 2"
_symmetry_group_IT_number 179
_symmetry_cell_setting 'hexagonal'
loop_
_space_group_symop_operation_xyz
x,y,z
x-y,x,5/6+z
-y,x-y,2/3+z
-x,-y,1/2+z
-x+y,-x,1/3+z
y,-x+y,1/6+z
x-y,-y,-z
-x,-x+y,1/3-z
y,x,2/3-z
-y,-x,1/6-z
-x+y,y,1/2-z
x,x-y,5/6-z
loop_
_atom_site_type_symbol
_atom_site_label
_atom_site_fract_x
_atom_site_fract_y
_atom_site_fract_z
Si Si1 0.761933 0.486354 0.947732
Si Si2 0.235796 0.692711 0.278101
Si Si3 0.145240 0.290480 0.250000
Si Si4 0.901776 0.939644 0.045527
Si Si5 0.588046 0.571380 0.704120
Si Si6 0.325535 0.343346 0.560342
O O1 0.716349 0.358175 0.916667
O O2 0.662729 0.540995 0.937491
O O3 0.912463 0.599566 0.934365
O O4 0.739299 0.442988 0.000585
O O5 0.322239 0.644478 0.250000
O O6 0.081533 0.577134 0.274973
O O7 0.268846 0.832201 0.255399
O O8 0.185021 0.195556 0.278100
O O9 0.259291 0.378347 0.214525
O O10 0.804097 0.784697 0.041602
O O11 0.017647 0.982354 0.083334
O O12 0.986613 0.000000 0.000000
O O13 0.581712 0.572863 0.648291
#
# Coordination Sequence:
#
# PCOD8326015 Si02
#       6
#    12  12   6  12  12  12
#     4  11  22  39  63  91 123 167 211 259 317 393
#     4  11  25  39  59  92 132 162 213 270 322 382
#     4  10  18  32  56  88 118 142 194 256 310 352
#     4  10  19  33  56  91 120 151 200 260 312 369
#     4  11  21  37  62  91 119 161 206 261 319 372
#     4  11  21  38  60  91 122 167 208 256 321 391
#
# _framework density 19.111186
#
# number of rings (size 3 to 8) (size 9 to 14) (size 15 to 20)
#    0.545    0.727    6.364    0.545    5.091    0.000 
#    0.000    3.636    0.000    0.000    0.000    0.000 
#    0.000    0.000    0.000    0.000    0.000    0.000 
#
# Total GULP energy -817694.282735 kJ/mol
# GULP energy per Si atom -12389.307314 kJ/mol
# Density = 1.906769 g / cm^3
# Si number density = 19.111186 Si / 1000 Ang^3
#
#
#
# Elastic Constant Matrix: (Units=GPa)
#
#
# Indices 1 2 3 4 5 6 
#
# 1 106.9517 49.3773 29.9569 0.0000 0.0000 0.0000
# 2 49.3773 106.9517 29.9569 0.0000 0.0000 0.0000
# 3 29.9569 29.9569 86.6431 0.0000 0.0000 0.0000
# 4 0.0000 0.0000 0.0000 29.3842 0.0000 0.0000
# 5 0.0000 0.0000 0.0000 0.0000 29.3842 0.0000
# 6 0.0000 0.0000 0.0000 0.0000 0.0000 28.7872
#
#
#
# Elastic Compliance Matrix: (Units=1/GPa)
#
#
# Indices 1 2 3 4 5 6 
#
# 1 0.012371 -0.004997 -0.002550 0.000000 0.000000 0.000000
# 2 -0.004997 0.012371 -0.002550 0.000000 0.000000 0.000000
# 3 -0.002550 -0.002550 0.013305 0.000000 0.000000 0.000000
# 4 0.000000 0.000000 0.000000 0.034032 0.000000 0.000000
# 5 0.000000 0.000000 0.000000 0.000000 0.034032 0.000000
# 6 0.000000 0.000000 0.000000 0.000000 0.000000 0.034738
#
#
# Mechanical properties :
#
#
# Convention : Reuss Voigt Hill
#
# Bulk Modulus (GPa) = 56.00902 57.68097 56.84499
# Shear Modulus (GPa) = 29.94133 30.26147 30.10140
#
# Velocity S-wave (km/s) = 3.96244 3.98357 3.97302
# Velocity P-wave (km/s) = 7.09261 7.16978 7.13130
#
# Compressibility (1/GPa) = 0.01785427
#
# Stress axis : x y z
#
# Youngs Moduli (GPa) = 80.83194 80.83194 75.16199
#
# Poissons Ratio (x) = 0.40396 0.19163
# Poissons Ratio (y) = 0.40396 0.19163
# Poissons Ratio (z) = 0.20608 0.20608
#
# Static dielectric constant tensor:
#      x y z
#    x 3.525780 0.000000 0.000000 
#    y 0.000000 3.525780 0.000000 
#    z 0.000000 0.000000 3.394390 
# 
# 
# High freq. dielectric constant tensor:
#      x y z
#    x 1.733760 0.000000 0.000000 
#    y 0.000000 1.733760 0.000000 
#    z 0.000000 0.000000 1.735260 
# 
# From -- ./inp_files/9506.got.cif
#   From: 2010.03.12/outbox.cif.g09.slc.cpg/sg179_5_cif.got.tgz:9506.got - 2010.04.02 07:08:42.
