data_PCOD8326154
_publ_section_title
;
Structure prediction by ZEFSAII (Michael W. Deem and Ramdas Pophale) SiO2 
 PCOD8326154
Probable space group: P 62 2 2
;
_chemical_formula_sum "Si O2"
_cell_formula_units_Z 72
_cell_length_a 15.257985
_cell_length_b 15.257985
_cell_length_c 18.235297
_cell_angle_alpha 90.000000
_cell_angle_beta 90.000000
_cell_angle_gamma 120.000000
_cell_volume 3676.527680
_symmetry_space_group_name_H-M "P 62 2 2"
_symmetry_group_IT_number 180
_symmetry_cell_setting 'hexagonal'
loop_
_space_group_symop_operation_xyz
x,y,z
x-y,x,1/3+z
-y,x-y,2/3+z
-x,-y,z
-x+y,-x,1/3+z
y,-x+y,2/3+z
x-y,-y,-z
-x,-x+y,1/3-z
y,x,2/3-z
-y,-x,2/3-z
-x+y,y,-z
x,x-y,1/3-z
loop_
_atom_site_type_symbol
_atom_site_label
_atom_site_fract_x
_atom_site_fract_y
_atom_site_fract_z
Si Si1 0.025871 0.784399 0.490467
Si Si2 0.793077 0.905132 0.044842
Si Si3 0.434410 0.385635 0.734195
Si Si4 0.612875 0.549584 0.104816
Si Si5 0.475678 0.723697 0.824591
Si Si6 0.123325 0.340306 0.246041
O O1 0.994982 0.830640 0.420597
O O2 0.949785 0.753505 0.558787
O O3 0.018382 0.679467 0.469957
O O4 0.139488 0.867773 0.514704
O O5 0.698892 0.836072 0.991666
O O6 0.884210 0.000000 0.000000
O O7 0.500000 0.500000 0.765635
O O8 0.442083 0.387429 0.648156
O O9 0.473506 0.314475 0.765534
O O10 0.318470 0.334639 0.759909
O O11 0.500000 0.500000 0.136844
O O12 0.654275 0.475542 0.127035
O O13 0.359174 0.640827 0.833334
O O14 0.541662 0.752089 0.900220
#
# Coordination Sequence:
#
# PCOD8326154 Si02
#       6
#    12  12  12  12  12  12
#     4   9  18  34  57  86 116 157 202 246 298 348
#     4   9  17  33  57  86 117 153 205 246 287 348
#     4  11  20  35  57  87 122 157 191 240 307 365
#     4  10  22  39  58  83 119 157 203 249 297 361
#     4  11  22  37  58  88 123 154 196 244 301 362
#     4  10  19  32  57  87 121 159 192 239 303 361
#
# _framework density 19.583697000000001
#
# number of rings (size 3 to 8) (size 9 to 14) (size 15 to 20)
#    0.000    2.000    3.333    1.000    0.000    0.000 
#    3.000    0.000    0.000   11.500    0.000  151.667 
#    0.000    0.000    0.000    0.000    0.000    0.000 
#
# Total GULP energy -892428.736052 kJ/mol
# GULP energy per Si atom -12394.843556 kJ/mol
# Density = 1.953912 g / cm^3
# Si number density = 19.583697 Si / 1000 Ang^3
#
#
#
# Elastic Constant Matrix: (Units=GPa)
#
#
# Indices 1 2 3 4 5 6 
#
# 1 139.2247 74.0395 51.2762 0.0000 0.0000 0.0000
# 2 74.0395 139.2247 51.2762 0.0000 0.0000 0.0000
# 3 51.2762 51.2762 96.7349 0.0000 0.0000 0.0000
# 4 0.0000 0.0000 0.0000 11.2882 0.0000 0.0000
# 5 0.0000 0.0000 0.0000 0.0000 11.2882 0.0000
# 6 0.0000 0.0000 0.0000 0.0000 0.0000 32.5926
#
#
#
# Elastic Compliance Matrix: (Units=1/GPa)
#
#
# Indices 1 2 3 4 5 6 
#
# 1 0.010817 -0.004524 -0.003336 0.000000 0.000000 0.000000
# 2 -0.004524 0.010817 -0.003336 0.000000 0.000000 0.000000
# 3 -0.003336 -0.003336 0.013874 0.000000 0.000000 0.000000
# 4 0.000000 0.000000 0.000000 0.088588 0.000000 0.000000
# 5 0.000000 0.000000 0.000000 0.000000 0.088588 0.000000
# 6 0.000000 0.000000 0.000000 0.000000 0.000000 0.030682
#
#
# Mechanical properties :
#
#
# Convention : Reuss Voigt Hill
#
# Bulk Modulus (GPa) = 76.23694 80.92979 78.58337
# Shear Modulus (GPa) = 18.50961 24.27327 21.39144
#
# Velocity S-wave (km/s) = 3.07767 3.52442 3.30859
# Velocity P-wave (km/s) = 7.18629 7.61425 7.40336
#
# Compressibility (1/GPa) = 0.01311700
#
# Stress axis : x y z
#
# Youngs Moduli (GPa) = 92.44704 92.44704 72.07764
#
# Poissons Ratio (x) = 0.41822 0.24044
# Poissons Ratio (y) = 0.41822 0.24044
# Poissons Ratio (z) = 0.30838 0.30838
#
# Static dielectric constant tensor:
#      x y z
#    x 3.833740 0.000000 0.000000 
#    y 0.000000 3.833740 0.000000 
#    z 0.000000 0.000000 3.760400 
# 
# 
# High freq. dielectric constant tensor:
#      x y z
#    x 1.757590 0.000000 0.000000 
#    y 0.000000 1.757590 0.000000 
#    z 0.000000 0.000000 1.770370 
# 
# From -- ./inp_files/7781.got.cif
#   From: 2010.03.12/outbox.cif.g09.slc.cpg/sg180_4_cif.got.tgz:7781.got - 2010.04.01 11:35:50.
