data_PCOD8326934
_publ_section_title
;
Structure prediction by ZEFSAII (Michael W. Deem and Ramdas Pophale) SiO2 
 PCOD8326934
Probable space group: P -6 M 2
;
_chemical_formula_sum "Si O2"
_cell_formula_units_Z 72
_cell_length_a 22.936611
_cell_length_b 22.936611
_cell_length_c 9.403742
_cell_angle_alpha 90.000000
_cell_angle_beta 90.000000
_cell_angle_gamma 120.000000
_cell_volume 4284.398270
_symmetry_space_group_name_H-M "P -6 M 2"
_symmetry_group_IT_number 187
_symmetry_cell_setting 'hexagonal'
loop_
_space_group_symop_operation_xyz
x,y,z
-x+y,-x,-z
-y,x-y,z
x,y,-z
-x+y,-x,z
-y,x-y,-z
-y,-x,-z
-x+y,y,-z
x,x-y,-z
-x+y,y,z
x,x-y,z
-y,-x,z
loop_
_atom_site_type_symbol
_atom_site_label
_atom_site_fract_x
_atom_site_fract_y
_atom_site_fract_z
Si Si1 0.605297 0.077218 0.164834
Si Si2 0.738435 0.000001 0.668781
Si Si3 0.131110 0.000000 0.669782
Si Si4 0.869304 0.603866 0.331968
Si Si5 0.603867 0.734563 0.331968
Si Si6 0.394701 0.471925 0.164835
O O1 0.548885 0.097770 0.193334
O O2 0.670087 0.127378 0.257044
O O3 0.577066 0.999997 0.212330
O O4 0.625350 0.085908 0.000000
O O5 0.740719 0.000000 0.500000
O O6 0.803570 0.999999 0.731156
O O7 0.672946 0.932899 0.723484
O O8 0.740050 0.067104 0.723484
O O9 0.131642 0.000002 0.500000
O O10 0.065454 0.934547 0.728608
O O11 0.130909 0.065455 0.728613
O O12 0.872043 0.595869 0.500000
O O13 0.801287 0.602574 0.285861
O O14 0.595870 0.723827 0.500000
O O15 0.602581 0.801291 0.285860
O O16 0.542708 0.670091 0.257042
O O17 0.451112 0.548889 0.193344
O O18 0.374651 0.460566 0.000000
#
# Coordination Sequence:
#
# PCOD8326934 Si02
#       6
#    12  12  12  12  12  12
#     4   9  18  33  52  73  97 125 159 199 243 293
#     4   9  16  27  40  59  91 128 160 195 240 286
#     4   9  15  22  33  50  76 115 162 205 240 276
#     4  10  19  30  47  73 102 132 166 200 239 290
#     4  10  19  30  47  73 102 132 166 200 239 290
#     4   9  18  33  52  73  97 125 159 199 243 293
#
# _framework density 16.805160000000001
#
# number of rings (size 3 to 8) (size 9 to 14) (size 15 to 20)
#    0.000    2.667    1.667    2.167    0.000    6.000 
#    0.000    1.667    0.000    0.667    0.000    0.000 
#    0.000    0.000    0.000    0.000    0.000   11.833 
#
# Total GULP energy -892781.528250 kJ/mol
# GULP energy per Si atom -12399.743448 kJ/mol
# Density = 1.676691 g / cm^3
# Si number density = 16.805160 Si / 1000 Ang^3
#
#
#
# Elastic Constant Matrix: (Units=GPa)
#
#
# Indices 1 2 3 4 5 6 
#
# 1 127.0805 67.6020 38.3262 0.0000 -0.0001 0.0000
# 2 67.6020 127.0805 38.3262 0.0000 0.0001 0.0000
# 3 38.3262 38.3262 29.0563 0.0000 0.0000 0.0000
# 4 0.0000 0.0000 0.0000 19.7163 0.0000 0.0001
# 5 -0.0001 0.0001 0.0000 0.0000 19.7163 0.0000
# 6 0.0000 0.0000 0.0000 0.0001 0.0000 29.7392
#
#
#
# Elastic Compliance Matrix: (Units=1/GPa)
#
#
# Indices 1 2 3 4 5 6 
#
# 1 0.013750 -0.003063 -0.014096 0.000000 0.000000 0.000000
# 2 -0.003063 0.013750 -0.014096 0.000000 0.000000 0.000000
# 3 -0.014096 -0.014096 0.071602 0.000000 0.000000 0.000000
# 4 0.000000 0.000000 0.000000 0.050719 0.000000 0.000000
# 5 0.000000 0.000000 0.000000 0.000000 0.050719 0.000000
# 6 0.000000 0.000000 0.000000 0.000000 0.000000 0.033626
#
#
# Mechanical properties :
#
#
# Convention : Reuss Voigt Hill
#
# Bulk Modulus (GPa) = 27.32884 63.52511 45.42698
# Shear Modulus (GPa) = 16.18791 23.09858 19.64324
#
# Velocity S-wave (km/s) = 3.10703 3.71144 3.42260
# Velocity P-wave (km/s) = 5.40083 7.49996 6.53523
#
# Compressibility (1/GPa) = 0.03659138
#
# Stress axis : x y z
#
# Youngs Moduli (GPa) = 72.72899 72.72899 13.96611
#
# Poissons Ratio (x) = 0.22278 0.19686
# Poissons Ratio (y) = 0.22278 0.19686
# Poissons Ratio (z) = 1.02518 1.02518
#
# Static dielectric constant tensor:
#      x y z
#    x 3.164810 0.000000 0.000000 
#    y 0.000000 3.164810 0.000000 
#    z 0.000000 0.000000 2.709660 
# 
# 
# High freq. dielectric constant tensor:
#      x y z
#    x 1.646610 0.000000 0.000000 
#    y 0.000000 1.646610 0.000000 
#    z 0.000000 0.000000 1.607020 
# 
# From -- ./inp_files/934.got.cif
#   From: 2010.03.12/outbox.cif.g09.slc.cpg/sg187_1_cif.got.tgz:934.got - 2010.04.01 11:58:23.
