data_PCOD8326748
_publ_section_title
;
Structure prediction by ZEFSAII (Michael W. Deem and Ramdas Pophale) SiO2 
 PCOD8326748
Probable space group: P 63 M C
;
_chemical_formula_sum "Si O2"
_cell_formula_units_Z 60
_cell_length_a 26.145721
_cell_length_b 26.145721
_cell_length_c 5.344180
_cell_angle_alpha 90.000000
_cell_angle_beta 90.000000
_cell_angle_gamma 120.000000
_cell_volume 3163.828648
_symmetry_space_group_name_H-M "P 63 M C"
_symmetry_group_IT_number 186
_symmetry_cell_setting 'hexagonal'
loop_
_space_group_symop_operation_xyz
x,y,z
x-y,x,1/2+z
-y,x-y,z
-x,-y,1/2+z
-x+y,-x,z
y,-x+y,1/2+z
-x+y,y,z
x,x-y,z
-y,-x,z
y,x,1/2+z
x-y,-y,1/2+z
-x,-x+y,1/2+z
loop_
_atom_site_type_symbol
_atom_site_label
_atom_site_fract_x
_atom_site_fract_y
_atom_site_fract_z
Si Si1 0.052102 0.751642 0.117630
Si Si2 0.785232 0.332396 0.617638
Si Si3 0.651090 0.725104 0.617630
Si Si4 0.826050 0.970737 0.117642
Si Si5 0.822271 0.296398 0.117638
O O1 0.092488 0.764723 0.364048
O O2 0.020127 0.790123 0.117639
O O3 0.997968 0.682775 0.117627
O O4 0.092487 0.764724 0.871208
O O5 0.791739 0.395870 0.617633
O O6 0.716362 0.283639 0.617638
O O7 0.815985 0.326736 0.867902
O O8 0.815986 0.326734 0.367380
O O9 0.580321 0.690895 0.617635
O O10 0.803217 0.901609 0.117646
O O11 0.864484 0.000001 0.367640
O O12 0.773592 0.226409 0.117635
#
# Coordination Sequence:
#
# PCOD8326748 Si02
#       5
#    12  12  12  12  12
#     4  10  19  35  55  83 111 152 193 214 275 347
#     4  10  20  36  55  79 111 150 195 237 282 339
#     4  10  18  33  53  77 121 142 183 221 277 344
#     4  12  23  41  61  88 118 146 192 242 284 333
#     4  10  21  33  51  83 115 144 185 234 293 349
#
# _framework density 18.964362999999999
#
# number of rings (size 3 to 8) (size 9 to 14) (size 15 to 20)
#    0.000    1.600    4.000    2.600    0.000    1.600 
#    0.000    2.000    0.000    4.000    0.000   56.000 
#    0.000    0.000    0.000    0.000    0.000    0.000 
#
# Total GULP energy -743405.694605 kJ/mol
# GULP energy per Si atom -12390.094910 kJ/mol
# Density = 1.892120 g / cm^3
# Si number density = 18.964363 Si / 1000 Ang^3
#
#
#
# Elastic Constant Matrix: (Units=GPa)
#
#
# Indices 1 2 3 4 5 6 
#
# 1 83.9829 46.3778 41.5926 0.0000 0.0000 0.0000
# 2 46.3778 83.9829 41.5926 0.0000 0.0000 0.0000
# 3 41.5926 41.5926 229.2156 0.0000 0.0000 0.0000
# 4 0.0000 0.0000 0.0000 14.3307 0.0000 0.0000
# 5 0.0000 0.0000 0.0000 0.0000 14.3307 0.0000
# 6 0.0000 0.0000 0.0000 0.0000 0.0000 18.8026
#
#
#
# Elastic Compliance Matrix: (Units=1/GPa)
#
#
# Indices 1 2 3 4 5 6 
#
# 1 0.017634 -0.008958 -0.001574 0.000000 0.000000 0.000000
# 2 -0.008958 0.017634 -0.001574 0.000000 0.000000 0.000000
# 3 -0.001574 -0.001574 0.004934 0.000000 0.000000 0.000000
# 4 0.000000 0.000000 0.000000 0.069780 0.000000 0.000000
# 5 0.000000 0.000000 0.000000 0.000000 0.069780 0.000000
# 6 0.000000 0.000000 0.000000 0.000000 0.000000 0.053184
#
#
# Mechanical properties :
#
#
# Convention : Reuss Voigt Hill
#
# Bulk Modulus (GPa) = 62.54611 72.92306 67.73458
# Shear Modulus (GPa) = 19.04839 27.33402 23.19120
#
# Velocity S-wave (km/s) = 3.17271 3.80061 3.50077
# Velocity P-wave (km/s) = 6.81718 7.60235 7.22044
#
# Compressibility (1/GPa) = 0.01598821
#
# Stress axis : x y z
#
# Youngs Moduli (GPa) = 56.70918 56.70918 202.67464
#
# Poissons Ratio (x) = 0.50802 0.31906
# Poissons Ratio (y) = 0.50802 0.31906
# Poissons Ratio (z) = 0.08927 0.08927
#
# Static dielectric constant tensor:
#      x y z
#    x 3.115040 0.000000 0.000000 
#    y 0.000000 3.115040 0.000000 
#    z 0.000000 0.000000 4.379430 
# 
# 
# High freq. dielectric constant tensor:
#      x y z
#    x 1.701610 0.000000 0.000000 
#    y 0.000000 1.701610 0.000000 
#    z 0.000000 0.000000 1.786220 
# 
# From -- ./inp_files/355.got.cif
#   From: 2010.03.12/outbox.cif.g09.slc.cpg/sg186_1_cif.got.tgz:355.got - 2010.04.01 11:56:34.
