data_PCOD8326652
_publ_section_title
;
Structure prediction by ZEFSAII (Michael W. Deem and Ramdas Pophale) SiO2 
 PCOD8326652
Probable space group: P 63 C M
;
_chemical_formula_sum "Si O2"
_cell_formula_units_Z 72
_cell_length_a 23.704601
_cell_length_b 23.704601
_cell_length_c 8.650630
_cell_angle_alpha 90.000000
_cell_angle_beta 90.000000
_cell_angle_gamma 120.000000
_cell_volume 4209.627501
_symmetry_space_group_name_H-M "P 63 C M"
_symmetry_group_IT_number 185
_symmetry_cell_setting 'hexagonal'
loop_
_space_group_symop_operation_xyz
x,y,z
x-y,x,1/2+z
-y,x-y,z
-x,-y,1/2+z
-x+y,-x,z
y,-x+y,1/2+z
-x+y,y,1/2+z
x,x-y,1/2+z
-y,-x,1/2+z
y,x,z
x-y,-y,z
-x,-x+y,z
loop_
_atom_site_type_symbol
_atom_site_label
_atom_site_fract_x
_atom_site_fract_y
_atom_site_fract_z
Si Si1 0.857994 0.595717 0.522120
Si Si2 0.404283 0.142007 0.656630
Si Si3 0.734757 0.925790 0.019898
Si Si4 0.597538 0.522593 0.157657
Si Si5 0.522593 0.597538 0.521093
Si Si6 0.734757 0.808967 0.158852
O O1 0.786936 0.573872 0.589375
O O2 0.854843 0.595814 0.339375
O O3 0.878920 0.544932 0.578230
O O4 0.910482 0.667544 0.579808
O O5 0.332456 0.089518 0.598942
O O6 0.455068 0.121081 0.600519
O O7 0.761658 0.880829 0.089375
O O8 0.788850 0.000000 0.053091
O O9 0.720881 0.911258 0.839375
O O10 0.573829 0.573829 0.117088
O O11 0.547674 0.452326 0.089375
O O12 0.603704 0.516737 0.339375
O O13 0.573829 0.573829 0.561661
O O14 0.788850 0.788850 0.125658
#
# Coordination Sequence:
#
# PCOD8326652 Si02
#       6
#    12  12  12  12  12  12
#     4  11  21  33  51  74 101 133 167 204 247 293
#     4  11  21  33  51  74 101 133 167 204 247 293
#     4  10  20  33  50  73 100 130 164 203 247 295
#     4  10  20  34  52  75 103 133 166 204 246 293
#     4  10  20  34  52  75 103 133 166 204 246 293
#     4  10  20  33  50  73 100 130 164 203 247 295
#
# _framework density 17.103650999999999
#
# number of rings (size 3 to 8) (size 9 to 14) (size 15 to 20)
#    0.000    1.667    0.000    8.000    0.000    8.667 
#    0.000    0.000    0.000    1.000    0.000    4.667 
#    0.000    0.000    0.000    0.000    0.000    0.000 
#
# Total GULP energy -893099.280995 kJ/mol
# GULP energy per Si atom -12404.156680 kJ/mol
# Density = 1.706472 g / cm^3
# Si number density = 17.103651 Si / 1000 Ang^3
#
#
#
# Elastic Constant Matrix: (Units=GPa)
#
#
# Indices 1 2 3 4 5 6 
#
# 1 126.1661 75.0790 69.3472 0.0000 0.0000 0.0000
# 2 75.0790 126.1661 69.3472 0.0000 0.0000 0.0000
# 3 69.3472 69.3472 144.6523 0.0000 0.0000 0.0000
# 4 0.0000 0.0000 0.0000 29.6893 0.0000 0.0000
# 5 0.0000 0.0000 0.0000 0.0000 29.6893 0.0000
# 6 0.0000 0.0000 0.0000 0.0000 0.0000 25.5435
#
#
#
# Elastic Compliance Matrix: (Units=1/GPa)
#
#
# Indices 1 2 3 4 5 6 
#
# 1 0.013498 -0.006077 -0.003558 0.000000 0.000000 0.000000
# 2 -0.006077 0.013498 -0.003558 0.000000 0.000000 0.000000
# 3 -0.003558 -0.003558 0.010324 0.000000 0.000000 0.000000
# 4 0.000000 0.000000 0.000000 0.033682 0.000000 0.000000
# 5 0.000000 0.000000 0.000000 0.000000 0.033682 0.000000
# 6 0.000000 0.000000 0.000000 0.000000 0.000000 0.039149
#
#
# Mechanical properties :
#
#
# Convention : Reuss Voigt Hill
#
# Bulk Modulus (GPa) = 91.44499 91.61459 91.52979
# Shear Modulus (GPa) = 28.75843 29.19849 28.97846
#
# Velocity S-wave (km/s) = 4.10496 4.13625 4.12063
# Velocity P-wave (km/s) = 8.72060 8.74597 8.73330
#
# Compressibility (1/GPa) = 0.01093554
#
# Stress axis : x y z
#
# Youngs Moduli (GPa) = 74.08684 74.08684 96.85949
#
# Poissons Ratio (x) = 0.45021 0.34459
# Poissons Ratio (y) = 0.45021 0.34459
# Poissons Ratio (z) = 0.26357 0.26357
#
# Static dielectric constant tensor:
#      x y z
#    x 3.155400 0.000000 0.000000 
#    y 0.000000 3.155400 0.000000 
#    z 0.000000 0.000000 3.397100 
# 
# 
# High freq. dielectric constant tensor:
#      x y z
#    x 1.651600 0.000000 0.000000 
#    y 0.000000 1.651600 0.000000 
#    z 0.000000 0.000000 1.685330 
# 
# From -- ./inp_files/638.got.cif
#   From: 2010.03.12/outbox.cif.g09.slc.cpg/sg185_cif.got.tgz:638.got - 2010.04.01 11:55:19.
