data_PCOD8326315
_publ_section_title
;
Structure prediction by ZEFSAII (Michael W. Deem and Ramdas Pophale) SiO2 
 PCOD8326315
Probable space group: P 64 2 2
;
_chemical_formula_sum "Si O2"
_cell_formula_units_Z 60
_cell_length_a 18.335024
_cell_length_b 18.335024
_cell_length_c 13.931744
_cell_angle_alpha 90.000000
_cell_angle_beta 90.000000
_cell_angle_gamma 120.000000
_cell_volume 4056.010614
_symmetry_space_group_name_H-M "P 64 2 2"
_symmetry_group_IT_number 181
_symmetry_cell_setting 'hexagonal'
loop_
_space_group_symop_operation_xyz
x,y,z
x-y,x,2/3+z
-y,x-y,1/3+z
-x,-y,z
-x+y,-x,2/3+z
y,-x+y,1/3+z
x-y,-y,-z
-x,-x+y,2/3-z
y,x,1/3-z
-y,-x,1/3-z
-x+y,y,-z
x,x-y,2/3-z
loop_
_atom_site_type_symbol
_atom_site_label
_atom_site_fract_x
_atom_site_fract_y
_atom_site_fract_z
Si Si1 0.585084 0.588912 0.868400
Si Si2 0.560134 0.961084 0.406309
Si Si3 0.329609 0.835694 0.895081
Si Si4 0.327124 0.823105 0.112358
Si Si5 0.686819 0.450357 0.099006
O O1 0.500000 0.500000 0.872815
O O2 0.649114 0.578844 0.798127
O O3 0.569699 0.662094 0.828117
O O4 0.625357 0.614823 0.975223
O O5 0.502421 0.861056 0.406815
O O6 0.500000 0.000000 0.406022
O O7 0.621149 0.000000 0.500000
O O8 0.409941 0.824266 0.881670
O O9 0.257416 0.770651 0.824134
O O10 0.296622 0.818249 0.003540
O O11 0.257962 0.742038 0.166667
O O12 0.629424 0.370577 0.166667
O O13 0.709430 0.418859 0.000000
#
# Coordination Sequence:
#
# PCOD8326315 Si02
#       5
#    12  12  12  12  12
#     4   9  18  33  48  60  86 118 152 183 237 287
#     4  10  19  34  48  64  85 124 156 191 234 295
#     4  10  21  33  45  64  92 117 145 195 248 275
#     4  10  21  32  47  67  86 116 155 196 236 281
#     4  12  24  34  49  69  96 119 158 205 248 283
#
# _framework density 14.792859999999999
#
# number of rings (size 3 to 8) (size 9 to 14) (size 15 to 20)
#    0.000    1.800    4.000    1.200    8.400    2.400 
#    0.000    0.000    0.000    0.000    0.000    0.000 
#    0.000    0.000    0.000    0.000    0.000    1.000 
#
# Total GULP energy -743823.162570 kJ/mol
# GULP energy per Si atom -12397.052709 kJ/mol
# Density = 1.475919 g / cm^3
# Si number density = 14.792860 Si / 1000 Ang^3
#
#
#
# Elastic Constant Matrix: (Units=GPa)
#
#
# Indices 1 2 3 4 5 6 
#
# 1 48.1501 23.0609 34.4596 0.0000 0.0000 0.0000
# 2 23.0609 48.1501 34.4596 0.0000 0.0000 0.0000
# 3 34.4596 34.4596 143.2290 0.0000 0.0000 0.0000
# 4 0.0000 0.0000 0.0000 29.5671 0.0000 0.0000
# 5 0.0000 0.0000 0.0000 0.0000 29.5671 0.0000
# 6 0.0000 0.0000 0.0000 0.0000 0.0000 12.5446
#
#
#
# Elastic Compliance Matrix: (Units=1/GPa)
#
#
# Indices 1 2 3 4 5 6 
#
# 1 0.029081 -0.010776 -0.004404 0.000000 0.000000 0.000000
# 2 -0.010776 0.029081 -0.004404 0.000000 0.000000 0.000000
# 3 -0.004404 -0.004404 0.009101 0.000000 0.000000 0.000000
# 4 0.000000 0.000000 0.000000 0.033821 0.000000 0.000000
# 5 0.000000 0.000000 0.000000 0.000000 0.033821 0.000000
# 6 0.000000 0.000000 0.000000 0.000000 0.000000 0.079716
#
#
# Mechanical properties :
#
#
# Convention : Reuss Voigt Hill
#
# Bulk Modulus (GPa) = 35.59353 47.05437 41.32395
# Shear Modulus (GPa) = 19.00012 24.17235 21.58623
#
# Velocity S-wave (km/s) = 3.58776 4.04673 3.82414
# Velocity P-wave (km/s) = 6.42465 7.32889 6.89162
#
# Compressibility (1/GPa) = 0.02809499
#
# Stress axis : x y z
#
# Youngs Moduli (GPa) = 34.38617 34.38617 109.87837
#
# Poissons Ratio (x) = 0.37056 0.48391
# Poissons Ratio (y) = 0.37056 0.48391
# Poissons Ratio (z) = 0.15144 0.15144
#
# Static dielectric constant tensor:
#      x y z
#    x 2.674520 0.000000 0.000000 
#    y 0.000000 2.674520 0.000000 
#    z 0.000000 0.000000 3.711420 
# 
# 
# High freq. dielectric constant tensor:
#      x y z
#    x 1.526240 0.000000 0.000000 
#    y 0.000000 1.526240 0.000000 
#    z 0.000000 0.000000 1.600580 
# 
# From -- ./inp_files/6287.got.cif
#   From: 2010.03.12/outbox.cif.g09.slc.cpg/sg181_4_cif.got.tgz:6287.got - 2010.04.01 11:42:41.
