data_PCOD8326412
_publ_section_title
;
Structure prediction by ZEFSAII (Michael W. Deem and Ramdas Pophale) SiO2 
 PCOD8326412
Probable space group: P 64 2 2
;
_chemical_formula_sum "Si O2"
_cell_formula_units_Z 48
_cell_length_a 24.900543
_cell_length_b 24.900543
_cell_length_c 5.079277
_cell_angle_alpha 90.000000
_cell_angle_beta 90.000000
_cell_angle_gamma 120.000000
_cell_volume 2727.408346
_symmetry_space_group_name_H-M "P 64 2 2"
_symmetry_group_IT_number 181
_symmetry_cell_setting 'hexagonal'
loop_
_space_group_symop_operation_xyz
x,y,z
x-y,x,2/3+z
-y,x-y,1/3+z
-x,-y,z
-x+y,-x,2/3+z
y,-x+y,1/3+z
x-y,-y,-z
-x,-x+y,2/3-z
y,x,1/3-z
-y,-x,1/3-z
-x+y,y,-z
x,x-y,2/3-z
loop_
_atom_site_type_symbol
_atom_site_label
_atom_site_fract_x
_atom_site_fract_y
_atom_site_fract_z
Si Si1 0.886765 0.409958 0.567866
Si Si2 0.229148 0.520434 0.250343
Si Si3 0.620006 0.660345 0.421734
Si Si4 0.373146 0.154959 0.086034
O O1 0.921758 0.460879 0.333334
O O2 0.820741 0.363507 0.434487
O O3 0.920745 0.372652 0.660406
O O4 0.879004 0.439502 0.833334
O O5 0.274542 0.549084 0.500000
O O6 0.194042 0.446601 0.265741
O O7 0.273080 0.546160 0.000000
O O8 0.621466 0.621466 0.666667
O O9 0.647435 0.730292 0.534040
O O10 0.658508 0.658508 0.166667
O O11 0.346631 0.173316 0.333334
O O12 0.344782 0.172391 0.833334
#
# Coordination Sequence:
#
# PCOD8326412 Si02
#       4
#    12  12  12  12
#     4  11  22  34  49  69  93 124 156 184 233 313
#     4   9  17  31  50  66  80 103 143 194 234 270
#     4  11  22  34  49  72 101 129 158 197 243 286
#     4   9  17  31  50  69  88 116 155 193 230 273
#
# _framework density 17.599122999999999
#
# number of rings (size 3 to 8) (size 9 to 14) (size 15 to 20)
#    0.000    2.000    0.000    4.500    0.000   11.000 
#    0.000    0.000    0.000    7.500    0.000    0.000 
#    0.000    0.000    0.000    0.000    0.000    0.000 
#
# Total GULP energy -594804.397851 kJ/mol
# GULP energy per Si atom -12391.758289 kJ/mol
# Density = 1.755907 g / cm^3
# Si number density = 17.599123 Si / 1000 Ang^3
#
#
#
# Elastic Constant Matrix: (Units=GPa)
#
#
# Indices 1 2 3 4 5 6 
#
# 1 56.9988 38.5012 41.0464 0.0000 0.0000 0.0000
# 2 38.5012 56.9988 41.0464 0.0000 0.0000 0.0000
# 3 41.0464 41.0464 166.1749 0.0000 0.0000 0.0000
# 4 0.0000 0.0000 0.0000 27.6544 0.0000 0.0000
# 5 0.0000 0.0000 0.0000 0.0000 27.6544 0.0000
# 6 0.0000 0.0000 0.0000 0.0000 0.0000 9.2488
#
#
#
# Elastic Compliance Matrix: (Units=1/GPa)
#
#
# Indices 1 2 3 4 5 6 
#
# 1 0.033677 -0.020384 -0.003284 0.000000 0.000000 0.000000
# 2 -0.020384 0.033677 -0.003284 0.000000 0.000000 0.000000
# 3 -0.003284 -0.003284 0.007640 0.000000 0.000000 0.000000
# 4 0.000000 0.000000 0.000000 0.036161 0.000000 0.000000
# 5 0.000000 0.000000 0.000000 0.000000 0.036161 0.000000
# 6 0.000000 0.000000 0.000000 0.000000 0.000000 0.108122
#
#
# Mechanical properties :
#
#
# Convention : Reuss Voigt Hill
#
# Bulk Modulus (GPa) = 47.40916 57.92896 52.66906
# Shear Modulus (GPa) = 15.80423 23.55010 19.67716
#
# Velocity S-wave (km/s) = 2.99994 3.66203 3.34739
# Velocity P-wave (km/s) = 6.24470 7.13217 6.70314
#
# Compressibility (1/GPa) = 0.02109297
#
# Stress axis : x y z
#
# Youngs Moduli (GPa) = 29.69345 29.69345 130.89105
#
# Poissons Ratio (x) = 0.60526 0.42980
# Poissons Ratio (y) = 0.60526 0.42980
# Poissons Ratio (z) = 0.09750 0.09750
#
# Static dielectric constant tensor:
#      x y z
#    x 3.124680 0.000000 0.000000 
#    y 0.000000 3.124680 0.000000 
#    z 0.000000 0.000000 3.559750 
# 
# 
# High freq. dielectric constant tensor:
#      x y z
#    x 1.641660 0.000000 0.000000 
#    y 0.000000 1.641660 0.000000 
#    z 0.000000 0.000000 1.708250 
# 
# From -- ./inp_files/1095.got.cif
#   From: 2010.03.12/outbox.cif.g09.slc.cpg/sg181_1_cif.got.tgz:1095.got - 2010.04.01 11:42:41.
