data_PCOD8326307
_publ_section_title
;
Structure prediction by ZEFSAII (Michael W. Deem and Ramdas Pophale) SiO2 
 PCOD8326307
Probable space group: P 64 2 2
;
_chemical_formula_sum "Si O2"
_cell_formula_units_Z 96
_cell_length_a 22.955036
_cell_length_b 22.955036
_cell_length_c 11.994333
_cell_angle_alpha 90.000000
_cell_angle_beta 90.000000
_cell_angle_gamma 120.000000
_cell_volume 5473.469345
_symmetry_space_group_name_H-M "P 64 2 2"
_symmetry_group_IT_number 181
_symmetry_cell_setting 'hexagonal'
loop_
_space_group_symop_operation_xyz
x,y,z
x-y,x,2/3+z
-y,x-y,1/3+z
-x,-y,z
-x+y,-x,2/3+z
y,-x+y,1/3+z
x-y,-y,-z
-x,-x+y,2/3-z
y,x,1/3-z
-y,-x,1/3-z
-x+y,y,-z
x,x-y,2/3-z
loop_
_atom_site_type_symbol
_atom_site_label
_atom_site_fract_x
_atom_site_fract_y
_atom_site_fract_z
Si Si1 0.762887 0.604729 0.780482
Si Si2 0.445828 0.921367 0.376900
Si Si3 0.150080 0.180556 0.555550
Si Si4 0.229078 0.892248 0.112443
Si Si5 0.895037 0.346462 0.631101
Si Si6 0.264332 0.183642 0.414848
Si Si7 0.697102 0.124237 0.449853
Si Si8 0.315454 0.984045 0.307622
O O1 0.735864 0.618269 0.664423
O O2 0.702400 0.556076 0.862871
O O3 0.809737 0.676879 0.837200
O O4 0.805927 0.568697 0.750985
O O5 0.448434 0.896868 0.500000
O O6 0.473523 0.885496 0.291630
O O7 0.365953 0.893553 0.364767
O O8 0.500000 0.000000 0.366534
O O9 0.136951 0.136951 0.666667
O O10 0.078388 0.156775 0.500000
O O11 0.186855 0.258963 0.589468
O O12 0.195658 0.164688 0.475581
O O13 0.179896 0.820105 0.166667
O O14 0.287055 0.938288 0.197985
O O15 0.870754 0.312294 0.752428
O O16 0.974286 0.370436 0.624074
O O17 0.245295 0.122648 0.333334
O O18 0.290005 0.252656 0.347020
O O19 0.707949 0.061299 0.419911
#
# Coordination Sequence:
#
# PCOD8326307 Si02
#       8
#    12  12  12  12  12  12  12  12
#     4  11  20  33  52  81 118 141 181 233 288 331
#     4   9  17  31  50  75 112 151 184 211 267 344
#     4  10  20  37  57  73 100 144 186 228 278 344
#     4  10  19  33  51  76 105 146 184 220 269 338
#     4  10  20  31  48  79 115 147 171 229 284 331
#     4  10  21  34  50  79 112 141 174 231 291 337
#     4  11  19  32  53  81 114 144 182 226 279 343
#     4  10  19  30  51  76 107 150 183 220 272 333
#
# _framework density 17.539149999999999
#
# number of rings (size 3 to 8) (size 9 to 14) (size 15 to 20)
#    0.000    1.875    3.750    2.250    0.000    0.000 
#    0.000    3.125    0.000    1.875    0.000    0.000 
#   33.750    0.000    0.000    0.000    0.000    0.000 
#
# Total GULP energy -1189557.064884 kJ/mol
# GULP energy per Si atom -12391.219426 kJ/mol
# Density = 1.749923 g / cm^3
# Si number density = 17.539150 Si / 1000 Ang^3
#
#
#
# Elastic Constant Matrix: (Units=GPa)
#
#
# Indices 1 2 3 4 5 6 
#
# 1 84.5901 42.5385 37.6764 0.0000 0.0000 0.0000
# 2 42.5385 84.5901 37.6764 0.0000 0.0000 0.0000
# 3 37.6764 37.6764 74.0520 0.0000 0.0000 0.0000
# 4 0.0000 0.0000 0.0000 26.5817 0.0000 0.0000
# 5 0.0000 0.0000 0.0000 0.0000 26.5817 0.0000
# 6 0.0000 0.0000 0.0000 0.0000 0.0000 21.0258
#
#
#
# Elastic Compliance Matrix: (Units=1/GPa)
#
#
# Indices 1 2 3 4 5 6 
#
# 1 0.017521 -0.006259 -0.005730 0.000000 0.000000 0.000000
# 2 -0.006259 0.017521 -0.005730 0.000000 0.000000 0.000000
# 3 -0.005730 -0.005730 0.019335 0.000000 0.000000 0.000000
# 4 0.000000 0.000000 0.000000 0.037620 0.000000 0.000000
# 5 0.000000 0.000000 0.000000 0.000000 0.037620 0.000000
# 6 0.000000 0.000000 0.000000 0.000000 0.000000 0.047561
#
#
# Mechanical properties :
#
#
# Convention : Reuss Voigt Hill
#
# Bulk Modulus (GPa) = 52.80064 53.22387 53.01226
# Shear Modulus (GPa) = 22.83838 23.19388 23.01613
#
# Velocity S-wave (km/s) = 3.61243 3.64044 3.62646
# Velocity P-wave (km/s) = 6.89705 6.93412 6.91561
#
# Compressibility (1/GPa) = 0.01893916
#
# Stress axis : x y z
#
# Youngs Moduli (GPa) = 57.07302 57.07302 51.72000
#
# Poissons Ratio (x) = 0.35722 0.29636
# Poissons Ratio (y) = 0.35722 0.29636
# Poissons Ratio (z) = 0.32704 0.32704
#
# Static dielectric constant tensor:
#      x y z
#    x 3.247960 0.000000 0.000000 
#    y 0.000000 3.247960 0.000000 
#    z 0.000000 0.000000 3.222260 
# 
# 
# High freq. dielectric constant tensor:
#      x y z
#    x 1.658910 0.000000 0.000000 
#    y 0.000000 1.658910 0.000000 
#    z 0.000000 0.000000 1.671360 
# 
# From -- ./inp_files/5221.got.cif
#   From: 2010.03.12/outbox.cif.g09.slc.cpg/sg181_3_cif.got.tgz:5221.got - 2010.04.01 11:42:41.
