data_PCOD8326437
_publ_section_title
;
Structure prediction by ZEFSAII (Michael W. Deem and Ramdas Pophale) SiO2 
 PCOD8326437
Probable space group: P 63 2 2
;
_chemical_formula_sum "Si O2"
_cell_formula_units_Z 72
_cell_length_a 22.638722
_cell_length_b 22.638722
_cell_length_c 9.908164
_cell_angle_alpha 90.000000
_cell_angle_beta 90.000000
_cell_angle_gamma 120.000000
_cell_volume 4397.720570
_symmetry_space_group_name_H-M "P 63 2 2"
_symmetry_group_IT_number 182
_symmetry_cell_setting 'hexagonal'
loop_
_space_group_symop_operation_xyz
x,y,z
x-y,x,1/2+z
-y,x-y,z
-x,-y,1/2+z
-x+y,-x,z
y,-x+y,1/2+z
x-y,-y,-z
-x,-x+y,-z
y,x,-z
-y,-x,1/2-z
-x+y,y,1/2-z
x,x-y,1/2-z
loop_
_atom_site_type_symbol
_atom_site_label
_atom_site_fract_x
_atom_site_fract_y
_atom_site_fract_z
Si Si1 0.217509 0.920462 0.237967
Si Si2 0.276376 0.203448 0.233377
Si Si3 0.403211 0.934990 0.906848
Si Si4 0.377929 0.255389 0.997601
Si Si5 0.255635 0.379488 0.524575
Si Si6 0.464849 0.064141 0.404078
O O1 0.138363 0.861638 0.250000
O O2 0.263253 0.909886 0.349605
O O3 0.252034 0.921345 0.096405
O O4 0.220421 0.993229 0.250736
O O5 0.241814 0.120907 0.250000
O O6 0.310081 0.227086 0.087230
O O7 0.337353 0.240411 0.338810
O O8 0.453718 0.904044 0.923743
O O9 0.402178 0.956791 0.751913
O O10 0.328368 0.880342 0.959334
O O11 0.427922 0.000000 0.000000
O O12 0.442399 0.324470 0.050711
O O13 0.405606 0.202681 0.996383
O O14 0.423827 0.000000 0.500000
#
# Coordination Sequence:
#
# PCOD8326437 Si02
#       6
#    12  12  12  12  12  12
#     4  10  20  32  47  70  99 127 161 201 243 291
#     4  10  18  30  49  70  93 125 159 197 243 289
#     4  10  20  32  48  71  98 127 156 192 238 286
#     4  10  20  32  48  70  96 127 160 198 240 283
#     4  10  20  32  48  70  96 127 160 198 240 283
#     4  10  20  32  48  71  98 127 156 192 238 286
#
# _framework density 16.372116999999999
#
# number of rings (size 3 to 8) (size 9 to 14) (size 15 to 20)
#    0.000    2.000    1.667    3.000    2.333    0.000 
#    0.000    0.000    0.000    1.000    0.000    0.000 
#    0.000    8.000    0.000    0.000    0.000    1.333 
#
# Total GULP energy -892592.225180 kJ/mol
# GULP energy per Si atom -12397.114239 kJ/mol
# Density = 1.633485 g / cm^3
# Si number density = 16.372117 Si / 1000 Ang^3
#
#
#
# Elastic Constant Matrix: (Units=GPa)
#
#
# Indices 1 2 3 4 5 6 
#
# 1 103.4368 54.2275 28.3601 0.0000 0.0000 0.0000
# 2 54.2275 103.4368 28.3601 0.0000 0.0000 0.0000
# 3 28.3601 28.3601 69.4330 0.0000 0.0000 0.0000
# 4 0.0000 0.0000 0.0000 21.0732 0.0000 0.0000
# 5 0.0000 0.0000 0.0000 0.0000 21.0732 0.0000
# 6 0.0000 0.0000 0.0000 0.0000 0.0000 24.6047
#
#
#
# Elastic Compliance Matrix: (Units=1/GPa)
#
#
# Indices 1 2 3 4 5 6 
#
# 1 0.013878 -0.006443 -0.003037 0.000000 0.000000 0.000000
# 2 -0.006443 0.013878 -0.003037 0.000000 0.000000 0.000000
# 3 -0.003037 -0.003037 0.016883 0.000000 0.000000 0.000000
# 4 0.000000 0.000000 0.000000 0.047454 0.000000 0.000000
# 5 0.000000 0.000000 0.000000 0.000000 0.047454 0.000000
# 6 0.000000 0.000000 0.000000 0.000000 0.000000 0.040643
#
#
# Mechanical properties :
#
#
# Convention : Reuss Voigt Hill
#
# Bulk Modulus (GPa) = 51.00509 55.35580 53.18044
# Shear Modulus (GPa) = 23.61175 24.37413 23.99294
#
# Velocity S-wave (km/s) = 3.80174 3.86263 3.83231
# Velocity P-wave (km/s) = 7.10579 7.33332 7.22045
#
# Compressibility (1/GPa) = 0.01960589
#
# Stress axis : x y z
#
# Youngs Moduli (GPa) = 72.05525 72.05525 59.23036
#
# Poissons Ratio (x) = 0.46426 0.17988
# Poissons Ratio (y) = 0.46426 0.17988
# Poissons Ratio (z) = 0.21882 0.21882
#
# Static dielectric constant tensor:
#      x y z
#    x 3.083910 0.000000 0.000000 
#    y 0.000000 3.083910 0.000000 
#    z 0.000000 0.000000 3.370390 
# 
# 
# High freq. dielectric constant tensor:
#      x y z
#    x 1.609930 0.000000 0.000000 
#    y 0.000000 1.609930 0.000000 
#    z 0.000000 0.000000 1.656710 
# 
# From -- ./inp_files/1923.got.cif
#   From: 2010.03.12/outbox.cif.g09.slc.cpg/sg182_1_cif.got.tgz:1923.got - 2010.04.01 11:49:36.
