data_PCOD8326662
_publ_section_title
;
Structure prediction by ZEFSAII (Michael W. Deem and Ramdas Pophale) SiO2 
 PCOD8326662
Probable space group: P 63 C M
;
_chemical_formula_sum "Si O2"
_cell_formula_units_Z 72
_cell_length_a 14.688833
_cell_length_b 14.688833
_cell_length_c 18.348766
_cell_angle_alpha 90.000000
_cell_angle_beta 90.000000
_cell_angle_gamma 120.000000
_cell_volume 3428.562577
_symmetry_space_group_name_H-M "P 63 C M"
_symmetry_group_IT_number 185
_symmetry_cell_setting 'hexagonal'
loop_
_space_group_symop_operation_xyz
x,y,z
x-y,x,1/2+z
-y,x-y,z
-x,-y,1/2+z
-x+y,-x,z
y,-x+y,1/2+z
-x+y,y,1/2+z
x,x-y,1/2+z
-y,-x,1/2+z
y,x,z
x-y,-y,z
-x,-x+y,z
loop_
_atom_site_type_symbol
_atom_site_label
_atom_site_fract_x
_atom_site_fract_y
_atom_site_fract_z
Si Si1 0.121702 0.693187 0.593330
Si Si2 0.190239 0.729916 0.878897
Si Si3 0.123136 0.522964 0.946641
Si Si4 0.122950 0.879252 0.657658
Si Si5 0.119327 0.880211 0.826078
Si Si6 0.655816 0.212518 0.731575
O O1 0.167550 0.666184 0.521990
O O2 0.166440 0.817294 0.608452
O O3 0.139999 0.639878 0.663096
O O4 0.000000 0.643130 0.580573
O O5 0.145534 0.642967 0.943874
O O6 0.316136 0.806248 0.884518
O O7 0.137279 0.802985 0.879079
O O8 0.156180 0.659823 0.805441
O O9 0.000000 0.441595 0.934651
O O10 0.143401 0.864864 0.742439
O O11 0.000000 0.836158 0.644521
O O12 0.186010 0.000000 0.633539
O O13 0.000000 0.854367 0.833951
O O14 0.194676 0.000000 0.851455
O O15 0.765866 0.324117 0.728725
#
# Coordination Sequence:
#
# PCOD8326662 Si02
#       6
#    12  12  12  12  12  12
#     4  10  22  40  60  88 125 163 207 258 312 369
#     4  12  21  40  63  89 124 165 205 258 313 374
#     4  11  25  41  61  90 124 167 210 252 310 376
#     4   9  17  32  57  87 122 160 202 255 313 372
#     4  10  20  35  59  91 125 162 207 261 318 374
#     4  10  21  38  60  89 115 157 204 252 310 367
#
# _framework density 21.000056000000001
#
# number of rings (size 3 to 8) (size 9 to 14) (size 15 to 20)
#    0.333    1.333    3.333    1.667    2.333    2.000 
#    0.000    2.500    0.000    0.000    0.000    2.333 
#    0.000    0.000    0.000    0.000    0.000    0.000 
#
# Total GULP energy -892468.612980 kJ/mol
# GULP energy per Si atom -12395.397403 kJ/mol
# Density = 2.095226 g / cm^3
# Si number density = 21.000056 Si / 1000 Ang^3
#
#
#
# Elastic Constant Matrix: (Units=GPa)
#
#
# Indices 1 2 3 4 5 6 
#
# 1 98.2136 36.5521 40.2424 0.0000 0.0000 0.0000
# 2 36.5521 98.2136 40.2424 0.0000 0.0000 0.0000
# 3 40.2424 40.2424 83.8722 0.0000 0.0000 0.0000
# 4 0.0000 0.0000 0.0000 30.3919 0.0000 0.0000
# 5 0.0000 0.0000 0.0000 0.0000 30.3919 0.0000
# 6 0.0000 0.0000 0.0000 0.0000 0.0000 30.8307
#
#
#
# Elastic Compliance Matrix: (Units=1/GPa)
#
#
# Indices 1 2 3 4 5 6 
#
# 1 0.013309 -0.002909 -0.004990 0.000000 0.000000 0.000000
# 2 -0.002909 0.013309 -0.004990 0.000000 0.000000 0.000000
# 3 -0.004990 -0.004990 0.016712 0.000000 0.000000 0.000000
# 4 0.000000 0.000000 0.000000 0.032904 0.000000 0.000000
# 5 0.000000 0.000000 0.000000 0.000000 0.032904 0.000000
# 6 0.000000 0.000000 0.000000 0.000000 0.000000 0.032435
#
#
# Mechanical properties :
#
#
# Convention : Reuss Voigt Hill
#
# Bulk Modulus (GPa) = 56.97449 57.15261 57.06355
# Shear Modulus (GPa) = 28.86825 29.20706 29.03765
#
# Velocity S-wave (km/s) = 3.71168 3.73340 3.72256
# Velocity P-wave (km/s) = 6.74969 6.77192 6.76081
#
# Compressibility (1/GPa) = 0.01755171
#
# Stress axis : x y z
#
# Youngs Moduli (GPa) = 75.13667 75.13667 59.83853
#
# Poissons Ratio (x) = 0.21854 0.29861
# Poissons Ratio (y) = 0.21854 0.29861
# Poissons Ratio (z) = 0.37495 0.37495
#
# Static dielectric constant tensor:
#      x y z
#    x 3.703200 0.000000 0.000000 
#    y 0.000000 3.703200 0.000000 
#    z 0.000000 0.000000 3.732750 
# 
# 
# High freq. dielectric constant tensor:
#      x y z
#    x 1.818550 0.000000 0.000000 
#    y 0.000000 1.818550 0.000000 
#    z 0.000000 0.000000 1.803010 
# 
# From -- ./inp_files/1692.got.cif
#   From: 2010.03.12/outbox.cif.g09.slc.cpg/sg185_cif.got.tgz:1692.got - 2010.04.01 11:55:19.
