data_PCOD8326141
_publ_section_title
;
Structure prediction by ZEFSAII (Michael W. Deem and Ramdas Pophale) SiO2 
 PCOD8326141
Probable space group: P 62 2 2
;
_chemical_formula_sum "Si O2"
_cell_formula_units_Z 72
_cell_length_a 15.152863
_cell_length_b 15.152863
_cell_length_c 18.100194
_cell_angle_alpha 90.000000
_cell_angle_beta 90.000000
_cell_angle_gamma 120.000000
_cell_volume 3599.177414
_symmetry_space_group_name_H-M "P 62 2 2"
_symmetry_group_IT_number 180
_symmetry_cell_setting 'hexagonal'
loop_
_space_group_symop_operation_xyz
x,y,z
x-y,x,1/3+z
-y,x-y,2/3+z
-x,-y,z
-x+y,-x,1/3+z
y,-x+y,2/3+z
x-y,-y,-z
-x,-x+y,1/3-z
y,x,2/3-z
-y,-x,2/3-z
-x+y,y,-z
x,x-y,1/3-z
loop_
_atom_site_type_symbol
_atom_site_label
_atom_site_fract_x
_atom_site_fract_y
_atom_site_fract_z
Si Si1 0.365485 0.279161 0.152154
Si Si2 0.608923 0.202179 0.338125
Si Si3 0.597188 0.399377 0.161457
Si Si4 0.616497 0.863212 0.873655
Si Si5 0.621477 0.720444 0.979053
Si Si6 0.874409 0.624138 0.065354
O O1 0.319882 0.159941 0.166667
O O2 0.479139 0.343053 0.186505
O O3 0.296107 0.313302 0.195193
O O4 0.361393 0.291176 0.064553
O O5 0.672756 0.327245 0.333334
O O6 0.601421 0.160951 0.254845
O O7 0.498465 0.154161 0.374244
O O8 0.672605 0.167855 0.388416
O O9 0.638184 0.319092 0.166667
O O10 0.665423 0.497644 0.211532
O O11 0.650549 0.833513 0.950778
O O12 0.638847 0.803912 0.809842
O O13 0.686051 0.682431 0.932786
O O14 0.833728 0.667455 0.000000
#
# Coordination Sequence:
#
# PCOD8326141 Si02
#       6
#    12  12  12  12  12  12
#     4  10  23  42  60  82 116 162 204 257 311 363
#     4  10  18  34  54  82 128 168 196 232 294 372
#     4  10  19  34  57  86 123 161 199 239 300 367
#     4  12  22  36  62  89 121 158 203 254 303 371
#     4  11  23  36  60  91 117 159 205 251 309 368
#     4  11  20  36  57  86 125 160 194 244 304 370
#
# _framework density 20.004572
#
# number of rings (size 3 to 8) (size 9 to 14) (size 15 to 20)
#    0.000    1.333    5.000    2.500    0.000    3.333 
#    0.000    1.667    0.000    8.000    0.000    0.000 
#    0.000    0.000    0.000    0.000    0.000    0.000 
#
# Total GULP energy -892636.115705 kJ/mol
# GULP energy per Si atom -12397.723829 kJ/mol
# Density = 1.995904 g / cm^3
# Si number density = 20.004572 Si / 1000 Ang^3
#
#
#
# Elastic Constant Matrix: (Units=GPa)
#
#
# Indices 1 2 3 4 5 6 
#
# 1 116.5034 65.7682 6.3298 0.0000 0.0000 0.0000
# 2 65.7682 116.5034 6.3298 0.0000 0.0000 0.0000
# 3 6.3298 6.3298 18.6061 0.0000 0.0000 0.0000
# 4 0.0000 0.0000 0.0000 29.0412 0.0000 0.0000
# 5 0.0000 0.0000 0.0000 0.0000 29.0412 0.0000
# 6 0.0000 0.0000 0.0000 0.0000 0.0000 25.3676
#
#
#
# Elastic Compliance Matrix: (Units=1/GPa)
#
#
# Indices 1 2 3 4 5 6 
#
# 1 0.012665 -0.007046 -0.001912 0.000000 0.000000 0.000000
# 2 -0.007046 0.012665 -0.001912 0.000000 0.000000 0.000000
# 3 -0.001912 -0.001912 0.055046 0.000000 0.000000 0.000000
# 4 0.000000 0.000000 0.000000 0.034434 0.000000 0.000000
# 5 0.000000 0.000000 0.000000 0.000000 0.034434 0.000000
# 6 0.000000 0.000000 0.000000 0.000000 0.000000 0.039420
#
#
# Mechanical properties :
#
#
# Convention : Reuss Voigt Hill
#
# Bulk Modulus (GPa) = 17.05373 45.38540 31.21956
# Shear Modulus (GPa) = 21.74409 28.23567 24.98988
#
# Velocity S-wave (km/s) = 3.30048 3.76102 3.53825
# Velocity P-wave (km/s) = 4.80288 6.44958 5.68616
#
# Compressibility (1/GPa) = 0.05863819
#
# Stress axis : x y z
#
# Youngs Moduli (GPa) = 78.96001 78.96001 18.16646
#
# Poissons Ratio (x) = 0.55632 0.03473
# Poissons Ratio (y) = 0.55632 0.03473
# Poissons Ratio (z) = 0.15094 0.15094
#
# Static dielectric constant tensor:
#      x y z
#    x 3.648320 0.000000 0.000000 
#    y 0.000000 3.648320 0.000000 
#    z 0.000000 0.000000 3.544620 
# 
# 
# High freq. dielectric constant tensor:
#      x y z
#    x 1.768240 0.000000 0.000000 
#    y 0.000000 1.768240 0.000000 
#    z 0.000000 0.000000 1.772030 
# 
# From -- ./inp_files/7785.got.cif
#   From: 2010.03.12/outbox.cif.g09.slc.cpg/sg180_4_cif.got.tgz:7785.got - 2010.04.01 11:35:50.
