data_PCOD8326875
_publ_section_title
;
Structure prediction by ZEFSAII (Michael W. Deem and Ramdas Pophale) SiO2 
 PCOD8326875
Probable space group: P -6 M 2
;
_chemical_formula_sum "Si O2"
_cell_formula_units_Z 26
_cell_length_a 15.756574
_cell_length_b 15.756574
_cell_length_c 7.496929
_cell_angle_alpha 90.000000
_cell_angle_beta 90.000000
_cell_angle_gamma 120.000000
_cell_volume 1611.898223
_symmetry_space_group_name_H-M "P -6 M 2"
_symmetry_group_IT_number 187
_symmetry_cell_setting 'hexagonal'
loop_
_space_group_symop_operation_xyz
x,y,z
-x+y,-x,-z
-y,x-y,z
x,y,-z
-x+y,-x,z
-y,x-y,-z
-y,-x,-z
-x+y,y,-z
x,x-y,-z
-x+y,y,z
x,x-y,z
-y,-x,z
loop_
_atom_site_type_symbol
_atom_site_label
_atom_site_fract_x
_atom_site_fract_y
_atom_site_fract_z
Si Si1 0.000000 0.000000 0.210903
Si Si2 0.667585 0.532489 0.000000
Si Si3 0.111629 0.888372 0.297555
Si Si4 0.745382 0.057459 0.292299
O O1 0.053799 0.946202 0.287802
O O2 0.000000 0.000000 0.000000
O O3 0.673964 0.593198 0.177196
O O4 0.564268 0.435733 0.000000
O O5 0.751869 0.503737 0.000000
O O6 0.128283 0.871718 0.500000
O O7 0.044223 0.779488 0.215732
O O8 0.715603 0.050129 0.500000
O O9 0.857696 0.142305 0.263692
#
# Coordination Sequence:
#
# PCOD8326875 Si02
#       4
#     2   6   6  12
#     4  12  22  20  40  72 106 146 172 174 196 263
#     4  10  21  35  50  64  88 120 162 205 247 280
#     4  10  18  30  44  66 104 140 158 177 215 268
#     4   9  18  30  47  70  97 127 157 188 223 273
#
# _framework density 16.130050000000001
#
# number of rings (size 3 to 8) (size 9 to 14) (size 15 to 20)
#    0.000    2.308    2.308    0.923    3.231    0.923 
#    0.000    0.000    0.000    2.769    0.000    0.000 
#    9.231    0.000    2.769    0.000    0.000    0.000 
#
# Total GULP energy -322203.603137 kJ/mol
# GULP energy per Si atom -12392.446274 kJ/mol
# Density = 1.609334 g / cm^3
# Si number density = 16.130050 Si / 1000 Ang^3
#
#
#
# Elastic Constant Matrix: (Units=GPa)
#
#
# Indices 1 2 3 4 5 6 
#
# 1 119.8330 59.7896 44.6743 0.0000 0.0000 0.0000
# 2 59.7896 119.8330 44.6743 0.0000 0.0000 0.0000
# 3 44.6743 44.6743 75.4324 0.0000 0.0000 0.0000
# 4 0.0000 0.0000 0.0000 17.8066 0.0000 0.0000
# 5 0.0000 0.0000 0.0000 0.0000 17.8066 0.0000
# 6 0.0000 0.0000 0.0000 0.0000 0.0000 30.0217
#
#
#
# Elastic Compliance Matrix: (Units=1/GPa)
#
#
# Indices 1 2 3 4 5 6 
#
# 1 0.012273 -0.004381 -0.004674 0.000000 0.000000 0.000000
# 2 -0.004381 0.012273 -0.004674 0.000000 0.000000 0.000000
# 3 -0.004674 -0.004674 0.018793 0.000000 0.000000 0.000000
# 4 0.000000 0.000000 0.000000 0.056159 0.000000 0.000000
# 5 0.000000 0.000000 0.000000 0.000000 0.056159 0.000000
# 6 0.000000 0.000000 0.000000 0.000000 0.000000 0.033309
#
#
# Mechanical properties :
#
#
# Convention : Reuss Voigt Hill
#
# Bulk Modulus (GPa) = 62.96700 68.15274 65.55987
# Shear Modulus (GPa) = 22.55095 24.19100 23.37098
#
# Velocity S-wave (km/s) = 3.74313 3.87686 3.81058
# Velocity P-wave (km/s) = 7.60284 7.89834 7.75200
#
# Compressibility (1/GPa) = 0.01588133
#
# Stress axis : x y z
#
# Youngs Moduli (GPa) = 81.47685 81.47685 53.21033
#
# Poissons Ratio (x) = 0.35696 0.24871
# Poissons Ratio (y) = 0.35696 0.24871
# Poissons Ratio (z) = 0.38083 0.38083
#
# Static dielectric constant tensor:
#      x y z
#    x 2.888860 0.000000 0.000000 
#    y 0.000000 2.888860 0.000000 
#    z 0.000000 0.000000 3.213650 
# 
# 
# High freq. dielectric constant tensor:
#      x y z
#    x 1.592740 0.000000 0.000000 
#    y 0.000000 1.592740 0.000000 
#    z 0.000000 0.000000 1.630910 
# 
# From -- ./inp_files/186.got.cif
#   From: 2010.03.12/outbox.cif.g09.slc.cpg/sg187_1_cif.got.tgz:186.got - 2010.04.01 11:58:23.
