data_PCOD8326739
_publ_section_title
;
Structure prediction by ZEFSAII (Michael W. Deem and Ramdas Pophale) SiO2 
 PCOD8326739
Probable space group: P 63 M C
;
_chemical_formula_sum "Si O2"
_cell_formula_units_Z 96
_cell_length_a 17.871740
_cell_length_b 17.871740
_cell_length_c 20.249283
_cell_angle_alpha 90.000000
_cell_angle_beta 90.000000
_cell_angle_gamma 120.000000
_cell_volume 5601.108132
_symmetry_space_group_name_H-M "P 63 M C"
_symmetry_group_IT_number 186
_symmetry_cell_setting 'hexagonal'
loop_
_space_group_symop_operation_xyz
x,y,z
x-y,x,1/2+z
-y,x-y,z
-x,-y,1/2+z
-x+y,-x,z
y,-x+y,1/2+z
-x+y,y,z
x,x-y,z
-y,-x,z
y,x,1/2+z
x-y,-y,1/2+z
-x,-x+y,1/2+z
loop_
_atom_site_type_symbol
_atom_site_label
_atom_site_fract_x
_atom_site_fract_y
_atom_site_fract_z
Si Si1 0.901100 0.531065 0.671210
Si Si2 0.496989 0.163957 0.066293
Si Si3 0.756701 0.069228 0.864904
Si Si4 0.765634 0.702749 0.253394
Si Si5 0.901098 0.370034 0.209813
Si Si6 0.666969 0.163957 0.814729
Si Si7 0.297250 0.234367 0.627628
Si Si8 0.069228 0.312527 0.516118
O O1 0.873398 0.436699 0.638517
O O2 0.844184 0.516417 0.736216
O O3 0.890396 0.597521 0.623562
O O4 0.000000 0.573825 0.690513
O O5 0.574368 0.148735 0.043279
O O6 0.519118 0.259559 0.044887
O O7 0.483585 0.155816 0.144807
O O8 0.410553 0.092223 0.030149
O O9 0.848593 0.151407 0.846773
O O10 0.681671 0.092223 0.850874
O O11 0.752618 0.041282 0.940511
O O12 0.743610 0.989822 0.820151
O O13 0.865664 0.731328 0.247004
O O14 0.707127 0.597520 0.257460
O O15 0.738145 0.738145 0.190511
O O16 0.873396 0.436698 0.242506
O O17 0.574367 0.148734 0.837742
O O18 0.740441 0.259559 0.836136
O O19 0.268674 0.134337 0.634018
O O20 0.256390 0.246213 0.560872
O O21 0.151408 0.302816 0.534250
#
# Coordination Sequence:
#
# PCOD8326739 Si02
#       8
#    12  12  12  12  12  12  12  12
#     4   9  16  27  47  74 103 134 168 207 248 290
#     4  10  18  30  48  74 107 141 174 207 247 297
#     4  10  21  36  52  72 103 139 171 208 257 308
#     4  11  20  33  56  81 102 130 170 213 256 302
#     4   9  16  27  47  74 103 134 168 207 248 290
#     4  10  18  30  48  74 107 141 174 207 247 297
#     4  11  20  33  56  81 102 130 170 213 256 302
#     4  10  21  36  52  72 103 139 171 208 257 308
#
# _framework density 17.139465999999999
#
# number of rings (size 3 to 8) (size 9 to 14) (size 15 to 20)
#    0.000    2.000    5.000    1.750    0.000    1.000 
#    0.000    0.000    0.000    6.500    0.000    0.000 
#    0.000    0.000    0.000    0.000    0.000    0.000 
#
# Total GULP energy -1189910.667518 kJ/mol
# GULP energy per Si atom -12394.902787 kJ/mol
# Density = 1.710046 g / cm^3
# Si number density = 17.139466 Si / 1000 Ang^3
#
#
#
# Elastic Constant Matrix: (Units=GPa)
#
#
# Indices 1 2 3 4 5 6 
#
# 1 83.9488 47.5772 37.6602 0.0000 0.0000 0.0000
# 2 47.5772 83.9488 37.6602 0.0000 0.0000 0.0000
# 3 37.6602 37.6602 77.0127 0.0000 0.0000 0.0000
# 4 0.0000 0.0000 0.0000 20.5786 0.0000 0.0000
# 5 0.0000 0.0000 0.0000 0.0000 20.5786 0.0000
# 6 0.0000 0.0000 0.0000 0.0000 0.0000 18.1858
#
#
#
# Elastic Compliance Matrix: (Units=1/GPa)
#
#
# Indices 1 2 3 4 5 6 
#
# 1 0.019027 -0.008467 -0.005164 0.000000 0.000000 0.000000
# 2 -0.008467 0.019027 -0.005164 0.000000 0.000000 0.000000
# 3 -0.005164 -0.005164 0.018036 0.000000 0.000000 0.000000
# 4 0.000000 0.000000 0.000000 0.048594 0.000000 0.000000
# 5 0.000000 0.000000 0.000000 0.000000 0.048594 0.000000
# 6 0.000000 0.000000 0.000000 0.000000 0.000000 0.054988
#
#
# Mechanical properties :
#
#
# Convention : Reuss Voigt Hill
#
# Bulk Modulus (GPa) = 54.05499 54.52284 54.28891
# Shear Modulus (GPa) = 19.83946 20.00279 19.92113
#
# Velocity S-wave (km/s) = 3.40594 3.41993 3.41294
# Velocity P-wave (km/s) = 6.86105 6.89021 6.87564
#
# Compressibility (1/GPa) = 0.01849968
#
# Stress axis : x y z
#
# Youngs Moduli (GPa) = 52.55637 52.55637 55.44611
#
# Poissons Ratio (x) = 0.44498 0.28633
# Poissons Ratio (y) = 0.44498 0.28633
# Poissons Ratio (z) = 0.27141 0.27141
#
# Static dielectric constant tensor:
#      x y z
#    x 3.350750 0.000000 0.000000 
#    y 0.000000 3.350750 0.000000 
#    z 0.000000 0.000000 2.997690 
# 
# 
# High freq. dielectric constant tensor:
#      x y z
#    x 1.656810 0.000000 0.000000 
#    y 0.000000 1.656810 0.000000 
#    z 0.000000 0.000000 1.627510 
# 
# From -- ./inp_files/3602.got.cif
#   From: 2010.03.12/outbox.cif.g09.slc.cpg/sg186_2_cif.got.tgz:3602.got - 2010.04.01 11:56:34.
