data_PCOD8326589
_publ_section_title
;
Structure prediction by ZEFSAII (Michael W. Deem and Ramdas Pophale) SiO2 
 PCOD8326589
Probable space group: P 6 C C
;
_chemical_formula_sum "Si O2"
_cell_formula_units_Z 42
_cell_length_a 11.167182
_cell_length_b 11.167182
_cell_length_c 18.365972
_cell_angle_alpha 90.000000
_cell_angle_beta 90.000000
_cell_angle_gamma 120.000000
_cell_volume 1983.497868
_symmetry_space_group_name_H-M "P 6 C C"
_symmetry_group_IT_number 184
_symmetry_cell_setting 'hexagonal'
loop_
_space_group_symop_operation_xyz
x,y,z
x-y,x,z
-y,x-y,z
-x,-y,z
-x+y,-x,z
y,-x+y,z
-x+y,y,1/2+z
x,x-y,1/2+z
-y,-x,1/2+z
y,x,1/2+z
x-y,-y,1/2+z
-x,-x+y,1/2+z
loop_
_atom_site_type_symbol
_atom_site_label
_atom_site_fract_x
_atom_site_fract_y
_atom_site_fract_z
Si Si1 0.000000 0.500000 0.450030
Si Si2 0.045893 0.746550 0.357154
Si Si3 0.473378 0.827462 0.081058
Si Si4 0.042003 0.746523 0.188434
O O1 0.927701 0.363463 0.400155
O O2 0.889448 0.515611 0.500030
O O3 0.049666 0.713593 0.272470
O O4 0.899909 0.733930 0.377508
O O5 0.314134 0.792773 0.090860
O O6 0.573910 0.937414 0.140512
O O7 0.899743 0.738540 0.167983
#
# Coordination Sequence:
#
# PCOD8326589 Si02
#       4
#     6  12  12  12
#     4  12  22  40  62  94 134 168 218 256 328 386
#     4  10  23  42  67  96 129 169 215 272 329 392
#     4  10  23  39  61  89 124 170 207 263 317 378
#     4  10  21  40  65  93 124 161 213 267 325 378
#
# _framework density 21.174713000000001
#
# number of rings (size 3 to 8) (size 9 to 14) (size 15 to 20)
#    0.571    1.143    0.000    4.000    0.000    8.000 
#    1.714    0.000    0.000    3.429    0.000    0.000 
#    0.000    0.000    0.000    0.000    0.000    0.000 
#
# Total GULP energy -520621.856271 kJ/mol
# GULP energy per Si atom -12395.758483 kJ/mol
# Density = 2.112652 g / cm^3
# Si number density = 21.174713 Si / 1000 Ang^3
#
#
#
# Elastic Constant Matrix: (Units=GPa)
#
#
# Indices 1 2 3 4 5 6 
#
# 1 125.3398 46.8586 68.5060 0.0000 0.0000 0.0000
# 2 46.8586 125.3398 68.5060 0.0000 0.0000 0.0000
# 3 68.5060 68.5060 108.1464 0.0000 0.0000 0.0000
# 4 0.0000 0.0000 0.0000 34.8883 0.0000 0.0000
# 5 0.0000 0.0000 0.0000 0.0000 34.8883 0.0000
# 6 0.0000 0.0000 0.0000 0.0000 0.0000 39.2406
#
#
#
# Elastic Compliance Matrix: (Units=1/GPa)
#
#
# Indices 1 2 3 4 5 6 
#
# 1 0.012225 -0.000517 -0.007417 0.000000 0.000000 0.000000
# 2 -0.000517 0.012225 -0.007417 0.000000 0.000000 0.000000
# 3 -0.007417 -0.007417 0.018643 0.000000 0.000000 0.000000
# 4 0.000000 0.000000 0.000000 0.028663 0.000000 0.000000
# 5 0.000000 0.000000 0.000000 0.000000 0.028663 0.000000
# 6 0.000000 0.000000 0.000000 0.000000 0.000000 0.025484
#
#
# Mechanical properties :
#
#
# Convention : Reuss Voigt Hill
#
# Bulk Modulus (GPa) = 80.69117 80.72968 80.71042
# Shear Modulus (GPa) = 31.10708 33.46716 32.28712
#
# Velocity S-wave (km/s) = 3.83700 3.97989 3.90910
# Velocity P-wave (km/s) = 7.60396 7.70245 7.65336
#
# Compressibility (1/GPa) = 0.01239293
#
# Stress axis : x y z
#
# Youngs Moduli (GPa) = 81.79795 81.79795 53.63869
#
# Poissons Ratio (x) = 0.04226 0.39783
# Poissons Ratio (y) = 0.04226 0.39783
# Poissons Ratio (z) = 0.60669 0.60669
#
# Static dielectric constant tensor:
#      x y z
#    x 3.762030 0.000000 0.000000 
#    y 0.000000 3.762030 0.000000 
#    z 0.000000 0.000000 3.715500 
# 
# 
# High freq. dielectric constant tensor:
#      x y z
#    x 1.836130 0.000000 0.000000 
#    y 0.000000 1.836130 0.000000 
#    z 0.000000 0.000000 1.825440 
# 
# From -- ./inp_files/993.got.cif
#   From: 2010.03.12/outbox.cif.g09.slc.cpg/sg184_cif.got.tgz:993.got - 2010.04.01 11:54:36.
