data_PCOD8326858
_publ_section_title
;
Structure prediction by ZEFSAII (Michael W. Deem and Ramdas Pophale) SiO2 
 PCOD8326858
Probable space group: P -6 M 2
;
_chemical_formula_sum "Si O2"
_cell_formula_units_Z 84
_cell_length_a 17.055596
_cell_length_b 17.055596
_cell_length_c 20.852388
_cell_angle_alpha 90.000000
_cell_angle_beta 90.000000
_cell_angle_gamma 120.000000
_cell_volume 5253.155170
_symmetry_space_group_name_H-M "P -6 M 2"
_symmetry_group_IT_number 187
_symmetry_cell_setting 'hexagonal'
loop_
_space_group_symop_operation_xyz
x,y,z
-x+y,-x,-z
-y,x-y,z
x,y,-z
-x+y,-x,z
-y,x-y,-z
-y,-x,-z
-x+y,y,-z
x,x-y,-z
-x+y,y,z
x,x-y,z
-y,-x,z
loop_
_atom_site_type_symbol
_atom_site_label
_atom_site_fract_x
_atom_site_fract_y
_atom_site_fract_z
Si Si1 0.388935 0.953163 0.731228
Si Si2 0.938063 0.238743 0.693886
Si Si3 0.182623 0.180373 0.181830
Si Si4 0.692772 0.937946 0.070180
Si Si5 0.235685 0.289849 0.571045
Si Si6 0.154130 0.665408 0.605848
Si Si7 0.150654 0.483445 0.141066
O O1 0.496123 0.992245 0.736363
O O2 0.342749 0.871940 0.680427
O O3 0.338796 0.907771 0.796896
O O4 0.379040 0.039219 0.711450
O O5 0.829743 0.170258 0.692810
O O6 0.984496 0.208560 0.747553
O O7 0.977120 0.236583 0.623834
O O8 0.093125 0.186249 0.182048
O O9 0.251759 0.245498 0.126467
O O10 0.158622 0.079311 0.165312
O O11 0.714390 0.857195 0.068498
O O12 0.586057 0.897873 0.082984
O O13 0.715102 0.985997 0.000000
O O14 0.234046 0.250328 0.500000
O O15 0.138341 0.276681 0.589428
O O16 0.308987 0.396889 0.568090
O O17 0.141410 0.570705 0.579108
O O18 0.258423 0.741578 0.597414
O O19 0.253454 0.506908 0.150812
O O20 0.150344 0.575172 0.126322
#
# Coordination Sequence:
#
# PCOD8326858 Si02
#       7
#    12  12  12  12  12  12  12
#     4   9  17  29  45  66  92 121 149 186 233 278
#     4  10  19  31  50  72  90 113 149 191 231 276
#     4  10  19  31  48  69  92 118 152 194 238 281
#     4   9  18  31  45  62  89 124 156 189 231 271
#     4   9  18  31  45  63  91 125 155 184 224 271
#     4   9  16  25  40  63  93 126 160 192 222 257
#     4  10  18  28  44  66  94 126 160 192 224 263
#
# _framework density 15.990389
#
# number of rings (size 3 to 8) (size 9 to 14) (size 15 to 20)
#    0.000    2.571    1.429    1.286    0.000    2.286 
#    0.000    1.429    0.000    3.143    0.000    0.000 
#    0.000    0.000    0.000    0.429    0.000   13.000 
#
# Total GULP energy -1041168.727603 kJ/mol
# GULP energy per Si atom -12394.865805 kJ/mol
# Density = 1.595399 g / cm^3
# Si number density = 15.990389 Si / 1000 Ang^3
#
#
#
# Elastic Constant Matrix: (Units=GPa)
#
#
# Indices 1 2 3 4 5 6 
#
# 1 62.8390 21.6568 25.0833 0.0000 0.0000 0.0000
# 2 21.6568 62.8390 25.0833 0.0000 0.0000 0.0000
# 3 25.0833 25.0833 98.1929 0.0000 0.0000 0.0000
# 4 0.0000 0.0000 0.0000 14.3249 0.0000 0.0000
# 5 0.0000 0.0000 0.0000 0.0000 14.3249 0.0000
# 6 0.0000 0.0000 0.0000 0.0000 0.0000 20.5911
#
#
#
# Elastic Compliance Matrix: (Units=1/GPa)
#
#
# Indices 1 2 3 4 5 6 
#
# 1 0.019117 -0.005166 -0.003564 0.000000 0.000000 0.000000
# 2 -0.005166 0.019117 -0.003564 0.000000 0.000000 0.000000
# 3 -0.003564 -0.003564 0.012005 0.000000 0.000000 0.000000
# 4 0.000000 0.000000 0.000000 0.069808 0.000000 0.000000
# 5 0.000000 0.000000 0.000000 0.000000 0.069808 0.000000
# 6 0.000000 0.000000 0.000000 0.000000 0.000000 0.048565
#
#
# Mechanical properties :
#
#
# Convention : Reuss Voigt Hill
#
# Bulk Modulus (GPa) = 38.98423 40.83528 39.90975
# Shear Modulus (GPa) = 18.41240 19.98469 19.19854
#
# Velocity S-wave (km/s) = 3.39701 3.53908 3.46877
# Velocity P-wave (km/s) = 6.31022 6.50330 6.40749
#
# Compressibility (1/GPa) = 0.02565140
#
# Stress axis : x y z
#
# Youngs Moduli (GPa) = 52.31068 52.31068 83.30053
#
# Poissons Ratio (x) = 0.27023 0.29686
# Poissons Ratio (y) = 0.27023 0.29686
# Poissons Ratio (z) = 0.18642 0.18642
#
# Static dielectric constant tensor:
#      x y z
#    x 2.908590 0.000000 0.000000 
#    y 0.000000 2.908590 0.000000 
#    z 0.000000 0.000000 3.222590 
# 
# 
# High freq. dielectric constant tensor:
#      x y z
#    x 1.592360 0.000000 0.000000 
#    y 0.000000 1.592360 0.000000 
#    z 0.000000 0.000000 1.626960 
# 
# From -- ./inp_files/3638.got.cif
#   From: 2010.03.12/outbox.cif.g09.slc.cpg/sg187_2_cif.got.tgz:3638.got - 2010.04.01 11:58:23.
