data_PCOD8326782
_publ_section_title
;
Structure prediction by ZEFSAII (Michael W. Deem and Ramdas Pophale) SiO2 
 PCOD8326782
Probable space group: P 63 M C
;
_chemical_formula_sum "Si O2"
_cell_formula_units_Z 96
_cell_length_a 16.886280
_cell_length_b 16.886280
_cell_length_c 21.545742
_cell_angle_alpha 90.000000
_cell_angle_beta 90.000000
_cell_angle_gamma 120.000000
_cell_volume 5320.593252
_symmetry_space_group_name_H-M "P 63 M C"
_symmetry_group_IT_number 186
_symmetry_cell_setting 'hexagonal'
loop_
_space_group_symop_operation_xyz
x,y,z
x-y,x,1/2+z
-y,x-y,z
-x,-y,1/2+z
-x+y,-x,z
y,-x+y,1/2+z
-x+y,y,z
x,x-y,z
-y,-x,z
y,x,1/2+z
x-y,-y,1/2+z
-x,-x+y,1/2+z
loop_
_atom_site_type_symbol
_atom_site_label
_atom_site_fract_x
_atom_site_fract_y
_atom_site_fract_z
Si Si1 0.334697 0.483133 0.966700
Si Si2 0.846857 0.334153 0.985461
Si Si3 0.331816 0.490522 0.185831
Si Si4 0.912494 0.272220 0.580988
Si Si5 0.585310 0.991625 0.378700
Si Si6 0.666455 0.511327 0.125466
Si Si7 0.706222 0.943631 0.667806
Si Si8 0.668164 0.922571 0.277370
O O1 0.251051 0.502102 0.959786
O O2 0.423655 0.576345 0.990765
O O3 0.356324 0.453512 0.900703
O O4 0.309330 0.397800 0.012826
O O5 0.808703 0.404351 0.980556
O O6 0.766093 0.233907 0.967445
O O7 0.929416 0.361223 0.938818
O O8 0.883447 0.338203 0.055630
O O9 0.263721 0.527441 0.165560
O O10 0.428640 0.571361 0.205109
O O11 0.343023 0.434923 0.129381
O O12 0.292889 0.429339 0.246122
O O13 0.827381 0.172620 0.591966
O O14 0.000544 0.264442 0.602148
O O15 0.487135 0.974269 0.351344
O O16 0.650867 0.975840 0.332672
O O17 0.736026 0.472052 0.124173
O O18 0.568127 0.431874 0.148796
O O19 0.702284 0.595888 0.172798
O O20 0.740397 0.870199 0.665627
O O21 0.749482 0.006799 0.728480
O O22 0.700043 0.850022 0.299991
#
# Coordination Sequence:
#
# PCOD8326782 Si02
#       8
#    12  12  12  12  12  12  12  12
#     4  10  20  34  53  78 109 143 175 203 232 273
#     4   9  16  27  44  68  99 133 169 208 251 299
#     4   9  16  26  43  68  99 133 166 200 240 290
#     4   9  18  32  50  74 103 131 158 195 244 294
#     4  10  20  32  48  71  99 134 175 214 249 288
#     4   9  17  28  44  68  98 131 164 200 244 294
#     4  10  20  33  51  73  96 125 162 206 256 308
#     4  10  21  36  51  68  93 126 165 212 262 306
#
# _framework density 18.043101
#
# number of rings (size 3 to 8) (size 9 to 14) (size 15 to 20)
#    0.000    2.500    0.000    3.500    0.000    5.500 
#    0.000    1.875    0.000    6.000    0.000    4.375 
#    0.000    1.000    0.000    0.000    0.000    0.000 
#
# Total GULP energy -1189704.568818 kJ/mol
# GULP energy per Si atom -12392.755925 kJ/mol
# Density = 1.800203 g / cm^3
# Si number density = 18.043101 Si / 1000 Ang^3
#
#
#
# Elastic Constant Matrix: (Units=GPa)
#
#
# Indices 1 2 3 4 5 6 
#
# 1 86.5308 40.8106 29.7927 0.0000 0.0000 0.0000
# 2 40.8106 86.5308 29.7927 0.0000 0.0000 0.0000
# 3 29.7927 29.7927 57.4690 0.0000 0.0000 0.0000
# 4 0.0000 0.0000 0.0000 22.9916 0.0000 0.0000
# 5 0.0000 0.0000 0.0000 0.0000 22.9916 0.0000
# 6 0.0000 0.0000 0.0000 0.0000 0.0000 22.8601
#
#
#
# Elastic Compliance Matrix: (Units=1/GPa)
#
#
# Indices 1 2 3 4 5 6 
#
# 1 0.016120 -0.005752 -0.005375 0.000000 0.000000 0.000000
# 2 -0.005752 0.016120 -0.005375 0.000000 0.000000 0.000000
# 3 -0.005375 -0.005375 0.022974 0.000000 0.000000 0.000000
# 4 0.000000 0.000000 0.000000 0.043494 0.000000 0.000000
# 5 0.000000 0.000000 0.000000 0.000000 0.043494 0.000000
# 6 0.000000 0.000000 0.000000 0.000000 0.000000 0.043744
#
#
# Mechanical properties :
#
#
# Convention : Reuss Voigt Hill
#
# Bulk Modulus (GPa) = 45.02507 47.92474 46.47490
# Shear Modulus (GPa) = 22.08936 22.44428 22.26682
#
# Velocity S-wave (km/s) = 3.50273 3.53076 3.51677
# Velocity P-wave (km/s) = 6.43173 6.57576 6.50414
#
# Compressibility (1/GPa) = 0.02220985
#
# Stress axis : x y z
#
# Youngs Moduli (GPa) = 62.03457 62.03457 43.52841
#
# Poissons Ratio (x) = 0.35683 0.23396
# Poissons Ratio (y) = 0.35683 0.23396
# Poissons Ratio (z) = 0.33343 0.33343
#
# Static dielectric constant tensor:
#      x y z
#    x 3.355200 0.000000 0.000000 
#    y 0.000000 3.355200 0.000000 
#    z 0.000000 0.000000 3.127850 
# 
# 
# High freq. dielectric constant tensor:
#      x y z
#    x 1.691170 0.000000 0.000000 
#    y 0.000000 1.691170 0.000000 
#    z 0.000000 0.000000 1.674590 
# 
# From -- ./inp_files/3578.got.cif
#   From: 2010.03.12/outbox.cif.g09.slc.cpg/sg186_2_cif.got.tgz:3578.got - 2010.04.01 11:56:34.
