data_PCOD8326545
_publ_section_title
;
Structure prediction by ZEFSAII (Michael W. Deem and Ramdas Pophale) SiO2 
 PCOD8326545
Probable space group: P 6 M M
;
_chemical_formula_sum "Si O2"
_cell_formula_units_Z 60
_cell_length_a 17.688715
_cell_length_b 17.688715
_cell_length_c 12.716413
_cell_angle_alpha 90.000000
_cell_angle_beta 90.000000
_cell_angle_gamma 120.000000
_cell_volume 3445.782217
_symmetry_space_group_name_H-M "P 6 M M"
_symmetry_group_IT_number 183
_symmetry_cell_setting 'hexagonal'
loop_
_space_group_symop_operation_xyz
x,y,z
x-y,x,z
-y,x-y,z
-x,-y,z
-x+y,-x,z
y,-x+y,z
-x+y,y,z
x,x-y,z
-y,-x,z
y,x,z
x-y,-y,z
-x,-x+y,z
loop_
_atom_site_type_symbol
_atom_site_label
_atom_site_fract_x
_atom_site_fract_y
_atom_site_fract_z
Si Si1 0.505808 0.668990 0.657680
Si Si2 0.732342 0.098943 0.083094
Si Si3 0.841726 0.331752 0.274787
Si Si4 0.897514 0.533220 0.884922
Si Si5 0.098006 0.729851 0.471757
O O1 0.470658 0.735329 0.630821
O O2 0.429655 0.570346 0.638902
O O3 0.539335 0.685474 0.777299
O O4 0.586806 0.689814 0.583089
O O5 0.835879 0.164122 0.100807
O O6 0.676949 0.103917 0.179528
O O7 0.713619 0.000000 0.073723
O O8 0.704746 0.129784 0.978345
O O9 0.853704 0.426852 0.271351
O O10 0.739838 0.260162 0.264665
O O11 0.881000 0.320942 0.382968
O O12 0.864445 0.432223 0.913114
O O13 0.000000 0.584395 0.867626
O O14 0.166122 0.833879 0.465396
O O15 0.000000 0.713229 0.457648
#
# Coordination Sequence:
#
# PCOD8326545 Si02
#       5
#    12  12  12  12  12
#     4  10  19  30  45  67  97 131 164 195 227 266
#     4  10  20  33  49  69  93 122 157 197 240 283
#     4  10  20  33  50  73 101 131 160 189 222 263
#     4   9  17  29  46  68  93 122 157 195 232 273
#     4  10  21  35  51  71  94 122 156 195 238 281
#
# _framework density 17.412590999999999
#
# number of rings (size 3 to 8) (size 9 to 14) (size 15 to 20)
#    0.000    2.200    0.000    3.400    0.000    4.400 
#    0.000    2.000    0.000    6.800    0.000    0.000 
#    0.000    4.800    0.000    6.400    0.000    0.000 
#
# Total GULP energy -744028.099716 kJ/mol
# GULP energy per Si atom -12400.468329 kJ/mol
# Density = 1.737296 g / cm^3
# Si number density = 17.412591 Si / 1000 Ang^3
#
#
#
# Elastic Constant Matrix: (Units=GPa)
#
#
# Indices 1 2 3 4 5 6 
#
# 1 81.3636 57.5988 35.5603 0.0000 0.0000 0.0000
# 2 57.5988 81.3636 35.5603 0.0000 0.0000 0.0000
# 3 35.5603 35.5603 84.4626 0.0000 0.0000 0.0000
# 4 0.0000 0.0000 0.0000 21.1311 0.0000 0.0000
# 5 0.0000 0.0000 0.0000 0.0000 21.1311 0.0000
# 6 0.0000 0.0000 0.0000 0.0000 0.0000 11.8824
#
#
#
# Elastic Compliance Matrix: (Units=1/GPa)
#
#
# Indices 1 2 3 4 5 6 
#
# 1 0.025626 -0.016453 -0.003862 0.000000 0.000000 0.000000
# 2 -0.016453 0.025626 -0.003862 0.000000 0.000000 0.000000
# 3 -0.003862 -0.003862 0.015091 0.000000 0.000000 0.000000
# 4 0.000000 0.000000 0.000000 0.047324 0.000000 0.000000
# 5 0.000000 0.000000 0.000000 0.000000 0.047324 0.000000
# 6 0.000000 0.000000 0.000000 0.000000 0.000000 0.084158
#
#
# Mechanical properties :
#
#
# Convention : Reuss Voigt Hill
#
# Bulk Modulus (GPa) = 55.58864 56.06986 55.82925
# Shear Modulus (GPa) = 16.69459 18.72695 17.71077
#
# Velocity S-wave (km/s) = 3.09975 3.28301 3.19270
# Velocity P-wave (km/s) = 6.69365 6.82946 6.76190
#
# Compressibility (1/GPa) = 0.01798929
#
# Stress axis : x y z
#
# Youngs Moduli (GPa) = 39.02319 39.02319 66.26286
#
# Poissons Ratio (x) = 0.64205 0.25590
# Poissons Ratio (y) = 0.64205 0.25590
# Poissons Ratio (z) = 0.15070 0.15070
#
# Static dielectric constant tensor:
#      x y z
#    x 3.138490 0.000000 0.000000 
#    y 0.000000 3.138490 0.000000 
#    z 0.000000 0.000000 3.452190 
# 
# 
# High freq. dielectric constant tensor:
#      x y z
#    x 1.654320 0.000000 0.000000 
#    y 0.000000 1.654320 0.000000 
#    z 0.000000 0.000000 1.693620 
# 
# From -- ./inp_files/1586.got.cif
#   From: 2010.03.12/outbox.cif.g09.slc.cpg/sg183_1_cif.got.tgz:1586.got - 2010.04.01 11:53:02.
