data_PCOD8326541
_publ_section_title
;
Structure prediction by ZEFSAII (Michael W. Deem and Ramdas Pophale) SiO2 
 PCOD8326541
Probable space group: P 6 M M
;
_chemical_formula_sum "Si O2"
_cell_formula_units_Z 84
_cell_length_a 18.019830
_cell_length_b 18.019830
_cell_length_c 17.731391
_cell_angle_alpha 90.000000
_cell_angle_beta 90.000000
_cell_angle_gamma 120.000000
_cell_volume 4986.258818
_symmetry_space_group_name_H-M "P 6 M M"
_symmetry_group_IT_number 183
_symmetry_cell_setting 'hexagonal'
loop_
_space_group_symop_operation_xyz
x,y,z
x-y,x,z
-y,x-y,z
-x,-y,z
-x+y,-x,z
y,-x+y,z
-x+y,y,z
x,x-y,z
-y,-x,z
y,x,z
x-y,-y,z
-x,-x+y,z
loop_
_atom_site_type_symbol
_atom_site_label
_atom_site_fract_x
_atom_site_fract_y
_atom_site_fract_z
Si Si1 0.330971 0.496112 0.451520
Si Si2 0.163806 0.497218 0.024205
Si Si3 0.638020 0.904140 0.323005
Si Si4 0.163806 0.497218 0.196802
Si Si5 0.459713 0.364553 0.610503
Si Si6 0.361980 0.095860 0.898002
Si Si7 0.496112 0.165142 0.769486
O O1 0.264983 0.529965 0.435039
O O2 0.427033 0.572968 0.440155
O O3 0.314751 0.421233 0.394244
O O4 0.313360 0.457661 0.535835
O O5 0.263560 0.527120 0.013470
O O6 0.151119 0.575560 0.998151
O O7 0.134864 0.471767 0.110503
O O8 0.105580 0.414895 0.973763
O O9 0.670819 0.835410 0.325310
O O10 0.585105 0.894420 0.247244
O O11 0.719857 0.000000 0.324528
O O12 0.263560 0.527120 0.207537
O O13 0.151119 0.575560 0.222856
O O14 0.545111 0.454890 0.610502
O O15 0.377728 0.377728 0.610503
O O16 0.457662 0.313361 0.685171
O O17 0.329179 0.164590 0.895698
O O18 0.421233 0.106484 0.826762
O O19 0.280143 0.000000 0.896479
O O20 0.572967 0.145934 0.780852
O O21 0.529967 0.264984 0.785967
#
# Coordination Sequence:
#
# PCOD8326541 Si02
#       7
#    12  12  12  12  12  12  12
#     4  10  19  30  45  66  94 127 160 191 223 263
#     4   9  17  29  46  69  98 131 163 191 218 252
#     4  10  21  35  50  68  90 117 149 188 234 280
#     4   9  17  29  46  69  98 131 163 191 218 252
#     4   9  17  28  42  60  84 119 163 205 235 256
#     4  10  21  35  50  68  90 117 149 188 234 280
#     4  10  19  30  45  66  94 127 160 191 223 263
#
# _framework density 16.846298000000001
#
# number of rings (size 3 to 8) (size 9 to 14) (size 15 to 20)
#    0.000    2.429    0.000    2.714    0.000    5.143 
#    0.000    5.714    0.000    0.286    0.000    0.000 
#    0.000    0.000    0.000    7.143    0.000   29.714 
#
# Total GULP energy -1041537.900594 kJ/mol
# GULP energy per Si atom -12399.260721 kJ/mol
# Density = 1.680796 g / cm^3
# Si number density = 16.846298 Si / 1000 Ang^3
#
#
#
# Elastic Constant Matrix: (Units=GPa)
#
#
# Indices 1 2 3 4 5 6 
#
# 1 85.2969 56.8441 34.3200 0.0000 0.0000 0.0000
# 2 56.8441 85.2969 34.3200 0.0000 0.0000 0.0000
# 3 34.3200 34.3200 96.6339 0.0000 0.0000 0.0000
# 4 0.0000 0.0000 0.0000 17.4171 0.0000 0.0000
# 5 0.0000 0.0000 0.0000 0.0000 17.4171 0.0000
# 6 0.0000 0.0000 0.0000 0.0000 0.0000 14.2264
#
#
#
# Elastic Compliance Matrix: (Units=1/GPa)
#
#
# Indices 1 2 3 4 5 6 
#
# 1 0.021819 -0.013327 -0.003016 0.000000 0.000000 0.000000
# 2 -0.013327 0.021819 -0.003016 0.000000 0.000000 0.000000
# 3 -0.003016 -0.003016 0.012491 0.000000 0.000000 0.000000
# 4 0.000000 0.000000 0.000000 0.057415 0.000000 0.000000
# 5 0.000000 0.000000 0.000000 0.000000 0.057415 0.000000
# 6 0.000000 0.000000 0.000000 0.000000 0.000000 0.070292
#
#
# Mechanical properties :
#
#
# Convention : Reuss Voigt Hill
#
# Bulk Modulus (GPa) = 57.43698 57.57735 57.50717
# Shear Modulus (GPa) = 17.49655 19.26169 18.37912
#
# Velocity S-wave (km/s) = 3.22623 3.38506 3.30660
# Velocity P-wave (km/s) = 6.93158 7.03778 6.98488
#
# Compressibility (1/GPa) = 0.01741039
#
# Stress axis : x y z
#
# Youngs Moduli (GPa) = 45.83210 45.83210 80.06072
#
# Poissons Ratio (x) = 0.61081 0.24145
# Poissons Ratio (y) = 0.61081 0.24145
# Poissons Ratio (z) = 0.13822 0.13822
#
# Static dielectric constant tensor:
#      x y z
#    x 2.928290 0.000000 0.000000 
#    y 0.000000 2.928290 0.000000 
#    z 0.000000 0.000000 3.487000 
# 
# 
# High freq. dielectric constant tensor:
#      x y z
#    x 1.620490 0.000000 0.000000 
#    y 0.000000 1.620490 0.000000 
#    z 0.000000 0.000000 1.671560 
# 
# From -- ./inp_files/2876.got.cif
#   From: 2010.03.12/outbox.cif.g09.slc.cpg/sg183_2_cif.got.tgz:2876.got - 2010.04.01 11:53:02.
