data_PCOD8326760
_publ_section_title
;
Structure prediction by ZEFSAII (Michael W. Deem and Ramdas Pophale) SiO2 
 PCOD8326760
Probable space group: P 63 M C
;
_chemical_formula_sum "Si O2"
_cell_formula_units_Z 84
_cell_length_a 30.810834
_cell_length_b 30.810834
_cell_length_c 5.240763
_cell_angle_alpha 90.000000
_cell_angle_beta 90.000000
_cell_angle_gamma 120.000000
_cell_volume 4308.559157
_symmetry_space_group_name_H-M "P 63 M C"
_symmetry_group_IT_number 186
_symmetry_cell_setting 'hexagonal'
loop_
_space_group_symop_operation_xyz
x,y,z
x-y,x,1/2+z
-y,x-y,z
-x,-y,1/2+z
-x+y,-x,z
y,-x+y,1/2+z
-x+y,y,z
x,x-y,z
-y,-x,z
y,x,1/2+z
x-y,-y,1/2+z
-x,-x+y,1/2+z
loop_
_atom_site_type_symbol
_atom_site_label
_atom_site_fract_x
_atom_site_fract_y
_atom_site_fract_z
Si Si1 0.060792 0.482792 0.058330
Si Si2 0.522688 0.892276 0.560437
Si Si3 0.166220 0.736122 0.640090
Si Si4 0.266443 0.235790 0.688334
Si Si5 0.366202 0.133907 0.630616
Si Si6 0.865463 0.833820 0.669280
Si Si7 0.014897 0.637298 0.552251
O O1 0.034973 0.517487 0.079047
O O2 0.099704 0.497898 0.294362
O O3 0.017518 0.424603 0.056176
O O4 0.094285 0.499990 0.802551
O O5 0.519981 0.838780 0.592374
O O6 0.583219 0.927374 0.559957
O O7 0.225211 0.774790 0.669837
O O8 0.143957 0.750903 0.401793
O O9 0.137555 0.734492 0.901838
O O10 0.256575 0.267129 0.471862
O O11 0.319318 0.240401 0.631464
O O12 0.224147 0.177648 0.671978
O O13 0.348264 0.174132 0.578076
O O14 0.918260 0.836520 0.685713
O O15 0.863098 0.860122 0.409568
O O16 0.001451 0.658124 0.299753
#
# Coordination Sequence:
#
# PCOD8326760 Si02
#       7
#    12  12  12  12  12  12  12
#     4  10  19  31  49  72 100 134 166 198 242 296
#     4  10  19  32  47  68  97 127 169 210 241 280
#     4  10  21  36  54  72  94 133 178 216 253 294
#     4  10  20  34  51  77 102 123 155 200 257 304
#     4  10  20  36  55  72  95 130 173 212 250 300
#     4  10  20  34  54  75  98 123 151 189 235 292
#     4   8  16  27  41  62  89 122 158 193 229 276
#
# _framework density 19.496075000000001
#
# number of rings (size 3 to 8) (size 9 to 14) (size 15 to 20)
#    0.000    2.286    0.000    3.000    0.000    5.143 
#    0.000   17.143    0.000    2.857    0.000    0.000 
#    0.000    0.000    0.000    8.571    0.000    0.000 
#
# Total GULP energy -1041031.503572 kJ/mol
# GULP energy per Si atom -12393.232185 kJ/mol
# Density = 1.945170 g / cm^3
# Si number density = 19.496075 Si / 1000 Ang^3
#
#
#
# Elastic Constant Matrix: (Units=GPa)
#
#
# Indices 1 2 3 4 5 6 
#
# 1 32.6373 8.6381 -1.9716 0.0000 0.0000 0.0000
# 2 8.6381 32.6373 -1.9716 0.0000 0.0000 0.0000
# 3 -1.9716 -1.9716 143.4478 0.0000 0.0000 0.0000
# 4 0.0000 0.0000 0.0000 17.7782 0.0000 0.0000
# 5 0.0000 0.0000 0.0000 0.0000 17.7782 0.0000
# 6 0.0000 0.0000 0.0000 0.0000 0.0000 11.9996
#
#
#
# Elastic Compliance Matrix: (Units=1/GPa)
#
#
# Indices 1 2 3 4 5 6 
#
# 1 0.032964 -0.008704 0.000333 0.000000 0.000000 0.000000
# 2 -0.008704 0.032964 0.000333 0.000000 0.000000 0.000000
# 3 0.000333 0.000333 0.006980 0.000000 0.000000 0.000000
# 4 0.000000 0.000000 0.000000 0.056249 0.000000 0.000000
# 5 0.000000 0.000000 0.000000 0.000000 0.056249 0.000000
# 6 0.000000 0.000000 0.000000 0.000000 0.000000 0.083336
#
#
# Mechanical properties :
#
#
# Convention : Reuss Voigt Hill
#
# Bulk Modulus (GPa) = 17.59546 24.23467 20.91506
# Shear Modulus (GPa) = 16.46034 23.11303 19.78668
#
# Velocity S-wave (km/s) = 2.90882 3.44688 3.18922
# Velocity P-wave (km/s) = 4.50848 5.31966 4.93078
#
# Compressibility (1/GPa) = 0.05683286
#
# Stress axis : x y z
#
# Youngs Moduli (GPa) = 30.33637 30.33637 143.25941
#
# Poissons Ratio (x) = 0.26406 -0.04777
# Poissons Ratio (y) = 0.26406 -0.04777
# Poissons Ratio (z) = -0.01012 -0.01012
#
# Static dielectric constant tensor:
#      x y z
#    x 3.481710 0.000000 0.000000 
#    y 0.000000 3.481710 0.000000 
#    z 0.000000 0.000000 4.503980 
# 
# 
# High freq. dielectric constant tensor:
#      x y z
#    x 1.731130 0.000000 0.000000 
#    y 0.000000 1.731130 0.000000 
#    z 0.000000 0.000000 1.798010 
# 
# From -- ./inp_files/445.got.cif
#   From: 2010.03.12/outbox.cif.g09.slc.cpg/sg186_1_cif.got.tgz:445.got - 2010.04.01 11:56:34.
