data_PCOD8326499
_publ_section_title
;
Structure prediction by ZEFSAII (Michael W. Deem and Ramdas Pophale) SiO2 
 PCOD8326499
Probable space group: P 63 2 2
;
_chemical_formula_sum "Si O2"
_cell_formula_units_Z 60
_cell_length_a 13.770829
_cell_length_b 13.770829
_cell_length_c 16.250362
_cell_angle_alpha 90.000000
_cell_angle_beta 90.000000
_cell_angle_gamma 120.000000
_cell_volume 2668.786564
_symmetry_space_group_name_H-M "P 63 2 2"
_symmetry_group_IT_number 182
_symmetry_cell_setting 'hexagonal'
loop_
_space_group_symop_operation_xyz
x,y,z
x-y,x,1/2+z
-y,x-y,z
-x,-y,1/2+z
-x+y,-x,z
y,-x+y,1/2+z
x-y,-y,-z
-x,-x+y,-z
y,x,-z
-y,-x,1/2-z
-x+y,y,1/2-z
x,x-y,1/2-z
loop_
_atom_site_type_symbol
_atom_site_label
_atom_site_fract_x
_atom_site_fract_y
_atom_site_fract_z
Si Si1 0.872623 0.540346 0.516451
Si Si2 0.736381 0.673864 0.293704
Si Si3 0.128039 0.664904 0.291328
Si Si4 0.451066 0.335682 0.045930
Si Si5 0.876797 0.000823 0.092261
O O1 0.851488 0.513077 0.612460
O O2 0.788347 0.580330 0.483801
O O3 0.845411 0.426088 0.469839
O O4 0.000000 0.638195 0.500000
O O5 0.825633 0.651266 0.250000
O O6 0.659329 0.681814 0.223740
O O7 0.666678 0.571900 0.356804
O O8 0.791252 0.790956 0.342507
O O9 0.238860 0.761140 0.250000
O O10 0.097820 0.548910 0.250000
O O11 0.371116 0.371116 0.000000
O O12 0.001022 0.110747 0.104663
O O13 0.832672 0.000000 0.000000
#
# Coordination Sequence:
#
# PCOD8326499 Si02
#       5
#    12  12  12  12  12
#     4  11  23  45  73 100 133 188 235 282 350 438
#     4  12  26  41  66 104 145 181 228 299 361 419
#     4  12  26  44  68 102 137 175 231 299 353 402
#     4  11  24  47  71 100 137 182 237 287 351 429
#     4   8  19  40  62  91 135 192 244 281 337 430
#
# _framework density 22.482129
#
# number of rings (size 3 to 8) (size 9 to 14) (size 15 to 20)
#    0.400    0.800    0.000    7.200    2.800    0.000 
#   10.800    0.000    0.000    0.800    0.000    0.000 
#    0.000    0.000    0.000    0.000    0.000    0.000 
#
# Total GULP energy -744168.846795 kJ/mol
# GULP energy per Si atom -12402.814113 kJ/mol
# Density = 2.243096 g / cm^3
# Si number density = 22.482129 Si / 1000 Ang^3
#
#
#
# Elastic Constant Matrix: (Units=GPa)
#
#
# Indices 1 2 3 4 5 6 
#
# 1 106.6532 40.4763 17.4519 0.0000 0.0000 0.0000
# 2 40.4763 106.6532 17.4519 0.0000 0.0000 0.0000
# 3 17.4519 17.4519 91.3871 0.0000 0.0000 0.0000
# 4 0.0000 0.0000 0.0000 30.9522 0.0000 0.0000
# 5 0.0000 0.0000 0.0000 0.0000 30.9522 0.0000
# 6 0.0000 0.0000 0.0000 0.0000 0.0000 33.0885
#
#
#
# Elastic Compliance Matrix: (Units=1/GPa)
#
#
# Indices 1 2 3 4 5 6 
#
# 1 0.011115 -0.003996 -0.001360 0.000000 0.000000 0.000000
# 2 -0.003996 0.011115 -0.001360 0.000000 0.000000 0.000000
# 3 -0.001360 -0.001360 0.011462 0.000000 0.000000 0.000000
# 4 0.000000 0.000000 0.000000 0.032308 0.000000 0.000000
# 5 0.000000 0.000000 0.000000 0.000000 0.032308 0.000000
# 6 0.000000 0.000000 0.000000 0.000000 0.000000 0.030222
#
#
# Mechanical properties :
#
#
# Convention : Reuss Voigt Hill
#
# Bulk Modulus (GPa) = 49.35329 50.60595 49.97962
# Shear Modulus (GPa) = 33.62164 34.28613 33.95389
#
# Velocity S-wave (km/s) = 3.87134 3.90941 3.89042
# Velocity P-wave (km/s) = 6.47943 6.55258 6.51610
#
# Compressibility (1/GPa) = 0.02026207
#
# Stress axis : x y z
#
# Youngs Moduli (GPa) = 89.96743 89.96743 87.24700
#
# Poissons Ratio (x) = 0.35950 0.11862
# Poissons Ratio (y) = 0.35950 0.11862
# Poissons Ratio (z) = 0.12231 0.12231
#
# Static dielectric constant tensor:
#      x y z
#    x 4.070550 0.000000 0.000000 
#    y 0.000000 4.070550 0.000000 
#    z 0.000000 0.000000 4.161420 
# 
# 
# High freq. dielectric constant tensor:
#      x y z
#    x 1.890010 0.000000 0.000000 
#    y 0.000000 1.890010 0.000000 
#    z 0.000000 0.000000 1.891340 
# 
# From -- ./inp_files/3420.got.cif
#   From: 2010.03.12/outbox.cif.g09.slc.cpg/sg182_2_cif.got.tgz:3420.got - 2010.04.01 11:49:36.
