data_PCOD8326241
_publ_section_title
;
Structure prediction by ZEFSAII (Michael W. Deem and Ramdas Pophale) SiO2 
 PCOD8326241
Probable space group: P 62 2 2
;
_chemical_formula_sum "Si O2"
_cell_formula_units_Z 60
_cell_length_a 11.709150
_cell_length_b 11.709150
_cell_length_c 26.044642
_cell_angle_alpha 90.000000
_cell_angle_beta 90.000000
_cell_angle_gamma 120.000000
_cell_volume 3092.429183
_symmetry_space_group_name_H-M "P 62 2 2"
_symmetry_group_IT_number 180
_symmetry_cell_setting 'hexagonal'
loop_
_space_group_symop_operation_xyz
x,y,z
x-y,x,1/3+z
-y,x-y,2/3+z
-x,-y,z
-x+y,-x,1/3+z
y,-x+y,2/3+z
x-y,-y,-z
-x,-x+y,1/3-z
y,x,2/3-z
-y,-x,2/3-z
-x+y,y,-z
x,x-y,1/3-z
loop_
_atom_site_type_symbol
_atom_site_label
_atom_site_fract_x
_atom_site_fract_y
_atom_site_fract_z
Si Si1 0.655123 0.979560 0.252558
Si Si2 0.607064 0.213995 0.878641
Si Si3 0.420059 0.638625 0.616472
Si Si4 0.325192 0.001739 0.134039
Si Si5 0.044909 0.894924 0.722618
O O1 0.521224 0.877071 0.283050
O O2 0.773018 0.975194 0.280711
O O3 0.687017 0.130031 0.253490
O O4 0.656880 0.943220 0.192467
O O5 0.697853 0.302148 0.833334
O O6 0.641795 0.316681 0.924690
O O7 0.452567 0.143805 0.865249
O O8 0.645712 0.104430 0.895146
O O9 0.456299 0.728150 0.666667
O O10 0.202631 0.991895 0.102519
O O11 0.000000 0.828515 0.666667
O O12 0.000000 0.000000 0.734818
#
# Coordination Sequence:
#
# PCOD8326241 Si02
#       5
#    12  12  12  12  12
#     4  11  22  43  64  92 126 176 219 256 330 399
#     4  11  18  36  61 102 129 156 205 267 328 381
#     4  11  23  37  65  95 131 168 207 264 328 393
#     4  11  21  37  71  94 132 167 216 272 323 392
#     4  11  26  43  63  91 133 173 222 277 325 388
#
# _framework density 19.402224
#
# number of rings (size 3 to 8) (size 9 to 14) (size 15 to 20)
#    0.000    1.000    6.000    1.800    5.600    1.600 
#    0.000    2.000    0.000    0.000    0.000    0.000 
#    0.000    0.000    0.000    0.000    0.000    0.000 
#
# Total GULP energy -743340.101466 kJ/mol
# GULP energy per Si atom -12389.001691 kJ/mol
# Density = 1.935806 g / cm^3
# Si number density = 19.402224 Si / 1000 Ang^3
#
#
#
# Elastic Constant Matrix: (Units=GPa)
#
#
# Indices 1 2 3 4 5 6 
#
# 1 108.6273 49.8532 41.2638 0.0000 0.0000 0.0000
# 2 49.8532 108.6273 41.2638 0.0000 0.0000 0.0000
# 3 41.2638 41.2638 95.7118 0.0000 0.0000 0.0000
# 4 0.0000 0.0000 0.0000 31.3017 0.0000 0.0000
# 5 0.0000 0.0000 0.0000 0.0000 31.3017 0.0000
# 6 0.0000 0.0000 0.0000 0.0000 0.0000 29.3870
#
#
#
# Elastic Compliance Matrix: (Units=1/GPa)
#
#
# Indices 1 2 3 4 5 6 
#
# 1 0.012575 -0.004439 -0.003508 0.000000 0.000000 0.000000
# 2 -0.004439 0.012575 -0.003508 0.000000 0.000000 0.000000
# 3 -0.003508 -0.003508 0.013473 0.000000 0.000000 0.000000
# 4 0.000000 0.000000 0.000000 0.031947 0.000000 0.000000
# 5 0.000000 0.000000 0.000000 0.000000 0.031947 0.000000
# 6 0.000000 0.000000 0.000000 0.000000 0.000000 0.034029
#
#
# Mechanical properties :
#
#
# Convention : Reuss Voigt Hill
#
# Bulk Modulus (GPa) = 63.63606 64.19202 63.91404
# Shear Modulus (GPa) = 30.35933 30.43713 30.39823
#
# Velocity S-wave (km/s) = 3.95996 3.96503 3.96250
# Velocity P-wave (km/s) = 7.33335 7.35654 7.34495
#
# Compressibility (1/GPa) = 0.01571436
#
# Stress axis : x y z
#
# Youngs Moduli (GPa) = 79.51981 79.51981 74.22392
#
# Poissons Ratio (x) = 0.35297 0.26037
# Poissons Ratio (y) = 0.35297 0.26037
# Poissons Ratio (z) = 0.27895 0.27895
#
# Static dielectric constant tensor:
#      x y z
#    x 5.977780 0.000000 0.000000 
#    y 0.000000 5.977780 0.000000 
#    z 0.000000 0.000000 4.434230 
# 
# 
# High freq. dielectric constant tensor:
#      x y z
#    x 1.756080 0.000000 0.000000 
#    y 0.000000 1.756080 0.000000 
#    z 0.000000 0.000000 1.743540 
# 
# From -- ./inp_files/11212.got.cif
#   From: 2010.03.12/outbox.cif.g09.slc.cpg/sg180_6_cif.got.tgz:11212.got - 2010.04.01 11:35:50.
