data_PCOD8326150
_publ_section_title
;
Structure prediction by ZEFSAII (Michael W. Deem and Ramdas Pophale) SiO2 
 PCOD8326150
Probable space group: P 62 2 2
;
_chemical_formula_sum "Si O2"
_cell_formula_units_Z 60
_cell_length_a 17.585816
_cell_length_b 17.585816
_cell_length_c 15.307574
_cell_angle_alpha 90.000000
_cell_angle_beta 90.000000
_cell_angle_gamma 120.000000
_cell_volume 4099.794127
_symmetry_space_group_name_H-M "P 62 2 2"
_symmetry_group_IT_number 180
_symmetry_cell_setting 'hexagonal'
loop_
_space_group_symop_operation_xyz
x,y,z
x-y,x,1/3+z
-y,x-y,2/3+z
-x,-y,z
-x+y,-x,1/3+z
y,-x+y,2/3+z
x-y,-y,-z
-x,-x+y,1/3-z
y,x,2/3-z
-y,-x,2/3-z
-x+y,y,-z
x,x-y,1/3-z
loop_
_atom_site_type_symbol
_atom_site_label
_atom_site_fract_x
_atom_site_fract_y
_atom_site_fract_z
Si Si1 0.002963 0.591641 0.302502
Si Si2 0.185780 0.683637 0.568168
Si Si3 0.001354 0.410595 0.836026
Si Si4 0.857462 0.518684 0.168344
Si Si5 0.321660 0.816089 0.897926
O O1 0.092361 0.661900 0.253338
O O2 0.000000 0.500000 0.304893
O O3 0.002032 0.626298 0.399551
O O4 0.916670 0.575296 0.250216
O O5 0.250753 0.763913 0.506900
O O6 0.194283 0.599630 0.542579
O O7 0.210281 0.708662 0.669190
O O8 0.086680 0.662096 0.549699
O O9 0.915171 0.341546 0.783673
O O10 0.000000 0.500000 0.842510
O O11 0.841359 0.420680 0.166667
O O12 0.244755 0.755246 0.833334
#
# Coordination Sequence:
#
# PCOD8326150 Si02
#       5
#    12  12  12  12  12
#     4   8  15  27  42  56  76 105 131 158 199 242
#     4  10  19  28  41  60  79 101 134 173 204 233
#     4   9  17  29  41  55  76 103 132 164 201 239
#     4   9  16  27  41  59  80 103 133 167 200 239
#     4  10  19  30  42  56  77 106 136 167 203 240
#
# _framework density 14.634881
#
# number of rings (size 3 to 8) (size 9 to 14) (size 15 to 20)
#    0.000    2.800    0.000    3.600    0.000    4.800 
#    0.000    0.000    0.000    0.000    0.000    0.000 
#    0.000    0.000    0.000    3.600    0.000   40.800 
#
# Total GULP energy -743782.839803 kJ/mol
# GULP energy per Si atom -12396.380663 kJ/mol
# Density = 1.460157 g / cm^3
# Si number density = 14.634881 Si / 1000 Ang^3
#
#
#
# Elastic Constant Matrix: (Units=GPa)
#
#
# Indices 1 2 3 4 5 6 
#
# 1 68.2068 31.6147 20.3219 0.0000 0.0000 0.0000
# 2 31.6147 68.2068 20.3219 0.0000 0.0000 0.0000
# 3 20.3219 20.3219 58.5627 0.0000 0.0000 0.0000
# 4 0.0000 0.0000 0.0000 19.6600 0.0000 0.0000
# 5 0.0000 0.0000 0.0000 0.0000 19.6600 0.0000
# 6 0.0000 0.0000 0.0000 0.0000 0.0000 18.2961
#
#
#
# Elastic Compliance Matrix: (Units=1/GPa)
#
#
# Indices 1 2 3 4 5 6 
#
# 1 0.019497 -0.007831 -0.004048 0.000000 0.000000 0.000000
# 2 -0.007831 0.019497 -0.004048 0.000000 0.000000 0.000000
# 3 -0.004048 -0.004048 0.019885 0.000000 0.000000 0.000000
# 4 0.000000 0.000000 0.000000 0.050865 0.000000 0.000000
# 5 0.000000 0.000000 0.000000 0.000000 0.050865 0.000000
# 6 0.000000 0.000000 0.000000 0.000000 0.000000 0.054656
#
#
# Mechanical properties :
#
#
# Convention : Reuss Voigt Hill
#
# Bulk Modulus (GPa) = 37.00343 37.72149 37.36246
# Shear Modulus (GPa) = 19.52141 19.70441 19.61291
#
# Velocity S-wave (km/s) = 3.65622 3.67331 3.66477
# Velocity P-wave (km/s) = 6.56987 6.61982 6.59489
#
# Compressibility (1/GPa) = 0.02702452
#
# Stress axis : x y z
#
# Youngs Moduli (GPa) = 51.28935 51.28935 50.28832
#
# Poissons Ratio (x) = 0.40165 0.20358
# Poissons Ratio (y) = 0.40165 0.20358
# Poissons Ratio (z) = 0.20764 0.20764
#
# Static dielectric constant tensor:
#      x y z
#    x 2.637240 0.000000 0.000000 
#    y 0.000000 2.637240 0.000000 
#    z 0.000000 0.000000 3.111060 
# 
# 
# High freq. dielectric constant tensor:
#      x y z
#    x 1.526230 0.000000 0.000000 
#    y 0.000000 1.526230 0.000000 
#    z 0.000000 0.000000 1.576030 
# 
# From -- ./inp_files/6263.got.cif
#   From: 2010.03.12/outbox.cif.g09.slc.cpg/sg180_4_cif.got.tgz:6263.got - 2010.04.01 11:35:50.
