data_PCOD8326329
_publ_section_title
;
Structure prediction by ZEFSAII (Michael W. Deem and Ramdas Pophale) SiO2 
 PCOD8326329
Probable space group: P 64 2 2
;
_chemical_formula_sum "Si O2"
_cell_formula_units_Z 57
_cell_length_a 14.797051
_cell_length_b 14.797051
_cell_length_c 14.782317
_cell_angle_alpha 90.000000
_cell_angle_beta 90.000000
_cell_angle_gamma 120.000000
_cell_volume 2803.002495
_symmetry_space_group_name_H-M "P 64 2 2"
_symmetry_group_IT_number 181
_symmetry_cell_setting 'hexagonal'
loop_
_space_group_symop_operation_xyz
x,y,z
x-y,x,2/3+z
-y,x-y,1/3+z
-x,-y,z
-x+y,-x,2/3+z
y,-x+y,1/3+z
x-y,-y,-z
-x,-x+y,2/3-z
y,x,1/3-z
-y,-x,1/3-z
-x+y,y,-z
x,x-y,2/3-z
loop_
_atom_site_type_symbol
_atom_site_label
_atom_site_fract_x
_atom_site_fract_y
_atom_site_fract_z
Si Si1 0.544770 0.705338 0.070574
Si Si2 0.887977 0.459341 0.497450
Si Si3 0.665397 0.752825 0.901906
Si Si4 0.629444 0.370557 0.666667
Si Si5 0.852492 0.254037 0.573221
Si Si6 0.500000 0.000000 0.500000
O O1 0.430800 0.680433 0.031519
O O2 0.583659 0.777163 0.158247
O O3 0.528860 0.594199 0.097935
O O4 0.646077 0.774307 0.005425
O O5 0.884388 0.547932 0.552791
O O6 0.807322 0.433274 0.418448
O O7 0.866277 0.369085 0.569744
O O8 0.000000 0.500000 0.450537
O O9 0.702567 0.851283 0.833334
O O10 0.743788 0.706824 0.894318
O O11 0.800759 0.199242 0.666667
#
# Coordination Sequence:
#
# PCOD8326329 Si02
#       6
#    12  12  12   6  12   3
#     4  11  25  40  61  92 127 176 216 263 319 396
#     4   9  19  34  59  87 127 167 209 255 309 374
#     4  11  22  40  64  94 129 170 222 275 325 384
#     4  10  19  38  58  90 122 166 214 255 298 378
#     4  10  23  41  62  91 130 177 218 268 328 392
#     4  12  28  44  60  88 138 178 216 260 332 404
#
# _framework density 20.335338
#
# number of rings (size 3 to 8) (size 9 to 14) (size 15 to 20)
#    0.000    1.684    2.105    1.579    7.368    4.211 
#    0.000    0.000    0.000    0.000    0.000   14.000 
#    0.000    0.000    0.000    0.000    0.000    0.000 
#
# Total GULP energy -706162.644332 kJ/mol
# GULP energy per Si atom -12388.818322 kJ/mol
# Density = 2.028905 g / cm^3
# Si number density = 20.335338 Si / 1000 Ang^3
#
#
#
# Elastic Constant Matrix: (Units=GPa)
#
#
# Indices 1 2 3 4 5 6 
#
# 1 106.4663 52.2413 56.7448 0.0000 0.0000 0.0000
# 2 52.2413 106.4663 56.7448 0.0000 0.0000 0.0000
# 3 56.7448 56.7448 112.8624 0.0000 0.0000 0.0000
# 4 0.0000 0.0000 0.0000 27.2010 0.0000 0.0000
# 5 0.0000 0.0000 0.0000 0.0000 27.2010 0.0000
# 6 0.0000 0.0000 0.0000 0.0000 0.0000 27.1125
#
#
#
# Elastic Compliance Matrix: (Units=1/GPa)
#
#
# Indices 1 2 3 4 5 6 
#
# 1 0.014140 -0.004302 -0.004946 0.000000 0.000000 0.000000
# 2 -0.004302 0.014140 -0.004946 0.000000 0.000000 0.000000
# 3 -0.004946 -0.004946 0.013834 0.000000 0.000000 0.000000
# 4 0.000000 0.000000 0.000000 0.036763 0.000000 0.000000
# 5 0.000000 0.000000 0.000000 0.000000 0.036763 0.000000
# 6 0.000000 0.000000 0.000000 0.000000 0.000000 0.036883
#
#
# Mechanical properties :
#
#
# Convention : Reuss Voigt Hill
#
# Bulk Modulus (GPa) = 72.86087 73.02853 72.94470
# Shear Modulus (GPa) = 26.95596 26.97383 26.96489
#
# Velocity S-wave (km/s) = 3.64479 3.64600 3.64539
# Velocity P-wave (km/s) = 7.32258 7.32902 7.32580
#
# Compressibility (1/GPa) = 0.01372479
#
# Stress axis : x y z
#
# Youngs Moduli (GPa) = 70.72234 70.72234 72.28501
#
# Poissons Ratio (x) = 0.30424 0.35754
# Poissons Ratio (y) = 0.30424 0.35754
# Poissons Ratio (z) = 0.34981 0.34981
#
# Static dielectric constant tensor:
#      x y z
#    x 3.776120 0.000000 0.000000 
#    y 0.000000 3.776120 0.000000 
#    z 0.000000 0.000000 4.001070 
# 
# 
# High freq. dielectric constant tensor:
#      x y z
#    x 1.779390 0.000000 0.000000 
#    y 0.000000 1.779390 0.000000 
#    z 0.000000 0.000000 1.818120 
# 
# From -- ./inp_files/6181.got.cif
#   From: 2010.03.12/outbox.cif.g09.slc.cpg/sg181_4_cif.got.tgz:6181.got - 2010.04.01 11:42:41.
