data_PCOD8326221
_publ_section_title
;
Structure prediction by ZEFSAII (Michael W. Deem and Ramdas Pophale) SiO2 
 PCOD8326221
Probable space group: P 62 2 2
;
_chemical_formula_sum "Si O2"
_cell_formula_units_Z 42
_cell_length_a 9.159327
_cell_length_b 9.159327
_cell_length_c 27.753566
_cell_angle_alpha 90.000000
_cell_angle_beta 90.000000
_cell_angle_gamma 120.000000
_cell_volume 2016.399368
_symmetry_space_group_name_H-M "P 62 2 2"
_symmetry_group_IT_number 180
_symmetry_cell_setting 'hexagonal'
loop_
_space_group_symop_operation_xyz
x,y,z
x-y,x,1/3+z
-y,x-y,2/3+z
-x,-y,z
-x+y,-x,1/3+z
y,-x+y,2/3+z
x-y,-y,-z
-x,-x+y,1/3-z
y,x,2/3-z
-y,-x,2/3-z
-x+y,y,-z
x,x-y,1/3-z
loop_
_atom_site_type_symbol
_atom_site_label
_atom_site_fract_x
_atom_site_fract_y
_atom_site_fract_z
Si Si1 0.253852 0.911286 0.787283
Si Si2 0.000000 0.500000 0.290586
Si Si3 0.076870 0.254056 0.348450
Si Si4 0.445746 0.722117 0.787079
O O1 0.133283 0.866718 0.833334
O O2 0.167298 0.921503 0.739094
O O3 0.295258 0.760917 0.776729
O O4 0.402380 0.095765 0.800179
O O5 0.080759 0.417635 0.325373
O O6 0.152355 0.639090 0.258260
O O7 0.239298 0.239298 0.333334
O O8 0.905617 0.094384 0.333334
O O9 0.400581 0.599420 0.833334
#
# Coordination Sequence:
#
# PCOD8326221 Si02
#       4
#    12   6  12  12
#     4  10  22  43  67  90 135 175 211 270 332 392
#     4  12  23  42  70  96 138 172 221 286 324 392
#     4  11  25  44  66  99 132 175 225 270 336 402
#     4  10  22  40  67 100 129 173 220 264 332 396
#
# _framework density 20.829207
#
# number of rings (size 3 to 8) (size 9 to 14) (size 15 to 20)
#    0.000    1.429    2.857    2.143    4.000    0.000 
#    0.000    4.286    0.000    0.000    0.000    0.000 
#    0.000    0.000    0.000    0.000    0.000    0.000 
#
# Total GULP energy -520557.550776 kJ/mol
# GULP energy per Si atom -12394.227399 kJ/mol
# Density = 2.078180 g / cm^3
# Si number density = 20.829207 Si / 1000 Ang^3
#
#
#
# Elastic Constant Matrix: (Units=GPa)
#
#
# Indices 1 2 3 4 5 6 
#
# 1 96.3582 36.5512 56.4332 0.0000 0.0000 0.0000
# 2 36.5512 96.3582 56.4332 0.0000 0.0000 0.0000
# 3 56.4332 56.4332 188.5619 0.0000 0.0000 0.0000
# 4 0.0000 0.0000 0.0000 44.3141 0.0000 0.0000
# 5 0.0000 0.0000 0.0000 0.0000 44.3141 0.0000
# 6 0.0000 0.0000 0.0000 0.0000 0.0000 29.9035
#
#
#
# Elastic Compliance Matrix: (Units=1/GPa)
#
#
# Indices 1 2 3 4 5 6 
#
# 1 0.013404 -0.003316 -0.003019 0.000000 0.000000 0.000000
# 2 -0.003316 0.013404 -0.003019 0.000000 0.000000 0.000000
# 3 -0.003019 -0.003019 0.007110 0.000000 0.000000 0.000000
# 4 0.000000 0.000000 0.000000 0.022566 0.000000 0.000000
# 5 0.000000 0.000000 0.000000 0.000000 0.022566 0.000000
# 6 0.000000 0.000000 0.000000 0.000000 0.000000 0.033441
#
#
# Mechanical properties :
#
#
# Convention : Reuss Voigt Hill
#
# Bulk Modulus (GPa) = 65.74821 75.56818 70.65819
# Shear Modulus (GPa) = 36.69168 39.16373 37.92770
#
# Velocity S-wave (km/s) = 4.20163 4.34087 4.27182
# Velocity P-wave (km/s) = 7.42780 7.84110 7.63725
#
# Compressibility (1/GPa) = 0.01520954
#
# Stress axis : x y z
#
# Youngs Moduli (GPa) = 74.60413 74.60413 140.63892
#
# Poissons Ratio (x) = 0.24742 0.42460
# Poissons Ratio (y) = 0.24742 0.42460
# Poissons Ratio (z) = 0.22524 0.22524
#
# Static dielectric constant tensor:
#      x y z
#    x 2.444700 0.000000 0.000000 
#    y 0.000000 2.444700 0.000000 
#    z 0.000000 0.000000 20.883350 
# 
# 
# High freq. dielectric constant tensor:
#      x y z
#    x 1.812710 0.000000 0.000000 
#    y 0.000000 1.812710 0.000000 
#    z 0.000000 0.000000 1.829170 
# 
# From -- ./inp_files/11998.got.cif
#   From: 2010.03.12/outbox.cif.g09.slc.cpg/sg180_6_cif.got.tgz:11998.got - 2010.04.01 11:35:50.
