data_PCOD8326047
_publ_section_title
;
Structure prediction by ZEFSAII (Michael W. Deem and Ramdas Pophale) SiO2 
 PCOD8326047
Probable space group: P 65 2 2
;
_chemical_formula_sum "Si O2"
_cell_formula_units_Z 48
_cell_length_a 15.101430
_cell_length_b 15.101430
_cell_length_c 11.361613
_cell_angle_alpha 90.000000
_cell_angle_beta 90.000000
_cell_angle_gamma 120.000000
_cell_volume 2243.916912
_symmetry_space_group_name_H-M "P 65 2 2"
_symmetry_group_IT_number 179
_symmetry_cell_setting 'hexagonal'
loop_
_space_group_symop_operation_xyz
x,y,z
x-y,x,5/6+z
-y,x-y,2/3+z
-x,-y,1/2+z
-x+y,-x,1/3+z
y,-x+y,1/6+z
x-y,-y,-z
-x,-x+y,1/3-z
y,x,2/3-z
-y,-x,1/6-z
-x+y,y,1/2-z
x,x-y,5/6-z
loop_
_atom_site_type_symbol
_atom_site_label
_atom_site_fract_x
_atom_site_fract_y
_atom_site_fract_z
Si Si1 0.854029 0.022249 0.689953
Si Si2 0.701317 0.298684 0.083334
Si Si3 0.736604 0.500060 0.997938
Si Si4 0.471003 0.528998 0.583334
Si Si5 0.317944 0.358825 0.963343
O O1 0.897817 0.102184 0.583334
O O2 0.919732 0.065451 0.809956
O O3 0.740871 0.005481 0.713918
O O4 0.734793 0.260333 0.195602
O O5 0.579781 0.254524 0.081723
O O6 0.633399 0.504892 0.012765
O O7 0.838358 0.603571 0.031668
O O8 0.568721 0.553688 0.503295
O O9 0.324281 0.324281 0.833334
#
# Coordination Sequence:
#
# PCOD8326047 Si02
#       5
#    12   6  12   6  12
#     4  10  20  38  66  94 120 160 211 272 328 388
#     4   9  18  38  58  80 118 168 200 249 312 374
#     4  10  21  37  59  85 121 162 210 254 311 382
#     4  11  24  34  58  92 118 160 204 257 310 372
#     4  12  23  38  61  91 125 165 217 263 323 392
#
# _framework density 21.391165000000001
#
# number of rings (size 3 to 8) (size 9 to 14) (size 15 to 20)
#    0.000    1.500    2.500    4.500    0.000    2.000 
#    0.000    0.000   13.750    0.000    0.000    0.000 
#    0.000    0.000    0.000    0.000    0.000    0.000 
#
# Total GULP energy -594798.143047 kJ/mol
# GULP energy per Si atom -12391.627980 kJ/mol
# Density = 2.134248 g / cm^3
# Si number density = 21.391165 Si / 1000 Ang^3
#
#
#
# Elastic Constant Matrix: (Units=GPa)
#
#
# Indices 1 2 3 4 5 6 
#
# 1 126.2264 43.7738 23.0347 0.0000 0.0000 0.0000
# 2 43.7738 126.2264 23.0347 0.0000 0.0000 0.0000
# 3 23.0347 23.0347 54.1620 0.0000 0.0000 0.0000
# 4 0.0000 0.0000 0.0000 18.3941 0.0000 0.0000
# 5 0.0000 0.0000 0.0000 0.0000 18.3941 0.0000
# 6 0.0000 0.0000 0.0000 0.0000 0.0000 41.2263
#
#
#
# Elastic Compliance Matrix: (Units=1/GPa)
#
#
# Indices 1 2 3 4 5 6 
#
# 1 0.009388 -0.002740 -0.002828 0.000000 0.000000 0.000000
# 2 -0.002740 0.009388 -0.002828 0.000000 0.000000 0.000000
# 3 -0.002828 -0.002828 0.020868 0.000000 0.000000 0.000000
# 4 0.000000 0.000000 0.000000 0.054365 0.000000 0.000000
# 5 0.000000 0.000000 0.000000 0.000000 0.054365 0.000000
# 6 0.000000 0.000000 0.000000 0.000000 0.000000 0.024256
#
#
# Mechanical properties :
#
#
# Convention : Reuss Voigt Hill
#
# Bulk Modulus (GPa) = 43.75398 54.03344 48.89371
# Shear Modulus (GPa) = 25.37551 30.05433 27.71492
#
# Velocity S-wave (km/s) = 3.44795 3.75238 3.60338
# Velocity P-wave (km/s) = 6.02908 6.63991 6.34185
#
# Compressibility (1/GPa) = 0.02285506
#
# Stress axis : x y z
#
# Youngs Moduli (GPa) = 106.51442 106.51442 47.91969
#
# Poissons Ratio (x) = 0.29183 0.13550
# Poissons Ratio (y) = 0.29183 0.13550
# Poissons Ratio (z) = 0.30118 0.30118
#
# Static dielectric constant tensor:
#      x y z
#    x 4.113610 0.000000 0.000000 
#    y 0.000000 4.113610 0.000000 
#    z 0.000000 0.000000 3.521220 
# 
# 
# High freq. dielectric constant tensor:
#      x y z
#    x 1.849280 0.000000 0.000000 
#    y 0.000000 1.849280 0.000000 
#    z 0.000000 0.000000 1.802170 
# 
# From -- ./inp_files/4285.got.cif
#   From: 2010.03.12/outbox.cif.g09.slc.cpg/sg179_3_cif.got.tgz:4285.got - 2010.04.02 07:08:42.
