data_PCOD8326807
_publ_section_title
;
Structure prediction by ZEFSAII (Michael W. Deem and Ramdas Pophale) SiO2 
 PCOD8326807
Probable space group: P 63 M C
;
_chemical_formula_sum "Si O2"
_cell_formula_units_Z 52
_cell_length_a 16.446599
_cell_length_b 16.446599
_cell_length_c 11.772646
_cell_angle_alpha 90.000000
_cell_angle_beta 90.000000
_cell_angle_gamma 120.000000
_cell_volume 2757.762895
_symmetry_space_group_name_H-M "P 63 M C"
_symmetry_group_IT_number 186
_symmetry_cell_setting 'hexagonal'
loop_
_space_group_symop_operation_xyz
x,y,z
x-y,x,1/2+z
-y,x-y,z
-x,-y,1/2+z
-x+y,-x,z
y,-x+y,1/2+z
-x+y,y,z
x,x-y,z
-y,-x,z
y,x,1/2+z
x-y,-y,1/2+z
-x,-x+y,1/2+z
loop_
_atom_site_type_symbol
_atom_site_label
_atom_site_fract_x
_atom_site_fract_y
_atom_site_fract_z
Si Si1 0.333333 0.666668 0.942935
Si Si2 0.900335 0.287324 0.839481
Si Si3 0.847054 0.330274 0.077476
Si Si4 0.900334 0.287326 0.315474
Si Si5 0.666667 0.333334 0.712012
Si Si6 0.876298 0.438149 0.442352
Si Si7 0.123702 0.561851 0.212604
O O1 0.385278 0.770556 0.894745
O O2 0.333334 0.666667 0.077474
O O3 0.812170 0.187831 0.797404
O O4 0.918213 0.375974 0.761292
O O5 0.000001 0.288683 0.827476
O O6 0.888190 0.305899 0.969144
O O7 0.878717 0.439359 0.077471
O O8 0.733733 0.266268 0.077476
O O9 0.888190 0.305904 0.185812
O O10 0.812168 0.187833 0.357549
O O11 0.918214 0.375975 0.393666
O O12 0.614723 0.229446 0.760204
O O13 0.886133 0.443067 0.577478
#
# Coordination Sequence:
#
# PCOD8326807 Si02
#       7
#     2  12  12  12   2   6   6
#     4   9  18  33  48  82 116 148 180 219 253 317
#     4  11  24  39  57  80 111 146 186 230 275 323
#     4  10  21  36  55  80 112 152 186 218 261 321
#     4  11  24  39  57  80 111 146 186 230 275 323
#     4   9  18  33  48  82 116 148 180 219 253 317
#     4  11  21  34  58  84 114 149 186 219 264 320
#     4  11  21  34  58  84 114 149 186 219 264 320
#
# _framework density 18.855864
#
# number of rings (size 3 to 8) (size 9 to 14) (size 15 to 20)
#    0.000    1.385    4.615    0.923    3.231    0.000 
#    0.000    0.000    0.000    0.462    0.000    0.000 
#    0.000    0.000    0.000    0.000    0.000    0.000 
#
# Total GULP energy -644510.320976 kJ/mol
# GULP energy per Si atom -12394.429250 kJ/mol
# Density = 1.881295 g / cm^3
# Si number density = 18.855864 Si / 1000 Ang^3
#
#
#
# Elastic Constant Matrix: (Units=GPa)
#
#
# Indices 1 2 3 4 5 6 
#
# 1 95.6257 55.3146 23.5319 0.0000 0.0000 0.0001
# 2 55.3146 95.6257 23.5319 0.0000 0.0000 0.0000
# 3 23.5319 23.5319 102.8036 0.0000 0.0000 0.0000
# 4 0.0000 0.0000 0.0000 15.0181 0.0000 0.0000
# 5 0.0000 0.0000 0.0000 0.0000 15.0181 0.0000
# 6 0.0001 0.0000 0.0000 0.0000 0.0000 20.1555
#
#
#
# Elastic Compliance Matrix: (Units=1/GPa)
#
#
# Indices 1 2 3 4 5 6 
#
# 1 0.015971 -0.008836 -0.001633 0.000000 0.000000 0.000000
# 2 -0.008836 0.015971 -0.001633 0.000000 0.000000 0.000000
# 3 -0.001633 -0.001633 0.010475 0.000000 0.000000 0.000000
# 4 0.000000 0.000000 0.000000 0.066586 0.000000 0.000000
# 5 0.000000 0.000000 0.000000 0.000000 0.066586 0.000000
# 6 0.000000 0.000000 0.000000 0.000000 0.000000 0.049614
#
#
# Mechanical properties :
#
#
# Convention : Reuss Voigt Hill
#
# Bulk Modulus (GPa) = 54.91089 55.42355 55.16722
# Shear Modulus (GPa) = 19.57113 22.81679 21.19396
#
# Velocity S-wave (km/s) = 3.22519 3.48237 3.35625
# Velocity P-wave (km/s) = 6.56154 6.75472 6.65883
#
# Compressibility (1/GPa) = 0.01821132
#
# Stress axis : x y z
#
# Youngs Moduli (GPa) = 62.61465 62.61466 95.46623
#
# Poissons Ratio (x) = 0.55329 0.15590
# Poissons Ratio (y) = 0.55329 0.15590
# Poissons Ratio (z) = 0.10225 0.10225
#
# Static dielectric constant tensor:
#      x y z
#    x 3.571610 0.000000 0.000000 
#    y 0.000000 3.571610 0.000000 
#    z 0.000000 0.000000 3.438220 
# 
# 
# High freq. dielectric constant tensor:
#      x y z
#    x 1.714160 0.000000 0.000000 
#    y 0.000000 1.714160 0.000000 
#    z 0.000000 0.000000 1.745070 
# 
# From -- ./inp_files/1722.got.cif
#   From: 2010.03.12/outbox.cif.g09.slc.cpg/sg186_1_cif.got.tgz:1722.got - 2010.04.01 11:56:34.
