data_PCOD8326737
_publ_section_title
;
Structure prediction by ZEFSAII (Michael W. Deem and Ramdas Pophale) SiO2 
 PCOD8326737
Probable space group: P 63 M C
;
_chemical_formula_sum "Si O2"
_cell_formula_units_Z 84
_cell_length_a 16.995388
_cell_length_b 16.995388
_cell_length_c 20.578594
_cell_angle_alpha 90.000000
_cell_angle_beta 90.000000
_cell_angle_gamma 120.000000
_cell_volume 5147.643928
_symmetry_space_group_name_H-M "P 63 M C"
_symmetry_group_IT_number 186
_symmetry_cell_setting 'hexagonal'
loop_
_space_group_symop_operation_xyz
x,y,z
x-y,x,1/2+z
-y,x-y,z
-x,-y,1/2+z
-x+y,-x,z
y,-x+y,1/2+z
-x+y,y,z
x,x-y,z
-y,-x,z
y,x,1/2+z
x-y,-y,1/2+z
-x,-x+y,1/2+z
loop_
_atom_site_type_symbol
_atom_site_label
_atom_site_fract_x
_atom_site_fract_y
_atom_site_fract_z
Si Si1 0.046193 0.772110 0.053110
Si Si2 0.151150 0.664837 0.566987
Si Si3 0.999239 0.185834 0.916277
Si Si4 0.666114 0.154110 0.385720
Si Si5 0.332576 0.256766 0.163503
Si Si6 0.248801 0.317598 0.804329
Si Si7 0.431056 0.034256 0.509793
O O1 0.130600 0.869401 0.066309
O O2 0.978929 0.750280 0.113590
O O3 0.996151 0.767228 0.985499
O O4 0.077187 0.695727 0.051878
O O5 0.183536 0.591768 0.579278
O O6 0.237933 0.762068 0.548996
O O7 0.098731 0.669951 0.631482
O O8 0.076459 0.632569 0.508872
O O9 0.088134 0.176267 0.913702
O O10 0.997823 0.250636 0.858708
O O11 0.912417 0.087584 0.908246
O O12 0.589287 0.178573 0.365951
O O13 0.754863 0.245138 0.412238
O O14 0.691954 0.115247 0.323672
O O15 0.629146 0.074126 0.438109
O O16 0.339560 0.169780 0.180672
O O17 0.311498 0.288027 0.233244
O O18 0.143222 0.286443 0.800124
O O19 0.529880 0.059759 0.539858
#
# Coordination Sequence:
#
# PCOD8326737 Si02
#       7
#    12  12  12  12  12  12  12
#     4  10  18  30  49  70  92 119 155 195 234 274
#     4   9  17  29  46  68  94 125 160 197 237 283
#     4  10  19  31  48  68  91 120 155 193 232 275
#     4  10  18  30  47  68  94 123 157 194 237 285
#     4   9  18  31  46  66  94 125 155 187 233 283
#     4   9  18  32  46  64  94 125 152 189 233 279
#     4   9  17  29  45  66  94 123 152 189 234 281
#
# _framework density 16.318144
#
# number of rings (size 3 to 8) (size 9 to 14) (size 15 to 20)
#    0.000    2.571    1.429    1.286    0.000    1.714 
#    0.000    0.000    0.000    2.286    0.000    0.000 
#    0.000    0.000    0.000    2.429    0.000    0.000 
#
# Total GULP energy -1040673.667465 kJ/mol
# GULP energy per Si atom -12388.972232 kJ/mol
# Density = 1.628100 g / cm^3
# Si number density = 16.318144 Si / 1000 Ang^3
#
#
#
# Elastic Constant Matrix: (Units=GPa)
#
#
# Indices 1 2 3 4 5 6 
#
# 1 72.3975 23.4031 41.0497 0.0000 0.0000 0.0000
# 2 23.4031 72.3975 41.0497 0.0000 0.0000 0.0000
# 3 41.0497 41.0497 113.2108 0.0000 0.0000 0.0000
# 4 0.0000 0.0000 0.0000 16.8324 0.0000 0.0000
# 5 0.0000 0.0000 0.0000 0.0000 16.8324 0.0000
# 6 0.0000 0.0000 0.0000 0.0000 0.0000 24.4972
#
#
#
# Elastic Compliance Matrix: (Units=1/GPa)
#
#
# Indices 1 2 3 4 5 6 
#
# 1 0.017777 -0.002633 -0.005491 0.000000 0.000000 0.000000
# 2 -0.002633 0.017777 -0.005491 0.000000 0.000000 0.000000
# 3 -0.005491 -0.005491 0.012815 0.000000 0.000000 0.000000
# 4 0.000000 0.000000 0.000000 0.059409 0.000000 0.000000
# 5 0.000000 0.000000 0.000000 0.000000 0.059409 0.000000
# 6 0.000000 0.000000 0.000000 0.000000 0.000000 0.040821
#
#
# Mechanical properties :
#
#
# Convention : Reuss Voigt Hill
#
# Bulk Modulus (GPa) = 47.30634 52.11232 49.70933
# Shear Modulus (GPa) = 20.63672 21.79931 21.21801
#
# Velocity S-wave (km/s) = 3.56005 3.65895 3.60984
# Velocity P-wave (km/s) = 6.77876 7.06082 6.92122
#
# Compressibility (1/GPa) = 0.02113882
#
# Stress axis : x y z
#
# Youngs Moduli (GPa) = 56.25132 56.25132 78.03191
#
# Poissons Ratio (x) = 0.14812 0.42849
# Poissons Ratio (y) = 0.14812 0.42849
# Poissons Ratio (z) = 0.30889 0.30889
#
# Static dielectric constant tensor:
#      x y z
#    x 3.116700 0.000000 0.000000 
#    y 0.000000 3.116700 0.000000 
#    z 0.000000 0.000000 3.189700 
# 
# 
# High freq. dielectric constant tensor:
#      x y z
#    x 1.621300 0.000000 0.000000 
#    y 0.000000 1.621300 0.000000 
#    z 0.000000 0.000000 1.613560 
# 
# From -- ./inp_files/3467.got.cif
#   From: 2010.03.12/outbox.cif.g09.slc.cpg/sg186_2_cif.got.tgz:3467.got - 2010.04.01 11:56:34.
