data_PCOD8326126
_publ_section_title
;
Structure prediction by ZEFSAII (Michael W. Deem and Ramdas Pophale) SiO2 
 PCOD8326126
Probable space group: P 62 2 2
;
_chemical_formula_sum "Si O2"
_cell_formula_units_Z 72
_cell_length_a 14.100841
_cell_length_b 14.100841
_cell_length_c 19.332206
_cell_angle_alpha 90.000000
_cell_angle_beta 90.000000
_cell_angle_gamma 120.000000
_cell_volume 3328.910178
_symmetry_space_group_name_H-M "P 62 2 2"
_symmetry_group_IT_number 180
_symmetry_cell_setting 'hexagonal'
loop_
_space_group_symop_operation_xyz
x,y,z
x-y,x,1/3+z
-y,x-y,2/3+z
-x,-y,z
-x+y,-x,1/3+z
y,-x+y,2/3+z
x-y,-y,-z
-x,-x+y,1/3-z
y,x,2/3-z
-y,-x,2/3-z
-x+y,y,-z
x,x-y,1/3-z
loop_
_atom_site_type_symbol
_atom_site_label
_atom_site_fract_x
_atom_site_fract_y
_atom_site_fract_z
Si Si1 0.705424 0.799040 0.775763
Si Si2 0.878220 0.821320 0.673809
Si Si3 0.090590 0.335029 0.774050
Si Si4 0.525365 0.253152 0.975401
Si Si5 0.115884 0.592987 0.244850
Si Si6 0.803673 0.155022 0.910574
O O1 0.739581 0.739581 0.833334
O O2 0.795572 0.854996 0.712947
O O3 0.692492 0.895045 0.813038
O O4 0.587752 0.709482 0.745562
O O5 0.874375 0.730668 0.723605
O O6 0.843479 0.760383 0.598999
O O7 0.000000 0.927309 0.666667
O O8 0.176537 0.461696 0.757297
O O9 0.967451 0.301893 0.754316
O O10 0.591868 0.380809 0.955847
O O11 0.606761 0.213522 0.000000
O O12 0.447102 0.237089 0.039652
O O13 0.129071 0.564536 0.166667
O O14 0.000000 0.500000 0.274821
O O15 0.806712 0.193289 0.833334
#
# Coordination Sequence:
#
# PCOD8326126 Si02
#       6
#    12  12  12  12  12  12
#     4  10  16  31  62  94 128 169 216 269 337 412
#     4   8  16  32  60  91 122 164 214 257 316 398
#     4   9  18  35  61  89 115 166 219 263 326 401
#     4  11  23  39  63  88 124 166 218 272 327 405
#     4  11  18  33  61  94 129 169 215 270 345 416
#     4  10  21  39  59  84 122 165 213 268 326 392
#
# _framework density 21.628699999999998
#
# number of rings (size 3 to 8) (size 9 to 14) (size 15 to 20)
#    0.000    2.167    3.333    3.500    0.000    2.000 
#    0.000    4.167    3.667   17.500    0.000    0.000 
#    0.000    0.000    0.000    0.000    0.000    0.000 
#
# Total GULP energy -892173.591961 kJ/mol
# GULP energy per Si atom -12391.299888 kJ/mol
# Density = 2.157947 g / cm^3
# Si number density = 21.628700 Si / 1000 Ang^3
#
#
#
# Elastic Constant Matrix: (Units=GPa)
#
#
# Indices 1 2 3 4 5 6 
#
# 1 131.4517 -7.5878 49.0078 0.0000 0.0000 0.0000
# 2 -7.5878 131.4517 49.0078 0.0000 0.0000 0.0000
# 3 49.0078 49.0078 99.2553 0.0000 0.0000 0.0000
# 4 0.0000 0.0000 0.0000 32.7294 0.0000 0.0000
# 5 0.0000 0.0000 0.0000 0.0000 32.7294 0.0000
# 6 0.0000 0.0000 0.0000 0.0000 0.0000 69.5197
#
#
#
# Elastic Compliance Matrix: (Units=1/GPa)
#
#
# Indices 1 2 3 4 5 6 
#
# 1 0.010221 0.003029 -0.006543 0.000000 0.000000 0.000000
# 2 0.003029 0.010221 -0.006543 0.000000 0.000000 0.000000
# 3 -0.006543 -0.006543 0.016536 0.000000 0.000000 0.000000
# 4 0.000000 0.000000 0.000000 0.030554 0.000000 0.000000
# 5 0.000000 0.000000 0.000000 0.000000 0.030554 0.000000
# 6 0.000000 0.000000 0.000000 0.000000 0.000000 0.014384
#
#
# Mechanical properties :
#
#
# Convention : Reuss Voigt Hill
#
# Bulk Modulus (GPa) = 59.28785 60.33494 59.81140
# Shear Modulus (GPa) = 36.17831 45.11110 40.64470
#
# Velocity S-wave (km/s) = 4.09430 4.57191 4.33968
# Velocity P-wave (km/s) = 7.05849 7.47169 7.26802
#
# Compressibility (1/GPa) = 0.01686686
#
# Stress axis : x y z
#
# Youngs Moduli (GPa) = 97.83390 97.83390 60.47457
#
# Poissons Ratio (x) = -0.29636 0.39566
# Poissons Ratio (y) = -0.29636 0.39566
# Poissons Ratio (z) = 0.64008 0.64008
#
# Static dielectric constant tensor:
#      x y z
#    x 3.972040 0.000000 0.000000 
#    y 0.000000 3.972040 0.000000 
#    z 0.000000 0.000000 4.164790 
# 
# 
# High freq. dielectric constant tensor:
#      x y z
#    x 1.840170 0.000000 0.000000 
#    y 0.000000 1.840170 0.000000 
#    z 0.000000 0.000000 1.847590 
# 
# From -- ./inp_files/7787.got.cif
#   From: 2010.03.12/outbox.cif.g09.slc.cpg/sg180_4_cif.got.tgz:7787.got - 2010.04.01 11:35:50.
