data_PCOD8326194
_publ_section_title
;
Structure prediction by ZEFSAII (Michael W. Deem and Ramdas Pophale) SiO2 
 PCOD8326194
Probable space group: P 62 2 2
;
_chemical_formula_sum "Si O2"
_cell_formula_units_Z 84
_cell_length_a 15.820937
_cell_length_b 15.820937
_cell_length_c 22.993869
_cell_angle_alpha 90.000000
_cell_angle_beta 90.000000
_cell_angle_gamma 120.000000
_cell_volume 4984.333427
_symmetry_space_group_name_H-M "P 62 2 2"
_symmetry_group_IT_number 180
_symmetry_cell_setting 'hexagonal'
loop_
_space_group_symop_operation_xyz
x,y,z
x-y,x,1/3+z
-y,x-y,2/3+z
-x,-y,z
-x+y,-x,1/3+z
y,-x+y,2/3+z
x-y,-y,-z
-x,-x+y,1/3-z
y,x,2/3-z
-y,-x,2/3-z
-x+y,y,-z
x,x-y,1/3-z
loop_
_atom_site_type_symbol
_atom_site_label
_atom_site_fract_x
_atom_site_fract_y
_atom_site_fract_z
Si Si1 0.110283 0.725868 0.797520
Si Si2 0.110375 0.556885 0.473888
Si Si3 0.562275 0.453007 0.915018
Si Si4 0.607847 0.888744 0.883054
Si Si5 0.115274 0.700494 0.162166
Si Si6 0.165134 0.484896 0.659911
Si Si7 0.393592 0.608203 0.643057
O O1 0.171597 0.828404 0.833334
O O2 0.136820 0.655761 0.832663
O O3 0.130949 0.715574 0.729955
O O4 0.996673 0.695574 0.799381
O O5 0.126700 0.634205 0.523079
O O6 0.187116 0.611829 0.422829
O O7 0.000000 0.500000 0.449725
O O8 0.500000 0.500000 0.893377
O O9 0.670830 0.521513 0.888497
O O10 0.498993 0.345273 0.887812
O O11 0.565574 0.447725 0.984271
O O12 0.638527 0.815849 0.851992
O O13 0.589202 0.872081 0.952125
O O14 0.000000 0.666786 0.166667
O O15 0.125496 0.562748 0.666667
O O16 0.280280 0.544630 0.655358
O O17 0.432713 0.716357 0.666667
#
# Coordination Sequence:
#
# PCOD8326194 Si02
#       7
#    12  12  12  12  12  12  12
#     4  11  22  37  51  73 108 139 175 222 260 304
#     4  10  21  34  51  71 102 141 173 213 257 305
#     4   9  17  31  50  70 102 136 166 209 253 301
#     4  11  21  35  56  75 100 143 180 211 263 319
#     4   9  18  33  52  76 100 129 172 218 256 302
#     4  11  21  33  52  77 104 140 178 209 250 309
#     4  11  20  30  46  74 104 139 172 207 244 299
#
# _framework density 16.852803999999999
#
# number of rings (size 3 to 8) (size 9 to 14) (size 15 to 20)
#    0.000    1.714    4.286    2.571    0.000    0.571 
#    2.571    0.000    0.000    0.429    0.000    0.000 
#    0.000    2.286    0.000    0.000    0.000    0.000 
#
# Total GULP energy -1040597.698159 kJ/mol
# GULP energy per Si atom -12388.067835 kJ/mol
# Density = 1.681445 g / cm^3
# Si number density = 16.852804 Si / 1000 Ang^3
#
#
#
# Elastic Constant Matrix: (Units=GPa)
#
#
# Indices 1 2 3 4 5 6 
#
# 1 77.6902 37.3548 35.9617 0.0000 0.0000 0.0000
# 2 37.3548 77.6902 35.9617 0.0000 0.0000 0.0000
# 3 35.9617 35.9617 110.6520 0.0000 0.0000 0.0000
# 4 0.0000 0.0000 0.0000 15.9179 0.0000 0.0000
# 5 0.0000 0.0000 0.0000 0.0000 15.9179 0.0000
# 6 0.0000 0.0000 0.0000 0.0000 0.0000 20.1677
#
#
#
# Elastic Compliance Matrix: (Units=1/GPa)
#
#
# Indices 1 2 3 4 5 6 
#
# 1 0.017850 -0.006942 -0.003545 0.000000 0.000000 0.000000
# 2 -0.006942 0.017850 -0.003545 0.000000 0.000000 0.000000
# 3 -0.003545 -0.003545 0.011342 0.000000 0.000000 0.000000
# 4 0.000000 0.000000 0.000000 0.062823 0.000000 0.000000
# 5 0.000000 0.000000 0.000000 0.000000 0.062823 0.000000
# 6 0.000000 0.000000 0.000000 0.000000 0.000000 0.049584
#
#
# Mechanical properties :
#
#
# Convention : Reuss Voigt Hill
#
# Bulk Modulus (GPa) = 52.69276 53.84321 53.26799
# Shear Modulus (GPa) = 19.48082 20.85094 20.16588
#
# Velocity S-wave (km/s) = 3.40360 3.52126 3.46293
# Velocity P-wave (km/s) = 6.83961 6.96784 6.90403
#
# Compressibility (1/GPa) = 0.01897794
#
# Stress axis : x y z
#
# Youngs Moduli (GPa) = 56.02106 56.02106 88.16953
#
# Poissons Ratio (x) = 0.38888 0.31259
# Poissons Ratio (y) = 0.38888 0.31259
# Poissons Ratio (z) = 0.19861 0.19861
#
# Static dielectric constant tensor:
#      x y z
#    x 3.096640 0.000000 0.000000 
#    y 0.000000 3.096640 0.000000 
#    z 0.000000 0.000000 3.308220 
# 
# 
# High freq. dielectric constant tensor:
#      x y z
#    x 1.629110 0.000000 0.000000 
#    y 0.000000 1.629110 0.000000 
#    z 0.000000 0.000000 1.664150 
# 
# From -- ./inp_files/10247.got.cif
#   From: 2010.03.12/outbox.cif.g09.slc.cpg/sg180_6_cif.got.tgz:10247.got - 2010.04.01 11:35:50.
