data_PCOD8326105
_publ_section_title
;
Structure prediction by ZEFSAII (Michael W. Deem and Ramdas Pophale) SiO2 
 PCOD8326105
Probable space group: P 65 2 2
;
_chemical_formula_sum "Si O2"
_cell_formula_units_Z 48
_cell_length_a 16.097052
_cell_length_b 16.097052
_cell_length_c 9.278938
_cell_angle_alpha 90.000000
_cell_angle_beta 90.000000
_cell_angle_gamma 120.000000
_cell_volume 2082.195956
_symmetry_space_group_name_H-M "P 65 2 2"
_symmetry_group_IT_number 179
_symmetry_cell_setting 'hexagonal'
loop_
_space_group_symop_operation_xyz
x,y,z
x-y,x,5/6+z
-y,x-y,2/3+z
-x,-y,1/2+z
-x+y,-x,1/3+z
y,-x+y,1/6+z
x-y,-y,-z
-x,-x+y,1/3-z
y,x,2/3-z
-y,-x,1/6-z
-x+y,y,1/2-z
x,x-y,5/6-z
loop_
_atom_site_type_symbol
_atom_site_label
_atom_site_fract_x
_atom_site_fract_y
_atom_site_fract_z
Si Si1 0.840048 0.020246 0.751109
Si Si2 0.664015 0.146349 0.087590
Si Si3 0.456842 0.358110 0.749604
Si Si4 0.713013 0.000000 0.000000
Si Si5 0.173656 0.826345 0.083334
O O1 0.759487 0.969542 0.871696
O O2 0.795882 0.072034 0.656487
O O3 0.943389 0.092901 0.820927
O O4 0.742065 0.257936 0.083334
O O5 0.645191 0.093543 0.242946
O O6 0.566757 0.141202 0.034282
O O7 0.698249 0.091462 0.976687
O O8 0.395520 0.395520 0.833334
O O9 0.416593 0.249333 0.799037
#
# Coordination Sequence:
#
# PCOD8326105 Si02
#       5
#    12  12  12   6   6
#     4  12  26  46  68 101 142 187 244 303 368 438
#     4  11  24  43  71 106 147 186 244 302 370 437
#     4  11  24  45  69 104 142 191 243 300 366 444
#     4  12  22  44  68 100 136 188 236 300 356 444
#     4  12  24  44  70  96 140 184 244 296 366 432
#
# _framework density 23.052582999999998
#
# number of rings (size 3 to 8) (size 9 to 14) (size 15 to 20)
#    0.000    0.500    1.250    9.000    0.000    2.000 
#   13.500    0.000    0.000    0.000    0.000    0.000 
#    0.000    0.000    0.000    0.000    0.000    0.000 
#
# Total GULP energy -595079.898153 kJ/mol
# GULP energy per Si atom -12397.497878 kJ/mol
# Density = 2.300011 g / cm^3
# Si number density = 23.052583 Si / 1000 Ang^3
#
#
#
# Elastic Constant Matrix: (Units=GPa)
#
#
# Indices 1 2 3 4 5 6 
#
# 1 124.8281 46.3329 22.1119 0.0000 0.0000 0.0000
# 2 46.3329 124.8281 22.1119 0.0000 0.0000 0.0000
# 3 22.1119 22.1119 65.3819 0.0000 0.0000 0.0000
# 4 0.0000 0.0000 0.0000 37.4047 0.0000 0.0000
# 5 0.0000 0.0000 0.0000 0.0000 37.4047 0.0000
# 6 0.0000 0.0000 0.0000 0.0000 0.0000 39.2476
#
#
#
# Elastic Compliance Matrix: (Units=1/GPa)
#
#
# Indices 1 2 3 4 5 6 
#
# 1 0.009571 -0.003169 -0.002165 0.000000 0.000000 0.000000
# 2 -0.003169 0.009571 -0.002165 0.000000 0.000000 0.000000
# 3 -0.002165 -0.002165 0.016759 0.000000 0.000000 0.000000
# 4 0.000000 0.000000 0.000000 0.026735 0.000000 0.000000
# 5 0.000000 0.000000 0.000000 0.000000 0.026735 0.000000
# 6 0.000000 0.000000 0.000000 0.000000 0.000000 0.025479
#
#
# Mechanical properties :
#
#
# Convention : Reuss Voigt Hill
#
# Bulk Modulus (GPa) = 47.84098 55.12796 51.48447
# Shear Modulus (GPa) = 36.54577 37.77685 37.16131
#
# Velocity S-wave (km/s) = 3.98593 4.05251 4.01936
# Velocity P-wave (km/s) = 6.47932 6.77222 6.62739
#
# Compressibility (1/GPa) = 0.02090258
#
# Stress axis : x y z
#
# Youngs Moduli (GPa) = 104.48513 104.48513 59.66867
#
# Poissons Ratio (x) = 0.33110 0.12919
# Poissons Ratio (y) = 0.33110 0.12919
# Poissons Ratio (z) = 0.22622 0.22622
#
# Static dielectric constant tensor:
#      x y z
#    x 4.219990 0.000000 0.000000 
#    y 0.000000 4.219990 0.000000 
#    z 0.000000 0.000000 -10.829460 
# 
# 
# High freq. dielectric constant tensor:
#      x y z
#    x 1.918520 0.000000 0.000000 
#    y 0.000000 1.918520 0.000000 
#    z 0.000000 0.000000 1.907850 
# 
# From -- ./inp_files/4360.got.cif
#   From: 2010.03.12/outbox.cif.g09.slc.cpg/sg179_3_cif.got.tgz:4360.got - 2010.04.02 07:08:42.
