data_PCOD8326685
_publ_section_title
;
Structure prediction by ZEFSAII (Michael W. Deem and Ramdas Pophale) SiO2 
 PCOD8326685
Probable space group: P 63 C M
;
_chemical_formula_sum "Si O2"
_cell_formula_units_Z 60
_cell_length_a 18.388972
_cell_length_b 18.388972
_cell_length_c 10.100995
_cell_angle_alpha 90.000000
_cell_angle_beta 90.000000
_cell_angle_gamma 120.000000
_cell_volume 2958.078473
_symmetry_space_group_name_H-M "P 63 C M"
_symmetry_group_IT_number 185
_symmetry_cell_setting 'hexagonal'
loop_
_space_group_symop_operation_xyz
x,y,z
x-y,x,1/2+z
-y,x-y,z
-x,-y,1/2+z
-x+y,-x,z
y,-x+y,1/2+z
-x+y,y,1/2+z
x,x-y,1/2+z
-y,-x,1/2+z
y,x,z
x-y,-y,z
-x,-x+y,z
loop_
_atom_site_type_symbol
_atom_site_label
_atom_site_fract_x
_atom_site_fract_y
_atom_site_fract_z
Si Si1 0.096405 0.294465 0.606510
Si Si2 0.612534 0.090505 0.398573
Si Si3 0.098280 0.196136 0.357809
Si Si4 0.149758 0.600881 0.678849
Si Si5 0.730237 0.522623 0.703713
O O1 0.116448 0.264478 0.469899
O O2 0.114728 0.246433 0.722054
O O3 0.158720 0.394336 0.614752
O O4 0.000000 0.273780 0.611140
O O5 0.541077 0.092938 0.306076
O O6 0.596137 0.096342 0.551886
O O7 0.704450 0.162798 0.349568
O O8 0.604919 0.000000 0.377630
O O9 0.144544 0.144544 0.394601
O O10 0.000000 0.130157 0.343547
O O11 0.203410 0.555840 0.637517
O O12 0.203731 0.696189 0.725391
#
# Coordination Sequence:
#
# PCOD8326685 Si02
#       5
#    12  12  12  12  12
#     4  10  22  38  61  89 125 166 203 255 321 381
#     4  10  23  42  64  92 128 169 211 266 328 387
#     4  10  21  39  63  93 124 163 210 259 317 381
#     4  10  24  38  68  89 128 164 221 259 330 378
#     4  10  24  41  63  93 128 164 214 269 318 379
#
# _framework density 20.283436999999999
#
# number of rings (size 3 to 8) (size 9 to 14) (size 15 to 20)
#    1.200    0.800    0.000    2.400    5.600    0.000 
#    0.000    7.000    0.000    0.000    0.000    0.000 
#    0.000    0.000    0.000    0.000    0.000    0.000 
#
# Total GULP energy -743545.387553 kJ/mol
# GULP energy per Si atom -12392.423126 kJ/mol
# Density = 2.023727 g / cm^3
# Si number density = 20.283437 Si / 1000 Ang^3
#
#
#
# Elastic Constant Matrix: (Units=GPa)
#
#
# Indices 1 2 3 4 5 6 
#
# 1 93.9545 40.9721 19.2065 0.0000 0.0000 0.0000
# 2 40.9721 93.9545 19.2065 0.0000 0.0000 0.0000
# 3 19.2065 19.2065 77.7452 0.0000 0.0000 0.0000
# 4 0.0000 0.0000 0.0000 12.5251 0.0000 0.0000
# 5 0.0000 0.0000 0.0000 0.0000 12.5251 0.0000
# 6 0.0000 0.0000 0.0000 0.0000 0.0000 26.4912
#
#
#
# Elastic Compliance Matrix: (Units=1/GPa)
#
#
# Indices 1 2 3 4 5 6 
#
# 1 0.013423 -0.005451 -0.001969 0.000000 0.000000 0.000000
# 2 -0.005451 0.013423 -0.001969 0.000000 0.000000 0.000000
# 3 -0.001969 -0.001969 0.013836 0.000000 0.000000 0.000000
# 4 0.000000 0.000000 0.000000 0.079839 0.000000 0.000000
# 5 0.000000 0.000000 0.000000 0.000000 0.079839 0.000000
# 6 0.000000 0.000000 0.000000 0.000000 0.000000 0.037748
#
#
# Mechanical properties :
#
#
# Convention : Reuss Voigt Hill
#
# Bulk Modulus (GPa) = 45.65790 47.15827 46.40808
# Shear Modulus (GPa) = 18.92578 22.72623 20.82601
#
# Velocity S-wave (km/s) = 3.05793 3.35092 3.20777
# Velocity P-wave (km/s) = 5.91834 6.18641 6.05386
#
# Compressibility (1/GPa) = 0.02190202
#
# Stress axis : x y z
#
# Youngs Moduli (GPa) = 74.49810 74.49810 72.27715
#
# Poissons Ratio (x) = 0.40609 0.14235
# Poissons Ratio (y) = 0.40609 0.14235
# Poissons Ratio (z) = 0.14672 0.14672
#
# Static dielectric constant tensor:
#      x y z
#    x 3.593010 0.000000 0.000000 
#    y 0.000000 3.593010 0.000000 
#    z 0.000000 0.000000 3.527760 
# 
# 
# High freq. dielectric constant tensor:
#      x y z
#    x 1.790220 0.000000 0.000000 
#    y 0.000000 1.790220 0.000000 
#    z 0.000000 0.000000 1.791960 
# 
# From -- ./inp_files/952.got.cif
#   From: 2010.03.12/outbox.cif.g09.slc.cpg/sg185_cif.got.tgz:952.got - 2010.04.01 11:55:19.
