data_PCOD8326466
_publ_section_title
;
Structure prediction by ZEFSAII (Michael W. Deem and Ramdas Pophale) SiO2 
 PCOD8326466
Probable space group: P 63 2 2
;
_chemical_formula_sum "Si O2"
_cell_formula_units_Z 52
_cell_length_a 14.721421
_cell_length_b 14.721421
_cell_length_c 13.342143
_cell_angle_alpha 90.000000
_cell_angle_beta 90.000000
_cell_angle_gamma 120.000000
_cell_volume 2504.123179
_symmetry_space_group_name_H-M "P 63 2 2"
_symmetry_group_IT_number 182
_symmetry_cell_setting 'hexagonal'
loop_
_space_group_symop_operation_xyz
x,y,z
x-y,x,1/2+z
-y,x-y,z
-x,-y,1/2+z
-x+y,-x,z
y,-x+y,1/2+z
x-y,-y,-z
-x,-x+y,-z
y,x,-z
-y,-x,1/2-z
-x+y,y,1/2-z
x,x-y,1/2-z
loop_
_atom_site_type_symbol
_atom_site_label
_atom_site_fract_x
_atom_site_fract_y
_atom_site_fract_z
Si Si1 0.481469 0.601397 0.967105
Si Si2 0.466327 0.932653 0.750000
Si Si3 0.095480 0.190959 0.750000
Si Si4 0.734716 0.569201 0.513409
Si Si5 0.000000 0.000000 0.615966
Si Si6 0.005539 0.683601 0.835970
O O1 0.460261 0.597007 0.846962
O O2 0.538196 0.538196 0.000000
O O3 0.369400 0.545002 0.023172
O O4 0.553659 0.719430 0.004938
O O5 0.588941 0.004952 0.775879
O O6 0.221089 0.257217 0.759836
O O7 0.073094 0.118821 0.652549
O O8 0.725174 0.625302 0.414747
O O9 0.749442 0.643236 0.609094
O O10 0.000000 0.000000 0.500000
#
# Coordination Sequence:
#
# PCOD8326466 Si02
#       6
#    12   6   6  12   4  12
#     4  11  21  41  63  94 134 175 224 270 332 398
#     4  10  20  40  66  93 136 163 216 280 310 398
#     4  10  22  44  68  97 128 179 214 278 352 402
#     4  10  21  39  65  94 137 178 217 281 332 395
#     4  10  26  49  64  95 142 160 233 295 325 425
#     4  10  20  41  63  96 137 168 226 277 327 407
#
# _framework density 20.765750000000001
#
# number of rings (size 3 to 8) (size 9 to 14) (size 15 to 20)
#    0.000    1.846    4.615    1.846    3.231    2.769 
#   16.615    0.000    0.000    0.462    0.000    0.000 
#    0.000    0.000    0.000    0.000    0.000    0.000 
#
# Total GULP energy -644663.742235 kJ/mol
# GULP energy per Si atom -12397.379658 kJ/mol
# Density = 2.071849 g / cm^3
# Si number density = 20.765750 Si / 1000 Ang^3
#
#
#
# Elastic Constant Matrix: (Units=GPa)
#
#
# Indices 1 2 3 4 5 6 
#
# 1 110.3381 31.2991 44.9390 0.0000 0.0000 0.0000
# 2 31.2991 110.3381 44.9390 0.0000 0.0000 0.0000
# 3 44.9390 44.9390 107.2650 0.0000 0.0000 0.0000
# 4 0.0000 0.0000 0.0000 18.0151 0.0000 0.0000
# 5 0.0000 0.0000 0.0000 0.0000 18.0151 0.0000
# 6 0.0000 0.0000 0.0000 0.0000 0.0000 39.5195
#
#
#
# Elastic Compliance Matrix: (Units=1/GPa)
#
#
# Indices 1 2 3 4 5 6 
#
# 1 0.011134 -0.001517 -0.004029 0.000000 0.000000 0.000000
# 2 -0.001517 0.011134 -0.004029 0.000000 0.000000 0.000000
# 3 -0.004029 -0.004029 0.012699 0.000000 0.000000 0.000000
# 4 0.000000 0.000000 0.000000 0.055509 0.000000 0.000000
# 5 0.000000 0.000000 0.000000 0.000000 0.055509 0.000000
# 6 0.000000 0.000000 0.000000 0.000000 0.000000 0.025304
#
#
# Mechanical properties :
#
#
# Convention : Reuss Voigt Hill
#
# Bulk Modulus (GPa) = 63.22550 63.36615 63.29583
# Shear Modulus (GPa) = 25.54760 28.89421 27.22090
#
# Velocity S-wave (km/s) = 3.51133 3.73424 3.62450
# Velocity P-wave (km/s) = 6.85218 7.01240 6.93275
#
# Compressibility (1/GPa) = 0.01581640
#
# Stress axis : x y z
#
# Youngs Moduli (GPa) = 89.81105 89.81105 78.74831
#
# Poissons Ratio (x) = 0.13629 0.31728
# Poissons Ratio (y) = 0.13629 0.31728
# Poissons Ratio (z) = 0.36185 0.36185
#
# Static dielectric constant tensor:
#      x y z
#    x 3.754190 0.000000 0.000000 
#    y 0.000000 3.754190 0.000000 
#    z 0.000000 0.000000 3.841570 
# 
# 
# High freq. dielectric constant tensor:
#      x y z
#    x 1.808520 0.000000 0.000000 
#    y 0.000000 1.808520 0.000000 
#    z 0.000000 0.000000 1.804860 
# 
# From -- ./inp_files/3411.got.cif
#   From: 2010.03.12/outbox.cif.g09.slc.cpg/sg182_2_cif.got.tgz:3411.got - 2010.04.01 11:49:36.
