data_PCOD8326938
_publ_section_title
;
Structure prediction by ZEFSAII (Michael W. Deem and Ramdas Pophale) SiO2 
 PCOD8326938
Probable space group: P -6 M 2
;
_chemical_formula_sum "Si O2"
_cell_formula_units_Z 96
_cell_length_a 22.154120
_cell_length_b 22.154120
_cell_length_c 13.591316
_cell_angle_alpha 90.000000
_cell_angle_beta 90.000000
_cell_angle_gamma 120.000000
_cell_volume 5776.983794
_symmetry_space_group_name_H-M "P -6 M 2"
_symmetry_group_IT_number 187
_symmetry_cell_setting 'hexagonal'
loop_
_space_group_symop_operation_xyz
x,y,z
-x+y,-x,-z
-y,x-y,z
x,y,-z
-x+y,-x,z
-y,x-y,-z
-y,-x,-z
-x+y,y,-z
x,x-y,-z
-x+y,y,z
x,x-y,z
-y,-x,z
loop_
_atom_site_type_symbol
_atom_site_label
_atom_site_fract_x
_atom_site_fract_y
_atom_site_fract_z
Si Si1 0.060329 0.458762 0.892665
Si Si2 0.860009 0.279062 0.112760
Si Si3 0.937540 0.397399 0.248738
Si Si4 0.473399 0.805286 0.217604
Si Si5 0.676724 0.662523 0.615254
Si Si6 0.280210 0.855015 0.611253
Si Si7 0.000467 0.860610 0.885650
Si Si8 0.278512 0.069547 0.775361
O O1 0.056786 0.528393 0.897325
O O2 0.136822 0.476164 0.860082
O O3 0.003485 0.408338 0.815311
O O4 0.044533 0.422890 0.000000
O O5 0.779901 0.220100 0.124195
O O6 0.870896 0.342310 0.184783
O O7 0.910970 0.250287 0.144945
O O8 0.876776 0.304980 0.000000
O O9 0.933398 0.466699 0.270211
O O10 0.946008 0.365043 0.350846
O O11 0.396925 0.793849 0.218760
O O12 0.468956 0.734478 0.183397
O O13 0.505330 0.829880 0.325607
O O14 0.693200 0.663877 0.500000
O O15 0.633304 0.700883 0.639247
O O16 0.748446 0.705679 0.674277
O O17 0.302289 0.852329 0.500000
O O18 0.197323 0.802678 0.628035
O O19 0.072624 0.927377 0.851869
O O20 0.938563 0.877126 0.866251
O O21 0.989075 0.793970 0.822917
O O22 0.002762 0.843707 0.000000
O O23 0.273378 0.136689 0.746632
#
# Coordination Sequence:
#
# PCOD8326938 Si02
#       8
#    12  12  12  12  12  12  12  12
#     4   9  17  29  45  66  91 119 152 189 231 280
#     4   9  17  30  49  72  98 129 164 197 231 278
#     4  10  19  32  50  74  99 125 156 195 242 290
#     4  10  19  31  46  65  89 119 156 198 243 289
#     4  10  20  33  50  72  95 123 160 204 249 292
#     4   9  18  32  48  65  87 118 157 202 250 294
#     4   9  16  27  46  73 104 136 170 207 246 288
#     4   9  18  31  47  70 100 133 164 198 240 286
#
# _framework density 16.617667999999998
#
# number of rings (size 3 to 8) (size 9 to 14) (size 15 to 20)
#    0.000    2.625    1.250    1.000    0.000    4.250 
#    0.000    1.250    0.000    1.750    0.000    0.000 
#    0.000    1.000    0.000    0.375    0.000    0.500 
#
# Total GULP energy -1190120.334392 kJ/mol
# GULP energy per Si atom -12397.086817 kJ/mol
# Density = 1.657985 g / cm^3
# Si number density = 16.617668 Si / 1000 Ang^3
#
#
#
# Elastic Constant Matrix: (Units=GPa)
#
#
# Indices 1 2 3 4 5 6 
#
# 1 74.6642 29.3007 31.9136 0.0000 0.0004 0.0000
# 2 29.3007 74.6642 31.9136 0.0000 -0.0004 0.0000
# 3 31.9136 31.9136 82.1368 0.0000 0.0000 0.0000
# 4 0.0000 0.0000 0.0000 19.8785 0.0000 -0.0004
# 5 0.0004 -0.0004 0.0000 0.0000 19.8785 0.0000
# 6 0.0000 0.0000 0.0000 -0.0004 0.0000 22.6818
#
#
#
# Elastic Compliance Matrix: (Units=1/GPa)
#
#
# Indices 1 2 3 4 5 6 
#
# 1 0.017338 -0.004706 -0.004908 0.000000 0.000000 0.000000
# 2 -0.004706 0.017338 -0.004908 0.000000 0.000000 0.000000
# 3 -0.004908 -0.004908 0.015989 0.000000 0.000000 0.000000
# 4 0.000000 0.000000 0.000000 0.050306 0.000000 0.000001
# 5 0.000000 0.000000 0.000000 0.000000 0.050306 0.000000
# 6 0.000000 0.000000 0.000000 0.000001 0.000000 0.044088
#
#
# Mechanical properties :
#
#
# Convention : Reuss Voigt Hill
#
# Bulk Modulus (GPa) = 46.25265 46.41344 46.33305
# Shear Modulus (GPa) = 21.58751 21.71023 21.64887
#
# Velocity S-wave (km/s) = 3.60817 3.61841 3.61330
# Velocity P-wave (km/s) = 6.72699 6.74151 6.73426
#
# Compressibility (1/GPa) = 0.02162038
#
# Stress axis : x y z
#
# Youngs Moduli (GPa) = 57.67691 57.67691 62.54407
#
# Poissons Ratio (x) = 0.27144 0.30697
# Poissons Ratio (y) = 0.27144 0.30697
# Poissons Ratio (z) = 0.28308 0.28308
#
# Static dielectric constant tensor:
#      x y z
#    x 3.111340 0.000000 0.000000 
#    y 0.000000 3.111340 0.000000 
#    z 0.000000 0.000000 3.137470 
# 
# 
# High freq. dielectric constant tensor:
#      x y z
#    x 1.631540 0.000000 0.000000 
#    y 0.000000 1.631540 0.000000 
#    z 0.000000 0.000000 1.636380 
# 
# From -- ./inp_files/2116.got.cif
#   From: 2010.03.12/outbox.cif.g09.slc.cpg/sg187_2_cif.got.tgz:2116.got - 2010.04.01 11:58:23.
