data_PCOD8326432
_publ_section_title
;
Structure prediction by ZEFSAII (Michael W. Deem and Ramdas Pophale) SiO2 
 PCOD8326432
Probable space group: P 64 2 2
;
_chemical_formula_sum "Si O2"
_cell_formula_units_Z 60
_cell_length_a 14.483187
_cell_length_b 14.483187
_cell_length_c 14.670928
_cell_angle_alpha 90.000000
_cell_angle_beta 90.000000
_cell_angle_gamma 120.000000
_cell_volume 2665.118314
_symmetry_space_group_name_H-M "P 64 2 2"
_symmetry_group_IT_number 181
_symmetry_cell_setting 'hexagonal'
loop_
_space_group_symop_operation_xyz
x,y,z
x-y,x,2/3+z
-y,x-y,1/3+z
-x,-y,z
-x+y,-x,2/3+z
y,-x+y,1/3+z
x-y,-y,-z
-x,-x+y,2/3-z
y,x,1/3-z
-y,-x,1/3-z
-x+y,y,-z
x,x-y,2/3-z
loop_
_atom_site_type_symbol
_atom_site_label
_atom_site_fract_x
_atom_site_fract_y
_atom_site_fract_z
Si Si1 0.107835 0.593080 0.996715
Si Si2 0.500000 0.000000 0.000000
Si Si3 0.313534 0.415414 0.513445
Si Si4 0.000000 0.000000 0.166667
Si Si5 0.783843 0.967041 0.098051
Si Si6 0.877324 0.615510 0.819195
Si Si7 0.244716 0.755285 0.666667
O O1 0.065118 0.620220 0.087554
O O2 0.000000 0.500000 0.950239
O O3 0.165863 0.686271 0.921454
O O4 0.194924 0.562083 0.026028
O O5 0.604427 0.072353 0.065748
O O6 0.228641 0.457282 0.500000
O O7 0.247678 0.286031 0.506176
O O8 0.099632 0.019494 0.105908
O O9 0.705799 0.843729 0.108220
O O10 0.766606 0.000000 0.000000
O O11 0.815359 0.582652 0.913739
O O12 0.000000 0.657283 0.833334
#
# Coordination Sequence:
#
# PCOD8326432 Si02
#       7
#    12   3  12   3  12  12   6
#     4  12  26  49  74 112 156 204 265 330 396 469
#     4  12  28  50  80 118 158 220 274 320 404 480
#     4  12  27  49  79 109 163 209 261 332 396 473
#     4  12  26  44  80 110 146 194 264 326 390 486
#     4  12  26  49  72 114 151 201 258 322 399 478
#     4  12  27  47  79 109 154 206 258 332 405 471
#     4  12  28  47  80 113 151 204 275 330 398 480
#
# _framework density 22.513071
#
# number of rings (size 3 to 8) (size 9 to 14) (size 15 to 20)
#    0.000    0.000    6.000    3.300    0.000    2.400 
#    0.000    0.000    0.000    0.000    0.000    0.000 
#    0.000    0.000    0.000    0.000    0.000    0.000 
#
# Total GULP energy -743596.577437 kJ/mol
# GULP energy per Si atom -12393.276291 kJ/mol
# Density = 2.246183 g / cm^3
# Si number density = 22.513071 Si / 1000 Ang^3
#
#
#
# Elastic Constant Matrix: (Units=GPa)
#
#
# Indices 1 2 3 4 5 6 
#
# 1 118.3101 91.3227 55.2306 0.0000 0.0000 0.0000
# 2 91.3227 118.3101 55.2306 0.0000 0.0000 0.0000
# 3 55.2306 55.2306 149.6255 0.0000 0.0000 0.0000
# 4 0.0000 0.0000 0.0000 40.3933 0.0000 0.0000
# 5 0.0000 0.0000 0.0000 0.0000 40.3933 0.0000
# 6 0.0000 0.0000 0.0000 0.0000 0.0000 13.4937
#
#
#
# Elastic Compliance Matrix: (Units=1/GPa)
#
#
# Indices 1 2 3 4 5 6 
#
# 1 0.021488 -0.015566 -0.002186 0.000000 0.000000 0.000000
# 2 -0.015566 0.021488 -0.002186 0.000000 0.000000 0.000000
# 3 -0.002186 -0.002186 0.008297 0.000000 0.000000 0.000000
# 4 0.000000 0.000000 0.000000 0.024757 0.000000 0.000000
# 5 0.000000 0.000000 0.000000 0.000000 0.024757 0.000000
# 6 0.000000 0.000000 0.000000 0.000000 0.000000 0.074109
#
#
# Mechanical properties :
#
#
# Convention : Reuss Voigt Hill
#
# Bulk Modulus (GPa) = 87.73947 87.75708 87.74828
# Shear Modulus (GPa) = 22.87591 31.15352 27.01471
#
# Velocity S-wave (km/s) = 3.19112 3.72398 3.46780
# Velocity P-wave (km/s) = 7.25499 7.58655 7.42263
#
# Compressibility (1/GPa) = 0.01139738
#
# Stress axis : x y z
#
# Youngs Moduli (GPa) = 46.53719 46.53719 120.52301
#
# Poissons Ratio (x) = 0.72440 0.26346
# Poissons Ratio (y) = 0.72440 0.26346
# Poissons Ratio (z) = 0.10173 0.10173
#
# Static dielectric constant tensor:
#      x y z
#    x 4.027580 0.000000 0.000000 
#    y 0.000000 4.027580 0.000000 
#    z 0.000000 0.000000 4.108880 
# 
# 
# High freq. dielectric constant tensor:
#      x y z
#    x 1.899930 0.000000 0.000000 
#    y 0.000000 1.899930 0.000000 
#    z 0.000000 0.000000 1.895390 
# 
# From -- ./inp_files/6264.got.cif
#   From: 2010.03.12/outbox.cif.g09.slc.cpg/sg181_4_cif.got.tgz:6264.got - 2010.04.01 11:42:41.
