data_PCOD8326625
_publ_section_title
;
Structure prediction by ZEFSAII (Michael W. Deem and Ramdas Pophale) SiO2 
 PCOD8326625
Probable space group: P 63 C M
;
_chemical_formula_sum "Si O2"
_cell_formula_units_Z 60
_cell_length_a 30.385629
_cell_length_b 30.385629
_cell_length_c 5.185967
_cell_angle_alpha 90.000000
_cell_angle_beta 90.000000
_cell_angle_gamma 120.000000
_cell_volume 4146.644867
_symmetry_space_group_name_H-M "P 63 C M"
_symmetry_group_IT_number 185
_symmetry_cell_setting 'hexagonal'
loop_
_space_group_symop_operation_xyz
x,y,z
x-y,x,1/2+z
-y,x-y,z
-x,-y,1/2+z
-x+y,-x,z
y,-x+y,1/2+z
-x+y,y,1/2+z
x,x-y,1/2+z
-y,-x,1/2+z
y,x,z
x-y,-y,z
-x,-x+y,z
loop_
_atom_site_type_symbol
_atom_site_label
_atom_site_fract_x
_atom_site_fract_y
_atom_site_fract_z
Si Si1 0.826883 0.708992 0.816410
Si Si2 0.060359 0.707047 0.306112
Si Si3 0.940681 0.827143 0.296861
Si Si4 0.495134 0.555768 0.291447
Si Si5 0.345670 0.405833 0.804174
O O1 0.851811 0.694022 0.584403
O O2 0.766990 0.679560 0.786056
O O3 0.844381 0.768165 0.809940
O O4 0.079803 0.691903 0.560849
O O5 0.000000 0.684456 0.308173
O O6 0.078100 0.686712 0.064833
O O7 0.913039 0.841269 0.518844
O O8 0.000000 0.859275 0.346601
O O9 0.458759 0.540059 0.539496
O O10 0.526375 0.526375 0.292852
O O11 0.533571 0.616345 0.294653
O O12 0.378799 0.378799 0.793776
#
# Coordination Sequence:
#
# PCOD8326625 Si02
#       5
#    12  12  12  12  12
#     4  10  20  32  46  64  82 103 131 163 204 248
#     4  10  18  29  43  58  80 103 128 165 206 247
#     4  10  20  34  52  70  87 105 127 155 192 245
#     4   9  15  23  35  51  74 102 132 165 196 224
#     4   9  17  26  38  57  77 103 134 162 200 238
#
# _framework density 14.469528
#
# number of rings (size 3 to 8) (size 9 to 14) (size 15 to 20)
#    0.000    2.400    0.000    3.600    0.000    4.800 
#    0.000    6.000    0.000    4.000    0.000    0.000 
#    0.000    0.000    0.000    0.000    0.000    0.000 
#
# Total GULP energy -744048.293669 kJ/mol
# GULP energy per Si atom -12400.804894 kJ/mol
# Density = 1.443660 g / cm^3
# Si number density = 14.469528 Si / 1000 Ang^3
#
#
#
# Elastic Constant Matrix: (Units=GPa)
#
#
# Indices 1 2 3 4 5 6 
#
# 1 62.6366 28.7627 17.7200 0.0000 0.0000 0.0000
# 2 28.7627 62.6366 17.7200 0.0000 0.0000 0.0000
# 3 17.7200 17.7200 80.1940 0.0000 0.0000 0.0000
# 4 0.0000 0.0000 0.0000 14.8451 0.0000 0.0000
# 5 0.0000 0.0000 0.0000 0.0000 14.8451 0.0000
# 6 0.0000 0.0000 0.0000 0.0000 0.0000 16.9369
#
#
#
# Elastic Compliance Matrix: (Units=1/GPa)
#
#
# Indices 1 2 3 4 5 6 
#
# 1 0.020744 -0.008778 -0.002644 0.000000 0.000000 0.000000
# 2 -0.008778 0.020744 -0.002644 0.000000 0.000000 0.000000
# 3 -0.002644 -0.002644 0.013638 0.000000 0.000000 0.000000
# 4 0.000000 0.000000 0.000000 0.067362 0.000000 0.000000
# 5 0.000000 0.000000 0.000000 0.000000 0.067362 0.000000
# 6 0.000000 0.000000 0.000000 0.000000 0.000000 0.059043
#
#
# Mechanical properties :
#
#
# Convention : Reuss Voigt Hill
#
# Bulk Modulus (GPa) = 37.04480 37.09693 37.07087
# Shear Modulus (GPa) = 17.48114 18.74306 18.11210
#
# Velocity S-wave (km/s) = 3.47959 3.60300 3.54183
# Velocity P-wave (km/s) = 6.46537 6.55762 6.51166
#
# Compressibility (1/GPa) = 0.02699434
#
# Stress axis : x y z
#
# Youngs Moduli (GPa) = 48.20727 48.20727 73.32310
#
# Poissons Ratio (x) = 0.42314 0.19387
# Poissons Ratio (y) = 0.42314 0.19387
# Poissons Ratio (z) = 0.12747 0.12747
#
# Static dielectric constant tensor:
#      x y z
#    x 2.617390 0.000000 0.000000 
#    y 0.000000 2.617390 0.000000 
#    z 0.000000 0.000000 3.203090 
# 
# 
# High freq. dielectric constant tensor:
#      x y z
#    x 1.522260 0.000000 0.000000 
#    y 0.000000 1.522260 0.000000 
#    z 0.000000 0.000000 1.579530 
# 
# From -- ./inp_files/128.got.cif
#   From: 2010.03.12/outbox.cif.g09.slc.cpg/sg185_cif.got.tgz:128.got - 2010.04.01 11:55:19.
