data_PCOD8326201
_publ_section_title
;
Structure prediction by ZEFSAII (Michael W. Deem and Ramdas Pophale) SiO2 
 PCOD8326201
Probable space group: P 62 2 2
;
_chemical_formula_sum "Si O2"
_cell_formula_units_Z 54
_cell_length_a 13.967340
_cell_length_b 13.967340
_cell_length_c 16.490543
_cell_angle_alpha 90.000000
_cell_angle_beta 90.000000
_cell_angle_gamma 120.000000
_cell_volume 2786.076250
_symmetry_space_group_name_H-M "P 62 2 2"
_symmetry_group_IT_number 180
_symmetry_cell_setting 'hexagonal'
loop_
_space_group_symop_operation_xyz
x,y,z
x-y,x,1/3+z
-y,x-y,2/3+z
-x,-y,z
-x+y,-x,1/3+z
y,-x+y,2/3+z
x-y,-y,-z
-x,-x+y,1/3-z
y,x,2/3-z
-y,-x,2/3-z
-x+y,y,-z
x,x-y,1/3-z
loop_
_atom_site_type_symbol
_atom_site_label
_atom_site_fract_x
_atom_site_fract_y
_atom_site_fract_z
Si Si1 0.908471 0.091530 0.333334
Si Si2 0.399790 0.662006 0.577509
Si Si3 0.853602 0.735372 0.303064
Si Si4 0.239160 0.354221 0.132124
Si Si5 0.121952 0.713266 0.897317
O O1 0.903591 0.160232 0.407518
O O2 0.034854 0.144432 0.302975
O O3 0.341546 0.683092 0.500000
O O4 0.362137 0.681068 0.666667
O O5 0.529869 0.744155 0.566113
O O6 0.372649 0.536543 0.578117
O O7 0.754283 0.754283 0.333334
O O8 0.822222 0.675974 0.217229
O O9 0.871587 0.648905 0.354431
O O10 0.356543 0.358792 0.136336
O O11 0.193930 0.806071 0.833334
#
# Coordination Sequence:
#
# PCOD8326201 Si02
#       5
#     6  12  12  12  12
#     4  10  23  36  60  88 128 162 201 248 308 378
#     4  11  23  41  64  89 122 165 216 267 320 370
#     4  11  21  37  62  92 124 160 204 250 313 383
#     4  11  21  40  60  87 125 163 205 252 313 376
#     4  10  21  38  60  89 121 159 199 261 310 370
#
# _framework density 19.382097999999999
#
# number of rings (size 3 to 8) (size 9 to 14) (size 15 to 20)
#    0.000    1.333    3.333    3.000    0.000    0.000 
#    0.000    2.222    0.000    0.000    0.000    0.000 
#    0.000    0.000    0.000    0.000    0.000    0.000 
#
# Total GULP energy -669516.193728 kJ/mol
# GULP energy per Si atom -12398.448032 kJ/mol
# Density = 1.933798 g / cm^3
# Si number density = 19.382098 Si / 1000 Ang^3
#
#
#
# Elastic Constant Matrix: (Units=GPa)
#
#
# Indices 1 2 3 4 5 6 
#
# 1 73.7899 16.0322 35.1436 0.0000 0.0000 0.0000
# 2 16.0322 73.7899 35.1436 0.0000 0.0000 0.0000
# 3 35.1436 35.1436 130.7746 0.0000 0.0000 0.0000
# 4 0.0000 0.0000 0.0000 18.6760 0.0000 0.0000
# 5 0.0000 0.0000 0.0000 0.0000 18.6760 0.0000
# 6 0.0000 0.0000 0.0000 0.0000 0.0000 28.8788
#
#
#
# Elastic Compliance Matrix: (Units=1/GPa)
#
#
# Indices 1 2 3 4 5 6 
#
# 1 0.015706 -0.001608 -0.003789 0.000000 0.000000 0.000000
# 2 -0.001608 0.015706 -0.003789 0.000000 0.000000 0.000000
# 3 -0.003789 -0.003789 0.009683 0.000000 0.000000 0.000000
# 4 0.000000 0.000000 0.000000 0.053545 0.000000 0.000000
# 5 0.000000 0.000000 0.000000 0.000000 0.053545 0.000000
# 6 0.000000 0.000000 0.000000 0.000000 0.000000 0.034627
#
#
# Mechanical properties :
#
#
# Convention : Reuss Voigt Hill
#
# Bulk Modulus (GPa) = 44.00589 50.11035 47.05812
# Shear Modulus (GPa) = 23.95143 26.04852 24.99998
#
# Velocity S-wave (km/s) = 3.51914 3.66997 3.59534
# Velocity P-wave (km/s) = 6.26627 6.62331 6.44726
#
# Compressibility (1/GPa) = 0.02272423
#
# Stress axis : x y z
#
# Youngs Moduli (GPa) = 63.67114 63.67114 103.27423
#
# Poissons Ratio (x) = 0.10238 0.39126
# Poissons Ratio (y) = 0.10238 0.39126
# Poissons Ratio (z) = 0.24122 0.24122
#
# Static dielectric constant tensor:
#      x y z
#    x 3.630730 0.000000 0.000000 
#    y 0.000000 3.630730 0.000000 
#    z 0.000000 0.000000 3.206450 
# 
# 
# High freq. dielectric constant tensor:
#      x y z
#    x 1.756260 0.000000 0.000000 
#    y 0.000000 1.756260 0.000000 
#    z 0.000000 0.000000 1.765570 
# 
# From -- ./inp_files/5941.got.cif
#   From: 2010.03.12/outbox.cif.g09.slc.cpg/sg180_3_cif.got.tgz:5941.got - 2010.04.01 11:35:50.
