data_PCOD8326193
_publ_section_title
;
Structure prediction by ZEFSAII (Michael W. Deem and Ramdas Pophale) SiO2 
 PCOD8326193
Probable space group: P 62 2 2
;
_chemical_formula_sum "Si O2"
_cell_formula_units_Z 51
_cell_length_a 12.000098
_cell_length_b 12.000098
_cell_length_c 20.350844
_cell_angle_alpha 90.000000
_cell_angle_beta 90.000000
_cell_angle_gamma 120.000000
_cell_volume 2537.947549
_symmetry_space_group_name_H-M "P 62 2 2"
_symmetry_group_IT_number 180
_symmetry_cell_setting 'hexagonal'
loop_
_space_group_symop_operation_xyz
x,y,z
x-y,x,1/3+z
-y,x-y,2/3+z
-x,-y,z
-x+y,-x,1/3+z
y,-x+y,2/3+z
x-y,-y,-z
-x,-x+y,1/3-z
y,x,2/3-z
-y,-x,2/3-z
-x+y,y,-z
x,x-y,1/3-z
loop_
_atom_site_type_symbol
_atom_site_label
_atom_site_fract_x
_atom_site_fract_y
_atom_site_fract_z
Si Si1 0.966892 0.108349 0.590954
Si Si2 0.837271 0.162730 0.833334
Si Si3 0.506679 0.633125 0.063329
Si Si4 0.027556 0.682945 0.061610
Si Si5 0.500000 0.500000 0.833334
Si Si6 0.749218 0.250783 0.333334
O O1 0.000000 0.144630 0.666667
O O2 0.044084 0.236614 0.547629
O O3 0.815560 0.045111 0.577945
O O4 0.000000 0.000000 0.568498
O O5 0.711576 0.135747 0.794207
O O6 0.500000 0.500000 0.071272
O O7 0.359357 0.597305 0.051757
O O8 0.592645 0.711647 0.000839
O O9 0.878650 0.586948 0.041714
O O10 0.077270 0.621789 0.117862
#
# Coordination Sequence:
#
# PCOD8326193 Si02
#       6
#    12   6  12  12   3   6
#     4  11  24  42  70 103 140 177 217 288 362 412
#     4  12  25  45  66 104 142 180 226 272 366 422
#     4  10  23  45  65  94 131 181 224 282 330 403
#     4  11  23  42  67  99 136 170 230 286 333 412
#     4  12  24  38  66 100 130 176 234 278 342 388
#     4  10  20  44  69  91 134 176 230 278 338 390
#
# _framework density 20.094977
#
# number of rings (size 3 to 8) (size 9 to 14) (size 15 to 20)
#    0.000    1.176    5.882    1.765    6.588    0.941 
#    4.235    0.000    0.000    0.000    0.000    0.000 
#    0.000    0.000    0.000    0.000    0.000    0.000 
#
# Total GULP energy -632072.098863 kJ/mol
# GULP energy per Si atom -12393.570566 kJ/mol
# Density = 2.004924 g / cm^3
# Si number density = 20.094977 Si / 1000 Ang^3
#
#
#
# Elastic Constant Matrix: (Units=GPa)
#
#
# Indices 1 2 3 4 5 6 
#
# 1 113.5639 46.6151 35.1894 0.0000 0.0000 0.0000
# 2 46.6151 113.5639 35.1894 0.0000 0.0000 0.0000
# 3 35.1894 35.1894 100.2546 0.0000 0.0000 0.0000
# 4 0.0000 0.0000 0.0000 44.5441 0.0000 0.0000
# 5 0.0000 0.0000 0.0000 0.0000 44.5441 0.0000
# 6 0.0000 0.0000 0.0000 0.0000 0.0000 33.4744
#
#
#
# Elastic Compliance Matrix: (Units=1/GPa)
#
#
# Indices 1 2 3 4 5 6 
#
# 1 0.011159 -0.003778 -0.002591 0.000000 0.000000 0.000000
# 2 -0.003778 0.011159 -0.002591 0.000000 0.000000 0.000000
# 3 -0.002591 -0.002591 0.011793 0.000000 0.000000 0.000000
# 4 0.000000 0.000000 0.000000 0.022450 0.000000 0.000000
# 5 0.000000 0.000000 0.000000 0.000000 0.022450 0.000000
# 6 0.000000 0.000000 0.000000 0.000000 0.000000 0.029874
#
#
# Mechanical properties :
#
#
# Convention : Reuss Voigt Hill
#
# Bulk Modulus (GPa) = 61.75630 62.37449 62.06539
# Shear Modulus (GPa) = 37.82122 38.53841 38.17981
#
# Velocity S-wave (km/s) = 4.34305 4.38403 4.36359
# Velocity P-wave (km/s) = 7.47986 7.53217 7.50606
#
# Compressibility (1/GPa) = 0.01619268
#
# Stress axis : x y z
#
# Youngs Moduli (GPa) = 89.61312 89.61312 84.79318
#
# Poissons Ratio (x) = 0.33853 0.21969
# Poissons Ratio (y) = 0.33853 0.21969
# Poissons Ratio (z) = 0.23218 0.23218
#
# Static dielectric constant tensor:
#      x y z
#    x 3.356010 0.000000 0.000000 
#    y 0.000000 3.356010 0.000000 
#    z 0.000000 0.000000 4.689850 
# 
# 
# High freq. dielectric constant tensor:
#      x y z
#    x 1.779160 0.000000 0.000000 
#    y 0.000000 1.779160 0.000000 
#    z 0.000000 0.000000 1.796580 
# 
# From -- ./inp_files/8798.got.cif
#   From: 2010.03.12/outbox.cif.g09.slc.cpg/sg180_5_cif.got.tgz:8798.got - 2010.04.01 11:35:50.
