data_PCOD8326070
_publ_section_title
;
Structure prediction by ZEFSAII (Michael W. Deem and Ramdas Pophale) SiO2 
 PCOD8326070
Probable space group: P 65 2 2
;
_chemical_formula_sum "Si O2"
_cell_formula_units_Z 96
_cell_length_a 14.753838
_cell_length_b 14.753838
_cell_length_c 26.385346
_cell_angle_alpha 90.000000
_cell_angle_beta 90.000000
_cell_angle_gamma 120.000000
_cell_volume 4973.973262
_symmetry_space_group_name_H-M "P 65 2 2"
_symmetry_group_IT_number 179
_symmetry_cell_setting 'hexagonal'
loop_
_space_group_symop_operation_xyz
x,y,z
x-y,x,5/6+z
-y,x-y,2/3+z
-x,-y,1/2+z
-x+y,-x,1/3+z
y,-x+y,1/6+z
x-y,-y,-z
-x,-x+y,1/3-z
y,x,2/3-z
-y,-x,1/6-z
-x+y,y,1/2-z
x,x-y,5/6-z
loop_
_atom_site_type_symbol
_atom_site_label
_atom_site_fract_x
_atom_site_fract_y
_atom_site_fract_z
Si Si1 0.423453 0.407908 0.555820
Si Si2 0.570912 0.536693 0.887385
Si Si3 0.724108 0.667827 0.514405
Si Si4 0.299233 0.817539 0.033508
Si Si5 0.138614 0.712788 0.806354
Si Si6 0.280164 0.648616 0.862716
Si Si7 0.879617 0.430965 0.804399
Si Si8 0.886406 0.752416 0.190767
O O1 0.478029 0.521972 0.583334
O O2 0.356153 0.318129 0.595251
O O3 0.348511 0.392501 0.510204
O O4 0.518147 0.403680 0.526631
O O5 0.594972 0.594972 0.833334
O O6 0.501449 0.413205 0.878498
O O7 0.682116 0.571902 0.914117
O O8 0.508500 0.571087 0.924923
O O9 0.828464 0.660447 0.517141
O O10 0.644498 0.576099 0.476075
O O11 0.754603 0.785463 0.499053
O O12 0.249405 0.750596 0.083334
O O13 0.230198 0.866891 0.013415
O O14 0.305626 0.744501 0.990304
O O15 0.222139 0.676761 0.819610
O O16 0.218502 0.609251 0.916667
O O17 0.380430 0.759117 0.877219
O O18 0.888984 0.777968 0.250000
O O19 0.000000 0.837118 0.166667
#
# Coordination Sequence:
#
# PCOD8326070 Si02
#       8
#    12  12  12  12  12  12  12  12
#     4   9  19  34  59  82 116 156 196 246 286 355
#     4  11  21  38  58  83 126 168 201 252 308 369
#     4  10  22  38  62  83 120 157 204 257 309 365
#     4  11  22  36  59  88 133 170 204 247 314 383
#     4  10  22  36  58  87 115 161 209 244 307 368
#     4  11  22  32  55  89 125 164 208 249 290 370
#     4   9  20  37  54  88 122 163 209 241 295 361
#     4  11  26  42  63  93 125 161 207 263 327 391
#
# _framework density 19.300466
#
# number of rings (size 3 to 8) (size 9 to 14) (size 15 to 20)
#    0.000    1.750    1.250    3.000    8.750    1.500 
#    0.000    0.000    0.000    0.750    0.000    0.000 
#    0.000    0.000    0.000    0.000    0.000    0.000 
#
# Total GULP energy -1189369.215375 kJ/mol
# GULP energy per Si atom -12389.262660 kJ/mol
# Density = 1.925654 g / cm^3
# Si number density = 19.300466 Si / 1000 Ang^3
#
#
#
# Elastic Constant Matrix: (Units=GPa)
#
#
# Indices 1 2 3 4 5 6 
#
# 1 75.0253 29.1403 36.8993 0.0000 0.0000 0.0000
# 2 29.1403 75.0253 36.8993 0.0000 0.0000 0.0000
# 3 36.8993 36.8993 135.0226 0.0000 0.0000 0.0000
# 4 0.0000 0.0000 0.0000 21.3571 0.0000 0.0000
# 5 0.0000 0.0000 0.0000 0.0000 21.3571 0.0000
# 6 0.0000 0.0000 0.0000 0.0000 0.0000 22.9425
#
#
#
# Elastic Compliance Matrix: (Units=1/GPa)
#
#
# Indices 1 2 3 4 5 6 
#
# 1 0.016849 -0.004944 -0.003253 0.000000 0.000000 0.000000
# 2 -0.004944 0.016849 -0.003253 0.000000 0.000000 0.000000
# 3 -0.003253 -0.003253 0.009184 0.000000 0.000000 0.000000
# 4 0.000000 0.000000 0.000000 0.046823 0.000000 0.000000
# 5 0.000000 0.000000 0.000000 0.000000 0.046823 0.000000
# 6 0.000000 0.000000 0.000000 0.000000 0.000000 0.043587
#
#
# Mechanical properties :
#
#
# Convention : Reuss Voigt Hill
#
# Bulk Modulus (GPa) = 50.04815 54.55010 52.29912
# Shear Modulus (GPa) = 23.84601 25.27361 24.55981
#
# Velocity S-wave (km/s) = 3.51880 3.62260 3.57108
# Velocity P-wave (km/s) = 6.51894 6.76924 6.64527
#
# Compressibility (1/GPa) = 0.01998076
#
# Stress axis : x y z
#
# Youngs Moduli (GPa) = 59.34941 59.34941 108.88038
#
# Poissons Ratio (x) = 0.29344 0.35424
# Poissons Ratio (y) = 0.29344 0.35424
# Poissons Ratio (z) = 0.19309 0.19309
#
# Static dielectric constant tensor:
#      x y z
#    x 3.485250 0.000000 0.000000 
#    y 0.000000 3.485250 0.000000 
#    z 0.000000 0.000000 3.902280 
# 
# 
# High freq. dielectric constant tensor:
#      x y z
#    x 1.732720 0.000000 0.000000 
#    y 0.000000 1.732720 0.000000 
#    z 0.000000 0.000000 1.769420 
# 
# From -- ./inp_files/9057.got.cif
#   From: 2010.03.12/outbox.cif.g09.slc.cpg/sg179_5_cif.got.tgz:9057.got - 2010.04.02 07:08:42.
