data_PCOD8326995
_publ_section_title
;
Structure prediction by ZEFSAII (Michael W. Deem and Ramdas Pophale) SiO2 
 PCOD8326995
Probable space group: P -6 M 2
;
_chemical_formula_sum "Si O2"
_cell_formula_units_Z 44
_cell_length_a 15.448334
_cell_length_b 15.448334
_cell_length_c 12.266813
_cell_angle_alpha 90.000000
_cell_angle_beta 90.000000
_cell_angle_gamma 120.000000
_cell_volume 2535.278523
_symmetry_space_group_name_H-M "P -6 M 2"
_symmetry_group_IT_number 187
_symmetry_cell_setting 'hexagonal'
loop_
_space_group_symop_operation_xyz
x,y,z
-x+y,-x,-z
-y,x-y,z
x,y,-z
-x+y,-x,z
-y,x-y,-z
-y,-x,-z
-x+y,y,-z
x,x-y,-z
-x+y,y,z
x,x-y,z
-y,-x,z
loop_
_atom_site_type_symbol
_atom_site_label
_atom_site_fract_x
_atom_site_fract_y
_atom_site_fract_z
Si Si1 0.981030 0.390413 0.302200
Si Si2 0.538111 0.873091 0.500000
Si Si3 0.707021 0.951055 0.875043
Si Si4 0.193845 0.096923 0.763956
Si Si5 0.000000 0.000000 0.370931
Si Si6 0.803838 0.196163 0.627520
O O1 0.986689 0.493345 0.274594
O O2 0.865989 0.312978 0.337983
O O3 0.059653 0.403665 0.396030
O O4 0.013950 0.357542 0.193811
O O5 0.422394 0.844787 0.500000
O O6 0.544223 0.772112 0.500000
O O7 0.666207 0.833104 0.858629
O O8 0.822828 0.010370 0.840756
O O9 0.697772 0.975441 0.000000
O O10 0.290833 0.145417 0.691763
O O11 0.111027 0.055514 0.672437
O O12 0.000000 0.000000 0.500000
O O13 0.813206 0.186795 0.500000
#
# Coordination Sequence:
#
# PCOD8326995 Si02
#       6
#    12   6  12   6   2   6
#     4  10  21  36  55  79 108 141 184 231 285 335
#     4  10  19  33  54  80 110 140 174 217 273 344
#     4  10  20  35  55  79 108 144 186 226 272 327
#     4  10  20  34  50  80 112 147 185 220 260 322
#     4  12  21  33  49  80 127 159 189 211 266 325
#     4  10  19  35  53  76 109 141 181 227 270 325
#
# _framework density 17.355096
#
# number of rings (size 3 to 8) (size 9 to 14) (size 15 to 20)
#    0.000    1.909    2.727    1.773    0.000    0.545 
#    0.818    0.000    0.000    0.545    0.000    0.000 
#    0.000    0.000    0.000    0.000    0.000    0.000 
#
# Total GULP energy -545481.893576 kJ/mol
# GULP energy per Si atom -12397.315763 kJ/mol
# Density = 1.731560 g / cm^3
# Si number density = 17.355096 Si / 1000 Ang^3
#
#
#
# Elastic Constant Matrix: (Units=GPa)
#
#
# Indices 1 2 3 4 5 6 
#
# 1 229.4660 -101.8504 43.1751 0.0000 -0.0073 0.0000
# 2 -101.8504 229.4660 43.1751 0.0000 0.0073 0.0000
# 3 43.1751 43.1751 129.6663 0.0000 0.0000 0.0000
# 4 0.0000 0.0000 0.0000 4.9833 0.0000 0.0073
# 5 -0.0073 0.0073 0.0000 0.0000 4.9833 0.0000
# 6 0.0000 0.0000 0.0000 0.0073 0.0000 165.6582
#
#
#
# Elastic Compliance Matrix: (Units=1/GPa)
#
#
# Indices 1 2 3 4 5 6 
#
# 1 0.006567 0.003548 -0.003368 0.000000 0.000004 0.000000
# 2 0.003548 0.006567 -0.003368 0.000000 -0.000004 0.000000
# 3 -0.003368 -0.003368 0.009955 0.000000 0.000000 0.000000
# 4 0.000000 0.000000 0.000000 0.200671 0.000000 -0.000009
# 5 0.000004 -0.000004 0.000000 0.000000 0.200671 0.000000
# 6 0.000000 0.000000 0.000000 -0.000009 0.000000 0.006037
#
#
# Mechanical properties :
#
#
# Convention : Reuss Voigt Hill
#
# Bulk Modulus (GPa) = 59.83379 61.95529 60.89454
# Shear Modulus (GPa) = 11.30167 75.39819 43.34993
#
# Velocity S-wave (km/s) = 2.55463 6.59839 5.00324
# Velocity P-wave (km/s) = 6.57667 9.68647 8.27890
#
# Compressibility (1/GPa) = 0.01671297
#
# Stress axis : x y z
#
# Youngs Moduli (GPa) = 152.28556 152.28556 100.45225
#
# Poissons Ratio (x) = -0.54036 0.33832
# Poissons Ratio (y) = -0.54036 0.33832
# Poissons Ratio (z) = 0.51290 0.51290
#
# Static dielectric constant tensor:
#      x y z
#    x 3.233300 0.000000 0.000000 
#    y 0.000000 3.233300 0.000000 
#    z 0.000000 0.000000 3.216370 
# 
# 
# High freq. dielectric constant tensor:
#      x y z
#    x 1.668360 0.000000 0.000000 
#    y 0.000000 1.668360 0.000000 
#    z 0.000000 0.000000 1.679080 
# 
# From -- ./inp_files/1459.got.cif
#   From: 2010.03.12/outbox.cif.g09.slc.cpg/sg187_1_cif.got.tgz:1459.got - 2010.04.01 11:58:23.
