data_PCOD8326768
_publ_section_title
;
Structure prediction by ZEFSAII (Michael W. Deem and Ramdas Pophale) SiO2 
 PCOD8326768
Probable space group: P 63 M C
;
_chemical_formula_sum "Si O2"
_cell_formula_units_Z 84
_cell_length_a 17.548466
_cell_length_b 17.548466
_cell_length_c 18.734663
_cell_angle_alpha 90.000000
_cell_angle_beta 90.000000
_cell_angle_gamma 120.000000
_cell_volume 4996.372787
_symmetry_space_group_name_H-M "P 63 M C"
_symmetry_group_IT_number 186
_symmetry_cell_setting 'hexagonal'
loop_
_space_group_symop_operation_xyz
x,y,z
x-y,x,1/2+z
-y,x-y,z
-x,-y,1/2+z
-x+y,-x,z
y,-x+y,1/2+z
-x+y,y,z
x,x-y,z
-y,-x,z
y,x,1/2+z
x-y,-y,1/2+z
-x,-x+y,1/2+z
loop_
_atom_site_type_symbol
_atom_site_label
_atom_site_fract_x
_atom_site_fract_y
_atom_site_fract_z
Si Si1 0.308634 0.066163 0.287390
Si Si2 0.833126 0.499762 0.895037
Si Si3 0.175636 0.001779 0.411910
Si Si4 0.032242 0.607284 0.891953
Si Si5 0.502227 0.333665 0.727492
Si Si6 0.248311 0.931609 0.169326
Si Si7 0.257899 0.918090 0.007947
O O1 0.337833 0.168917 0.282746
O O2 0.224090 0.012916 0.337304
O O3 0.392111 0.061242 0.320927
O O4 0.272431 0.022178 0.209608
O O5 0.762267 0.524533 0.926814
O O6 0.816329 0.408165 0.929844
O O7 0.819941 0.485699 0.811244
O O8 0.931268 0.576281 0.910493
O O9 0.139229 0.069615 0.417353
O O10 0.244474 0.019644 0.474495
O O11 0.096467 0.903534 0.419571
O O12 0.048126 0.524063 0.880047
O O13 0.081387 0.663073 0.962690
O O14 0.520345 0.260173 0.692263
O O15 0.571636 0.428365 0.694714
O O16 0.404915 0.311233 0.711569
O O17 0.144527 0.855474 0.173682
O O18 0.283642 0.951852 0.088656
O O19 0.182895 0.817106 0.007134
#
# Coordination Sequence:
#
# PCOD8326768 Si02
#       7
#    12  12  12  12  12  12  12
#     4  10  20  33  50  73  99 126 160 204 249 288
#     4   9  16  26  43  70 100 125 149 183 232 289
#     4   9  17  30  49  70  93 122 158 198 241 291
#     4  10  19  32  50  71  95 128 166 201 239 285
#     4   9  16  26  43  69  98 124 148 179 224 282
#     4  10  19  32  50  71  99 131 161 196 245 298
#     4   9  20  35  48  68  98 130 162 203 249 287
#
# _framework density 16.812196
#
# number of rings (size 3 to 8) (size 9 to 14) (size 15 to 20)
#    0.000    2.571    1.429    2.143    0.000    4.571 
#    0.000    0.000    0.000    2.571    0.000    0.000 
#    0.000    1.143    0.000    0.000    0.000    0.000 
#
# Total GULP energy -1040785.137951 kJ/mol
# GULP energy per Si atom -12390.299261 kJ/mol
# Density = 1.677393 g / cm^3
# Si number density = 16.812196 Si / 1000 Ang^3
#
#
#
# Elastic Constant Matrix: (Units=GPa)
#
#
# Indices 1 2 3 4 5 6 
#
# 1 67.1563 45.2997 20.6984 0.0000 0.0000 0.0000
# 2 45.2997 67.1563 20.6984 0.0000 0.0000 0.0000
# 3 20.6984 20.6984 69.5921 0.0000 0.0000 0.0000
# 4 0.0000 0.0000 0.0000 16.3076 0.0000 0.0000
# 5 0.0000 0.0000 0.0000 0.0000 16.3076 0.0000
# 6 0.0000 0.0000 0.0000 0.0000 0.0000 10.9283
#
#
#
# Elastic Compliance Matrix: (Units=1/GPa)
#
#
# Indices 1 2 3 4 5 6 
#
# 1 0.027869 -0.017883 -0.002970 0.000000 0.000000 0.000000
# 2 -0.017883 0.027869 -0.002970 0.000000 0.000000 0.000000
# 3 -0.002970 -0.002970 0.016136 0.000000 0.000000 0.000000
# 4 0.000000 0.000000 0.000000 0.061321 0.000000 0.000000
# 5 0.000000 0.000000 0.000000 0.000000 0.061321 0.000000
# 6 0.000000 0.000000 0.000000 0.000000 0.000000 0.091505
#
#
# Mechanical properties :
#
#
# Convention : Reuss Voigt Hill
#
# Bulk Modulus (GPa) = 41.27533 41.92196 41.59864
# Shear Modulus (GPa) = 14.63082 16.52261 15.57672
#
# Velocity S-wave (km/s) = 2.95320 3.13833 3.04717
# Velocity P-wave (km/s) = 6.01936 6.17428 6.09731
#
# Compressibility (1/GPa) = 0.02422755
#
# Stress axis : x y z
#
# Youngs Moduli (GPa) = 35.88197 35.88197 61.97266
#
# Poissons Ratio (x) = 0.64169 0.18406
# Poissons Ratio (y) = 0.64169 0.18406
# Poissons Ratio (z) = 0.10657 0.10657
#
# Static dielectric constant tensor:
#      x y z
#    x 3.219850 0.000000 0.000000 
#    y 0.000000 3.219850 0.000000 
#    z 0.000000 0.000000 3.053460 
# 
# 
# High freq. dielectric constant tensor:
#      x y z
#    x 1.644430 0.000000 0.000000 
#    y 0.000000 1.644430 0.000000 
#    z 0.000000 0.000000 1.620910 
# 
# From -- ./inp_files/3503.got.cif
#   From: 2010.03.12/outbox.cif.g09.slc.cpg/sg186_2_cif.got.tgz:3503.got - 2010.04.01 11:56:34.
