data_PCOD8326862
_publ_section_title
;
Structure prediction by ZEFSAII (Michael W. Deem and Ramdas Pophale) SiO2 
 PCOD8326862
Probable space group: P -6 M 2
;
_chemical_formula_sum "Si O2"
_cell_formula_units_Z 60
_cell_length_a 21.302690
_cell_length_b 21.302690
_cell_length_c 9.125571
_cell_angle_alpha 90.000000
_cell_angle_beta 90.000000
_cell_angle_gamma 120.000000
_cell_volume 3586.407013
_symmetry_space_group_name_H-M "P -6 M 2"
_symmetry_group_IT_number 187
_symmetry_cell_setting 'hexagonal'
loop_
_space_group_symop_operation_xyz
x,y,z
-x+y,-x,-z
-y,x-y,z
x,y,-z
-x+y,-x,z
-y,x-y,-z
-y,-x,-z
-x+y,y,-z
x,x-y,-z
-x+y,y,z
x,x-y,z
-y,-x,z
loop_
_atom_site_type_symbol
_atom_site_label
_atom_site_fract_x
_atom_site_fract_y
_atom_site_fract_z
Si Si1 0.538794 0.077587 0.324645
Si Si2 0.219777 0.300510 0.327120
Si Si3 0.702971 0.158040 0.326067
Si Si4 0.295046 0.846191 0.829840
Si Si5 0.921930 0.214113 0.674230
Si Si6 0.460563 0.539438 0.171679
O O1 0.534785 0.069570 0.500000
O O2 0.621412 0.124299 0.265948
O O3 0.498433 0.996865 0.258427
O O4 0.230587 0.309628 0.500000
O O5 0.137389 0.274777 0.281208
O O6 0.275081 0.377147 0.259067
O O7 0.238605 0.240918 0.265250
O O8 0.700806 0.157495 0.500000
O O9 0.758582 0.241419 0.273379
O O10 0.733073 0.106552 0.268003
O O11 0.238805 0.761196 0.791868
O O12 0.376630 0.870138 0.784129
O O13 0.289957 0.860352 0.000000
O O14 0.922313 0.215552 0.500000
O O15 0.867791 0.132210 0.730170
O O16 0.469969 0.530032 0.000000
#
# Coordination Sequence:
#
# PCOD8326862 Si02
#       6
#     6  12  12  12  12   6
#     4  10  18  28  46  68  88 114 148 184 224 264
#     4   9  16  26  43  66  86 106 139 180 215 250
#     4   8  14  24  37  58  85 109 137 172 209 249
#     4   9  18  32  46  62  86 114 142 174 218 265
#     4   8  13  22  37  56  81 110 135 162 200 246
#     4  10  20  32  46  66  90 114 144 184 224 264
#
# _framework density 16.729835000000001
#
# number of rings (size 3 to 8) (size 9 to 14) (size 15 to 20)
#    0.000    3.200    0.000    2.400    0.000    2.400 
#    1.200    0.000    0.000    1.600    0.000    8.400 
#    0.000    0.000    0.000    0.000    0.000    0.000 
#
# Total GULP energy -743428.478191 kJ/mol
# GULP energy per Si atom -12390.474637 kJ/mol
# Density = 1.669176 g / cm^3
# Si number density = 16.729835 Si / 1000 Ang^3
#
#
#
# Elastic Constant Matrix: (Units=GPa)
#
#
# Indices 1 2 3 4 5 6 
#
# 1 152.4511 100.5209 20.0729 0.0000 -0.0001 0.0000
# 2 100.5209 152.4511 20.0729 0.0000 0.0001 0.0000
# 3 20.0729 20.0729 11.0939 0.0000 0.0000 0.0000
# 4 0.0000 0.0000 0.0000 14.3173 0.0000 0.0001
# 5 -0.0001 0.0001 0.0000 0.0000 14.3173 0.0000
# 6 0.0000 0.0000 0.0000 0.0001 0.0000 25.9651
#
#
#
# Elastic Compliance Matrix: (Units=1/GPa)
#
#
# Indices 1 2 3 4 5 6 
#
# 1 0.012401 -0.006856 -0.010033 0.000000 0.000000 0.000000
# 2 -0.006856 0.012401 -0.010033 0.000000 0.000000 0.000000
# 3 -0.010033 -0.010033 0.126448 0.000000 0.000000 0.000000
# 4 0.000000 0.000000 0.000000 0.069845 0.000000 0.000000
# 5 0.000000 0.000000 0.000000 0.000000 0.069845 0.000000
# 6 0.000000 0.000000 0.000000 0.000000 0.000000 0.038513
#
#
# Mechanical properties :
#
#
# Convention : Reuss Voigt Hill
#
# Bulk Modulus (GPa) = 10.26646 66.36993 38.31819
# Shear Modulus (GPa) = 12.02598 22.60858 17.31728
#
# Velocity S-wave (km/s) = 2.68402 3.68012 3.22081
# Velocity P-wave (km/s) = 3.96928 7.60364 6.06509
#
# Compressibility (1/GPa) = 0.09740455
#
# Stress axis : x y z
#
# Youngs Moduli (GPa) = 80.63905 80.63905 7.90842
#
# Poissons Ratio (x) = 0.55283 0.07935
# Poissons Ratio (y) = 0.55283 0.07935
# Poissons Ratio (z) = 0.80908 0.80908
#
# Static dielectric constant tensor:
#      x y z
#    x 3.481540 0.000000 0.000000 
#    y 0.000000 3.481540 0.000000 
#    z 0.000000 0.000000 2.735550 
# 
# 
# High freq. dielectric constant tensor:
#      x y z
#    x 1.646810 0.000000 0.000000 
#    y 0.000000 1.646810 0.000000 
#    z 0.000000 0.000000 1.598870 
# 
# From -- ./inp_files/666.got.cif
#   From: 2010.03.12/outbox.cif.g09.slc.cpg/sg187_1_cif.got.tgz:666.got - 2010.04.01 11:58:23.
