data_PCOD8326930
_publ_section_title
;
Structure prediction by ZEFSAII (Michael W. Deem and Ramdas Pophale) SiO2 
 PCOD8326930
Probable space group: P -6 M 2
;
_chemical_formula_sum "Si O2"
_cell_formula_units_Z 96
_cell_length_a 17.165094
_cell_length_b 17.165094
_cell_length_c 23.105167
_cell_angle_alpha 90.000000
_cell_angle_beta 90.000000
_cell_angle_gamma 120.000000
_cell_volume 5895.655733
_symmetry_space_group_name_H-M "P -6 M 2"
_symmetry_group_IT_number 187
_symmetry_cell_setting 'hexagonal'
loop_
_space_group_symop_operation_xyz
x,y,z
-x+y,-x,-z
-y,x-y,z
x,y,-z
-x+y,-x,z
-y,x-y,-z
-y,-x,-z
-x+y,y,-z
x,x-y,-z
-x+y,y,z
x,x-y,z
-y,-x,z
loop_
_atom_site_type_symbol
_atom_site_label
_atom_site_fract_x
_atom_site_fract_y
_atom_site_fract_z
Si Si1 0.846930 0.333546 0.104487
Si Si2 0.057707 0.290570 0.714445
Si Si3 0.823054 0.999018 0.603874
Si Si4 0.903778 0.274822 0.564970
Si Si5 0.594128 0.013923 0.667825
Si Si6 0.666613 0.162389 0.763900
Si Si7 0.000890 0.815154 0.826755
Si Si8 0.296004 0.055775 0.936362
O O1 0.856061 0.428031 0.085701
O O2 0.745514 0.254487 0.090577
O O3 0.870399 0.330932 0.171603
O O4 0.922108 0.320895 0.070892
O O5 0.162080 0.324159 0.722904
O O6 0.059005 0.378452 0.687449
O O7 0.009240 0.207454 0.670376
O O8 0.005648 0.252260 0.775198
O O9 0.927953 0.072048 0.600304
O O10 0.763747 0.027712 0.565337
O O11 0.808877 0.904439 0.580116
O O12 0.902607 0.308646 0.500000
O O13 0.804410 0.195590 0.583363
O O14 0.935834 0.358276 0.608316
O O15 0.486249 0.972497 0.660464
O O16 0.629556 0.081378 0.720547
O O17 0.603660 0.207319 0.764089
O O18 0.765156 0.234845 0.742437
O O19 0.908327 0.816653 0.822217
O O20 0.009216 0.771487 0.886977
O O21 0.083102 0.916899 0.822157
O O22 0.297933 0.148967 0.931235
O O23 0.261441 0.011739 0.000000
#
# Coordination Sequence:
#
# PCOD8326930 Si02
#       8
#    12  12  12  12  12  12  12  12
#     4   9  16  26  41  61  86 116 150 187 226 269
#     4   9  18  31  46  66  92 116 136 171 226 273
#     4   9  16  26  42  65  93 123 153 183 216 259
#     4   9  18  31  44  60  87 122 155 187 223 257
#     4  10  19  30  47  68  86 110 147 183 215 260
#     4   9  16  25  39  61  87 112 138 172 215 259
#     4  10  19  31  48  68  90 117 149 181 213 255
#     4   9  18  30  41  56  82 116 152 190 229 261
#
# _framework density 16.283175
#
# number of rings (size 3 to 8) (size 9 to 14) (size 15 to 20)
#    0.000    2.750    0.000    2.000    0.000    4.500 
#    0.000    1.250    0.000    2.750    0.000    0.000 
#    0.000    0.000    0.000    0.750    0.000    2.000 
#
# Total GULP energy -1189809.364664 kJ/mol
# GULP energy per Si atom -12393.847549 kJ/mol
# Density = 1.624611 g / cm^3
# Si number density = 16.283175 Si / 1000 Ang^3
#
#
#
# Elastic Constant Matrix: (Units=GPa)
#
#
# Indices 1 2 3 4 5 6 
#
# 1 61.7596 24.4338 22.2517 0.0000 -0.0001 0.0000
# 2 24.4338 61.7596 22.2517 0.0000 0.0001 0.0000
# 3 22.2517 22.2517 79.5175 0.0000 0.0000 0.0000
# 4 0.0000 0.0000 0.0000 17.6892 0.0000 0.0001
# 5 -0.0001 0.0001 0.0000 0.0000 17.6892 0.0000
# 6 0.0000 0.0000 0.0000 0.0001 0.0000 18.6629
#
#
#
# Elastic Compliance Matrix: (Units=1/GPa)
#
#
# Indices 1 2 3 4 5 6 
#
# 1 0.020176 -0.006615 -0.003795 0.000000 0.000000 0.000000
# 2 -0.006615 0.020176 -0.003795 0.000000 0.000000 0.000000
# 3 -0.003795 -0.003795 0.014700 0.000000 0.000000 0.000000
# 4 0.000000 0.000000 0.000000 0.056532 0.000000 0.000000
# 5 0.000000 0.000000 0.000000 0.000000 0.056532 0.000000
# 6 0.000000 0.000000 0.000000 0.000000 0.000000 0.053582
#
#
# Mechanical properties :
#
#
# Convention : Reuss Voigt Hill
#
# Bulk Modulus (GPa) = 37.53390 37.87900 37.70645
# Shear Modulus (GPa) = 19.30591 19.74822 19.52707
#
# Velocity S-wave (km/s) = 3.44704 3.48630 3.46673
# Velocity P-wave (km/s) = 6.24048 6.28641 6.26348
#
# Compressibility (1/GPa) = 0.02664258
#
# Stress axis : x y z
#
# Youngs Moduli (GPa) = 49.56340 49.56340 68.02849
#
# Poissons Ratio (x) = 0.32786 0.25816
# Poissons Ratio (y) = 0.32786 0.25816
# Poissons Ratio (z) = 0.18809 0.18809
#
# Static dielectric constant tensor:
#      x y z
#    x 3.050580 0.000000 0.000000 
#    y 0.000000 3.050580 0.000000 
#    z 0.000000 0.000000 3.200230 
# 
# 
# High freq. dielectric constant tensor:
#      x y z
#    x 1.602370 0.000000 0.000000 
#    y 0.000000 1.602370 0.000000 
#    z 0.000000 0.000000 1.637040 
# 
# From -- ./inp_files/4077.got.cif
#   From: 2010.03.12/outbox.cif.g09.slc.cpg/sg187_3_cif.got.tgz:4077.got - 2010.04.01 11:58:23.
