data_PCOD8326842
_publ_section_title
;
Structure prediction by ZEFSAII (Michael W. Deem and Ramdas Pophale) SiO2 
 PCOD8326842
Probable space group: P -6 M 2
;
_chemical_formula_sum "Si O2"
_cell_formula_units_Z 78
_cell_length_a 20.458897
_cell_length_b 20.458897
_cell_length_c 16.731595
_cell_angle_alpha 90.000000
_cell_angle_beta 90.000000
_cell_angle_gamma 120.000000
_cell_volume 6065.022371
_symmetry_space_group_name_H-M "P -6 M 2"
_symmetry_group_IT_number 187
_symmetry_cell_setting 'hexagonal'
loop_
_space_group_symop_operation_xyz
x,y,z
-x+y,-x,-z
-y,x-y,z
x,y,-z
-x+y,-x,z
-y,x-y,-z
-y,-x,-z
-x+y,y,-z
x,x-y,-z
-x+y,y,z
x,x-y,z
-y,-x,z
loop_
_atom_site_type_symbol
_atom_site_label
_atom_site_fract_x
_atom_site_fract_y
_atom_site_fract_z
Si Si1 0.332610 0.517965 0.500000
Si Si2 0.958708 0.187991 0.905509
Si Si3 0.107196 0.477188 0.833128
Si Si4 0.213340 0.786661 0.094174
Si Si5 0.962496 0.339673 0.094241
Si Si6 0.811367 0.478291 0.095014
Si Si7 0.332696 0.515301 0.328020
Si Si8 0.746477 0.873239 0.095401
O O1 0.417396 0.582605 0.500000
O O2 0.275446 0.550893 0.500000
O O3 0.320798 0.473706 0.415322
O O4 0.890438 0.109563 0.868962
O O5 0.947295 0.257485 0.881540
O O6 0.040673 0.207092 0.872591
O O7 0.956925 0.179665 0.000000
O O8 0.107483 0.553742 0.858052
O O9 0.174466 0.474166 0.878451
O O10 0.117312 0.473735 0.737664
O O11 0.030012 0.404116 0.856323
O O12 0.170026 0.829975 0.128128
O O13 0.210800 0.789201 0.000000
O O14 0.889923 0.342764 0.122760
O O15 0.980008 0.355136 0.000000
O O16 0.743908 0.487815 0.131063
O O17 0.803918 0.401959 0.129921
O O18 0.806774 0.475438 0.000000
O O19 0.255712 0.511424 0.299826
O O20 0.396900 0.603101 0.335333
O O21 0.743078 0.871539 0.000000
#
# Coordination Sequence:
#
# PCOD8326842 Si02
#       8
#     6  12  12   6  12  12  12   6
#     4   8  13  22  38  56  70  86 109 140 188 244
#     4   9  16  26  40  55  69  88 118 158 200 237
#     4  11  21  30  40  53  71  97 132 169 197 218
#     4  11  20  32  42  49  69 103 141 172 198 224
#     4  10  18  28  40  52  69  96 132 162 184 219
#     4   9  16  25  37  53  71  90 115 152 197 236
#     4   9  16  26  39  54  71  90 115 152 195 236
#     4   9  16  28  42  54  69  93 125 159 198 242
#
# _framework density 12.860628
#
# number of rings (size 3 to 8) (size 9 to 14) (size 15 to 20)
#    0.000    2.462    2.308    1.769    0.000    5.538 
#    0.923    0.000    0.000    0.000    0.000    0.000 
#    0.000    0.000    0.000    2.769    0.000    3.462 
#
# Total GULP energy -966510.529397 kJ/mol
# GULP energy per Si atom -12391.160633 kJ/mol
# Density = 1.283136 g / cm^3
# Si number density = 12.860628 Si / 1000 Ang^3
#
#
#
# Elastic Constant Matrix: (Units=GPa)
#
#
# Indices 1 2 3 4 5 6 
#
# 1 71.8512 27.3220 23.0515 0.0000 -0.0001 0.0000
# 2 27.3220 71.8512 23.0515 0.0000 0.0001 0.0000
# 3 23.0515 23.0515 44.6303 0.0000 0.0000 0.0000
# 4 0.0000 0.0000 0.0000 6.3781 0.0000 0.0001
# 5 -0.0001 0.0001 0.0000 0.0000 6.3781 0.0000
# 6 0.0000 0.0000 0.0000 0.0001 0.0000 22.2646
#
#
#
# Elastic Compliance Matrix: (Units=1/GPa)
#
#
# Indices 1 2 3 4 5 6 
#
# 1 0.017863 -0.004594 -0.006854 0.000000 0.000000 0.000000
# 2 -0.004594 0.017863 -0.006854 0.000000 0.000000 0.000000
# 3 -0.006854 -0.006854 0.029486 0.000000 0.000000 0.000000
# 4 0.000000 0.000000 0.000000 0.156787 0.000000 -0.000001
# 5 0.000000 0.000000 0.000000 0.000000 0.156787 0.000000
# 6 0.000000 0.000000 0.000000 -0.000001 0.000000 0.044914
#
#
# Mechanical properties :
#
#
# Convention : Reuss Voigt Hill
#
# Bulk Modulus (GPa) = 34.95232 37.24251 36.09741
# Shear Modulus (GPa) = 10.64192 14.66467 12.65329
#
# Velocity S-wave (km/s) = 2.87972 3.38046 3.14009
# Velocity P-wave (km/s) = 6.18820 6.65268 6.42464
#
# Compressibility (1/GPa) = 0.02861041
#
# Stress axis : x y z
#
# Youngs Moduli (GPa) = 55.98066 55.98066 33.91430
#
# Poissons Ratio (x) = 0.25717 0.23244
# Poissons Ratio (y) = 0.25717 0.23244
# Poissons Ratio (z) = 0.38367 0.38367
#
# Static dielectric constant tensor:
#      x y z
#    x 2.715180 0.000000 0.000000 
#    y 0.000000 2.715180 0.000000 
#    z 0.000000 0.000000 2.444030 
# 
# 
# High freq. dielectric constant tensor:
#      x y z
#    x 1.488570 0.000000 0.000000 
#    y 0.000000 1.488570 0.000000 
#    z 0.000000 0.000000 1.435830 
# 
# From -- ./inp_files/2730.got.cif
#   From: 2010.03.12/outbox.cif.g09.slc.cpg/sg187_2_cif.got.tgz:2730.got - 2010.04.01 11:58:23.
