data_PCOD8326726
_publ_section_title
;
Structure prediction by ZEFSAII (Michael W. Deem and Ramdas Pophale) SiO2 
 PCOD8326726
Probable space group: P 63 M C
;
_chemical_formula_sum "Si O2"
_cell_formula_units_Z 84
_cell_length_a 16.294809
_cell_length_b 16.294809
_cell_length_c 22.327108
_cell_angle_alpha 90.000000
_cell_angle_beta 90.000000
_cell_angle_gamma 120.000000
_cell_volume 5134.068435
_symmetry_space_group_name_H-M "P 63 M C"
_symmetry_group_IT_number 186
_symmetry_cell_setting 'hexagonal'
loop_
_space_group_symop_operation_xyz
x,y,z
x-y,x,1/2+z
-y,x-y,z
-x,-y,1/2+z
-x+y,-x,z
y,-x+y,1/2+z
-x+y,y,z
x,x-y,z
-y,-x,z
y,x,1/2+z
x-y,-y,1/2+z
-x,-x+y,1/2+z
loop_
_atom_site_type_symbol
_atom_site_label
_atom_site_fract_x
_atom_site_fract_y
_atom_site_fract_z
Si Si1 0.702670 0.702670 0.515660
Si Si2 0.476788 0.334243 0.946464
Si Si3 0.997855 0.809631 0.128061
Si Si4 0.087735 0.368207 0.331232
Si Si5 0.087735 0.368206 0.200088
Si Si6 0.188224 0.997854 0.903259
Si Si7 0.334243 0.857455 0.084857
O O1 0.602023 0.690748 0.497081
O O2 0.743507 0.776755 0.569797
O O3 0.776755 0.743507 0.461523
O O4 0.690748 0.602024 0.534239
O O5 0.500884 0.250442 0.942678
O O6 0.570164 0.429837 0.964965
O O7 0.439253 0.349730 0.882235
O O8 0.092690 0.907311 0.112930
O O9 0.014575 0.755047 0.182583
O O10 0.915255 0.830509 0.147134
O O11 0.191841 0.383682 0.327650
O O12 0.058794 0.389314 0.265660
O O13 0.014573 0.259528 0.348737
O O14 0.191842 0.383683 0.203669
O O15 0.089522 0.439252 0.149085
O O16 0.185379 0.092690 0.918389
O O17 0.084746 0.915255 0.884186
O O18 0.429837 0.859673 0.066355
O O19 0.250442 0.749559 0.088643
#
# Coordination Sequence:
#
# PCOD8326726 Si02
#       7
#    12  12  12  12  12  12  12
#     4  10  19  32  45  62  90 124 150 178 229 284
#     4  10  19  31  48  68  89 113 146 187 228 273
#     4  10  18  28  44  65  90 120 156 194 226 262
#     4   8  16  30  44  60  86 117 144 175 221 271
#     4   8  16  30  44  60  86 117 144 175 221 271
#     4  10  18  28  44  65  90 120 156 194 226 262
#     4  10  19  31  48  68  89 113 146 187 228 273
#
# _framework density 16.361294000000001
#
# number of rings (size 3 to 8) (size 9 to 14) (size 15 to 20)
#    0.000    2.571    0.000    5.286    0.000    1.143 
#    0.000    1.429    0.000    3.429    0.000    0.000 
#    0.000    0.000    0.000    0.000    0.000   96.000 
#
# Total GULP energy -1041273.509653 kJ/mol
# GULP energy per Si atom -12396.113210 kJ/mol
# Density = 1.632405 g / cm^3
# Si number density = 16.361294 Si / 1000 Ang^3
#
#
#
# Elastic Constant Matrix: (Units=GPa)
#
#
# Indices 1 2 3 4 5 6 
#
# 1 74.8848 22.4848 11.3400 0.0000 0.0000 0.0000
# 2 22.4848 74.8848 11.3400 0.0000 0.0000 0.0000
# 3 11.3400 11.3400 56.2731 0.0000 0.0000 0.0000
# 4 0.0000 0.0000 0.0000 12.2193 0.0000 0.0000
# 5 0.0000 0.0000 0.0000 0.0000 12.2193 0.0000
# 6 0.0000 0.0000 0.0000 0.0000 0.0000 26.2000
#
#
#
# Elastic Compliance Matrix: (Units=1/GPa)
#
#
# Indices 1 2 3 4 5 6 
#
# 1 0.014930 -0.004154 -0.002172 0.000000 0.000000 0.000000
# 2 -0.004154 0.014930 -0.002172 0.000000 0.000000 0.000000
# 3 -0.002172 -0.002172 0.018646 0.000000 0.000000 0.000000
# 4 0.000000 0.000000 0.000000 0.081838 0.000000 0.000000
# 5 0.000000 0.000000 0.000000 0.000000 0.081838 0.000000
# 6 0.000000 0.000000 0.000000 0.000000 0.000000 0.038168
#
#
# Mechanical properties :
#
#
# Convention : Reuss Voigt Hill
#
# Bulk Modulus (GPa) = 31.73448 32.93023 32.33236
# Shear Modulus (GPa) = 17.99548 20.85290 19.42419
#
# Velocity S-wave (km/s) = 3.32004 3.57392 3.44932
# Velocity P-wave (km/s) = 5.84252 6.09928 5.97228
#
# Compressibility (1/GPa) = 0.03151146
#
# Stress axis : x y z
#
# Youngs Moduli (GPa) = 66.97939 66.97939 53.63169
#
# Poissons Ratio (x) = 0.27823 0.11646
# Poissons Ratio (y) = 0.27823 0.11646
# Poissons Ratio (z) = 0.14545 0.14545
#
# Static dielectric constant tensor:
#      x y z
#    x 2.932210 0.000000 0.000000 
#    y 0.000000 2.932210 0.000000 
#    z 0.000000 0.000000 3.335460 
# 
# 
# High freq. dielectric constant tensor:
#      x y z
#    x 1.615290 0.000000 0.000000 
#    y 0.000000 1.615290 0.000000 
#    z 0.000000 0.000000 1.629250 
# 
# From -- ./inp_files/3855.got.cif
#   From: 2010.03.12/outbox.cif.g09.slc.cpg/sg186_2_cif.got.tgz:3855.got - 2010.04.01 11:56:34.
