data_PCOD8326055
_publ_section_title
;
Structure prediction by ZEFSAII (Michael W. Deem and Ramdas Pophale) SiO2 
 PCOD8326055
Probable space group: P 65 2 2
;
_chemical_formula_sum "Si O2"
_cell_formula_units_Z 78
_cell_length_a 23.949030
_cell_length_b 23.949030
_cell_length_c 8.183714
_cell_angle_alpha 90.000000
_cell_angle_beta 90.000000
_cell_angle_gamma 120.000000
_cell_volume 4064.966129
_symmetry_space_group_name_H-M "P 65 2 2"
_symmetry_group_IT_number 179
_symmetry_cell_setting 'hexagonal'
loop_
_space_group_symop_operation_xyz
x,y,z
x-y,x,5/6+z
-y,x-y,2/3+z
-x,-y,1/2+z
-x+y,-x,1/3+z
y,-x+y,1/6+z
x-y,-y,-z
-x,-x+y,1/3-z
y,x,2/3-z
-y,-x,1/6-z
-x+y,y,1/2-z
x,x-y,5/6-z
loop_
_atom_site_type_symbol
_atom_site_label
_atom_site_fract_x
_atom_site_fract_y
_atom_site_fract_z
Si Si1 0.344226 0.000000 0.500000
Si Si2 0.659226 0.481030 0.260796
Si Si3 0.141931 0.453726 0.086952
Si Si4 0.593510 0.815565 0.586324
Si Si5 0.227207 0.643354 0.584631
Si Si6 0.429339 0.482859 0.947933
Si Si7 0.309530 0.961236 0.838558
O O1 0.412608 0.066407 0.531369
O O2 0.311394 0.009623 0.334656
O O3 0.724539 0.520064 0.368063
O O4 0.631009 0.404177 0.271755
O O5 0.604222 0.489264 0.338942
O O6 0.663539 0.506900 0.080031
O O7 0.177664 0.506879 0.227740
O O8 0.174264 0.408292 0.057660
O O9 0.628235 0.814118 0.416667
O O10 0.633798 0.887383 0.655776
O O11 0.298814 0.701187 0.583334
O O12 0.207817 0.603909 0.416667
O O13 0.483220 0.483220 0.833334
O O14 0.379953 0.411159 0.013122
O O15 0.465143 0.534858 0.083334
O O16 0.307672 0.000000 0.000000
#
# Coordination Sequence:
#
# PCOD8326055 Si02
#       7
#     6  12  12  12  12  12  12
#     4  12  26  38  64  92 124 158 196 254 314 374
#     4  10  22  43  60  84 110 144 190 243 307 378
#     4  11  25  43  63  88 117 153 200 247 308 381
#     4   9  19  40  68  85 116 157 196 245 311 374
#     4  12  28  44  62  84 112 145 192 247 309 387
#     4  10  21  33  53  77 110 142 179 224 293 363
#     4  10  22  40  58  88 121 150 193 246 304 368
#
# _framework density 19.188351000000001
#
# number of rings (size 3 to 8) (size 9 to 14) (size 15 to 20)
#    0.000    1.538    0.000    5.538    9.692    4.308 
#    0.000    0.000    0.000    0.000    0.000    0.000 
#    0.000    0.000    0.000    0.000    0.000    0.000 
#
# Total GULP energy -966481.161043 kJ/mol
# GULP energy per Si atom -12390.784116 kJ/mol
# Density = 1.914468 g / cm^3
# Si number density = 19.188351 Si / 1000 Ang^3
#
#
#
# Elastic Constant Matrix: (Units=GPa)
#
#
# Indices 1 2 3 4 5 6 
#
# 1 90.4962 42.7510 42.2505 0.0000 0.0000 0.0000
# 2 42.7510 90.4962 42.2505 0.0000 0.0000 0.0000
# 3 42.2505 42.2505 115.9898 0.0000 0.0000 0.0000
# 4 0.0000 0.0000 0.0000 30.0020 0.0000 0.0000
# 5 0.0000 0.0000 0.0000 0.0000 30.0020 0.0000
# 6 0.0000 0.0000 0.0000 0.0000 0.0000 23.8726
#
#
#
# Elastic Compliance Matrix: (Units=1/GPa)
#
#
# Indices 1 2 3 4 5 6 
#
# 1 0.015352 -0.005593 -0.003555 0.000000 0.000000 0.000000
# 2 -0.005593 0.015352 -0.003555 0.000000 0.000000 0.000000
# 3 -0.003555 -0.003555 0.011211 0.000000 0.000000 0.000000
# 4 0.000000 0.000000 0.000000 0.033331 0.000000 0.000000
# 5 0.000000 0.000000 0.000000 0.000000 0.033331 0.000000
# 6 0.000000 0.000000 0.000000 0.000000 0.000000 0.041889
#
#
# Mechanical properties :
#
#
# Convention : Reuss Voigt Hill
#
# Bulk Modulus (GPa) = 60.56886 61.27627 60.92257
# Shear Modulus (GPa) = 27.56726 28.09067 27.82896
#
# Velocity S-wave (km/s) = 3.79445 3.83030 3.81242
# Velocity P-wave (km/s) = 7.12959 7.18088 7.15528
#
# Compressibility (1/GPa) = 0.01651013
#
# Stress axis : x y z
#
# Youngs Moduli (GPa) = 65.13857 65.13857 89.19587
#
# Poissons Ratio (x) = 0.36430 0.31708
# Poissons Ratio (y) = 0.36430 0.31708
# Poissons Ratio (z) = 0.23156 0.23156
#
# Static dielectric constant tensor:
#      x y z
#    x 3.415920 0.000000 0.000000 
#    y 0.000000 3.415920 0.000000 
#    z 0.000000 0.000000 3.757400 
# 
# 
# High freq. dielectric constant tensor:
#      x y z
#    x 1.712520 0.000000 0.000000 
#    y 0.000000 1.712520 0.000000 
#    z 0.000000 0.000000 1.774050 
# 
# From -- ./inp_files/3665.got.cif
#   From: 2010.03.12/outbox.cif.g09.slc.cpg/sg179_2_cif.got.tgz:3665.got - 2010.04.02 07:08:42.
