data_PCOD8326274
_publ_section_title
;
Structure prediction by ZEFSAII (Michael W. Deem and Ramdas Pophale) SiO2 
 PCOD8326274
Probable space group: P 62 2 2
;
_chemical_formula_sum "Si O2"
_cell_formula_units_Z 24
_cell_length_a 13.150188
_cell_length_b 13.150188
_cell_length_c 6.703985
_cell_angle_alpha 90.000000
_cell_angle_beta 90.000000
_cell_angle_gamma 120.000000
_cell_volume 1003.985843
_symmetry_space_group_name_H-M "P 62 2 2"
_symmetry_group_IT_number 180
_symmetry_cell_setting 'hexagonal'
loop_
_space_group_symop_operation_xyz
x,y,z
x-y,x,1/3+z
-y,x-y,2/3+z
-x,-y,z
-x+y,-x,1/3+z
y,-x+y,2/3+z
x-y,-y,-z
-x,-x+y,1/3-z
y,x,2/3-z
-y,-x,2/3-z
-x+y,y,-z
x,x-y,1/3-z
loop_
_atom_site_type_symbol
_atom_site_label
_atom_site_fract_x
_atom_site_fract_y
_atom_site_fract_z
Si Si1 0.137161 0.372079 0.197480
Si Si2 0.446205 0.723103 0.166667
Si Si3 0.151930 0.000000 0.000000
O O1 0.162985 0.468632 0.367571
O O2 0.173686 0.276106 0.254896
O O3 0.000000 0.310643 0.166667
O O4 0.216834 0.433668 0.000000
O O5 0.375269 0.624732 0.333334
O O6 0.051649 0.948352 0.833334
#
# Coordination Sequence:
#
# PCOD8326274 Si02
#       3
#    12   6   6
#     4  12  24  45  78 119 160 195 250 317 395 488
#     4  12  28  56  79 101 148 210 278 336 394 452
#     4  12  24  45  77 124 174 210 235 294 401 506
#
# _framework density 23.904717999999999
#
# number of rings (size 3 to 8) (size 9 to 14) (size 15 to 20)
#    0.000    0.000    7.500    1.500    0.000    3.000 
#    4.500   30.000    0.000    0.000    0.000    0.000 
#    0.000    0.000    0.000    0.000    0.000    0.000 
#
# Total GULP energy -297422.372167 kJ/mol
# GULP energy per Si atom -12392.598840 kJ/mol
# Density = 2.385031 g / cm^3
# Si number density = 23.904718 Si / 1000 Ang^3
#
#
#
# Elastic Constant Matrix: (Units=GPa)
#
#
# Indices 1 2 3 4 5 6 
#
# 1 69.7136 112.2126 79.8239 0.0000 0.0000 0.0000
# 2 112.2126 69.7136 79.8239 0.0000 0.0000 0.0000
# 3 79.8239 79.8239 213.3619 0.0000 0.0000 0.0000
# 4 0.0000 0.0000 0.0000 62.0268 0.0000 0.0000
# 5 0.0000 0.0000 0.0000 0.0000 62.0268 0.0000
# 6 0.0000 0.0000 0.0000 0.0000 0.0000 -21.2495
#
#
#
# Elastic Compliance Matrix: (Units=1/GPa)
#
#
# Indices 1 2 3 4 5 6 
#
# 1 -0.007673 0.015857 -0.003062 0.000000 0.000000 0.000000
# 2 0.015857 -0.007673 -0.003062 0.000000 0.000000 0.000000
# 3 -0.003062 -0.003062 0.006978 0.000000 0.000000 0.000000
# 4 0.000000 0.000000 0.000000 0.016122 0.000000 0.000000
# 5 0.000000 0.000000 0.000000 0.000000 0.016122 0.000000
# 6 0.000000 0.000000 0.000000 0.000000 0.000000 -0.047060
#
#
# Mechanical properties :
#
#
# Convention : Reuss Voigt Hill
#
# Bulk Modulus (GPa) = 90.10546 99.61223 94.85885
# Shear Modulus (GPa) = -128.36244 25.95606 -51.20319
#
# Velocity S-wave (km/s) = -7.33581 3.29874 -4.63316
# Velocity P-wave (km/s) = 5.82896 7.50133 3.33865
#
# Compressibility (1/GPa) = 0.01109811
#
# Stress axis : x y z
#
# Youngs Moduli (GPa) = -130.32247 -130.32247 143.31307
#
# Poissons Ratio (x) = 2.06649 0.43877
# Poissons Ratio (y) = 2.06649 0.43877
# Poissons Ratio (z) = -0.39900 -0.39900
#
# Static dielectric constant tensor:
#      x y z
#    x 4.264720 0.000000 0.000000 
#    y 0.000000 4.264720 0.000000 
#    z 0.000000 0.000000 5.404350 
# 
# 
# High freq. dielectric constant tensor:
#      x y z
#    x 1.937490 0.000000 0.000000 
#    y 0.000000 1.937490 0.000000 
#    z 0.000000 0.000000 1.988660 
# 
# From -- ./inp_files/233.got.cif
#   From: 2010.03.12/outbox.cif.g09.slc.cpg/sg180_1_cif.got.tgz:233.got - 2010.04.01 11:35:50.
