data_PCOD8326445
_publ_section_title
;
Structure prediction by ZEFSAII (Michael W. Deem and Ramdas Pophale) SiO2 
 PCOD8326445
Probable space group: P 63 2 2
;
_chemical_formula_sum "Si O2"
_cell_formula_units_Z 72
_cell_length_a 23.756006
_cell_length_b 23.756006
_cell_length_c 8.955551
_cell_angle_alpha 90.000000
_cell_angle_beta 90.000000
_cell_angle_gamma 120.000000
_cell_volume 4376.931962
_symmetry_space_group_name_H-M "P 63 2 2"
_symmetry_group_IT_number 182
_symmetry_cell_setting 'hexagonal'
loop_
_space_group_symop_operation_xyz
x,y,z
x-y,x,1/2+z
-y,x-y,z
-x,-y,1/2+z
-x+y,-x,z
y,-x+y,1/2+z
x-y,-y,-z
-x,-x+y,-z
y,x,-z
-y,-x,1/2-z
-x+y,y,1/2-z
x,x-y,1/2-z
loop_
_atom_site_type_symbol
_atom_site_label
_atom_site_fract_x
_atom_site_fract_y
_atom_site_fract_z
Si Si1 0.931536 0.314260 0.911243
Si Si2 0.522422 0.591083 0.320813
Si Si3 0.136478 0.398535 0.795590
Si Si4 0.068466 0.817457 0.684962
Si Si5 0.914911 0.513251 0.158017
Si Si6 0.810343 0.737133 0.835930
O O1 0.909498 0.349600 0.792735
O O2 0.936192 0.260804 0.811258
O O3 0.872330 0.277657 0.027874
O O4 0.000000 0.360851 0.000000
O O5 0.452915 0.547086 0.250000
O O6 0.505162 0.607795 0.482723
O O7 0.564105 0.555641 0.327833
O O8 0.210313 0.420625 0.750000
O O9 0.089718 0.322739 0.748464
O O10 0.117828 0.446911 0.717161
O O11 0.111125 0.888876 0.750000
O O12 0.081293 0.825213 0.509635
O O13 0.994400 0.796504 0.725594
O O14 0.890540 0.445270 0.250000
O O15 0.865889 0.731778 0.750000
#
# Coordination Sequence:
#
# PCOD8326445 Si02
#       6
#    12  12  12  12  12  12
#     4  11  18  34  50  70 110 140 169 217 263 309
#     4  10  20  29  51  79 101 136 170 203 261 316
#     4  10  19  33  52  71 102 142 172 211 267 314
#     4   9  18  33  49  70 100 128 166 217 263 311
#     4  10  19  32  49  75 106 131 170 211 252 315
#     4  10  19  32  50  72  98 137 173 207 264 323
#
# _framework density 16.449878999999999
#
# number of rings (size 3 to 8) (size 9 to 14) (size 15 to 20)
#    0.000    2.000    5.000    1.000    2.333    4.667 
#    0.000    0.000    0.000    0.667    0.000    0.000 
#    0.000    0.000    0.000    0.500    0.000    0.167 
#
# Total GULP energy -892086.349480 kJ/mol
# GULP energy per Si atom -12390.088187 kJ/mol
# Density = 1.641244 g / cm^3
# Si number density = 16.449879 Si / 1000 Ang^3
#
#
#
# Elastic Constant Matrix: (Units=GPa)
#
#
# Indices 1 2 3 4 5 6 
#
# 1 83.3658 40.5764 49.1333 0.0000 0.0000 0.0000
# 2 40.5764 83.3658 49.1333 0.0000 0.0000 0.0000
# 3 49.1333 49.1333 84.8016 0.0000 0.0000 0.0000
# 4 0.0000 0.0000 0.0000 29.5294 0.0000 0.0000
# 5 0.0000 0.0000 0.0000 0.0000 29.5294 0.0000
# 6 0.0000 0.0000 0.0000 0.0000 0.0000 21.3947
#
#
#
# Elastic Compliance Matrix: (Units=1/GPa)
#
#
# Indices 1 2 3 4 5 6 
#
# 1 0.019147 -0.004223 -0.008647 0.000000 0.000000 0.000000
# 2 -0.004223 0.019147 -0.008647 0.000000 0.000000 0.000000
# 3 -0.008647 -0.008647 0.021812 0.000000 0.000000 0.000000
# 4 0.000000 0.000000 0.000000 0.033865 0.000000 0.000000
# 5 0.000000 0.000000 0.000000 0.000000 0.033865 0.000000
# 6 0.000000 0.000000 0.000000 0.000000 0.000000 0.046741
#
#
# Mechanical properties :
#
#
# Convention : Reuss Voigt Hill
#
# Bulk Modulus (GPa) = 58.57340 58.80214 58.68777
# Shear Modulus (GPa) = 22.39143 23.60338 22.99741
#
# Velocity S-wave (km/s) = 3.69344 3.79207 3.74308
# Velocity P-wave (km/s) = 7.33983 7.41599 7.37801
#
# Compressibility (1/GPa) = 0.01707259
#
# Stress axis : x y z
#
# Youngs Moduli (GPa) = 52.22746 52.22746 45.84657
#
# Poissons Ratio (x) = 0.22057 0.39642
# Poissons Ratio (y) = 0.22057 0.39642
# Poissons Ratio (z) = 0.45159 0.45159
#
# Static dielectric constant tensor:
#      x y z
#    x 3.054820 0.000000 0.000000 
#    y 0.000000 3.054820 0.000000 
#    z 0.000000 0.000000 3.265540 
# 
# 
# High freq. dielectric constant tensor:
#      x y z
#    x 1.613300 0.000000 0.000000 
#    y 0.000000 1.613300 0.000000 
#    z 0.000000 0.000000 1.638590 
# 
# From -- ./inp_files/1890.got.cif
#   From: 2010.03.12/outbox.cif.g09.slc.cpg/sg182_1_cif.got.tgz:1890.got - 2010.04.01 11:49:36.
