data_PCOD8326582
_publ_section_title
;
Structure prediction by ZEFSAII (Michael W. Deem and Ramdas Pophale) SiO2 
 PCOD8326582
Probable space group: P 6 C C
;
_chemical_formula_sum "Si O2"
_cell_formula_units_Z 84
_cell_length_a 18.854833
_cell_length_b 18.854833
_cell_length_c 13.408766
_cell_angle_alpha 90.000000
_cell_angle_beta 90.000000
_cell_angle_gamma 120.000000
_cell_volume 4128.238919
_symmetry_space_group_name_H-M "P 6 C C"
_symmetry_group_IT_number 184
_symmetry_cell_setting 'hexagonal'
loop_
_space_group_symop_operation_xyz
x,y,z
x-y,x,z
-y,x-y,z
-x,-y,z
-x+y,-x,z
y,-x+y,z
-x+y,y,1/2+z
x,x-y,1/2+z
-y,-x,1/2+z
y,x,1/2+z
x-y,-y,1/2+z
-x,-x+y,1/2+z
loop_
_atom_site_type_symbol
_atom_site_label
_atom_site_fract_x
_atom_site_fract_y
_atom_site_fract_z
Si Si1 0.652456 0.607186 0.128230
Si Si2 0.915576 0.689128 0.209003
Si Si3 0.114946 0.286490 0.537797
Si Si4 0.463991 0.087706 0.334083
Si Si5 0.177500 0.026014 0.870397
Si Si6 0.208788 0.800898 0.373110
Si Si7 0.386788 0.462087 0.923378
O O1 0.638727 0.681081 0.165533
O O2 0.745464 0.650644 0.092036
O O3 0.631346 0.539948 0.214584
O O4 0.594908 0.551566 0.037734
O O5 0.899389 0.737070 0.119461
O O6 0.971627 0.756243 0.291542
O O7 0.830480 0.622682 0.260435
O O8 0.035430 0.209486 0.486177
O O9 0.174535 0.329866 0.443535
O O10 0.462406 0.165734 0.378702
O O11 0.544903 0.091933 0.377113
O O12 0.385990 0.999760 0.364998
O O13 0.156554 0.097181 0.851348
O O14 0.301402 0.841119 0.412421
#
# Coordination Sequence:
#
# PCOD8326582 Si02
#       7
#    12  12  12  12  12  12  12
#     4  11  21  38  63  92 122 161 212 264 328 391
#     4  11  20  36  65  90 119 159 226 278 327 382
#     4  10  21  36  61  88 119 160 220 274 326 386
#     4  11  22  41  65  90 136 169 212 273 333 403
#     4  11  24  38  56  84 128 174 221 275 342 400
#     4  10  21  39  63  92 125 168 212 274 331 390
#     4  10  24  41  60  99 130 171 216 267 339 405
#
# _framework density 20.347660000000001
#
# number of rings (size 3 to 8) (size 9 to 14) (size 15 to 20)
#    0.000    1.429    2.857    2.714    2.000    2.286 
#    3.429    0.000    0.000    1.714    0.000    0.000 
#    0.000    0.000    0.000    0.000    0.000    0.000 
#
# Total GULP energy -1041029.012330 kJ/mol
# GULP energy per Si atom -12393.202528 kJ/mol
# Density = 2.030135 g / cm^3
# Si number density = 20.347660 Si / 1000 Ang^3
#
#
#
# Elastic Constant Matrix: (Units=GPa)
#
#
# Indices 1 2 3 4 5 6 
#
# 1 96.5499 37.5235 38.6157 0.0000 0.0000 0.0000
# 2 37.5235 96.5499 38.6157 0.0000 0.0000 0.0000
# 3 38.6157 38.6157 128.5433 0.0000 0.0000 0.0000
# 4 0.0000 0.0000 0.0000 33.7208 0.0000 0.0000
# 5 0.0000 0.0000 0.0000 0.0000 33.7208 0.0000
# 6 0.0000 0.0000 0.0000 0.0000 0.0000 29.5132
#
#
#
# Elastic Compliance Matrix: (Units=1/GPa)
#
#
# Indices 1 2 3 4 5 6 
#
# 1 0.012980 -0.003961 -0.002710 0.000000 0.000000 0.000000
# 2 -0.003961 0.012980 -0.002710 0.000000 0.000000 0.000000
# 3 -0.002710 -0.002710 0.009407 0.000000 0.000000 0.000000
# 4 0.000000 0.000000 0.000000 0.029655 0.000000 0.000000
# 5 0.000000 0.000000 0.000000 0.000000 0.029655 0.000000
# 6 0.000000 0.000000 0.000000 0.000000 0.000000 0.033883
#
#
# Mechanical properties :
#
#
# Convention : Reuss Voigt Hill
#
# Bulk Modulus (GPa) = 60.21151 61.23922 60.72536
# Shear Modulus (GPa) = 32.71003 33.18352 32.94677
#
# Velocity S-wave (km/s) = 4.01379 4.04273 4.02828
# Velocity P-wave (km/s) = 7.15096 7.20787 7.17947
#
# Compressibility (1/GPa) = 0.01660812
#
# Stress axis : x y z
#
# Youngs Moduli (GPa) = 77.03880 77.03880 106.29916
#
# Poissons Ratio (x) = 0.30516 0.28802
# Poissons Ratio (y) = 0.30516 0.28802
# Poissons Ratio (z) = 0.20874 0.20874
#
# Static dielectric constant tensor:
#      x y z
#    x 3.483290 0.000000 0.000000 
#    y 0.000000 3.483290 0.000000 
#    z 0.000000 0.000000 4.154110 
# 
# 
# High freq. dielectric constant tensor:
#      x y z
#    x 1.776900 0.000000 0.000000 
#    y 0.000000 1.776900 0.000000 
#    z 0.000000 0.000000 1.818500 
# 
# From -- ./inp_files/645.got.cif
#   From: 2010.03.12/outbox.cif.g09.slc.cpg/sg184_cif.got.tgz:645.got - 2010.04.01 11:54:36.
