data_PCOD8326002
_publ_section_title
;
Structure prediction by ZEFSAII (Michael W. Deem and Ramdas Pophale) SiO2 
 PCOD8326002
Probable space group: P 61 2 2
;
_chemical_formula_sum "Si O2"
_cell_formula_units_Z 24
_cell_length_a 8.374359
_cell_length_b 8.374359
_cell_length_c 14.876012
_cell_angle_alpha 90.000000
_cell_angle_beta 90.000000
_cell_angle_gamma 120.000000
_cell_volume 903.483657
_symmetry_space_group_name_H-M "P 61 2 2"
_symmetry_group_IT_number 178
_symmetry_cell_setting 'hexagonal'
loop_
_space_group_symop_operation_xyz
x,y,z
x-y,x,1/6+z
-y,x-y,1/3+z
-x,-y,1/2+z
-x+y,-x,2/3+z
y,-x+y,5/6+z
x-y,-y,-z
-x,-x+y,2/3-z
y,x,1/3-z
-y,-x,5/6-z
-x+y,y,1/2-z
x,x-y,1/6-z
loop_
_atom_site_type_symbol
_atom_site_label
_atom_site_fract_x
_atom_site_fract_y
_atom_site_fract_z
Si Si1 0.458172 0.910620 0.091016
Si Si2 0.878835 0.122828 0.682812
O O1 0.385276 0.692638 0.083334
O O2 0.333673 0.939787 0.163690
O O3 0.670120 0.016307 0.116325
O O4 0.435102 0.000000 0.000000
O O5 0.987809 0.112211 0.595141
#
# Coordination Sequence:
#
# PCOD8326002 Si02
#       2
#    12  12
#     4  12  26  51  81 119 169 221 281 349 423 506
#     4  12  28  53  85 122 171 224 286 349 427 507
#
# _framework density 26.563842999999999
#
# number of rings (size 3 to 8) (size 9 to 14) (size 15 to 20)
#    0.000    0.000    5.000    4.500    0.000    6.000 
#   18.000    0.000    0.000    0.000    0.000    0.000 
#    0.000    0.000    0.000    0.000    0.000    0.000 
#
# Total GULP energy -297676.689859 kJ/mol
# GULP energy per Si atom -12403.195411 kJ/mol
# Density = 2.650338 g / cm^3
# Si number density = 26.563843 Si / 1000 Ang^3
#
#
#
# Elastic Constant Matrix: (Units=GPa)
#
#
# Indices 1 2 3 4 5 6 
#
# 1 112.1580 27.0151 47.0988 0.0000 0.0000 0.0000
# 2 27.0151 112.1580 47.0988 0.0000 0.0000 0.0000
# 3 47.0988 47.0988 138.3904 0.0000 0.0000 0.0000
# 4 0.0000 0.0000 0.0000 38.2208 0.0000 0.0000
# 5 0.0000 0.0000 0.0000 0.0000 38.2208 0.0000
# 6 0.0000 0.0000 0.0000 0.0000 0.0000 42.5714
#
#
#
# Elastic Compliance Matrix: (Units=1/GPa)
#
#
# Indices 1 2 3 4 5 6 
#
# 1 0.010540 -0.001205 -0.003177 0.000000 0.000000 0.000000
# 2 -0.001205 0.010540 -0.003177 0.000000 0.000000 0.000000
# 3 -0.003177 -0.003177 0.009389 0.000000 0.000000 0.000000
# 4 0.000000 0.000000 0.000000 0.026164 0.000000 0.000000
# 5 0.000000 0.000000 0.000000 0.000000 0.026164 0.000000
# 6 0.000000 0.000000 0.000000 0.000000 0.000000 0.023490
#
#
# Mechanical properties :
#
#
# Convention : Reuss Voigt Hill
#
# Bulk Modulus (GPa) = 65.14203 67.23690 66.18947
# Shear Modulus (GPa) = 39.51879 39.90219 39.71049
#
# Velocity S-wave (km/s) = 3.86124 3.87993 3.87060
# Velocity P-wave (km/s) = 6.66746 6.74079 6.70422
#
# Compressibility (1/GPa) = 0.01535107
#
# Stress axis : x y z
#
# Youngs Moduli (GPa) = 94.87325 94.87325 106.51215
#
# Poissons Ratio (x) = 0.11428 0.33842
# Poissons Ratio (y) = 0.11428 0.33842
# Poissons Ratio (z) = 0.30144 0.30144
#
# Static dielectric constant tensor:
#      x y z
#    x 5.052390 0.000000 0.000000 
#    y 0.000000 5.052390 0.000000 
#    z 0.000000 0.000000 4.976300 
# 
# 
# High freq. dielectric constant tensor:
#      x y z
#    x 2.085800 0.000000 0.000000 
#    y 0.000000 2.085800 0.000000 
#    z 0.000000 0.000000 2.077270 
# 
# From -- ./inp_files/6143.got.cif
#   From: 2010.03.12/outbox.cif.g09.slc.cpg/sg178_4_cif.got.tgz:6143.got - 2010.04.02 07:02:38.
