data_PCOD8326366
_publ_section_title
;
Structure prediction by ZEFSAII (Michael W. Deem and Ramdas Pophale) SiO2 
 PCOD8326366
Probable space group: P 64 2 2
;
_chemical_formula_sum "Si O2"
_cell_formula_units_Z 42
_cell_length_a 10.129974
_cell_length_b 10.129974
_cell_length_c 22.884300
_cell_angle_alpha 90.000000
_cell_angle_beta 90.000000
_cell_angle_gamma 120.000000
_cell_volume 2033.690807
_symmetry_space_group_name_H-M "P 64 2 2"
_symmetry_group_IT_number 181
_symmetry_cell_setting 'hexagonal'
loop_
_space_group_symop_operation_xyz
x,y,z
x-y,x,2/3+z
-y,x-y,1/3+z
-x,-y,z
-x+y,-x,2/3+z
y,-x+y,1/3+z
x-y,-y,-z
-x,-x+y,2/3-z
y,x,1/3-z
-y,-x,1/3-z
-x+y,y,-z
x,x-y,2/3-z
loop_
_atom_site_type_symbol
_atom_site_label
_atom_site_fract_x
_atom_site_fract_y
_atom_site_fract_z
Si Si1 0.532086 0.243264 0.620833
Si Si2 0.675002 0.350004 0.500000
Si Si3 0.708419 0.999527 0.690944
Si Si4 0.500000 0.000000 0.213160
Si Si5 0.716324 0.000000 0.000000
O O1 0.671666 0.328335 0.666667
O O2 0.596627 0.245609 0.556692
O O3 0.426092 0.323394 0.623185
O O4 0.427206 0.068331 0.642142
O O5 0.604064 0.459002 0.493058
O O6 0.850301 0.149700 0.666667
O O7 0.649352 0.039277 0.749233
O O8 0.751642 0.867264 0.704260
#
# Coordination Sequence:
#
# PCOD8326366 Si02
#       5
#    12   6  12   6   6
#     4  10  21  41  68 103 140 184 244 283 362 422
#     4  12  26  42  69 108 141 194 230 320 344 458
#     4  10  23  42  71  96 140 186 239 299 360 434
#     4  12  28  40  71 103 150 184 258 284 382 416
#     4   8  20  38  72  98 132 182 240 284 364 428
#
# _framework density 20.652104999999999
#
# number of rings (size 3 to 8) (size 9 to 14) (size 15 to 20)
#    1.714    0.000    2.857    0.857   12.000    0.000 
#    0.000    2.857    0.000    0.000    0.000    0.000 
#    0.000    0.000    0.000    0.000    0.000    0.000 
#
# Total GULP energy -520297.978673 kJ/mol
# GULP energy per Si atom -12388.047111 kJ/mol
# Density = 2.060510 g / cm^3
# Si number density = 20.652105 Si / 1000 Ang^3
#
#
#
# Elastic Constant Matrix: (Units=GPa)
#
#
# Indices 1 2 3 4 5 6 
#
# 1 63.3135 32.2646 37.3232 0.0000 0.0000 0.0000
# 2 32.2646 63.3135 37.3232 0.0000 0.0000 0.0000
# 3 37.3232 37.3232 116.1471 0.0000 0.0000 0.0000
# 4 0.0000 0.0000 0.0000 25.7645 0.0000 0.0000
# 5 0.0000 0.0000 0.0000 0.0000 25.7645 0.0000
# 6 0.0000 0.0000 0.0000 0.0000 0.0000 15.5245
#
#
#
# Elastic Compliance Matrix: (Units=1/GPa)
#
#
# Indices 1 2 3 4 5 6 
#
# 1 0.023088 -0.009119 -0.004489 0.000000 0.000000 0.000000
# 2 -0.009119 0.023088 -0.004489 0.000000 0.000000 0.000000
# 3 -0.004489 -0.004489 0.011495 0.000000 0.000000 0.000000
# 4 0.000000 0.000000 0.000000 0.038813 0.000000 0.000000
# 5 0.000000 0.000000 0.000000 0.000000 0.038813 0.000000
# 6 0.000000 0.000000 0.000000 0.000000 0.000000 0.064414
#
#
# Mechanical properties :
#
#
# Convention : Reuss Voigt Hill
#
# Bulk Modulus (GPa) = 46.56233 50.73292 48.64762
# Shear Modulus (GPa) = 20.57080 22.46824 21.51952
#
# Velocity S-wave (km/s) = 3.15947 3.30197 3.23151
# Velocity P-wave (km/s) = 5.99205 6.25749 6.12621
#
# Compressibility (1/GPa) = 0.02147659
#
# Stress axis : x y z
#
# Youngs Moduli (GPa) = 43.31303 43.31303 86.99766
#
# Poissons Ratio (x) = 0.39499 0.39050
# Poissons Ratio (y) = 0.39499 0.39050
# Poissons Ratio (z) = 0.19442 0.19442
#
# Static dielectric constant tensor:
#      x y z
#    x 3.780340 0.000000 0.000000 
#    y 0.000000 3.780340 0.000000 
#    z 0.000000 0.000000 3.538950 
# 
# 
# High freq. dielectric constant tensor:
#      x y z
#    x 1.816670 0.000000 0.000000 
#    y 0.000000 1.816670 0.000000 
#    z 0.000000 0.000000 1.771180 
# 
# From -- ./inp_files/9809.got.cif
#   From: 2010.03.12/outbox.cif.g09.slc.cpg/sg181_5_cif.got.tgz:9809.got - 2010.04.01 11:42:41.
