data_PCOD8326505
_publ_section_title
;
Structure prediction by ZEFSAII (Michael W. Deem and Ramdas Pophale) SiO2 
 PCOD8326505
Probable space group: P 63 2 2
;
_chemical_formula_sum "Si O2"
_cell_formula_units_Z 96
_cell_length_a 13.542181
_cell_length_b 13.542181
_cell_length_c 38.753607
_cell_angle_alpha 90.000000
_cell_angle_beta 90.000000
_cell_angle_gamma 120.000000
_cell_volume 6154.885679
_symmetry_space_group_name_H-M "P 63 2 2"
_symmetry_group_IT_number 182
_symmetry_cell_setting 'hexagonal'
loop_
_space_group_symop_operation_xyz
x,y,z
x-y,x,1/2+z
-y,x-y,z
-x,-y,1/2+z
-x+y,-x,z
y,-x+y,1/2+z
x-y,-y,-z
-x,-x+y,-z
y,x,-z
-y,-x,1/2-z
-x+y,y,1/2-z
x,x-y,1/2-z
loop_
_atom_site_type_symbol
_atom_site_label
_atom_site_fract_x
_atom_site_fract_y
_atom_site_fract_z
Si Si1 0.666970 0.560923 0.835071
Si Si2 0.439119 0.332940 0.289931
Si Si3 0.333651 0.894188 0.414785
Si Si4 0.000300 0.772786 0.960150
Si Si5 0.332940 0.893821 0.710069
Si Si6 0.560923 0.666970 0.335071
Si Si7 0.439462 0.333651 0.585215
Si Si8 0.000300 0.772786 0.539850
O O1 0.651266 0.650945 0.812337
O O2 0.785303 0.570607 0.824126
O O3 0.567568 0.432432 0.827476
O O4 0.666510 0.592348 0.874930
O O5 0.407907 0.332046 0.250000
O O6 0.430285 0.215143 0.301127
O O7 0.567072 0.432928 0.297683
O O8 0.317000 0.983676 0.437461
O O9 0.333490 0.925838 0.374930
O O10 0.234556 0.765444 0.422210
O O11 0.452240 0.904481 0.425794
O O12 0.901237 0.802474 0.952707
O O13 0.118937 0.881063 0.949168
O O14 0.000000 0.740856 0.000000
O O15 0.349055 0.000321 0.687663
O O16 0.333324 0.317000 0.562539
O O17 0.000000 0.740856 0.500000
#
# Coordination Sequence:
#
# PCOD8326505 Si02
#       8
#    12  12  12  12  12  12  12  12
#     4   9  17  29  45  65  88 113 141 174 212 252
#     4   9  17  29  45  64  85 110 140 173 208 246
#     4   9  17  29  45  64  86 113 143 174 209 251
#     4   9  17  29  45  64  85 110 141 178 218 256
#     4   9  17  29  45  64  85 110 140 173 208 246
#     4   9  17  29  45  65  88 113 141 174 212 252
#     4   9  17  29  45  64  86 113 143 174 209 251
#     4   9  17  29  45  64  85 110 141 178 218 256
#
# _framework density 15.597364000000001
#
# number of rings (size 3 to 8) (size 9 to 14) (size 15 to 20)
#    0.000    3.000    0.000    1.000    0.000    6.000 
#    0.000    0.000    0.000    2.500    0.000    0.000 
#    0.000    0.000    0.000    0.000    0.000    0.000 
#
# Total GULP energy -1190565.653468 kJ/mol
# GULP energy per Si atom -12401.725557 kJ/mol
# Density = 1.556186 g / cm^3
# Si number density = 15.597364 Si / 1000 Ang^3
#
#
#
# Elastic Constant Matrix: (Units=GPa)
#
#
# Indices 1 2 3 4 5 6 
#
# 1 119.9825 70.8055 62.9657 0.0000 0.0000 0.0000
# 2 70.8055 119.9825 62.9657 0.0000 0.0000 0.0000
# 3 62.9657 62.9657 67.5875 0.0000 0.0000 0.0000
# 4 0.0000 0.0000 0.0000 28.2446 0.0000 0.0000
# 5 0.0000 0.0000 0.0000 0.0000 28.2446 0.0000
# 6 0.0000 0.0000 0.0000 0.0000 0.0000 24.5885
#
#
#
# Elastic Compliance Matrix: (Units=1/GPa)
#
#
# Indices 1 2 3 4 5 6 
#
# 1 0.016973 -0.003362 -0.012681 0.000000 0.000000 0.000000
# 2 -0.003362 0.016973 -0.012681 0.000000 0.000000 0.000000
# 3 -0.012681 -0.012681 0.038422 0.000000 0.000000 0.000000
# 4 0.000000 0.000000 0.000000 0.035405 0.000000 0.000000
# 5 0.000000 0.000000 0.000000 0.000000 0.035405 0.000000
# 6 0.000000 0.000000 0.000000 0.000000 0.000000 0.040669
#
#
# Mechanical properties :
#
#
# Convention : Reuss Voigt Hill
#
# Bulk Modulus (GPa) = 67.01093 77.89179 72.45136
# Shear Modulus (GPa) = 20.30309 23.60324 21.95317
#
# Velocity S-wave (km/s) = 3.61182 3.89432 3.75573
# Velocity P-wave (km/s) = 7.77496 8.38263 8.08450
#
# Compressibility (1/GPa) = 0.01492294
#
# Stress axis : x y z
#
# Youngs Moduli (GPa) = 58.91701 58.91701 26.02643
#
# Poissons Ratio (x) = 0.19806 0.33003
# Poissons Ratio (y) = 0.19806 0.33003
# Poissons Ratio (z) = 0.74710 0.74710
#
# Static dielectric constant tensor:
#      x y z
#    x 2.933750 0.000000 0.000000 
#    y 0.000000 2.933750 0.000000 
#    z 0.000000 0.000000 2.971580 
# 
# 
# High freq. dielectric constant tensor:
#      x y z
#    x 1.592570 0.000000 0.000000 
#    y 0.000000 1.592570 0.000000 
#    z 0.000000 0.000000 1.596040 
# 
# From -- ./inp_files/5810.got.cif
#   From: 2010.03.12/outbox.cif.g09.slc.cpg/sg182_3_cif.got.tgz:5810.got - 2010.04.01 11:49:36.
