data_PCOD8326346
_publ_section_title
;
Structure prediction by ZEFSAII (Michael W. Deem and Ramdas Pophale) SiO2 
 PCOD8326346
Probable space group: P 64 2 2
;
_chemical_formula_sum "Si O2"
_cell_formula_units_Z 60
_cell_length_a 15.029769
_cell_length_b 15.029769
_cell_length_c 13.421888
_cell_angle_alpha 90.000000
_cell_angle_beta 90.000000
_cell_angle_gamma 120.000000
_cell_volume 2625.722669
_symmetry_space_group_name_H-M "P 64 2 2"
_symmetry_group_IT_number 181
_symmetry_cell_setting 'hexagonal'
loop_
_space_group_symop_operation_xyz
x,y,z
x-y,x,2/3+z
-y,x-y,1/3+z
-x,-y,z
-x+y,-x,2/3+z
y,-x+y,1/3+z
x-y,-y,-z
-x,-x+y,2/3-z
y,x,1/3-z
-y,-x,1/3-z
-x+y,y,-z
x,x-y,2/3-z
loop_
_atom_site_type_symbol
_atom_site_label
_atom_site_fract_x
_atom_site_fract_y
_atom_site_fract_z
Si Si1 0.468089 0.637715 0.297704
Si Si2 0.475781 0.264046 0.097238
Si Si3 0.824764 0.071478 0.411858
Si Si4 0.386047 0.938675 0.819768
Si Si5 0.016690 0.228871 0.527832
O O1 0.499778 0.749889 0.333334
O O2 0.514135 0.658430 0.186626
O O3 0.344322 0.562564 0.311017
O O4 0.527272 0.598150 0.368501
O O5 0.363756 0.212452 0.048526
O O6 0.498910 0.173879 0.129199
O O7 0.809306 0.004393 0.311766
O O8 0.940601 0.132279 0.457720
O O9 0.753132 0.000000 0.500000
O O10 0.500000 0.000000 0.869142
O O11 0.323451 0.998851 0.829979
O O12 0.133280 0.266560 0.500000
#
# Coordination Sequence:
#
# PCOD8326346 Si02
#       5
#    12  12  12  12  12
#     4   9  17  33  56  85 120 160 207 266 322 381
#     4   9  19  34  56  88 122 155 211 268 321 380
#     4  11  22  40  65  91 120 164 208 263 325 381
#     4  10  20  37  58  87 123 168 214 258 322 394
#     4  11  24  42  63  91 130 164 210 265 318 386
#
# _framework density 22.850853000000001
#
# number of rings (size 3 to 8) (size 9 to 14) (size 15 to 20)
#    0.000    2.000    0.000    3.600    0.000    3.600 
#   10.800    4.000    0.000    0.000    0.000    0.000 
#    0.000    0.000    0.000    0.000    0.000    0.000 
#
# Total GULP energy -743454.696718 kJ/mol
# GULP energy per Si atom -12390.911612 kJ/mol
# Density = 2.279884 g / cm^3
# Si number density = 22.850853 Si / 1000 Ang^3
#
#
#
# Elastic Constant Matrix: (Units=GPa)
#
#
# Indices 1 2 3 4 5 6 
#
# 1 95.7318 27.5983 2.9301 0.0000 0.0000 0.0000
# 2 27.5983 95.7318 2.9301 0.0000 0.0000 0.0000
# 3 2.9301 2.9301 50.2848 0.0000 0.0000 0.0000
# 4 0.0000 0.0000 0.0000 21.7696 0.0000 0.0000
# 5 0.0000 0.0000 0.0000 0.0000 21.7696 0.0000
# 6 0.0000 0.0000 0.0000 0.0000 0.0000 34.0667
#
#
#
# Elastic Compliance Matrix: (Units=1/GPa)
#
#
# Indices 1 2 3 4 5 6 
#
# 1 0.011404 -0.003273 -0.000474 0.000000 0.000000 0.000000
# 2 -0.003273 0.011404 -0.000474 0.000000 0.000000 0.000000
# 3 -0.000474 -0.000474 0.019942 0.000000 0.000000 0.000000
# 4 0.000000 0.000000 0.000000 0.045936 0.000000 0.000000
# 5 0.000000 0.000000 0.000000 0.000000 0.045936 0.000000
# 6 0.000000 0.000000 0.000000 0.000000 0.000000 0.029354
#
#
# Mechanical properties :
#
#
# Convention : Reuss Voigt Hill
#
# Bulk Modulus (GPa) = 29.14733 34.29617 31.72175
# Shear Modulus (GPa) = 27.19569 29.40719 28.30144
#
# Velocity S-wave (km/s) = 3.45358 3.59126 3.52309
# Velocity P-wave (km/s) = 5.35594 5.67780 5.51922
#
# Compressibility (1/GPa) = 0.03430846
#
# Stress axis : x y z
#
# Youngs Moduli (GPa) = 87.68890 87.68890 50.14555
#
# Poissons Ratio (x) = 0.28702 0.02376
# Poissons Ratio (y) = 0.28702 0.02376
# Poissons Ratio (z) = 0.04155 0.04155
#
# Static dielectric constant tensor:
#      x y z
#    x 4.048640 0.000000 0.000000 
#    y 0.000000 4.048640 0.000000 
#    z 0.000000 0.000000 4.303450 
# 
# 
# High freq. dielectric constant tensor:
#      x y z
#    x 1.897260 0.000000 0.000000 
#    y 0.000000 1.897260 0.000000 
#    z 0.000000 0.000000 1.885940 
# 
# From -- ./inp_files/6133.got.cif
#   From: 2010.03.12/outbox.cif.g09.slc.cpg/sg181_4_cif.got.tgz:6133.got - 2010.04.01 11:42:41.
