data_PCOD8326854
_publ_section_title
;
Structure prediction by ZEFSAII (Michael W. Deem and Ramdas Pophale) SiO2 
 PCOD8326854
Probable space group: P -6 M 2
;
_chemical_formula_sum "Si O2"
_cell_formula_units_Z 66
_cell_length_a 16.874965
_cell_length_b 16.874965
_cell_length_c 15.875526
_cell_angle_alpha 90.000000
_cell_angle_beta 90.000000
_cell_angle_gamma 120.000000
_cell_volume 3915.114941
_symmetry_space_group_name_H-M "P -6 M 2"
_symmetry_group_IT_number 187
_symmetry_cell_setting 'hexagonal'
loop_
_space_group_symop_operation_xyz
x,y,z
-x+y,-x,-z
-y,x-y,z
x,y,-z
-x+y,-x,z
-y,x-y,-z
-y,-x,-z
-x+y,y,-z
x,x-y,-z
-x+y,y,z
x,x-y,z
-y,-x,z
loop_
_atom_site_type_symbol
_atom_site_label
_atom_site_fract_x
_atom_site_fract_y
_atom_site_fract_z
Si Si1 0.897953 0.287224 0.908941
Si Si2 0.814132 0.001808 0.500000
Si Si3 0.059565 0.762956 0.169256
Si Si4 0.484003 0.149608 0.740214
Si Si5 0.332837 0.843667 0.095965
Si Si6 0.946265 0.236514 0.329547
O O1 0.800894 0.199107 0.912745
O O2 0.896741 0.350172 0.833152
O O3 0.970924 0.253130 0.890940
O O4 0.918994 0.338188 0.000000
O O5 0.921039 0.078962 0.500000
O O6 0.761604 0.013390 0.579051
O O7 0.806547 0.903274 0.500000
O O8 0.133093 0.866908 0.142091
O O9 0.103995 0.698098 0.160354
O O10 0.029622 0.763400 0.265050
O O11 0.571346 0.142692 0.710047
O O12 0.511496 0.255748 0.742934
O O13 0.399866 0.093541 0.675477
O O14 0.433055 0.866109 0.123585
O O15 0.264885 0.735116 0.102277
O O16 0.332760 0.876688 0.000000
O O17 0.864849 0.135152 0.305557
#
# Coordination Sequence:
#
# PCOD8326854 Si02
#       6
#    12   6  12  12  12  12
#     4   9  18  31  44  60  87 123 159 198 244 279
#     4  10  19  34  57  80  98 116 144 182 225 274
#     4  10  18  28  44  65  87 114 150 185 221 275
#     4   9  17  30  48  69  94 126 162 195 228 269
#     4   9  17  28  42  62  89 120 154 194 236 270
#     4   9  19  34  50  70  96 122 144 178 234 283
#
# _framework density 16.857742999999999
#
# number of rings (size 3 to 8) (size 9 to 14) (size 15 to 20)
#    0.000    2.727    0.000    3.182    0.000    5.091 
#    0.000    0.455    0.000    5.091    0.000    1.273 
#    0.000    0.000    0.000    2.182    0.000    0.000 
#
# Total GULP energy -817820.559176 kJ/mol
# GULP energy per Si atom -12391.220594 kJ/mol
# Density = 1.681937 g / cm^3
# Si number density = 16.857743 Si / 1000 Ang^3
#
#
#
# Elastic Constant Matrix: (Units=GPa)
#
#
# Indices 1 2 3 4 5 6 
#
# 1 73.4145 26.8062 41.4024 0.0000 -0.0002 0.0000
# 2 26.8062 73.4145 41.4024 0.0000 0.0002 0.0000
# 3 41.4024 41.4024 101.9119 0.0000 0.0000 0.0000
# 4 0.0000 0.0000 0.0000 18.3137 0.0000 0.0002
# 5 -0.0002 0.0002 0.0000 0.0000 18.3137 0.0000
# 6 0.0000 0.0000 0.0000 0.0002 0.0000 23.3041
#
#
#
# Elastic Compliance Matrix: (Units=1/GPa)
#
#
# Indices 1 2 3 4 5 6 
#
# 1 0.018237 -0.003218 -0.006102 0.000000 0.000000 0.000000
# 2 -0.003218 0.018237 -0.006102 0.000000 0.000000 0.000000
# 3 -0.006102 -0.006102 0.014770 0.000000 0.000000 0.000000
# 4 0.000000 0.000000 0.000000 0.054604 0.000000 -0.000001
# 5 0.000000 0.000000 0.000000 0.000000 0.054604 0.000000
# 6 0.000000 0.000000 0.000000 -0.000001 0.000000 0.042911
#
#
# Mechanical properties :
#
#
# Convention : Reuss Voigt Hill
#
# Bulk Modulus (GPa) = 49.01487 51.99590 50.50539
# Shear Modulus (GPa) = 20.74630 21.26165 21.00397
#
# Velocity S-wave (km/s) = 3.51189 3.55525 3.53364
# Velocity P-wave (km/s) = 6.75154 6.91114 6.83181
#
# Compressibility (1/GPa) = 0.02040197
#
# Stress axis : x y z
#
# Youngs Moduli (GPa) = 54.83242 54.83242 67.70423
#
# Poissons Ratio (x) = 0.17645 0.41311
# Poissons Ratio (y) = 0.17645 0.41311
# Poissons Ratio (z) = 0.33457 0.33457
#
# Static dielectric constant tensor:
#      x y z
#    x 3.147090 0.000000 0.000000 
#    y 0.000000 3.147090 0.000000 
#    z 0.000000 0.000000 3.287590 
# 
# 
# High freq. dielectric constant tensor:
#      x y z
#    x 1.646070 0.000000 0.000000 
#    y 0.000000 1.646070 0.000000 
#    z 0.000000 0.000000 1.628780 
# 
# From -- ./inp_files/2486.got.cif
#   From: 2010.03.12/outbox.cif.g09.slc.cpg/sg187_2_cif.got.tgz:2486.got - 2010.04.01 11:58:23.
