data_PCOD8326864
_publ_section_title
;
Structure prediction by ZEFSAII (Michael W. Deem and Ramdas Pophale) SiO2 
 PCOD8326864
Probable space group: P -6 M 2
;
_chemical_formula_sum "Si O2"
_cell_formula_units_Z 96
_cell_length_a 17.243096
_cell_length_b 17.243096
_cell_length_c 25.748077
_cell_angle_alpha 90.000000
_cell_angle_beta 90.000000
_cell_angle_gamma 120.000000
_cell_volume 6629.883898
_symmetry_space_group_name_H-M "P -6 M 2"
_symmetry_group_IT_number 187
_symmetry_cell_setting 'hexagonal'
loop_
_space_group_symop_operation_xyz
x,y,z
-x+y,-x,-z
-y,x-y,z
x,y,-z
-x+y,-x,z
-y,x-y,-z
-y,-x,-z
-x+y,y,-z
x,x-y,-z
-x+y,y,z
x,x-y,z
-y,-x,z
loop_
_atom_site_type_symbol
_atom_site_label
_atom_site_fract_x
_atom_site_fract_y
_atom_site_fract_z
Si Si1 0.843404 0.509758 0.223189
Si Si2 0.000874 0.817623 0.346901
Si Si3 0.297654 0.056487 0.442381
Si Si4 0.839054 0.333663 0.438386
Si Si5 0.182642 0.183647 0.848967
Si Si6 0.944019 0.704207 0.751280
Si Si7 0.843028 0.333729 0.899767
Si Si8 0.756015 0.696307 0.057893
O O1 0.745450 0.490899 0.240409
O O2 0.855247 0.427624 0.242757
O O3 0.922287 0.601459 0.248450
O O4 0.853270 0.521108 0.161688
O O5 0.086507 0.913494 0.338726
O O6 0.915095 0.830189 0.346000
O O7 0.009294 0.776122 0.401445
O O8 0.996158 0.751932 0.301227
O O9 0.273530 0.012224 0.500000
O O10 0.300609 0.150304 0.444228
O O11 0.396535 0.077887 0.424063
O O12 0.829888 0.332169 0.500000
O O13 0.857216 0.428608 0.415440
O O14 0.745968 0.254033 0.414791
O O15 0.084311 0.168622 0.845047
O O16 0.241219 0.244394 0.800759
O O17 0.228942 0.236876 0.902001
O O18 0.174203 0.087102 0.847727
O O19 0.850952 0.701904 0.755057
O O20 0.852828 0.426414 0.919267
O O21 0.745920 0.254081 0.917197
O O22 0.922328 0.324047 0.926252
O O23 0.846631 0.693262 0.060890
O O24 0.739254 0.720950 0.000000
#
# Coordination Sequence:
#
# PCOD8326864 Si02
#       8
#    12  12  12  12  12  12  12  12
#     4   9  15  25  42  63  86 113 142 166 188 224
#     4  10  19  30  44  60  78 103 137 175 210 245
#     4   8  15  27  40  56  81 110 137 167 206 245
#     4   8  12  19  34  56  81 110 143 173 196 223
#     4  10  18  29  43  58  75 100 136 175 211 246
#     4   9  17  29  43  60  82 105 130 165 208 241
#     4   9  15  24  39  59  82 110 142 170 193 225
#     4   9  17  28  39  53  78 108 135 167 207 243
#
# _framework density 14.479892
#
# number of rings (size 3 to 8) (size 9 to 14) (size 15 to 20)
#    0.000    3.000    1.250    1.750    0.000    2.250 
#    0.000    1.875    0.000    2.250    0.000    1.750 
#    0.000    0.000    0.000   10.500    0.000   13.000 
#
# Total GULP energy -1189891.171441 kJ/mol
# GULP energy per Si atom -12394.699703 kJ/mol
# Density = 1.444694 g / cm^3
# Si number density = 14.479892 Si / 1000 Ang^3
#
#
#
# Elastic Constant Matrix: (Units=GPa)
#
#
# Indices 1 2 3 4 5 6 
#
# 1 70.2103 29.9828 36.6877 0.0000 -0.0001 0.0000
# 2 29.9828 70.2103 36.6877 0.0000 0.0001 0.0000
# 3 36.6877 36.6877 81.1691 0.0000 0.0000 0.0000
# 4 0.0000 0.0000 0.0000 14.8051 0.0000 0.0001
# 5 -0.0001 0.0001 0.0000 0.0000 14.8051 0.0000
# 6 0.0000 0.0000 0.0000 0.0001 0.0000 20.1138
#
#
#
# Elastic Compliance Matrix: (Units=1/GPa)
#
#
# Indices 1 2 3 4 5 6 
#
# 1 0.019889 -0.004970 -0.006743 0.000000 0.000000 0.000000
# 2 -0.004970 0.019889 -0.006743 0.000000 0.000000 0.000000
# 3 -0.006743 -0.006743 0.018416 0.000000 0.000000 0.000000
# 4 0.000000 0.000000 0.000000 0.067544 0.000000 0.000000
# 5 0.000000 0.000000 0.000000 0.000000 0.067544 0.000000
# 6 0.000000 0.000000 0.000000 0.000000 0.000000 0.049717
#
#
# Mechanical properties :
#
#
# Convention : Reuss Voigt Hill
#
# Bulk Modulus (GPa) = 46.99073 47.58957 47.29015
# Shear Modulus (GPa) = 17.42125 17.82688 17.62406
#
# Velocity S-wave (km/s) = 3.47238 3.51258 3.49254
# Velocity P-wave (km/s) = 6.97133 7.02768 6.99956
#
# Compressibility (1/GPa) = 0.02128079
#
# Stress axis : x y z
#
# Youngs Moduli (GPa) = 50.27940 50.27940 54.30123
#
# Poissons Ratio (x) = 0.24988 0.36617
# Poissons Ratio (y) = 0.24988 0.36617
# Poissons Ratio (z) = 0.33905 0.33905
#
# Static dielectric constant tensor:
#      x y z
#    x 2.700230 0.000000 0.000000 
#    y 0.000000 2.700230 0.000000 
#    z 0.000000 0.000000 2.930000 
# 
# 
# High freq. dielectric constant tensor:
#      x y z
#    x 1.523640 0.000000 0.000000 
#    y 0.000000 1.523640 0.000000 
#    z 0.000000 0.000000 1.553490 
# 
# From -- ./inp_files/4092.got.cif
#   From: 2010.03.12/outbox.cif.g09.slc.cpg/sg187_3_cif.got.tgz:4092.got - 2010.04.01 11:58:23.
