data_PCOD8326924
_publ_section_title
;
Structure prediction by ZEFSAII (Michael W. Deem and Ramdas Pophale) SiO2 
 PCOD8326924
Probable space group: P -6 M 2
;
_chemical_formula_sum "Si O2"
_cell_formula_units_Z 72
_cell_length_a 23.656880
_cell_length_b 23.656880
_cell_length_c 9.326438
_cell_angle_alpha 90.000000
_cell_angle_beta 90.000000
_cell_angle_gamma 120.000000
_cell_volume 4520.238740
_symmetry_space_group_name_H-M "P -6 M 2"
_symmetry_group_IT_number 187
_symmetry_cell_setting 'hexagonal'
loop_
_space_group_symop_operation_xyz
x,y,z
-x+y,-x,-z
-y,x-y,z
x,y,-z
-x+y,-x,z
-y,x-y,-z
-y,-x,-z
-x+y,y,-z
x,x-y,-z
-x+y,y,z
x,x-y,z
-y,-x,z
loop_
_atom_site_type_symbol
_atom_site_label
_atom_site_fract_x
_atom_site_fract_y
_atom_site_fract_z
Si Si1 0.000110 0.129948 0.163946
Si Si2 0.143693 0.510216 0.660446
Si Si3 0.988868 0.324087 0.830345
Si Si4 0.443183 0.011171 0.339408
Si Si5 0.257991 0.194965 0.333641
Si Si6 0.598889 0.862287 0.165302
O O1 0.945083 0.054918 0.184069
O O2 0.988409 0.176448 0.268586
O O3 0.068454 0.136907 0.207961
O O4 0.001079 0.152525 0.000000
O O5 0.169870 0.512962 0.500000
O O6 0.168746 0.584373 0.716056
O O7 0.168485 0.471462 0.758362
O O8 0.066185 0.472048 0.661347
O O9 0.964974 0.373524 0.774997
O O10 0.943052 0.256176 0.751983
O O11 0.064277 0.349467 0.784235
O O12 0.978633 0.315334 0.000000
O O13 0.440005 0.035819 0.500000
O O14 0.518906 0.037811 0.295414
O O15 0.258690 0.212420 0.500000
O O16 0.272636 0.136318 0.311450
O O17 0.627924 0.813962 0.194998
O O18 0.583836 0.864477 0.000000
#
# Coordination Sequence:
#
# PCOD8326924 Si02
#       6
#    12  12  12  12  12  12
#     4   9  17  30  48  67  85 107 140 186 240 294
#     4   8  14  25  41  60  80 103 133 167 203 246
#     4  10  19  30  46  66  88 116 148 183 223 266
#     4   8  14  26  44  65  89 114 137 164 202 248
#     4  10  21  35  48  63  86 117 153 190 227 273
#     4   9  18  30  42  60  86 112 140 177 221 267
#
# _framework density 15.928362
#
# number of rings (size 3 to 8) (size 9 to 14) (size 15 to 20)
#    0.000    3.000    0.000    2.167    0.000    4.333 
#    0.000    5.000    0.000    1.333    0.000    0.000 
#    0.000    0.000    0.000    0.500    0.000    9.667 
#
# Total GULP energy -892410.151120 kJ/mol
# GULP energy per Si atom -12394.585432 kJ/mol
# Density = 1.589211 g / cm^3
# Si number density = 15.928362 Si / 1000 Ang^3
#
#
#
# Elastic Constant Matrix: (Units=GPa)
#
#
# Indices 1 2 3 4 5 6 
#
# 1 67.3274 38.2115 45.6175 0.0000 0.0001 0.0000
# 2 38.2115 67.3274 45.6175 0.0000 -0.0001 0.0000
# 3 45.6175 45.6175 87.3787 0.0000 0.0000 0.0000
# 4 0.0000 0.0000 0.0000 25.4636 0.0000 -0.0001
# 5 0.0001 -0.0001 0.0000 0.0000 25.4636 0.0000
# 6 0.0000 0.0000 0.0000 -0.0001 0.0000 14.5579
#
#
#
# Elastic Compliance Matrix: (Units=1/GPa)
#
#
# Indices 1 2 3 4 5 6 
#
# 1 0.025807 -0.008538 -0.009015 0.000000 0.000000 0.000000
# 2 -0.008538 0.025807 -0.009015 0.000000 0.000000 0.000000
# 3 -0.009015 -0.009015 0.020858 0.000000 0.000000 0.000000
# 4 0.000000 0.000000 0.000000 0.039272 0.000000 0.000000
# 5 0.000000 0.000000 0.000000 0.000000 0.039272 0.000000
# 6 0.000000 0.000000 0.000000 0.000000 0.000000 0.068691
#
#
# Mechanical properties :
#
#
# Convention : Reuss Voigt Hill
#
# Bulk Modulus (GPa) = 51.72370 53.43628 52.57999
# Shear Modulus (GPa) = 17.90255 19.26947 18.58601
#
# Velocity S-wave (km/s) = 3.35616 3.48193 3.41962
# Velocity P-wave (km/s) = 6.89649 7.05591 6.97666
#
# Compressibility (1/GPa) = 0.01933350
#
# Stress axis : x y z
#
# Youngs Moduli (GPa) = 38.74894 38.74894 47.94369
#
# Poissons Ratio (x) = 0.33085 0.43223
# Poissons Ratio (y) = 0.33085 0.43223
# Poissons Ratio (z) = 0.34934 0.34934
#
# Static dielectric constant tensor:
#      x y z
#    x 2.982610 0.000000 0.000000 
#    y 0.000000 2.982610 0.000000 
#    z 0.000000 0.000000 3.129260 
# 
# 
# High freq. dielectric constant tensor:
#      x y z
#    x 1.586070 0.000000 0.000000 
#    y 0.000000 1.586070 0.000000 
#    z 0.000000 0.000000 1.616790 
# 
# From -- ./inp_files/927.got.cif
#   From: 2010.03.12/outbox.cif.g09.slc.cpg/sg187_1_cif.got.tgz:927.got - 2010.04.01 11:58:23.
