data_PCOD8326195
_publ_section_title
;
Structure prediction by ZEFSAII (Michael W. Deem and Ramdas Pophale) SiO2 
 PCOD8326195
Probable space group: P 62 2 2
;
_chemical_formula_sum "Si O2"
_cell_formula_units_Z 48
_cell_length_a 17.883122
_cell_length_b 17.883122
_cell_length_c 7.984850
_cell_angle_alpha 90.000000
_cell_angle_beta 90.000000
_cell_angle_gamma 120.000000
_cell_volume 2211.485379
_symmetry_space_group_name_H-M "P 62 2 2"
_symmetry_group_IT_number 180
_symmetry_cell_setting 'hexagonal'
loop_
_space_group_symop_operation_xyz
x,y,z
x-y,x,1/3+z
-y,x-y,2/3+z
-x,-y,z
-x+y,-x,1/3+z
y,-x+y,2/3+z
x-y,-y,-z
-x,-x+y,1/3-z
y,x,2/3-z
-y,-x,2/3-z
-x+y,y,-z
x,x-y,1/3-z
loop_
_atom_site_type_symbol
_atom_site_label
_atom_site_fract_x
_atom_site_fract_y
_atom_site_fract_z
Si Si1 0.684347 0.210938 0.083613
Si Si2 0.649083 0.506591 0.887735
Si Si3 0.223805 0.914074 0.580894
Si Si4 0.905543 0.651755 0.628734
O O1 0.764733 0.303315 0.129732
O O2 0.651545 0.149749 0.245730
O O3 0.614793 0.229586 0.000000
O O4 0.709602 0.160210 0.948494
O O5 0.548276 0.451725 0.833334
O O6 0.694590 0.606200 0.832725
O O7 0.222959 0.915940 0.780650
O O8 0.132456 0.822751 0.558069
O O9 0.227747 0.000000 0.500000
O O10 0.000000 0.668904 0.666667
#
# Coordination Sequence:
#
# PCOD8326195 Si02
#       4
#    12  12  12  12
#     4  10  21  34  53  78 112 153 198 243 286 336
#     4  10  21  34  52  79 111 154 197 242 288 334
#     4  10  21  38  59  84 114 145 187 236 288 352
#     4  10  21  38  59  84 113 145 188 235 288 351
#
# _framework density 21.704868999999999
#
# number of rings (size 3 to 8) (size 9 to 14) (size 15 to 20)
#    0.000    2.000    0.000    3.000    3.500    6.000 
#    0.000    5.000    0.000    0.000    0.000   10.500 
#    0.000    0.000    0.000    0.000    0.000    0.000 
#
# Total GULP energy -594679.179386 kJ/mol
# GULP energy per Si atom -12389.149571 kJ/mol
# Density = 2.165547 g / cm^3
# Si number density = 21.704869 Si / 1000 Ang^3
#
#
#
# Elastic Constant Matrix: (Units=GPa)
#
#
# Indices 1 2 3 4 5 6 
#
# 1 73.3431 35.6198 18.8373 0.0000 0.0000 0.0000
# 2 35.6198 73.3431 18.8373 0.0000 0.0000 0.0000
# 3 18.8373 18.8373 72.0316 0.0000 0.0000 0.0000
# 4 0.0000 0.0000 0.0000 31.9221 0.0000 0.0000
# 5 0.0000 0.0000 0.0000 0.0000 31.9221 0.0000
# 6 0.0000 0.0000 0.0000 0.0000 0.0000 18.8617
#
#
#
# Elastic Compliance Matrix: (Units=1/GPa)
#
#
# Indices 1 2 3 4 5 6 
#
# 1 0.018299 -0.008210 -0.002639 0.000000 0.000000 0.000000
# 2 -0.008210 0.018299 -0.002639 0.000000 0.000000 0.000000
# 3 -0.002639 -0.002639 0.015263 0.000000 0.000000 0.000000
# 4 0.000000 0.000000 0.000000 0.031326 0.000000 0.000000
# 5 0.000000 0.000000 0.000000 0.000000 0.031326 0.000000
# 6 0.000000 0.000000 0.000000 0.000000 0.000000 0.053018
#
#
# Mechanical properties :
#
#
# Convention : Reuss Voigt Hill
#
# Bulk Modulus (GPa) = 40.18015 40.58962 40.38489
# Shear Modulus (GPa) = 24.65471 26.23607 25.44539
#
# Velocity S-wave (km/s) = 3.37398 3.48050 3.42765
# Velocity P-wave (km/s) = 5.80780 5.90704 5.85763
#
# Compressibility (1/GPa) = 0.02488791
#
# Stress axis : x y z
#
# Youngs Moduli (GPa) = 54.64693 54.64693 65.51843
#
# Poissons Ratio (x) = 0.44863 0.17288
# Poissons Ratio (y) = 0.44863 0.17288
# Poissons Ratio (z) = 0.14419 0.14419
#
# Static dielectric constant tensor:
#      x y z
#    x 4.328300 0.000000 0.000000 
#    y 0.000000 4.328300 0.000000 
#    z 0.000000 0.000000 3.957720 
# 
# 
# High freq. dielectric constant tensor:
#      x y z
#    x 1.832540 0.000000 0.000000 
#    y 0.000000 1.832540 0.000000 
#    z 0.000000 0.000000 1.862800 
# 
# From -- ./inp_files/2656.got.cif
#   From: 2010.03.12/outbox.cif.g09.slc.cpg/sg180_2_cif.got.tgz:2656.got - 2010.04.01 11:35:50.
