data_PCOD8326533
_publ_section_title
;
Structure prediction by ZEFSAII (Michael W. Deem and Ramdas Pophale) SiO2 
 PCOD8326533
Probable space group: P 6 M M
;
_chemical_formula_sum "Si O2"
_cell_formula_units_Z 96
_cell_length_a 18.086017
_cell_length_b 18.086017
_cell_length_c 20.751395
_cell_angle_alpha 90.000000
_cell_angle_beta 90.000000
_cell_angle_gamma 120.000000
_cell_volume 5878.463126
_symmetry_space_group_name_H-M "P 6 M M"
_symmetry_group_IT_number 183
_symmetry_cell_setting 'hexagonal'
loop_
_space_group_symop_operation_xyz
x,y,z
x-y,x,z
-y,x-y,z
-x,-y,z
-x+y,-x,z
y,-x+y,z
-x+y,y,z
x,x-y,z
-y,-x,z
y,x,z
x-y,-y,z
-x,-x+y,z
loop_
_atom_site_type_symbol
_atom_site_label
_atom_site_fract_x
_atom_site_fract_y
_atom_site_fract_z
Si Si1 0.732899 0.095980 0.854330
Si Si2 0.668431 0.502866 0.600973
Si Si3 0.100694 0.736578 0.353305
Si Si4 0.098892 0.467171 0.468710
Si Si5 0.101078 0.632584 0.235916
Si Si6 0.493725 0.331366 0.742936
Si Si7 0.094028 0.634474 0.096397
Si Si8 0.166928 0.497631 0.962783
O O1 0.834184 0.165817 0.852869
O O2 0.684505 0.104320 0.792290
O O3 0.687606 0.106650 0.917268
O O4 0.718615 0.000000 0.854816
O O5 0.734570 0.469139 0.593608
O O6 0.574465 0.425536 0.599097
O O7 0.677616 0.561089 0.539051
O O8 0.679777 0.547127 0.670923
O O9 0.159754 0.840247 0.353291
O O10 0.131482 0.703131 0.413873
O O11 0.126728 0.703211 0.290394
O O12 0.000000 0.707755 0.355288
O O13 0.141727 0.570864 0.462427
O O14 0.000000 0.428036 0.458121
O O15 0.138315 0.569158 0.252159
O O16 0.134358 0.678288 0.165758
O O17 0.000000 0.575394 0.231305
O O18 0.523923 0.261962 0.753922
O O19 0.575296 0.424705 0.753570
O O20 0.085416 0.542708 0.097417
O O21 0.000000 0.622887 0.086891
O O22 0.152191 0.687865 0.036425
O O23 0.265733 0.531466 0.945606
O O24 0.145964 0.572982 0.951420
#
# Coordination Sequence:
#
# PCOD8326533 Si02
#       8
#    12  12  12  12  12  12  12  12
#     4  10  21  35  50  68  88 111 140 178 224 268
#     4   9  16  26  40  59  85 117 150 179 205 235
#     4  10  19  30  45  63  83 109 142 181 222 265
#     4   9  17  28  42  61  84 110 140 174 214 259
#     4   8  14  26  44  64  85 110 140 174 214 258
#     4   9  17  28  43  64  92 126 159 186 209 236
#     4   8  14  25  41  60  82 111 148 185 216 247
#     4  10  19  29  42  62  91 126 159 187 212 240
#
# _framework density 16.330798999999999
#
# number of rings (size 3 to 8) (size 9 to 14) (size 15 to 20)
#    0.000    2.875    0.000    2.625    0.000    5.000 
#    0.000    2.500    0.000    3.000    0.000    0.000 
#    0.000    0.000    0.000    0.000    0.000   32.500 
#
# Total GULP energy -1189320.183062 kJ/mol
# GULP energy per Si atom -12388.751907 kJ/mol
# Density = 1.629363 g / cm^3
# Si number density = 16.330799 Si / 1000 Ang^3
#
#
#
# Elastic Constant Matrix: (Units=GPa)
#
#
# Indices 1 2 3 4 5 6 
#
# 1 64.1747 34.5211 33.6772 0.0000 0.0000 0.0000
# 2 34.5211 64.1747 33.6772 0.0000 0.0000 0.0000
# 3 33.6772 33.6772 125.8414 0.0000 0.0000 0.0000
# 4 0.0000 0.0000 0.0000 27.8012 0.0000 0.0000
# 5 0.0000 0.0000 0.0000 0.0000 27.8012 0.0000
# 6 0.0000 0.0000 0.0000 0.0000 0.0000 14.8268
#
#
#
# Elastic Compliance Matrix: (Units=1/GPa)
#
#
# Indices 1 2 3 4 5 6 
#
# 1 0.023059 -0.010663 -0.003317 0.000000 0.000000 0.000000
# 2 -0.010663 0.023059 -0.003317 0.000000 0.000000 0.000000
# 3 -0.003317 -0.003317 0.009722 0.000000 0.000000 0.000000
# 4 0.000000 0.000000 0.000000 0.035970 0.000000 0.000000
# 5 0.000000 0.000000 0.000000 0.000000 0.035970 0.000000
# 6 0.000000 0.000000 0.000000 0.000000 0.000000 0.067445
#
#
# Mechanical properties :
#
#
# Convention : Reuss Voigt Hill
#
# Bulk Modulus (GPa) = 47.07058 50.88240 48.97649
# Shear Modulus (GPa) = 21.10564 24.24018 22.67291
#
# Velocity S-wave (km/s) = 3.59887 3.85687 3.73010
# Velocity P-wave (km/s) = 6.79374 7.14555 6.97187
#
# Compressibility (1/GPa) = 0.02124469
#
# Stress axis : x y z
#
# Youngs Moduli (GPa) = 43.36626 43.36626 102.85852
#
# Poissons Ratio (x) = 0.46243 0.34122
# Poissons Ratio (y) = 0.46243 0.34122
# Poissons Ratio (z) = 0.14386 0.14386
#
# Static dielectric constant tensor:
#      x y z
#    x 2.803580 0.000000 0.000000 
#    y 0.000000 2.803580 0.000000 
#    z 0.000000 0.000000 3.707830 
# 
# 
# High freq. dielectric constant tensor:
#      x y z
#    x 1.589750 0.000000 0.000000 
#    y 0.000000 1.589750 0.000000 
#    z 0.000000 0.000000 1.656960 
# 
# From -- ./inp_files/3123.got.cif
#   From: 2010.03.12/outbox.cif.g09.slc.cpg/sg183_2_cif.got.tgz:3123.got - 2010.04.01 11:53:02.
