data_PCOD8326183
_publ_section_title
;
Structure prediction by ZEFSAII (Michael W. Deem and Ramdas Pophale) SiO2 
 PCOD8326183
Probable space group: P 62 2 2
;
_chemical_formula_sum "Si O2"
_cell_formula_units_Z 75
_cell_length_a 14.009727
_cell_length_b 14.009727
_cell_length_c 19.955324
_cell_angle_alpha 90.000000
_cell_angle_beta 90.000000
_cell_angle_gamma 120.000000
_cell_volume 3391.944677
_symmetry_space_group_name_H-M "P 62 2 2"
_symmetry_group_IT_number 180
_symmetry_cell_setting 'hexagonal'
loop_
_space_group_symop_operation_xyz
x,y,z
x-y,x,1/3+z
-y,x-y,2/3+z
-x,-y,z
-x+y,-x,1/3+z
y,-x+y,2/3+z
x-y,-y,-z
-x,-x+y,1/3-z
y,x,2/3-z
-y,-x,2/3-z
-x+y,y,-z
x,x-y,1/3-z
loop_
_atom_site_type_symbol
_atom_site_label
_atom_site_fract_x
_atom_site_fract_y
_atom_site_fract_z
Si Si1 0.466631 0.313138 0.236875
Si Si2 0.500000 0.000000 0.000000
Si Si3 0.000000 0.500000 0.986135
Si Si4 0.005646 0.185676 0.367907
Si Si5 0.737434 0.153302 0.648481
Si Si6 0.456022 0.745220 0.856759
Si Si7 0.864316 0.728631 0.500000
Si Si8 0.274500 0.845597 0.271548
O O1 0.459731 0.394051 0.288595
O O2 0.461482 0.211658 0.279468
O O3 0.578691 0.377344 0.194541
O O4 0.358427 0.263421 0.188448
O O5 0.084027 0.489612 0.937393
O O6 0.061223 0.610073 0.031394
O O7 0.938113 0.061888 0.333334
O O8 0.913479 0.212997 0.389355
O O9 0.092402 0.280712 0.316359
O O10 0.069331 0.191344 0.437256
O O11 0.769988 0.244959 0.591686
O O12 0.380928 0.619073 0.833334
O O13 0.548306 0.790796 0.800279
O O14 0.240228 0.759773 0.333334
#
# Coordination Sequence:
#
# PCOD8326183 Si02
#       8
#    12   3   6  12  12  12   6  12
#     4  11  23  38  59 101 140 180 222 277 342 433
#     4  12  24  38  64  96 152 176 224 282 364 402
#     4  10  20  37  63  80 126 180 218 260 316 394
#     4   9  21  42  65  92 130 171 229 294 346 406
#     4  10  21  40  58  92 132 174 229 284 328 407
#     4  12  22  35  60  92 140 182 217 267 343 410
#     4  10  22  40  68 100 135 181 230 284 356 432
#     4  10  22  37  55  88 125 175 222 261 317 400
#
# _framework density 22.11121
#
# number of rings (size 3 to 8) (size 9 to 14) (size 15 to 20)
#    0.000    1.600    2.400    1.920    6.720    0.000 
#    0.000   13.200    0.000    0.000    0.000   44.800 
#    0.000    0.000    0.000    0.000    0.000    0.000 
#
# Total GULP energy -929177.412699 kJ/mol
# GULP energy per Si atom -12389.032169 kJ/mol
# Density = 2.206088 g / cm^3
# Si number density = 22.111210 Si / 1000 Ang^3
#
#
#
# Elastic Constant Matrix: (Units=GPa)
#
#
# Indices 1 2 3 4 5 6 
#
# 1 74.0812 31.8822 35.6900 0.0000 0.0000 0.0000
# 2 31.8822 74.0812 35.6900 0.0000 0.0000 0.0000
# 3 35.6900 35.6900 117.2352 0.0000 0.0000 0.0000
# 4 0.0000 0.0000 0.0000 -0.9844 0.0000 0.0000
# 5 0.0000 0.0000 0.0000 0.0000 -0.9844 0.0000
# 6 0.0000 0.0000 0.0000 0.0000 0.0000 21.0995
#
#
#
# Elastic Compliance Matrix: (Units=1/GPa)
#
#
# Indices 1 2 3 4 5 6 
#
# 1 0.017785 -0.005913 -0.003614 0.000000 0.000000 0.000000
# 2 -0.005913 0.017785 -0.003614 0.000000 0.000000 0.000000
# 3 -0.003614 -0.003614 0.010730 0.000000 0.000000 0.000000
# 4 0.000000 0.000000 0.000000 -1.015874 0.000000 0.000000
# 5 0.000000 0.000000 0.000000 0.000000 -1.015874 0.000000
# 6 0.000000 0.000000 0.000000 0.000000 0.000000 0.047394
#
#
# Mechanical properties :
#
#
# Convention : Reuss Voigt Hill
#
# Bulk Modulus (GPa) = 49.95646 52.43576 51.19611
# Shear Modulus (GPa) = -2.62453 14.63517 6.00532
#
# Velocity S-wave (km/s) = -1.09066 2.57551 1.64981
# Velocity P-wave (km/s) = 4.58871 5.71055 5.18009
#
# Compressibility (1/GPa) = 0.02001743
#
# Stress axis : x y z
#
# Youngs Moduli (GPa) = 56.22864 56.22864 93.19334
#
# Poissons Ratio (x) = 0.33246 0.33681
# Poissons Ratio (y) = 0.33246 0.33681
# Poissons Ratio (z) = 0.20322 0.20322
#
# Static dielectric constant tensor:
#      x y z
#    x 4.396540 0.000000 0.000000 
#    y 0.000000 4.396540 0.000000 
#    z 0.000000 0.000000 4.073530 
# 
# 
# High freq. dielectric constant tensor:
#      x y z
#    x 1.862160 0.000000 0.000000 
#    y 0.000000 1.862160 0.000000 
#    z 0.000000 0.000000 1.866620 
# 
# From -- ./inp_files/9242.got.cif
#   From: 2010.03.12/outbox.cif.g09.slc.cpg/sg180_5_cif.got.tgz:9242.got - 2010.04.01 11:35:50.
