data_PCOD8326204
_publ_section_title
;
Structure prediction by ZEFSAII (Michael W. Deem and Ramdas Pophale) SiO2 
 PCOD8326204
Probable space group: P 62 2 2
;
_chemical_formula_sum "Si O2"
_cell_formula_units_Z 75
_cell_length_a 11.314173
_cell_length_b 11.314173
_cell_length_c 33.397958
_cell_angle_alpha 90.000000
_cell_angle_beta 90.000000
_cell_angle_gamma 120.000000
_cell_volume 3702.509453
_symmetry_space_group_name_H-M "P 62 2 2"
_symmetry_group_IT_number 180
_symmetry_cell_setting 'hexagonal'
loop_
_space_group_symop_operation_xyz
x,y,z
x-y,x,1/3+z
-y,x-y,2/3+z
-x,-y,z
-x+y,-x,1/3+z
y,-x+y,2/3+z
x-y,-y,-z
-x,-x+y,1/3-z
y,x,2/3-z
-y,-x,2/3-z
-x+y,y,-z
x,x-y,1/3-z
loop_
_atom_site_type_symbol
_atom_site_label
_atom_site_fract_x
_atom_site_fract_y
_atom_site_fract_z
Si Si1 0.613033 0.386968 0.333334
Si Si2 0.346499 0.443223 0.135644
Si Si3 0.300753 0.300753 0.333334
Si Si4 0.193445 0.349471 0.545705
Si Si5 0.154598 0.032753 0.923534
Si Si6 0.402865 0.174577 0.455349
Si Si7 0.679944 0.307720 0.914805
Si Si8 0.000000 0.500000 0.166667
O O1 0.449368 0.316074 0.336650
O O2 0.649135 0.320012 0.295831
O O3 0.500000 0.500000 0.152305
O O4 0.320699 0.315483 0.108241
O O5 0.241173 0.378726 0.171950
O O6 0.324843 0.552006 0.109874
O O7 0.215401 0.208933 0.295872
O O8 0.198046 0.396091 0.500000
O O9 0.202430 0.469383 0.573343
O O10 0.056205 0.210907 0.553127
O O11 0.267408 0.181931 0.905887
O O12 0.000000 0.000000 0.931212
O O13 0.522317 0.295533 0.430404
O O14 0.460664 0.079895 0.468963
#
# Coordination Sequence:
#
# PCOD8326204 Si02
#       8
#     6  12   6  12  12  12  12   3
#     4  11  22  38  76 100 124 170 237 296 332 399
#     4  10  21  38  65  96 134 168 209 277 352 402
#     4  11  23  46  66  98 133 177 232 290 344 391
#     4  11  22  38  65 101 136 167 215 282 348 413
#     4  12  27  41  67  94 138 185 230 277 339 414
#     4  12  24  41  68  96 135 181 222 278 342 412
#     4  11  21  40  67  99 129 171 224 284 344 390
#     4  12  28  44  62  96 144 184 222 254 352 440
#
# _framework density 20.256530999999999
#
# number of rings (size 3 to 8) (size 9 to 14) (size 15 to 20)
#    0.000    0.800    6.400    2.160    2.240    0.320 
#    0.000    0.000   12.320    0.000    0.000    0.000 
#    0.000    0.000    0.000    0.000    0.000    0.000 
#
# Total GULP energy -929283.846882 kJ/mol
# GULP energy per Si atom -12390.451292 kJ/mol
# Density = 2.021043 g / cm^3
# Si number density = 20.256531 Si / 1000 Ang^3
#
#
#
# Elastic Constant Matrix: (Units=GPa)
#
#
# Indices 1 2 3 4 5 6 
#
# 1 109.6332 38.9324 39.2962 0.0000 0.0000 0.0000
# 2 38.9324 109.6332 39.2962 0.0000 0.0000 0.0000
# 3 39.2962 39.2962 116.6580 0.0000 0.0000 0.0000
# 4 0.0000 0.0000 0.0000 -18.9398 0.0000 0.0000
# 5 0.0000 0.0000 0.0000 0.0000 -18.9399 0.0000
# 6 0.0000 0.0000 0.0000 0.0000 0.0000 35.3504
#
#
#
# Elastic Compliance Matrix: (Units=1/GPa)
#
#
# Indices 1 2 3 4 5 6 
#
# 1 0.011167 -0.002977 -0.002759 0.000000 0.000000 0.000000
# 2 -0.002977 0.011167 -0.002759 0.000000 0.000000 0.000000
# 3 -0.002759 -0.002759 0.010431 0.000000 0.000000 0.000000
# 4 0.000000 0.000000 0.000000 -0.052799 0.000000 0.000000
# 5 0.000000 0.000000 0.000000 0.000000 -0.052799 0.000000
# 6 0.000000 0.000000 0.000000 0.000000 0.000000 0.028288
#
#
# Mechanical properties :
#
#
# Convention : Reuss Voigt Hill
#
# Bulk Modulus (GPa) = 63.38756 63.44155 63.41455
# Shear Modulus (GPa) = -224.25890 14.05412 -105.10239
#
# Velocity S-wave (km/s) = -10.53327 2.63688 -7.21099
# Velocity P-wave (km/s) = 10.79688 6.37635 6.16096
#
# Compressibility (1/GPa) = 0.01577597
#
# Stress axis : x y z
#
# Youngs Moduli (GPa) = 89.54692 89.54692 95.87000
#
# Poissons Ratio (x) = 0.26656 0.26450
# Poissons Ratio (y) = 0.26656 0.26450
# Poissons Ratio (z) = 0.24706 0.24706
#
# Static dielectric constant tensor:
#      x y z
#    x 5.809960 0.000000 0.000000 
#    y 0.000000 5.809960 0.000000 
#    z 0.000000 0.000000 3.597570 
# 
# 
# High freq. dielectric constant tensor:
#      x y z
#    x 1.792850 0.000000 0.000000 
#    y 0.000000 1.792850 0.000000 
#    z 0.000000 0.000000 1.783560 
# 
# From -- ./inp_files/12395.got.cif
#   From: 2010.03.12/outbox.cif.g09.slc.cpg/sg180_7_cif.got.tgz:12395.got - 2010.04.01 11:35:50.
