data_PCOD8326359
_publ_section_title
;
Structure prediction by ZEFSAII (Michael W. Deem and Ramdas Pophale) SiO2 
 PCOD8326359
Probable space group: P 64 2 2
;
_chemical_formula_sum "Si O2"
_cell_formula_units_Z 42
_cell_length_a 13.721991
_cell_length_b 13.721991
_cell_length_c 11.391600
_cell_angle_alpha 90.000000
_cell_angle_beta 90.000000
_cell_angle_gamma 120.000000
_cell_volume 1857.588950
_symmetry_space_group_name_H-M "P 64 2 2"
_symmetry_group_IT_number 181
_symmetry_cell_setting 'hexagonal'
loop_
_space_group_symop_operation_xyz
x,y,z
x-y,x,2/3+z
-y,x-y,1/3+z
-x,-y,z
-x+y,-x,2/3+z
y,-x+y,1/3+z
x-y,-y,-z
-x,-x+y,2/3-z
y,x,1/3-z
-y,-x,1/3-z
-x+y,y,-z
x,x-y,2/3-z
loop_
_atom_site_type_symbol
_atom_site_label
_atom_site_fract_x
_atom_site_fract_y
_atom_site_fract_z
Si Si1 0.594028 0.188055 0.000000
Si Si2 0.849124 0.756281 0.753213
Si Si3 0.161184 0.732961 0.054076
Si Si4 0.500000 0.500000 0.484574
Si Si5 0.085328 0.914673 0.666667
O O1 0.547199 0.270231 0.963432
O O2 0.590317 0.105106 0.896095
O O3 0.752179 0.752179 0.666667
O O4 0.862663 0.648696 0.726586
O O5 0.963595 0.869881 0.721616
O O6 0.828018 0.755644 0.893611
O O7 0.184868 0.815133 0.166667
O O8 0.050739 0.611204 0.070766
#
# Coordination Sequence:
#
# PCOD8326359 Si02
#       5
#     6  12  12   6   6
#     4   9  20  36  65  98 130 165 221 282 326 382
#     4  11  22  37  63  93 129 175 221 265 330 394
#     4  10  21  37  66  97 122 169 219 276 333 385
#     4   9  20  38  62  97 132 160 224 274 322 416
#     4  10  23  38  55  92 138 169 204 271 324 384
#
# _framework density 22.609953000000001
#
# number of rings (size 3 to 8) (size 9 to 14) (size 15 to 20)
#    0.000    2.000    0.000    3.000   12.000    2.286 
#    0.000    1.429   18.857    1.714    7.429    0.000 
#    0.000    0.000    0.000    0.000    0.000    0.000 
#
# Total GULP energy -520430.872929 kJ/mol
# GULP energy per Si atom -12391.211260 kJ/mol
# Density = 2.255849 g / cm^3
# Si number density = 22.609953 Si / 1000 Ang^3
#
#
#
# Elastic Constant Matrix: (Units=GPa)
#
#
# Indices 1 2 3 4 5 6 
#
# 1 87.5779 35.7594 32.4520 0.0000 0.0000 0.0000
# 2 35.7594 87.5779 32.4520 0.0000 0.0000 0.0000
# 3 32.4520 32.4520 152.9744 0.0000 0.0000 0.0000
# 4 0.0000 0.0000 0.0000 25.8170 0.0000 0.0000
# 5 0.0000 0.0000 0.0000 0.0000 25.8170 0.0000
# 6 0.0000 0.0000 0.0000 0.0000 0.0000 25.9093
#
#
#
# Elastic Compliance Matrix: (Units=1/GPa)
#
#
# Indices 1 2 3 4 5 6 
#
# 1 0.014212 -0.005086 -0.001936 0.000000 0.000000 0.000000
# 2 -0.005086 0.014212 -0.001936 0.000000 0.000000 0.000000
# 3 -0.001936 -0.001936 0.007359 0.000000 0.000000 0.000000
# 4 0.000000 0.000000 0.000000 0.038734 0.000000 0.000000
# 5 0.000000 0.000000 0.000000 0.000000 0.038734 0.000000
# 6 0.000000 0.000000 0.000000 0.000000 0.000000 0.038596
#
#
# Mechanical properties :
#
#
# Convention : Reuss Voigt Hill
#
# Bulk Modulus (GPa) = 55.96797 58.82854 57.39826
# Shear Modulus (GPa) = 28.45443 30.67313 29.56378
#
# Velocity S-wave (km/s) = 3.55137 3.68723 3.61994
# Velocity P-wave (km/s) = 6.45165 6.64853 6.55083
#
# Compressibility (1/GPa) = 0.01786736
#
# Stress axis : x y z
#
# Youngs Moduli (GPa) = 70.36106 70.36106 135.89721
#
# Poissons Ratio (x) = 0.35784 0.26312
# Poissons Ratio (y) = 0.35784 0.26312
# Poissons Ratio (z) = 0.13623 0.13623
#
# Static dielectric constant tensor:
#      x y z
#    x 3.806300 0.000000 0.000000 
#    y 0.000000 3.806300 0.000000 
#    z 0.000000 0.000000 4.358270 
# 
# 
# High freq. dielectric constant tensor:
#      x y z
#    x 1.873440 0.000000 0.000000 
#    y 0.000000 1.873440 0.000000 
#    z 0.000000 0.000000 1.885810 
# 
# From -- ./inp_files/4246.got.cif
#   From: 2010.03.12/outbox.cif.g09.slc.cpg/sg181_3_cif.got.tgz:4246.got - 2010.04.01 11:42:41.
