data_PCOD8326207
_publ_section_title
;
Structure prediction by ZEFSAII (Michael W. Deem and Ramdas Pophale) SiO2 
 PCOD8326207
Probable space group: P 62 2 2
;
_chemical_formula_sum "Si O2"
_cell_formula_units_Z 51
_cell_length_a 17.703182
_cell_length_b 17.703182
_cell_length_c 7.816553
_cell_angle_alpha 90.000000
_cell_angle_beta 90.000000
_cell_angle_gamma 120.000000
_cell_volume 2121.527067
_symmetry_space_group_name_H-M "P 62 2 2"
_symmetry_group_IT_number 180
_symmetry_cell_setting 'hexagonal'
loop_
_space_group_symop_operation_xyz
x,y,z
x-y,x,1/3+z
-y,x-y,2/3+z
-x,-y,z
-x+y,-x,1/3+z
y,-x+y,2/3+z
x-y,-y,-z
-x,-x+y,1/3-z
y,x,2/3-z
-y,-x,2/3-z
-x+y,y,-z
x,x-y,1/3-z
loop_
_atom_site_type_symbol
_atom_site_label
_atom_site_fract_x
_atom_site_fract_y
_atom_site_fract_z
Si Si1 0.642856 0.609226 0.101573
Si Si2 0.114193 0.828279 0.523479
Si Si3 0.500000 0.000000 0.000000
Si Si4 0.734822 0.367411 0.166667
Si Si5 0.436829 0.299190 0.906117
Si Si6 0.898711 0.000000 0.000000
O O1 0.726552 0.687762 0.195244
O O2 0.586696 0.525407 0.222282
O O3 0.576738 0.641191 0.042262
O O4 0.679880 0.577922 0.951161
O O5 0.134763 0.865238 0.333334
O O6 0.198883 0.832996 0.613581
O O7 0.082856 0.887980 0.619632
O O8 0.682636 0.317365 0.333334
O O9 0.787040 0.464335 0.244483
O O10 0.965691 0.034310 0.833334
#
# Coordination Sequence:
#
# PCOD8326207 Si02
#       6
#    12  12   3   6  12   6
#     4  10  21  39  69 101 135 186 240 310 378 442
#     4  10  22  46  74 105 141 188 246 308 383 461
#     4  12  22  34  56 106 136 162 254 316 360 444
#     4  12  26  49  66 102 148 204 252 306 379 452
#     4  10  22  46  70  95 145 195 240 307 384 454
#     4  12  27  48  75 112 154 196 250 312 384 464
#
# _framework density 24.039289
#
# number of rings (size 3 to 8) (size 9 to 14) (size 15 to 20)
#    0.000    1.412    0.000    5.647    0.000    4.706 
#   25.412    2.941    0.000    0.000    0.000    0.000 
#    0.000    0.000    0.000    0.000    0.000    0.000 
#
# Total GULP energy -632072.154935 kJ/mol
# GULP energy per Si atom -12393.571665 kJ/mol
# Density = 2.398457 g / cm^3
# Si number density = 24.039289 Si / 1000 Ang^3
#
#
#
# Elastic Constant Matrix: (Units=GPa)
#
#
# Indices 1 2 3 4 5 6 
#
# 1 142.5735 63.3487 43.8864 0.0000 0.0000 0.0000
# 2 63.3487 142.5735 43.8864 0.0000 0.0000 0.0000
# 3 43.8864 43.8864 96.5308 0.0000 0.0000 0.0000
# 4 0.0000 0.0000 0.0000 2.7599 0.0000 0.0000
# 5 0.0000 0.0000 0.0000 0.0000 2.7599 0.0000
# 6 0.0000 0.0000 0.0000 0.0000 0.0000 39.6124
#
#
#
# Elastic Compliance Matrix: (Units=1/GPa)
#
#
# Indices 1 2 3 4 5 6 
#
# 1 0.009323 -0.003299 -0.002738 0.000000 0.000000 0.000000
# 2 -0.003299 0.009323 -0.002738 0.000000 0.000000 0.000000
# 3 -0.002738 -0.002738 0.012849 0.000000 0.000000 0.000000
# 4 0.000000 0.000000 0.000000 0.362338 0.000000 0.000000
# 5 0.000000 0.000000 0.000000 0.000000 0.362338 0.000000
# 6 0.000000 0.000000 0.000000 0.000000 0.000000 0.025245
#
#
# Mechanical properties :
#
#
# Convention : Reuss Voigt Hill
#
# Bulk Modulus (GPa) = 71.72364 75.99119 73.85742
# Shear Modulus (GPa) = 6.22188 24.39684 15.30936
#
# Velocity S-wave (km/s) = 1.61054 3.18916 2.52632
# Velocity P-wave (km/s) = 5.77574 6.72614 6.26898
#
# Compressibility (1/GPa) = 0.01394240
#
# Stress axis : x y z
#
# Youngs Moduli (GPa) = 107.26292 107.26292 77.82448
#
# Poissons Ratio (x) = 0.35391 0.21312
# Poissons Ratio (y) = 0.35391 0.21312
# Poissons Ratio (z) = 0.29374 0.29374
#
# Static dielectric constant tensor:
#      x y z
#    x 4.456610 0.000000 0.000000 
#    y 0.000000 4.456610 0.000000 
#    z 0.000000 0.000000 4.651020 
# 
# 
# High freq. dielectric constant tensor:
#      x y z
#    x 1.957350 0.000000 0.000000 
#    y 0.000000 1.957350 0.000000 
#    z 0.000000 0.000000 1.963140 
# 
# From -- ./inp_files/2808.got.cif
#   From: 2010.03.12/outbox.cif.g09.slc.cpg/sg180_2_cif.got.tgz:2808.got - 2010.04.01 11:35:50.
