data_PCOD8326958
_publ_section_title
;
Structure prediction by ZEFSAII (Michael W. Deem and Ramdas Pophale) SiO2 
 PCOD8326958
Probable space group: P -6 M 2
;
_chemical_formula_sum "Si O2"
_cell_formula_units_Z 96
_cell_length_a 17.303752
_cell_length_b 17.303752
_cell_length_c 20.504657
_cell_angle_alpha 90.000000
_cell_angle_beta 90.000000
_cell_angle_gamma 120.000000
_cell_volume 5316.963816
_symmetry_space_group_name_H-M "P -6 M 2"
_symmetry_group_IT_number 187
_symmetry_cell_setting 'hexagonal'
loop_
_space_group_symop_operation_xyz
x,y,z
-x+y,-x,-z
-y,x-y,z
x,y,-z
-x+y,-x,z
-y,x-y,-z
-y,-x,-z
-x+y,y,-z
x,x-y,-z
-x+y,y,z
x,x-y,z
-y,-x,z
loop_
_atom_site_type_symbol
_atom_site_label
_atom_site_fract_x
_atom_site_fract_y
_atom_site_fract_z
Si Si1 0.666592 0.505848 0.108224
Si Si2 0.180597 0.000497 0.733301
Si Si3 0.032124 0.428154 0.927986
Si Si4 0.087878 0.733252 0.807727
Si Si5 0.393904 0.962500 0.573323
Si Si6 0.841303 0.507969 0.257016
Si Si7 0.339682 0.257044 0.358205
Si Si8 0.512307 0.846694 0.696547
O O1 0.764131 0.528261 0.085002
O O2 0.600369 0.399631 0.102261
O O3 0.633901 0.559608 0.064065
O O4 0.666246 0.536035 0.182573
O O5 0.082849 0.917152 0.718788
O O6 0.228441 0.978624 0.792697
O O7 0.173639 0.086820 0.753838
O O8 0.238366 0.019694 0.667007
O O9 0.056333 0.528167 0.906619
O O10 0.066840 0.384986 0.875646
O O11 0.072599 0.430727 0.000000
O O12 0.187464 0.812537 0.815633
O O13 0.085506 0.672982 0.746720
O O14 0.364873 0.925626 0.500000
O O15 0.500420 0.000840 0.582642
O O16 0.339008 0.882120 0.623357
O O17 0.367943 0.039056 0.584231
O O18 0.736482 0.472963 0.266152
O O19 0.859977 0.429989 0.279997
O O20 0.902310 0.596223 0.297344
O O21 0.351943 0.175972 0.384682
O O22 0.421484 0.842968 0.716268
O O23 0.496628 0.748314 0.700641
#
# Coordination Sequence:
#
# PCOD8326958 Si02
#       8
#    12  12  12  12  12  12  12  12
#     4   9  17  28  44  67  98 135 173 209 248 296
#     4  10  20  35  55  80 108 136 170 217 277 337
#     4  10  21  35  50  73 106 141 174 210 257 308
#     4  10  20  35  57  81 104 133 172 218 263 311
#     4  10  21  35  51  75 110 148 181 215 259 310
#     4   9  16  26  43  69 100 133 169 214 264 312
#     4  10  19  31  50  74 101 135 180 227 267 314
#     4  10  20  35  56  81 108 137 171 209 253 305
#
# _framework density 18.055416999999998
#
# number of rings (size 3 to 8) (size 9 to 14) (size 15 to 20)
#    0.000    2.250    1.250    2.000    0.000    3.500 
#    0.000    0.000    0.000    2.000    0.000    0.000 
#    0.000    2.000    0.000    0.000    0.000    0.000 
#
# Total GULP energy -1190195.366906 kJ/mol
# GULP energy per Si atom -12397.868405 kJ/mol
# Density = 1.801432 g / cm^3
# Si number density = 18.055417 Si / 1000 Ang^3
#
#
#
# Elastic Constant Matrix: (Units=GPa)
#
#
# Indices 1 2 3 4 5 6 
#
# 1 92.9345 44.7442 39.5471 0.0000 -0.0003 0.0000
# 2 44.7442 92.9345 39.5471 0.0000 0.0003 0.0000
# 3 39.5471 39.5471 91.6382 0.0000 0.0000 0.0000
# 4 0.0000 0.0000 0.0000 19.5335 0.0000 0.0003
# 5 -0.0003 0.0003 0.0000 0.0000 19.5335 0.0000
# 6 0.0000 0.0000 0.0000 0.0003 0.0000 24.0951
#
#
#
# Elastic Compliance Matrix: (Units=1/GPa)
#
#
# Indices 1 2 3 4 5 6 
#
# 1 0.015204 -0.005547 -0.004168 0.000000 0.000000 0.000000
# 2 -0.005547 0.015204 -0.004168 0.000000 0.000000 0.000000
# 3 -0.004168 -0.004168 0.014510 0.000000 0.000000 0.000000
# 4 0.000000 0.000000 0.000000 0.051194 0.000000 -0.000001
# 5 0.000000 0.000000 0.000000 0.000000 0.051194 0.000000
# 6 0.000000 0.000000 0.000000 -0.000001 0.000000 0.041502
#
#
# Mechanical properties :
#
#
# Convention : Reuss Voigt Hill
#
# Bulk Modulus (GPa) = 58.29622 58.35379 58.32501
# Shear Modulus (GPa) = 22.49300 22.87701 22.68500
#
# Velocity S-wave (km/s) = 3.53338 3.56342 3.54843
# Velocity P-wave (km/s) = 7.00028 7.02282 7.01156
#
# Compressibility (1/GPa) = 0.01715377
#
# Stress axis : x y z
#
# Youngs Moduli (GPa) = 65.77060 65.77060 68.91896
#
# Poissons Ratio (x) = 0.36481 0.28724
# Poissons Ratio (y) = 0.36481 0.28724
# Poissons Ratio (z) = 0.27412 0.27412
#
# Static dielectric constant tensor:
#      x y z
#    x 3.341330 0.000000 0.000000 
#    y 0.000000 3.341330 0.000000 
#    z 0.000000 0.000000 3.161100 
# 
# 
# High freq. dielectric constant tensor:
#      x y z
#    x 1.699440 0.000000 0.000000 
#    y 0.000000 1.699440 0.000000 
#    z 0.000000 0.000000 1.678480 
# 
# From -- ./inp_files/3743.got.cif
#   From: 2010.03.12/outbox.cif.g09.slc.cpg/sg187_2_cif.got.tgz:3743.got - 2010.04.01 11:58:23.
