data_PCOD8326016
_publ_section_title
;
Structure prediction by ZEFSAII (Michael W. Deem and Ramdas Pophale) SiO2 
 PCOD8326016
Probable space group: P 65 2 2
;
_chemical_formula_sum "Si O2"
_cell_formula_units_Z 36
_cell_length_a 17.021611
_cell_length_b 17.021611
_cell_length_c 7.277938
_cell_angle_alpha 90.000000
_cell_angle_beta 90.000000
_cell_angle_gamma 120.000000
_cell_volume 1826.166223
_symmetry_space_group_name_H-M "P 65 2 2"
_symmetry_group_IT_number 179
_symmetry_cell_setting 'hexagonal'
loop_
_space_group_symop_operation_xyz
x,y,z
x-y,x,5/6+z
-y,x-y,2/3+z
-x,-y,1/2+z
-x+y,-x,1/3+z
y,-x+y,1/6+z
x-y,-y,-z
-x,-x+y,1/3-z
y,x,2/3-z
-y,-x,1/6-z
-x+y,y,1/2-z
x,x-y,5/6-z
loop_
_atom_site_type_symbol
_atom_site_label
_atom_site_fract_x
_atom_site_fract_y
_atom_site_fract_z
Si Si1 0.344714 0.819761 0.881630
Si Si2 0.098906 0.901095 0.583334
Si Si3 0.318391 0.098101 0.081849
Si Si4 0.776779 0.388390 0.416667
O O1 0.432086 0.864171 0.750000
O O2 0.285060 0.866125 0.842647
O O3 0.285116 0.712784 0.838856
O O4 0.383311 0.838787 0.089581
O O5 0.096364 0.837242 0.419898
O O6 0.000000 0.866337 0.666667
O O7 0.318425 0.159213 0.916667
O O8 0.282005 0.000000 0.000000
#
# Coordination Sequence:
#
# PCOD8326016 Si02
#       4
#    12   6  12   6
#     4  11  21  38  63  98 132 184 232 274 316 384
#     4  12  28  47  78 106 126 174 224 278 355 430
#     4  12  26  47  68 100 144 176 219 284 352 410
#     4  10  18  33  62  92 126 176 232 270 309 372
#
# _framework density 19.713431
#
# number of rings (size 3 to 8) (size 9 to 14) (size 15 to 20)
#    0.000    0.667   10.000    0.000    4.667    1.333 
#    3.000    0.000    0.000    0.000    0.000    0.000 
#    0.000    0.000    0.000    0.000    0.000    0.000 
#
# Total GULP energy -446381.559655 kJ/mol
# GULP energy per Si atom -12399.487768 kJ/mol
# Density = 1.966856 g / cm^3
# Si number density = 19.713431 Si / 1000 Ang^3
#
#
#
# Elastic Constant Matrix: (Units=GPa)
#
#
# Indices 1 2 3 4 5 6 
#
# 1 164.9910 65.5403 59.6564 0.0000 0.0000 0.0000
# 2 65.5403 164.9910 59.6564 0.0000 0.0000 0.0000
# 3 59.6564 59.6564 121.0793 0.0000 0.0000 0.0000
# 4 0.0000 0.0000 0.0000 37.4202 0.0000 0.0000
# 5 0.0000 0.0000 0.0000 0.0000 37.4202 0.0000
# 6 0.0000 0.0000 0.0000 0.0000 0.0000 49.7253
#
#
#
# Elastic Compliance Matrix: (Units=1/GPa)
#
#
# Indices 1 2 3 4 5 6 
#
# 1 0.007939 -0.002116 -0.002869 0.000000 0.000000 0.000000
# 2 -0.002116 0.007939 -0.002869 0.000000 0.000000 0.000000
# 3 -0.002869 -0.002869 0.011086 0.000000 0.000000 0.000000
# 4 0.000000 0.000000 0.000000 0.026724 0.000000 0.000000
# 5 0.000000 0.000000 0.000000 0.000000 0.026724 0.000000
# 6 0.000000 0.000000 0.000000 0.000000 0.000000 0.020110
#
#
# Mechanical properties :
#
#
# Convention : Reuss Voigt Hill
#
# Bulk Modulus (GPa) = 88.84222 91.19638 90.01930
# Shear Modulus (GPa) = 41.67317 42.66035 42.16676
#
# Velocity S-wave (km/s) = 4.60276 4.65695 4.62994
# Velocity P-wave (km/s) = 8.56807 8.67628 8.62234
#
# Compressibility (1/GPa) = 0.01125591
#
# Stress axis : x y z
#
# Youngs Moduli (GPa) = 125.96195 125.96195 90.20381
#
# Poissons Ratio (x) = 0.26658 0.25878
# Poissons Ratio (y) = 0.26658 0.25878
# Poissons Ratio (z) = 0.36136 0.36136
#
# Static dielectric constant tensor:
#      x y z
#    x 3.583830 0.000000 0.000000 
#    y 0.000000 3.583830 0.000000 
#    z 0.000000 0.000000 3.711450 
# 
# 
# High freq. dielectric constant tensor:
#      x y z
#    x 1.764440 0.000000 0.000000 
#    y 0.000000 1.764440 0.000000 
#    z 0.000000 0.000000 1.785520 
# 
# From -- ./inp_files/2322.got.cif
#   From: 2010.03.12/outbox.cif.g09.slc.cpg/sg179_2_cif.got.tgz:2322.got - 2010.04.02 07:08:42.
