data_PCOD8326991
_publ_section_title
;
Structure prediction by ZEFSAII (Michael W. Deem and Ramdas Pophale) SiO2 
 PCOD8326991
Probable space group: P -6 M 2
;
_chemical_formula_sum "Si O2"
_cell_formula_units_Z 66
_cell_length_a 22.136786
_cell_length_b 22.136786
_cell_length_c 7.771059
_cell_angle_alpha 90.000000
_cell_angle_beta 90.000000
_cell_angle_gamma 120.000000
_cell_volume 3297.918898
_symmetry_space_group_name_H-M "P -6 M 2"
_symmetry_group_IT_number 187
_symmetry_cell_setting 'hexagonal'
loop_
_space_group_symop_operation_xyz
x,y,z
-x+y,-x,-z
-y,x-y,z
x,y,-z
-x+y,-x,z
-y,x-y,-z
-y,-x,-z
-x+y,y,-z
x,x-y,-z
-x+y,y,z
x,x-y,z
-y,-x,z
loop_
_atom_site_type_symbol
_atom_site_label
_atom_site_fract_x
_atom_site_fract_y
_atom_site_fract_z
Si Si1 0.121627 0.743320 0.698648
Si Si2 0.800935 0.467112 0.701980
Si Si3 0.926589 0.320330 0.802673
Si Si4 0.540516 0.593137 0.203292
Si Si5 0.762360 0.004308 0.803124
Si Si6 0.856609 0.855917 0.500000
O O1 0.105808 0.748124 0.500000
O O2 0.199906 0.800095 0.749628
O O3 0.115079 0.669026 0.742937
O O4 0.068752 0.758627 0.805718
O O5 0.812193 0.472537 0.500000
O O6 0.721590 0.443180 0.750336
O O7 0.817908 0.408954 0.778177
O O8 0.848832 0.543312 0.779908
O O9 0.981172 0.394908 0.717949
O O10 0.936833 0.256569 0.735086
O O11 0.947224 0.326665 0.000000
O O12 0.468231 0.531770 0.284235
O O13 0.536457 0.584851 0.000000
O O14 0.818419 0.004026 0.673530
O O15 0.792196 0.018665 0.000000
O O16 0.935020 0.870040 0.500000
O O17 0.858074 0.929037 0.500000
#
# Coordination Sequence:
#
# PCOD8326991 Si02
#       6
#    12  12  12  12  12   6
#     4  10  19  32  54  85 116 148 192 243 293 350
#     4  10  21  35  51  72 104 149 198 244 290 344
#     4   9  19  35  56  83 111 141 183 236 294 349
#     4   9  18  32  50  75 110 149 187 233 292 354
#     4  10  22  41  65  93 124 155 190 242 303 353
#     4  12  27  46  68  94 125 160 198 236 278 342
#
# _framework density 20.012622
#
# number of rings (size 3 to 8) (size 9 to 14) (size 15 to 20)
#    0.000    2.182    0.909    3.000    1.273    6.909 
#    0.000    1.818    0.000    2.545    0.000    0.000 
#    0.000    0.000    0.000    0.000    0.000    0.000 
#
# Total GULP energy -818029.552367 kJ/mol
# GULP energy per Si atom -12394.387157 kJ/mol
# Density = 1.996707 g / cm^3
# Si number density = 20.012622 Si / 1000 Ang^3
#
#
#
# Elastic Constant Matrix: (Units=GPa)
#
#
# Indices 1 2 3 4 5 6 
#
# 1 128.8220 50.2116 33.6080 0.0000 -0.0057 0.0000
# 2 50.2116 128.8220 33.6080 0.0000 0.0057 0.0000
# 3 33.6080 33.6080 63.4076 0.0000 0.0000 0.0000
# 4 0.0000 0.0000 0.0000 14.4438 0.0000 0.0057
# 5 -0.0057 0.0057 0.0000 0.0000 14.4438 0.0000
# 6 0.0000 0.0000 0.0000 0.0057 0.0000 39.3052
#
#
#
# Elastic Compliance Matrix: (Units=1/GPa)
#
#
# Indices 1 2 3 4 5 6 
#
# 1 0.009847 -0.002874 -0.003696 0.000000 0.000005 0.000000
# 2 -0.002874 0.009847 -0.003696 0.000000 -0.000005 0.000000
# 3 -0.003696 -0.003696 0.019689 0.000000 0.000000 0.000000
# 4 0.000000 0.000000 0.000000 0.069234 0.000000 -0.000010
# 5 0.000005 -0.000005 0.000000 0.000000 0.069234 0.000000
# 6 0.000000 0.000000 0.000000 -0.000010 0.000000 0.025442
#
#
# Mechanical properties :
#
#
# Convention : Reuss Voigt Hill
#
# Bulk Modulus (GPa) = 53.04670 61.76745 57.40707
# Shear Modulus (GPa) = 21.72888 27.21348 24.47118
#
# Velocity S-wave (km/s) = 3.29866 3.69157 3.50063
# Velocity P-wave (km/s) = 6.40877 7.00725 6.71468
#
# Compressibility (1/GPa) = 0.01885131
#
# Stress axis : x y z
#
# Youngs Moduli (GPa) = 101.55315 101.55315 50.78985
#
# Poissons Ratio (x) = 0.29185 0.18772
# Poissons Ratio (y) = 0.29185 0.18772
# Poissons Ratio (z) = 0.37534 0.37534
#
# Static dielectric constant tensor:
#      x y z
#    x 3.648940 0.000000 0.000000 
#    y 0.000000 3.648940 0.000000 
#    z 0.000000 0.000000 3.550670 
# 
# 
# High freq. dielectric constant tensor:
#      x y z
#    x 1.771410 0.000000 0.000000 
#    y 0.000000 1.771410 0.000000 
#    z 0.000000 0.000000 1.775810 
# 
# From -- ./inp_files/759.got.cif
#   From: 2010.03.12/outbox.cif.g09.slc.cpg/sg187_1_cif.got.tgz:759.got - 2010.04.01 11:58:23.
