data_PCOD8326563
_publ_section_title
;
Structure prediction by ZEFSAII (Michael W. Deem and Ramdas Pophale) SiO2 
 PCOD8326563
Probable space group: P 6 C C
;
_chemical_formula_sum "Si O2"
_cell_formula_units_Z 68
_cell_length_a 13.630718
_cell_length_b 13.630718
_cell_length_c 22.212347
_cell_angle_alpha 90.000000
_cell_angle_beta 90.000000
_cell_angle_gamma 120.000000
_cell_volume 3574.065826
_symmetry_space_group_name_H-M "P 6 C C"
_symmetry_group_IT_number 184
_symmetry_cell_setting 'hexagonal'
loop_
_space_group_symop_operation_xyz
x,y,z
x-y,x,z
-y,x-y,z
-x,-y,z
-x+y,-x,z
y,-x+y,z
-x+y,y,1/2+z
x,x-y,1/2+z
-y,-x,1/2+z
y,x,1/2+z
x-y,-y,1/2+z
-x,-x+y,1/2+z
loop_
_atom_site_type_symbol
_atom_site_label
_atom_site_fract_x
_atom_site_fract_y
_atom_site_fract_z
Si Si1 0.747955 0.806218 0.224440
Si Si2 0.221073 0.476828 0.057328
Si Si3 0.666668 0.333334 0.971157
Si Si4 0.590499 0.124853 0.633171
Si Si5 0.666668 0.333334 0.829242
Si Si6 0.939604 0.755284 0.081920
Si Si7 0.390741 0.888866 0.262474
O O1 0.846631 0.779473 0.246254
O O2 0.739050 0.798910 0.153115
O O3 0.625456 0.710361 0.249157
O O4 0.212293 0.572180 0.094422
O O5 0.289116 0.437869 0.105023
O O6 0.099745 0.364068 0.047677
O O7 0.280768 0.535861 0.994260
O O8 0.666668 0.333334 0.900413
O O9 0.584304 0.146681 0.703763
O O10 0.500000 0.000000 0.615723
O O11 0.785128 0.345661 0.808249
O O12 0.850945 0.791741 0.058931
O O13 0.500000 0.000000 0.290022
#
# Coordination Sequence:
#
# PCOD8326563 Si02
#       7
#    12  12   4  12   4  12  12
#     4  10  20  34  53  83 121 157 190 226 283 359
#     4  10  18  34  52  76 102 146 179 229 275 346
#     4   9  24  40  56  76 108 144 202 227 301 336
#     4  10  19  29  50  79 107 132 172 221 276 340
#     4  12  24  43  56  79 120 153 190 266 283 336
#     4  10  19  30  50  79 117 150 180 221 277 346
#     4  11  22  34  58  86 116 154 195 234 298 357
#
# _framework density 19.025949000000001
#
# number of rings (size 3 to 8) (size 9 to 14) (size 15 to 20)
#    0.000    1.765    1.765    3.882    7.412    1.412 
#    0.000    5.294    0.000    0.000    0.000    0.000 
#    0.000    2.824    0.000    0.000    0.000    0.000 
#
# Total GULP energy -842476.252514 kJ/mol
# GULP energy per Si atom -12389.356655 kJ/mol
# Density = 1.898265 g / cm^3
# Si number density = 19.025949 Si / 1000 Ang^3
#
#
#
# Elastic Constant Matrix: (Units=GPa)
#
#
# Indices 1 2 3 4 5 6 
#
# 1 95.2184 27.2179 29.0922 0.0000 0.0000 0.0000
# 2 27.2179 95.2184 29.0922 0.0001 0.0000 0.0000
# 3 29.0922 29.0922 63.7514 0.0000 0.0000 -0.0001
# 4 0.0000 0.0001 0.0000 12.1160 -0.0001 0.0000
# 5 0.0000 0.0000 0.0000 -0.0001 12.1160 0.0000
# 6 0.0000 0.0000 -0.0001 0.0000 0.0000 34.0003
#
#
#
# Elastic Compliance Matrix: (Units=1/GPa)
#
#
# Indices 1 2 3 4 5 6 
#
# 1 0.012568 -0.002138 -0.004759 0.000000 0.000000 0.000000
# 2 -0.002138 0.012567 -0.004759 0.000000 0.000000 0.000000
# 3 -0.004759 -0.004759 0.020030 0.000000 0.000000 0.000000
# 4 0.000000 0.000000 0.000000 0.082535 0.000000 0.000000
# 5 0.000000 0.000000 0.000000 0.000000 0.082535 0.000000
# 6 0.000000 0.000000 0.000000 0.000000 0.000000 0.029411
#
#
# Mechanical properties :
#
#
# Convention : Reuss Voigt Hill
#
# Bulk Modulus (GPa) = 45.76447 47.22143 46.49295
# Shear Modulus (GPa) = 18.50180 22.89886 20.70033
#
# Velocity S-wave (km/s) = 3.12180 3.47300 3.30207
# Velocity P-wave (km/s) = 6.09098 6.39966 6.24723
#
# Compressibility (1/GPa) = 0.02185101
#
# Stress axis : x y z
#
# Youngs Moduli (GPa) = 79.57031 79.57037 49.92609
#
# Poissons Ratio (x) = 0.17014 0.23761
# Poissons Ratio (y) = 0.17014 0.23761
# Poissons Ratio (z) = 0.37870 0.37870
#
# Static dielectric constant tensor:
#      x y z
#    x 4.084650 0.000010 0.000000 
#    y 0.000010 4.084670 0.000000 
#    z 0.000000 0.000000 2.833670 
# 
# 
# High freq. dielectric constant tensor:
#      x y z
#    x 1.763180 0.000000 0.000000 
#    y 0.000000 1.763180 0.000000 
#    z 0.000000 0.000000 1.657740 
# 
# From -- ./inp_files/1246.got.cif
#   From: 2010.03.12/outbox.cif.g09.slc.cpg/sg184_cif.got.tgz:1246.got - 2010.04.01 11:54:36.
