data_PCOD8326989
_publ_section_title
;
Structure prediction by ZEFSAII (Michael W. Deem and Ramdas Pophale) SiO2 
 PCOD8326989
Probable space group: P -6 M 2
;
_chemical_formula_sum "Si O2"
_cell_formula_units_Z 90
_cell_length_a 17.264780
_cell_length_b 17.264780
_cell_length_c 18.382233
_cell_angle_alpha 90.000000
_cell_angle_beta 90.000000
_cell_angle_gamma 120.000000
_cell_volume 4745.161473
_symmetry_space_group_name_H-M "P -6 M 2"
_symmetry_group_IT_number 187
_symmetry_cell_setting 'hexagonal'
loop_
_space_group_symop_operation_xyz
x,y,z
-x+y,-x,-z
-y,x-y,z
x,y,-z
-x+y,-x,z
-y,x-y,-z
-y,-x,-z
-x+y,y,-z
x,x-y,-z
-x+y,y,z
x,x-y,z
-y,-x,z
loop_
_atom_site_type_symbol
_atom_site_label
_atom_site_fract_x
_atom_site_fract_y
_atom_site_fract_z
Si Si1 0.580040 0.977654 0.080718
Si Si2 0.846130 0.331223 0.160814
Si Si3 0.000798 0.179957 0.232615
Si Si4 0.150127 0.666742 0.791244
Si Si5 0.382672 0.435241 0.358640
Si Si6 0.365849 0.268832 0.303453
Si Si7 0.174226 0.998290 0.923848
Si Si8 0.153980 0.668399 0.500000
O O1 0.483566 0.967131 0.081349
O O2 0.577824 0.908658 0.141123
O O3 0.652587 0.080202 0.099923
O O4 0.601715 0.955559 0.000000
O O5 0.836345 0.418173 0.172815
O O6 0.751497 0.248504 0.135319
O O7 0.879079 0.309456 0.234935
O O8 0.094001 0.188002 0.259382
O O9 0.970454 0.232132 0.286010
O O10 0.013365 0.227389 0.152377
O O11 0.924776 0.075225 0.227442
O O12 0.165042 0.582521 0.794789
O O13 0.245417 0.754584 0.794413
O O14 0.101256 0.665386 0.716263
O O15 0.480146 0.519855 0.364367
O O16 0.393469 0.347572 0.361625
O O17 0.322844 0.429526 0.427541
O O18 0.376793 0.188397 0.337300
O O19 0.197172 0.098586 0.929487
O O20 0.211594 0.977960 0.000000
O O21 0.067518 0.932482 0.919708
O O22 0.255714 0.744287 0.500000
O O23 0.152384 0.576192 0.500000
#
# Coordination Sequence:
#
# PCOD8326989 Si02
#       8
#    12  12  12  12  12  12  12   6
#     4   9  18  33  51  73 105 142 179 228 286 332
#     4  10  19  34  55  78 103 134 178 232 291 351
#     4   9  17  28  43  64  92 130 175 223 270 316
#     4  10  19  32  53  79 110 149 191 230 271 327
#     4  10  20  37  59  84 114 149 183 222 279 338
#     4  10  20  34  53  78 107 140 182 231 279 329
#     4   8  12  19  33  53  78 110 152 202 253 302
#     4  10  21  36  59  92 128 158 186 220 263 318
#
# _framework density 18.966688000000001
#
# number of rings (size 3 to 8) (size 9 to 14) (size 15 to 20)
#    0.000    2.533    1.333    1.400    0.000    3.200 
#    0.000    2.333    0.000    4.267    0.000    0.000 
#    0.000    0.000    0.000    0.000    0.000    1.600 
#
# Total GULP energy -1115039.464557 kJ/mol
# GULP energy per Si atom -12389.327384 kJ/mol
# Density = 1.892352 g / cm^3
# Si number density = 18.966688 Si / 1000 Ang^3
#
#
#
# Elastic Constant Matrix: (Units=GPa)
#
#
# Indices 1 2 3 4 5 6 
#
# 1 80.7074 27.5986 31.7066 0.0000 -0.0002 0.0000
# 2 27.5986 80.7074 31.7066 0.0000 0.0002 0.0000
# 3 31.7066 31.7066 97.7800 0.0000 0.0000 0.0000
# 4 0.0000 0.0000 0.0000 5.1976 0.0000 0.0002
# 5 -0.0002 0.0002 0.0000 0.0000 5.1976 0.0000
# 6 0.0000 0.0000 0.0000 0.0002 0.0000 26.5544
#
#
#
# Elastic Compliance Matrix: (Units=1/GPa)
#
#
# Indices 1 2 3 4 5 6 
#
# 1 0.015113 -0.003716 -0.003696 0.000000 0.000001 0.000000
# 2 -0.003716 0.015113 -0.003696 0.000000 -0.000001 0.000000
# 3 -0.003696 -0.003696 0.012624 0.000000 0.000000 0.000000
# 4 0.000000 0.000000 0.000000 0.192395 0.000000 -0.000001
# 5 0.000001 -0.000001 0.000000 0.000000 0.192395 0.000000
# 6 0.000000 0.000000 0.000000 -0.000001 0.000000 0.037659
#
#
# Mechanical properties :
#
#
# Convention : Reuss Voigt Hill
#
# Bulk Modulus (GPa) = 48.46117 49.02428 48.74273
# Shear Modulus (GPa) = 10.11344 18.60214 14.35779
#
# Velocity S-wave (km/s) = 2.31166 3.13514 2.75435
# Velocity P-wave (km/s) = 5.72112 6.24573 5.98917
#
# Compressibility (1/GPa) = 0.02063508
#
# Stress axis : x y z
#
# Youngs Moduli (GPa) = 66.16791 66.16791 79.21575
#
# Poissons Ratio (x) = 0.24589 0.29275
# Poissons Ratio (y) = 0.24589 0.29275
# Poissons Ratio (z) = 0.24453 0.24453
#
# Static dielectric constant tensor:
#      x y z
#    x 3.465320 0.000000 0.000000 
#    y 0.000000 3.465320 0.000000 
#    z 0.000000 0.000000 3.556090 
# 
# 
# High freq. dielectric constant tensor:
#      x y z
#    x 1.735660 0.000000 0.000000 
#    y 0.000000 1.735660 0.000000 
#    z 0.000000 0.000000 1.709190 
# 
# From -- ./inp_files/3240.got.cif
#   From: 2010.03.12/outbox.cif.g09.slc.cpg/sg187_2_cif.got.tgz:3240.got - 2010.04.01 11:58:23.
