data_PCOD8326679
_publ_section_title
;
Structure prediction by ZEFSAII (Michael W. Deem and Ramdas Pophale) SiO2 
 PCOD8326679
Probable space group: P 63 C M
;
_chemical_formula_sum "Si O2"
_cell_formula_units_Z 46
_cell_length_a 13.821415
_cell_length_b 13.821415
_cell_length_c 13.628479
_cell_angle_alpha 90.000000
_cell_angle_beta 90.000000
_cell_angle_gamma 120.000000
_cell_volume 2254.670255
_symmetry_space_group_name_H-M "P 63 C M"
_symmetry_group_IT_number 185
_symmetry_cell_setting 'hexagonal'
loop_
_space_group_symop_operation_xyz
x,y,z
x-y,x,1/2+z
-y,x-y,z
-x,-y,1/2+z
-x+y,-x,z
y,-x+y,1/2+z
-x+y,y,1/2+z
x,x-y,1/2+z
-y,-x,1/2+z
y,x,z
x-y,-y,z
-x,-x+y,z
loop_
_atom_site_type_symbol
_atom_site_label
_atom_site_fract_x
_atom_site_fract_y
_atom_site_fract_z
Si Si1 0.818310 0.000000 0.050071
Si Si2 0.386631 0.878266 0.977392
Si Si3 0.000000 0.000000 0.916777
Si Si4 0.000000 0.000000 0.683400
Si Si5 0.789243 0.457440 0.266305
Si Si6 0.163888 0.725699 0.067769
O O1 0.694092 0.892179 0.049054
O O2 0.888692 0.000000 0.145165
O O3 0.888597 0.000000 0.954995
O O4 0.335248 0.846131 0.868924
O O5 0.406089 0.000000 0.998346
O O6 0.297181 0.797056 0.056258
O O7 0.502867 0.878310 0.990060
O O8 0.000000 0.000000 0.800115
O O9 0.665201 0.442943 0.260634
O O10 0.863418 0.538081 0.177840
#
# Coordination Sequence:
#
# PCOD8326679 Si02
#       6
#     6  12   2   2  12  12
#     4  10  26  44  74 100 128 172 246 282 340 404
#     4  12  24  38  67  97 136 183 223 267 351 411
#     4  10  26  58  73  86 133 187 224 313 349 374
#     4  10  26  58  73  92 127 187 230 301 343 392
#     4  10  20  39  63  91 137 183 207 261 331 403
#     4  12  22  44  63 101 141 176 223 286 334 416
#
# _framework density 20.402094999999999
#
# number of rings (size 3 to 8) (size 9 to 14) (size 15 to 20)
#    0.522    0.522    6.522    0.522    5.478    2.087 
#    0.000    0.000    2.870    0.000    0.000    0.000 
#    0.000    0.000    0.000    0.000    0.000    0.000 
#
# Total GULP energy -570100.366120 kJ/mol
# GULP energy per Si atom -12393.486220 kJ/mol
# Density = 2.035566 g / cm^3
# Si number density = 20.402095 Si / 1000 Ang^3
#
#
#
# Elastic Constant Matrix: (Units=GPa)
#
#
# Indices 1 2 3 4 5 6 
#
# 1 118.8366 38.2918 41.6538 0.0000 0.0000 0.0000
# 2 38.2918 118.8366 41.6538 0.0000 0.0000 0.0000
# 3 41.6538 41.6538 152.7813 0.0000 0.0000 0.0000
# 4 0.0000 0.0000 0.0000 14.6207 0.0000 0.0000
# 5 0.0000 0.0000 0.0000 0.0000 14.6207 0.0000
# 6 0.0000 0.0000 0.0000 0.0000 0.0000 40.2724
#
#
#
# Elastic Compliance Matrix: (Units=1/GPa)
#
#
# Indices 1 2 3 4 5 6 
#
# 1 0.009928 -0.002488 -0.002028 0.000000 0.000000 0.000000
# 2 -0.002488 0.009928 -0.002028 0.000000 0.000000 0.000000
# 3 -0.002028 -0.002028 0.007651 0.000000 0.000000 0.000000
# 4 0.000000 0.000000 0.000000 0.068396 0.000000 0.000000
# 5 0.000000 0.000000 0.000000 0.000000 0.068396 0.000000
# 6 0.000000 0.000000 0.000000 0.000000 0.000000 0.024831
#
#
# Mechanical properties :
#
#
# Convention : Reuss Voigt Hill
#
# Bulk Modulus (GPa) = 69.36129 70.40591 69.88360
# Shear Modulus (GPa) = 24.15175 31.82644 27.98909
#
# Velocity S-wave (km/s) = 3.44435 3.95392 3.70790
# Velocity P-wave (km/s) = 7.06322 7.44504 7.25664
#
# Compressibility (1/GPa) = 0.01441726
#
# Stress axis : x y z
#
# Youngs Moduli (GPa) = 100.73000 100.73000 130.69696
#
# Poissons Ratio (x) = 0.25061 0.26509
# Poissons Ratio (y) = 0.25061 0.26509
# Poissons Ratio (z) = 0.20431 0.20431
#
# Static dielectric constant tensor:
#      x y z
#    x 3.582360 0.000000 0.000000 
#    y 0.000000 3.582360 0.000000 
#    z 0.000000 0.000000 3.542710 
# 
# 
# High freq. dielectric constant tensor:
#      x y z
#    x 1.788170 0.000000 0.000000 
#    y 0.000000 1.788170 0.000000 
#    z 0.000000 0.000000 1.798450 
# 
# From -- ./inp_files/1252.got.cif
#   From: 2010.03.12/outbox.cif.g09.slc.cpg/sg185_cif.got.tgz:1252.got - 2010.04.01 11:55:19.
