data_PCOD8326025
_publ_section_title
;
Structure prediction by ZEFSAII (Michael W. Deem and Ramdas Pophale) SiO2 
 PCOD8326025
Probable space group: P 65 2 2
;
_chemical_formula_sum "Si O2"
_cell_formula_units_Z 66
_cell_length_a 19.060821
_cell_length_b 19.060821
_cell_length_c 13.777945
_cell_angle_alpha 90.000000
_cell_angle_beta 90.000000
_cell_angle_gamma 120.000000
_cell_volume 4335.091658
_symmetry_space_group_name_H-M "P 65 2 2"
_symmetry_group_IT_number 179
_symmetry_cell_setting 'hexagonal'
loop_
_space_group_symop_operation_xyz
x,y,z
x-y,x,5/6+z
-y,x-y,2/3+z
-x,-y,1/2+z
-x+y,-x,1/3+z
y,-x+y,1/6+z
x-y,-y,-z
-x,-x+y,1/3-z
y,x,2/3-z
-y,-x,1/6-z
-x+y,y,1/2-z
x,x-y,5/6-z
loop_
_atom_site_type_symbol
_atom_site_label
_atom_site_fract_x
_atom_site_fract_y
_atom_site_fract_z
Si Si1 0.319051 0.765073 0.883995
Si Si2 0.474968 0.237484 0.916667
Si Si3 0.172244 0.498861 0.251107
Si Si4 0.446149 0.094010 0.813461
Si Si5 0.080251 0.459236 0.432978
Si Si6 0.470106 0.838548 0.130389
O O1 0.408629 0.776951 0.875423
O O2 0.323627 0.844359 0.835607
O O3 0.257763 0.684732 0.822550
O O4 0.292166 0.758796 0.995856
O O5 0.416314 0.145339 0.878130
O O6 0.230873 0.461745 0.250000
O O7 0.099506 0.441347 0.324156
O O8 0.137952 0.497287 0.144996
O O9 0.451559 0.116947 0.700005
O O10 0.537009 0.126034 0.852101
O O11 0.384162 0.998018 0.819726
O O12 0.058856 0.529428 0.416667
#
# Coordination Sequence:
#
# PCOD8326025 Si02
#       6
#    12   6  12  12  12  12
#     4  10  21  30  46  64  91 114 155 192 248 303
#     4  10  20  32  46  64  78 118 144 190 248 294
#     4  11  21  30  47  66  88 122 153 198 256 303
#     4  10  20  34  48  64  89 115 156 199 251 301
#     4  10  20  35  44  67  89 116 153 201 249 301
#     4  10  19  33  44  63  88 117 149 194 246 299
#
# _framework density 15.224591
#
# number of rings (size 3 to 8) (size 9 to 14) (size 15 to 20)
#    0.000    1.818    5.455    0.000    5.091    1.455 
#    0.000    0.000    0.000    0.000    0.000    0.000 
#    0.000    0.000    0.000    0.000    0.000    0.000 
#
# Total GULP energy -817811.948570 kJ/mol
# GULP energy per Si atom -12391.090130 kJ/mol
# Density = 1.518994 g / cm^3
# Si number density = 15.224591 Si / 1000 Ang^3
#
#
#
# Elastic Constant Matrix: (Units=GPa)
#
#
# Indices 1 2 3 4 5 6 
#
# 1 57.3918 31.6285 31.4215 0.0000 0.0000 0.0000
# 2 31.6285 57.3918 31.4215 0.0000 0.0000 0.0000
# 3 31.4215 31.4215 105.1572 0.0000 0.0000 0.0000
# 4 0.0000 0.0000 0.0000 19.2738 0.0000 0.0000
# 5 0.0000 0.0000 0.0000 0.0000 19.2738 0.0000
# 6 0.0000 0.0000 0.0000 0.0000 0.0000 12.8817
#
#
#
# Elastic Compliance Matrix: (Units=1/GPa)
#
#
# Indices 1 2 3 4 5 6 
#
# 1 0.026526 -0.012289 -0.004254 0.000000 0.000000 0.000000
# 2 -0.012289 0.026526 -0.004254 0.000000 0.000000 0.000000
# 3 -0.004254 -0.004254 0.012052 0.000000 0.000000 0.000000
# 4 0.000000 0.000000 0.000000 0.051884 0.000000 0.000000
# 5 0.000000 0.000000 0.000000 0.000000 0.051884 0.000000
# 6 0.000000 0.000000 0.000000 0.000000 0.000000 0.077630
#
#
# Mechanical properties :
#
#
# Convention : Reuss Voigt Hill
#
# Bulk Modulus (GPa) = 42.53704 45.43151 43.98427
# Shear Modulus (GPa) = 16.89583 18.65047 17.77315
#
# Velocity S-wave (km/s) = 3.33494 3.50383 3.42043
# Velocity P-wave (km/s) = 6.54442 6.80256 6.67474
#
# Compressibility (1/GPa) = 0.02350892
#
# Stress axis : x y z
#
# Youngs Moduli (GPa) = 37.69939 37.69939 82.97551
#
# Poissons Ratio (x) = 0.46330 0.35297
# Poissons Ratio (y) = 0.46330 0.35297
# Poissons Ratio (z) = 0.16037 0.16037
#
# Static dielectric constant tensor:
#      x y z
#    x 2.713470 0.000000 0.000000 
#    y 0.000000 2.713470 0.000000 
#    z 0.000000 0.000000 3.348400 
# 
# 
# High freq. dielectric constant tensor:
#      x y z
#    x 1.535150 0.000000 0.000000 
#    y 0.000000 1.535150 0.000000 
#    z 0.000000 0.000000 1.612300 
# 
# From -- ./inp_files/6002.got.cif
#   From: 2010.03.12/outbox.cif.g09.slc.cpg/sg179_4_cif.got.tgz:6002.got - 2010.04.02 07:08:42.
