data_PCOD8326340
_publ_section_title
;
Structure prediction by ZEFSAII (Michael W. Deem and Ramdas Pophale) SiO2 
 PCOD8326340
Probable space group: P 64 2 2
;
_chemical_formula_sum "Si O2"
_cell_formula_units_Z 69
_cell_length_a 14.347741
_cell_length_b 14.347741
_cell_length_c 19.976531
_cell_angle_alpha 90.000000
_cell_angle_beta 90.000000
_cell_angle_gamma 120.000000
_cell_volume 3561.375461
_symmetry_space_group_name_H-M "P 64 2 2"
_symmetry_group_IT_number 181
_symmetry_cell_setting 'hexagonal'
loop_
_space_group_symop_operation_xyz
x,y,z
x-y,x,2/3+z
-y,x-y,1/3+z
-x,-y,z
-x+y,-x,2/3+z
y,-x+y,1/3+z
x-y,-y,-z
-x,-x+y,2/3-z
y,x,1/3-z
-y,-x,1/3-z
-x+y,y,-z
x,x-y,2/3-z
loop_
_atom_site_type_symbol
_atom_site_label
_atom_site_fract_x
_atom_site_fract_y
_atom_site_fract_z
Si Si1 0.601710 0.495265 0.940415
Si Si2 0.400197 0.893657 0.877720
Si Si3 0.176302 0.993811 0.419643
Si Si4 0.173984 0.826017 0.666667
Si Si5 0.547100 0.253130 0.946046
Si Si6 0.879104 0.654987 0.308278
Si Si7 0.000000 0.000000 0.666667
O O1 0.500000 0.500000 0.970795
O O2 0.619643 0.535340 0.864516
O O3 0.701963 0.578059 0.983168
O O4 0.589201 0.378324 0.942943
O O5 0.428712 0.796477 0.879422
O O6 0.295701 0.872796 0.916567
O O7 0.500000 0.000000 0.909428
O O8 0.275630 0.107523 0.396338
O O9 0.171914 0.000000 0.500000
O O10 0.186151 0.894255 0.391062
O O11 0.067729 0.973151 0.384908
O O12 0.613529 0.227057 0.000000
O O13 0.419274 0.189061 0.962232
O O14 0.000000 0.739925 0.333334
#
# Coordination Sequence:
#
# PCOD8326340 Si02
#       7
#    12  12  12   6  12  12   3
#     4  11  22  39  59  85 122 162 209 249 301 365
#     4  10  20  34  59  92 121 153 198 262 317 362
#     4  11  23  41  64  90 125 162 205 252 311 377
#     4  11  24  43  62  86 127 168 207 252 306 366
#     4  10  20  35  59  85 118 158 198 248 306 360
#     4  11  20  36  63  91 120 157 203 250 315 374
#     4  10  22  40  64  90 114 160 196 256 314 366
#
# _framework density 19.374538000000001
#
# number of rings (size 3 to 8) (size 9 to 14) (size 15 to 20)
#    0.000    1.391    3.478    2.870    0.000    0.000 
#    0.000    0.000    0.000    1.043    0.000    0.000 
#    0.000    0.000    0.000    0.000    0.000    0.000 
#
# Total GULP energy -855292.073740 kJ/mol
# GULP energy per Si atom -12395.537301 kJ/mol
# Density = 1.933044 g / cm^3
# Si number density = 19.374538 Si / 1000 Ang^3
#
#
#
# Elastic Constant Matrix: (Units=GPa)
#
#
# Indices 1 2 3 4 5 6 
#
# 1 110.3010 47.4207 30.7929 0.0000 0.0000 0.0000
# 2 47.4207 110.3010 30.7929 0.0000 0.0000 0.0000
# 3 30.7929 30.7929 88.1429 0.0000 0.0000 0.0000
# 4 0.0000 0.0000 0.0000 20.2700 0.0000 0.0000
# 5 0.0000 0.0000 0.0000 0.0000 20.2700 0.0000
# 6 0.0000 0.0000 0.0000 0.0000 0.0000 31.4401
#
#
#
# Elastic Compliance Matrix: (Units=1/GPa)
#
#
# Indices 1 2 3 4 5 6 
#
# 1 0.011623 -0.004281 -0.002565 0.000000 0.000000 0.000000
# 2 -0.004281 0.011623 -0.002565 0.000000 0.000000 0.000000
# 3 -0.002565 -0.002565 0.013137 0.000000 0.000000 0.000000
# 4 0.000000 0.000000 0.000000 0.049334 0.000000 0.000000
# 5 0.000000 0.000000 0.000000 0.000000 0.049334 0.000000
# 6 0.000000 0.000000 0.000000 0.000000 0.000000 0.031806
#
#
# Mechanical properties :
#
#
# Convention : Reuss Voigt Hill
#
# Bulk Modulus (GPa) = 56.94306 58.52865 57.73586
# Shear Modulus (GPa) = 26.10538 27.71193 26.90866
#
# Velocity S-wave (km/s) = 3.67469 3.78607 3.73079
# Velocity P-wave (km/s) = 6.88904 7.02759 6.95866
#
# Compressibility (1/GPa) = 0.01756140
#
# Stress axis : x y z
#
# Youngs Moduli (GPa) = 86.03989 86.03989 76.11919
#
# Poissons Ratio (x) = 0.36831 0.19524
# Poissons Ratio (y) = 0.36831 0.19524
# Poissons Ratio (z) = 0.22068 0.22068
#
# Static dielectric constant tensor:
#      x y z
#    x 3.681490 0.000000 0.000000 
#    y 0.000000 3.681490 0.000000 
#    z 0.000000 0.000000 3.435700 
# 
# 
# High freq. dielectric constant tensor:
#      x y z
#    x 1.762500 0.000000 0.000000 
#    y 0.000000 1.762500 0.000000 
#    z 0.000000 0.000000 1.744960 
# 
# From -- ./inp_files/7812.got.cif
#   From: 2010.03.12/outbox.cif.g09.slc.cpg/sg181_4_cif.got.tgz:7812.got - 2010.04.01 11:42:41.
