data_PCOD8326888
_publ_section_title
;
Structure prediction by ZEFSAII (Michael W. Deem and Ramdas Pophale) SiO2 
 PCOD8326888
Probable space group: P -6 M 2
;
_chemical_formula_sum "Si O2"
_cell_formula_units_Z 78
_cell_length_a 23.796979
_cell_length_b 23.796979
_cell_length_c 8.078278
_cell_angle_alpha 90.000000
_cell_angle_beta 90.000000
_cell_angle_gamma 120.000000
_cell_volume 3961.804865
_symmetry_space_group_name_H-M "P -6 M 2"
_symmetry_group_IT_number 187
_symmetry_cell_setting 'hexagonal'
loop_
_space_group_symop_operation_xyz
x,y,z
-x+y,-x,-z
-y,x-y,z
x,y,-z
-x+y,-x,z
-y,x-y,-z
-y,-x,-z
-x+y,y,-z
x,x-y,-z
-x+y,y,z
x,x-y,z
-y,-x,z
loop_
_atom_site_type_symbol
_atom_site_label
_atom_site_fract_x
_atom_site_fract_y
_atom_site_fract_z
Si Si1 0.294372 0.831122 0.806295
Si Si2 0.148273 0.574137 0.312157
Si Si3 0.495787 0.504214 0.188875
Si Si4 0.039812 0.341800 0.193568
Si Si5 0.645764 0.569439 0.191645
Si Si6 0.998926 0.130584 0.500000
Si Si7 0.787974 0.827558 0.187011
Si Si8 0.792152 0.458975 0.692709
O O1 0.230110 0.769891 0.728399
O O2 0.356114 0.822593 0.774030
O O3 0.304977 0.898888 0.727800
O O4 0.283547 0.832597 0.000000
O O5 0.171296 0.585648 0.500000
O O6 0.070557 0.535279 0.305349
O O7 0.570317 0.534940 0.229117
O O8 0.483146 0.516855 0.000000
O O9 0.049283 0.281531 0.231460
O O10 0.969416 0.326822 0.263505
O O11 0.038367 0.355046 0.000000
O O12 0.675465 0.530015 0.280696
O O13 0.662072 0.569863 0.000000
O O14 0.942616 0.057385 0.500000
O O15 0.065725 0.131449 0.500000
O O16 0.993185 0.163657 0.670060
O O17 0.780987 0.890494 0.194966
O O18 0.810620 0.820747 0.000000
O O19 0.780821 0.446639 0.500000
O O20 0.728724 0.457447 0.771850
O O21 0.801053 0.400527 0.771037
#
# Coordination Sequence:
#
# PCOD8326888 Si02
#       8
#    12   6   6  12  12   6  12  12
#     4  10  20  37  61  82 104 142 192 235 275 333
#     4  12  24  36  52  80 118 148 180 228 290 336
#     4  10  18  34  56  78 106 140 178 222 272 332
#     4   9  17  33  58  85 110 139 178 228 282 335
#     4  10  19  33  56  81 107 137 174 227 282 326
#     4  10  21  38  60  88 118 153 196 240 284 330
#     4   9  18  35  58  85 119 155 193 236 287 343
#     4  10  21  37  55  75 103 140 182 226 276 335
#
# _framework density 19.687998
#
# number of rings (size 3 to 8) (size 9 to 14) (size 15 to 20)
#    0.000    2.154    2.308    1.385    0.000    4.000 
#    3.231    0.769    0.000    4.615    0.000    0.000 
#    0.000    0.000    0.000    0.000    0.000    0.000 
#
# Total GULP energy -966771.739783 kJ/mol
# GULP energy per Si atom -12394.509484 kJ/mol
# Density = 1.964319 g / cm^3
# Si number density = 19.687998 Si / 1000 Ang^3
#
#
#
# Elastic Constant Matrix: (Units=GPa)
#
#
# Indices 1 2 3 4 5 6 
#
# 1 104.1692 19.5446 22.4038 0.0000 -0.0002 0.0000
# 2 19.5446 104.1692 22.4038 0.0000 0.0002 0.0000
# 3 22.4038 22.4038 55.2685 0.0000 0.0000 0.0000
# 4 0.0000 0.0000 0.0000 19.2461 0.0000 0.0002
# 5 -0.0002 0.0002 0.0000 0.0000 19.2461 0.0000
# 6 0.0000 0.0000 0.0000 0.0002 0.0000 42.3123
#
#
#
# Elastic Compliance Matrix: (Units=1/GPa)
#
#
# Indices 1 2 3 4 5 6 
#
# 1 0.010646 -0.001171 -0.003840 0.000000 0.000000 0.000000
# 2 -0.001171 0.010646 -0.003840 0.000000 0.000000 0.000000
# 3 -0.003840 -0.003840 0.021207 0.000000 0.000000 0.000000
# 4 0.000000 0.000000 0.000000 0.051959 0.000000 0.000000
# 5 0.000000 0.000000 0.000000 0.000000 0.051959 0.000000
# 6 0.000000 0.000000 0.000000 0.000000 0.000000 0.023634
#
#
# Mechanical properties :
#
#
# Convention : Reuss Voigt Hill
#
# Bulk Modulus (GPa) = 40.33318 43.59014 41.96166
# Shear Modulus (GPa) = 25.50781 29.44453 27.47617
#
# Velocity S-wave (km/s) = 3.60335 3.87144 3.73980
# Velocity P-wave (km/s) = 6.15165 6.49404 6.32517
#
# Compressibility (1/GPa) = 0.02479348
#
# Stress axis : x y z
#
# Youngs Moduli (GPa) = 93.93625 93.93625 47.15408
#
# Poissons Ratio (x) = 0.11003 0.18109
# Poissons Ratio (y) = 0.11003 0.18109
# Poissons Ratio (z) = 0.36076 0.36076
#
# Static dielectric constant tensor:
#      x y z
#    x 3.638290 0.000000 0.000000 
#    y 0.000000 3.638290 0.000000 
#    z 0.000000 0.000000 3.446700 
# 
# 
# High freq. dielectric constant tensor:
#      x y z
#    x 1.763380 0.000000 0.000000 
#    y 0.000000 1.763380 0.000000 
#    z 0.000000 0.000000 1.743240 
# 
# From -- ./inp_files/1204.got.cif
#   From: 2010.03.12/outbox.cif.g09.slc.cpg/sg187_1_cif.got.tgz:1204.got - 2010.04.01 11:58:23.
