data_PCOD8326381
_publ_section_title
;
Structure prediction by ZEFSAII (Michael W. Deem and Ramdas Pophale) SiO2 
 PCOD8326381
Probable space group: P 64 2 2
;
_chemical_formula_sum "Si O2"
_cell_formula_units_Z 84
_cell_length_a 18.570670
_cell_length_b 18.570670
_cell_length_c 13.376000
_cell_angle_alpha 90.000000
_cell_angle_beta 90.000000
_cell_angle_gamma 120.000000
_cell_volume 3994.956338
_symmetry_space_group_name_H-M "P 64 2 2"
_symmetry_group_IT_number 181
_symmetry_cell_setting 'hexagonal'
loop_
_space_group_symop_operation_xyz
x,y,z
x-y,x,2/3+z
-y,x-y,1/3+z
-x,-y,z
-x+y,-x,2/3+z
y,-x+y,1/3+z
x-y,-y,-z
-x,-x+y,2/3-z
y,x,1/3-z
-y,-x,1/3-z
-x+y,y,-z
x,x-y,2/3-z
loop_
_atom_site_type_symbol
_atom_site_label
_atom_site_fract_x
_atom_site_fract_y
_atom_site_fract_z
Si Si1 0.079482 0.709853 0.763465
Si Si2 0.302359 0.546785 0.611723
Si Si3 0.275566 0.389017 0.536295
Si Si4 0.792780 0.916715 0.436719
Si Si5 0.798433 0.974114 0.893749
Si Si6 0.514435 0.348738 0.103840
Si Si7 0.433582 0.020420 0.705304
O O1 0.098626 0.801573 0.736242
O O2 0.158800 0.715987 0.821204
O O3 0.000000 0.671893 0.833334
O O4 0.060512 0.651148 0.665970
O O5 0.380280 0.619720 0.666667
O O6 0.285445 0.570890 0.500000
O O7 0.318491 0.467771 0.611805
O O8 0.223748 0.525831 0.678411
O O9 0.196625 0.393250 0.500000
O O10 0.242195 0.298322 0.583808
O O11 0.336529 0.403469 0.445794
O O12 0.840217 0.920109 0.333334
O O13 0.778499 0.836493 0.497260
O O14 0.847732 0.000000 0.500000
O O15 0.810065 0.905033 0.833334
O O16 0.846932 0.000000 0.000000
O O17 0.598803 0.401198 0.166667
O O18 0.484111 0.408984 0.057342
O O19 0.500000 0.000000 0.758858
#
# Coordination Sequence:
#
# PCOD8326381 Si02
#       7
#    12  12  12  12  12  12  12
#     4   9  21  33  62  98 129 168 208 267 337 404
#     4  11  23  43  66  94 132 188 235 283 341 407
#     4  10  22  43  67  91 130 184 227 271 340 413
#     4  11  23  43  66  99 138 170 216 282 349 409
#     4  11  25  44  71 100 132 181 236 280 345 425
#     4  11  20  37  64  99 134 177 224 282 346 406
#     4  11  19  37  64  98 140 169 219 275 350 412
#
# _framework density 21.026513000000001
#
# number of rings (size 3 to 8) (size 9 to 14) (size 15 to 20)
#    0.000    1.429    4.286    2.143    2.000    2.571 
#    2.571    5.000    0.000    0.000    0.000    0.000 
#    0.000    0.000    0.000    0.000    0.000    0.000 
#
# Total GULP energy -1040911.890550 kJ/mol
# GULP energy per Si atom -12391.808221 kJ/mol
# Density = 2.097866 g / cm^3
# Si number density = 21.026513 Si / 1000 Ang^3
#
#
#
# Elastic Constant Matrix: (Units=GPa)
#
#
# Indices 1 2 3 4 5 6 
#
# 1 109.4907 53.1012 55.8881 0.0000 0.0000 0.0000
# 2 53.1012 109.4907 55.8881 0.0000 0.0000 0.0000
# 3 55.8881 55.8881 137.1160 0.0000 0.0000 0.0000
# 4 0.0000 0.0000 0.0000 32.4110 0.0000 0.0000
# 5 0.0000 0.0000 0.0000 0.0000 32.4110 0.0000
# 6 0.0000 0.0000 0.0000 0.0000 0.0000 28.1948
#
#
#
# Elastic Compliance Matrix: (Units=1/GPa)
#
#
# Indices 1 2 3 4 5 6 
#
# 1 0.013139 -0.004595 -0.003483 0.000000 0.000000 0.000000
# 2 -0.004595 0.013139 -0.003483 0.000000 0.000000 0.000000
# 3 -0.003483 -0.003483 0.010132 0.000000 0.000000 0.000000
# 4 0.000000 0.000000 0.000000 0.030854 0.000000 0.000000
# 5 0.000000 0.000000 0.000000 0.000000 0.030854 0.000000
# 6 0.000000 0.000000 0.000000 0.000000 0.000000 0.035468
#
#
# Mechanical properties :
#
#
# Convention : Reuss Voigt Hill
#
# Bulk Modulus (GPa) = 75.24209 76.20581 75.72395
# Shear Modulus (GPa) = 31.02966 31.35134 31.19050
#
# Velocity S-wave (km/s) = 3.84570 3.86559 3.85566
# Velocity P-wave (km/s) = 7.45529 7.49967 7.47751
#
# Compressibility (1/GPa) = 0.01329043
#
# Stress axis : x y z
#
# Youngs Moduli (GPa) = 76.10803 76.10803 98.69487
#
# Poissons Ratio (x) = 0.34968 0.34373
# Poissons Ratio (y) = 0.34968 0.34373
# Poissons Ratio (z) = 0.26507 0.26507
#
# Static dielectric constant tensor:
#      x y z
#    x 3.920630 0.000000 0.000000 
#    y 0.000000 3.920630 0.000000 
#    z 0.000000 0.000000 3.845510 
# 
# 
# High freq. dielectric constant tensor:
#      x y z
#    x 1.821460 0.000000 0.000000 
#    y 0.000000 1.821460 0.000000 
#    z 0.000000 0.000000 1.818940 
# 
# From -- ./inp_files/6509.got.cif
#   From: 2010.03.12/outbox.cif.g09.slc.cpg/sg181_4_cif.got.tgz:6509.got - 2010.04.01 11:42:41.
