data_PCOD8326904
_publ_section_title
;
Structure prediction by ZEFSAII (Michael W. Deem and Ramdas Pophale) SiO2 
 PCOD8326904
Probable space group: P -6 M 2
;
_chemical_formula_sum "Si O2"
_cell_formula_units_Z 78
_cell_length_a 17.266140
_cell_length_b 17.266140
_cell_length_c 20.976729
_cell_angle_alpha 90.000000
_cell_angle_beta 90.000000
_cell_angle_gamma 120.000000
_cell_volume 5415.753827
_symmetry_space_group_name_H-M "P -6 M 2"
_symmetry_group_IT_number 187
_symmetry_cell_setting 'hexagonal'
loop_
_space_group_symop_operation_xyz
x,y,z
-x+y,-x,-z
-y,x-y,z
x,y,-z
-x+y,-x,z
-y,x-y,-z
-y,-x,-z
-x+y,y,-z
x,x-y,-z
-x+y,y,z
x,x-y,z
-y,-x,z
loop_
_atom_site_type_symbol
_atom_site_label
_atom_site_fract_x
_atom_site_fract_y
_atom_site_fract_z
Si Si1 0.158701 0.668331 0.500000
Si Si2 0.171268 0.999253 0.928106
Si Si3 0.272715 0.368617 0.756444
Si Si4 0.923842 0.670519 0.168526
Si Si5 0.515889 0.847214 0.638345
Si Si6 0.156598 0.488468 0.122888
Si Si7 0.427255 0.034142 0.928910
O O1 0.265027 0.734974 0.500000
O O2 0.138793 0.569397 0.500000
O O3 0.119809 0.680968 0.567358
O O4 0.132269 0.066135 0.924330
O O5 0.256072 0.030924 0.885375
O O6 0.198986 0.992245 0.000000
O O7 0.096134 0.903867 0.902172
O O8 0.164817 0.329634 0.754634
O O9 0.298624 0.292435 0.772918
O O10 0.317825 0.407787 0.688134
O O11 0.318104 0.449840 0.805936
O O12 0.828947 0.657894 0.192659
O O13 0.909913 0.583779 0.129272
O O14 0.427937 0.855874 0.646352
O O15 0.488171 0.744086 0.650469
O O16 0.241081 0.482162 0.096499
O O17 0.182951 0.591476 0.124622
O O18 0.072072 0.429953 0.077577
O O19 0.527393 0.054785 0.920942
O O20 0.413918 0.063536 0.000000
#
# Coordination Sequence:
#
# PCOD8326904 Si02
#       7
#     6  12  12  12  12  12  12
#     4   8  13  20  32  54  85 120 152 174 184 192
#     4   9  16  25  38  57  80 102 122 147 182 226
#     4   9  17  27  38  55  80 107 132 160 193 227
#     4  10  19  30  44  59  72  91 123 159 196 240
#     4   9  15  23  37  59  89 122 150 168 180 198
#     4   9  16  25  37  54  78 109 142 167 184 207
#     4   9  18  31  43  55  73  95 119 154 201 244
#
# _framework density 14.402426999999999
#
# number of rings (size 3 to 8) (size 9 to 14) (size 15 to 20)
#    0.000    2.923    0.000    1.923    0.000    4.308 
#    0.000    1.538    0.000    1.538    0.000    0.538 
#    0.000    0.000    0.000    0.000    0.000    0.308 
#
# Total GULP energy -966371.962037 kJ/mol
# GULP energy per Si atom -12389.384129 kJ/mol
# Density = 1.436965 g / cm^3
# Si number density = 14.402427 Si / 1000 Ang^3
#
#
#
# Elastic Constant Matrix: (Units=GPa)
#
#
# Indices 1 2 3 4 5 6 
#
# 1 60.9821 24.6688 29.5357 0.0000 0.0001 0.0000
# 2 24.6688 60.9821 29.5357 0.0000 -0.0001 0.0000
# 3 29.5357 29.5357 87.8324 0.0000 0.0000 0.0000
# 4 0.0000 0.0000 0.0000 15.7498 0.0000 -0.0001
# 5 0.0001 -0.0001 0.0000 0.0000 15.7498 0.0000
# 6 0.0000 0.0000 0.0000 -0.0001 0.0000 18.1566
#
#
#
# Elastic Compliance Matrix: (Units=1/GPa)
#
#
# Indices 1 2 3 4 5 6 
#
# 1 0.021369 -0.006169 -0.005112 0.000000 0.000000 0.000000
# 2 -0.006169 0.021369 -0.005112 0.000000 0.000000 0.000000
# 3 -0.005112 -0.005112 0.014823 0.000000 0.000000 0.000000
# 4 0.000000 0.000000 0.000000 0.063493 0.000000 0.000000
# 5 0.000000 0.000000 0.000000 0.000000 0.063493 0.000000
# 6 0.000000 0.000000 0.000000 0.000000 0.000000 0.055076
#
#
# Mechanical properties :
#
#
# Convention : Reuss Voigt Hill
#
# Bulk Modulus (GPa) = 40.35826 41.91967 41.13896
# Shear Modulus (GPa) = 17.81469 18.33499 18.07484
#
# Velocity S-wave (km/s) = 3.52081 3.57185 3.54642
# Velocity P-wave (km/s) = 6.67913 6.79559 6.73761
#
# Compressibility (1/GPa) = 0.02477807
#
# Stress axis : x y z
#
# Youngs Moduli (GPa) = 46.79593 46.79593 67.46229
#
# Poissons Ratio (x) = 0.28867 0.34484
# Poissons Ratio (y) = 0.28867 0.34484
# Poissons Ratio (z) = 0.23920 0.23920
#
# Static dielectric constant tensor:
#      x y z
#    x 2.777480 0.000000 0.000000 
#    y 0.000000 2.777480 0.000000 
#    z 0.000000 0.000000 2.958670 
# 
# 
# High freq. dielectric constant tensor:
#      x y z
#    x 1.529240 0.000000 0.000000 
#    y 0.000000 1.529240 0.000000 
#    z 0.000000 0.000000 1.536890 
# 
# From -- ./inp_files/3161.got.cif
#   From: 2010.03.12/outbox.cif.g09.slc.cpg/sg187_2_cif.got.tgz:3161.got - 2010.04.01 11:58:23.
