data_PCOD8326460
_publ_section_title
;
Structure prediction by ZEFSAII (Michael W. Deem and Ramdas Pophale) SiO2 
 PCOD8326460
Probable space group: P 63 2 2
;
_chemical_formula_sum "Si O2"
_cell_formula_units_Z 54
_cell_length_a 10.928019
_cell_length_b 10.928019
_cell_length_c 23.046153
_cell_angle_alpha 90.000000
_cell_angle_beta 90.000000
_cell_angle_gamma 120.000000
_cell_volume 2383.482433
_symmetry_space_group_name_H-M "P 63 2 2"
_symmetry_group_IT_number 182
_symmetry_cell_setting 'hexagonal'
loop_
_space_group_symop_operation_xyz
x,y,z
x-y,x,1/2+z
-y,x-y,z
-x,-y,1/2+z
-x+y,-x,z
y,-x+y,1/2+z
x-y,-y,-z
-x,-x+y,-z
y,x,-z
-y,-x,1/2-z
-x+y,y,1/2-z
x,x-y,1/2-z
loop_
_atom_site_type_symbol
_atom_site_label
_atom_site_fract_x
_atom_site_fract_y
_atom_site_fract_z
Si Si1 0.968300 0.393780 0.183277
Si Si2 0.940920 0.308041 0.560207
Si Si3 0.356058 0.938752 0.059880
Si Si4 0.355176 0.084499 0.321254
Si Si5 0.666533 0.833267 0.250000
O O1 0.941336 0.520204 0.203928
O O2 0.846837 0.237647 0.201755
O O3 0.954837 0.379082 0.113526
O O4 0.120700 0.425546 0.208815
O O5 0.798850 0.173529 0.581471
O O6 0.886532 0.418880 0.548044
O O7 0.000000 0.282442 0.500000
O O8 0.061478 0.347330 0.609118
O O9 0.333380 0.000000 0.000000
O O10 0.207002 0.967082 0.292259
#
# Coordination Sequence:
#
# PCOD8326460 Si02
#       5
#    12  12  12  12   6
#     4  11  24  45  69  99 131 175 222 273 328 390
#     4  10  20  37  62  93 130 168 217 269 327 389
#     4  10  20  37  62  93 130 168 217 269 327 389
#     4  11  24  45  69  99 131 175 222 273 328 390
#     4  12  24  44  62  96 134 172 218 266 328 384
#
# _framework density 22.655925
#
# number of rings (size 3 to 8) (size 9 to 14) (size 15 to 20)
#    0.000    1.333    2.222    3.556    0.000    0.000 
#   10.667    6.667    0.000    1.778    0.000    0.000 
#    0.000    0.000    0.000    0.000    0.000    0.000 
#
# Total GULP energy -668991.476091 kJ/mol
# GULP energy per Si atom -12388.731039 kJ/mol
# Density = 2.260436 g / cm^3
# Si number density = 22.655925 Si / 1000 Ang^3
#
#
#
# Elastic Constant Matrix: (Units=GPa)
#
#
# Indices 1 2 3 4 5 6 
#
# 1 113.4421 51.9123 20.9782 0.0000 0.0000 0.0000
# 2 51.9123 113.4421 20.9782 0.0000 0.0000 0.0000
# 3 20.9782 20.9782 101.8026 0.0000 0.0000 0.0000
# 4 0.0000 0.0000 0.0000 33.2460 0.0000 0.0000
# 5 0.0000 0.0000 0.0000 0.0000 33.2460 0.0000
# 6 0.0000 0.0000 0.0000 0.0000 0.0000 30.7649
#
#
#
# Elastic Compliance Matrix: (Units=1/GPa)
#
#
# Indices 1 2 3 4 5 6 
#
# 1 0.011317 -0.004936 -0.001315 0.000000 0.000000 0.000000
# 2 -0.004936 0.011317 -0.001315 0.000000 0.000000 0.000000
# 3 -0.001315 -0.001315 0.010365 0.000000 0.000000 0.000000
# 4 0.000000 0.000000 0.000000 0.030079 0.000000 0.000000
# 5 0.000000 0.000000 0.000000 0.000000 0.030079 0.000000
# 6 0.000000 0.000000 0.000000 0.000000 0.000000 0.032505
#
#
# Mechanical properties :
#
#
# Convention : Reuss Voigt Hill
#
# Bulk Modulus (GPa) = 55.96744 57.38047 56.67395
# Shear Modulus (GPa) = 34.07215 35.10591 34.58903
#
# Velocity S-wave (km/s) = 3.88222 3.94067 3.91155
# Velocity P-wave (km/s) = 6.69719 6.78875 6.74312
#
# Compressibility (1/GPa) = 0.01786753
#
# Stress axis : x y z
#
# Youngs Moduli (GPa) = 88.36440 88.36440 96.47969
#
# Poissons Ratio (x) = 0.43612 0.12687
# Poissons Ratio (y) = 0.43612 0.12687
# Poissons Ratio (z) = 0.11620 0.11620
#
# Static dielectric constant tensor:
#      x y z
#    x 3.853970 0.000000 0.000000 
#    y 0.000000 3.853970 0.000000 
#    z 0.000000 0.000000 4.407510 
# 
# 
# High freq. dielectric constant tensor:
#      x y z
#    x 1.868830 0.000000 0.000000 
#    y 0.000000 1.868830 0.000000 
#    z 0.000000 0.000000 1.944170 
# 
# From -- ./inp_files/5188.got.cif
#   From: 2010.03.12/outbox.cif.g09.slc.cpg/sg182_3_cif.got.tgz:5188.got - 2010.04.01 11:49:36.
