data_PCOD8326494
_publ_section_title
;
Structure prediction by ZEFSAII (Michael W. Deem and Ramdas Pophale) SiO2 
 PCOD8326494
Probable space group: P 63 2 2
;
_chemical_formula_sum "Si O2"
_cell_formula_units_Z 48
_cell_length_a 17.855512
_cell_length_b 17.855512
_cell_length_c 8.053227
_cell_angle_alpha 90.000000
_cell_angle_beta 90.000000
_cell_angle_gamma 120.000000
_cell_volume 2223.541239
_symmetry_space_group_name_H-M "P 63 2 2"
_symmetry_group_IT_number 182
_symmetry_cell_setting 'hexagonal'
loop_
_space_group_symop_operation_xyz
x,y,z
x-y,x,1/2+z
-y,x-y,z
-x,-y,1/2+z
-x+y,-x,z
y,-x+y,1/2+z
x-y,-y,-z
-x,-x+y,-z
y,x,-z
-y,-x,1/2-z
-x+y,y,1/2-z
x,x-y,1/2-z
loop_
_atom_site_type_symbol
_atom_site_label
_atom_site_fract_x
_atom_site_fract_y
_atom_site_fract_z
Si Si1 0.963080 0.773623 0.168955
Si Si2 0.345289 0.068017 0.867117
Si Si3 0.478381 0.079657 0.613642
Si Si4 0.416465 0.239152 0.079514
O O1 0.903556 0.807111 0.250000
O O2 0.909139 0.671283 0.129118
O O3 0.039059 0.790361 0.300330
O O4 0.000000 0.826607 0.000000
O O5 0.391525 0.056132 0.709100
O O6 0.393347 0.164101 0.942855
O O7 0.341591 0.000000 0.000000
O O8 0.554465 0.108930 0.750000
O O9 0.489828 0.157682 0.493565
O O10 0.468095 0.000000 0.500000
O O11 0.458034 0.229017 0.250000
#
# Coordination Sequence:
#
# PCOD8326494 Si02
#       4
#    12  12  12  12
#     4  11  21  36  59  95 146 171 224 289 350 411
#     4  12  20  36  65  98 134 177 223 284 352 404
#     4  12  24  40  60  96 142 174 217 281 358 418
#     4  11  21  38  65  96 139 173 227 292 344 418
#
# _framework density 21.587185999999999
#
# number of rings (size 3 to 8) (size 9 to 14) (size 15 to 20)
#    0.000    0.500   10.000    1.500    0.000    0.000 
#    0.000    0.000    0.000    4.000    0.000    7.000 
#  122.500    0.000    0.000    0.000    0.000    0.000 
#
# Total GULP energy -594899.819632 kJ/mol
# GULP energy per Si atom -12393.746242 kJ/mol
# Density = 2.153805 g / cm^3
# Si number density = 21.587186 Si / 1000 Ang^3
#
#
#
# Elastic Constant Matrix: (Units=GPa)
#
#
# Indices 1 2 3 4 5 6 
#
# 1 80.0724 39.0385 49.6755 0.0000 0.0000 0.0000
# 2 39.0385 80.0724 49.6755 0.0000 0.0000 0.0000
# 3 49.6755 49.6755 159.2808 0.0000 0.0000 0.0000
# 4 0.0000 0.0000 0.0000 49.8641 0.0000 0.0000
# 5 0.0000 0.0000 0.0000 0.0000 49.8641 0.0000
# 6 0.0000 0.0000 0.0000 0.0000 0.0000 20.5169
#
#
#
# Elastic Compliance Matrix: (Units=1/GPa)
#
#
# Indices 1 2 3 4 5 6 
#
# 1 0.017859 -0.006511 -0.003539 0.000000 0.000000 0.000000
# 2 -0.006511 0.017859 -0.003539 0.000000 0.000000 0.000000
# 3 -0.003539 -0.003539 0.008486 0.000000 0.000000 0.000000
# 4 0.000000 0.000000 0.000000 0.020055 0.000000 0.000000
# 5 0.000000 0.000000 0.000000 0.000000 0.020055 0.000000
# 6 0.000000 0.000000 0.000000 0.000000 0.000000 0.048740
#
#
# Mechanical properties :
#
#
# Convention : Reuss Voigt Hill
#
# Bulk Modulus (GPa) = 58.73850 66.24495 62.49173
# Shear Modulus (GPa) = 30.13757 36.11809 33.12783
#
# Velocity S-wave (km/s) = 3.74048 4.09482 3.92165
# Velocity P-wave (km/s) = 6.77671 7.28770 7.03685
#
# Compressibility (1/GPa) = 0.01702461
#
# Stress axis : x y z
#
# Youngs Moduli (GPa) = 55.99491 55.99491 117.84625
#
# Poissons Ratio (x) = 0.36460 0.41705
# Poissons Ratio (y) = 0.36460 0.41705
# Poissons Ratio (z) = 0.19816 0.19816
#
# Static dielectric constant tensor:
#      x y z
#    x 3.665920 0.000000 0.000000 
#    y 0.000000 3.665920 0.000000 
#    z 0.000000 0.000000 4.874130 
# 
# 
# High freq. dielectric constant tensor:
#      x y z
#    x 1.808320 0.000000 0.000000 
#    y 0.000000 1.808320 0.000000 
#    z 0.000000 0.000000 1.888280 
# 
# From -- ./inp_files/1415.got.cif
#   From: 2010.03.12/outbox.cif.g09.slc.cpg/sg182_1_cif.got.tgz:1415.got - 2010.04.01 11:49:36.
