data_PCOD8326500
_publ_section_title
;
Structure prediction by ZEFSAII (Michael W. Deem and Ramdas Pophale) SiO2 
 PCOD8326500
Probable space group: P 63 2 2
;
_chemical_formula_sum "Si O2"
_cell_formula_units_Z 64
_cell_length_a 19.076991
_cell_length_b 19.076991
_cell_length_c 9.286763
_cell_angle_alpha 90.000000
_cell_angle_beta 90.000000
_cell_angle_gamma 120.000000
_cell_volume 2926.946227
_symmetry_space_group_name_H-M "P 63 2 2"
_symmetry_group_IT_number 182
_symmetry_cell_setting 'hexagonal'
loop_
_space_group_symop_operation_xyz
x,y,z
x-y,x,1/2+z
-y,x-y,z
-x,-y,1/2+z
-x+y,-x,z
y,-x+y,1/2+z
x-y,-y,-z
-x,-x+y,-z
y,x,-z
-y,-x,1/2-z
-x+y,y,1/2-z
x,x-y,1/2-z
loop_
_atom_site_type_symbol
_atom_site_label
_atom_site_fract_x
_atom_site_fract_y
_atom_site_fract_z
Si Si1 0.565183 0.864137 0.084913
Si Si2 0.003530 0.843631 0.750000
Si Si3 0.298953 0.434816 0.415088
Si Si4 0.258983 0.000000 0.500000
Si Si5 0.333334 0.666667 0.424580
Si Si6 0.418907 0.581095 0.922694
Si Si7 0.741018 0.000000 0.500000
O O1 0.543812 0.872703 0.250001
O O2 0.546812 0.773406 0.055739
O O3 0.512351 0.885036 0.974138
O O4 0.658060 0.926178 0.056194
O O5 0.909214 0.818427 0.750000
O O6 0.030438 0.808569 0.879819
O O7 0.030438 0.808570 0.620181
O O8 0.058805 0.941196 0.750000
O O9 0.372684 0.487647 0.525863
O O10 0.268117 0.341939 0.443805
O O11 0.333334 0.666667 0.250000
O O12 0.378069 0.621930 0.486092
O O13 0.412737 0.587264 0.750000
#
# Coordination Sequence:
#
# PCOD8326500 Si02
#       7
#    12  12  12   6   4  12   6
#     4  11  24  45  70  98 140 193 238 289 364 430
#     4  12  25  46  74 107 142 184 232 296 354 427
#     4  11  24  45  70  98 140 193 238 289 364 430
#     4  12  26  45  71 104 146 184 238 288 354 434
#     4  12  22  44  67 105 148 194 238 294 355 416
#     4  12  26  41  71 108 142 183 248 308 347 413
#     4  12  26  45  71 104 146 184 238 288 354 434
#
# _framework density 21.865793
#
# number of rings (size 3 to 8) (size 9 to 14) (size 15 to 20)
#    0.000    0.375    3.750    5.812    2.625    0.750 
#    0.000    1.875    0.000    0.000    0.000    0.000 
#    0.000    0.000    0.000    0.000    0.000    0.000 
#
# Total GULP energy -793552.400099 kJ/mol
# GULP energy per Si atom -12399.256252 kJ/mol
# Density = 2.181603 g / cm^3
# Si number density = 21.865793 Si / 1000 Ang^3
#
#
#
# Elastic Constant Matrix: (Units=GPa)
#
#
# Indices 1 2 3 4 5 6 
#
# 1 195.2619 -70.8549 43.8653 0.0001 0.0001 0.0018
# 2 -70.8549 195.2622 43.8669 -0.0001 -0.0001 -0.0020
# 3 43.8653 43.8669 179.5499 0.0000 0.0000 -0.0008
# 4 0.0001 -0.0001 0.0000 31.8292 0.0000 0.0001
# 5 0.0001 -0.0001 0.0000 0.0000 31.8292 -0.0001
# 6 0.0018 -0.0020 -0.0008 0.0001 -0.0001 133.0625
#
#
#
# Elastic Compliance Matrix: (Units=1/GPa)
#
#
# Indices 1 2 3 4 5 6 
#
# 1 0.006734 0.002977 -0.002373 0.000000 0.000000 0.000000
# 2 0.002977 0.006735 -0.002373 0.000000 0.000000 0.000000
# 3 -0.002373 -0.002373 0.006729 0.000000 0.000000 0.000000
# 4 0.000000 0.000000 0.000000 0.031418 0.000000 0.000000
# 5 0.000000 0.000000 0.000000 0.000000 0.031418 0.000000
# 6 0.000000 0.000000 0.000000 0.000000 0.000000 0.007515
#
#
# Mechanical properties :
#
#
# Convention : Reuss Voigt Hill
#
# Bulk Modulus (GPa) = 60.02037 67.09208 63.55623
# Shear Modulus (GPa) = 50.18118 76.22395 63.20256
#
# Velocity S-wave (km/s) = 4.79577 5.91063 5.38215
# Velocity P-wave (km/s) = 7.62725 8.79380 8.23122
#
# Compressibility (1/GPa) = 0.01666101
#
# Stress axis : x y z
#
# Youngs Moduli (GPa) = 148.48914 148.48881 148.61541
#
# Poissons Ratio (x) = -0.44202 0.35260
# Poissons Ratio (y) = -0.44202 0.35260
# Poissons Ratio (z) = 0.35230 0.35230
#
# Static dielectric constant tensor:
#      x y z
#    x 4.110540 0.000000 0.000000 
#    y 0.000000 4.110540 0.000000 
#    z 0.000000 0.000000 4.003310 
# 
# 
# High freq. dielectric constant tensor:
#      x y z
#    x 1.865870 0.000000 0.000000 
#    y 0.000000 1.865870 0.000000 
#    z 0.000000 0.000000 1.871890 
# 
# From -- ./inp_files/1792.got.cif
#   From: 2010.03.12/outbox.cif.g09.slc.cpg/sg182_1_cif.got.tgz:1792.got - 2010.04.01 11:49:36.
