data_PCOD8326351
_publ_section_title
;
Structure prediction by ZEFSAII (Michael W. Deem and Ramdas Pophale) SiO2 
 PCOD8326351
Probable space group: P 64 2 2
;
_chemical_formula_sum "Si O2"
_cell_formula_units_Z 72
_cell_length_a 14.034153
_cell_length_b 14.034153
_cell_length_c 19.678560
_cell_angle_alpha 90.000000
_cell_angle_beta 90.000000
_cell_angle_gamma 120.000000
_cell_volume 3356.575040
_symmetry_space_group_name_H-M "P 64 2 2"
_symmetry_group_IT_number 181
_symmetry_cell_setting 'hexagonal'
loop_
_space_group_symop_operation_xyz
x,y,z
x-y,x,2/3+z
-y,x-y,1/3+z
-x,-y,z
-x+y,-x,2/3+z
y,-x+y,1/3+z
x-y,-y,-z
-x,-x+y,2/3-z
y,x,1/3-z
-y,-x,1/3-z
-x+y,y,-z
x,x-y,2/3-z
loop_
_atom_site_type_symbol
_atom_site_label
_atom_site_fract_x
_atom_site_fract_y
_atom_site_fract_z
Si Si1 0.710337 0.110177 0.958663
Si Si2 0.066310 0.881200 0.974280
Si Si3 0.567869 0.234609 0.691449
Si Si4 0.500000 0.000000 0.284965
Si Si5 0.760961 0.239040 0.166667
Si Si6 0.130625 0.156401 0.884787
Si Si7 0.015042 0.353646 0.158969
O O1 0.833524 0.132497 0.950807
O O2 0.652947 0.089418 0.885055
O O3 0.714468 0.216548 0.988451
O O4 0.634803 0.000000 0.000000
O O5 0.985891 0.855085 0.908557
O O6 0.020242 0.817220 0.045334
O O7 0.094627 0.000000 0.000000
O O8 0.693842 0.306159 0.666667
O O9 0.556324 0.245461 0.771897
O O10 0.525266 0.107240 0.670611
O O11 0.573704 0.965564 0.240459
O O12 0.888684 0.286428 0.184614
O O13 0.207887 0.269661 0.846387
O O14 0.114629 0.057315 0.833334
#
# Coordination Sequence:
#
# PCOD8326351 Si02
#       7
#    12  12  12   6   6  12  12
#     4  11  22  38  61 103 136 168 216 279 342 395
#     4  10  22  33  51  87 136 177 216 262 318 411
#     4  11  25  45  74  98 135 176 224 287 340 417
#     4  10  26  48  65  99 130 176 224 278 358 414
#     4  10  20  42  66 102 138 164 214 282 352 398
#     4  11  20  35  55  86 125 181 221 267 329 392
#     4  11  22  37  65  92 132 169 216 281 340 404
#
# _framework density 21.450437999999998
#
# number of rings (size 3 to 8) (size 9 to 14) (size 15 to 20)
#    0.000    1.333    2.500    5.000    4.667    5.000 
#    6.000    0.000    0.000    0.500    0.000    0.000 
#    0.000    0.000    0.000    0.000    0.000    0.000 
#
# Total GULP energy -892048.525791 kJ/mol
# GULP energy per Si atom -12389.562858 kJ/mol
# Density = 2.140162 g / cm^3
# Si number density = 21.450438 Si / 1000 Ang^3
#
#
#
# Elastic Constant Matrix: (Units=GPa)
#
#
# Indices 1 2 3 4 5 6 
#
# 1 82.8221 35.9762 20.9820 0.0000 0.0000 0.0000
# 2 35.9762 82.8221 20.9820 0.0000 0.0000 0.0000
# 3 20.9820 20.9820 82.2078 0.0000 0.0000 0.0000
# 4 0.0000 0.0000 0.0000 28.1717 0.0000 0.0000
# 5 0.0000 0.0000 0.0000 0.0000 28.1717 0.0000
# 6 0.0000 0.0000 0.0000 0.0000 0.0000 23.4230
#
#
#
# Elastic Compliance Matrix: (Units=1/GPa)
#
#
# Indices 1 2 3 4 5 6 
#
# 1 0.015299 -0.006047 -0.002361 0.000000 0.000000 0.000000
# 2 -0.006047 0.015299 -0.002361 0.000000 0.000000 0.000000
# 3 -0.002361 -0.002361 0.013370 0.000000 0.000000 0.000000
# 4 0.000000 0.000000 0.000000 0.035497 0.000000 0.000000
# 5 0.000000 0.000000 0.000000 0.000000 0.035497 0.000000
# 6 0.000000 0.000000 0.000000 0.000000 0.000000 0.042693
#
#
# Mechanical properties :
#
#
# Convention : Reuss Voigt Hill
#
# Bulk Modulus (GPa) = 44.58749 44.85916 44.72332
# Shear Modulus (GPa) = 26.78517 27.28073 27.03295
#
# Velocity S-wave (km/s) = 3.53753 3.57010 3.55385
# Velocity P-wave (km/s) = 6.12510 6.16056 6.14286
#
# Compressibility (1/GPa) = 0.02242782
#
# Stress axis : x y z
#
# Youngs Moduli (GPa) = 65.36309 65.36309 74.79623
#
# Poissons Ratio (x) = 0.39528 0.17662
# Poissons Ratio (y) = 0.39528 0.17662
# Poissons Ratio (z) = 0.15434 0.15434
#
# Static dielectric constant tensor:
#      x y z
#    x 3.726080 0.000000 0.000000 
#    y 0.000000 3.726090 0.000000 
#    z 0.000000 0.000000 2.115590 
# 
# 
# High freq. dielectric constant tensor:
#      x y z
#    x 1.828840 0.000000 0.000000 
#    y 0.000000 1.828840 0.000000 
#    z 0.000000 0.000000 1.844400 
# 
# From -- ./inp_files/9081.got.cif
#   From: 2010.03.12/outbox.cif.g09.slc.cpg/sg181_5_cif.got.tgz:9081.got - 2010.04.01 11:42:41.
