data_PCOD8326552
_publ_section_title
;
Structure prediction by ZEFSAII (Michael W. Deem and Ramdas Pophale) SiO2 
 PCOD8326552
Probable space group: P 6 M M
;
_chemical_formula_sum "Si O2"
_cell_formula_units_Z 60
_cell_length_a 26.534345
_cell_length_b 26.534345
_cell_length_c 5.149792
_cell_angle_alpha 90.000000
_cell_angle_beta 90.000000
_cell_angle_gamma 120.000000
_cell_volume 3140.053611
_symmetry_space_group_name_H-M "P 6 M M"
_symmetry_group_IT_number 183
_symmetry_cell_setting 'hexagonal'
loop_
_space_group_symop_operation_xyz
x,y,z
x-y,x,z
-y,x-y,z
-x,-y,z
-x+y,-x,z
y,-x+y,z
-x+y,y,z
x,x-y,z
-y,-x,z
y,x,z
x-y,-y,z
-x,-x+y,z
loop_
_atom_site_type_symbol
_atom_site_label
_atom_site_fract_x
_atom_site_fract_y
_atom_site_fract_z
Si Si1 0.934201 0.369983 0.778140
Si Si2 0.385784 0.883433 0.293588
Si Si3 0.824112 0.064791 0.734036
Si Si4 0.577674 0.847760 0.479013
Si Si5 0.065926 0.306420 0.230232
O O1 0.930512 0.404599 0.526511
O O2 0.888939 0.300200 0.733559
O O3 0.000000 0.381915 0.808475
O O4 0.916617 0.393569 0.025832
O O5 0.427668 0.855336 0.291929
O O6 0.317838 0.833652 0.346485
O O7 0.892712 0.107289 0.766475
O O8 0.805347 0.074810 0.452662
O O9 0.813058 0.000000 0.768264
O O10 0.789671 0.078906 0.950925
O O11 0.577645 0.788823 0.553621
O O12 0.626268 0.887103 0.267878
O O13 0.000000 0.295393 0.242501
#
# Coordination Sequence:
#
# PCOD8326552 Si02
#       5
#    12  12  12  12  12
#     4  10  22  37  58  85 116 149 190 230 281 341
#     4  10  23  39  59  84 114 149 191 232 280 341
#     4  10  20  34  52  75 105 143 184 224 269 321
#     4  10  23  39  59  84 119 150 187 234 283 333
#     4  10  21  35  54  78 110 145 181 220 265 328
#
# _framework density 19.107953999999999
#
# number of rings (size 3 to 8) (size 9 to 14) (size 15 to 20)
#    1.200    0.800    0.000    3.600    2.800    3.200 
#    0.000    0.000    0.000    0.600    0.000    1.400 
#    0.000    4.800    0.000    0.000    0.000    0.800 
#
# Total GULP energy -743345.146575 kJ/mol
# GULP energy per Si atom -12389.085776 kJ/mol
# Density = 1.906446 g / cm^3
# Si number density = 19.107954 Si / 1000 Ang^3
#
#
#
# Elastic Constant Matrix: (Units=GPa)
#
#
# Indices 1 2 3 4 5 6 
#
# 1 100.1278 67.3319 4.7923 0.0000 0.0000 0.0000
# 2 67.3319 100.1278 4.7923 0.0000 0.0000 0.0000
# 3 4.7923 4.7923 81.7247 0.0000 0.0000 0.0000
# 4 0.0000 0.0000 0.0000 13.1858 0.0000 0.0000
# 5 0.0000 0.0000 0.0000 0.0000 13.1858 0.0000
# 6 0.0000 0.0000 0.0000 0.0000 0.0000 16.3980
#
#
#
# Elastic Compliance Matrix: (Units=1/GPa)
#
#
# Indices 1 2 3 4 5 6 
#
# 1 0.018242 -0.012250 -0.000351 0.000000 0.000000 0.000000
# 2 -0.012250 0.018242 -0.000351 0.000000 0.000000 0.000000
# 3 -0.000351 -0.000351 0.012277 0.000000 0.000000 0.000000
# 4 0.000000 0.000000 0.000000 0.075839 0.000000 0.000000
# 5 0.000000 0.000000 0.000000 0.000000 0.075839 0.000000
# 6 0.000000 0.000000 0.000000 0.000000 0.000000 0.060983
#
#
# Mechanical properties :
#
#
# Convention : Reuss Voigt Hill
#
# Bulk Modulus (GPa) = 43.75336 48.42373 46.08854
# Shear Modulus (GPa) = 16.95226 22.22483 19.58854
#
# Velocity S-wave (km/s) = 2.98179 3.41415 3.20527
# Velocity P-wave (km/s) = 5.89936 6.39837 6.15393
#
# Compressibility (1/GPa) = 0.02285539
#
# Stress axis : x y z
#
# Youngs Moduli (GPa) = 54.81963 54.81963 81.45036
#
# Poissons Ratio (x) = 0.67154 0.02862
# Poissons Ratio (y) = 0.67154 0.02862
# Poissons Ratio (z) = 0.01926 0.01926
#
# Static dielectric constant tensor:
#      x y z
#    x 3.336350 0.000000 0.000000 
#    y 0.000000 3.336350 0.000000 
#    z 0.000000 0.000000 3.603300 
# 
# 
# High freq. dielectric constant tensor:
#      x y z
#    x 1.715160 0.000000 0.000000 
#    y 0.000000 1.715160 0.000000 
#    z 0.000000 0.000000 1.764720 
# 
# From -- ./inp_files/423.got.cif
#   From: 2010.03.12/outbox.cif.g09.slc.cpg/sg183_1_cif.got.tgz:423.got - 2010.04.01 11:53:02.
