data_PCOD8326467
_publ_section_title
;
Structure prediction by ZEFSAII (Michael W. Deem and Ramdas Pophale) SiO2 
 PCOD8326467
Probable space group: P 63 2 2
;
_chemical_formula_sum "Si O2"
_cell_formula_units_Z 30
_cell_length_a 8.357938
_cell_length_b 8.357938
_cell_length_c 22.276086
_cell_angle_alpha 90.000000
_cell_angle_beta 90.000000
_cell_angle_gamma 120.000000
_cell_volume 1347.621118
_symmetry_space_group_name_H-M "P 63 2 2"
_symmetry_group_IT_number 182
_symmetry_cell_setting 'hexagonal'
loop_
_space_group_symop_operation_xyz
x,y,z
x-y,x,1/2+z
-y,x-y,z
-x,-y,1/2+z
-x+y,-x,z
y,-x+y,1/2+z
x-y,-y,-z
-x,-x+y,-z
y,x,-z
-y,-x,1/2-z
-x+y,y,1/2-z
x,x-y,1/2-z
loop_
_atom_site_type_symbol
_atom_site_label
_atom_site_fract_x
_atom_site_fract_y
_atom_site_fract_z
Si Si1 0.452806 0.905611 0.250000
Si Si2 0.000000 0.000000 0.821044
Si Si3 0.333334 0.666668 0.562777
Si Si4 0.333333 0.666668 0.079155
Si Si5 0.988628 0.348358 0.134481
O O1 0.227690 0.772311 0.250000
O O2 0.494466 0.031191 0.190896
O O3 0.800650 0.849661 0.844976
O O4 0.000000 0.000000 0.750000
O O5 0.333334 0.666667 0.491704
O O6 0.522281 0.839545 0.584679
O O7 0.535242 0.725939 0.104845
#
# Coordination Sequence:
#
# PCOD8326467 Si02
#       5
#     6   4   4   4  12
#     4  10  20  40  72  98 136 180 216 292 356 418
#     4  12  30  42  73 107 148 177 231 301 365 436
#     4  12  30  43  71 106 141 195 244 287 343 438
#     4  12  24  52  74  97 147 189 244 293 349 423
#     4  12  25  46  72 107 140 188 237 291 366 415
#
# _framework density 22.26145
#
# number of rings (size 3 to 8) (size 9 to 14) (size 15 to 20)
#    0.400    0.000    4.000    4.800    5.600    0.000 
#    0.000    6.000    0.000    0.000    0.000    0.000 
#    0.000    0.000    0.000    0.000    0.000    0.000 
#
# Total GULP energy -372105.597520 kJ/mol
# GULP energy per Si atom -12403.519917 kJ/mol
# Density = 2.221078 g / cm^3
# Si number density = 22.261450 Si / 1000 Ang^3
#
#
#
# Elastic Constant Matrix: (Units=GPa)
#
#
# Indices 1 2 3 4 5 6 
#
# 1 78.0379 25.0422 37.9608 0.0000 0.0002 0.0000
# 2 25.0422 78.0376 37.9610 0.0001 0.0003 0.0000
# 3 37.9608 37.9610 189.7048 0.0001 0.0005 0.0001
# 4 0.0000 0.0001 0.0001 53.8156 -0.0004 0.0000
# 5 0.0002 0.0003 0.0005 -0.0004 53.8180 0.0000
# 6 0.0000 0.0000 0.0001 0.0000 0.0000 26.4980
#
#
#
# Elastic Compliance Matrix: (Units=1/GPa)
#
#
# Indices 1 2 3 4 5 6 
#
# 1 0.015124 -0.003746 -0.002277 0.000000 0.000000 0.000000
# 2 -0.003746 0.015124 -0.002277 0.000000 0.000000 0.000000
# 3 -0.002277 -0.002277 0.006183 0.000000 0.000000 0.000000
# 4 0.000000 0.000000 0.000000 0.018582 0.000000 0.000000
# 5 0.000000 0.000000 0.000000 0.000000 0.018581 0.000000
# 6 0.000000 0.000000 0.000000 0.000000 0.000000 0.037739
#
#
# Mechanical properties :
#
#
# Convention : Reuss Voigt Hill
#
# Bulk Modulus (GPa) = 50.42465 60.85650 55.64058
# Shear Modulus (GPa) = 37.16333 43.14742 40.15538
#
# Velocity S-wave (km/s) = 4.09027 4.40729 4.25173
# Velocity P-wave (km/s) = 6.70875 7.30037 7.01080
#
# Compressibility (1/GPa) = 0.01983157
#
# Stress axis : x y z
#
# Youngs Moduli (GPa) = 66.12094 66.12060 161.74534
#
# Poissons Ratio (x) = 0.24767 0.36826
# Poissons Ratio (y) = 0.24767 0.36827
# Poissons Ratio (z) = 0.15055 0.15055
#
# Static dielectric constant tensor:
#      x y z
#    x 3.802740 0.000000 0.000000 
#    y 0.000000 3.802720 -0.000010 
#    z 0.000000 -0.000010 4.060870 
# 
# 
# High freq. dielectric constant tensor:
#      x y z
#    x 1.874150 0.000000 0.000000 
#    y 0.000000 1.874150 0.000000 
#    z 0.000000 0.000000 1.884140 
# 
# From -- ./inp_files/5089.got.cif
#   From: 2010.03.12/outbox.cif.g09.slc.cpg/sg182_3_cif.got.tgz:5089.got - 2010.04.01 11:49:36.
