data_PCOD8326407
_publ_section_title
;
Structure prediction by ZEFSAII (Michael W. Deem and Ramdas Pophale) SiO2 
 PCOD8326407
Probable space group: P 64 2 2
;
_chemical_formula_sum "Si O2"
_cell_formula_units_Z 78
_cell_length_a 24.421426
_cell_length_b 24.421426
_cell_length_c 7.935753
_cell_angle_alpha 90.000000
_cell_angle_beta 90.000000
_cell_angle_gamma 120.000000
_cell_volume 4098.838553
_symmetry_space_group_name_H-M "P 64 2 2"
_symmetry_group_IT_number 181
_symmetry_cell_setting 'hexagonal'
loop_
_space_group_symop_operation_xyz
x,y,z
x-y,x,2/3+z
-y,x-y,1/3+z
-x,-y,z
-x+y,-x,2/3+z
y,-x+y,1/3+z
x-y,-y,-z
-x,-x+y,2/3-z
y,x,1/3-z
-y,-x,1/3-z
-x+y,y,-z
x,x-y,2/3-z
loop_
_atom_site_type_symbol
_atom_site_label
_atom_site_fract_x
_atom_site_fract_y
_atom_site_fract_z
Si Si1 0.872994 0.155019 0.480488
Si Si2 0.829837 0.582517 0.258567
Si Si3 0.359274 0.787854 0.332853
Si Si4 0.310125 0.550485 0.833367
Si Si5 0.295306 0.433092 0.373896
Si Si6 0.953281 0.255923 0.984944
Si Si7 0.762430 0.000000 0.000000
O O1 0.871954 0.128047 0.666667
O O2 0.870544 0.220752 0.502959
O O3 0.815585 0.105837 0.363572
O O4 0.938404 0.170753 0.386111
O O5 0.823445 0.519322 0.171199
O O6 0.757285 0.565155 0.258022
O O7 0.859930 0.591054 0.440570
O O8 0.400342 0.800684 0.500000
O O9 0.395805 0.779947 0.173023
O O10 0.288744 0.725537 0.344703
O O11 0.355009 0.851182 0.295779
O O12 0.279444 0.558887 0.000000
O O13 0.306996 0.377887 0.300587
O O14 0.000000 0.265494 0.833334
O O15 0.985151 0.266092 0.167562
#
# Coordination Sequence:
#
# PCOD8326407 Si02
#       7
#    12  12  12  12  12  12   6
#     4  11  21  36  61  90 127 156 194 238 288 352
#     4   9  17  31  50  74 105 141 183 238 292 356
#     4   9  18  33  44  68  99 140 187 246 308 381
#     4   9  17  31  43  66  99 137 181 236 305 372
#     4   9  18  33  51  74 105 142 189 238 298 358
#     4  11  22  39  61  91 120 160 196 240 294 348
#     4  12  22  38  60  92 127 159 188 240 288 346
#
# _framework density 19.029781
#
# number of rings (size 3 to 8) (size 9 to 14) (size 15 to 20)
#    0.000    2.154    3.077    0.923    0.000    1.846 
#   30.462    0.000    0.000    0.462    0.000    1.077 
#    0.000    7.385    0.000    0.000    0.000    0.000 
#
# Total GULP energy -966382.851077 kJ/mol
# GULP energy per Si atom -12389.523732 kJ/mol
# Density = 1.898647 g / cm^3
# Si number density = 19.029781 Si / 1000 Ang^3
#
#
#
# Elastic Constant Matrix: (Units=GPa)
#
#
# Indices 1 2 3 4 5 6 
#
# 1 88.9941 49.2691 28.5470 0.0000 0.0000 0.0000
# 2 49.2691 88.9941 28.5470 0.0000 0.0000 0.0000
# 3 28.5470 28.5470 80.6173 0.0000 0.0000 0.0000
# 4 0.0000 0.0000 0.0000 25.5499 0.0000 0.0000
# 5 0.0000 0.0000 0.0000 0.0000 25.5499 0.0000
# 6 0.0000 0.0000 0.0000 0.0000 0.0000 19.8625
#
#
#
# Elastic Compliance Matrix: (Units=1/GPa)
#
#
# Indices 1 2 3 4 5 6 
#
# 1 0.016822 -0.008351 -0.003000 0.000000 0.000000 0.000000
# 2 -0.008351 0.016822 -0.003000 0.000000 0.000000 0.000000
# 3 -0.003000 -0.003000 0.014529 0.000000 0.000000 0.000000
# 4 0.000000 0.000000 0.000000 0.039139 0.000000 0.000000
# 5 0.000000 0.000000 0.000000 0.000000 0.039139 0.000000
# 6 0.000000 0.000000 0.000000 0.000000 0.000000 0.050346
#
#
# Mechanical properties :
#
#
# Convention : Reuss Voigt Hill
#
# Bulk Modulus (GPa) = 51.35477 52.37018 51.86248
# Shear Modulus (GPa) = 23.58616 24.34197 23.96406
#
# Velocity S-wave (km/s) = 3.52438 3.58040 3.55250
# Velocity P-wave (km/s) = 6.60354 6.68373 6.64376
#
# Compressibility (1/GPa) = 0.01947239
#
# Stress axis : x y z
#
# Youngs Moduli (GPa) = 59.44536 59.44536 68.82916
#
# Poissons Ratio (x) = 0.49642 0.20647
# Poissons Ratio (y) = 0.49642 0.20647
# Poissons Ratio (z) = 0.17832 0.17832
#
# Static dielectric constant tensor:
#      x y z
#    x 3.501560 0.000000 0.000000 
#    y 0.000000 3.501560 0.000000 
#    z 0.000000 0.000000 3.537270 
# 
# 
# High freq. dielectric constant tensor:
#      x y z
#    x 1.707060 0.000000 0.000000 
#    y 0.000000 1.707060 0.000000 
#    z 0.000000 0.000000 1.751770 
# 
# From -- ./inp_files/3422.got.cif
#   From: 2010.03.12/outbox.cif.g09.slc.cpg/sg181_2_cif.got.tgz:3422.got - 2010.04.01 11:42:41.
