data_PCOD8326159
_publ_section_title
;
Structure prediction by ZEFSAII (Michael W. Deem and Ramdas Pophale) SiO2 
 PCOD8326159
Probable space group: P 62 2 2
;
_chemical_formula_sum "Si O2"
_cell_formula_units_Z 96
_cell_length_a 14.734083
_cell_length_b 14.734083
_cell_length_c 25.281916
_cell_angle_alpha 90.000000
_cell_angle_beta 90.000000
_cell_angle_gamma 120.000000
_cell_volume 4753.208222
_symmetry_space_group_name_H-M "P 62 2 2"
_symmetry_group_IT_number 180
_symmetry_cell_setting 'hexagonal'
loop_
_space_group_symop_operation_xyz
x,y,z
x-y,x,1/3+z
-y,x-y,2/3+z
-x,-y,z
-x+y,-x,1/3+z
y,-x+y,2/3+z
x-y,-y,-z
-x,-x+y,1/3-z
y,x,2/3-z
-y,-x,2/3-z
-x+y,y,-z
x,x-y,1/3-z
loop_
_atom_site_type_symbol
_atom_site_label
_atom_site_fract_x
_atom_site_fract_y
_atom_site_fract_z
Si Si1 0.215567 0.771952 0.770451
Si Si2 0.334075 0.673665 0.274248
Si Si3 0.214030 0.433708 0.091919
Si Si4 0.004471 0.725436 0.898773
Si Si5 0.000235 0.393887 0.793819
Si Si6 0.278410 0.012881 0.438133
Si Si7 0.459334 0.224513 0.883677
Si Si8 0.878207 0.934653 0.728505
O O1 0.220327 0.779674 0.833334
O O2 0.306638 0.751923 0.751079
O O3 0.099841 0.675245 0.755531
O O4 0.239692 0.881586 0.742789
O O5 0.353240 0.646761 0.333334
O O6 0.264523 0.728993 0.277253
O O7 0.270525 0.573210 0.238140
O O8 0.270062 0.368035 0.072670
O O9 0.235843 0.462904 0.153654
O O10 0.088867 0.368083 0.081238
O O11 0.005963 0.684105 0.840154
O O12 0.987627 0.825421 0.902508
O O13 0.107589 0.426209 0.762586
O O14 0.000000 0.500000 0.812972
O O15 0.384585 0.119966 0.425163
O O16 0.260908 0.000000 0.500000
O O17 0.183068 0.022061 0.413922
O O18 0.850652 0.925326 0.666667
O O19 0.000000 0.000000 0.739795
#
# Coordination Sequence:
#
# PCOD8326159 Si02
#       8
#    12  12  12  12  12  12  12  12
#     4  10  21  38  62  88 118 150 198 253 309 356
#     4  12  25  38  55  86 118 160 203 243 301 372
#     4   9  20  39  60  86 118 151 193 253 309 347
#     4   9  21  36  63  91 114 151 206 245 294 362
#     4  10  19  36  64  94 118 150 193 256 319 351
#     4   9  20  39  63  90 114 154 206 257 301 350
#     4  10  20  38  63  85 118 153 196 249 302 363
#     4  10  22  40  59  87 132 174 200 240 308 370
#
# _framework density 20.196885000000002
#
# number of rings (size 3 to 8) (size 9 to 14) (size 15 to 20)
#    0.000    2.125    1.250    1.875    7.000    3.750 
#    4.500    4.375    0.000    0.000    0.000    0.000 
#    0.000    0.000    0.000    0.000    0.000    0.000 
#
# Total GULP energy -1189749.189105 kJ/mol
# GULP energy per Si atom -12393.220720 kJ/mol
# Density = 2.015092 g / cm^3
# Si number density = 20.196885 Si / 1000 Ang^3
#
#
#
# Elastic Constant Matrix: (Units=GPa)
#
#
# Indices 1 2 3 4 5 6 
#
# 1 137.7434 68.5666 25.6622 0.0000 0.0000 0.0000
# 2 68.5666 137.7434 25.6622 0.0000 0.0000 0.0000
# 3 25.6622 25.6622 21.4582 0.0000 0.0000 0.0000
# 4 0.0000 0.0000 0.0000 8.0078 0.0000 0.0000
# 5 0.0000 0.0000 0.0000 0.0000 8.0078 0.0000
# 6 0.0000 0.0000 0.0000 0.0000 0.0000 34.5884
#
#
#
# Elastic Compliance Matrix: (Units=1/GPa)
#
#
# Indices 1 2 3 4 5 6 
#
# 1 0.010678 -0.003778 -0.008252 0.000000 0.000000 0.000000
# 2 -0.003778 0.010678 -0.008252 0.000000 0.000000 0.000000
# 3 -0.008252 -0.008252 0.066339 0.000000 0.000000 0.000000
# 4 0.000000 0.000000 0.000000 0.124878 0.000000 0.000000
# 5 0.000000 0.000000 0.000000 0.000000 0.124878 0.000000
# 6 0.000000 0.000000 0.000000 0.000000 0.000000 0.028911
#
#
# Mechanical properties :
#
#
# Convention : Reuss Voigt Hill
#
# Bulk Modulus (GPa) = 21.21707 59.63631 40.42669
# Shear Modulus (GPa) = 11.83055 21.92441 16.87748
#
# Velocity S-wave (km/s) = 2.42288 3.29832 2.89389
# Velocity P-wave (km/s) = 4.28428 6.64054 5.58802
#
# Compressibility (1/GPa) = 0.04713186
#
# Stress axis : x y z
#
# Youngs Moduli (GPa) = 93.65236 93.65236 15.07416
#
# Poissons Ratio (x) = 0.35381 0.12439
# Poissons Ratio (y) = 0.35381 0.12439
# Poissons Ratio (z) = 0.77278 0.77278
#
# Static dielectric constant tensor:
#      x y z
#    x 4.111450 0.000000 0.000000 
#    y 0.000000 4.111450 0.000000 
#    z 0.000000 0.000000 3.234070 
# 
# 
# High freq. dielectric constant tensor:
#      x y z
#    x 1.803180 0.000000 0.000000 
#    y 0.000000 1.803180 0.000000 
#    z 0.000000 0.000000 1.744160 
# 
# From -- ./inp_files/11459.got.cif
#   From: 2010.03.12/outbox.cif.g09.slc.cpg/sg180_6_cif.got.tgz:11459.got - 2010.04.01 11:35:50.
