data_PCOD8326446
_publ_section_title
;
Structure prediction by ZEFSAII (Michael W. Deem and Ramdas Pophale) SiO2 
 PCOD8326446
Probable space group: P 63 2 2
;
_chemical_formula_sum "Si O2"
_cell_formula_units_Z 72
_cell_length_a 23.693598
_cell_length_b 23.693598
_cell_length_c 8.658141
_cell_angle_alpha 90.000000
_cell_angle_beta 90.000000
_cell_angle_gamma 120.000000
_cell_volume 4209.372090
_symmetry_space_group_name_H-M "P 63 2 2"
_symmetry_group_IT_number 182
_symmetry_cell_setting 'hexagonal'
loop_
_space_group_symop_operation_xyz
x,y,z
x-y,x,1/2+z
-y,x-y,z
-x,-y,1/2+z
-x+y,-x,z
y,-x+y,1/2+z
x-y,-y,-z
-x,-x+y,-z
y,x,-z
-y,-x,1/2-z
-x+y,y,1/2-z
x,x-y,1/2-z
loop_
_atom_site_type_symbol
_atom_site_label
_atom_site_fract_x
_atom_site_fract_y
_atom_site_fract_z
Si Si1 0.407205 0.933699 0.815655
Si Si2 0.631087 0.698097 0.600700
Si Si3 0.925024 0.190719 0.835696
Si Si4 0.263262 0.864222 0.300755
Si Si5 0.600467 0.087470 0.661513
Si Si6 0.739919 0.809736 0.811597
O O1 0.455636 0.911272 0.750000
O O2 0.346985 0.914423 0.702271
O O3 0.441253 0.010873 0.825897
O O4 0.386989 0.896512 0.979794
O O5 0.657672 0.657672 0.500000
O O6 0.606906 0.734886 0.485118
O O7 0.683809 0.753010 0.711165
O O8 0.875486 0.124515 0.750000
O O9 0.921370 0.251891 0.767007
O O10 0.996216 0.199459 0.809878
O O11 0.907563 0.190767 0.014415
O O12 0.206078 0.793923 0.250000
O O13 0.330785 0.873030 0.244147
O O14 0.554943 0.109886 0.750000
O O15 0.763914 0.881957 0.750000
#
# Coordination Sequence:
#
# PCOD8326446 Si02
#       6
#    12  12  12  12  12  12
#     4  10  20  31  53  80 107 140 178 216 273 331
#     4  12  21  34  52  78 114 145 181 227 273 328
#     4  10  21  36  53  76 105 136 181 231 277 333
#     4  11  21  34  53  75 108 146 181 223 275 328
#     4  10  19  33  52  77 109 139 177 220 269 327
#     4  11  22  34  54  77 104 144 183 220 279 341
#
# _framework density 17.104687999999999
#
# number of rings (size 3 to 8) (size 9 to 14) (size 15 to 20)
#    0.000    1.333    3.333    4.000    2.333    2.667 
#    0.000    0.000    0.000    0.667    0.000    0.000 
#    0.000    0.000    0.000    0.500    0.000    0.167 
#
# Total GULP energy -892431.130544 kJ/mol
# GULP energy per Si atom -12394.876813 kJ/mol
# Density = 1.706576 g / cm^3
# Si number density = 17.104688 Si / 1000 Ang^3
#
#
#
# Elastic Constant Matrix: (Units=GPa)
#
#
# Indices 1 2 3 4 5 6 
#
# 1 85.7678 50.9933 55.2251 0.0000 0.0000 0.0000
# 2 50.9933 85.7678 55.2251 0.0000 0.0000 0.0000
# 3 55.2251 55.2251 160.8138 0.0000 0.0000 0.0000
# 4 0.0000 0.0000 0.0000 27.6140 0.0000 0.0000
# 5 0.0000 0.0000 0.0000 0.0000 27.6140 0.0000
# 6 0.0000 0.0000 0.0000 0.0000 0.0000 17.3873
#
#
#
# Elastic Compliance Matrix: (Units=1/GPa)
#
#
# Indices 1 2 3 4 5 6 
#
# 1 0.019437 -0.009319 -0.003475 0.000000 0.000000 0.000000
# 2 -0.009319 0.019437 -0.003475 0.000000 0.000000 0.000000
# 3 -0.003475 -0.003475 0.008605 0.000000 0.000000 0.000000
# 4 0.000000 0.000000 0.000000 0.036214 0.000000 0.000000
# 5 0.000000 0.000000 0.000000 0.000000 0.036214 0.000000
# 6 0.000000 0.000000 0.000000 0.000000 0.000000 0.057513
#
#
# Mechanical properties :
#
#
# Convention : Reuss Voigt Hill
#
# Bulk Modulus (GPa) = 66.92309 72.80404 69.86357
# Shear Modulus (GPa) = 23.26249 25.91678 24.58963
#
# Velocity S-wave (km/s) = 3.69183 3.89676 3.79568
# Velocity P-wave (km/s) = 7.57518 7.93111 7.75519
#
# Compressibility (1/GPa) = 0.01494252
#
# Stress axis : x y z
#
# Youngs Moduli (GPa) = 51.44706 51.44706 116.21337
#
# Poissons Ratio (x) = 0.47945 0.40381
# Poissons Ratio (y) = 0.47945 0.40381
# Poissons Ratio (z) = 0.17876 0.17876
#
# Static dielectric constant tensor:
#      x y z
#    x 3.079150 0.000000 0.000000 
#    y 0.000000 3.079150 0.000000 
#    z 0.000000 0.000000 3.546310 
# 
# 
# High freq. dielectric constant tensor:
#      x y z
#    x 1.638050 0.000000 0.000000 
#    y 0.000000 1.638050 0.000000 
#    z 0.000000 0.000000 1.689840 
# 
# From -- ./inp_files/1909.got.cif
#   From: 2010.03.12/outbox.cif.g09.slc.cpg/sg182_1_cif.got.tgz:1909.got - 2010.04.01 11:49:36.
