data_PCOD8326671
_publ_section_title
;
Structure prediction by ZEFSAII (Michael W. Deem and Ramdas Pophale) SiO2 
 PCOD8326671
Probable space group: P 63 C M
;
_chemical_formula_sum "Si O2"
_cell_formula_units_Z 72
_cell_length_a 22.072130
_cell_length_b 22.072130
_cell_length_c 9.443138
_cell_angle_alpha 90.000000
_cell_angle_beta 90.000000
_cell_angle_gamma 120.000000
_cell_volume 3984.147963
_symmetry_space_group_name_H-M "P 63 C M"
_symmetry_group_IT_number 185
_symmetry_cell_setting 'hexagonal'
loop_
_space_group_symop_operation_xyz
x,y,z
x-y,x,1/2+z
-y,x-y,z
-x,-y,1/2+z
-x+y,-x,z
y,-x+y,1/2+z
-x+y,y,1/2+z
x,x-y,1/2+z
-y,-x,1/2+z
y,x,z
x-y,-y,z
-x,-x+y,z
loop_
_atom_site_type_symbol
_atom_site_label
_atom_site_fract_x
_atom_site_fract_y
_atom_site_fract_z
Si Si1 0.249118 0.426319 0.203880
Si Si2 0.865857 0.353912 0.923408
Si Si3 0.000000 0.466766 0.069115
Si Si4 0.565203 0.288509 0.593489
Si Si5 0.579283 0.579283 0.371454
Si Si6 0.579436 0.215102 0.353912
Si Si7 0.859909 0.581249 0.895487
O O1 0.304398 0.424538 0.316485
O O2 0.287584 0.510672 0.187457
O O3 0.170569 0.388252 0.274053
O O4 0.247056 0.390128 0.053174
O O5 0.932597 0.394517 0.022942
O O6 0.853378 0.412743 0.846275
O O7 0.794487 0.306421 0.008955
O O8 0.000000 0.536266 0.011309
O O9 0.000000 0.467551 0.239681
O O10 0.613615 0.266238 0.493034
O O11 0.610166 0.350506 0.709429
O O12 0.594843 0.658358 0.364416
O O13 0.500528 0.193965 0.384997
#
# Coordination Sequence:
#
# PCOD8326671 Si02
#       7
#    12  12   6  12   6  12  12
#     4  10  20  38  58  73  97 132 173 208 268 334
#     4  12  23  36  57  72 103 131 172 217 278 347
#     4  12  28  36  54  80 112 140 174 228 300 355
#     4  10  20  37  49  67  86 124 157 209 250 322
#     4  12  26  40  58  82 116 138 180 232 302 351
#     4  10  21  34  53  66  93 122 166 205 265 320
#     4  10  21  39  59  75 101 136 171 218 272 340
#
# _framework density 18.071618000000001
#
# number of rings (size 3 to 8) (size 9 to 14) (size 15 to 20)
#    0.000    1.333    6.667    2.000    7.000    0.000 
#    1.000    1.667    0.000    0.000    0.000    0.000 
#    0.000    0.000    0.000    0.000    0.000    0.000 
#
# Total GULP energy -891976.964097 kJ/mol
# GULP energy per Si atom -12388.568946 kJ/mol
# Density = 1.803049 g / cm^3
# Si number density = 18.071618 Si / 1000 Ang^3
#
#
#
# Elastic Constant Matrix: (Units=GPa)
#
#
# Indices 1 2 3 4 5 6 
#
# 1 50.1673 23.9563 26.1399 0.0000 0.0000 0.0000
# 2 23.9563 50.1673 26.1399 0.0000 0.0000 0.0000
# 3 26.1399 26.1399 137.5862 0.0000 0.0000 0.0000
# 4 0.0000 0.0000 0.0000 19.9394 0.0000 0.0000
# 5 0.0000 0.0000 0.0000 0.0000 19.9394 0.0000
# 6 0.0000 0.0000 0.0000 0.0000 0.0000 13.1055
#
#
#
# Elastic Compliance Matrix: (Units=1/GPa)
#
#
# Indices 1 2 3 4 5 6 
#
# 1 0.026865 -0.011287 -0.002960 0.000000 0.000000 0.000000
# 2 -0.011287 0.026865 -0.002960 0.000000 0.000000 0.000000
# 3 -0.002960 -0.002960 0.008393 0.000000 0.000000 0.000000
# 4 0.000000 0.000000 0.000000 0.050152 0.000000 0.000000
# 5 0.000000 0.000000 0.000000 0.000000 0.050152 0.000000
# 6 0.000000 0.000000 0.000000 0.000000 0.000000 0.076304
#
#
# Mechanical properties :
#
#
# Convention : Reuss Voigt Hill
#
# Bulk Modulus (GPa) = 36.08696 43.37698 39.73197
# Shear Modulus (GPa) = 17.70662 21.37586 19.54124
#
# Velocity S-wave (km/s) = 3.13358 3.44298 3.29191
# Velocity P-wave (km/s) = 5.75366 6.31351 6.04007
#
# Compressibility (1/GPa) = 0.02771084
#
# Stress axis : x y z
#
# Youngs Moduli (GPa) = 37.22285 37.22285 119.14966
#
# Poissons Ratio (x) = 0.42012 0.35265
# Poissons Ratio (y) = 0.42012 0.35265
# Poissons Ratio (z) = 0.11017 0.11017
#
# Static dielectric constant tensor:
#      x y z
#    x 3.043870 0.000000 0.000000 
#    y 0.000000 3.043870 0.000000 
#    z 0.000000 0.000000 3.990210 
# 
# 
# High freq. dielectric constant tensor:
#      x y z
#    x 1.646680 0.000000 0.000000 
#    y 0.000000 1.646680 0.000000 
#    z 0.000000 0.000000 1.742950 
# 
# From -- ./inp_files/650.got.cif
#   From: 2010.03.12/outbox.cif.g09.slc.cpg/sg185_cif.got.tgz:650.got - 2010.04.01 11:55:19.
