data_PCOD8326801
_publ_section_title
;
Structure prediction by ZEFSAII (Michael W. Deem and Ramdas Pophale) SiO2 
 PCOD8326801
Probable space group: P 63 M C
;
_chemical_formula_sum "Si O2"
_cell_formula_units_Z 84
_cell_length_a 18.047317
_cell_length_b 18.047317
_cell_length_c 14.013834
_cell_angle_alpha 90.000000
_cell_angle_beta 90.000000
_cell_angle_gamma 120.000000
_cell_volume 3952.873297
_symmetry_space_group_name_H-M "P 63 M C"
_symmetry_group_IT_number 186
_symmetry_cell_setting 'hexagonal'
loop_
_space_group_symop_operation_xyz
x,y,z
x-y,x,1/2+z
-y,x-y,z
-x,-y,1/2+z
-x+y,-x,z
y,-x+y,1/2+z
-x+y,y,z
x,x-y,z
-y,-x,z
y,x,1/2+z
x-y,-y,1/2+z
-x,-x+y,1/2+z
loop_
_atom_site_type_symbol
_atom_site_label
_atom_site_fract_x
_atom_site_fract_y
_atom_site_fract_z
Si Si1 0.827947 0.000636 0.937870
Si Si2 0.956356 0.276954 0.794012
Si Si3 0.170381 0.665995 0.988954
Si Si4 0.632693 0.528960 0.087377
Si Si5 0.170242 0.502453 0.384261
Si Si6 0.675399 0.955506 0.079258
Si Si7 0.440211 0.302017 0.286924
O O1 0.837880 0.918940 0.909478
O O2 0.795103 0.032920 0.848768
O O3 0.760231 0.973123 0.023841
O O4 0.920431 0.079570 0.969448
O O5 0.888297 0.297318 0.841531
O O6 0.927533 0.244487 0.686185
O O7 0.042652 0.365348 0.795946
O O8 0.145366 0.572683 0.032125
O O9 0.269522 0.730479 0.012229
O O10 0.157119 0.653556 0.875131
O O11 0.117643 0.708084 0.030505
O O12 0.528575 0.471426 0.084165
O O13 0.668218 0.628671 0.078772
O O14 0.663514 0.509189 0.187362
O O15 0.670627 0.502647 0.998980
O O16 0.267566 0.535132 0.353015
O O17 0.143879 0.571940 0.347835
O O18 0.399565 0.199783 0.292066
#
# Coordination Sequence:
#
# PCOD8326801 Si02
#       7
#    12  12  12  12  12  12  12
#     4  12  26  47  72 101 132 165 206 260 328 398
#     4  11  24  42  68  96 128 169 218 266 320 382
#     4  11  22  38  60  90 130 176 223 269 319 376
#     4  10  20  35  61  97 133 172 218 267 322 380
#     4  11  23  40  62  93 132 176 222 271 326 385
#     4  11  24  42  67  96 130 168 215 266 318 377
#     4  10  20  36  61  93 131 170 214 271 330 384
#
# _framework density 21.250366
#
# number of rings (size 3 to 8) (size 9 to 14) (size 15 to 20)
#    0.000    1.143    2.857    3.000    0.000    9.714 
#    0.000    0.000    0.000    8.000    0.000    0.000 
#    0.000    0.000    0.000    0.000    0.000    0.000 
#
# Total GULP energy -1041201.764052 kJ/mol
# GULP energy per Si atom -12395.259096 kJ/mol
# Density = 2.120200 g / cm^3
# Si number density = 21.250366 Si / 1000 Ang^3
#
#
#
# Elastic Constant Matrix: (Units=GPa)
#
#
# Indices 1 2 3 4 5 6 
#
# 1 122.6669 66.6835 45.8527 0.0000 0.0000 0.0000
# 2 66.6835 122.6669 45.8527 0.0000 0.0000 0.0000
# 3 45.8527 45.8527 127.5414 0.0000 0.0000 0.0000
# 4 0.0000 0.0000 0.0000 11.8405 0.0000 0.0000
# 5 0.0000 0.0000 0.0000 0.0000 11.8405 0.0000
# 6 0.0000 0.0000 0.0000 0.0000 0.0000 27.9917
#
#
#
# Elastic Compliance Matrix: (Units=1/GPa)
#
#
# Indices 1 2 3 4 5 6 
#
# 1 0.012129 -0.005734 -0.002299 0.000000 0.000000 0.000000
# 2 -0.005734 0.012129 -0.002299 0.000000 0.000000 0.000000
# 3 -0.002299 -0.002299 0.009494 0.000000 0.000000 0.000000
# 4 0.000000 0.000000 0.000000 0.084456 0.000000 0.000000
# 5 0.000000 0.000000 0.000000 0.000000 0.084456 0.000000
# 6 0.000000 0.000000 0.000000 0.000000 0.000000 0.035725
#
#
# Mechanical properties :
#
#
# Convention : Reuss Voigt Hill
#
# Bulk Modulus (GPa) = 76.41136 76.62812 76.51974
# Shear Modulus (GPa) = 18.98163 24.63364 21.80763
#
# Velocity S-wave (km/s) = 2.99195 3.40841 3.20695
# Velocity P-wave (km/s) = 6.92614 7.18524 7.05688
#
# Compressibility (1/GPa) = 0.01308706
#
# Stress axis : x y z
#
# Youngs Moduli (GPa) = 82.45016 82.45016 105.33422
#
# Poissons Ratio (x) = 0.47276 0.24216
# Poissons Ratio (y) = 0.47276 0.24216
# Poissons Ratio (z) = 0.18955 0.18955
#
# Static dielectric constant tensor:
#      x y z
#    x 3.839440 0.000000 0.000000 
#    y 0.000000 3.839440 0.000000 
#    z 0.000000 0.000000 4.278740 
# 
# 
# High freq. dielectric constant tensor:
#      x y z
#    x 1.834870 0.000000 0.000000 
#    y 0.000000 1.834870 0.000000 
#    z 0.000000 0.000000 1.835500 
# 
# From -- ./inp_files/2567.got.cif
#   From: 2010.03.12/outbox.cif.g09.slc.cpg/sg186_2_cif.got.tgz:2567.got - 2010.04.01 11:56:34.
