data_PCOD8326816
_publ_section_title
;
Structure prediction by ZEFSAII (Michael W. Deem and Ramdas Pophale) SiO2 
 PCOD8326816
Probable space group: P 63 M C
;
_chemical_formula_sum "Si O2"
_cell_formula_units_Z 64
_cell_length_a 21.621870
_cell_length_b 21.621870
_cell_length_c 13.660928
_cell_angle_alpha 90.000000
_cell_angle_beta 90.000000
_cell_angle_gamma 120.000000
_cell_volume 5530.919503
_symmetry_space_group_name_H-M "P 63 M C"
_symmetry_group_IT_number 186
_symmetry_cell_setting 'hexagonal'
loop_
_space_group_symop_operation_xyz
x,y,z
x-y,x,1/2+z
-y,x-y,z
-x,-y,1/2+z
-x+y,-x,z
y,-x+y,1/2+z
-x+y,y,z
x,x-y,z
-y,-x,z
y,x,1/2+z
x-y,-y,1/2+z
-x,-x+y,1/2+z
loop_
_atom_site_type_symbol
_atom_site_label
_atom_site_fract_x
_atom_site_fract_y
_atom_site_fract_z
Si Si1 0.506276 0.253138 0.195190
Si Si2 0.371271 0.481947 0.777671
Si Si3 0.333334 0.666668 0.694370
Si Si4 0.481946 0.110676 0.879377
Si Si5 0.591804 0.037671 0.471414
Si Si6 0.554134 0.591805 0.185634
Si Si7 0.746861 0.493722 0.961859
Si Si8 0.333334 0.666667 0.462688
O O1 0.470228 0.173756 0.238194
O O2 0.586882 0.293441 0.234429
O O3 0.500585 0.250292 0.078525
O O4 0.436613 0.563388 0.763268
O O5 0.360171 0.457956 0.891788
O O6 0.384877 0.425812 0.717887
O O7 0.333334 0.666667 0.578529
O O8 0.563387 0.126774 0.893779
O O9 0.457956 0.097785 0.765260
O O10 0.470230 0.173757 0.918854
O O11 0.425811 0.040934 0.939161
O O12 0.517387 0.034774 0.477045
O O13 0.629502 0.056677 0.578524
O O14 0.482614 0.517387 0.180003
O O15 0.706558 0.413116 0.922626
#
# Coordination Sequence:
#
# PCOD8326816 Si02
#       8
#     6  12   2  12  12  12   6   2
#     4  11  18  24  33  49  68  84 101 125 164 207
#     4   9  16  24  35  50  64  81 103 128 159 195
#     4   9  18  24  30  42  64  92 100 111 159 216
#     4   9  16  24  35  50  64  81 103 128 159 195
#     4   8  14  25  38  48  59  78 106 134 155 180
#     4   8  14  25  38  48  59  78 106 134 155 180
#     4  11  18  24  33  49  68  84 101 125 164 207
#     4   9  18  24  30  42  64  92 100 111 159 216
#
# _framework density 11.571312000000001
#
# number of rings (size 3 to 8) (size 9 to 14) (size 15 to 20)
#    0.000    3.000    1.875    3.375    0.000    1.500 
#    0.000    0.938    0.000    0.000    0.000    0.000 
#    0.000    0.000    0.000    0.000    0.000    0.000 
#
# Total GULP energy -792980.500665 kJ/mol
# GULP energy per Si atom -12390.320323 kJ/mol
# Density = 1.154498 g / cm^3
# Si number density = 11.571312 Si / 1000 Ang^3
#
#
#
# Elastic Constant Matrix: (Units=GPa)
#
#
# Indices 1 2 3 4 5 6 
#
# 1 49.2173 20.2619 29.1447 0.0000 0.0000 0.0001
# 2 20.2619 49.2169 29.1448 0.0000 0.0000 0.0000
# 3 29.1447 29.1448 103.0062 0.0000 0.0000 -0.0001
# 4 0.0000 0.0000 0.0000 12.9942 0.0000 0.0000
# 5 0.0000 0.0000 0.0000 0.0000 12.9943 0.0000
# 6 0.0001 0.0000 -0.0001 0.0000 0.0000 14.4776
#
#
#
# Elastic Compliance Matrix: (Units=1/GPa)
#
#
# Indices 1 2 3 4 5 6 
#
# 1 0.026704 -0.007832 -0.005340 0.000000 0.000000 0.000000
# 2 -0.007832 0.026705 -0.005340 0.000000 0.000000 0.000000
# 3 -0.005340 -0.005340 0.012730 0.000000 0.000000 0.000000
# 4 0.000000 0.000000 0.000000 0.076958 0.000000 0.000000
# 5 0.000000 0.000000 0.000000 0.000000 0.076957 0.000000
# 6 0.000000 0.000000 0.000000 0.000000 0.000000 0.069072
#
#
# Mechanical properties :
#
#
# Convention : Reuss Voigt Hill
#
# Bulk Modulus (GPa) = 34.34558 39.83813 37.09186
# Shear Modulus (GPa) = 14.88745 16.28583 15.58664
#
# Velocity S-wave (km/s) = 3.59079 3.75565 3.67414
# Velocity P-wave (km/s) = 6.85112 7.30134 7.07981
#
# Compressibility (1/GPa) = 0.02911582
#
# Stress axis : x y z
#
# Youngs Moduli (GPa) = 37.44723 37.44682 78.55529
#
# Poissons Ratio (x) = 0.29327 0.41947
# Poissons Ratio (y) = 0.29328 0.41948
# Poissons Ratio (z) = 0.19996 0.19996
#
# Static dielectric constant tensor:
#      x y z
#    x 2.167440 0.000000 0.000000 
#    y 0.000000 2.167450 0.000000 
#    z 0.000000 0.000000 3.047460 
# 
# 
# High freq. dielectric constant tensor:
#      x y z
#    x 1.400380 0.000000 0.000000 
#    y 0.000000 1.400380 0.000000 
#    z 0.000000 0.000000 1.451560 
# 
# From -- ./inp_files/1847.got.cif
#   From: 2010.03.12/outbox.cif.g09.slc.cpg/sg186_1_cif.got.tgz:1847.got - 2010.04.01 11:56:34.
