data_PCOD8326554
_publ_section_title
;
Structure prediction by ZEFSAII (Michael W. Deem and Ramdas Pophale) SiO2 
 PCOD8326554
Probable space group: P 6 M M
;
_chemical_formula_sum "Si O2"
_cell_formula_units_Z 72
_cell_length_a 20.646971
_cell_length_b 20.646971
_cell_length_c 11.438179
_cell_angle_alpha 90.000000
_cell_angle_beta 90.000000
_cell_angle_gamma 120.000000
_cell_volume 4222.797113
_symmetry_space_group_name_H-M "P 6 M M"
_symmetry_group_IT_number 183
_symmetry_cell_setting 'hexagonal'
loop_
_space_group_symop_operation_xyz
x,y,z
x-y,x,z
-y,x-y,z
-x,-y,z
-x+y,-x,z
y,-x+y,z
-x+y,y,z
x,x-y,z
-y,-x,z
y,x,z
x-y,-y,z
-x,-x+y,z
loop_
_atom_site_type_symbol
_atom_site_label
_atom_site_fract_x
_atom_site_fract_y
_atom_site_fract_z
Si Si1 0.307130 0.464248 0.417350
Si Si2 0.456826 0.913652 0.831367
Si Si3 0.693524 0.917825 0.791229
Si Si4 0.456836 0.543165 0.554869
Si Si5 0.913541 0.381948 0.178352
Si Si6 0.083150 0.308279 0.527188
Si Si7 0.449428 0.149556 0.945281
O O1 0.245842 0.491684 0.426703
O O2 0.371359 0.504202 0.513647
O O3 0.344837 0.482313 0.290973
O O4 0.267572 0.376036 0.438114
O O5 0.458230 0.916459 0.693011
O O6 0.493191 0.865689 0.874727
O O7 0.500000 0.000000 0.880182
O O8 0.727551 0.863776 0.807476
O O9 0.661346 0.911390 0.659765
O O10 0.629398 0.899212 0.883521
O O11 0.761518 0.000000 0.815948
O O12 0.500000 0.500000 0.505564
O O13 0.906712 0.453356 0.139972
O O14 0.000000 0.407128 0.203288
O O15 0.879858 0.320271 0.077192
O O16 0.136065 0.272129 0.512922
O O17 0.000000 0.244038 0.495393
O O18 0.475404 0.237702 0.943462
#
# Coordination Sequence:
#
# PCOD8326554 Si02
#       7
#    12   6  12   6  12  12  12
#     4  11  22  36  53  77 106 135 172 219 271 318
#     4  11  22  37  59  81 103 138 187 231 267 321
#     4   9  17  30  50  75 103 132 164 207 256 304
#     4  11  22  37  59  81 103 138 187 231 267 321
#     4  11  21  36  58  76  97 132 177 221 260 311
#     4   9  17  30  50  75 103 132 164 207 256 304
#     4  11  22  36  53  77 106 135 172 219 271 318
#
# _framework density 17.050308999999999
#
# number of rings (size 3 to 8) (size 9 to 14) (size 15 to 20)
#    0.000    1.667    1.667    4.500    0.000    4.667 
#    1.000    0.000    0.000    0.333    0.000    2.333 
#    0.000    0.000    0.000    0.000    0.000   34.667 
#
# Total GULP energy -892703.168473 kJ/mol
# GULP energy per Si atom -12398.655118 kJ/mol
# Density = 1.701150 g / cm^3
# Si number density = 17.050309 Si / 1000 Ang^3
#
#
#
# Elastic Constant Matrix: (Units=GPa)
#
#
# Indices 1 2 3 4 5 6 
#
# 1 118.2359 44.7221 20.8475 0.0000 0.0000 0.0000
# 2 44.7221 118.2359 20.8475 0.0000 0.0000 0.0000
# 3 20.8475 20.8475 55.3572 0.0000 0.0000 0.0000
# 4 0.0000 0.0000 0.0000 13.5463 0.0000 0.0000
# 5 0.0000 0.0000 0.0000 0.0000 13.5463 0.0000
# 6 0.0000 0.0000 0.0000 0.0000 0.0000 36.7569
#
#
#
# Elastic Compliance Matrix: (Units=1/GPa)
#
#
# Indices 1 2 3 4 5 6 
#
# 1 0.010197 -0.003406 -0.002557 0.000000 0.000000 0.000000
# 2 -0.003406 0.010197 -0.002557 0.000000 0.000000 0.000000
# 3 -0.002557 -0.002557 0.019991 0.000000 0.000000 0.000000
# 4 0.000000 0.000000 0.000000 0.073821 0.000000 0.000000
# 5 0.000000 0.000000 0.000000 0.000000 0.073821 0.000000
# 6 0.000000 0.000000 0.000000 0.000000 0.000000 0.027206
#
#
# Mechanical properties :
#
#
# Convention : Reuss Voigt Hill
#
# Bulk Modulus (GPa) = 42.83980 51.62924 47.23452
# Shear Modulus (GPa) = 20.82859 26.46404 23.64632
#
# Velocity S-wave (km/s) = 3.49893 3.94396 3.72809
# Velocity P-wave (km/s) = 6.44231 7.14745 6.80402
#
# Compressibility (1/GPa) = 0.02334278
#
# Stress axis : x y z
#
# Youngs Moduli (GPa) = 98.06906 98.06906 50.02308
#
# Poissons Ratio (x) = 0.33402 0.12793
# Poissons Ratio (y) = 0.33402 0.12793
# Poissons Ratio (z) = 0.25081 0.25081
#
# Static dielectric constant tensor:
#      x y z
#    x 3.803820 0.000000 0.000000 
#    y 0.000000 3.803820 0.000000 
#    z 0.000000 0.000000 3.225640 
# 
# 
# High freq. dielectric constant tensor:
#      x y z
#    x 1.651860 0.000000 0.000000 
#    y 0.000000 1.651860 0.000000 
#    z 0.000000 0.000000 1.665180 
# 
# From -- ./inp_files/1680.got.cif
#   From: 2010.03.12/outbox.cif.g09.slc.cpg/sg183_1_cif.got.tgz:1680.got - 2010.04.01 11:53:02.
