data_PCOD8326664
_publ_section_title
;
Structure prediction by ZEFSAII (Michael W. Deem and Ramdas Pophale) SiO2 
 PCOD8326664
Probable space group: P 63 C M
;
_chemical_formula_sum "Si O2"
_cell_formula_units_Z 64
_cell_length_a 14.818440
_cell_length_b 14.818440
_cell_length_c 16.615939
_cell_angle_alpha 90.000000
_cell_angle_beta 90.000000
_cell_angle_gamma 120.000000
_cell_volume 3159.806535
_symmetry_space_group_name_H-M "P 63 C M"
_symmetry_group_IT_number 185
_symmetry_cell_setting 'hexagonal'
loop_
_space_group_symop_operation_xyz
x,y,z
x-y,x,1/2+z
-y,x-y,z
-x,-y,1/2+z
-x+y,-x,z
y,-x+y,1/2+z
-x+y,y,1/2+z
x,x-y,1/2+z
-y,-x,1/2+z
y,x,z
x-y,-y,z
-x,-x+y,z
loop_
_atom_site_type_symbol
_atom_site_label
_atom_site_fract_x
_atom_site_fract_y
_atom_site_fract_z
Si Si1 0.794895 0.794895 0.827840
Si Si2 0.569834 0.826695 0.327021
Si Si3 0.000000 0.000000 0.767543
Si Si4 0.518985 0.402922 0.829172
Si Si5 0.000000 0.000000 0.079078
Si Si6 0.430166 0.256861 0.519601
Si Si7 0.205105 0.000000 0.018781
Si Si8 0.597078 0.481015 0.517449
O O1 0.789907 0.688622 0.796661
O O2 0.896556 0.896556 0.796020
O O3 0.800378 0.800378 0.923311
O O4 0.521300 0.710505 0.291174
O O5 0.494134 0.866978 0.292512
O O6 0.571318 0.828755 0.423311
O O7 0.000000 0.000000 0.673311
O O8 0.428554 0.428554 0.811120
O O9 0.537055 0.397220 0.923311
O O10 0.896556 0.896556 0.050601
O O11 0.311378 0.210093 0.549961
O O12 0.505866 0.372844 0.554110
O O13 0.478700 0.189205 0.555448
O O14 0.571446 0.571446 0.535502
#
# Coordination Sequence:
#
# PCOD8326664 Si02
#       8
#     6  12   2  12   2  12   6  12
#     4  10  20  36  57  80 103 134 181 228 259 304
#     4   9  16  26  43  71 107 141 171 209 258 312
#     4  12  28  44  55  72 100 140 181 222 277 326
#     4   9  15  23  36  61 100 138 165 195 251 310
#     4  12  28  44  55  72 100 140 181 222 277 326
#     4   9  16  26  43  71 107 141 171 209 258 312
#     4  10  20  36  57  80 103 134 181 228 259 304
#     4   9  15  23  36  61 100 138 165 195 251 310
#
# _framework density 20.254404000000001
#
# number of rings (size 3 to 8) (size 9 to 14) (size 15 to 20)
#    0.000    2.625    1.875    1.312    2.625    3.000 
#    0.000    0.000    0.000    0.000    0.000    5.250 
#    0.000    0.000    0.000    0.000    0.000    0.000 
#
# Total GULP energy -793132.507447 kJ/mol
# GULP energy per Si atom -12392.695429 kJ/mol
# Density = 2.020830 g / cm^3
# Si number density = 20.254404 Si / 1000 Ang^3
#
#
#
# Elastic Constant Matrix: (Units=GPa)
#
#
# Indices 1 2 3 4 5 6 
#
# 1 174.4539 98.0985 13.7108 0.0000 0.0000 0.0000
# 2 98.0985 174.4539 13.7108 0.0000 0.0000 0.0000
# 3 13.7108 13.7108 10.5456 0.0000 0.0000 0.0000
# 4 0.0000 0.0000 0.0000 1.4136 0.0000 0.0000
# 5 0.0000 0.0000 0.0000 0.0000 1.4136 0.0000
# 6 0.0000 0.0000 0.0000 0.0000 0.0000 38.1777
#
#
#
# Elastic Compliance Matrix: (Units=1/GPa)
#
#
# Indices 1 2 3 4 5 6 
#
# 1 0.008659 -0.004438 -0.005488 0.000000 0.000000 0.000000
# 2 -0.004438 0.008659 -0.005488 0.000000 0.000000 0.000000
# 3 -0.005488 -0.005488 0.109097 0.000000 0.000000 0.000000
# 4 0.000000 0.000000 0.000000 0.707399 0.000000 0.000000
# 5 0.000000 0.000000 0.000000 0.000000 0.707399 0.000000
# 6 0.000000 0.000000 0.000000 0.000000 0.000000 0.026193
#
#
# Mechanical properties :
#
#
# Convention : Reuss Voigt Hill
#
# Bulk Modulus (GPa) = 10.46170 67.83266 39.14718
# Shear Modulus (GPa) = 3.06730 23.79654 13.43192
#
# Velocity S-wave (km/s) = 1.23194 3.43137 2.57798
# Velocity P-wave (km/s) = 2.68327 7.01870 5.31329
#
# Compressibility (1/GPa) = 0.09558676
#
# Stress axis : x y z
#
# Youngs Moduli (GPa) = 115.48785 115.48785 9.16615
#
# Poissons Ratio (x) = 0.51250 0.05031
# Poissons Ratio (y) = 0.51250 0.05031
# Poissons Ratio (z) = 0.63382 0.63382
#
# Static dielectric constant tensor:
#      x y z
#    x 4.394450 0.000000 0.000000 
#    y 0.000000 4.394450 0.000000 
#    z 0.000000 0.000000 2.793640 
# 
# 
# High freq. dielectric constant tensor:
#      x y z
#    x 1.809420 0.000000 0.000000 
#    y 0.000000 1.809420 0.000000 
#    z 0.000000 0.000000 1.697310 
# 
# From -- ./inp_files/1685.got.cif
#   From: 2010.03.12/outbox.cif.g09.slc.cpg/sg185_cif.got.tgz:1685.got - 2010.04.01 11:55:19.
