data_PCOD8326990
_publ_section_title
;
Structure prediction by ZEFSAII (Michael W. Deem and Ramdas Pophale) SiO2 
 PCOD8326990
Probable space group: P -6 M 2
;
_chemical_formula_sum "Si O2"
_cell_formula_units_Z 96
_cell_length_a 17.520642
_cell_length_b 17.520642
_cell_length_c 19.330233
_cell_angle_alpha 90.000000
_cell_angle_beta 90.000000
_cell_angle_gamma 120.000000
_cell_volume 5138.871429
_symmetry_space_group_name_H-M "P -6 M 2"
_symmetry_group_IT_number 187
_symmetry_cell_setting 'hexagonal'
loop_
_space_group_symop_operation_xyz
x,y,z
-x+y,-x,-z
-y,x-y,z
x,y,-z
-x+y,-x,z
-y,x-y,-z
-y,-x,-z
-x+y,y,-z
x,x-y,-z
-x+y,y,z
x,x-y,z
-y,-x,z
loop_
_atom_site_type_symbol
_atom_site_label
_atom_site_fract_x
_atom_site_fract_y
_atom_site_fract_z
Si Si1 0.666573 0.163026 0.723253
Si Si2 0.157000 0.667717 0.341069
Si Si3 0.246484 0.931682 0.421302
Si Si4 0.273093 0.904930 0.786244
Si Si5 0.999666 0.166851 0.080975
Si Si6 0.839457 0.333643 0.884446
Si Si7 0.938177 0.239521 0.303626
Si Si8 0.013555 0.666327 0.076785
O O1 0.570097 0.140194 0.697039
O O2 0.733324 0.266677 0.711211
O O3 0.665383 0.140435 0.803710
O O4 0.698380 0.104383 0.682670
O O5 0.143846 0.571923 0.354526
O O6 0.260131 0.739870 0.346972
O O7 0.100882 0.686127 0.397727
O O8 0.120243 0.671337 0.265509
O O9 0.267690 0.964399 0.500000
O O10 0.147378 0.852623 0.412133
O O11 0.255179 0.011625 0.374443
O O12 0.172690 0.827311 0.790848
O O13 0.271514 0.992306 0.759791
O O14 0.321329 0.919310 0.861157
O O15 0.920092 0.079909 0.115914
O O16 0.983978 0.247227 0.095940
O O17 0.092493 0.184985 0.113311
O O18 0.000176 0.151503 0.000000
O O19 0.811874 0.405937 0.902598
O O20 0.760779 0.239221 0.908874
O O21 0.927864 0.357332 0.925366
O O22 0.861077 0.138924 0.287490
O O23 0.058281 0.683938 0.000000
#
# Coordination Sequence:
#
# PCOD8326990 Si02
#       8
#    12  12  12  12  12  12  12  12
#     4   9  17  30  50  76 105 138 175 216 259 305
#     4   9  18  33  56  83 109 138 173 213 259 314
#     4   9  19  36  55  79 114 150 178 209 256 310
#     4  10  21  37  54  74 102 139 176 219 277 331
#     4   9  17  29  46  67  90 118 154 199 252 310
#     4  10  20  35  53  74 101 134 171 212 260 315
#     4  10  19  32  54  82 108 140 182 224 264 307
#     4  11  22  35  51  72 100 134 176 225 273 326
#
# _framework density 18.681145000000001
#
# number of rings (size 3 to 8) (size 9 to 14) (size 15 to 20)
#    0.000    2.375    1.250    2.375    0.000    6.750 
#    0.000    0.000    0.000    3.500    0.000    0.000 
#    0.000    2.000    0.000    0.000    0.000    0.000 
#
# Total GULP energy -1190044.811389 kJ/mol
# GULP energy per Si atom -12396.300119 kJ/mol
# Density = 1.863863 g / cm^3
# Si number density = 18.681145 Si / 1000 Ang^3
#
#
#
# Elastic Constant Matrix: (Units=GPa)
#
#
# Indices 1 2 3 4 5 6 
#
# 1 70.6239 21.4296 16.6574 0.0000 -0.0003 0.0000
# 2 21.4296 70.6239 16.6574 0.0000 0.0003 0.0000
# 3 16.6574 16.6574 92.6420 0.0000 0.0000 0.0000
# 4 0.0000 0.0000 0.0000 16.8615 0.0000 0.0003
# 5 -0.0003 0.0003 0.0000 0.0000 16.8615 0.0000
# 6 0.0000 0.0000 0.0000 0.0003 0.0000 24.5971
#
#
#
# Elastic Compliance Matrix: (Units=1/GPa)
#
#
# Indices 1 2 3 4 5 6 
#
# 1 0.015973 -0.004354 -0.002089 0.000000 0.000000 0.000000
# 2 -0.004354 0.015973 -0.002089 0.000000 0.000000 0.000000
# 3 -0.002089 -0.002089 0.011546 0.000000 0.000000 0.000000
# 4 0.000000 0.000000 0.000000 0.059307 0.000000 -0.000001
# 5 0.000000 0.000000 0.000000 0.000000 0.059307 0.000000
# 6 0.000000 0.000000 0.000000 -0.000001 0.000000 0.040655
#
#
# Mechanical properties :
#
#
# Convention : Reuss Voigt Hill
#
# Bulk Modulus (GPa) = 37.83952 38.15319 37.99635
# Shear Modulus (GPa) = 21.86892 23.60707 22.73799
#
# Velocity S-wave (km/s) = 3.42518 3.55869 3.49257
# Velocity P-wave (km/s) = 5.99515 6.11174 6.05373
#
# Compressibility (1/GPa) = 0.02642740
#
# Stress axis : x y z
#
# Youngs Moduli (GPa) = 62.60389 62.60389 86.61362
#
# Poissons Ratio (x) = 0.27258 0.18095
# Poissons Ratio (y) = 0.27258 0.18095
# Poissons Ratio (z) = 0.13079 0.13079
#
# Static dielectric constant tensor:
#      x y z
#    x 3.365490 0.000000 0.000000 
#    y 0.000000 3.365490 0.000000 
#    z 0.000000 0.000000 3.381950 
# 
# 
# High freq. dielectric constant tensor:
#      x y z
#    x 1.717850 0.000000 0.000000 
#    y 0.000000 1.717850 0.000000 
#    z 0.000000 0.000000 1.704390 
# 
# From -- ./inp_files/3776.got.cif
#   From: 2010.03.12/outbox.cif.g09.slc.cpg/sg187_2_cif.got.tgz:3776.got - 2010.04.01 11:58:23.
