data_PCOD8326673
_publ_section_title
;
Structure prediction by ZEFSAII (Michael W. Deem and Ramdas Pophale) SiO2 
 PCOD8326673
Probable space group: P 63 C M
;
_chemical_formula_sum "Si O2"
_cell_formula_units_Z 84
_cell_length_a 17.162644
_cell_length_b 17.162644
_cell_length_c 15.571380
_cell_angle_alpha 90.000000
_cell_angle_beta 90.000000
_cell_angle_gamma 120.000000
_cell_volume 3972.154416
_symmetry_space_group_name_H-M "P 63 C M"
_symmetry_group_IT_number 185
_symmetry_cell_setting 'hexagonal'
loop_
_space_group_symop_operation_xyz
x,y,z
x-y,x,1/2+z
-y,x-y,z
-x,-y,1/2+z
-x+y,-x,z
y,-x+y,1/2+z
-x+y,y,1/2+z
x,x-y,1/2+z
-y,-x,1/2+z
y,x,z
x-y,-y,z
-x,-x+y,z
loop_
_atom_site_type_symbol
_atom_site_label
_atom_site_fract_x
_atom_site_fract_y
_atom_site_fract_z
Si Si1 0.103920 0.488339 0.775330
Si Si2 0.603518 0.814130 0.372135
Si Si3 0.264140 0.368850 0.549623
Si Si4 0.103693 0.493482 0.426682
Si Si5 0.427389 0.893031 0.103290
Si Si6 0.899776 0.100395 0.813180
Si Si7 0.101138 0.897844 0.109885
O O1 0.162268 0.439801 0.791276
O O2 0.115985 0.549924 0.856381
O O3 0.142456 0.548833 0.689467
O O4 0.000000 0.412663 0.761846
O O5 0.609540 0.879015 0.449168
O O6 0.544747 0.711948 0.399773
O O7 0.701233 0.831815 0.347875
O O8 0.310871 0.310871 0.569663
O O9 0.319430 0.463929 0.600341
O O10 0.160162 0.307766 0.579564
O O11 0.138538 0.541275 0.518980
O O12 0.000000 0.414361 0.431169
O O13 0.476439 0.000000 0.103225
O O14 0.900569 0.102179 0.711447
O O15 0.000000 0.165148 0.849668
O O16 0.865594 0.000000 0.846840
O O17 0.000000 0.837610 0.073057
O O18 0.142903 0.000000 0.074933
#
# Coordination Sequence:
#
# PCOD8326673 Si02
#       7
#    12  12  12  12  12  12  12
#     4  10  21  41  67  90 118 160 207 259 323 388
#     4  12  23  37  61  93 126 162 212 268 321 378
#     4  10  20  37  61  88 119 160 212 263 314 372
#     4  10  22  41  62  91 128 163 204 259 322 387
#     4   9  19  39  67  91 118 164 209 254 320 388
#     4  10  21  37  58  90 133 180 223 268 319 377
#     4   9  19  34  55  85 126 171 216 263 314 372
#
# _framework density 21.147213000000001
#
# number of rings (size 3 to 8) (size 9 to 14) (size 15 to 20)
#    0.000    2.000    1.429    2.000    2.000    3.429 
#    0.857    2.857    0.000    1.714    0.000    0.000 
#    0.000    0.000    0.000    0.000    0.000    0.000 
#
# Total GULP energy -1041583.398679 kJ/mol
# GULP energy per Si atom -12399.802365 kJ/mol
# Density = 2.109908 g / cm^3
# Si number density = 21.147213 Si / 1000 Ang^3
#
#
#
# Elastic Constant Matrix: (Units=GPa)
#
#
# Indices 1 2 3 4 5 6 
#
# 1 102.6172 65.0981 35.9422 0.0000 0.0000 0.0000
# 2 65.0981 102.6172 35.9422 0.0000 0.0000 0.0000
# 3 35.9422 35.9422 99.6626 0.0000 0.0000 0.0000
# 4 0.0000 0.0000 0.0000 22.7227 0.0000 0.0000
# 5 0.0000 0.0000 0.0000 0.0000 22.7227 0.0000
# 6 0.0000 0.0000 0.0000 0.0000 0.0000 18.7596
#
#
#
# Elastic Compliance Matrix: (Units=1/GPa)
#
#
# Indices 1 2 3 4 5 6 
#
# 1 0.016853 -0.009800 -0.002543 0.000000 0.000000 0.000000
# 2 -0.009800 0.016853 -0.002543 0.000000 0.000000 0.000000
# 3 -0.002543 -0.002543 0.011868 0.000000 0.000000 0.000000
# 4 0.000000 0.000000 0.000000 0.044009 0.000000 0.000000
# 5 0.000000 0.000000 0.000000 0.000000 0.044009 0.000000
# 6 0.000000 0.000000 0.000000 0.000000 0.000000 0.053306
#
#
# Mechanical properties :
#
#
# Convention : Reuss Voigt Hill
#
# Bulk Modulus (GPa) = 63.29174 64.31798 63.80486
# Shear Modulus (GPa) = 22.52873 24.03530 23.28202
#
# Velocity S-wave (km/s) = 3.26748 3.37496 3.32166
# Velocity P-wave (km/s) = 6.65051 6.75778 6.70436
#
# Compressibility (1/GPa) = 0.01579985
#
# Stress axis : x y z
#
# Youngs Moduli (GPa) = 59.33722 59.33722 84.25747
#
# Poissons Ratio (x) = 0.58152 0.21430
# Poissons Ratio (y) = 0.58152 0.21430
# Poissons Ratio (z) = 0.15092 0.15092
#
# Static dielectric constant tensor:
#      x y z
#    x 3.869790 0.000000 0.000000 
#    y 0.000000 3.869790 0.000000 
#    z 0.000000 0.000000 3.879830 
# 
# 
# High freq. dielectric constant tensor:
#      x y z
#    x 1.819710 0.000000 0.000000 
#    y 0.000000 1.819710 0.000000 
#    z 0.000000 0.000000 1.829740 
# 
# From -- ./inp_files/1499.got.cif
#   From: 2010.03.12/outbox.cif.g09.slc.cpg/sg185_cif.got.tgz:1499.got - 2010.04.01 11:55:19.
