data_PCOD8326473
_publ_section_title
;
Structure prediction by ZEFSAII (Michael W. Deem and Ramdas Pophale) SiO2 
 PCOD8326473
Probable space group: P 63 2 2
;
_chemical_formula_sum "Si O2"
_cell_formula_units_Z 96
_cell_length_a 17.637578
_cell_length_b 17.637578
_cell_length_c 20.424233
_cell_angle_alpha 90.000000
_cell_angle_beta 90.000000
_cell_angle_gamma 120.000000
_cell_volume 5502.426914
_symmetry_space_group_name_H-M "P 63 2 2"
_symmetry_group_IT_number 182
_symmetry_cell_setting 'hexagonal'
loop_
_space_group_symop_operation_xyz
x,y,z
x-y,x,1/2+z
-y,x-y,z
-x,-y,1/2+z
-x+y,-x,z
y,-x+y,1/2+z
x-y,-y,-z
-x,-x+y,-z
y,x,-z
-y,-x,1/2-z
-x+y,y,1/2-z
x,x-y,1/2-z
loop_
_atom_site_type_symbol
_atom_site_label
_atom_site_fract_x
_atom_site_fract_y
_atom_site_fract_z
Si Si1 0.693572 0.759029 0.824271
Si Si2 0.759639 0.696810 0.560827
Si Si3 0.759029 0.065457 0.175729
Si Si4 0.333863 0.839148 0.628760
Si Si5 0.161058 0.494795 0.475897
Si Si6 0.062829 0.759639 0.439173
Si Si7 0.161058 0.494795 0.024103
Si Si8 0.666137 0.160852 0.371240
O O1 0.722875 0.757749 0.750000
O O2 0.706318 0.853159 0.843378
O O3 0.753939 0.739212 0.871327
O O4 0.591827 0.685903 0.832050
O O5 0.743221 0.743221 0.500000
O O6 0.753939 0.739212 0.628673
O O7 0.688999 0.593236 0.562822
O O8 0.856400 0.712801 0.552685
O O9 0.685903 0.094076 0.167950
O O10 0.335686 0.860555 0.552289
O O11 0.426376 0.852753 0.652912
O O12 0.260718 0.739282 0.643355
O O13 0.261800 0.523600 0.462190
O O14 0.145068 0.572534 0.451598
O O15 0.095763 0.688999 0.437178
O O16 0.000000 0.743221 0.500000
O O17 0.139445 0.475131 0.947711
#
# Coordination Sequence:
#
# PCOD8326473 Si02
#       8
#    12  12  12  12  12  12  12  12
#     4  10  21  37  54  73 102 137 169 207 258 310
#     4  11  21  35  56  80 103 130 167 210 257 307
#     4  10  21  37  54  73 102 137 169 207 258 310
#     4   9  16  28  47  74 108 144 178 208 242 288
#     4   9  17  29  49  77 109 142 174 208 244 286
#     4  11  21  35  56  80 103 130 167 210 257 307
#     4   9  17  29  49  77 109 142 174 208 244 286
#     4   9  16  28  47  74 108 144 178 208 242 288
#
# _framework density 17.446847000000002
#
# number of rings (size 3 to 8) (size 9 to 14) (size 15 to 20)
#    0.000    2.250    2.500    1.250    0.000    4.500 
#    0.000    0.000    0.000    6.000    0.000    0.000 
#    0.000    2.000    0.000    0.000    0.000    0.000 
#
# Total GULP energy -1190563.196203 kJ/mol
# GULP energy per Si atom -12401.699960 kJ/mol
# Density = 1.740714 g / cm^3
# Si number density = 17.446847 Si / 1000 Ang^3
#
#
#
# Elastic Constant Matrix: (Units=GPa)
#
#
# Indices 1 2 3 4 5 6 
#
# 1 95.4680 62.9642 47.9467 0.0000 0.0000 0.0000
# 2 62.9642 95.4680 47.9467 0.0000 0.0000 0.0000
# 3 47.9467 47.9467 79.3706 0.0000 0.0000 0.0000
# 4 0.0000 0.0000 0.0000 22.8416 0.0000 0.0000
# 5 0.0000 0.0000 0.0000 0.0000 22.8416 0.0000
# 6 0.0000 0.0000 0.0000 0.0000 0.0000 16.2519
#
#
#
# Elastic Compliance Matrix: (Units=1/GPa)
#
#
# Indices 1 2 3 4 5 6 
#
# 1 0.020358 -0.010408 -0.006011 0.000000 0.000000 0.000000
# 2 -0.010408 0.020358 -0.006011 0.000000 0.000000 0.000000
# 3 -0.006011 -0.006011 0.019861 0.000000 0.000000 0.000000
# 4 0.000000 0.000000 0.000000 0.043780 0.000000 0.000000
# 5 0.000000 0.000000 0.000000 0.000000 0.043780 0.000000
# 6 0.000000 0.000000 0.000000 0.000000 0.000000 0.061531
#
#
# Mechanical properties :
#
#
# Convention : Reuss Voigt Hill
#
# Bulk Modulus (GPa) = 63.61990 65.33573 64.47782
# Shear Modulus (GPa) = 19.24820 19.81695 19.53258
#
# Velocity S-wave (km/s) = 3.32512 3.37389 3.34959
# Velocity P-wave (km/s) = 7.16143 7.25998 7.21087
#
# Compressibility (1/GPa) = 0.01571835
#
# Stress axis : x y z
#
# Youngs Moduli (GPa) = 49.12145 49.12145 50.35021
#
# Poissons Ratio (x) = 0.51125 0.30263
# Poissons Ratio (y) = 0.51125 0.30263
# Poissons Ratio (z) = 0.29525 0.29525
#
# Static dielectric constant tensor:
#      x y z
#    x 3.201930 0.000000 0.000000 
#    y 0.000000 3.201930 0.000000 
#    z 0.000000 0.000000 3.049690 
# 
# 
# High freq. dielectric constant tensor:
#      x y z
#    x 1.669900 0.000000 0.000000 
#    y 0.000000 1.669900 0.000000 
#    z 0.000000 0.000000 1.649330 
# 
# From -- ./inp_files/5023.got.cif
#   From: 2010.03.12/outbox.cif.g09.slc.cpg/sg182_3_cif.got.tgz:5023.got - 2010.04.01 11:49:36.
