data_PCOD8326024
_publ_section_title
;
Structure prediction by ZEFSAII (Michael W. Deem and Ramdas Pophale) SiO2 
 PCOD8326024
Probable space group: P 65 2 2
;
_chemical_formula_sum "Si O2"
_cell_formula_units_Z 54
_cell_length_a 25.781730
_cell_length_b 25.781730
_cell_length_c 5.071658
_cell_angle_alpha 90.000000
_cell_angle_beta 90.000000
_cell_angle_gamma 120.000000
_cell_volume 2919.474615
_symmetry_space_group_name_H-M "P 65 2 2"
_symmetry_group_IT_number 179
_symmetry_cell_setting 'hexagonal'
loop_
_space_group_symop_operation_xyz
x,y,z
x-y,x,5/6+z
-y,x-y,2/3+z
-x,-y,1/2+z
-x+y,-x,1/3+z
y,-x+y,1/6+z
x-y,-y,-z
-x,-x+y,1/3-z
y,x,2/3-z
-y,-x,1/6-z
-x+y,y,1/2-z
x,x-y,5/6-z
loop_
_atom_site_type_symbol
_atom_site_label
_atom_site_fract_x
_atom_site_fract_y
_atom_site_fract_z
Si Si1 0.754124 0.068812 0.987987
Si Si2 0.713228 0.550257 0.767022
Si Si3 0.516285 0.317816 0.895162
Si Si4 0.821059 0.752373 0.340698
Si Si5 0.366955 0.733909 0.750000
O O1 0.782460 0.082476 0.698845
O O2 0.721645 0.106809 0.020231
O O3 0.806123 0.084623 0.205209
O O4 0.703008 0.000000 0.000000
O O5 0.777207 0.554414 0.750000
O O6 0.677548 0.525618 0.494328
O O7 0.668573 0.502494 0.987459
O O8 0.499859 0.249930 0.916667
O O9 0.585379 0.359163 0.807029
O O10 0.805976 0.805976 0.333334
O O11 0.890190 0.780380 0.250000
O O12 0.305848 0.694153 0.583334
#
# Coordination Sequence:
#
# PCOD8326024 Si02
#       5
#    12  12  12  12   6
#     4  10  20  33  52  77 103 138 175 213 264 315
#     4  10  19  32  49  70 105 131 163 209 252 306
#     4  10  21  33  47  74  98 134 170 195 250 306
#     4  10  19  31  49  75 105 138 179 215 261 315
#     4  12  22  34  54  72 108 138 168 206 248 298
#
# _framework density 18.496479000000001
#
# number of rings (size 3 to 8) (size 9 to 14) (size 15 to 20)
#    0.000    1.778    1.111    5.333    0.000    1.778 
#    0.000    0.000    0.000    0.000    0.000    7.778 
#    0.000    0.000    0.000    0.000    0.000    0.000 
#
# Total GULP energy -669303.792040 kJ/mol
# GULP energy per Si atom -12394.514667 kJ/mol
# Density = 1.845438 g / cm^3
# Si number density = 18.496479 Si / 1000 Ang^3
#
#
#
# Elastic Constant Matrix: (Units=GPa)
#
#
# Indices 1 2 3 4 5 6 
#
# 1 84.8776 43.3141 31.0734 0.0000 0.0000 0.0000
# 2 43.3141 84.8776 31.0734 0.0000 0.0000 0.0000
# 3 31.0734 31.0734 107.5951 0.0000 0.0000 0.0000
# 4 0.0000 0.0000 0.0000 25.0702 0.0000 0.0000
# 5 0.0000 0.0000 0.0000 0.0000 25.0702 0.0000
# 6 0.0000 0.0000 0.0000 0.0000 0.0000 20.7818
#
#
#
# Elastic Compliance Matrix: (Units=1/GPa)
#
#
# Indices 1 2 3 4 5 6 
#
# 1 0.016565 -0.007494 -0.002620 0.000000 0.000000 0.000000
# 2 -0.007494 0.016565 -0.002620 0.000000 0.000000 0.000000
# 3 -0.002620 -0.002620 0.010807 0.000000 0.000000 0.000000
# 4 0.000000 0.000000 0.000000 0.039888 0.000000 0.000000
# 5 0.000000 0.000000 0.000000 0.000000 0.039888 0.000000
# 6 0.000000 0.000000 0.000000 0.000000 0.000000 0.048119
#
#
# Mechanical properties :
#
#
# Convention : Reuss Voigt Hill
#
# Bulk Modulus (GPa) = 54.14110 54.25243 54.19677
# Shear Modulus (GPa) = 24.57526 25.64374 25.10950
#
# Velocity S-wave (km/s) = 3.64901 3.72749 3.68846
# Velocity P-wave (km/s) = 6.86209 6.92246 6.89234
#
# Compressibility (1/GPa) = 0.01847026
#
# Stress axis : x y z
#
# Youngs Moduli (GPa) = 60.36756 60.36756 92.53081
#
# Poissons Ratio (x) = 0.45242 0.24240
# Poissons Ratio (y) = 0.45242 0.24240
# Poissons Ratio (z) = 0.15814 0.15814
#
# Static dielectric constant tensor:
#      x y z
#    x 3.169750 0.000000 0.000000 
#    y 0.000000 3.169750 0.000000 
#    z 0.000000 0.000000 4.079720 
# 
# 
# High freq. dielectric constant tensor:
#      x y z
#    x 1.683450 0.000000 0.000000 
#    y 0.000000 1.683450 0.000000 
#    z 0.000000 0.000000 1.752480 
# 
# From -- ./inp_files/1180.got.cif
#   From: 2010.03.12/outbox.cif.g09.slc.cpg/sg179_1_cif.got.tgz:1180.got - 2010.04.02 07:08:42.
