data_PCOD8326599
_publ_section_title
;
Structure prediction by ZEFSAII (Michael W. Deem and Ramdas Pophale) SiO2 
 PCOD8326599
Probable space group: P 6 C C
;
_chemical_formula_sum "Si O2"
_cell_formula_units_Z 30
_cell_length_a 10.499526
_cell_length_b 10.499526
_cell_length_c 13.853335
_cell_angle_alpha 90.000000
_cell_angle_beta 90.000000
_cell_angle_gamma 120.000000
_cell_volume 1322.587320
_symmetry_space_group_name_H-M "P 6 C C"
_symmetry_group_IT_number 184
_symmetry_cell_setting 'hexagonal'
loop_
_space_group_symop_operation_xyz
x,y,z
x-y,x,z
-y,x-y,z
-x,-y,z
-x+y,-x,z
y,-x+y,z
-x+y,y,1/2+z
x,x-y,1/2+z
-y,-x,1/2+z
y,x,1/2+z
x-y,-y,1/2+z
-x,-x+y,1/2+z
loop_
_atom_site_type_symbol
_atom_site_label
_atom_site_fract_x
_atom_site_fract_y
_atom_site_fract_z
Si Si1 0.500000 0.500000 0.390050
Si Si2 0.327537 0.825889 0.220860
Si Si3 0.067789 0.740156 0.532850
O O1 0.452505 0.352661 0.326211
O O2 0.359085 0.457969 0.457823
O O3 0.185888 0.663079 0.211092
O O4 0.316379 0.927699 0.140087
O O5 0.908524 0.720820 0.516470
#
# Coordination Sequence:
#
# PCOD8326599 Si02
#       3
#     6  12  12
#     4  12  22  42  70 106 136 178 238 296 348 404
#     4  10  23  42  69 101 139 180 233 287 342 409
#     4  12  26  45  68 101 143 188 232 286 353 427
#
# _framework density 22.682811000000001
#
# number of rings (size 3 to 8) (size 9 to 14) (size 15 to 20)
#    0.800    0.000    0.000    8.800    0.000    0.000 
#    2.400    0.000    0.000    4.800    0.000    0.000 
#    0.000    0.000    0.000    0.000    0.000    0.000 
#
# Total GULP energy -371731.371345 kJ/mol
# GULP energy per Si atom -12391.045711 kJ/mol
# Density = 2.263118 g / cm^3
# Si number density = 22.682811 Si / 1000 Ang^3
#
#
#
# Elastic Constant Matrix: (Units=GPa)
#
#
# Indices 1 2 3 4 5 6 
#
# 1 95.4056 9.5572 36.1153 0.0000 0.0000 0.0000
# 2 9.5572 95.4056 36.1153 0.0000 0.0000 0.0000
# 3 36.1153 36.1153 131.2425 0.0000 0.0000 0.0000
# 4 0.0000 0.0000 0.0000 23.6456 0.0000 0.0000
# 5 0.0000 0.0000 0.0000 0.0000 23.6456 0.0000
# 6 0.0000 0.0000 0.0000 0.0000 0.0000 42.9242
#
#
#
# Elastic Compliance Matrix: (Units=1/GPa)
#
#
# Indices 1 2 3 4 5 6 
#
# 1 0.011701 0.000052 -0.003234 0.000000 0.000000 0.000000
# 2 0.000052 0.011701 -0.003234 0.000000 0.000000 0.000000
# 3 -0.003234 -0.003234 0.009399 0.000000 0.000000 0.000000
# 4 0.000000 0.000000 0.000000 0.042291 0.000000 0.000000
# 5 0.000000 0.000000 0.000000 0.000000 0.042291 0.000000
# 6 0.000000 0.000000 0.000000 0.000000 0.000000 0.023297
#
#
# Mechanical properties :
#
#
# Convention : Reuss Voigt Hill
#
# Bulk Modulus (GPa) = 50.07904 53.95883 52.01893
# Shear Modulus (GPa) = 31.21721 34.06081 32.63901
#
# Velocity S-wave (km/s) = 3.71381 3.87927 3.79744
# Velocity P-wave (km/s) = 6.36520 6.62609 6.49695
#
# Compressibility (1/GPa) = 0.01996843
#
# Stress axis : x y z
#
# Youngs Moduli (GPa) = 85.46567 85.46567 106.38954
#
# Poissons Ratio (x) = -0.00446 0.34408
# Poissons Ratio (y) = -0.00446 0.34408
# Poissons Ratio (z) = 0.27641 0.27641
#
# Static dielectric constant tensor:
#      x y z
#    x 3.957420 0.000000 0.000000 
#    y 0.000000 3.957420 0.000000 
#    z 0.000000 0.000000 4.069090 
# 
# 
# High freq. dielectric constant tensor:
#      x y z
#    x 1.890170 0.000000 0.000000 
#    y 0.000000 1.890170 0.000000 
#    z 0.000000 0.000000 1.905410 
# 
# From -- ./inp_files/702.got.cif
#   From: 2010.03.12/outbox.cif.g09.slc.cpg/sg184_cif.got.tgz:702.got - 2010.04.01 11:54:36.
