data_PCOD8326681
_publ_section_title
;
Structure prediction by ZEFSAII (Michael W. Deem and Ramdas Pophale) SiO2 
 PCOD8326681
Probable space group: P 63 C M
;
_chemical_formula_sum "Si O2"
_cell_formula_units_Z 84
_cell_length_a 13.856080
_cell_length_b 13.856080
_cell_length_c 26.071362
_cell_angle_alpha 90.000000
_cell_angle_beta 90.000000
_cell_angle_gamma 120.000000
_cell_volume 4334.860398
_symmetry_space_group_name_H-M "P 63 C M"
_symmetry_group_IT_number 185
_symmetry_cell_setting 'hexagonal'
loop_
_space_group_symop_operation_xyz
x,y,z
x-y,x,1/2+z
-y,x-y,z
-x,-y,1/2+z
-x+y,-x,z
y,-x+y,1/2+z
-x+y,y,1/2+z
x,x-y,1/2+z
-y,-x,1/2+z
y,x,z
x-y,-y,z
-x,-x+y,z
loop_
_atom_site_type_symbol
_atom_site_label
_atom_site_fract_x
_atom_site_fract_y
_atom_site_fract_z
Si Si1 0.458827 0.326070 0.551920
Si Si2 0.605007 0.872549 0.246317
Si Si3 0.876858 0.122032 0.835847
Si Si4 0.665876 0.127323 0.004444
Si Si5 0.546834 0.721848 0.390458
Si Si6 0.608416 0.123306 0.339013
Si Si7 0.719286 0.475249 0.159007
O O1 0.369104 0.369104 0.549128
O O2 0.421390 0.216389 0.517017
O O3 0.580751 0.424474 0.534165
O O4 0.460581 0.276424 0.607375
O O5 0.689676 0.859005 0.282961
O O6 0.495955 0.843111 0.280831
O O7 0.568973 0.777356 0.202773
O O8 0.663252 0.000000 0.224050
O O9 0.797535 0.119296 0.881615
O O10 0.000000 0.196137 0.857251
O O11 0.854605 0.000000 0.823886
O O12 0.633280 0.000000 0.017847
O O13 0.655612 0.138904 0.943712
O O14 0.488329 0.796166 0.382910
O O15 0.504129 0.631161 0.344688
O O16 0.589589 0.000000 0.348786
O O17 0.588153 0.380257 0.162419
#
# Coordination Sequence:
#
# PCOD8326681 Si02
#       7
#    12  12  12  12  12  12  12
#     4  11  23  41  63  85 116 157 197 244 311 369
#     4   9  21  36  56  84 117 150 188 232 281 339
#     4  10  21  38  57  81 114 154 198 238 278 333
#     4  11  22  38  59  88 119 151 201 255 299 355
#     4  11  21  34  56  83 115 154 192 234 286 343
#     4  10  21  36  52  83 121 154 190 227 276 346
#     4  10  21  37  56  84 115 144 188 238 287 347
#
# _framework density 19.377787000000001
#
# number of rings (size 3 to 8) (size 9 to 14) (size 15 to 20)
#    0.286    1.429    1.429    4.143    4.000    4.000 
#    0.000    0.000    0.000    0.286    0.000    1.000 
#    0.000    0.000    0.000    0.000    0.000    0.000 
#
# Total GULP energy -1040705.952034 kJ/mol
# GULP energy per Si atom -12389.356572 kJ/mol
# Density = 1.933368 g / cm^3
# Si number density = 19.377787 Si / 1000 Ang^3
#
#
#
# Elastic Constant Matrix: (Units=GPa)
#
#
# Indices 1 2 3 4 5 6 
#
# 1 97.2260 49.1268 41.2478 0.0000 0.0000 0.0000
# 2 49.1268 97.2260 41.2478 0.0000 0.0000 0.0000
# 3 41.2478 41.2478 100.6703 0.0000 0.0000 0.0000
# 4 0.0000 0.0000 0.0000 20.9668 0.0000 0.0000
# 5 0.0000 0.0000 0.0000 0.0000 20.9668 0.0000
# 6 0.0000 0.0000 0.0000 0.0000 0.0000 24.0496
#
#
#
# Elastic Compliance Matrix: (Units=1/GPa)
#
#
# Indices 1 2 3 4 5 6 
#
# 1 0.014838 -0.005953 -0.003640 0.000000 0.000000 0.000000
# 2 -0.005953 0.014838 -0.003640 0.000000 0.000000 0.000000
# 3 -0.003640 -0.003640 0.012917 0.000000 0.000000 0.000000
# 4 0.000000 0.000000 0.000000 0.047694 0.000000 0.000000
# 5 0.000000 0.000000 0.000000 0.000000 0.047694 0.000000
# 6 0.000000 0.000000 0.000000 0.000000 0.000000 0.041581
#
#
# Mechanical properties :
#
#
# Convention : Reuss Voigt Hill
#
# Bulk Modulus (GPa) = 62.01687 62.04079 62.02883
# Shear Modulus (GPa) = 23.65148 24.09664 23.87406
#
# Velocity S-wave (km/s) = 3.49742 3.53018 3.51384
# Velocity P-wave (km/s) = 6.95578 6.97870 6.96725
#
# Compressibility (1/GPa) = 0.01612464
#
# Stress axis : x y z
#
# Youngs Moduli (GPa) = 67.39635 67.39635 77.41986
#
# Poissons Ratio (x) = 0.40120 0.28184
# Poissons Ratio (y) = 0.40120 0.28184
# Poissons Ratio (z) = 0.24535 0.24535
#
# Static dielectric constant tensor:
#      x y z
#    x 3.577380 0.000000 0.000000 
#    y 0.000000 3.577380 0.000000 
#    z 0.000000 0.000000 3.352730 
# 
# 
# High freq. dielectric constant tensor:
#      x y z
#    x 1.749740 0.000000 0.000000 
#    y 0.000000 1.749740 0.000000 
#    z 0.000000 0.000000 1.738820 
# 
# From -- ./inp_files/2081.got.cif
#   From: 2010.03.12/outbox.cif.g09.slc.cpg/sg185_cif.got.tgz:2081.got - 2010.04.01 11:55:19.
