data_PCOD8326741
_publ_section_title
;
Structure prediction by ZEFSAII (Michael W. Deem and Ramdas Pophale) SiO2 
 PCOD8326741
Probable space group: P 63 M C
;
_chemical_formula_sum "Si O2"
_cell_formula_units_Z 36
_cell_length_a 20.271995
_cell_length_b 20.271995
_cell_length_c 5.197150
_cell_angle_alpha 90.000000
_cell_angle_beta 90.000000
_cell_angle_gamma 120.000000
_cell_volume 1849.647050
_symmetry_space_group_name_H-M "P 63 M C"
_symmetry_group_IT_number 186
_symmetry_cell_setting 'hexagonal'
loop_
_space_group_symop_operation_xyz
x,y,z
x-y,x,1/2+z
-y,x-y,z
-x,-y,1/2+z
-x+y,-x,z
y,-x+y,1/2+z
-x+y,y,z
x,x-y,z
-y,-x,z
y,x,1/2+z
x-y,-y,1/2+z
-x,-x+y,1/2+z
loop_
_atom_site_type_symbol
_atom_site_label
_atom_site_fract_x
_atom_site_fract_y
_atom_site_fract_z
Si Si1 0.750201 0.797370 0.914910
Si Si2 0.177107 0.511271 0.428441
Si Si3 0.289808 0.866763 0.927580
O O1 0.755412 0.877706 0.955034
O O2 0.786311 0.797628 0.640567
O O3 0.663479 0.728320 0.927332
O O4 0.258776 0.517552 0.429089
O O5 0.191491 0.595746 0.424695
O O6 0.127906 0.466747 0.677546
O O7 0.127998 0.465335 0.181139
O O8 0.211865 0.788136 0.922135
#
# Coordination Sequence:
#
# PCOD8326741 Si02
#       3
#    12  12  12
#     4  11  22  39  64  89 112 139 176 218 260 313
#     4  10  18  30  49  75 108 145 189 237 285 324
#     4   9  19  33  51  76 105 142 184 227 269 313
#
# _framework density 19.463172
#
# number of rings (size 3 to 8) (size 9 to 14) (size 15 to 20)
#    0.000    2.000    0.000    4.333    0.000    5.333 
#    0.000    3.333    0.000   26.667    0.000    0.000 
#    0.000    0.000    0.000    0.000    0.000    0.000 
#
# Total GULP energy -446493.608704 kJ/mol
# GULP energy per Si atom -12402.600242 kJ/mol
# Density = 1.941887 g / cm^3
# Si number density = 19.463172 Si / 1000 Ang^3
#
#
#
# Elastic Constant Matrix: (Units=GPa)
#
#
# Indices 1 2 3 4 5 6 
#
# 1 73.1768 19.7449 29.0238 0.0000 0.0000 0.0000
# 2 19.7449 73.1768 29.0238 0.0000 0.0000 0.0000
# 3 29.0238 29.0238 156.5751 0.0000 0.0000 0.0000
# 4 0.0000 0.0000 0.0000 26.9561 0.0000 0.0000
# 5 0.0000 0.0000 0.0000 0.0000 26.9561 0.0000
# 6 0.0000 0.0000 0.0000 0.0000 0.0000 26.7159
#
#
#
# Elastic Compliance Matrix: (Units=1/GPa)
#
#
# Indices 1 2 3 4 5 6 
#
# 1 0.015443 -0.003272 -0.002256 0.000000 0.000000 0.000000
# 2 -0.003272 0.015443 -0.002256 0.000000 0.000000 0.000000
# 3 -0.002256 -0.002256 0.007223 0.000000 0.000000 0.000000
# 4 0.000000 0.000000 0.000000 0.037097 0.000000 0.000000
# 5 0.000000 0.000000 0.000000 0.000000 0.037097 0.000000
# 6 0.000000 0.000000 0.000000 0.000000 0.000000 0.037431
#
#
# Mechanical properties :
#
#
# Convention : Reuss Voigt Hill
#
# Bulk Modulus (GPa) = 44.36378 50.94597 47.65487
# Shear Modulus (GPa) = 28.93221 31.13469 30.03345
#
# Velocity S-wave (km/s) = 3.85971 4.00393 3.93248
# Velocity P-wave (km/s) = 6.53501 6.89983 6.71990
#
# Compressibility (1/GPa) = 0.02254091
#
# Stress axis : x y z
#
# Youngs Moduli (GPa) = 64.75307 64.75307 138.44418
#
# Poissons Ratio (x) = 0.21188 0.31235
# Poissons Ratio (y) = 0.21188 0.31235
# Poissons Ratio (z) = 0.14609 0.14609
#
# Static dielectric constant tensor:
#      x y z
#    x 3.352500 0.000000 0.000000 
#    y 0.000000 3.352500 0.000000 
#    z 0.000000 0.000000 3.921800 
# 
# 
# High freq. dielectric constant tensor:
#      x y z
#    x 1.742810 0.000000 0.000000 
#    y 0.000000 1.742810 0.000000 
#    z 0.000000 0.000000 1.780410 
# 
# From -- ./inp_files/28.got.cif
#   From: 2010.03.12/outbox.cif.g09.slc.cpg/sg186_1_cif.got.tgz:28.got - 2010.04.01 11:56:34.
