data_PCOD8326013
_publ_section_title
;
Structure prediction by ZEFSAII (Michael W. Deem and Ramdas Pophale) SiO2 
 PCOD8326013
Probable space group: P 65 2 2
;
_chemical_formula_sum "Si O2"
_cell_formula_units_Z 66
_cell_length_a 18.984588
_cell_length_b 18.984588
_cell_length_c 14.036185
_cell_angle_alpha 90.000000
_cell_angle_beta 90.000000
_cell_angle_gamma 120.000000
_cell_volume 4381.088927
_symmetry_space_group_name_H-M "P 65 2 2"
_symmetry_group_IT_number 179
_symmetry_cell_setting 'hexagonal'
loop_
_space_group_symop_operation_xyz
x,y,z
x-y,x,5/6+z
-y,x-y,2/3+z
-x,-y,1/2+z
-x+y,-x,1/3+z
y,-x+y,1/6+z
x-y,-y,-z
-x,-x+y,1/3-z
y,x,2/3-z
-y,-x,1/6-z
-x+y,y,1/2-z
x,x-y,5/6-z
loop_
_atom_site_type_symbol
_atom_site_label
_atom_site_fract_x
_atom_site_fract_y
_atom_site_fract_z
Si Si1 0.282692 0.641346 0.916667
Si Si2 0.616242 0.423601 0.778681
Si Si3 0.603524 0.996976 0.204497
Si Si4 0.826255 0.517867 0.539198
Si Si5 0.167246 0.428783 0.332756
Si Si6 0.556760 0.034039 0.396989
O O1 0.344217 0.722734 0.976172
O O2 0.226296 0.663968 0.855929
O O3 0.635858 0.485766 0.866303
O O4 0.678147 0.475847 0.693701
O O5 0.525584 0.393713 0.740037
O O6 0.586210 0.906549 0.182172
O O7 0.693296 0.069524 0.175659
O O8 0.597558 0.004685 0.318156
O O9 0.538548 0.005461 0.140563
O O10 0.778090 0.565068 0.567718
O O11 0.193260 0.386519 0.250000
O O12 0.560226 0.000000 0.500000
#
# Coordination Sequence:
#
# PCOD8326013 Si02
#       6
#     6  12  12  12  12  12
#     4  12  20  28  42  64  92 124 160 210 256 278
#     4  10  19  29  44  61  90 119 158 206 248 283
#     4  10  20  32  47  67  87 117 162 197 240 310
#     4  11  20  31  45  67  90 119 160 207 248 295
#     4   9  19  33  48  66  84 119 155 205 253 280
#     4  10  18  30  45  62  89 125 152 194 250 289
#
# _framework density 15.064747000000001
#
# number of rings (size 3 to 8) (size 9 to 14) (size 15 to 20)
#    0.000    1.818    4.545    2.727    0.000    1.455 
#    0.000    0.000    0.000    0.000    0.000    0.000 
#    0.000    0.000    0.000    0.000    0.000    0.000 
#
# Total GULP energy -817710.810426 kJ/mol
# GULP energy per Si atom -12389.557734 kJ/mol
# Density = 1.503046 g / cm^3
# Si number density = 15.064747 Si / 1000 Ang^3
#
#
#
# Elastic Constant Matrix: (Units=GPa)
#
#
# Indices 1 2 3 4 5 6 
#
# 1 74.0957 38.2949 30.5805 0.0000 0.0000 0.0000
# 2 38.2949 74.0957 30.5805 0.0000 0.0000 0.0000
# 3 30.5805 30.5805 82.2636 0.0000 0.0000 0.0000
# 4 0.0000 0.0000 0.0000 18.8687 0.0000 0.0000
# 5 0.0000 0.0000 0.0000 0.0000 18.8687 0.0000
# 6 0.0000 0.0000 0.0000 0.0000 0.0000 17.9004
#
#
#
# Elastic Compliance Matrix: (Units=1/GPa)
#
#
# Indices 1 2 3 4 5 6 
#
# 1 0.019543 -0.008389 -0.004146 0.000000 0.000000 0.000000
# 2 -0.008389 0.019543 -0.004146 0.000000 0.000000 0.000000
# 3 -0.004146 -0.004146 0.015239 0.000000 0.000000 0.000000
# 4 0.000000 0.000000 0.000000 0.052998 0.000000 0.000000
# 5 0.000000 0.000000 0.000000 0.000000 0.052998 0.000000
# 6 0.000000 0.000000 0.000000 0.000000 0.000000 0.055865
#
#
# Mechanical properties :
#
#
# Convention : Reuss Voigt Hill
#
# Bulk Modulus (GPa) = 47.70713 47.70743 47.70728
# Shear Modulus (GPa) = 19.49045 19.86085 19.67565
#
# Velocity S-wave (km/s) = 3.60082 3.63487 3.61788
# Velocity P-wave (km/s) = 7.00176 7.02520 7.01349
#
# Compressibility (1/GPa) = 0.02096123
#
# Stress axis : x y z
#
# Youngs Moduli (GPa) = 51.16896 51.16896 65.62228
#
# Poissons Ratio (x) = 0.42927 0.27209
# Poissons Ratio (y) = 0.42927 0.27209
# Poissons Ratio (z) = 0.21216 0.21216
#
# Static dielectric constant tensor:
#      x y z
#    x 2.773520 0.000000 0.000000 
#    y 0.000000 2.773520 0.000000 
#    z 0.000000 0.000000 2.995780 
# 
# 
# High freq. dielectric constant tensor:
#      x y z
#    x 1.541700 0.000000 0.000000 
#    y 0.000000 1.541700 0.000000 
#    z 0.000000 0.000000 1.583870 
# 
# From -- ./inp_files/6000.got.cif
#   From: 2010.03.12/outbox.cif.g09.slc.cpg/sg179_3_cif.got.tgz:6000.got - 2010.04.02 07:08:42.
