data_PCOD8326358
_publ_section_title
;
Structure prediction by ZEFSAII (Michael W. Deem and Ramdas Pophale) SiO2 
 PCOD8326358
Probable space group: P 64 2 2
;
_chemical_formula_sum "Si O2"
_cell_formula_units_Z 96
_cell_length_a 15.133471
_cell_length_b 15.133471
_cell_length_c 23.698850
_cell_angle_alpha 90.000000
_cell_angle_beta 90.000000
_cell_angle_gamma 120.000000
_cell_volume 4700.401991
_symmetry_space_group_name_H-M "P 64 2 2"
_symmetry_group_IT_number 181
_symmetry_cell_setting 'hexagonal'
loop_
_space_group_symop_operation_xyz
x,y,z
x-y,x,2/3+z
-y,x-y,1/3+z
-x,-y,z
-x+y,-x,2/3+z
y,-x+y,1/3+z
x-y,-y,-z
-x,-x+y,2/3-z
y,x,1/3-z
-y,-x,1/3-z
-x+y,y,-z
x,x-y,2/3-z
loop_
_atom_site_type_symbol
_atom_site_label
_atom_site_fract_x
_atom_site_fract_y
_atom_site_fract_z
Si Si1 0.140064 0.304676 0.933860
Si Si2 0.999337 0.747568 0.396776
Si Si3 0.066107 0.792115 0.069042
Si Si4 0.375798 0.841838 0.822673
Si Si5 0.773023 0.084360 0.394117
Si Si6 0.946030 0.341413 0.166593
Si Si7 0.186566 0.662386 0.882333
Si Si8 0.469955 0.721127 0.269558
O O1 0.194266 0.243313 0.911486
O O2 0.183051 0.417764 0.906558
O O3 0.022024 0.241332 0.917287
O O4 0.157352 0.314703 0.000000
O O5 0.915835 0.785058 0.401217
O O6 0.961762 0.654133 0.438933
O O7 0.000000 0.708614 0.333334
O O8 0.112174 0.835552 0.412472
O O9 0.105593 0.746731 0.118723
O O10 0.078208 0.752765 0.007054
O O11 0.485909 0.869239 0.845492
O O12 0.289576 0.765856 0.866265
O O13 0.358827 0.782296 0.763100
O O14 0.371968 0.944272 0.810464
O O15 0.691809 0.104641 0.427899
O O16 0.148712 0.574356 0.833334
O O17 0.207793 0.607147 0.934122
O O18 0.493161 0.746581 0.333334
#
# Coordination Sequence:
#
# PCOD8326358 Si02
#       8
#    12  12  12  12  12  12  12  12
#     4   9  19  38  60  91 123 161 200 254 312 364
#     4  10  22  40  63  94 126 160 206 264 315 382
#     4  10  21  37  66  95 121 162 213 257 317 380
#     4  10  22  40  62  87 124 165 204 257 312 375
#     4  10  21  40  63  89 134 163 206 260 315 374
#     4  11  21  40  65  90 121 164 212 258 317 375
#     4  10  22  41  59  87 126 167 207 247 318 377
#     4  10  21  38  60  89 126 156 211 262 302 367
#
# _framework density 20.423784999999999
#
# number of rings (size 3 to 8) (size 9 to 14) (size 15 to 20)
#    0.000    2.000    2.500    0.375    1.750    4.000 
#    2.250   11.250    0.000    1.500    0.000    0.000 
#    0.000    0.000    0.000    0.000    0.000    0.000 
#
# Total GULP energy -1189550.494439 kJ/mol
# GULP energy per Si atom -12391.150984 kJ/mol
# Density = 2.037730 g / cm^3
# Si number density = 20.423785 Si / 1000 Ang^3
#
#
#
# Elastic Constant Matrix: (Units=GPa)
#
#
# Indices 1 2 3 4 5 6 
#
# 1 109.4157 59.8576 42.0655 0.0000 0.0000 0.0000
# 2 59.8576 109.4157 42.0655 0.0000 0.0000 0.0000
# 3 42.0655 42.0655 80.3172 0.0000 0.0000 0.0000
# 4 0.0000 0.0000 0.0000 31.0799 0.0000 0.0000
# 5 0.0000 0.0000 0.0000 0.0000 31.0799 0.0000
# 6 0.0000 0.0000 0.0000 0.0000 0.0000 24.7791
#
#
#
# Elastic Compliance Matrix: (Units=1/GPa)
#
#
# Indices 1 2 3 4 5 6 
#
# 1 0.014082 -0.006096 -0.004183 0.000000 0.000000 0.000000
# 2 -0.006096 0.014082 -0.004183 0.000000 0.000000 0.000000
# 3 -0.004183 -0.004183 0.016832 0.000000 0.000000 0.000000
# 4 0.000000 0.000000 0.000000 0.032175 0.000000 0.000000
# 5 0.000000 0.000000 0.000000 0.000000 0.032175 0.000000
# 6 0.000000 0.000000 0.000000 0.000000 0.000000 0.040357
#
#
# Mechanical properties :
#
#
# Convention : Reuss Voigt Hill
#
# Bulk Modulus (GPa) = 62.21349 65.23620 63.72484
# Shear Modulus (GPa) = 27.17611 27.73179 27.45395
#
# Velocity S-wave (km/s) = 3.65171 3.68886 3.67033
# Velocity P-wave (km/s) = 6.95035 7.08196 7.01647
#
# Compressibility (1/GPa) = 0.01607368
#
# Stress axis : x y z
#
# Youngs Moduli (GPa) = 71.01042 71.01042 59.41006
#
# Poissons Ratio (x) = 0.43287 0.24851
# Poissons Ratio (y) = 0.43287 0.24851
# Poissons Ratio (z) = 0.29703 0.29703
#
# Static dielectric constant tensor:
#      x y z
#    x 3.843160 0.000000 0.000000 
#    y 0.000000 3.843160 0.000000 
#    z 0.000000 0.000000 3.639250 
# 
# 
# High freq. dielectric constant tensor:
#      x y z
#    x 1.797010 0.000000 0.000000 
#    y 0.000000 1.797010 0.000000 
#    z 0.000000 0.000000 1.793870 
# 
# From -- ./inp_files/11391.got.cif
#   From: 2010.03.12/outbox.cif.g09.slc.cpg/sg181_6_cif.got.tgz:11391.got - 2010.04.01 11:42:41.
