data_PCOD8326248
_publ_section_title
;
Structure prediction by ZEFSAII (Michael W. Deem and Ramdas Pophale) SiO2 
 PCOD8326248
Probable space group: P 62 2 2
;
_chemical_formula_sum "Si O2"
_cell_formula_units_Z 84
_cell_length_a 15.956074
_cell_length_b 15.956074
_cell_length_c 23.425279
_cell_angle_alpha 90.000000
_cell_angle_beta 90.000000
_cell_angle_gamma 120.000000
_cell_volume 5164.966243
_symmetry_space_group_name_H-M "P 62 2 2"
_symmetry_group_IT_number 180
_symmetry_cell_setting 'hexagonal'
loop_
_space_group_symop_operation_xyz
x,y,z
x-y,x,1/3+z
-y,x-y,2/3+z
-x,-y,z
-x+y,-x,1/3+z
y,-x+y,2/3+z
x-y,-y,-z
-x,-x+y,1/3-z
y,x,2/3-z
-y,-x,2/3-z
-x+y,y,-z
x,x-y,1/3-z
loop_
_atom_site_type_symbol
_atom_site_label
_atom_site_fract_x
_atom_site_fract_y
_atom_site_fract_z
Si Si1 0.602764 0.005956 0.231096
Si Si2 0.348290 0.459166 0.348009
Si Si3 0.784366 0.455102 0.054767
Si Si4 0.154318 0.490654 0.521859
Si Si5 0.594735 0.991047 0.640934
Si Si6 0.197763 0.696775 0.491531
Si Si7 0.807734 0.271299 0.063501
O O1 0.589642 0.921309 0.188574
O O2 0.634990 0.998315 0.294947
O O3 0.500000 0.000000 0.233499
O O4 0.690261 0.106293 0.207517
O O5 0.381682 0.381682 0.333334
O O6 0.432765 0.567235 0.333334
O O7 0.320653 0.449041 0.414522
O O8 0.252024 0.434425 0.312907
O O9 0.723884 0.441332 0.112286
O O10 0.790145 0.358759 0.047398
O O11 0.886886 0.556609 0.055878
O O12 0.730263 0.460525 0.000000
O O13 0.257463 0.514926 0.500000
O O14 0.157958 0.593004 0.521436
O O15 0.684640 0.076268 0.606497
O O16 0.500000 0.000000 0.642504
O O17 0.235755 0.779522 0.538776
#
# Coordination Sequence:
#
# PCOD8326248 Si02
#       7
#    12  12  12  12  12  12  12
#     4   9  18  32  47  63  92 126 165 200 244 290
#     4  11  22  34  48  72 105 135 167 208 257 300
#     4  11  21  33  50  70  94 130 169 209 245 290
#     4  11  21  31  48  71  95 131 172 207 243 302
#     4   9  19  34  49  68  93 127 164 208 252 290
#     4  11  21  32  48  70  94 129 170 210 246 294
#     4  11  21  33  50  71  98 131 165 207 251 297
#
# _framework density 16.263418000000001
#
# number of rings (size 3 to 8) (size 9 to 14) (size 15 to 20)
#    0.000    1.571    2.857    3.429    8.000    0.571 
#    0.000    2.143    0.000    0.000    0.000    0.000 
#    0.000    0.571    0.286    2.000    0.000    0.000 
#
# Total GULP energy -1041282.792545 kJ/mol
# GULP energy per Si atom -12396.223721 kJ/mol
# Density = 1.622640 g / cm^3
# Si number density = 16.263418 Si / 1000 Ang^3
#
#
#
# Elastic Constant Matrix: (Units=GPa)
#
#
# Indices 1 2 3 4 5 6 
#
# 1 56.4694 20.0577 22.6493 0.0000 0.0000 0.0000
# 2 20.0577 56.4694 22.6493 0.0000 0.0000 0.0000
# 3 22.6493 22.6493 107.2991 0.0000 0.0000 0.0000
# 4 0.0000 0.0000 0.0000 25.4549 0.0000 0.0000
# 5 0.0000 0.0000 0.0000 0.0000 25.4549 0.0000
# 6 0.0000 0.0000 0.0000 0.0000 0.0000 18.2058
#
#
#
# Elastic Compliance Matrix: (Units=1/GPa)
#
#
# Indices 1 2 3 4 5 6 
#
# 1 0.021198 -0.006265 -0.003152 0.000000 0.000000 0.000000
# 2 -0.006265 0.021198 -0.003152 0.000000 0.000000 0.000000
# 3 -0.003152 -0.003152 0.010651 0.000000 0.000000 0.000000
# 4 0.000000 0.000000 0.000000 0.039285 0.000000 0.000000
# 5 0.000000 0.000000 0.000000 0.000000 0.039285 0.000000
# 6 0.000000 0.000000 0.000000 0.000000 0.000000 0.054927
#
#
# Mechanical properties :
#
#
# Convention : Reuss Voigt Hill
#
# Bulk Modulus (GPa) = 35.83195 38.99453 37.41324
# Shear Modulus (GPa) = 22.62575 24.14855 23.38715
#
# Velocity S-wave (km/s) = 3.73393 3.85754 3.79624
# Velocity P-wave (km/s) = 6.37728 6.62342 6.50152
#
# Compressibility (1/GPa) = 0.02790805
#
# Stress axis : x y z
#
# Youngs Moduli (GPa) = 47.17333 47.17333 93.89230
#
# Poissons Ratio (x) = 0.29556 0.29596
# Poissons Ratio (y) = 0.29556 0.29596
# Poissons Ratio (z) = 0.14870 0.14870
#
# Static dielectric constant tensor:
#      x y z
#    x 2.898070 0.000000 0.000000 
#    y 0.000000 2.898070 0.000000 
#    z 0.000000 0.000000 3.323860 
# 
# 
# High freq. dielectric constant tensor:
#      x y z
#    x 1.595500 0.000000 0.000000 
#    y 0.000000 1.595500 0.000000 
#    z 0.000000 0.000000 1.646410 
# 
# From -- ./inp_files/10258.got.cif
#   From: 2010.03.12/outbox.cif.g09.slc.cpg/sg180_6_cif.got.tgz:10258.got - 2010.04.01 11:35:50.
