data_PCOD8326306
_publ_section_title
;
Structure prediction by ZEFSAII (Michael W. Deem and Ramdas Pophale) SiO2 
 PCOD8326306
Probable space group: P 64 2 2
;
_chemical_formula_sum "Si O2"
_cell_formula_units_Z 48
_cell_length_a 16.781843
_cell_length_b 16.781843
_cell_length_c 11.113975
_cell_angle_alpha 90.000000
_cell_angle_beta 90.000000
_cell_angle_gamma 120.000000
_cell_volume 2710.686887
_symmetry_space_group_name_H-M "P 64 2 2"
_symmetry_group_IT_number 181
_symmetry_cell_setting 'hexagonal'
loop_
_space_group_symop_operation_xyz
x,y,z
x-y,x,2/3+z
-y,x-y,1/3+z
-x,-y,z
-x+y,-x,2/3+z
y,-x+y,1/3+z
x-y,-y,-z
-x,-x+y,2/3-z
y,x,1/3-z
-y,-x,1/3-z
-x+y,y,-z
x,x-y,2/3-z
loop_
_atom_site_type_symbol
_atom_site_label
_atom_site_fract_x
_atom_site_fract_y
_atom_site_fract_z
Si Si1 0.667674 0.898733 0.996430
Si Si2 0.281736 0.875193 0.741488
Si Si3 0.561382 0.452316 0.301860
Si Si4 0.289630 0.916689 0.260000
O O1 0.606374 0.871588 0.116192
O O2 0.703750 0.092785 0.115895
O O3 0.688386 0.816377 0.970296
O O4 0.761417 0.000000 0.000000
O O5 0.189983 0.810018 0.666667
O O6 0.359385 0.847156 0.714852
O O7 0.317081 0.978524 0.694487
O O8 0.500000 0.500000 0.307317
O O9 0.573482 0.426519 0.166667
O O10 0.662445 0.524429 0.351370
#
# Coordination Sequence:
#
# PCOD8326306 Si02
#       4
#    12  12  12  12
#     4   9  18  32  51  73  97 130 170 204 241 295
#     4  10  19  30  50  77  98 127 168 204 244 299
#     4   9  17  29  47  69  94 125 157 196 242 286
#     4   9  18  33  51  70 101 133 161 205 251 289
#
# _framework density 17.707688999999998
#
# number of rings (size 3 to 8) (size 9 to 14) (size 15 to 20)
#    0.000    2.750    0.000    1.500    0.000    4.000 
#    0.000    5.000   16.500    0.750    0.000    7.000 
#    0.000    0.000    0.000    0.000    0.000    0.000 
#
# Total GULP energy -594764.347077 kJ/mol
# GULP energy per Si atom -12390.923897 kJ/mol
# Density = 1.766739 g / cm^3
# Si number density = 17.707689 Si / 1000 Ang^3
#
#
#
# Elastic Constant Matrix: (Units=GPa)
#
#
# Indices 1 2 3 4 5 6 
#
# 1 96.7034 54.3535 45.7964 0.0000 0.0000 0.0000
# 2 54.3535 96.7034 45.7964 0.0000 0.0000 0.0000
# 3 45.7964 45.7964 117.3548 0.0000 0.0000 0.0000
# 4 0.0000 0.0000 0.0000 22.4969 0.0000 0.0000
# 5 0.0000 0.0000 0.0000 0.0000 22.4969 0.0000
# 6 0.0000 0.0000 0.0000 0.0000 0.0000 21.1750
#
#
#
# Elastic Compliance Matrix: (Units=1/GPa)
#
#
# Indices 1 2 3 4 5 6 
#
# 1 0.016142 -0.007470 -0.003384 0.000000 0.000000 0.000000
# 2 -0.007470 0.016142 -0.003384 0.000000 0.000000 0.000000
# 3 -0.003384 -0.003384 0.011162 0.000000 0.000000 0.000000
# 4 0.000000 0.000000 0.000000 0.044451 0.000000 0.000000
# 5 0.000000 0.000000 0.000000 0.000000 0.044451 0.000000
# 6 0.000000 0.000000 0.000000 0.000000 0.000000 0.047226
#
#
# Mechanical properties :
#
#
# Convention : Reuss Voigt Hill
#
# Bulk Modulus (GPa) = 66.80114 66.96160 66.88137
# Shear Modulus (GPa) = 23.46962 24.22143 23.84552
#
# Velocity S-wave (km/s) = 3.64454 3.70246 3.67361
# Velocity P-wave (km/s) = 7.45094 7.49497 7.47299
#
# Compressibility (1/GPa) = 0.01496980
#
# Stress axis : x y z
#
# Youngs Moduli (GPa) = 61.94870 61.94870 89.58625
#
# Poissons Ratio (x) = 0.46278 0.30317
# Poissons Ratio (y) = 0.46278 0.30317
# Poissons Ratio (z) = 0.20964 0.20964
#
# Static dielectric constant tensor:
#      x y z
#    x 3.269960 0.000000 0.000000 
#    y 0.000000 3.269960 0.000000 
#    z 0.000000 0.000000 3.460450 
# 
# 
# High freq. dielectric constant tensor:
#      x y z
#    x 1.663370 0.000000 0.000000 
#    y 0.000000 1.663370 0.000000 
#    z 0.000000 0.000000 1.701740 
# 
# From -- ./inp_files/4588.got.cif
#   From: 2010.03.12/outbox.cif.g09.slc.cpg/sg181_3_cif.got.tgz:4588.got - 2010.04.01 11:42:41.
