data_PCOD8326040
_publ_section_title
;
Structure prediction by ZEFSAII (Michael W. Deem and Ramdas Pophale) SiO2 
 PCOD8326040
Probable space group: P 65 2 2
;
_chemical_formula_sum "Si O2"
_cell_formula_units_Z 48
_cell_length_a 17.444111
_cell_length_b 17.444111
_cell_length_c 8.306359
_cell_angle_alpha 90.000000
_cell_angle_beta 90.000000
_cell_angle_gamma 120.000000
_cell_volume 2188.965980
_symmetry_space_group_name_H-M "P 65 2 2"
_symmetry_group_IT_number 179
_symmetry_cell_setting 'hexagonal'
loop_
_space_group_symop_operation_xyz
x,y,z
x-y,x,5/6+z
-y,x-y,2/3+z
-x,-y,1/2+z
-x+y,-x,1/3+z
y,-x+y,1/6+z
x-y,-y,-z
-x,-x+y,1/3-z
y,x,2/3-z
-y,-x,1/6-z
-x+y,y,1/2-z
x,x-y,5/6-z
loop_
_atom_site_type_symbol
_atom_site_label
_atom_site_fract_x
_atom_site_fract_y
_atom_site_fract_z
Si Si1 0.521509 0.760755 0.916667
Si Si2 0.956551 0.132435 0.336447
Si Si3 0.230132 0.380366 0.534567
Si Si4 0.836625 0.418313 0.916667
Si Si5 0.334064 0.434067 0.843726
O O1 0.584267 0.734064 0.812238
O O2 0.456207 0.774677 0.803035
O O3 0.915314 0.191788 0.398149
O O4 0.028146 0.142394 0.471756
O O5 0.000000 0.173664 0.166667
O O6 0.306227 0.443972 0.661491
O O7 0.146073 0.394386 0.544613
O O8 0.892375 0.414513 0.761639
O O9 0.359875 0.359875 0.833334
#
# Coordination Sequence:
#
# PCOD8326040 Si02
#       5
#     6  12  12   6  12
#     4  10  22  40  62  89 120 154 200 251 316 392
#     4  10  20  36  57  86 123 166 213 264 316 366
#     4  10  21  39  62  86 119 164 208 249 307 385
#     4  10  24  40  60  89 118 152 194 249 314 374
#     4  10  22  40  60  88 119 154 201 252 305 368
#
# _framework density 21.928160999999999
#
# number of rings (size 3 to 8) (size 9 to 14) (size 15 to 20)
#    0.000    2.000    0.000    3.000    0.000    9.000 
#    0.000   21.250    0.000    0.000    0.000    0.000 
#    0.000    0.000    0.000    0.000    0.000    0.000 
#
# Total GULP energy -594683.507909 kJ/mol
# GULP energy per Si atom -12389.239748 kJ/mol
# Density = 2.187825 g / cm^3
# Si number density = 21.928161 Si / 1000 Ang^3
#
#
#
# Elastic Constant Matrix: (Units=GPa)
#
#
# Indices 1 2 3 4 5 6 
#
# 1 104.1821 43.8060 45.1679 0.0000 0.0000 0.0000
# 2 43.8060 104.1821 45.1679 0.0000 0.0000 0.0000
# 3 45.1679 45.1679 126.2465 0.0000 0.0000 0.0000
# 4 0.0000 0.0000 0.0000 21.5225 0.0000 0.0000
# 5 0.0000 0.0000 0.0000 0.0000 21.5225 0.0000
# 6 0.0000 0.0000 0.0000 0.0000 0.0000 30.1881
#
#
#
# Elastic Compliance Matrix: (Units=1/GPa)
#
#
# Indices 1 2 3 4 5 6 
#
# 1 0.012604 -0.003959 -0.003093 0.000000 0.000000 0.000000
# 2 -0.003959 0.012604 -0.003093 0.000000 0.000000 0.000000
# 3 -0.003093 -0.003093 0.010134 0.000000 0.000000 0.000000
# 4 0.000000 0.000000 0.000000 0.046463 0.000000 0.000000
# 5 0.000000 0.000000 0.000000 0.000000 0.046463 0.000000
# 6 0.000000 0.000000 0.000000 0.000000 0.000000 0.033126
#
#
# Mechanical properties :
#
#
# Convention : Reuss Voigt Hill
#
# Bulk Modulus (GPa) = 66.43348 66.98829 66.71088
# Shear Modulus (GPa) = 26.78066 28.01118 27.39592
#
# Velocity S-wave (km/s) = 3.49849 3.57796 3.53845
# Velocity P-wave (km/s) = 6.83235 6.90539 6.86896
#
# Compressibility (1/GPa) = 0.01505265
#
# Stress axis : x y z
#
# Youngs Moduli (GPa) = 79.33905 79.33905 98.67481
#
# Poissons Ratio (x) = 0.31408 0.30521
# Poissons Ratio (y) = 0.31408 0.30521
# Poissons Ratio (z) = 0.24541 0.24541
#
# Static dielectric constant tensor:
#      x y z
#    x 3.963560 0.000000 0.000000 
#    y 0.000000 3.963560 0.000000 
#    z 0.000000 0.000000 4.528380 
# 
# 
# High freq. dielectric constant tensor:
#      x y z
#    x 1.851710 0.000000 0.000000 
#    y 0.000000 1.851710 0.000000 
#    z 0.000000 0.000000 1.874850 
# 
# From -- ./inp_files/2838.got.cif
#   From: 2010.03.12/outbox.cif.g09.slc.cpg/sg179_2_cif.got.tgz:2838.got - 2010.04.02 07:08:42.
