data_PCOD8326975
_publ_section_title
;
Structure prediction by ZEFSAII (Michael W. Deem and Ramdas Pophale) SiO2 
 PCOD8326975
Probable space group: P -6 M 2
;
_chemical_formula_sum "Si O2"
_cell_formula_units_Z 78
_cell_length_a 23.519456
_cell_length_b 23.519456
_cell_length_c 8.321458
_cell_angle_alpha 90.000000
_cell_angle_beta 90.000000
_cell_angle_gamma 120.000000
_cell_volume 3986.434218
_symmetry_space_group_name_H-M "P -6 M 2"
_symmetry_group_IT_number 187
_symmetry_cell_setting 'hexagonal'
loop_
_space_group_symop_operation_xyz
x,y,z
-x+y,-x,-z
-y,x-y,z
x,y,-z
-x+y,-x,z
-y,x-y,-z
-y,-x,-z
-x+y,y,-z
x,x-y,-z
-x+y,y,z
x,x-y,z
-y,-x,z
loop_
_atom_site_type_symbol
_atom_site_label
_atom_site_fract_x
_atom_site_fract_y
_atom_site_fract_z
Si Si1 0.177245 0.487306 0.825404
Si Si2 0.870192 0.000123 0.313335
Si Si3 0.399746 0.136151 0.189699
Si Si4 0.666350 0.203893 0.310095
Si Si5 0.646108 0.759505 0.320405
Si Si6 0.755928 0.016913 0.812389
Si Si7 0.457010 0.792668 0.500000
O O1 0.252750 0.505499 0.825363
O O2 0.128692 0.409621 0.810606
O O3 0.165169 0.519954 0.666620
O O4 0.162499 0.509577 0.000000
O O5 0.851394 0.994901 0.500000
O O6 0.858569 0.929285 0.251782
O O7 0.827647 0.026028 0.217881
O O8 0.946381 0.053620 0.285425
O O9 0.399461 0.199731 0.256194
O O10 0.467143 0.141299 0.256573
O O11 0.330964 0.075633 0.249915
O O12 0.402188 0.134605 0.000000
O O13 0.664989 0.205776 0.500000
O O14 0.597869 0.195738 0.241598
O O15 0.727617 0.272384 0.243960
O O16 0.616437 0.736446 0.500000
O O17 0.673247 0.836624 0.299001
O O18 0.706531 0.749242 0.295632
O O19 0.739617 0.004144 0.000000
O O20 0.378130 0.756259 0.500000
O O21 0.483558 0.741779 0.500000
#
# Coordination Sequence:
#
# PCOD8326975 Si02
#       7
#    12  12  12  12  12  12   6
#     4   9  17  31  51  74 102 137 174 214 266 323
#     4  10  21  37  55  75 102 139 181 224 272 328
#     4   9  19  35  51  70 102 142 178 213 257 309
#     4   9  17  30  51  79 108 135 166 207 256 309
#     4  10  19  33  53  77 103 130 167 220 276 327
#     4  11  22  34  51  77 106 136 174 222 272 323
#     4  10  19  32  50  76 108 142 177 214 258 314
#
# _framework density 19.566358000000001
#
# number of rings (size 3 to 8) (size 9 to 14) (size 15 to 20)
#    0.000    2.308    0.769    2.231    0.000    7.077 
#    0.000    1.538    0.000    3.692    0.000    2.154 
#    0.000    0.000    0.000    0.000    0.000    0.000 
#
# Total GULP energy -966406.673808 kJ/mol
# GULP energy per Si atom -12389.829151 kJ/mol
# Density = 1.952182 g / cm^3
# Si number density = 19.566358 Si / 1000 Ang^3
#
#
#
# Elastic Constant Matrix: (Units=GPa)
#
#
# Indices 1 2 3 4 5 6 
#
# 1 101.0719 58.1237 27.3504 0.0000 -0.0009 0.0000
# 2 58.1237 101.0719 27.3504 0.0000 0.0009 0.0000
# 3 27.3504 27.3504 94.6421 0.0000 0.0000 0.0000
# 4 0.0000 0.0000 0.0000 19.9923 0.0000 0.0009
# 5 -0.0009 0.0009 0.0000 0.0000 19.9923 0.0000
# 6 0.0000 0.0000 0.0000 0.0009 0.0000 21.4741
#
#
#
# Elastic Compliance Matrix: (Units=1/GPa)
#
#
# Indices 1 2 3 4 5 6 
#
# 1 0.015129 -0.008155 -0.002015 0.000000 0.000001 0.000000
# 2 -0.008155 0.015129 -0.002015 0.000000 -0.000001 0.000000
# 3 -0.002015 -0.002015 0.011731 0.000000 0.000000 0.000000
# 4 0.000000 0.000000 0.000000 0.050019 0.000000 -0.000002
# 5 0.000001 -0.000001 0.000000 0.000000 0.050019 0.000000
# 6 0.000000 0.000000 0.000000 -0.000002 0.000000 0.046568
#
#
# Mechanical properties :
#
#
# Convention : Reuss Voigt Hill
#
# Bulk Modulus (GPa) = 56.76183 58.04832 57.40507
# Shear Modulus (GPa) = 22.84782 24.55583 23.70183
#
# Velocity S-wave (km/s) = 3.42088 3.54644 3.48423
# Velocity P-wave (km/s) = 6.68402 6.81920 6.75195
#
# Compressibility (1/GPa) = 0.01761747
#
# Stress axis : x y z
#
# Youngs Moduli (GPa) = 66.09839 66.09839 85.24431
#
# Poissons Ratio (x) = 0.53902 0.17180
# Poissons Ratio (y) = 0.53902 0.17180
# Poissons Ratio (z) = 0.13322 0.13322
#
# Static dielectric constant tensor:
#      x y z
#    x 3.586480 0.000000 0.000000 
#    y 0.000000 3.586480 0.000000 
#    z 0.000000 0.000000 3.692040 
# 
# 
# High freq. dielectric constant tensor:
#      x y z
#    x 1.743670 0.000000 0.000000 
#    y 0.000000 1.743670 0.000000 
#    z 0.000000 0.000000 1.765980 
# 
# From -- ./inp_files/1142.got.cif
#   From: 2010.03.12/outbox.cif.g09.slc.cpg/sg187_1_cif.got.tgz:1142.got - 2010.04.01 11:58:23.
