data_PCOD8326649
_publ_section_title
;
Structure prediction by ZEFSAII (Michael W. Deem and Ramdas Pophale) SiO2 
 PCOD8326649
Probable space group: P 63 C M
;
_chemical_formula_sum "Si O2"
_cell_formula_units_Z 84
_cell_length_a 22.630632
_cell_length_b 22.630632
_cell_length_c 11.018297
_cell_angle_alpha 90.000000
_cell_angle_beta 90.000000
_cell_angle_gamma 120.000000
_cell_volume 4886.956480
_symmetry_space_group_name_H-M "P 63 C M"
_symmetry_group_IT_number 185
_symmetry_cell_setting 'hexagonal'
loop_
_space_group_symop_operation_xyz
x,y,z
x-y,x,1/2+z
-y,x-y,z
-x,-y,1/2+z
-x+y,-x,z
y,-x+y,1/2+z
-x+y,y,1/2+z
x,x-y,1/2+z
-y,-x,1/2+z
y,x,z
x-y,-y,z
-x,-x+y,z
loop_
_atom_site_type_symbol
_atom_site_label
_atom_site_fract_x
_atom_site_fract_y
_atom_site_fract_z
Si Si1 0.852329 0.147671 0.875000
Si Si2 0.365135 0.079011 0.492138
Si Si3 0.920949 0.396591 0.351111
Si Si4 0.079011 0.365135 0.757863
Si Si5 0.185988 0.267651 0.625000
Si Si6 0.081410 0.677431 0.625000
Si Si7 0.396591 0.475641 0.398889
O O1 0.771962 0.116162 0.892987
O O2 0.883838 0.228038 0.857013
O O3 0.859832 0.112205 0.749944
O O4 0.887795 0.140168 0.000056
O O5 0.440198 0.089733 0.469159
O O6 0.364886 0.107981 0.625000
O O7 0.309325 0.000000 0.481667
O O8 0.888829 0.344008 0.239434
O O9 0.885599 0.442800 0.375000
O O10 0.000000 0.447201 0.321294
O O11 0.089733 0.440198 0.780841
O O12 0.000000 0.309325 0.768333
O O13 0.218684 0.218684 0.625000
O O14 0.242274 0.348314 0.625000
O O15 0.111171 0.655992 0.510566
O O16 0.000000 0.638287 0.625000
O O17 0.447201 0.447201 0.428706
#
# Coordination Sequence:
#
# PCOD8326649 Si02
#       7
#    12  12  12  12  12  12  12
#     4  12  20  34  52  72  98 144 183 216 266 324
#     4  10  20  32  46  69 100 132 168 210 256 311
#     4   9  17  27  42  64  93 129 164 200 241 290
#     4  10  20  32  46  69 100 132 168 210 256 311
#     4  11  22  36  52  75 107 143 181 218 267 332
#     4   9  16  28  43  61  91 129 164 200 242 292
#     4   9  17  27  42  64  93 129 164 200 241 290
#
# _framework density 17.188611000000002
#
# number of rings (size 3 to 8) (size 9 to 14) (size 15 to 20)
#    0.000    2.000    4.286    0.857    2.000    0.000 
#    0.000    0.000    0.000    0.000    0.000    0.000 
#    1.429    0.000    1.714   73.714    0.000    0.000 
#
# Total GULP energy -1040688.144595 kJ/mol
# GULP energy per Si atom -12389.144579 kJ/mol
# Density = 1.714949 g / cm^3
# Si number density = 17.188611 Si / 1000 Ang^3
#
#
#
# Elastic Constant Matrix: (Units=GPa)
#
#
# Indices 1 2 3 4 5 6 
#
# 1 47.3045 17.5487 28.7018 0.0000 0.0000 0.0000
# 2 17.5487 47.3045 28.7018 0.0000 0.0000 0.0000
# 3 28.7018 28.7018 122.6368 0.0000 0.0000 0.0000
# 4 0.0000 0.0000 0.0000 20.1853 0.0000 0.0000
# 5 0.0000 0.0000 0.0000 0.0000 20.1853 0.0000
# 6 0.0000 0.0000 0.0000 0.0000 0.0000 14.8779
#
#
#
# Elastic Compliance Matrix: (Units=1/GPa)
#
#
# Indices 1 2 3 4 5 6 
#
# 1 0.026528 -0.007079 -0.004552 0.000000 0.000000 0.000000
# 2 -0.007079 0.026528 -0.004552 0.000000 0.000000 0.000000
# 3 -0.004552 -0.004552 0.010285 0.000000 0.000000 0.000000
# 4 0.000000 0.000000 0.000000 0.049541 0.000000 0.000000
# 5 0.000000 0.000000 0.000000 0.000000 0.049541 0.000000
# 6 0.000000 0.000000 0.000000 0.000000 0.000000 0.067214
#
#
# Mechanical properties :
#
#
# Convention : Reuss Voigt Hill
#
# Bulk Modulus (GPa) = 32.28456 40.79449 36.53952
# Shear Modulus (GPa) = 18.36036 20.53593 19.44814
#
# Velocity S-wave (km/s) = 3.27183 3.46025 3.36736
# Velocity P-wave (km/s) = 5.75295 6.30471 6.03514
#
# Compressibility (1/GPa) = 0.03097456
#
# Stress axis : x y z
#
# Youngs Moduli (GPa) = 37.69664 37.69664 97.23205
#
# Poissons Ratio (x) = 0.26687 0.44256
# Poissons Ratio (y) = 0.26687 0.44256
# Poissons Ratio (z) = 0.17158 0.17158
#
# Static dielectric constant tensor:
#      x y z
#    x 2.940030 0.000000 0.000000 
#    y 0.000000 2.940030 0.000000 
#    z 0.000000 0.000000 3.678540 
# 
# 
# High freq. dielectric constant tensor:
#      x y z
#    x 1.620860 0.000000 0.000000 
#    y 0.000000 1.620860 0.000000 
#    z 0.000000 0.000000 1.691220 
# 
# From -- ./inp_files/1070.got.cif
#   From: 2010.03.12/outbox.cif.g09.slc.cpg/sg185_cif.got.tgz:1070.got - 2010.04.01 11:55:19.
