data_PCOD8326066
_publ_section_title
;
Structure prediction by ZEFSAII (Michael W. Deem and Ramdas Pophale) SiO2 
 PCOD8326066
Probable space group: P 65 2 2
;
_chemical_formula_sum "Si O2"
_cell_formula_units_Z 84
_cell_length_a 14.171573
_cell_length_b 14.171573
_cell_length_c 24.490432
_cell_angle_alpha 90.000000
_cell_angle_beta 90.000000
_cell_angle_gamma 120.000000
_cell_volume 4259.544837
_symmetry_space_group_name_H-M "P 65 2 2"
_symmetry_group_IT_number 179
_symmetry_cell_setting 'hexagonal'
loop_
_space_group_symop_operation_xyz
x,y,z
x-y,x,5/6+z
-y,x-y,2/3+z
-x,-y,1/2+z
-x+y,-x,1/3+z
y,-x+y,1/6+z
x-y,-y,-z
-x,-x+y,1/3-z
y,x,2/3-z
-y,-x,1/6-z
-x+y,y,1/2-z
x,x-y,5/6-z
loop_
_atom_site_type_symbol
_atom_site_label
_atom_site_fract_x
_atom_site_fract_y
_atom_site_fract_z
Si Si1 0.737879 0.622102 0.148635
Si Si2 0.915672 0.157380 0.849599
Si Si3 0.742396 0.540369 0.028795
Si Si4 0.528238 0.647683 0.349316
Si Si5 0.888899 0.959856 0.783577
Si Si6 0.429338 0.819258 0.909815
Si Si7 0.527993 0.056059 0.872960
O O1 0.795299 0.752178 0.154134
O O2 0.734181 0.589057 0.086132
O O3 0.803179 0.580887 0.186576
O O4 0.615246 0.572849 0.170581
O O5 0.842900 0.212662 0.839383
O O6 0.891675 0.105814 0.910562
O O7 0.888303 0.066130 0.804504
O O8 0.758467 0.436981 0.038646
O O9 0.636221 0.505643 0.993516
O O10 0.626078 0.626078 0.333334
O O11 0.436852 0.600573 0.303465
O O12 0.469254 0.586533 0.404601
O O13 0.881488 0.881488 0.833334
O O14 0.000293 0.000585 0.750000
O O15 0.481724 0.740862 0.916667
O O16 0.514231 0.936670 0.883656
#
# Coordination Sequence:
#
# PCOD8326066 Si02
#       7
#    12  12  12  12  12  12  12
#     4  11  21  37  62  90 123 155 196 255 316 369
#     4  11  20  37  58  89 121 157 208 244 312 373
#     4  11  22  40  62  88 126 161 198 267 305 372
#     4   9  21  38  61  89 122 158 200 251 312 378
#     4   9  20  36  56  83 122 161 197 249 297 366
#     4  10  21  42  62  86 124 164 202 258 313 363
#     4  11  22  40  61  92 121 160 212 249 316 378
#
# _framework density 19.720417000000001
#
# number of rings (size 3 to 8) (size 9 to 14) (size 15 to 20)
#    0.000    1.714    2.857    2.571    0.000    2.857 
#    2.571    4.286    0.000    0.000    0.000    0.000 
#    0.000    0.000    0.000    0.000    0.000    0.000 
#
# Total GULP energy -1041547.623417 kJ/mol
# GULP energy per Si atom -12399.376469 kJ/mol
# Density = 1.967553 g / cm^3
# Si number density = 19.720417 Si / 1000 Ang^3
#
#
#
# Elastic Constant Matrix: (Units=GPa)
#
#
# Indices 1 2 3 4 5 6 
#
# 1 87.3815 32.4964 44.9407 0.0000 0.0000 0.0000
# 2 32.4964 87.3815 44.9407 0.0000 0.0000 0.0000
# 3 44.9407 44.9407 108.4192 0.0000 0.0000 0.0000
# 4 0.0000 0.0000 0.0000 26.7038 0.0000 0.0000
# 5 0.0000 0.0000 0.0000 0.0000 26.7038 0.0000
# 6 0.0000 0.0000 0.0000 0.0000 0.0000 27.4426
#
#
#
# Elastic Compliance Matrix: (Units=1/GPa)
#
#
# Indices 1 2 3 4 5 6 
#
# 1 0.015162 -0.003058 -0.005017 0.000000 0.000000 0.000000
# 2 -0.003058 0.015162 -0.005017 0.000000 0.000000 0.000000
# 3 -0.005017 -0.005017 0.013383 0.000000 0.000000 0.000000
# 4 0.000000 0.000000 0.000000 0.037448 0.000000 0.000000
# 5 0.000000 0.000000 0.000000 0.000000 0.037448 0.000000
# 6 0.000000 0.000000 0.000000 0.000000 0.000000 0.036440
#
#
# Mechanical properties :
#
#
# Convention : Reuss Voigt Hill
#
# Bulk Modulus (GPa) = 57.07255 58.65978 57.86616
# Shear Modulus (GPa) = 26.72851 26.89034 26.80943
#
# Velocity S-wave (km/s) = 3.68553 3.69667 3.69111
# Velocity P-wave (km/s) = 6.86400 6.93043 6.89729
#
# Compressibility (1/GPa) = 0.01752156
#
# Stress axis : x y z
#
# Youngs Moduli (GPa) = 65.95587 65.95587 74.72376
#
# Poissons Ratio (x) = 0.20171 0.37489
# Poissons Ratio (y) = 0.20171 0.37489
# Poissons Ratio (z) = 0.33090 0.33090
#
# Static dielectric constant tensor:
#      x y z
#    x 3.565090 0.000000 0.000000 
#    y 0.000000 3.565090 0.000000 
#    z 0.000000 0.000000 3.795050 
# 
# 
# High freq. dielectric constant tensor:
#      x y z
#    x 1.758770 0.000000 0.000000 
#    y 0.000000 1.758770 0.000000 
#    z 0.000000 0.000000 1.780530 
# 
# From -- ./inp_files/8367.got.cif
#   From: 2010.03.12/outbox.cif.g09.slc.cpg/sg179_5_cif.got.tgz:8367.got - 2010.04.02 07:08:42.
