data_PCOD8326765
_publ_section_title
;
Structure prediction by ZEFSAII (Michael W. Deem and Ramdas Pophale) SiO2 
 PCOD8326765
Probable space group: P 63 M C
;
_chemical_formula_sum "Si O2"
_cell_formula_units_Z 52
_cell_length_a 18.781317
_cell_length_b 18.781317
_cell_length_c 11.826014
_cell_angle_alpha 90.000000
_cell_angle_beta 90.000000
_cell_angle_gamma 120.000000
_cell_volume 3612.610222
_symmetry_space_group_name_H-M "P 63 M C"
_symmetry_group_IT_number 186
_symmetry_cell_setting 'hexagonal'
loop_
_space_group_symop_operation_xyz
x,y,z
x-y,x,1/2+z
-y,x-y,z
-x,-y,1/2+z
-x+y,-x,z
y,-x+y,1/2+z
-x+y,y,z
x,x-y,z
-y,-x,z
y,x,1/2+z
x-y,-y,1/2+z
-x,-x+y,1/2+z
loop_
_atom_site_type_symbol
_atom_site_label
_atom_site_fract_x
_atom_site_fract_y
_atom_site_fract_z
Si Si1 0.480900 0.240450 0.067510
Si Si2 0.170836 0.665397 0.190133
Si Si3 0.333334 0.666668 0.568088
Si Si4 0.097191 0.465309 0.431387
Si Si5 0.666667 0.333334 0.335924
Si Si6 0.240280 0.759721 0.836318
Si Si7 0.910483 0.536815 0.456753
O O1 0.574469 0.287235 0.021777
O O2 0.472615 0.236308 0.201796
O O3 0.441374 0.292789 0.017917
O O4 0.205792 0.602896 0.196735
O O5 0.244683 0.755318 0.165369
O O6 0.126085 0.663378 0.305398
O O7 0.105572 0.640628 0.089936
O O8 0.333334 0.666667 0.702044
O O9 0.106658 0.553329 0.464150
O O10 0.003047 0.393949 0.438002
O O11 0.574215 0.287108 0.381962
O O12 0.291415 0.851719 0.885468
O O13 0.898662 0.449331 0.413980
#
# Coordination Sequence:
#
# PCOD8326765 Si02
#       7
#     6  12   2  12   2   6  12
#     4  11  20  31  49  66  88 119 157 195 232 268
#     4  10  19  32  48  65  86 118 156 196 236 271
#     4   9  18  30  42  64  86 118 153 195 229 266
#     4  10  21  33  46  65  91 119 153 193 234 275
#     4   9  18  30  42  64  86 118 153 195 229 266
#     4  11  20  31  49  66  88 119 157 195 232 268
#     4  10  21  33  46  65  91 119 153 193 234 275
#
# _framework density 14.394024999999999
#
# number of rings (size 3 to 8) (size 9 to 14) (size 15 to 20)
#    0.000    1.846    4.615    0.231    3.231    0.000 
#    0.000    0.000    0.000    0.000    0.000    0.000 
#    0.000    0.000    0.000    0.692    0.000    4.154 
#
# Total GULP energy -644907.058940 kJ/mol
# GULP energy per Si atom -12402.058826 kJ/mol
# Density = 1.436126 g / cm^3
# Si number density = 14.394025 Si / 1000 Ang^3
#
#
#
# Elastic Constant Matrix: (Units=GPa)
#
#
# Indices 1 2 3 4 5 6 
#
# 1 74.0548 32.8420 23.8615 0.0000 0.0000 0.0000
# 2 32.8420 74.0547 23.8616 0.0000 0.0000 0.0000
# 3 23.8615 23.8616 79.6096 0.0000 0.0000 0.0000
# 4 0.0000 0.0000 0.0000 16.3908 0.0000 0.0000
# 5 0.0000 0.0000 0.0000 0.0000 16.3909 0.0000
# 6 0.0000 0.0000 0.0000 0.0000 0.0000 20.6064
#
#
#
# Elastic Compliance Matrix: (Units=1/GPa)
#
#
# Indices 1 2 3 4 5 6 
#
# 1 0.017532 -0.006732 -0.003237 0.000000 0.000000 0.000000
# 2 -0.006732 0.017532 -0.003237 0.000000 0.000000 0.000000
# 3 -0.003237 -0.003237 0.014502 0.000000 0.000000 0.000000
# 4 0.000000 0.000000 0.000000 0.061010 0.000000 0.000000
# 5 0.000000 0.000000 0.000000 0.000000 0.061010 0.000000
# 6 0.000000 0.000000 0.000000 0.000000 0.000000 0.048529
#
#
# Mechanical properties :
#
#
# Convention : Reuss Voigt Hill
#
# Bulk Modulus (GPa) = 43.19018 43.20546 43.19782
# Shear Modulus (GPa) = 19.66610 20.48788 20.07699
#
# Velocity S-wave (km/s) = 3.70032 3.77684 3.73877
# Velocity P-wave (km/s) = 6.95178 7.00719 6.97954
#
# Compressibility (1/GPa) = 0.02315341
#
# Stress axis : x y z
#
# Youngs Moduli (GPa) = 57.03803 57.03793 68.95682
#
# Poissons Ratio (x) = 0.38399 0.22322
# Poissons Ratio (y) = 0.38399 0.22322
# Poissons Ratio (z) = 0.18464 0.18464
#
# Static dielectric constant tensor:
#      x y z
#    x 2.651440 0.000000 0.000000 
#    y 0.000000 2.651440 0.000000 
#    z 0.000000 0.000000 2.837240 
# 
# 
# High freq. dielectric constant tensor:
#      x y z
#    x 1.521000 0.000000 0.000000 
#    y 0.000000 1.521000 0.000000 
#    z 0.000000 0.000000 1.566760 
# 
# From -- ./inp_files/1720.got.cif
#   From: 2010.03.12/outbox.cif.g09.slc.cpg/sg186_1_cif.got.tgz:1720.got - 2010.04.01 11:56:34.
