data_PCOD8326720
_publ_section_title
;
Structure prediction by ZEFSAII (Michael W. Deem and Ramdas Pophale) SiO2 
 PCOD8326720
Probable space group: P 63 M C
;
_chemical_formula_sum "Si O2"
_cell_formula_units_Z 96
_cell_length_a 16.590538
_cell_length_b 16.590538
_cell_length_c 25.088664
_cell_angle_alpha 90.000000
_cell_angle_beta 90.000000
_cell_angle_gamma 120.000000
_cell_volume 5980.384486
_symmetry_space_group_name_H-M "P 63 M C"
_symmetry_group_IT_number 186
_symmetry_cell_setting 'hexagonal'
loop_
_space_group_symop_operation_xyz
x,y,z
x-y,x,1/2+z
-y,x-y,z
-x,-y,1/2+z
-x+y,-x,z
y,-x+y,1/2+z
-x+y,y,z
x,x-y,z
-y,-x,z
y,x,1/2+z
x-y,-y,1/2+z
-x,-x+y,1/2+z
loop_
_atom_site_type_symbol
_atom_site_label
_atom_site_fract_x
_atom_site_fract_y
_atom_site_fract_z
Si Si1 0.482564 0.150682 0.412070
Si Si2 0.184572 0.186852 0.971859
Si Si3 0.144811 0.480334 0.436523
Si Si4 0.974302 0.343918 0.506384
Si Si5 0.232200 0.943481 0.860244
Si Si6 0.104882 0.707118 0.323394
Si Si7 0.479804 0.335930 0.600746
Si Si8 0.151060 0.664607 0.218805
O O1 0.565287 0.130574 0.396916
O O2 0.522721 0.261361 0.413253
O O3 0.440894 0.111114 0.469920
O O4 0.399269 0.102581 0.369594
O O5 0.077808 0.155615 0.983923
O O6 0.214880 0.229577 0.913449
O O7 0.199118 0.099559 0.978681
O O8 0.251886 0.268433 0.011839
O O9 0.232803 0.465606 0.444609
O O10 0.179170 0.589585 0.438682
O O11 0.093690 0.439979 0.379519
O O12 0.071112 0.428556 0.484038
O O13 0.946053 0.360438 0.564821
O O14 0.133368 0.866632 0.835403
O O15 0.287655 0.029571 0.820489
O O16 0.208336 0.791665 0.322173
O O17 0.084463 0.643522 0.270506
O O18 0.466805 0.233403 0.590384
O O19 0.587982 0.412019 0.590903
O O20 0.449413 0.345772 0.661144
O O21 0.193704 0.596852 0.221766
O O22 0.231137 0.768864 0.224500
#
# Coordination Sequence:
#
# PCOD8326720 Si02
#       8
#    12  12  12  12  12  12  12  12
#     4  10  18  27  39  59  85 116 150 184 224 271
#     4  10  18  30  46  67  92 120 153 190 233 279
#     4  11  21  32  47  69  98 129 158 190 230 282
#     4  11  20  30  46  65  92 125 155 188 232 280
#     4   9  18  29  44  63  90 122 153 187 229 277
#     4  10  18  30  49  70  94 124 158 192 236 286
#     4  10  19  32  48  69  96 127 162 200 243 290
#     4   9  18  30  47  70  97 127 159 197 239 285
#
# _framework density 16.052479000000002
#
# number of rings (size 3 to 8) (size 9 to 14) (size 15 to 20)
#    0.000    2.000    2.500    4.750    0.000    1.500 
#    0.000    2.500    0.000    1.750    0.000    0.000 
#    0.000    0.000    0.000    0.500    0.000    0.250 
#
# Total GULP energy -1189567.931417 kJ/mol
# GULP energy per Si atom -12391.332619 kJ/mol
# Density = 1.601594 g / cm^3
# Si number density = 16.052479 Si / 1000 Ang^3
#
#
#
# Elastic Constant Matrix: (Units=GPa)
#
#
# Indices 1 2 3 4 5 6 
#
# 1 72.8852 17.1296 32.0885 0.0000 0.0000 0.0000
# 2 17.1296 72.8852 32.0885 0.0000 0.0000 0.0000
# 3 32.0885 32.0885 88.9442 0.0000 0.0000 0.0000
# 4 0.0000 0.0000 0.0000 16.9539 0.0000 0.0000
# 5 0.0000 0.0000 0.0000 0.0000 16.9539 0.0000
# 6 0.0000 0.0000 0.0000 0.0000 0.0000 27.8778
#
#
#
# Elastic Compliance Matrix: (Units=1/GPa)
#
#
# Indices 1 2 3 4 5 6 
#
# 1 0.016446 -0.001490 -0.005396 0.000000 0.000000 0.000000
# 2 -0.001490 0.016446 -0.005396 0.000000 0.000000 0.000000
# 3 -0.005396 -0.005396 0.015136 0.000000 0.000000 0.000000
# 4 0.000000 0.000000 0.000000 0.058984 0.000000 0.000000
# 5 0.000000 0.000000 0.000000 0.000000 0.058984 0.000000
# 6 0.000000 0.000000 0.000000 0.000000 0.000000 0.035871
#
#
# Mechanical properties :
#
#
# Convention : Reuss Voigt Hill
#
# Bulk Modulus (GPa) = 42.61541 44.14750 43.38145
# Shear Modulus (GPa) = 21.34471 22.58431 21.96451
#
# Velocity S-wave (km/s) = 3.65044 3.75494 3.70306
# Velocity P-wave (km/s) = 6.66129 6.80890 6.73550
#
# Compressibility (1/GPa) = 0.02346569
#
# Stress axis : x y z
#
# Youngs Moduli (GPa) = 60.80563 60.80563 66.06641
#
# Poissons Ratio (x) = 0.09057 0.35648
# Poissons Ratio (y) = 0.09057 0.35648
# Poissons Ratio (z) = 0.32809 0.32809
#
# Static dielectric constant tensor:
#      x y z
#    x 3.062000 0.000000 0.000000 
#    y 0.000000 3.062000 0.000000 
#    z 0.000000 0.000000 3.039010 
# 
# 
# High freq. dielectric constant tensor:
#      x y z
#    x 1.615430 0.000000 0.000000 
#    y 0.000000 1.615430 0.000000 
#    z 0.000000 0.000000 1.581770 
# 
# From -- ./inp_files/3902.got.cif
#   From: 2010.03.12/outbox.cif.g09.slc.cpg/sg186_2_cif.got.tgz:3902.got - 2010.04.01 11:56:34.
