data_PCOD8326142
_publ_section_title
;
Structure prediction by ZEFSAII (Michael W. Deem and Ramdas Pophale) SiO2 
 PCOD8326142
Probable space group: P 62 2 2
;
_chemical_formula_sum "Si O2"
_cell_formula_units_Z 90
_cell_length_a 17.802203
_cell_length_b 17.802203
_cell_length_c 17.294025
_cell_angle_alpha 90.000000
_cell_angle_beta 90.000000
_cell_angle_gamma 120.000000
_cell_volume 4746.507945
_symmetry_space_group_name_H-M "P 62 2 2"
_symmetry_group_IT_number 180
_symmetry_cell_setting 'hexagonal'
loop_
_space_group_symop_operation_xyz
x,y,z
x-y,x,1/3+z
-y,x-y,2/3+z
-x,-y,z
-x+y,-x,1/3+z
y,-x+y,2/3+z
x-y,-y,-z
-x,-x+y,1/3-z
y,x,2/3-z
-y,-x,2/3-z
-x+y,y,-z
x,x-y,1/3-z
loop_
_atom_site_type_symbol
_atom_site_label
_atom_site_fract_x
_atom_site_fract_y
_atom_site_fract_z
Si Si1 0.337297 0.757687 0.658640
Si Si2 0.694000 0.759159 0.652648
Si Si3 0.210562 0.764223 0.540646
Si Si4 0.000000 0.750933 0.666667
Si Si5 0.974750 0.323001 0.507855
Si Si6 0.184542 0.884173 0.645100
Si Si7 0.712293 0.150924 0.775864
Si Si8 0.169488 0.687927 0.280238
O O1 0.332925 0.666462 0.666667
O O2 0.253976 0.737369 0.607772
O O3 0.334324 0.798000 0.741932
O O4 0.427730 0.830786 0.619186
O O5 0.700965 0.850483 0.666667
O O6 0.703063 0.745574 0.561390
O O7 0.772093 0.759340 0.700193
O O8 0.601636 0.683105 0.687980
O O9 0.186125 0.836394 0.567003
O O10 0.278972 0.808604 0.473161
O O11 0.117919 0.678916 0.516592
O O12 0.998685 0.699840 0.743442
O O13 0.085191 0.845588 0.671869
O O14 0.058962 0.415637 0.483708
O O15 0.242844 0.870750 0.707019
O O16 0.786964 0.213037 0.833334
O O17 0.247408 0.752593 0.333334
#
# Coordination Sequence:
#
# PCOD8326142 Si02
#       8
#    12  12  12   6  12  12  12  12
#     4  10  23  38  61  82 117 157 201 246 307 374
#     4  10  19  36  56  85 117 159 200 244 299 358
#     4  10  19  37  59  88 110 154 196 242 303 358
#     4  10  18  34  57  90 117 162 196 242 304 362
#     4  10  19  35  63  83 119 153 198 252 293 366
#     4   9  20  33  58  88 117 153 200 243 299 364
#     4  10  19  37  58  87 115 153 197 250 296 358
#     4  10  19  36  57  81 112 155 197 238 288 365
#
# _framework density 18.961307000000001
#
# number of rings (size 3 to 8) (size 9 to 14) (size 15 to 20)
#    0.000    2.133    4.000    0.400    0.000    2.667 
#    0.000    6.333    0.000    5.600    0.000    1.867 
#    0.000    0.000    0.000    0.000    0.000    0.000 
#
# Total GULP energy -1115006.228045 kJ/mol
# GULP energy per Si atom -12388.958089 kJ/mol
# Density = 1.891815 g / cm^3
# Si number density = 18.961307 Si / 1000 Ang^3
#
#
#
# Elastic Constant Matrix: (Units=GPa)
#
#
# Indices 1 2 3 4 5 6 
#
# 1 96.2988 32.9677 17.7241 0.0000 0.0000 0.0000
# 2 32.9677 96.2988 17.7241 0.0000 0.0000 0.0000
# 3 17.7241 17.7241 79.4178 0.0000 0.0000 0.0000
# 4 0.0000 0.0000 0.0000 19.7775 0.0000 0.0000
# 5 0.0000 0.0000 0.0000 0.0000 19.7775 0.0000
# 6 0.0000 0.0000 0.0000 0.0000 0.0000 31.6656
#
#
#
# Elastic Compliance Matrix: (Units=1/GPa)
#
#
# Indices 1 2 3 4 5 6 
#
# 1 0.012015 -0.003775 -0.001839 0.000000 0.000000 0.000000
# 2 -0.003775 0.012015 -0.001839 0.000000 0.000000 0.000000
# 3 -0.001839 -0.001839 0.013412 0.000000 0.000000 0.000000
# 4 0.000000 0.000000 0.000000 0.050562 0.000000 0.000000
# 5 0.000000 0.000000 0.000000 0.000000 0.050562 0.000000
# 6 0.000000 0.000000 0.000000 0.000000 0.000000 0.031580
#
#
# Mechanical properties :
#
#
# Convention : Reuss Voigt Hill
#
# Bulk Modulus (GPa) = 44.37167 45.42749 44.89958
# Shear Modulus (GPa) = 25.96515 27.81743 26.89129
#
# Velocity S-wave (km/s) = 3.70452 3.83438 3.77001
# Velocity P-wave (km/s) = 6.46142 6.60404 6.53312
#
# Compressibility (1/GPa) = 0.02253690
#
# Stress axis : x y z
#
# Youngs Moduli (GPa) = 83.22830 83.22830 74.55739
#
# Poissons Ratio (x) = 0.31418 0.13711
# Poissons Ratio (y) = 0.31418 0.13711
# Poissons Ratio (z) = 0.15306 0.15306
#
# Static dielectric constant tensor:
#      x y z
#    x 3.769590 0.000000 0.000000 
#    y 0.000000 3.769590 0.000000 
#    z 0.000000 0.000000 3.546840 
# 
# 
# High freq. dielectric constant tensor:
#      x y z
#    x 1.720880 0.000000 0.000000 
#    y 0.000000 1.720880 0.000000 
#    z 0.000000 0.000000 1.749520 
# 
# From -- ./inp_files/7995.got.cif
#   From: 2010.03.12/outbox.cif.g09.slc.cpg/sg180_4_cif.got.tgz:7995.got - 2010.04.01 11:35:50.
