data_PCOD8326763
_publ_section_title
;
Structure prediction by ZEFSAII (Michael W. Deem and Ramdas Pophale) SiO2 
 PCOD8326763
Probable space group: P 63 M C
;
_chemical_formula_sum "Si O2"
_cell_formula_units_Z 96
_cell_length_a 23.902544
_cell_length_b 23.902544
_cell_length_c 11.726270
_cell_angle_alpha 90.000000
_cell_angle_beta 90.000000
_cell_angle_gamma 120.000000
_cell_volume 5802.014022
_symmetry_space_group_name_H-M "P 63 M C"
_symmetry_group_IT_number 186
_symmetry_cell_setting 'hexagonal'
loop_
_space_group_symop_operation_xyz
x,y,z
x-y,x,1/2+z
-y,x-y,z
-x,-y,1/2+z
-x+y,-x,z
y,-x+y,1/2+z
-x+y,y,z
x,x-y,z
-y,-x,z
y,x,1/2+z
x-y,-y,1/2+z
-x,-x+y,1/2+z
loop_
_atom_site_type_symbol
_atom_site_label
_atom_site_fract_x
_atom_site_fract_y
_atom_site_fract_z
Si Si1 0.277783 0.071276 0.164770
Si Si2 0.194764 0.931193 0.138921
Si Si3 0.226614 0.896629 0.906062
Si Si4 0.395886 0.262645 0.767163
Si Si5 0.071536 0.383800 0.501167
Si Si6 0.914747 0.395890 0.661463
Si Si7 0.362501 0.427956 0.928441
Si Si8 0.404893 0.467819 0.685051
O O1 0.269912 0.134956 0.149409
O O2 0.304724 0.065571 0.287283
O O3 0.321676 0.064448 0.067749
O O4 0.208714 0.004229 0.159642
O O5 0.121380 0.878621 0.175998
O O6 0.245763 0.918228 0.209684
O O7 0.202581 0.926447 0.003688
O O8 0.175799 0.824202 0.877366
O O9 0.286788 0.891256 0.949540
O O10 0.408997 0.204499 0.743961
O O11 0.456098 0.325212 0.711075
O O12 0.397850 0.274629 0.902596
O O13 0.095052 0.443087 0.590825
O O14 0.007704 0.375272 0.438640
O O15 0.891957 0.445979 0.704209
O O16 0.916614 0.398322 0.524262
O O17 0.987121 0.419041 0.700599
O O18 0.378822 0.466966 0.810725
O O19 0.460564 0.539437 0.649192
#
# Coordination Sequence:
#
# PCOD8326763 Si02
#       8
#    12  12  12  12  12  12  12  12
#     4  11  21  33  50  75 103 135 174 215 266 318
#     4  10  20  35  52  72  99 133 174 215 263 316
#     4  10  19  31  51  72  98 133 168 207 251 303
#     4  11  21  34  52  73  99 135 173 209 255 309
#     4  11  20  31  47  72 102 136 164 211 249 300
#     4  10  20  31  47  73  99 128 164 203 241 290
#     4  11  17  31  51  68 103 131 169 198 246 293
#     4  10  20  32  49  71 100 139 168 196 247 303
#
# _framework density 16.545978999999999
#
# number of rings (size 3 to 8) (size 9 to 14) (size 15 to 20)
#    0.000    1.500    5.000    2.250    0.000    1.000 
#    0.000    0.000    0.000    0.500    0.000    0.000 
#    0.000    0.000    0.000    1.000    0.000    0.125 
#
# Total GULP energy -1189573.981819 kJ/mol
# GULP energy per Si atom -12391.395644 kJ/mol
# Density = 1.650832 g / cm^3
# Si number density = 16.545979 Si / 1000 Ang^3
#
#
#
# Elastic Constant Matrix: (Units=GPa)
#
#
# Indices 1 2 3 4 5 6 
#
# 1 65.4099 31.8696 12.2225 0.0000 0.0000 0.0000
# 2 31.8696 65.4099 12.2225 0.0000 0.0000 0.0000
# 3 12.2225 12.2225 70.4712 0.0000 0.0000 0.0000
# 4 0.0000 0.0000 0.0000 20.0842 0.0000 0.0000
# 5 0.0000 0.0000 0.0000 0.0000 20.0842 0.0000
# 6 0.0000 0.0000 0.0000 0.0000 0.0000 16.7702
#
#
#
# Elastic Compliance Matrix: (Units=1/GPa)
#
#
# Indices 1 2 3 4 5 6 
#
# 1 0.020281 -0.009533 -0.001864 0.000000 0.000000 0.000000
# 2 -0.009533 0.020281 -0.001864 0.000000 0.000000 0.000000
# 3 -0.001864 -0.001864 0.014837 0.000000 0.000000 0.000000
# 4 0.000000 0.000000 0.000000 0.049790 0.000000 0.000000
# 5 0.000000 0.000000 0.000000 0.000000 0.049790 0.000000
# 6 0.000000 0.000000 0.000000 0.000000 0.000000 0.059630
#
#
# Mechanical properties :
#
#
# Convention : Reuss Voigt Hill
#
# Bulk Modulus (GPa) = 34.63030 34.88001 34.75516
# Shear Modulus (GPa) = 19.93945 21.05280 20.49612
#
# Velocity S-wave (km/s) = 3.47521 3.57092 3.52339
# Velocity P-wave (km/s) = 6.08917 6.17481 6.13214
#
# Compressibility (1/GPa) = 0.02887644
#
# Stress axis : x y z
#
# Youngs Moduli (GPa) = 49.30606 49.30606 67.39989
#
# Poissons Ratio (x) = 0.47005 0.12564
# Poissons Ratio (y) = 0.47005 0.12564
# Poissons Ratio (z) = 0.09191 0.09191
#
# Static dielectric constant tensor:
#      x y z
#    x 2.972210 0.000000 0.000000 
#    y 0.000000 2.972210 0.000000 
#    z 0.000000 0.000000 3.479480 
# 
# 
# High freq. dielectric constant tensor:
#      x y z
#    x 1.609790 0.000000 0.000000 
#    y 0.000000 1.609790 0.000000 
#    z 0.000000 0.000000 1.659840 
# 
# From -- ./inp_files/2039.got.cif
#   From: 2010.03.12/outbox.cif.g09.slc.cpg/sg186_2_cif.got.tgz:2039.got - 2010.04.01 11:56:34.
