data_PCOD8326133
_publ_section_title
;
Structure prediction by ZEFSAII (Michael W. Deem and Ramdas Pophale) SiO2 
 PCOD8326133
Probable space group: P 62 2 2
;
_chemical_formula_sum "Si O2"
_cell_formula_units_Z 42
_cell_length_a 9.516075
_cell_length_b 9.516075
_cell_length_c 26.446174
_cell_angle_alpha 90.000000
_cell_angle_beta 90.000000
_cell_angle_gamma 120.000000
_cell_volume 2074.002116
_symmetry_space_group_name_H-M "P 62 2 2"
_symmetry_group_IT_number 180
_symmetry_cell_setting 'hexagonal'
loop_
_space_group_symop_operation_xyz
x,y,z
x-y,x,1/3+z
-y,x-y,2/3+z
-x,-y,z
-x+y,-x,1/3+z
y,-x+y,2/3+z
x-y,-y,-z
-x,-x+y,1/3-z
y,x,2/3-z
-y,-x,2/3-z
-x+y,y,-z
x,x-y,1/3-z
loop_
_atom_site_type_symbol
_atom_site_label
_atom_site_fract_x
_atom_site_fract_y
_atom_site_fract_z
Si Si1 0.388147 0.207773 0.822485
Si Si2 0.490005 0.826472 0.714621
Si Si3 0.852884 0.147117 0.833334
Si Si4 0.380010 0.560598 0.431053
O O1 0.357644 0.357644 0.833334
O O2 0.423687 0.188410 0.764607
O O3 0.534039 0.228765 0.858134
O O4 0.223224 0.044390 0.834992
O O5 0.568344 0.784172 0.666667
O O6 0.304141 0.677541 0.717729
O O7 0.500000 0.000000 0.708568
O O8 0.799892 0.211471 0.784729
O O9 0.500000 0.500000 0.411060
#
# Coordination Sequence:
#
# PCOD8326133 Si02
#       4
#    12  12   6  12
#     4  11  22  37  67  98 123 161 225 267 314 382
#     4  12  25  42  63  93 138 171 206 271 338 384
#     4  10  17  40  63  88 120 166 200 278 307 364
#     4  10  20  39  67  88 119 167 222 256 307 388
#
# _framework density 20.250700999999999
#
# number of rings (size 3 to 8) (size 9 to 14) (size 15 to 20)
#    0.000    1.143    5.714    1.286    4.000    1.714 
#    0.000    0.000    0.000    3.429    0.000    0.000 
#    0.000    0.000    0.000    0.000    0.000    0.000 
#
# Total GULP energy -520498.955393 kJ/mol
# GULP energy per Si atom -12392.832271 kJ/mol
# Density = 2.020461 g / cm^3
# Si number density = 20.250701 Si / 1000 Ang^3
#
#
#
# Elastic Constant Matrix: (Units=GPa)
#
#
# Indices 1 2 3 4 5 6 
#
# 1 88.6777 51.1256 36.2062 0.0000 0.0000 0.0000
# 2 51.1256 88.6777 36.2062 0.0000 0.0000 0.0000
# 3 36.2062 36.2062 104.9983 0.0000 0.0000 0.0000
# 4 0.0000 0.0000 0.0000 17.3862 0.0000 0.0000
# 5 0.0000 0.0000 0.0000 0.0000 17.3862 0.0000
# 6 0.0000 0.0000 0.0000 0.0000 0.0000 18.7760
#
#
#
# Elastic Compliance Matrix: (Units=1/GPa)
#
#
# Indices 1 2 3 4 5 6 
#
# 1 0.017669 -0.008961 -0.003003 0.000000 0.000000 0.000000
# 2 -0.008961 0.017669 -0.003003 0.000000 0.000000 0.000000
# 3 -0.003003 -0.003003 0.011595 0.000000 0.000000 0.000000
# 4 0.000000 0.000000 0.000000 0.057517 0.000000 0.000000
# 5 0.000000 0.000000 0.000000 0.000000 0.057517 0.000000
# 6 0.000000 0.000000 0.000000 0.000000 0.000000 0.053259
#
#
# Mechanical properties :
#
#
# Convention : Reuss Voigt Hill
#
# Bulk Modulus (GPa) = 58.82338 58.82551 58.82444
# Shear Modulus (GPa) = 19.93419 21.29740 20.61580
#
# Velocity S-wave (km/s) = 3.14087 3.24649 3.19412
# Velocity P-wave (km/s) = 6.50108 6.56998 6.53562
#
# Compressibility (1/GPa) = 0.01700004
#
# Stress axis : x y z
#
# Youngs Moduli (GPa) = 56.59637 56.59637 86.24495
#
# Poissons Ratio (x) = 0.50714 0.25898
# Poissons Ratio (y) = 0.50714 0.25898
# Poissons Ratio (z) = 0.16995 0.16995
#
# Static dielectric constant tensor:
#      x y z
#    x 3.763330 0.000000 0.000000 
#    y 0.000000 3.763330 0.000000 
#    z 0.000000 0.000000 3.338290 
# 
# 
# High freq. dielectric constant tensor:
#      x y z
#    x 1.799080 0.000000 0.000000 
#    y 0.000000 1.799080 0.000000 
#    z 0.000000 0.000000 1.765000 
# 
# From -- ./inp_files/12009.got.cif
#   From: 2010.03.12/outbox.cif.g09.slc.cpg/sg180_7_cif.got.tgz:12009.got - 2010.04.01 11:35:50.
