data_PCOD8326570
_publ_section_title
;
Structure prediction by ZEFSAII (Michael W. Deem and Ramdas Pophale) SiO2 
 PCOD8326570
Probable space group: P 6 C C
;
_chemical_formula_sum "Si O2"
_cell_formula_units_Z 74
_cell_length_a 14.348244
_cell_length_b 14.348244
_cell_length_c 25.027207
_cell_angle_alpha 90.000000
_cell_angle_beta 90.000000
_cell_angle_gamma 120.000000
_cell_volume 4462.112590
_symmetry_space_group_name_H-M "P 6 C C"
_symmetry_group_IT_number 184
_symmetry_cell_setting 'hexagonal'
loop_
_space_group_symop_operation_xyz
x,y,z
x-y,x,z
-y,x-y,z
-x,-y,z
-x+y,-x,z
y,-x+y,z
-x+y,y,1/2+z
x,x-y,1/2+z
-y,-x,1/2+z
y,x,1/2+z
x-y,-y,1/2+z
-x,-x+y,1/2+z
loop_
_atom_site_type_symbol
_atom_site_label
_atom_site_fract_x
_atom_site_fract_y
_atom_site_fract_z
Si Si1 0.749816 0.832314 0.705130
Si Si2 0.500000 0.000000 0.839383
Si Si3 0.279464 0.441024 0.287194
Si Si4 0.333334 0.666668 0.775275
Si Si5 0.755337 0.919271 0.089386
Si Si6 0.279465 0.441021 0.891576
Si Si7 0.666668 0.333334 0.403495
Si Si8 0.250185 0.167685 0.473642
O O1 0.842632 0.802293 0.713191
O O2 0.659165 0.768842 0.748327
O O3 0.692415 0.793863 0.646026
O O4 0.600001 0.072351 0.801642
O O5 0.472331 0.072337 0.877124
O O6 0.285354 0.543555 0.256358
O O7 0.204507 0.409007 0.339386
O O8 0.333334 0.666667 0.839385
O O9 0.812911 0.851013 0.089386
O O10 0.692414 0.898551 0.032745
O O11 0.285369 0.543558 0.922412
O O12 0.231157 0.340835 0.930445
O O13 0.157368 0.197707 0.465581
#
# Coordination Sequence:
#
# PCOD8326570 Si02
#       8
#    12   6  12   4  12  12   4  12
#     4  10  20  33  53  79 110 141 173 210 261 317
#     4  12  20  32  56  74 102 132 176 212 270 306
#     4  11  20  35  53  79 102 134 178 222 255 310
#     4   9  18  36  51  70  98 130 183 219 247 287
#     4   8  15  30  50  73 101 139 179 212 245 305
#     4  11  20  35  53  79 102 134 178 222 255 310
#     4   9  18  36  51  70  98 130 183 219 247 287
#     4  10  20  33  53  79 110 141 173 210 261 317
#
# _framework density 16.584074000000001
#
# number of rings (size 3 to 8) (size 9 to 14) (size 15 to 20)
#    0.000    1.946    4.865    2.432    0.000    2.595 
#    0.000    0.000    0.000    4.865    0.000    0.000 
#    0.000    0.000    0.000    0.000    0.000    0.000 
#
# Total GULP energy -916818.670265 kJ/mol
# GULP energy per Si atom -12389.441490 kJ/mol
# Density = 1.654633 g / cm^3
# Si number density = 16.584074 Si / 1000 Ang^3
#
#
#
# Elastic Constant Matrix: (Units=GPa)
#
#
# Indices 1 2 3 4 5 6 
#
# 1 107.3365 41.0504 64.9112 0.0000 0.0000 0.0000
# 2 41.0504 107.3364 64.9112 0.0000 0.0000 0.0000
# 3 64.9112 64.9112 115.3720 0.0000 0.0000 0.0000
# 4 0.0000 0.0000 0.0000 17.5089 0.0000 0.0000
# 5 0.0000 0.0000 0.0000 0.0000 17.5089 0.0000
# 6 0.0000 0.0000 0.0000 0.0000 0.0000 33.1431
#
#
#
# Elastic Compliance Matrix: (Units=1/GPa)
#
#
# Indices 1 2 3 4 5 6 
#
# 1 0.014179 -0.000907 -0.007467 0.000000 0.000000 0.000000
# 2 -0.000907 0.014179 -0.007467 0.000000 0.000000 0.000000
# 3 -0.007467 -0.007467 0.017070 0.000000 0.000000 0.000000
# 4 0.000000 0.000000 0.000000 0.057114 0.000000 0.000000
# 5 0.000000 0.000000 0.000000 0.000000 0.057114 0.000000
# 6 0.000000 0.000000 0.000000 0.000000 0.000000 0.030172
#
#
# Mechanical properties :
#
#
# Convention : Reuss Voigt Hill
#
# Bulk Modulus (GPa) = 72.75126 74.64340 73.69733
# Shear Modulus (GPa) = 22.11475 24.24363 23.17919
#
# Velocity S-wave (km/s) = 3.65566 3.82758 3.74261
# Velocity P-wave (km/s) = 7.86015 8.03994 7.95055
#
# Compressibility (1/GPa) = 0.01374547
#
# Stress axis : x y z
#
# Youngs Moduli (GPa) = 70.52604 70.52590 58.58169
#
# Poissons Ratio (x) = 0.06396 0.43745
# Poissons Ratio (y) = 0.06396 0.43745
# Poissons Ratio (z) = 0.52664 0.52664
#
# Static dielectric constant tensor:
#      x y z
#    x 3.257260 0.000000 0.000000 
#    y 0.000000 3.257260 0.000000 
#    z 0.000000 0.000000 3.510500 
# 
# 
# High freq. dielectric constant tensor:
#      x y z
#    x 1.639840 0.000000 0.000000 
#    y 0.000000 1.639840 0.000000 
#    z 0.000000 0.000000 1.623120 
# 
# From -- ./inp_files/1254.got.cif
#   From: 2010.03.12/outbox.cif.g09.slc.cpg/sg184_cif.got.tgz:1254.got - 2010.04.01 11:54:36.
