data_PCOD8326531
_publ_section_title
;
Structure prediction by ZEFSAII (Michael W. Deem and Ramdas Pophale) SiO2 
 PCOD8326531
Probable space group: P 6 M M
;
_chemical_formula_sum "Si O2"
_cell_formula_units_Z 72
_cell_length_a 17.827319
_cell_length_b 17.827319
_cell_length_c 15.481744
_cell_angle_alpha 90.000000
_cell_angle_beta 90.000000
_cell_angle_gamma 120.000000
_cell_volume 4261.108425
_symmetry_space_group_name_H-M "P 6 M M"
_symmetry_group_IT_number 183
_symmetry_cell_setting 'hexagonal'
loop_
_space_group_symop_operation_xyz
x,y,z
x-y,x,z
-y,x-y,z
-x,-y,z
-x+y,-x,z
y,-x+y,z
-x+y,y,z
x,x-y,z
-y,-x,z
y,x,z
x-y,-y,z
-x,-x+y,z
loop_
_atom_site_type_symbol
_atom_site_label
_atom_site_fract_x
_atom_site_fract_y
_atom_site_fract_z
Si Si1 0.330660 0.835142 0.468000
Si Si2 0.636483 0.541138 0.648496
Si Si3 0.101589 0.634076 0.160804
Si Si4 0.634535 0.531848 0.835169
Si Si5 0.101285 0.733111 0.996735
Si Si6 0.633949 0.901244 0.320119
O O1 0.428551 0.857101 0.454398
O O2 0.264322 0.735679 0.442673
O O3 0.310043 0.847236 0.567063
O O4 0.314684 0.898824 0.407542
O O5 0.543621 0.456380 0.650743
O O6 0.624597 0.624597 0.636393
O O7 0.681454 0.545062 0.741316
O O8 0.144682 0.572341 0.161275
O O9 0.133540 0.697993 0.242404
O O10 0.000000 0.573287 0.167564
O O11 0.125655 0.688531 0.073076
O O12 0.570359 0.429641 0.856028
O O13 0.576567 0.576567 0.829836
O O14 0.705786 0.576786 0.908819
O O15 0.162343 0.837658 0.005049
O O16 0.000000 0.706604 0.998962
O O17 0.673474 0.836737 0.326251
O O18 0.711685 0.000000 0.305152
#
# Coordination Sequence:
#
# PCOD8326531 Si02
#       6
#    12  12  12  12  12  12
#     4  10  19  29  42  62  90 123 156 189 224 263
#     4   8  14  25  41  60  82 111 148 186 223 266
#     4   9  17  30  49  71  92 115 144 175 209 254
#     4   8  14  26  44  64  85 111 145 184 225 270
#     4  10  19  30  46  67  90 118 153 193 233 272
#     4  10  20  33  50  71  93 119 152 190 229 268
#
# _framework density 16.897013000000001
#
# number of rings (size 3 to 8) (size 9 to 14) (size 15 to 20)
#    0.000    2.833    0.000    3.167    0.000    4.333 
#    0.000    0.000    0.000    7.333    0.000    0.000 
#    0.000    4.000    0.000    0.000    0.000   21.667 
#
# Total GULP energy -892158.040277 kJ/mol
# GULP energy per Si atom -12391.083893 kJ/mol
# Density = 1.685855 g / cm^3
# Si number density = 16.897013 Si / 1000 Ang^3
#
#
#
# Elastic Constant Matrix: (Units=GPa)
#
#
# Indices 1 2 3 4 5 6 
#
# 1 71.5934 41.4260 28.2661 0.0000 0.0000 0.0000
# 2 41.4260 71.5934 28.2661 0.0000 0.0000 0.0000
# 3 28.2661 28.2661 118.8113 0.0000 0.0000 0.0000
# 4 0.0000 0.0000 0.0000 4.6608 0.0000 0.0000
# 5 0.0000 0.0000 0.0000 0.0000 4.6608 0.0000
# 6 0.0000 0.0000 0.0000 0.0000 0.0000 15.0837
#
#
#
# Elastic Compliance Matrix: (Units=1/GPa)
#
#
# Indices 1 2 3 4 5 6 
#
# 1 0.021596 -0.011553 -0.002389 0.000000 0.000000 0.000000
# 2 -0.011553 0.021596 -0.002389 0.000000 0.000000 0.000000
# 3 -0.002389 -0.002389 0.009554 0.000000 0.000000 0.000000
# 4 0.000000 0.000000 0.000000 0.214555 0.000000 0.000000
# 5 0.000000 0.000000 0.000000 0.000000 0.214555 0.000000
# 6 0.000000 0.000000 0.000000 0.000000 0.000000 0.066297
#
#
# Mechanical properties :
#
#
# Convention : Reuss Voigt Hill
#
# Bulk Modulus (GPa) = 49.79440 50.87939 50.33690
# Shear Modulus (GPa) = 8.51050 15.81705 12.16378
#
# Velocity S-wave (km/s) = 2.24669 3.06287 2.68596
# Velocity P-wave (km/s) = 6.02192 6.53338 6.28286
#
# Compressibility (1/GPa) = 0.02008258
#
# Stress axis : x y z
#
# Youngs Moduli (GPa) = 46.30536 46.30536 104.67258
#
# Poissons Ratio (x) = 0.53495 0.25010
# Poissons Ratio (y) = 0.53495 0.25010
# Poissons Ratio (z) = 0.11064 0.11064
#
# Static dielectric constant tensor:
#      x y z
#    x 2.903250 0.000000 0.000000 
#    y 0.000000 2.903250 0.000000 
#    z 0.000000 0.000000 3.641420 
# 
# 
# High freq. dielectric constant tensor:
#      x y z
#    x 1.616650 0.000000 0.000000 
#    y 0.000000 1.616650 0.000000 
#    z 0.000000 0.000000 1.676740 
# 
# From -- ./inp_files/2481.got.cif
#   From: 2010.03.12/outbox.cif.g09.slc.cpg/sg183_2_cif.got.tgz:2481.got - 2010.04.01 11:53:02.
