data_PCOD8326516
_publ_section_title
;
Structure prediction by ZEFSAII (Michael W. Deem and Ramdas Pophale) SiO2 
 PCOD8326516
Probable space group: P 6 M M
;
_chemical_formula_sum "Si O2"
_cell_formula_units_Z 96
_cell_length_a 18.315287
_cell_length_b 18.315287
_cell_length_c 20.245691
_cell_angle_alpha 90.000000
_cell_angle_beta 90.000000
_cell_angle_gamma 120.000000
_cell_volume 5881.535094
_symmetry_space_group_name_H-M "P 6 M M"
_symmetry_group_IT_number 183
_symmetry_cell_setting 'hexagonal'
loop_
_space_group_symop_operation_xyz
x,y,z
x-y,x,z
-y,x-y,z
-x,-y,z
-x+y,-x,z
y,-x+y,z
-x+y,y,z
x,x-y,z
-y,-x,z
y,x,z
x-y,-y,z
-x,-x+y,z
loop_
_atom_site_type_symbol
_atom_site_label
_atom_site_fract_x
_atom_site_fract_y
_atom_site_fract_z
Si Si1 0.631022 0.531858 0.203620
Si Si2 0.256120 0.904994 0.825390
Si Si3 0.351125 0.256120 0.310960
Si Si4 0.668786 0.499719 0.068175
Si Si5 0.495541 0.331601 0.568175
Si Si6 0.739216 0.095287 0.674156
Si Si7 0.904712 0.643927 0.462193
Si Si8 0.631021 0.531858 0.932730
O O1 0.569137 0.430864 0.212697
O O2 0.575917 0.575917 0.201528
O O3 0.694985 0.566845 0.264841
O O4 0.683405 0.553532 0.134955
O O5 0.155816 0.844185 0.835398
O O6 0.281967 0.899632 0.750456
O O7 0.305017 0.871861 0.871508
O O8 0.279182 0.000000 0.843848
O O9 0.311629 0.155815 0.300953
O O10 0.279182 0.279182 0.292501
O O11 0.382336 0.281968 0.385893
O O12 0.731073 0.462145 0.068175
O O13 0.572810 0.427191 0.068175
O O14 0.683406 0.553532 0.001395
O O15 0.526285 0.263143 0.568174
O O16 0.575502 0.424498 0.568176
O O17 0.439511 0.320501 0.632618
O O18 0.439512 0.320503 0.503731
O O19 0.838071 0.161930 0.658282
O O20 0.718178 0.000000 0.656648
O O21 0.838069 0.676138 0.478068
O O22 0.000000 0.718177 0.479702
O O23 0.569137 0.430864 0.923653
O O24 0.575917 0.575917 0.934824
#
# Coordination Sequence:
#
# PCOD8326516 Si02
#       8
#    12  12  12  12  12  12  12  12
#     4   9  17  28  42  60  82 109 140 175 215 256
#     4   9  17  30  47  66  88 114 145 179 216 258
#     4   9  17  30  47  66  88 114 145 179 216 258
#     4  10  18  27  39  55  78 107 139 173 209 250
#     4  10  20  33  48  67  92 120 149 180 216 255
#     4   9  18  31  47  67  90 116 145 179 218 258
#     4   9  18  31  47  67  90 116 145 179 218 258
#     4   9  17  28  42  60  82 109 140 175 215 256
#
# _framework density 16.32227
#
# number of rings (size 3 to 8) (size 9 to 14) (size 15 to 20)
#    0.000    2.750    0.000    1.750    0.000    3.500 
#    0.000    2.500    0.000    1.000    0.000    3.500 
#    0.000    3.000    0.000    0.250    0.000   26.000 
#
# Total GULP energy -1189833.896016 kJ/mol
# GULP energy per Si atom -12394.103083 kJ/mol
# Density = 1.628512 g / cm^3
# Si number density = 16.322270 Si / 1000 Ang^3
#
#
#
# Elastic Constant Matrix: (Units=GPa)
#
#
# Indices 1 2 3 4 5 6 
#
# 1 82.0363 57.8972 48.2589 0.0000 0.0000 0.0000
# 2 57.8972 82.0363 48.2589 0.0000 0.0000 0.0000
# 3 48.2589 48.2589 103.8255 0.0000 0.0000 0.0000
# 4 0.0000 0.0000 0.0000 17.7617 0.0000 0.0000
# 5 0.0000 0.0000 0.0000 0.0000 17.7617 0.0000
# 6 0.0000 0.0000 0.0000 0.0000 0.0000 12.0696
#
#
#
# Elastic Compliance Matrix: (Units=1/GPa)
#
#
# Indices 1 2 3 4 5 6 
#
# 1 0.025972 -0.015454 -0.004889 0.000000 0.000000 0.000000
# 2 -0.015454 0.025972 -0.004889 0.000000 0.000000 0.000000
# 3 -0.004889 -0.004889 0.014176 0.000000 0.000000 0.000000
# 4 0.000000 0.000000 0.000000 0.056301 0.000000 0.000000
# 5 0.000000 0.000000 0.000000 0.000000 0.056301 0.000000
# 6 0.000000 0.000000 0.000000 0.000000 0.000000 0.082853
#
#
# Mechanical properties :
#
#
# Convention : Reuss Voigt Hill
#
# Bulk Modulus (GPa) = 63.86859 64.08088 63.97474
# Shear Modulus (GPa) = 15.75995 17.08413 16.42204
#
# Velocity S-wave (km/s) = 3.11070 3.23875 3.17537
# Velocity P-wave (km/s) = 7.21918 7.30281 7.26112
#
# Compressibility (1/GPa) = 0.01565715
#
# Stress axis : x y z
#
# Youngs Moduli (GPa) = 38.50229 38.50229 70.53947
#
# Poissons Ratio (x) = 0.59502 0.34487
# Poissons Ratio (y) = 0.59502 0.34487
# Poissons Ratio (z) = 0.18824 0.18824
#
# Static dielectric constant tensor:
#      x y z
#    x 3.069870 0.000000 0.000000 
#    y 0.000000 3.069870 0.000000 
#    z 0.000000 0.000000 3.364280 
# 
# 
# High freq. dielectric constant tensor:
#      x y z
#    x 1.610270 0.000000 0.000000 
#    y 0.000000 1.610270 0.000000 
#    z 0.000000 0.000000 1.645800 
# 
# From -- ./inp_files/3124.got.cif
#   From: 2010.03.12/outbox.cif.g09.slc.cpg/sg183_2_cif.got.tgz:3124.got - 2010.04.01 11:53:02.
