data_PCOD8326788
_publ_section_title
;
Structure prediction by ZEFSAII (Michael W. Deem and Ramdas Pophale) SiO2 
 PCOD8326788
Probable space group: P 63 M C
;
_chemical_formula_sum "Si O2"
_cell_formula_units_Z 34
_cell_length_a 11.278624
_cell_length_b 11.278624
_cell_length_c 18.512344
_cell_angle_alpha 90.000000
_cell_angle_beta 90.000000
_cell_angle_gamma 120.000000
_cell_volume 2039.408762
_symmetry_space_group_name_H-M "P 63 M C"
_symmetry_group_IT_number 186
_symmetry_cell_setting 'hexagonal'
loop_
_space_group_symop_operation_xyz
x,y,z
x-y,x,1/2+z
-y,x-y,z
-x,-y,1/2+z
-x+y,-x,z
y,-x+y,1/2+z
-x+y,y,z
x,x-y,z
-y,-x,z
y,x,1/2+z
x-y,-y,1/2+z
-x,-x+y,1/2+z
loop_
_atom_site_type_symbol
_atom_site_label
_atom_site_fract_x
_atom_site_fract_y
_atom_site_fract_z
Si Si1 0.328828 0.932496 0.621500
Si Si2 0.843988 0.156013 0.252585
Si Si3 0.754910 0.245091 0.395513
Si Si4 0.000000 0.000000 0.565129
Si Si5 0.316638 0.158319 0.537831
Si Si6 0.000000 0.000000 0.240074
O O1 0.449881 0.899761 0.619525
O O2 0.195095 0.804906 0.584110
O O3 0.290477 0.944181 0.704772
O O4 0.372427 0.071922 0.579681
O O5 0.797244 0.202757 0.322363
O O6 0.923854 0.076147 0.272290
O O7 0.822029 0.411015 0.399293
O O8 0.810337 0.189664 0.458557
O O9 0.923622 0.847244 0.534642
O O10 0.000000 0.000000 0.652461
#
# Coordination Sequence:
#
# PCOD8326788 Si02
#       6
#    12   6   6   2   6   2
#     4  10  20  33  60  86 115 155 215 252 308 360
#     4  10  20  36  63  84 125 153 200 266 308 370
#     4  10  24  40  56  83 131 163 211 250 319 376
#     4  12  18  40  59  91 129 145 197 271 309 361
#     4  12  20  38  59  85 128 167 191 272 309 376
#     4  12  18  40  59 103 111 154 203 265 315 373
#
# _framework density 16.671498
#
# number of rings (size 3 to 8) (size 9 to 14) (size 15 to 20)
#    1.412    0.000    5.294    2.471    0.000    1.412 
#    1.059    0.000    0.000    0.000    0.000    0.000 
#    0.000    0.000    0.000    0.000    0.000    0.000 
#
# Total GULP energy -421380.457043 kJ/mol
# GULP energy per Si atom -12393.542854 kJ/mol
# Density = 1.663355 g / cm^3
# Si number density = 16.671498 Si / 1000 Ang^3
#
#
#
# Elastic Constant Matrix: (Units=GPa)
#
#
# Indices 1 2 3 4 5 6 
#
# 1 96.2464 25.0051 30.7074 0.0000 0.0000 0.0000
# 2 25.0051 96.2464 30.7074 0.0000 0.0000 0.0000
# 3 30.7074 30.7074 102.0789 0.0000 0.0000 0.0000
# 4 0.0000 0.0000 0.0000 30.1503 0.0000 0.0000
# 5 0.0000 0.0000 0.0000 0.0000 30.1503 0.0000
# 6 0.0000 0.0000 0.0000 0.0000 0.0000 35.6207
#
#
#
# Elastic Compliance Matrix: (Units=1/GPa)
#
#
# Indices 1 2 3 4 5 6 
#
# 1 0.011883 -0.002153 -0.002927 0.000000 0.000000 0.000000
# 2 -0.002153 0.011883 -0.002927 0.000000 0.000000 0.000000
# 3 -0.002927 -0.002927 0.011557 0.000000 0.000000 0.000000
# 4 0.000000 0.000000 0.000000 0.033167 0.000000 0.000000
# 5 0.000000 0.000000 0.000000 0.000000 0.033167 0.000000
# 6 0.000000 0.000000 0.000000 0.000000 0.000000 0.028074
#
#
# Mechanical properties :
#
#
# Convention : Reuss Voigt Hill
#
# Bulk Modulus (GPa) = 51.78866 51.93462 51.86164
# Shear Modulus (GPa) = 32.85521 33.06106 32.95813
#
# Velocity S-wave (km/s) = 4.44412 4.45802 4.45107
# Velocity P-wave (km/s) = 7.58058 7.59723 7.58891
#
# Compressibility (1/GPa) = 0.01930925
#
# Stress axis : x y z
#
# Youngs Moduli (GPa) = 84.15163 84.15163 86.52541
#
# Poissons Ratio (x) = 0.18122 0.25325
# Poissons Ratio (y) = 0.18122 0.25325
# Poissons Ratio (z) = 0.24631 0.24631
#
# Static dielectric constant tensor:
#      x y z
#    x 3.105020 0.000000 0.000000 
#    y 0.000000 3.105020 0.000000 
#    z 0.000000 0.000000 2.893260 
# 
# 
# High freq. dielectric constant tensor:
#      x y z
#    x 1.644690 0.000000 0.000000 
#    y 0.000000 1.644690 0.000000 
#    z 0.000000 0.000000 1.622500 
# 
# From -- ./inp_files/2761.got.cif
#   From: 2010.03.12/outbox.cif.g09.slc.cpg/sg186_2_cif.got.tgz:2761.got - 2010.04.01 11:56:34.
