data_PCOD8326751
_publ_section_title
;
Structure prediction by ZEFSAII (Michael W. Deem and Ramdas Pophale) SiO2 
 PCOD8326751
Probable space group: P 63 M C
;
_chemical_formula_sum "Si O2"
_cell_formula_units_Z 84
_cell_length_a 16.801124
_cell_length_b 16.801124
_cell_length_c 21.897172
_cell_angle_alpha 90.000000
_cell_angle_beta 90.000000
_cell_angle_gamma 120.000000
_cell_volume 5352.976486
_symmetry_space_group_name_H-M "P 63 M C"
_symmetry_group_IT_number 186
_symmetry_cell_setting 'hexagonal'
loop_
_space_group_symop_operation_xyz
x,y,z
x-y,x,1/2+z
-y,x-y,z
-x,-y,1/2+z
-x+y,-x,z
y,-x+y,1/2+z
-x+y,y,z
x,x-y,z
-y,-x,z
y,x,1/2+z
x-y,-y,1/2+z
-x,-x+y,1/2+z
loop_
_atom_site_type_symbol
_atom_site_label
_atom_site_fract_x
_atom_site_fract_y
_atom_site_fract_z
Si Si1 0.855012 0.521081 0.412890
Si Si2 0.491123 0.331182 0.626424
Si Si3 0.258274 0.922122 0.219911
Si Si4 0.292542 0.054755 0.112854
Si Si5 0.050446 0.615391 0.785157
Si Si6 0.651640 0.736554 0.018695
Si Si7 0.155060 0.665576 0.661028
O O1 0.752185 0.504369 0.420271
O O2 0.852525 0.426263 0.429461
O O3 0.892336 0.554947 0.345538
O O4 0.925731 0.603678 0.457672
O O5 0.541476 0.270738 0.624976
O O6 0.562031 0.437970 0.624066
O O7 0.434804 0.311126 0.688281
O O8 0.425309 0.305326 0.569703
O O9 0.156890 0.843111 0.242799
O O10 0.244292 0.986268 0.170425
O O11 0.326154 0.976175 0.276591
O O12 0.260765 0.130382 0.114837
O O13 0.401972 0.099897 0.118053
O O14 0.267555 0.006641 0.045928
O O15 0.007653 0.503827 0.788226
O O16 0.121999 0.656953 0.730255
O O17 0.686359 0.843180 0.006213
O O18 0.137760 0.568880 0.634954
O O19 0.262924 0.737076 0.659828
#
# Coordination Sequence:
#
# PCOD8326751 Si02
#       7
#    12  12  12  12  12  12  12
#     4  10  19  30  45  66  93 122 149 174 202 242
#     4   9  15  23  38  61  89 117 142 168 202 248
#     4   9  17  29  45  64  86 112 141 178 222 263
#     4   9  17  29  45  64  85 110 141 179 222 266
#     4   9  17  28  42  62  88 118 149 178 208 246
#     4   9  18  30  43  61  85 113 142 175 215 255
#     4   9  16  25  39  60  86 114 142 172 208 250
#
# _framework density 15.692202999999999
#
# number of rings (size 3 to 8) (size 9 to 14) (size 15 to 20)
#    0.000    2.857    0.000    3.000    0.000    4.571 
#    0.000    3.571    0.000    2.571    0.000    0.000 
#    0.000    2.286    0.000    0.000    0.000    0.000 
#
# Total GULP energy -1040873.201191 kJ/mol
# GULP energy per Si atom -12391.347633 kJ/mol
# Density = 1.565649 g / cm^3
# Si number density = 15.692203 Si / 1000 Ang^3
#
#
#
# Elastic Constant Matrix: (Units=GPa)
#
#
# Indices 1 2 3 4 5 6 
#
# 1 65.9158 23.6521 10.5184 0.0000 0.0000 0.0000
# 2 23.6521 65.9158 10.5184 0.0000 0.0000 0.0000
# 3 10.5184 10.5184 46.5366 0.0000 0.0000 0.0000
# 4 0.0000 0.0000 0.0000 14.7005 0.0000 0.0000
# 5 0.0000 0.0000 0.0000 0.0000 14.7005 0.0000
# 6 0.0000 0.0000 0.0000 0.0000 0.0000 21.1319
#
#
#
# Elastic Compliance Matrix: (Units=1/GPa)
#
#
# Indices 1 2 3 4 5 6 
#
# 1 0.017726 -0.005935 -0.002665 0.000000 0.000000 0.000000
# 2 -0.005935 0.017726 -0.002665 0.000000 0.000000 0.000000
# 3 -0.002665 -0.002665 0.022693 0.000000 0.000000 0.000000
# 4 0.000000 0.000000 0.000000 0.068025 0.000000 0.000000
# 5 0.000000 0.000000 0.000000 0.000000 0.068025 0.000000
# 6 0.000000 0.000000 0.000000 0.000000 0.000000 0.047322
#
#
# Mechanical properties :
#
#
# Convention : Reuss Voigt Hill
#
# Bulk Modulus (GPa) = 28.07842 29.74957 28.91400
# Shear Modulus (GPa) = 18.12134 19.01854 18.56994
#
# Velocity S-wave (km/s) = 3.40192 3.48512 3.44377
# Velocity P-wave (km/s) = 5.77606 5.93246 5.85478
#
# Compressibility (1/GPa) = 0.03561454
#
# Stress axis : x y z
#
# Youngs Moduli (GPa) = 56.41496 56.41496 44.06614
#
# Poissons Ratio (x) = 0.33483 0.11744
# Poissons Ratio (y) = 0.33483 0.11744
# Poissons Ratio (z) = 0.15034 0.15034
#
# Static dielectric constant tensor:
#      x y z
#    x 3.163190 0.000000 0.000000 
#    y 0.000000 3.163190 0.000000 
#    z 0.000000 0.000000 2.936590 
# 
# 
# High freq. dielectric constant tensor:
#      x y z
#    x 1.594210 0.000000 0.000000 
#    y 0.000000 1.594210 0.000000 
#    z 0.000000 0.000000 1.579270 
# 
# From -- ./inp_files/3481.got.cif
#   From: 2010.03.12/outbox.cif.g09.slc.cpg/sg186_2_cif.got.tgz:3481.got - 2010.04.01 11:56:34.
