data_PCOD8326736
_publ_section_title
;
Structure prediction by ZEFSAII (Michael W. Deem and Ramdas Pophale) SiO2 
 PCOD8326736
Probable space group: P 63 M C
;
_chemical_formula_sum "Si O2"
_cell_formula_units_Z 84
_cell_length_a 17.269235
_cell_length_b 17.269235
_cell_length_c 17.048285
_cell_angle_alpha 90.000000
_cell_angle_beta 90.000000
_cell_angle_gamma 120.000000
_cell_volume 4403.089644
_symmetry_space_group_name_H-M "P 63 M C"
_symmetry_group_IT_number 186
_symmetry_cell_setting 'hexagonal'
loop_
_space_group_symop_operation_xyz
x,y,z
x-y,x,1/2+z
-y,x-y,z
-x,-y,1/2+z
-x+y,-x,z
y,-x+y,1/2+z
-x+y,y,z
x,x-y,z
-y,-x,z
y,x,1/2+z
x-y,-y,1/2+z
-x,-x+y,1/2+z
loop_
_atom_site_type_symbol
_atom_site_label
_atom_site_fract_x
_atom_site_fract_y
_atom_site_fract_z
Si Si1 0.902895 0.639488 0.074420
Si Si2 0.094241 0.463123 0.197679
Si Si3 0.821030 0.821453 0.160272
Si Si4 0.641735 0.113926 0.217298
Si Si5 0.438228 0.057182 0.523815
Si Si6 0.072480 0.313247 0.300835
Si Si7 0.379835 0.275697 0.373052
O O1 0.816823 0.633646 0.029730
O O2 0.970519 0.742881 0.097004
O O3 0.859744 0.574975 0.149943
O O4 0.957945 0.607416 0.021301
O O5 0.141661 0.570831 0.214637
O O6 0.107999 0.446347 0.106183
O O7 0.124249 0.409859 0.256032
O O8 0.990760 0.423018 0.212590
O O9 0.922562 0.845124 0.175067
O O10 0.766832 0.784882 0.240438
O O11 0.820262 0.910131 0.130734
O O12 0.580262 0.160524 0.206831
O O13 0.688470 0.138763 0.301937
O O14 0.521006 0.042011 0.511467
O O15 0.433797 0.115623 0.453104
O O16 0.151213 0.302426 0.341636
O O17 0.000149 0.303921 0.364741
O O18 0.336779 0.168390 0.378143
#
# Coordination Sequence:
#
# PCOD8326736 Si02
#       7
#    12  12  12  12  12  12  12
#     4  10  18  32  55  77 102 133 171 219 263 310
#     4   8  15  30  51  76 100 124 165 219 265 309
#     4  10  18  29  47  74 106 138 174 216 262 303
#     4   9  16  30  52  76 100 128 161 205 260 315
#     4  10  20  34  52  76 103 136 172 213 266 321
#     4  10  19  32  53  77 104 140 182 224 265 314
#     4  11  21  33  51  76 107 141 177 220 264 314
#
# _framework density 19.077513
#
# number of rings (size 3 to 8) (size 9 to 14) (size 15 to 20)
#    0.000    2.286    4.286    2.714    0.000    2.286 
#    0.000    0.000    0.000    8.571    0.000    2.000 
#    0.000    0.000    0.000    0.000    0.000    0.000 
#
# Total GULP energy -1040699.810436 kJ/mol
# GULP energy per Si atom -12389.283458 kJ/mol
# Density = 1.903409 g / cm^3
# Si number density = 19.077513 Si / 1000 Ang^3
#
#
#
# Elastic Constant Matrix: (Units=GPa)
#
#
# Indices 1 2 3 4 5 6 
#
# 1 75.1925 46.2266 19.4619 0.0000 0.0000 0.0000
# 2 46.2266 75.1925 19.4619 0.0000 0.0000 0.0000
# 3 19.4619 19.4619 69.9378 0.0000 0.0000 0.0000
# 4 0.0000 0.0000 0.0000 5.8365 0.0000 0.0000
# 5 0.0000 0.0000 0.0000 0.0000 5.8365 0.0000
# 6 0.0000 0.0000 0.0000 0.0000 0.0000 14.4829
#
#
#
# Elastic Compliance Matrix: (Units=1/GPa)
#
#
# Indices 1 2 3 4 5 6 
#
# 1 0.021783 -0.012740 -0.002516 0.000000 0.000000 0.000000
# 2 -0.012740 0.021783 -0.002516 0.000000 0.000000 0.000000
# 3 -0.002516 -0.002516 0.015699 0.000000 0.000000 0.000000
# 4 0.000000 0.000000 0.000000 0.171335 0.000000 0.000000
# 5 0.000000 0.000000 0.000000 0.000000 0.171335 0.000000
# 6 0.000000 0.000000 0.000000 0.000000 0.000000 0.069047
#
#
# Mechanical properties :
#
#
# Convention : Reuss Voigt Hill
#
# Bulk Modulus (GPa) = 42.16068 43.40262 42.78165
# Shear Modulus (GPa) = 9.71942 14.24268 11.98105
#
# Velocity S-wave (km/s) = 2.25959 2.73531 2.50875
# Velocity P-wave (km/s) = 5.38102 5.72503 5.55568
#
# Compressibility (1/GPa) = 0.02371878
#
# Stress axis : x y z
#
# Youngs Moduli (GPa) = 45.90736 45.90736 63.69883
#
# Poissons Ratio (x) = 0.58488 0.16029
# Poissons Ratio (y) = 0.58488 0.16029
# Poissons Ratio (z) = 0.11552 0.11552
#
# Static dielectric constant tensor:
#      x y z
#    x 3.969540 0.000000 0.000000 
#    y 0.000000 3.969540 0.000000 
#    z 0.000000 0.000000 3.293080 
# 
# 
# High freq. dielectric constant tensor:
#      x y z
#    x 1.732990 0.000000 0.000000 
#    y 0.000000 1.732990 0.000000 
#    z 0.000000 0.000000 1.714240 
# 
# From -- ./inp_files/2577.got.cif
#   From: 2010.03.12/outbox.cif.g09.slc.cpg/sg186_2_cif.got.tgz:2577.got - 2010.04.01 11:56:34.
