data_PCOD8326269
_publ_section_title
;
Structure prediction by ZEFSAII (Michael W. Deem and Ramdas Pophale) SiO2 
 PCOD8326269
Probable space group: P 62 2 2
;
_chemical_formula_sum "Si O2"
_cell_formula_units_Z 30
_cell_length_a 7.146638
_cell_length_b 7.146638
_cell_length_c 29.681845
_cell_angle_alpha 90.000000
_cell_angle_beta 90.000000
_cell_angle_gamma 120.000000
_cell_volume 1312.880183
_symmetry_space_group_name_H-M "P 62 2 2"
_symmetry_group_IT_number 180
_symmetry_cell_setting 'hexagonal'
loop_
_space_group_symop_operation_xyz
x,y,z
x-y,x,1/3+z
-y,x-y,2/3+z
-x,-y,z
-x+y,-x,1/3+z
y,-x+y,2/3+z
x-y,-y,-z
-x,-x+y,1/3-z
y,x,2/3-z
-y,-x,2/3-z
-x+y,y,-z
x,x-y,1/3-z
loop_
_atom_site_type_symbol
_atom_site_label
_atom_site_fract_x
_atom_site_fract_y
_atom_site_fract_z
Si Si1 0.500000 0.500000 0.754960
Si Si2 0.189855 0.232918 0.282013
Si Si3 0.529564 0.225406 0.216631
O O1 0.700634 0.632362 0.722369
O O2 0.413693 0.625496 0.785865
O O3 0.264939 0.264939 0.333334
O O4 0.400434 0.300194 0.250438
O O5 0.000000 0.000000 0.268212
O O6 0.436185 0.218093 0.166667
O O7 0.500000 0.000000 0.233221
#
# Coordination Sequence:
#
# PCOD8326269 Si02
#       3
#     6  12  12
#     4  12  25  46  74 106 148 196 242 302 361 434
#     4  11  26  46  75 110 146 197 245 300 370 440
#     4  12  26  47  73 109 149 192 246 303 366 439
#
# _framework density 22.850525000000001
#
# number of rings (size 3 to 8) (size 9 to 14) (size 15 to 20)
#    0.000    0.400    4.000    4.200    2.800    4.000 
#    0.000    0.000    0.000    0.000    0.000    0.000 
#    0.000    0.000    0.000    0.000    0.000    0.000 
#
# Total GULP energy -371695.224677 kJ/mol
# GULP energy per Si atom -12389.840823 kJ/mol
# Density = 2.279852 g / cm^3
# Si number density = 22.850525 Si / 1000 Ang^3
#
#
#
# Elastic Constant Matrix: (Units=GPa)
#
#
# Indices 1 2 3 4 5 6 
#
# 1 161.4430 59.7223 54.0645 0.0000 0.0000 0.0000
# 2 59.7223 161.4430 54.0645 0.0000 0.0000 0.0000
# 3 54.0645 54.0645 163.3658 0.0000 0.0000 0.0000
# 4 0.0000 0.0000 0.0000 11.4641 0.0000 0.0000
# 5 0.0000 0.0000 0.0000 0.0000 11.4641 0.0000
# 6 0.0000 0.0000 0.0000 0.0000 0.0000 50.8603
#
#
#
# Elastic Compliance Matrix: (Units=1/GPa)
#
#
# Indices 1 2 3 4 5 6 
#
# 1 0.007613 -0.002218 -0.001785 0.000000 0.000000 0.000000
# 2 -0.002218 0.007613 -0.001785 0.000000 0.000000 0.000000
# 3 -0.001785 -0.001785 0.007303 0.000000 0.000000 0.000000
# 4 0.000000 0.000000 0.000000 0.087228 0.000000 0.000000
# 5 0.000000 0.000000 0.000000 0.000000 0.087228 0.000000
# 6 0.000000 0.000000 0.000000 0.000000 0.000000 0.019662
#
#
# Mechanical properties :
#
#
# Convention : Reuss Voigt Hill
#
# Bulk Modulus (GPa) = 91.31893 91.32828 91.32361
# Shear Modulus (GPa) = 21.56343 35.98443 28.77393
#
# Velocity S-wave (km/s) = 3.07526 3.97265 3.55240
# Velocity P-wave (km/s) = 7.25672 7.81646 7.54178
#
# Compressibility (1/GPa) = 0.01095063
#
# Stress axis : x y z
#
# Youngs Moduli (GPa) = 131.36171 131.36171 136.93337
#
# Poissons Ratio (x) = 0.29140 0.24445
# Poissons Ratio (y) = 0.29140 0.24445
# Poissons Ratio (z) = 0.23451 0.23451
#
# Static dielectric constant tensor:
#      x y z
#    x 4.239030 0.000000 0.000000 
#    y 0.000000 4.239030 0.000000 
#    z 0.000000 0.000000 3.735870 
# 
# 
# High freq. dielectric constant tensor:
#      x y z
#    x 1.923390 0.000000 0.000000 
#    y 0.000000 1.923390 0.000000 
#    z 0.000000 0.000000 1.890850 
# 
# From -- ./inp_files/9597.got.cif
#   From: 2010.03.12/outbox.cif.g09.slc.cpg/sg180_5_cif.got.tgz:9597.got - 2010.04.01 11:35:50.
