data_PCOD8326328
_publ_section_title
;
Structure prediction by ZEFSAII (Michael W. Deem and Ramdas Pophale) SiO2 
 PCOD8326328
Probable space group: P 64 2 2
;
_chemical_formula_sum "Si O2"
_cell_formula_units_Z 66
_cell_length_a 13.870752
_cell_length_b 13.870752
_cell_length_c 19.606366
_cell_angle_alpha 90.000000
_cell_angle_beta 90.000000
_cell_angle_gamma 120.000000
_cell_volume 3266.839146
_symmetry_space_group_name_H-M "P 64 2 2"
_symmetry_group_IT_number 181
_symmetry_cell_setting 'hexagonal'
loop_
_space_group_symop_operation_xyz
x,y,z
x-y,x,2/3+z
-y,x-y,1/3+z
-x,-y,z
-x+y,-x,2/3+z
y,-x+y,1/3+z
x-y,-y,-z
-x,-x+y,2/3-z
y,x,1/3-z
-y,-x,1/3-z
-x+y,y,-z
x,x-y,2/3-z
loop_
_atom_site_type_symbol
_atom_site_label
_atom_site_fract_x
_atom_site_fract_y
_atom_site_fract_z
Si Si1 0.545454 0.279409 0.968888
Si Si2 0.412180 0.227184 0.491363
Si Si3 0.663686 0.327372 0.500000
Si Si4 0.227379 0.943945 0.614180
Si Si5 0.683237 0.803661 0.632702
Si Si6 0.903921 0.385998 0.635669
O O1 0.580458 0.307260 0.891041
O O2 0.594152 0.402448 0.002620
O O3 0.609833 0.219665 0.000000
O O4 0.414124 0.199057 0.980836
O O5 0.532204 0.243165 0.512325
O O6 0.317043 0.106197 0.462846
O O7 0.366227 0.256173 0.559851
O O8 0.432806 0.307616 0.428963
O O9 0.128357 0.871644 0.666667
O O10 0.340011 0.947048 0.637471
O O11 0.241552 0.065917 0.615497
O O12 0.757631 0.757631 0.666667
O O13 0.000000 0.500000 0.606333
#
# Coordination Sequence:
#
# PCOD8326328 Si02
#       6
#    12  12   6  12  12  12
#     4  11  21  39  60  92 134 166 207 257 330 400
#     4  10  22  39  65  95 132 165 213 275 327 393
#     4  10  20  38  65  98 130 171 204 264 330 402
#     4  10  22  43  66  92 122 166 225 283 328 378
#     4  12  26  42  61  94 133 176 221 267 326 398
#     4  10  19  37  67  94 127 167 213 265 337 395
#
# _framework density 20.203014
#
# number of rings (size 3 to 8) (size 9 to 14) (size 15 to 20)
#    0.000    1.455    3.636    3.273    0.000    3.636 
#    0.000    0.909    0.000    4.364    0.000    0.000 
#    0.000    0.000    0.000    0.000    0.000    0.000 
#
# Total GULP energy -817681.753251 kJ/mol
# GULP energy per Si atom -12389.117473 kJ/mol
# Density = 2.015703 g / cm^3
# Si number density = 20.203014 Si / 1000 Ang^3
#
#
#
# Elastic Constant Matrix: (Units=GPa)
#
#
# Indices 1 2 3 4 5 6 
#
# 1 108.3800 46.8753 33.2819 0.0000 0.0000 0.0000
# 2 46.8753 108.3800 33.2819 0.0000 0.0000 0.0000
# 3 33.2819 33.2819 80.3254 0.0000 0.0000 0.0000
# 4 0.0000 0.0000 0.0000 23.4106 0.0000 0.0000
# 5 0.0000 0.0000 0.0000 0.0000 23.4106 0.0000
# 6 0.0000 0.0000 0.0000 0.0000 0.0000 30.7523
#
#
#
# Elastic Compliance Matrix: (Units=1/GPa)
#
#
# Indices 1 2 3 4 5 6 
#
# 1 0.012046 -0.004213 -0.003245 0.000000 0.000000 0.000000
# 2 -0.004213 0.012046 -0.003245 0.000000 0.000000 0.000000
# 3 -0.003245 -0.003245 0.015139 0.000000 0.000000 0.000000
# 4 0.000000 0.000000 0.000000 0.042716 0.000000 0.000000
# 5 0.000000 0.000000 0.000000 0.000000 0.042716 0.000000
# 6 0.000000 0.000000 0.000000 0.000000 0.000000 0.032518
#
#
# Mechanical properties :
#
#
# Convention : Reuss Voigt Hill
#
# Bulk Modulus (GPa) = 56.10933 58.21820 57.16376
# Shear Modulus (GPa) = 27.09624 27.75780 27.42702
#
# Velocity S-wave (km/s) = 3.66621 3.71070 3.68852
# Velocity P-wave (km/s) = 6.76421 6.87300 6.81882
#
# Compressibility (1/GPa) = 0.01782235
#
# Stress axis : x y z
#
# Youngs Moduli (GPa) = 83.01751 83.01751 66.05617
#
# Poissons Ratio (x) = 0.34978 0.21437
# Poissons Ratio (y) = 0.34978 0.21437
# Poissons Ratio (z) = 0.26941 0.26941
#
# Static dielectric constant tensor:
#      x y z
#    x 3.755860 0.000000 0.000000 
#    y 0.000000 3.755860 0.000000 
#    z 0.000000 0.000000 3.747010 
# 
# 
# High freq. dielectric constant tensor:
#      x y z
#    x 1.778610 0.000000 0.000000 
#    y 0.000000 1.778610 0.000000 
#    z 0.000000 0.000000 1.796670 
# 
# From -- ./inp_files/9054.got.cif
#   From: 2010.03.12/outbox.cif.g09.slc.cpg/sg181_5_cif.got.tgz:9054.got - 2010.04.01 11:42:41.
