data_PCOD8326044
_publ_section_title
;
Structure prediction by ZEFSAII (Michael W. Deem and Ramdas Pophale) SiO2 
 PCOD8326044
Probable space group: P 65 2 2
;
_chemical_formula_sum "Si O2"
_cell_formula_units_Z 78
_cell_length_a 17.683731
_cell_length_b 17.683731
_cell_length_c 15.316797
_cell_angle_alpha 90.000000
_cell_angle_beta 90.000000
_cell_angle_gamma 120.000000
_cell_volume 4148.072974
_symmetry_space_group_name_H-M "P 65 2 2"
_symmetry_group_IT_number 179
_symmetry_cell_setting 'hexagonal'
loop_
_space_group_symop_operation_xyz
x,y,z
x-y,x,5/6+z
-y,x-y,2/3+z
-x,-y,1/2+z
-x+y,-x,1/3+z
y,-x+y,1/6+z
x-y,-y,-z
-x,-x+y,1/3-z
y,x,2/3-z
-y,-x,1/6-z
-x+y,y,1/2-z
x,x-y,5/6-z
loop_
_atom_site_type_symbol
_atom_site_label
_atom_site_fract_x
_atom_site_fract_y
_atom_site_fract_z
Si Si1 0.217642 0.441473 0.500388
Si Si2 0.415568 0.916737 0.547027
Si Si3 0.619668 0.749028 0.984269
Si Si4 0.604834 0.387532 0.229334
Si Si5 0.042087 0.640757 0.256768
Si Si6 0.547277 0.094554 0.750000
Si Si7 0.638009 0.960621 0.234759
O O1 0.185686 0.406150 0.404224
O O2 0.296556 0.540000 0.487111
O O3 0.144753 0.437090 0.565096
O O4 0.242710 0.376117 0.547827
O O5 0.334318 0.868007 0.612001
O O6 0.403890 0.839805 0.482364
O O7 0.509659 0.962310 0.596256
O O8 0.416015 0.000000 0.500000
O O9 0.659881 0.829941 0.916667
O O10 0.689054 0.718283 0.007976
O O11 0.696686 0.393371 0.250000
O O12 0.616374 0.461383 0.159209
O O13 0.000000 0.649108 0.166667
O O14 0.987168 0.656674 0.330648
O O15 0.450407 0.036462 0.709471
#
# Coordination Sequence:
#
# PCOD8326044 Si02
#       7
#    12  12  12  12  12   6  12
#     4  10  23  38  55  82 114 154 192 248 311 345
#     4  11  22  38  56  80 111 153 208 244 300 360
#     4  11  22  35  59  80 109 153 194 245 295 358
#     4  11  24  34  52  82 110 147 202 259 301 343
#     4  10  22  38  59  84 107 155 201 241 296 362
#     4  10  20  38  52  72 106 158 190 242 314 340
#     4  10  21  39  56  80 113 145 192 242 298 365
#
# _framework density 18.803913000000001
#
# number of rings (size 3 to 8) (size 9 to 14) (size 15 to 20)
#    0.000    1.538    1.538    4.615    6.462    1.846 
#    0.000    0.000    0.000    0.000    0.000    0.000 
#    0.000    0.000   83.692    0.000    0.000    0.000 
#
# Total GULP energy -966656.159124 kJ/mol
# GULP energy per Si atom -12393.027681 kJ/mol
# Density = 1.876111 g / cm^3
# Si number density = 18.803913 Si / 1000 Ang^3
#
#
#
# Elastic Constant Matrix: (Units=GPa)
#
#
# Indices 1 2 3 4 5 6 
#
# 1 77.6500 23.2005 32.2796 0.0000 0.0000 0.0000
# 2 23.2005 77.6500 32.2796 0.0000 0.0000 0.0000
# 3 32.2796 32.2796 96.4852 0.0000 0.0000 0.0000
# 4 0.0000 0.0000 0.0000 27.0931 0.0000 0.0000
# 5 0.0000 0.0000 0.0000 0.0000 27.0931 0.0000
# 6 0.0000 0.0000 0.0000 0.0000 0.0000 27.2248
#
#
#
# Elastic Compliance Matrix: (Units=1/GPa)
#
#
# Indices 1 2 3 4 5 6 
#
# 1 0.015492 -0.002874 -0.004221 0.000000 0.000000 0.000000
# 2 -0.002874 0.015492 -0.004221 0.000000 0.000000 0.000000
# 3 -0.004221 -0.004221 0.013189 0.000000 0.000000 0.000000
# 4 0.000000 0.000000 0.000000 0.036910 0.000000 0.000000
# 5 0.000000 0.000000 0.000000 0.000000 0.036910 0.000000
# 6 0.000000 0.000000 0.000000 0.000000 0.000000 0.036731
#
#
# Mechanical properties :
#
#
# Convention : Reuss Voigt Hill
#
# Bulk Modulus (GPa) = 46.42696 47.47829 46.95262
# Shear Modulus (GPa) = 27.09495 27.21724 27.15609
#
# Velocity S-wave (km/s) = 3.80006 3.80863 3.80435
# Velocity P-wave (km/s) = 6.63307 6.68168 6.65742
#
# Compressibility (1/GPa) = 0.02153921
#
# Stress axis : x y z
#
# Youngs Moduli (GPa) = 64.55026 64.55026 75.82158
#
# Poissons Ratio (x) = 0.18551 0.32007
# Poissons Ratio (y) = 0.18551 0.32007
# Poissons Ratio (z) = 0.27249 0.27249
#
# Static dielectric constant tensor:
#      x y z
#    x 3.397570 0.000000 0.000000 
#    y 0.000000 3.397570 0.000000 
#    z 0.000000 0.000000 3.682790 
# 
# 
# High freq. dielectric constant tensor:
#      x y z
#    x 1.704280 0.000000 0.000000 
#    y 0.000000 1.704280 0.000000 
#    z 0.000000 0.000000 1.754920 
# 
# From -- ./inp_files/6056.got.cif
#   From: 2010.03.12/outbox.cif.g09.slc.cpg/sg179_4_cif.got.tgz:6056.got - 2010.04.02 07:08:42.
