data_PCOD8326616
_publ_section_title
;
Structure prediction by ZEFSAII (Michael W. Deem and Ramdas Pophale) SiO2 
 PCOD8326616
Probable space group: P 6 C C
;
_chemical_formula_sum "Si O2"
_cell_formula_units_Z 50
_cell_length_a 13.888093
_cell_length_b 13.888093
_cell_length_c 13.613782
_cell_angle_alpha 90.000000
_cell_angle_beta 90.000000
_cell_angle_gamma 120.000000
_cell_volume 2274.021967
_symmetry_space_group_name_H-M "P 6 C C"
_symmetry_group_IT_number 184
_symmetry_cell_setting 'hexagonal'
loop_
_space_group_symop_operation_xyz
x,y,z
x-y,x,z
-y,x-y,z
-x,-y,z
-x+y,-x,z
y,-x+y,z
-x+y,y,1/2+z
x,x-y,1/2+z
-y,-x,1/2+z
y,x,1/2+z
x-y,-y,1/2+z
-x,-x+y,1/2+z
loop_
_atom_site_type_symbol
_atom_site_label
_atom_site_fract_x
_atom_site_fract_y
_atom_site_fract_z
Si Si1 0.856387 0.564071 0.285540
Si Si2 0.333335 0.666668 0.811989
Si Si3 0.000000 0.500000 0.926893
Si Si4 0.707684 0.143617 0.068246
Si Si5 0.666668 0.333334 0.041792
Si Si6 0.868959 0.737921 0.426893
O O1 0.734506 0.458314 0.272316
O O2 0.927236 0.532730 0.358466
O O3 0.911695 0.600029 0.176892
O O4 0.837812 0.661086 0.330084
O O5 0.333334 0.666667 0.926890
O O6 0.927225 0.532714 0.995321
O O7 0.723818 0.265503 0.081465
O O8 0.823271 0.162186 0.023701
O O9 0.815150 0.815151 0.426892
#
# Coordination Sequence:
#
# PCOD8326616 Si02
#       6
#    12   4   6  12   4  12
#     4  12  25  44  75 110 148 192 237 298 379 457
#     4  12  22  44  70 106 149 181 217 281 370 457
#     4  12  22  46  72 112 154 188 242 304 374 456
#     4  12  25  44  75 110 148 192 237 298 379 457
#     4  12  22  44  70 106 149 181 217 281 370 457
#     4  12  27  51  72 102 145 199 262 318 362 434
#
# _framework density 21.987475
#
# number of rings (size 3 to 8) (size 9 to 14) (size 15 to 20)
#    0.000    0.000    7.200    2.400    0.000    1.920 
#    0.000    0.000    0.000    2.880    0.000    0.000 
#    0.000    0.000    0.000    0.000    0.000    0.000 
#
# Total GULP energy -619983.261814 kJ/mol
# GULP energy per Si atom -12399.665236 kJ/mol
# Density = 2.193743 g / cm^3
# Si number density = 21.987475 Si / 1000 Ang^3
#
#
#
# Elastic Constant Matrix: (Units=GPa)
#
#
# Indices 1 2 3 4 5 6 
#
# 1 155.4601 74.2750 59.0883 -0.0001 -0.0001 -0.0002
# 2 74.2750 155.4595 59.0881 0.0000 -0.0001 0.0001
# 3 59.0883 59.0881 213.2155 0.0001 0.0001 -0.0001
# 4 -0.0001 0.0000 0.0001 2.4539 -0.0001 0.0000
# 5 -0.0001 -0.0001 0.0001 -0.0001 2.4540 0.0000
# 6 -0.0002 0.0001 -0.0001 0.0000 0.0000 40.5930
#
#
#
# Elastic Compliance Matrix: (Units=1/GPa)
#
#
# Indices 1 2 3 4 5 6 
#
# 1 0.008697 -0.003621 -0.001407 0.000000 0.000000 0.000000
# 2 -0.003621 0.008697 -0.001407 0.000000 0.000000 0.000000
# 3 -0.001407 -0.001407 0.005470 0.000000 0.000000 0.000000
# 4 0.000000 0.000000 0.000000 0.407518 0.000021 0.000000
# 5 0.000000 0.000000 0.000000 0.000021 0.407502 0.000000
# 6 0.000000 0.000000 0.000000 0.000000 0.000000 0.024635
#
#
# Mechanical properties :
#
#
# Convention : Reuss Voigt Hill
#
# Bulk Modulus (GPa) = 100.04497 101.00418 100.52458
# Shear Modulus (GPa) = 5.69011 31.21243 18.45127
#
# Velocity S-wave (km/s) = 1.61044 3.77179 2.89999
# Velocity P-wave (km/s) = 7.00412 8.06259 7.55192
#
# Compressibility (1/GPa) = 0.00999550
#
# Stress axis : x y z
#
# Youngs Moduli (GPa) = 114.98169 114.98129 182.82032
#
# Poissons Ratio (x) = 0.41629 0.25720
# Poissons Ratio (y) = 0.41629 0.25720
# Poissons Ratio (z) = 0.16176 0.16176
#
# Static dielectric constant tensor:
#      x y z
#    x 4.174380 0.000000 0.000000 
#    y 0.000000 4.174370 0.000000 
#    z 0.000000 0.000000 4.417470 
# 
# 
# High freq. dielectric constant tensor:
#      x y z
#    x 1.864310 0.000000 0.000000 
#    y 0.000000 1.864310 0.000000 
#    z 0.000000 0.000000 1.881630 
# 
# From -- ./inp_files/798.got.cif
#   From: 2010.03.12/outbox.cif.g09.slc.cpg/sg184_cif.got.tgz:798.got - 2010.04.01 11:54:36.
