data_PCOD8326576
_publ_section_title
;
Structure prediction by ZEFSAII (Michael W. Deem and Ramdas Pophale) SiO2 
 PCOD8326576
Probable space group: P 6 C C
;
_chemical_formula_sum "Si O2"
_cell_formula_units_Z 72
_cell_length_a 15.464527
_cell_length_b 15.464527
_cell_length_c 16.396194
_cell_angle_alpha 90.000000
_cell_angle_beta 90.000000
_cell_angle_gamma 120.000000
_cell_volume 3395.837988
_symmetry_space_group_name_H-M "P 6 C C"
_symmetry_group_IT_number 184
_symmetry_cell_setting 'hexagonal'
loop_
_space_group_symop_operation_xyz
x,y,z
x-y,x,z
-y,x-y,z
-x,-y,z
-x+y,-x,z
y,-x+y,z
-x+y,y,1/2+z
x,x-y,1/2+z
-y,-x,1/2+z
y,x,1/2+z
x-y,-y,1/2+z
-x,-x+y,1/2+z
loop_
_atom_site_type_symbol
_atom_site_label
_atom_site_fract_x
_atom_site_fract_y
_atom_site_fract_z
Si Si1 0.841099 0.054640 0.671330
Si Si2 0.158901 0.945360 0.864093
Si Si3 0.435106 0.650710 0.676306
Si Si4 0.104187 0.390760 0.565281
Si Si5 0.609240 0.895813 0.470142
Si Si6 0.784397 0.349290 0.359116
O O1 0.844719 0.054214 0.767711
O O2 0.758932 0.081402 0.644242
O O3 0.947848 0.134199 0.634483
O O4 0.241068 0.918597 0.891181
O O5 0.052152 0.865801 0.900940
O O6 0.437841 0.757532 0.666329
O O7 0.500206 0.640105 0.604410
O O8 0.472762 0.644844 0.767711
O O9 0.194771 0.389542 0.517711
O O10 0.000000 0.353084 0.517711
O O11 0.500206 0.860101 0.431013
O O12 0.757532 0.437841 0.369094
#
# Coordination Sequence:
#
# PCOD8326576 Si02
#       6
#    12  12  12  12  12  12
#     4  10  20  36  58  84 121 173 227 271 319 390
#     4  10  20  36  58  84 121 173 227 271 319 390
#     4   8  19  44  73  91 116 167 223 265 313 384
#     4  12  23  37  60  95 136 170 207 263 337 391
#     4  12  23  37  60  95 136 170 207 263 337 391
#     4   8  19  44  73  91 116 167 223 265 313 384
#
# _framework density 21.202425000000002
#
# number of rings (size 3 to 8) (size 9 to 14) (size 15 to 20)
#    0.667    1.333    3.333    1.333    0.000    2.667 
#    0.000    3.333    0.000    4.000    0.000    0.000 
#    0.000    0.000    0.000    0.000    0.000    0.000 
#
# Total GULP energy -892014.837969 kJ/mol
# GULP energy per Si atom -12389.094972 kJ/mol
# Density = 2.115417 g / cm^3
# Si number density = 21.202425 Si / 1000 Ang^3
#
#
#
# Elastic Constant Matrix: (Units=GPa)
#
#
# Indices 1 2 3 4 5 6 
#
# 1 63.7059 16.2541 39.8216 0.0000 0.0000 0.0000
# 2 16.2541 63.7059 39.8216 0.0000 0.0000 0.0000
# 3 39.8216 39.8216 74.0991 0.0000 0.0000 0.0000
# 4 0.0000 0.0000 0.0000 38.5336 0.0000 0.0000
# 5 0.0000 0.0000 0.0000 0.0000 38.5336 0.0000
# 6 0.0000 0.0000 0.0000 0.0000 0.0000 23.7259
#
#
#
# Elastic Compliance Matrix: (Units=1/GPa)
#
#
# Indices 1 2 3 4 5 6 
#
# 1 0.023993 0.002919 -0.014463 0.000000 0.000000 0.000000
# 2 0.002919 0.023993 -0.014463 0.000000 0.000000 0.000000
# 3 -0.014463 -0.014463 0.029040 0.000000 0.000000 0.000000
# 4 0.000000 0.000000 0.000000 0.025951 0.000000 0.000000
# 5 0.000000 0.000000 0.000000 0.000000 0.025951 0.000000
# 6 0.000000 0.000000 0.000000 0.000000 0.000000 0.042148
#
#
# Mechanical properties :
#
#
# Convention : Reuss Voigt Hill
#
# Bulk Modulus (GPa) = 39.97924 43.70061 41.83993
# Shear Modulus (GPa) = 21.60512 27.19953 24.40233
#
# Velocity S-wave (km/s) = 3.19563 3.58558 3.39620
# Velocity P-wave (km/s) = 5.70202 6.14798 5.92919
#
# Compressibility (1/GPa) = 0.02501298
#
# Stress axis : x y z
#
# Youngs Moduli (GPa) = 41.67923 41.67923 34.43518
#
# Poissons Ratio (x) = -0.12165 0.49802
# Poissons Ratio (y) = -0.12165 0.49802
# Poissons Ratio (z) = 0.60279 0.60279
#
# Static dielectric constant tensor:
#      x y z
#    x 3.754090 0.000000 0.000000 
#    y 0.000000 3.754090 0.000000 
#    z 0.000000 0.000000 3.627310 
# 
# 
# High freq. dielectric constant tensor:
#      x y z
#    x 1.818700 0.000000 0.000000 
#    y 0.000000 1.818700 0.000000 
#    z 0.000000 0.000000 1.833130 
# 
# From -- ./inp_files/1100.got.cif
#   From: 2010.03.12/outbox.cif.g09.slc.cpg/sg184_cif.got.tgz:1100.got - 2010.04.01 11:54:36.
