data_PCOD8326120
_publ_section_title
;
Structure prediction by ZEFSAII (Michael W. Deem and Ramdas Pophale) SiO2 
 PCOD8326120
Probable space group: P 65 2 2
;
_chemical_formula_sum "Si O2"
_cell_formula_units_Z 54
_cell_length_a 24.000000
_cell_length_b 24.000000
_cell_length_c 6.000000
_cell_angle_alpha 90.000000
_cell_angle_beta 90.000000
_cell_angle_gamma 120.000000
_cell_volume 2992.983795
_symmetry_space_group_name_H-M "P 65 2 2"
_symmetry_group_IT_number 179
_symmetry_cell_setting 'hexagonal'
loop_
_space_group_symop_operation_xyz
x,y,z
x-y,x,5/6+z
-y,x-y,2/3+z
-x,-y,1/2+z
-x+y,-x,1/3+z
y,-x+y,1/6+z
x-y,-y,-z
-x,-x+y,1/3-z
y,x,2/3-z
-y,-x,1/6-z
-x+y,y,1/2-z
x,x-y,5/6-z
loop_
_atom_site_type_symbol
_atom_site_label
_atom_site_fract_x
_atom_site_fract_y
_atom_site_fract_z
Si Si1 0.477732 0.640160 0.200754
Si Si2 0.438341 0.719171 0.916667
Si Si3 0.000000 0.720489 0.666667
Si Si4 0.389615 0.610386 0.583334
Si Si5 0.063636 0.689415 0.287408
Si Si6 0.196723 0.264569 0.722318
O O1 0.458309 0.635925 0.461577
O O2 0.550025 0.656190 0.191095
O O3 0.427934 0.572067 0.083334
O O4 0.480413 0.701310 0.077707
O O5 0.391561 0.657455 0.773285
O O6 0.046008 0.703161 0.528723
O O7 0.950306 0.735226 0.534636
O O8 0.094070 0.757370 0.153837
O O9 0.000000 0.636225 0.166667
O O10 0.212288 0.212288 0.833334
O O11 0.122076 0.244152 0.750000
#
# Coordination Sequence:
#
# PCOD8326120 Si02
#       6
#    12   6   6   6  12  12
#     4  10  22  36  50  78 104 140 180 225 284 336
#     4  10  22  35  54  74 102 134 174 224 274 326
#     4   8  18  36  56  76 112 140 178 228 270 314
#     4  10  22  37  52  74 104 132 176 220 274 330
#     4   9  20  37  54  78 106 139 182 225 272 331
#     4   9  19  33  55  85 112 146 186 228 275 331
#
# _framework density 18.042196000000001
#
# number of rings (size 3 to 8) (size 9 to 14) (size 15 to 20)
#    0.000    3.111    0.000    0.667    0.000   23.111 
#    4.000    0.000    0.000    0.000    2.889    0.000 
#    0.000    0.000    0.000    0.000    0.000    0.000 
#
# Total GULP energy -669069.015310 kJ/mol
# GULP energy per Si atom -12390.166950 kJ/mol
# Density = 1.800113 g / cm^3
# Si number density = 18.042196 Si / 1000 Ang^3
#
#
#
# Elastic Constant Matrix: (Units=GPa)
#
#
# Indices 1 2 3 4 5 6 
#
# 1 118.1489 59.4225 43.7964 0.0000 0.0000 0.0000
# 2 59.4225 118.1489 43.7964 0.0000 0.0000 0.0000
# 3 43.7964 43.7964 118.7625 0.0000 0.0000 0.0000
# 4 0.0000 0.0000 0.0000 14.1879 0.0000 0.0000
# 5 0.0000 0.0000 0.0000 0.0000 14.1879 0.0000
# 6 0.0000 0.0000 0.0000 0.0000 0.0000 29.3632
#
#
#
# Elastic Compliance Matrix: (Units=1/GPa)
#
#
# Indices 1 2 3 4 5 6 
#
# 1 0.011956 -0.005072 -0.002539 0.000000 0.000000 0.000000
# 2 -0.005072 0.011956 -0.002539 0.000000 0.000000 0.000000
# 3 -0.002539 -0.002539 0.010292 0.000000 0.000000 0.000000
# 4 0.000000 0.000000 0.000000 0.070482 0.000000 0.000000
# 5 0.000000 0.000000 0.000000 0.000000 0.070482 0.000000
# 6 0.000000 0.000000 0.000000 0.000000 0.000000 0.034056
#
#
# Mechanical properties :
#
#
# Convention : Reuss Voigt Hill
#
# Bulk Modulus (GPa) = 71.91248 72.12124 72.01686
# Shear Modulus (GPa) = 21.35300 25.41748 23.38524
#
# Velocity S-wave (km/s) = 3.44394 3.75744 3.60410
# Velocity P-wave (km/s) = 7.46718 7.67365 7.57112
#
# Compressibility (1/GPa) = 0.01390579
#
# Stress axis : x y z
#
# Youngs Moduli (GPa) = 83.64046 83.64046 97.15853
#
# Poissons Ratio (x) = 0.42424 0.24664
# Poissons Ratio (y) = 0.42424 0.24664
# Poissons Ratio (z) = 0.21233 0.21233
#
# Static dielectric constant tensor:
#      x y z
#    x 3.123180 0.000000 0.000000 
#    y 0.000000 3.123180 0.000000 
#    z 0.000000 0.000000 3.804710 
# 
# 
# High freq. dielectric constant tensor:
#      x y z
#    x 1.679330 0.000000 0.000000 
#    y 0.000000 1.679330 0.000000 
#    z 0.000000 0.000000 1.713150 
# 
# From -- ./inp_files/1249.got.cif
#   From: 2010.03.12/outbox.ucp.g09.slc.cvg/sg179_1_cif.got.tgz:1249.got - 2010.05.04 20:43:49.
