data_PCOD8326593
_publ_section_title
;
Structure prediction by ZEFSAII (Michael W. Deem and Ramdas Pophale) SiO2 
 PCOD8326593
Probable space group: P 6 C C
;
_chemical_formula_sum "Si O2"
_cell_formula_units_Z 72
_cell_length_a 14.545038
_cell_length_b 14.545038
_cell_length_c 17.495925
_cell_angle_alpha 90.000000
_cell_angle_beta 90.000000
_cell_angle_gamma 120.000000
_cell_volume 3205.510918
_symmetry_space_group_name_H-M "P 6 C C"
_symmetry_group_IT_number 184
_symmetry_cell_setting 'hexagonal'
loop_
_space_group_symop_operation_xyz
x,y,z
x-y,x,z
-y,x-y,z
-x,-y,z
-x+y,-x,z
y,-x+y,z
-x+y,y,1/2+z
x,x-y,1/2+z
-y,-x,1/2+z
y,x,1/2+z
x-y,-y,1/2+z
-x,-x+y,1/2+z
loop_
_atom_site_type_symbol
_atom_site_label
_atom_site_fract_x
_atom_site_fract_y
_atom_site_fract_z
Si Si1 0.213638 0.472380 0.216850
Si Si2 0.561425 0.117839 0.597658
Si Si3 0.875520 0.250999 0.020011
Si Si4 0.245913 0.124259 0.155599
Si Si5 0.885329 0.424913 0.293415
Si Si6 0.334680 0.903758 0.954413
O O1 0.193738 0.531913 0.145919
O O2 0.154669 0.346154 0.210460
O O3 0.176010 0.507175 0.295194
O O4 0.338052 0.512245 0.226346
O O5 0.685872 0.153444 0.584814
O O6 0.523640 0.115551 0.511303
O O7 0.500000 0.000000 0.633115
O O8 0.872025 0.153714 0.067508
O O9 0.784966 0.194248 0.956422
O O10 0.985163 0.325164 0.975459
O O11 0.175291 0.176684 0.174798
O O12 0.900244 0.378786 0.371717
O O13 0.000000 0.500000 0.258101
#
# Coordination Sequence:
#
# PCOD8326593 Si02
#       6
#    12  12  12  12  12  12
#     4  12  25  46  73 102 149 200 239 306 374 441
#     4  10  21  42  71 104 137 187 243 297 361 438
#     4  11  21  43  73 104 142 191 236 306 369 435
#     4  12  23  44  74 109 141 188 246 309 373 434
#     4  12  28  47  69 105 147 192 247 296 368 455
#     4  11  25  44  73 101 149 190 251 302 367 442
#
# _framework density 22.461317000000001
#
# number of rings (size 3 to 8) (size 9 to 14) (size 15 to 20)
#    0.000    0.667    3.333    5.500    4.667    0.000 
#    1.000    0.000    0.000    0.000    0.000    0.000 
#    0.000    0.000    0.000    0.000    0.000    0.000 
#
# Total GULP energy -892227.871392 kJ/mol
# GULP energy per Si atom -12392.053769 kJ/mol
# Density = 2.241019 g / cm^3
# Si number density = 22.461317 Si / 1000 Ang^3
#
#
#
# Elastic Constant Matrix: (Units=GPa)
#
#
# Indices 1 2 3 4 5 6 
#
# 1 173.1047 80.2734 54.3134 0.0000 0.0000 0.0000
# 2 80.2734 173.1047 54.3134 0.0000 0.0000 0.0000
# 3 54.3134 54.3134 116.9940 0.0000 0.0000 0.0000
# 4 0.0000 0.0000 0.0000 7.8028 0.0000 0.0000
# 5 0.0000 0.0000 0.0000 0.0000 7.8028 0.0000
# 6 0.0000 0.0000 0.0000 0.0000 0.0000 46.4156
#
#
#
# Elastic Compliance Matrix: (Units=1/GPa)
#
#
# Indices 1 2 3 4 5 6 
#
# 1 0.007850 -0.002922 -0.002287 0.000000 0.000000 0.000000
# 2 -0.002922 0.007850 -0.002287 0.000000 0.000000 0.000000
# 3 -0.002287 -0.002287 0.010671 0.000000 0.000000 0.000000
# 4 0.000000 0.000000 0.000000 0.128160 0.000000 0.000000
# 5 0.000000 0.000000 0.000000 0.000000 0.128160 0.000000
# 6 0.000000 0.000000 0.000000 0.000000 0.000000 0.021544
#
#
# Mechanical properties :
#
#
# Convention : Reuss Voigt Hill
#
# Bulk Modulus (GPa) = 87.90347 93.44487 90.67417
# Shear Modulus (GPa) = 15.47886 30.69111 23.08498
#
# Velocity S-wave (km/s) = 2.62798 3.70049 3.20936
# Velocity P-wave (km/s) = 6.95908 7.74281 7.36138
#
# Compressibility (1/GPa) = 0.01137611
#
# Stress axis : x y z
#
# Youngs Moduli (GPa) = 127.39196 127.39196 93.70899
#
# Poissons Ratio (x) = 0.37230 0.21436
# Poissons Ratio (y) = 0.37230 0.21436
# Poissons Ratio (z) = 0.29141 0.29141
#
# Static dielectric constant tensor:
#      x y z
#    x 4.365500 0.000000 0.000000 
#    y 0.000000 4.365500 0.000000 
#    z 0.000000 0.000000 3.841510 
# 
# 
# High freq. dielectric constant tensor:
#      x y z
#    x 1.897650 0.000000 0.000000 
#    y 0.000000 1.897650 0.000000 
#    z 0.000000 0.000000 1.878710 
# 
# From -- ./inp_files/1101.got.cif
#   From: 2010.03.12/outbox.cif.g09.slc.cpg/sg184_cif.got.tgz:1101.got - 2010.04.01 11:54:36.
