data_PCOD8326151
_publ_section_title
;
Structure prediction by ZEFSAII (Michael W. Deem and Ramdas Pophale) SiO2 
 PCOD8326151
Probable space group: P 62 2 2
;
_chemical_formula_sum "Si O2"
_cell_formula_units_Z 48
_cell_length_a 10.674283
_cell_length_b 10.674283
_cell_length_c 28.945218
_cell_angle_alpha 90.000000
_cell_angle_beta 90.000000
_cell_angle_gamma 120.000000
_cell_volume 2856.175451
_symmetry_space_group_name_H-M "P 62 2 2"
_symmetry_group_IT_number 180
_symmetry_cell_setting 'hexagonal'
loop_
_space_group_symop_operation_xyz
x,y,z
x-y,x,1/3+z
-y,x-y,2/3+z
-x,-y,z
-x+y,-x,1/3+z
y,-x+y,2/3+z
x-y,-y,-z
-x,-x+y,1/3-z
y,x,2/3-z
-y,-x,2/3-z
-x+y,y,-z
x,x-y,1/3-z
loop_
_atom_site_type_symbol
_atom_site_label
_atom_site_fract_x
_atom_site_fract_y
_atom_site_fract_z
Si Si1 0.767932 0.383966 0.166667
Si Si2 0.658964 0.579507 0.129923
Si Si3 0.198011 0.302965 0.949341
Si Si4 0.000000 0.500000 0.089010
Si Si5 0.000000 0.000000 0.911281
Si Si6 0.115689 0.231378 0.500000
O O1 0.674490 0.463483 0.161639
O O2 0.861072 0.449462 0.212543
O O3 0.500000 0.500000 0.108046
O O4 0.769773 0.635080 0.088261
O O5 0.675003 0.711422 0.161549
O O6 0.370793 0.380567 0.942556
O O7 0.118126 0.129530 0.943142
O O8 0.171354 0.342707 0.000000
O O9 0.911075 0.049507 0.879274
#
# Coordination Sequence:
#
# PCOD8326151 Si02
#       6
#     6  12  12   6   6   6
#     4   9  17  32  50  70  93 121 158 196 242 289
#     4  10  19  30  47  71  98 124 155 194 242 284
#     4  10  20  31  48  68  97 127 159 194 231 285
#     4   9  18  32  50  70  92 124 158 196 240 280
#     4   9  17  32  50  72  91 119 160 200 246 271
#     4   9  17  30  50  72  95 117 152 208 244 279
#
# _framework density 16.805689999999998
#
# number of rings (size 3 to 8) (size 9 to 14) (size 15 to 20)
#    0.000    2.500    0.000    2.625    1.750    6.000 
#    0.000    0.000    0.000    0.000    0.000    0.000 
#    0.000    0.000    0.000    0.000    0.000    0.000 
#
# Total GULP energy -595049.720749 kJ/mol
# GULP energy per Si atom -12396.869182 kJ/mol
# Density = 1.676744 g / cm^3
# Si number density = 16.805690 Si / 1000 Ang^3
#
#
#
# Elastic Constant Matrix: (Units=GPa)
#
#
# Indices 1 2 3 4 5 6 
#
# 1 102.3469 65.2519 28.3764 0.0000 0.0000 0.0000
# 2 65.2519 102.3469 28.3764 0.0000 0.0000 0.0000
# 3 28.3764 28.3764 69.5685 0.0000 0.0000 0.0000
# 4 0.0000 0.0000 0.0000 10.3910 0.0000 0.0000
# 5 0.0000 0.0000 0.0000 0.0000 10.3910 0.0000
# 6 0.0000 0.0000 0.0000 0.0000 0.0000 18.5475
#
#
#
# Elastic Compliance Matrix: (Units=1/GPa)
#
#
# Indices 1 2 3 4 5 6 
#
# 1 0.016940 -0.010017 -0.002824 0.000000 0.000000 0.000000
# 2 -0.010017 0.016940 -0.002824 0.000000 0.000000 0.000000
# 3 -0.002824 -0.002824 0.016678 0.000000 0.000000 0.000000
# 4 0.000000 0.000000 0.000000 0.096237 0.000000 0.000000
# 5 0.000000 0.000000 0.000000 0.000000 0.096237 0.000000
# 6 0.000000 0.000000 0.000000 0.000000 0.000000 0.053916
#
#
# Mechanical properties :
#
#
# Convention : Reuss Voigt Hill
#
# Bulk Modulus (GPa) = 52.00615 57.58576 54.79595
# Shear Modulus (GPa) = 14.93932 18.01642 16.47787
#
# Velocity S-wave (km/s) = 2.98475 3.27776 3.13468
# Velocity P-wave (km/s) = 6.54913 6.97603 6.76594
#
# Compressibility (1/GPa) = 0.01922850
#
# Stress axis : x y z
#
# Youngs Moduli (GPa) = 59.03081 59.03081 59.95955
#
# Poissons Ratio (x) = 0.59134 0.16931
# Poissons Ratio (y) = 0.59134 0.16931
# Poissons Ratio (z) = 0.16669 0.16669
#
# Static dielectric constant tensor:
#      x y z
#    x 3.306400 0.000000 0.000000 
#    y 0.000000 3.306400 0.000000 
#    z 0.000000 0.000000 2.930120 
# 
# 
# High freq. dielectric constant tensor:
#      x y z
#    x 1.652240 0.000000 0.000000 
#    y 0.000000 1.652240 0.000000 
#    z 0.000000 0.000000 1.628870 
# 
# From -- ./inp_files/11043.got.cif
#   From: 2010.03.12/outbox.cif.g09.slc.cpg/sg180_6_cif.got.tgz:11043.got - 2010.04.01 11:35:50.
