data_PCOD8326303
_publ_section_title
;
Structure prediction by ZEFSAII (Michael W. Deem and Ramdas Pophale) SiO2 
 PCOD8326303
Probable space group: P 64 2 2
;
_chemical_formula_sum "Si O2"
_cell_formula_units_Z 84
_cell_length_a 17.869923
_cell_length_b 17.869923
_cell_length_c 13.558342
_cell_angle_alpha 90.000000
_cell_angle_beta 90.000000
_cell_angle_gamma 120.000000
_cell_volume 3749.579607
_symmetry_space_group_name_H-M "P 64 2 2"
_symmetry_group_IT_number 181
_symmetry_cell_setting 'hexagonal'
loop_
_space_group_symop_operation_xyz
x,y,z
x-y,x,2/3+z
-y,x-y,1/3+z
-x,-y,z
-x+y,-x,2/3+z
y,-x+y,1/3+z
x-y,-y,-z
-x,-x+y,2/3-z
y,x,1/3-z
-y,-x,1/3-z
-x+y,y,-z
x,x-y,2/3-z
loop_
_atom_site_type_symbol
_atom_site_label
_atom_site_fract_x
_atom_site_fract_y
_atom_site_fract_z
Si Si1 0.297060 0.843949 0.842362
Si Si2 0.082454 0.222686 0.391250
Si Si3 0.012065 0.740853 0.989056
Si Si4 0.027101 0.681548 0.199307
Si Si5 0.479439 0.575174 0.901140
Si Si6 0.348576 0.174288 0.333334
Si Si7 0.382780 0.382780 0.166667
Si Si8 0.827345 0.480836 0.776188
O O1 0.387708 0.849362 0.818575
O O2 0.249237 0.840149 0.741040
O O3 0.234874 0.756570 0.900629
O O4 0.321660 0.931362 0.906431
O O5 0.096226 0.192452 0.500000
O O6 0.158693 0.241111 0.314423
O O7 0.075573 0.310064 0.397541
O O8 0.000000 0.148192 0.333334
O O9 0.917249 0.716235 0.947228
O O10 0.038704 0.682939 0.925426
O O11 0.004903 0.715803 0.101766
O O12 0.087589 0.640447 0.175963
O O13 0.500000 0.500000 0.932232
O O14 0.477332 0.623666 0.998312
O O15 0.471634 0.382722 0.186096
O O16 0.776337 0.388169 0.833334
#
# Coordination Sequence:
#
# PCOD8326303 Si02
#       8
#    12  12  12  12  12   6   6  12
#     4  10  21  35  60  87 123 166 214 268 329 402
#     4  10  23  41  68  98 132 173 227 281 342 411
#     4  10  21  35  61  95 126 165 214 267 323 398
#     4   9  20  39  64  91 122 171 217 278 331 390
#     4  10  20  38  62  91 127 168 223 275 334 399
#     4  10  18  36  55  88 126 158 204 264 323 378
#     4  12  21  34  58  94 125 160 212 268 327 392
#     4  12  23  34  56  93 132 169 211 273 342 407
#
# _framework density 22.402512999999999
#
# number of rings (size 3 to 8) (size 9 to 14) (size 15 to 20)
#    0.000    1.714    2.857    1.929    4.000    1.143 
#    0.000    2.500    3.143    8.143    0.000    0.000 
#    0.000    0.000    0.000    0.000    0.000    0.000 
#
# Total GULP energy -1040724.526034 kJ/mol
# GULP energy per Si atom -12389.577691 kJ/mol
# Density = 2.235152 g / cm^3
# Si number density = 22.402513 Si / 1000 Ang^3
#
#
#
# Elastic Constant Matrix: (Units=GPa)
#
#
# Indices 1 2 3 4 5 6 
#
# 1 112.1750 47.3991 15.2431 0.0000 0.0000 0.0000
# 2 47.3991 112.1750 15.2431 0.0000 0.0000 0.0000
# 3 15.2431 15.2431 43.6472 0.0000 0.0000 0.0000
# 4 0.0000 0.0000 0.0000 22.4999 0.0000 0.0000
# 5 0.0000 0.0000 0.0000 0.0000 22.4999 0.0000
# 6 0.0000 0.0000 0.0000 0.0000 0.0000 32.3880
#
#
#
# Elastic Compliance Matrix: (Units=1/GPa)
#
#
# Indices 1 2 3 4 5 6 
#
# 1 0.011076 -0.004362 -0.002345 0.000000 0.000000 0.000000
# 2 -0.004362 0.011076 -0.002345 0.000000 0.000000 0.000000
# 3 -0.002345 -0.002345 0.024549 0.000000 0.000000 0.000000
# 4 0.000000 0.000000 0.000000 0.044445 0.000000 0.000000
# 5 0.000000 0.000000 0.000000 0.000000 0.044445 0.000000
# 6 0.000000 0.000000 0.000000 0.000000 0.000000 0.030876
#
#
# Mechanical properties :
#
#
# Convention : Reuss Voigt Hill
#
# Bulk Modulus (GPa) = 34.96718 47.08533 41.02625
# Shear Modulus (GPa) = 25.75964 28.15170 26.95567
#
# Velocity S-wave (km/s) = 3.39463 3.54875 3.47254
# Velocity P-wave (km/s) = 5.56841 6.15264 5.86780
#
# Compressibility (1/GPa) = 0.02859825
#
# Stress axis : x y z
#
# Youngs Moduli (GPa) = 90.28321 90.28321 40.73504
#
# Poissons Ratio (x) = 0.39378 0.09552
# Poissons Ratio (y) = 0.39378 0.09552
# Poissons Ratio (z) = 0.21171 0.21171
#
# Static dielectric constant tensor:
#      x y z
#    x 4.382320 0.000000 0.000000 
#    y 0.000000 4.382320 0.000000 
#    z 0.000000 0.000000 3.325760 
# 
# 
# High freq. dielectric constant tensor:
#      x y z
#    x 1.881640 0.000000 0.000000 
#    y 0.000000 1.881640 0.000000 
#    z 0.000000 0.000000 1.863050 
# 
# From -- ./inp_files/6532.got.cif
#   From: 2010.03.12/outbox.cif.g09.slc.cpg/sg181_4_cif.got.tgz:6532.got - 2010.04.01 11:42:41.
