data_PCOD8326661
_publ_section_title
;
Structure prediction by ZEFSAII (Michael W. Deem and Ramdas Pophale) SiO2 
 PCOD8326661
Probable space group: P 63 C M
;
_chemical_formula_sum "Si O2"
_cell_formula_units_Z 72
_cell_length_a 14.944234
_cell_length_b 14.944234
_cell_length_c 18.860674
_cell_angle_alpha 90.000000
_cell_angle_beta 90.000000
_cell_angle_gamma 120.000000
_cell_volume 3647.834771
_symmetry_space_group_name_H-M "P 63 C M"
_symmetry_group_IT_number 185
_symmetry_cell_setting 'hexagonal'
loop_
_space_group_symop_operation_xyz
x,y,z
x-y,x,1/2+z
-y,x-y,z
-x,-y,1/2+z
-x+y,-x,z
y,-x+y,1/2+z
-x+y,y,1/2+z
x,x-y,1/2+z
-y,-x,1/2+z
y,x,z
x-y,-y,z
-x,-x+y,z
loop_
_atom_site_type_symbol
_atom_site_label
_atom_site_fract_x
_atom_site_fract_y
_atom_site_fract_z
Si Si1 0.309064 0.430065 0.694130
Si Si2 0.264302 0.800474 0.481622
Si Si3 0.228410 0.114266 0.999809
Si Si4 0.551522 0.330125 0.832347
Si Si5 0.121736 0.530286 0.053293
Si Si6 0.115737 0.884118 0.167595
O O1 0.359206 0.359206 0.686491
O O2 0.334325 0.482532 0.770041
O O3 0.356174 0.514781 0.631074
O O4 0.185565 0.352973 0.687518
O O5 0.196350 0.854501 0.474982
O O6 0.325995 0.824545 0.407989
O O7 0.188911 0.679062 0.495486
O O8 0.351225 0.851287 0.543675
O O9 0.150307 0.150307 0.970252
O O10 0.192910 0.000000 0.969296
O O11 0.223747 0.109697 0.083745
O O12 0.566033 0.229648 0.826040
O O13 0.000000 0.451837 0.041276
O O14 0.000000 0.811836 0.197924
O O15 0.162522 0.000000 0.199249
#
# Coordination Sequence:
#
# PCOD8326661 Si02
#       6
#    12  12  12  12  12  12
#     4  10  22  39  60  88 123 156 199 254 309 365
#     4  12  21  40  63  89 121 162 202 254 303 367
#     4  10  20  35  59  90 123 156 198 252 309 364
#     4  10  23  42  59  84 118 162 201 243 306 369
#     4  11  23  39  62  92 120 157 205 254 304 358
#     4   9  17  33  57  87 120 155 196 247 303 365
#
# _framework density 19.737735000000001
#
# number of rings (size 3 to 8) (size 9 to 14) (size 15 to 20)
#    0.333    1.333    3.333    1.667    2.333    2.667 
#    0.000    2.500    0.000    0.000    0.000    2.333 
#    0.000    0.000    0.000    0.000    0.000    0.000 
#
# Total GULP energy -892514.611344 kJ/mol
# GULP energy per Si atom -12396.036269 kJ/mol
# Density = 1.969281 g / cm^3
# Si number density = 19.737735 Si / 1000 Ang^3
#
#
#
# Elastic Constant Matrix: (Units=GPa)
#
#
# Indices 1 2 3 4 5 6 
#
# 1 87.8880 24.5597 25.2601 0.0000 0.0000 0.0000
# 2 24.5597 87.8880 25.2601 0.0000 0.0000 0.0000
# 3 25.2601 25.2601 75.2992 0.0000 0.0000 0.0000
# 4 0.0000 0.0000 0.0000 22.7290 0.0000 0.0000
# 5 0.0000 0.0000 0.0000 0.0000 22.7290 0.0000
# 6 0.0000 0.0000 0.0000 0.0000 0.0000 31.6642
#
#
#
# Elastic Compliance Matrix: (Units=1/GPa)
#
#
# Indices 1 2 3 4 5 6 
#
# 1 0.013131 -0.002660 -0.003513 0.000000 0.000000 0.000000
# 2 -0.002660 0.013131 -0.003513 0.000000 0.000000 0.000000
# 3 -0.003513 -0.003513 0.015637 0.000000 0.000000 0.000000
# 4 0.000000 0.000000 0.000000 0.043997 0.000000 0.000000
# 5 0.000000 0.000000 0.000000 0.000000 0.043997 0.000000
# 6 0.000000 0.000000 0.000000 0.000000 0.000000 0.031581
#
#
# Mechanical properties :
#
#
# Convention : Reuss Voigt Hill
#
# Bulk Modulus (GPa) = 44.38782 44.58169 44.48476
# Shear Modulus (GPa) = 26.54579 27.15745 26.85162
#
# Velocity S-wave (km/s) = 3.67130 3.71336 3.69239
# Velocity P-wave (km/s) = 6.36466 6.40480 6.38476
#
# Compressibility (1/GPa) = 0.02252870
#
# Stress axis : x y z
#
# Youngs Moduli (GPa) = 76.15590 76.15590 63.95046
#
# Poissons Ratio (x) = 0.20256 0.22464
# Poissons Ratio (y) = 0.20256 0.22464
# Poissons Ratio (z) = 0.26751 0.26751
#
# Static dielectric constant tensor:
#      x y z
#    x 3.761250 0.000000 0.000000 
#    y 0.000000 3.761250 0.000000 
#    z 0.000000 0.000000 3.223260 
# 
# 
# High freq. dielectric constant tensor:
#      x y z
#    x 1.772740 0.000000 0.000000 
#    y 0.000000 1.772740 0.000000 
#    z 0.000000 0.000000 1.736630 
# 
# From -- ./inp_files/1709.got.cif
#   From: 2010.03.12/outbox.cif.g09.slc.cpg/sg185_cif.got.tgz:1709.got - 2010.04.01 11:55:19.
