data_PCOD8326759
_publ_section_title
;
Structure prediction by ZEFSAII (Michael W. Deem and Ramdas Pophale) SiO2 
 PCOD8326759
Probable space group: P 63 M C
;
_chemical_formula_sum "Si O2"
_cell_formula_units_Z 72
_cell_length_a 21.206859
_cell_length_b 21.206859
_cell_length_c 9.808426
_cell_angle_alpha 90.000000
_cell_angle_beta 90.000000
_cell_angle_gamma 120.000000
_cell_volume 3820.169644
_symmetry_space_group_name_H-M "P 63 M C"
_symmetry_group_IT_number 186
_symmetry_cell_setting 'hexagonal'
loop_
_space_group_symop_operation_xyz
x,y,z
x-y,x,1/2+z
-y,x-y,z
-x,-y,1/2+z
-x+y,-x,z
y,-x+y,1/2+z
-x+y,y,z
x,x-y,z
-y,-x,z
y,x,1/2+z
x-y,-y,1/2+z
-x,-x+y,1/2+z
loop_
_atom_site_type_symbol
_atom_site_label
_atom_site_fract_x
_atom_site_fract_y
_atom_site_fract_z
Si Si1 0.805334 0.469876 0.559410
Si Si2 0.567304 0.710132 0.823395
Si Si3 0.392529 0.460744 0.568813
Si Si4 0.704330 0.024652 0.500145
Si Si5 0.224170 0.307680 0.287128
Si Si6 0.691838 0.168045 0.836930
O O1 0.749468 0.498935 0.572035
O O2 0.766200 0.383100 0.545700
O O3 0.850339 0.503765 0.422912
O O4 0.851439 0.494782 0.699003
O O5 0.559940 0.779970 0.777980
O O6 0.561433 0.660523 0.697561
O O7 0.641990 0.739111 0.907525
O O8 0.478430 0.521571 0.598197
O O9 0.379361 0.382865 0.514360
O O10 0.364268 0.497872 0.460414
O O11 0.744221 0.039824 0.645740
O O12 0.723293 0.970161 0.417360
O O13 0.136069 0.272138 0.278736
O O14 0.258248 0.391397 0.318984
O O15 0.744535 0.255466 0.860922
#
# Coordination Sequence:
#
# PCOD8326759 Si02
#       6
#    12  12  12  12  12  12
#     4  10  19  31  49  71  98 137 189 244 295 343
#     4  11  22  38  57  77 107 148 191 236 295 357
#     4  11  23  36  53  80 114 147 193 252 301 352
#     4  11  21  39  55  85 112 150 201 229 292 353
#     4  10  20  38  59  83 119 151 185 233 282 347
#     4   9  18  34  54  74 100 143 189 232 297 358
#
# _framework density 18.847329999999999
#
# number of rings (size 3 to 8) (size 9 to 14) (size 15 to 20)
#    0.000    1.667    3.333    2.167    0.000    2.000 
#    0.000    0.000    0.000    4.667    0.000    0.000 
#    0.000    0.000    0.000   19.000    0.000    0.000 
#
# Total GULP energy -891952.067681 kJ/mol
# GULP energy per Si atom -12388.223162 kJ/mol
# Density = 1.880443 g / cm^3
# Si number density = 18.847330 Si / 1000 Ang^3
#
#
#
# Elastic Constant Matrix: (Units=GPa)
#
#
# Indices 1 2 3 4 5 6 
#
# 1 145.4917 -74.7892 20.8640 0.0000 0.0000 0.0000
# 2 -74.7892 145.4917 20.8640 0.0000 0.0000 0.0000
# 3 20.8640 20.8640 100.1252 0.0000 0.0000 0.0000
# 4 0.0000 0.0000 0.0000 53.8917 0.0000 0.0000
# 5 0.0000 0.0000 0.0000 0.0000 53.8917 0.0000
# 6 0.0000 0.0000 0.0000 0.0000 0.0000 110.1404
#
#
#
# Elastic Compliance Matrix: (Units=1/GPa)
#
#
# Indices 1 2 3 4 5 6 
#
# 1 0.010333 0.005794 -0.003361 0.000000 0.000000 0.000000
# 2 0.005794 0.010333 -0.003361 0.000000 0.000000 0.000000
# 3 -0.003361 -0.003361 0.011388 0.000000 0.000000 0.000000
# 4 0.000000 0.000000 0.000000 0.018556 0.000000 0.000000
# 5 0.000000 0.000000 0.000000 0.000000 0.018556 0.000000
# 6 0.000000 0.000000 0.000000 0.000000 0.000000 0.009079
#
#
# Mechanical properties :
#
#
# Convention : Reuss Voigt Hill
#
# Bulk Modulus (GPa) = 33.11246 36.10956 34.61101
# Shear Modulus (GPa) = 55.45262 71.86276 63.65769
#
# Velocity S-wave (km/s) = 5.43009 6.18156 5.81797
# Velocity P-wave (km/s) = 7.54463 8.37553 7.97091
#
# Compressibility (1/GPa) = 0.03020011
#
# Stress axis : x y z
#
# Youngs Moduli (GPa) = 96.77349 96.77349 87.81148
#
# Poissons Ratio (x) = -0.56068 0.29510
# Poissons Ratio (y) = -0.56068 0.29510
# Poissons Ratio (z) = 0.32521 0.32521
#
# Static dielectric constant tensor:
#      x y z
#    x 3.320720 0.000000 0.000000 
#    y 0.000000 3.320720 0.000000 
#    z 0.000000 0.000000 3.802660 
# 
# 
# High freq. dielectric constant tensor:
#      x y z
#    x 1.705770 0.000000 0.000000 
#    y 0.000000 1.705770 0.000000 
#    z 0.000000 0.000000 1.752800 
# 
# From -- ./inp_files/1207.got.cif
#   From: 2010.03.12/outbox.cif.g09.slc.cpg/sg186_1_cif.got.tgz:1207.got - 2010.04.01 11:56:34.
