data_PCOD8326128
_publ_section_title
;
Structure prediction by ZEFSAII (Michael W. Deem and Ramdas Pophale) SiO2 
 PCOD8326128
Probable space group: P 62 2 2
;
_chemical_formula_sum "Si O2"
_cell_formula_units_Z 42
_cell_length_a 15.367008
_cell_length_b 15.367008
_cell_length_c 12.007756
_cell_angle_alpha 90.000000
_cell_angle_beta 90.000000
_cell_angle_gamma 120.000000
_cell_volume 2455.676311
_symmetry_space_group_name_H-M "P 62 2 2"
_symmetry_group_IT_number 180
_symmetry_cell_setting 'hexagonal'
loop_
_space_group_symop_operation_xyz
x,y,z
x-y,x,1/3+z
-y,x-y,2/3+z
-x,-y,z
-x+y,-x,1/3+z
y,-x+y,2/3+z
x-y,-y,-z
-x,-x+y,1/3-z
y,x,2/3-z
-y,-x,2/3-z
-x+y,y,-z
x,x-y,1/3-z
loop_
_atom_site_type_symbol
_atom_site_label
_atom_site_fract_x
_atom_site_fract_y
_atom_site_fract_z
Si Si1 0.779404 0.884149 0.488890
Si Si2 0.413778 0.021373 0.630947
Si Si3 0.089944 0.801146 0.928828
Si Si4 0.192994 0.385988 0.000000
O O1 0.743697 0.861776 0.361165
O O2 0.818269 0.812307 0.534615
O O3 0.683482 0.864319 0.561116
O O4 0.866501 0.000000 0.500000
O O5 0.451635 0.137277 0.669752
O O6 0.500000 0.000000 0.673907
O O7 0.395790 0.000000 0.500000
O O8 0.311100 0.950146 0.695835
O O9 0.173854 0.826147 0.833334
#
# Coordination Sequence:
#
# PCOD8326128 Si02
#       4
#    12  12  12   6
#     4  11  17  32  51  78 106 145 175 208 254 306
#     4  10  19  34  60  82  97 139 189 226 268 319
#     4  11  21  32  50  77 113 145 172 214 265 323
#     4  10  16  32  58  77 112 126 175 228 266 310
#
# _framework density 17.103231000000001
#
# number of rings (size 3 to 8) (size 9 to 14) (size 15 to 20)
#    0.000    1.429    8.571    0.857    0.000    0.571 
#    0.000    2.857    6.286   13.714    0.000    0.000 
#    0.000    0.000    0.000    0.000    0.000    0.000 
#
# Total GULP energy -520431.008301 kJ/mol
# GULP energy per Si atom -12391.214483 kJ/mol
# Density = 1.706430 g / cm^3
# Si number density = 17.103231 Si / 1000 Ang^3
#
#
#
# Elastic Constant Matrix: (Units=GPa)
#
#
# Indices 1 2 3 4 5 6 
#
# 1 91.0042 60.6197 40.1134 0.0000 0.0000 0.0000
# 2 60.6197 91.0042 40.1134 0.0000 0.0000 0.0000
# 3 40.1134 40.1134 126.1066 0.0000 0.0000 0.0000
# 4 0.0000 0.0000 0.0000 20.1418 0.0000 0.0000
# 5 0.0000 0.0000 0.0000 0.0000 20.1418 0.0000
# 6 0.0000 0.0000 0.0000 0.0000 0.0000 15.1923
#
#
#
# Elastic Compliance Matrix: (Units=1/GPa)
#
#
# Indices 1 2 3 4 5 6 
#
# 1 0.020421 -0.012491 -0.002522 0.000000 0.000000 0.000000
# 2 -0.012491 0.020421 -0.002522 0.000000 0.000000 0.000000
# 3 -0.002522 -0.002522 0.009535 0.000000 0.000000 0.000000
# 4 0.000000 0.000000 0.000000 0.049648 0.000000 0.000000
# 5 0.000000 0.000000 0.000000 0.000000 0.049648 0.000000
# 6 0.000000 0.000000 0.000000 0.000000 0.000000 0.065823
#
#
# Mechanical properties :
#
#
# Convention : Reuss Voigt Hill
#
# Bulk Modulus (GPa) = 65.33970 65.53422 65.43696
# Shear Modulus (GPa) = 19.55663 22.24640 20.90152
#
# Velocity S-wave (km/s) = 3.38516 3.61045 3.49962
# Velocity P-wave (km/s) = 7.31882 7.46864 7.39411
#
# Compressibility (1/GPa) = 0.01530463
#
# Stress axis : x y z
#
# Youngs Moduli (GPa) = 48.96991 48.96991 104.88187
#
# Poissons Ratio (x) = 0.61167 0.26456
# Poissons Ratio (y) = 0.61167 0.26456
# Poissons Ratio (z) = 0.12352 0.12352
#
# Static dielectric constant tensor:
#      x y z
#    x 3.227460 0.000000 0.000000 
#    y 0.000000 3.227460 0.000000 
#    z 0.000000 0.000000 3.518370 
# 
# 
# High freq. dielectric constant tensor:
#      x y z
#    x 1.638570 0.000000 0.000000 
#    y 0.000000 1.638570 0.000000 
#    z 0.000000 0.000000 1.674130 
# 
# From -- ./inp_files/4222.got.cif
#   From: 2010.03.12/outbox.cif.g09.slc.cpg/sg180_3_cif.got.tgz:4222.got - 2010.04.01 11:35:50.
