data_PCOD8326504
_publ_section_title
;
Structure prediction by ZEFSAII (Michael W. Deem and Ramdas Pophale) SiO2 
 PCOD8326504
Probable space group: P 63 2 2
;
_chemical_formula_sum "Si O2"
_cell_formula_units_Z 96
_cell_length_a 18.962174
_cell_length_b 18.962174
_cell_length_c 18.791980
_cell_angle_alpha 90.000000
_cell_angle_beta 90.000000
_cell_angle_gamma 120.000000
_cell_volume 5851.664632
_symmetry_space_group_name_H-M "P 63 2 2"
_symmetry_group_IT_number 182
_symmetry_cell_setting 'hexagonal'
loop_
_space_group_symop_operation_xyz
x,y,z
x-y,x,1/2+z
-y,x-y,z
-x,-y,1/2+z
-x+y,-x,z
y,-x+y,1/2+z
x-y,-y,-z
-x,-x+y,-z
y,x,-z
-y,-x,1/2-z
-x+y,y,1/2-z
x,x-y,1/2-z
loop_
_atom_site_type_symbol
_atom_site_label
_atom_site_fract_x
_atom_site_fract_y
_atom_site_fract_z
Si Si1 0.759399 0.081177 0.833738
Si Si2 0.996430 0.575949 0.834505
Si Si3 0.996430 0.420481 0.834505
Si Si4 0.161634 0.161500 0.417749
Si Si5 0.759399 0.081177 0.666262
Si Si6 0.999867 0.161500 0.417749
Si Si7 0.332235 0.822603 0.834487
Si Si8 0.509631 0.177397 0.334487
O O1 0.671479 0.066422 0.859709
O O2 0.759694 0.066445 0.750000
O O3 0.826830 0.173170 0.854936
O O4 0.777032 0.015919 0.871477
O O5 0.970251 0.485125 0.863811
O O6 0.998536 0.573252 0.750000
O O7 0.086916 0.641382 0.862670
O O8 0.933578 0.328521 0.859709
O O9 0.086916 0.445534 0.862670
O O10 0.183821 0.183821 0.500000
O O11 0.222968 0.238887 0.371477
O O12 0.172609 0.086304 0.394073
O O13 0.068518 0.137035 0.403194
O O14 0.000000 0.183821 0.500000
O O15 0.399776 0.799553 0.858657
O O16 0.244527 0.755473 0.866616
O O17 0.327056 0.821505 0.750000
#
# Coordination Sequence:
#
# PCOD8326504 Si02
#       8
#    12  12  12  12  12  12  12  12
#     4   9  17  28  42  61  83 106 134 171 214 252
#     4   8  14  24  37  53  75 104 133 159 194 242
#     4   8  14  24  37  53  75 104 133 159 194 242
#     4   9  17  29  44  61  83 113 146 175 203 240
#     4   9  17  28  42  61  83 106 134 171 214 252
#     4   9  17  29  44  61  83 113 146 175 203 240
#     4   8  12  17  26  42  65  93 123 151 177 209
#     4   8  12  17  26  42  65  93 123 151 177 209
#
# _framework density 16.405588000000002
#
# number of rings (size 3 to 8) (size 9 to 14) (size 15 to 20)
#    0.000    3.500    0.000    2.000    0.000    3.500 
#    0.000    2.500    0.000    2.750    0.000    3.500 
#    0.000    0.000    0.000    0.500    0.000    3.000 
#
# Total GULP energy -1189527.763422 kJ/mol
# GULP energy per Si atom -12390.914202 kJ/mol
# Density = 1.636825 g / cm^3
# Si number density = 16.405588 Si / 1000 Ang^3
#
#
#
# Elastic Constant Matrix: (Units=GPa)
#
#
# Indices 1 2 3 4 5 6 
#
# 1 125.2683 87.2794 21.4283 0.0000 0.0000 0.0000
# 2 87.2794 125.2683 21.4283 0.0000 0.0000 0.0000
# 3 21.4283 21.4283 15.6062 0.0000 0.0000 0.0000
# 4 0.0000 0.0000 0.0000 10.1667 0.0000 0.0000
# 5 0.0000 0.0000 0.0000 0.0000 10.1667 0.0000
# 6 0.0000 0.0000 0.0000 0.0000 0.0000 18.9945
#
#
#
# Elastic Compliance Matrix: (Units=1/GPa)
#
#
# Indices 1 2 3 4 5 6 
#
# 1 0.016415 -0.009909 -0.008933 0.000000 0.000000 0.000000
# 2 -0.009909 0.016415 -0.008933 0.000000 0.000000 0.000000
# 3 -0.008933 -0.008933 0.088609 0.000000 0.000000 0.000000
# 4 0.000000 0.000000 0.000000 0.098361 0.000000 0.000000
# 5 0.000000 0.000000 0.000000 0.000000 0.098361 0.000000
# 6 0.000000 0.000000 0.000000 0.000000 0.000000 0.052647
#
#
# Mechanical properties :
#
#
# Convention : Reuss Voigt Hill
#
# Bulk Modulus (GPa) = 15.17724 58.49052 36.83388
# Shear Modulus (GPa) = 11.15276 16.93269 14.04272
#
# Velocity S-wave (km/s) = 2.61015 3.21616 2.92887
# Velocity P-wave (km/s) = 4.28430 7.03717 5.82568
#
# Compressibility (1/GPa) = 0.06588813
#
# Stress axis : x y z
#
# Youngs Moduli (GPa) = 60.92082 60.92082 11.28555
#
# Poissons Ratio (x) = 0.60365 0.10082
# Poissons Ratio (y) = 0.60365 0.10082
# Poissons Ratio (z) = 0.54422 0.54422
#
# Static dielectric constant tensor:
#      x y z
#    x 3.314730 0.000000 0.000000 
#    y 0.000000 3.314730 0.000000 
#    z 0.000000 0.000000 2.579330 
# 
# 
# High freq. dielectric constant tensor:
#      x y z
#    x 1.630740 0.000000 0.000000 
#    y 0.000000 1.630740 0.000000 
#    z 0.000000 0.000000 1.568830 
# 
# From -- ./inp_files/5036.got.cif
#   From: 2010.03.12/outbox.cif.g09.slc.cpg/sg182_3_cif.got.tgz:5036.got - 2010.04.01 11:49:36.
