data_PCOD8326452
_publ_section_title
;
Structure prediction by ZEFSAII (Michael W. Deem and Ramdas Pophale) SiO2 
 PCOD8326452
Probable space group: P 63 2 2
;
_chemical_formula_sum "Si O2"
_cell_formula_units_Z 40
_cell_length_a 13.356424
_cell_length_b 13.356424
_cell_length_c 12.443674
_cell_angle_alpha 90.000000
_cell_angle_beta 90.000000
_cell_angle_gamma 120.000000
_cell_volume 1922.470353
_symmetry_space_group_name_H-M "P 63 2 2"
_symmetry_group_IT_number 182
_symmetry_cell_setting 'hexagonal'
loop_
_space_group_symop_operation_xyz
x,y,z
x-y,x,1/2+z
-y,x-y,z
-x,-y,1/2+z
-x+y,-x,z
y,-x+y,1/2+z
x-y,-y,-z
-x,-x+y,-z
y,x,-z
-y,-x,1/2-z
-x+y,y,1/2-z
x,x-y,1/2-z
loop_
_atom_site_type_symbol
_atom_site_label
_atom_site_fract_x
_atom_site_fract_y
_atom_site_fract_z
Si Si1 0.333335 0.666667 0.878590
Si Si2 0.323908 0.877996 0.551930
Si Si3 0.741822 0.977988 0.784600
Si Si4 0.818606 0.712566 0.922011
O O1 0.333334 0.666667 0.750000
O O2 0.205577 0.624371 0.926164
O O3 0.291853 0.905241 0.668805
O O4 0.207017 0.805886 0.480432
O O5 0.420769 0.000000 0.500000
O O6 0.788880 0.894440 0.750000
O O7 0.830252 0.049722 0.880382
O O8 0.738588 0.055082 0.684969
O O9 0.791393 0.791393 0.000000
#
# Coordination Sequence:
#
# PCOD8326452 Si02
#       4
#     4  12  12  12
#     4  12  27  45  72 106 122 163 225 270 324 388
#     4  10  23  45  65  93 133 169 217 270 329 389
#     4  10  19  36  57  92 128 170 220 265 315 388
#     4  10  20  34  61  86 131 181 209 260 329 382
#
# _framework density 20.806564000000002
#
# number of rings (size 3 to 8) (size 9 to 14) (size 15 to 20)
#    0.000    1.800    3.000    0.900    0.000    1.200 
#    7.200    7.500    0.000    0.000    0.000    0.000 
#    0.000    0.000    0.000    0.000    0.000    0.000 
#
# Total GULP energy -495631.239242 kJ/mol
# GULP energy per Si atom -12390.780981 kJ/mol
# Density = 2.075921 g / cm^3
# Si number density = 20.806564 Si / 1000 Ang^3
#
#
#
# Elastic Constant Matrix: (Units=GPa)
#
#
# Indices 1 2 3 4 5 6 
#
# 1 94.3709 42.0292 43.5942 0.0000 0.0000 0.0000
# 2 42.0292 94.3719 43.5949 0.0003 -0.0001 0.0001
# 3 43.5942 43.5949 120.4821 0.0000 0.0002 0.0001
# 4 0.0000 0.0003 0.0000 20.2997 -0.0002 0.0000
# 5 0.0000 -0.0001 0.0002 -0.0002 20.2996 0.0001
# 6 0.0000 0.0001 0.0001 0.0000 0.0001 26.1714
#
#
#
# Elastic Compliance Matrix: (Units=1/GPa)
#
#
# Indices 1 2 3 4 5 6 
#
# 1 0.014321 -0.004784 -0.003451 0.000000 0.000000 0.000000
# 2 -0.004784 0.014321 -0.003451 0.000000 0.000000 0.000000
# 3 -0.003451 -0.003451 0.010797 0.000000 0.000000 0.000000
# 4 0.000000 0.000000 0.000000 0.049262 0.000001 0.000000
# 5 0.000000 0.000000 0.000000 0.000001 0.049262 0.000000
# 6 0.000000 0.000000 0.000000 0.000000 0.000000 0.038210
#
#
# Mechanical properties :
#
#
# Convention : Reuss Voigt Hill
#
# Bulk Modulus (GPa) = 62.23496 63.07351 62.65423
# Shear Modulus (GPa) = 24.40207 25.35456 24.87831
#
# Velocity S-wave (km/s) = 3.42834 3.49461 3.46163
# Velocity P-wave (km/s) = 6.75629 6.83104 6.79377
#
# Compressibility (1/GPa) = 0.01606814
#
# Stress axis : x y z
#
# Youngs Moduli (GPa) = 69.82664 69.82712 92.61584
#
# Poissons Ratio (x) = 0.33405 0.31960
# Poissons Ratio (y) = 0.33405 0.31961
# Poissons Ratio (z) = 0.24096 0.24097
#
# Static dielectric constant tensor:
#      x y z
#    x 3.508640 0.000000 0.000000 
#    y 0.000000 3.508620 0.000000 
#    z 0.000000 0.000000 4.365130 
# 
# 
# High freq. dielectric constant tensor:
#      x y z
#    x 1.790770 0.000000 0.000000 
#    y 0.000000 1.790770 0.000000 
#    z 0.000000 0.000000 1.838780 
# 
# From -- ./inp_files/2248.got.cif
#   From: 2010.03.12/outbox.cif.g09.slc.cpg/sg182_2_cif.got.tgz:2248.got - 2010.04.01 11:49:36.
