data_PCOD8326630
_publ_section_title
;
Structure prediction by ZEFSAII (Michael W. Deem and Ramdas Pophale) SiO2 
 PCOD8326630
Probable space group: P 63 C M
;
_chemical_formula_sum "Si O2"
_cell_formula_units_Z 96
_cell_length_a 17.066150
_cell_length_b 17.066150
_cell_length_c 19.319030
_cell_angle_alpha 90.000000
_cell_angle_beta 90.000000
_cell_angle_gamma 120.000000
_cell_volume 4872.895136
_symmetry_space_group_name_H-M "P 63 C M"
_symmetry_group_IT_number 185
_symmetry_cell_setting 'hexagonal'
loop_
_space_group_symop_operation_xyz
x,y,z
x-y,x,1/2+z
-y,x-y,z
-x,-y,1/2+z
-x+y,-x,z
y,-x+y,1/2+z
-x+y,y,1/2+z
x,x-y,1/2+z
-y,-x,1/2+z
y,x,z
x-y,-y,z
-x,-x+y,z
loop_
_atom_site_type_symbol
_atom_site_label
_atom_site_fract_x
_atom_site_fract_y
_atom_site_fract_z
Si Si1 0.172369 0.478921 0.482670
Si Si2 0.608641 0.899786 0.616222
Si Si3 0.898656 0.379713 0.243728
Si Si4 0.165375 0.391315 0.342020
Si Si5 0.101637 0.801062 0.058995
Si Si6 0.103616 0.894673 0.921442
Si Si7 0.471751 0.104665 0.826712
Si Si8 0.146751 0.505965 0.987398
O O1 0.165770 0.456728 0.401915
O O2 0.107674 0.388450 0.524322
O O3 0.278668 0.527590 0.499967
O O4 0.136724 0.545256 0.505380
O O5 0.521484 0.854923 0.668936
O O6 0.664414 0.845505 0.616212
O O7 0.576525 0.910442 0.539762
O O8 0.678902 0.000000 0.643549
O O9 0.898653 0.298105 0.285891
O O10 0.854185 0.431007 0.285912
O O11 0.000000 0.458248 0.230674
O O12 0.127664 0.289801 0.367999
O O13 0.262755 0.427850 0.305222
O O14 0.000000 0.760264 0.090816
O O15 0.119434 0.875269 0.000246
O O16 0.000000 0.867643 0.910150
O O17 0.167609 0.000000 0.905491
O O18 0.405751 0.000000 0.807179
O O19 0.479323 0.111596 0.909647
#
# Coordination Sequence:
#
# PCOD8326630 Si02
#       8
#    12  12  12  12  12  12  12  12
#     4   9  18  30  52  81 108 137 183 231 277 331
#     4  10  21  37  57  79 111 149 189 236 292 343
#     4  10  21  39  56  78 110 149 192 232 287 349
#     4  10  19  35  55  80 109 150 188 238 288 352
#     4   9  19  34  53  79 110 147 190 234 287 351
#     4  10  19  32  55  87 121 151 190 248 313 370
#     4  10  20  34  57  83 109 144 191 235 277 341
#     4  10  18  33  54  81 110 145 184 230 278 329
#
# _framework density 19.700814000000001
#
# number of rings (size 3 to 8) (size 9 to 14) (size 15 to 20)
#    0.000    2.250    1.250    2.625    0.000    1.500 
#    5.250    1.250    0.000    0.250    0.000    0.000 
#    0.000    0.000    0.000    0.000    0.000    0.000 
#
# Total GULP energy -1189321.316455 kJ/mol
# GULP energy per Si atom -12388.763713 kJ/mol
# Density = 1.965597 g / cm^3
# Si number density = 19.700814 Si / 1000 Ang^3
#
#
#
# Elastic Constant Matrix: (Units=GPa)
#
#
# Indices 1 2 3 4 5 6 
#
# 1 83.7685 23.5989 17.3865 0.0000 0.0000 0.0000
# 2 23.5989 83.7685 17.3865 0.0000 0.0000 0.0000
# 3 17.3865 17.3865 69.4387 0.0000 0.0000 0.0000
# 4 0.0000 0.0000 0.0000 22.7218 0.0000 0.0000
# 5 0.0000 0.0000 0.0000 0.0000 22.7218 0.0000
# 6 0.0000 0.0000 0.0000 0.0000 0.0000 30.0848
#
#
#
# Elastic Compliance Matrix: (Units=1/GPa)
#
#
# Indices 1 2 3 4 5 6 
#
# 1 0.013378 -0.003242 -0.002538 0.000000 0.000000 0.000000
# 2 -0.003242 0.013378 -0.002538 0.000000 0.000000 0.000000
# 3 -0.002538 -0.002538 0.015672 0.000000 0.000000 0.000000
# 4 0.000000 0.000000 0.000000 0.044011 0.000000 0.000000
# 5 0.000000 0.000000 0.000000 0.000000 0.044011 0.000000
# 6 0.000000 0.000000 0.000000 0.000000 0.000000 0.033239
#
#
# Mechanical properties :
#
#
# Convention : Reuss Voigt Hill
#
# Bulk Modulus (GPa) = 38.77147 39.30217 39.03682
# Shear Modulus (GPa) = 26.46610 27.01258 26.73934
#
# Velocity S-wave (km/s) = 3.66922 3.70691 3.68811
# Velocity P-wave (km/s) = 6.13790 6.18986 6.16393
#
# Compressibility (1/GPa) = 0.02579216
#
# Stress axis : x y z
#
# Youngs Moduli (GPa) = 74.75112 74.75112 63.80772
#
# Poissons Ratio (x) = 0.24234 0.16193
# Poissons Ratio (y) = 0.24234 0.16193
# Poissons Ratio (z) = 0.18971 0.18971
#
# Static dielectric constant tensor:
#      x y z
#    x 3.606820 0.000000 0.000000 
#    y 0.000000 3.606820 0.000000 
#    z 0.000000 0.000000 3.497190 
# 
# 
# High freq. dielectric constant tensor:
#      x y z
#    x 1.764600 0.000000 0.000000 
#    y 0.000000 1.764600 0.000000 
#    z 0.000000 0.000000 1.742710 
# 
# From -- ./inp_files/1993.got.cif
#   From: 2010.03.12/outbox.cif.g09.slc.cpg/sg185_cif.got.tgz:1993.got - 2010.04.01 11:55:19.
