data_PCOD8326983
_publ_section_title
;
Structure prediction by ZEFSAII (Michael W. Deem and Ramdas Pophale) SiO2 
 PCOD8326983
Probable space group: P -6 M 2
;
_chemical_formula_sum "Si O2"
_cell_formula_units_Z 60
_cell_length_a 17.851884
_cell_length_b 17.851884
_cell_length_c 12.153176
_cell_angle_alpha 90.000000
_cell_angle_beta 90.000000
_cell_angle_gamma 120.000000
_cell_volume 3354.196731
_symmetry_space_group_name_H-M "P -6 M 2"
_symmetry_group_IT_number 187
_symmetry_cell_setting 'hexagonal'
loop_
_space_group_symop_operation_xyz
x,y,z
-x+y,-x,-z
-y,x-y,z
x,y,-z
-x+y,-x,z
-y,x-y,-z
-y,-x,-z
-x+y,y,-z
x,x-y,-z
-x+y,y,z
x,x-y,z
-y,-x,z
loop_
_atom_site_type_symbol
_atom_site_label
_atom_site_fract_x
_atom_site_fract_y
_atom_site_fract_z
Si Si1 0.666248 0.504961 0.369842
Si Si2 0.552130 0.858956 0.500000
Si Si3 0.760848 0.066905 0.293206
Si Si4 0.502671 0.663205 0.734641
Si Si5 0.037421 0.792901 0.500000
Si Si6 0.252614 0.331226 0.127606
O O1 0.663656 0.513289 0.500000
O O2 0.743155 0.486309 0.336446
O O3 0.574727 0.425274 0.326617
O O4 0.683404 0.596457 0.320539
O O5 0.511404 0.755702 0.500000
O O6 0.521911 0.883791 0.387180
O O7 0.653812 0.904078 0.500000
O O8 0.844533 0.155468 0.262437
O O9 0.784041 0.022977 0.393118
O O10 0.740453 0.007359 0.186443
O O11 0.490475 0.745238 0.726215
O O12 0.416325 0.583676 0.782722
O O13 0.577530 0.680199 0.819237
O O14 0.102296 0.897705 0.500000
O O15 0.154524 0.309048 0.147406
O O16 0.274467 0.333945 0.000000
#
# Coordination Sequence:
#
# PCOD8326983 Si02
#       6
#    12   6  12  12   6  12
#     4   9  17  30  49  77 114 150 179 209 251 304
#     4   9  17  30  50  75 105 142 178 208 250 309
#     4  11  21  35  56  83 109 134 173 222 268 321
#     4  10  19  32  51  78 111 147 185 223 260 303
#     4  11  19  34  56  79 110 144 172 204 259 329
#     4  10  22  40  58  75  99 137 182 223 270 325
#
# _framework density 17.888038999999999
#
# number of rings (size 3 to 8) (size 9 to 14) (size 15 to 20)
#    0.000    2.000    3.000    1.600    0.000    2.400 
#    0.000    1.000    0.000    6.800    0.000    0.000 
#    0.000    1.600    0.000    0.000    0.000    0.000 
#
# Total GULP energy -743773.426570 kJ/mol
# GULP energy per Si atom -12396.223776 kJ/mol
# Density = 1.784732 g / cm^3
# Si number density = 17.888039 Si / 1000 Ang^3
#
#
#
# Elastic Constant Matrix: (Units=GPa)
#
#
# Indices 1 2 3 4 5 6 
#
# 1 83.2213 41.7282 49.6185 0.0000 0.0005 0.0000
# 2 41.7282 83.2213 49.6185 0.0000 -0.0005 0.0000
# 3 49.6185 49.6185 121.5060 0.0000 0.0000 0.0000
# 4 0.0000 0.0000 0.0000 22.6976 0.0000 -0.0005
# 5 0.0005 -0.0005 0.0000 0.0000 22.6976 0.0000
# 6 0.0000 0.0000 0.0000 -0.0005 0.0000 20.7465
#
#
#
# Elastic Compliance Matrix: (Units=1/GPa)
#
#
# Indices 1 2 3 4 5 6 
#
# 1 0.017973 -0.006128 -0.004837 0.000000 -0.000001 0.000000
# 2 -0.006128 0.017973 -0.004837 0.000000 0.000001 0.000000
# 3 -0.004837 -0.004837 0.012181 0.000000 0.000000 0.000000
# 4 0.000000 0.000000 0.000000 0.044058 0.000000 0.000001
# 5 -0.000001 0.000001 0.000000 0.000000 0.044058 0.000000
# 6 0.000000 0.000000 0.000000 0.000001 0.000000 0.048201
#
#
# Mechanical properties :
#
#
# Convention : Reuss Voigt Hill
#
# Bulk Modulus (GPa) = 60.52433 63.31986 61.92210
# Shear Modulus (GPa) = 22.56799 23.02722 22.79761
#
# Velocity S-wave (km/s) = 3.55579 3.59179 3.57383
# Velocity P-wave (km/s) = 7.12508 7.25782 7.19175
#
# Compressibility (1/GPa) = 0.01652228
#
# Stress axis : x y z
#
# Youngs Moduli (GPa) = 55.64014 55.64014 82.09819
#
# Poissons Ratio (x) = 0.34095 0.39711
# Poissons Ratio (y) = 0.34095 0.39711
# Poissons Ratio (z) = 0.26913 0.26913
#
# Static dielectric constant tensor:
#      x y z
#    x 3.364810 0.000000 0.000000 
#    y 0.000000 3.364810 0.000000 
#    z 0.000000 0.000000 3.214710 
# 
# 
# High freq. dielectric constant tensor:
#      x y z
#    x 1.688260 0.000000 0.000000 
#    y 0.000000 1.688260 0.000000 
#    z 0.000000 0.000000 1.669640 
# 
# From -- ./inp_files/1686.got.cif
#   From: 2010.03.12/outbox.cif.g09.slc.cpg/sg187_1_cif.got.tgz:1686.got - 2010.04.01 11:58:23.
