data_PCOD8326375
_publ_section_title
;
Structure prediction by ZEFSAII (Michael W. Deem and Ramdas Pophale) SiO2 
 PCOD8326375
Probable space group: P 64 2 2
;
_chemical_formula_sum "Si O2"
_cell_formula_units_Z 42
_cell_length_a 15.281449
_cell_length_b 15.281449
_cell_length_c 10.284014
_cell_angle_alpha 90.000000
_cell_angle_beta 90.000000
_cell_angle_gamma 120.000000
_cell_volume 2079.803782
_symmetry_space_group_name_H-M "P 64 2 2"
_symmetry_group_IT_number 181
_symmetry_cell_setting 'hexagonal'
loop_
_space_group_symop_operation_xyz
x,y,z
x-y,x,2/3+z
-y,x-y,1/3+z
-x,-y,z
-x+y,-x,2/3+z
y,-x+y,1/3+z
x-y,-y,-z
-x,-x+y,2/3-z
y,x,1/3-z
-y,-x,1/3-z
-x+y,y,-z
x,x-y,2/3-z
loop_
_atom_site_type_symbol
_atom_site_label
_atom_site_fract_x
_atom_site_fract_y
_atom_site_fract_z
Si Si1 0.553450 0.609828 0.916187
Si Si2 0.433632 0.566369 0.666667
Si Si3 0.249306 0.923303 0.610809
Si Si4 0.773929 0.482736 0.780484
O O1 0.500000 0.500000 0.987233
O O2 0.528242 0.593653 0.762547
O O3 0.673206 0.659128 0.939946
O O4 0.511701 0.678329 0.977360
O O5 0.336284 0.531935 0.757409
O O6 0.135075 0.864925 0.666667
O O7 0.269504 0.837037 0.553312
O O8 0.256120 0.000000 0.500000
O O9 0.754698 0.377349 0.833334
#
# Coordination Sequence:
#
# PCOD8326375 Si02
#       4
#    12   6  12  12
#     4  11  21  37  54  81 121 171 215 261 311 355
#     4  12  25  34  56  92 134 160 214 264 322 369
#     4  10  22  38  62  86 120 167 222 255 320 383
#     4  11  21  35  57  83 122 176 221 251 294 379
#
# _framework density 20.194212
#
# number of rings (size 3 to 8) (size 9 to 14) (size 15 to 20)
#    0.000    1.143    2.857    4.714    2.000    0.000 
#    0.000    0.000    0.000    0.000    0.000    0.000 
#    0.000   70.857    0.000    0.000    0.000    0.000 
#
# Total GULP energy -520752.388048 kJ/mol
# GULP energy per Si atom -12398.866382 kJ/mol
# Density = 2.014825 g / cm^3
# Si number density = 20.194212 Si / 1000 Ang^3
#
#
#
# Elastic Constant Matrix: (Units=GPa)
#
#
# Indices 1 2 3 4 5 6 
#
# 1 108.2490 42.8355 51.9111 0.0000 0.0000 0.0000
# 2 42.8355 108.2490 51.9111 0.0000 0.0000 0.0000
# 3 51.9111 51.9111 132.5111 0.0000 0.0000 0.0000
# 4 0.0000 0.0000 0.0000 17.8676 0.0000 0.0000
# 5 0.0000 0.0000 0.0000 0.0000 17.8676 0.0000
# 6 0.0000 0.0000 0.0000 0.0000 0.0000 32.7068
#
#
#
# Elastic Compliance Matrix: (Units=1/GPa)
#
#
# Indices 1 2 3 4 5 6 
#
# 1 0.012172 -0.003115 -0.003548 0.000000 0.000000 0.000000
# 2 -0.003115 0.012172 -0.003548 0.000000 0.000000 0.000000
# 3 -0.003548 -0.003548 0.010326 0.000000 0.000000 0.000000
# 4 0.000000 0.000000 0.000000 0.055967 0.000000 0.000000
# 5 0.000000 0.000000 0.000000 0.000000 0.055967 0.000000
# 6 0.000000 0.000000 0.000000 0.000000 0.000000 0.030575
#
#
# Mechanical properties :
#
#
# Convention : Reuss Voigt Hill
#
# Bulk Modulus (GPa) = 70.18463 71.36939 70.77701
# Shear Modulus (GPa) = 24.70944 27.17851 25.94397
#
# Velocity S-wave (km/s) = 3.50178 3.67257 3.58819
# Velocity P-wave (km/s) = 7.15404 7.30766 7.23126
#
# Compressibility (1/GPa) = 0.01424813
#
# Stress axis : x y z
#
# Youngs Moduli (GPa) = 82.15473 82.15473 96.83893
#
# Poissons Ratio (x) = 0.25593 0.34359
# Poissons Ratio (y) = 0.25593 0.34359
# Poissons Ratio (z) = 0.29149 0.29149
#
# Static dielectric constant tensor:
#      x y z
#    x 3.744670 0.000000 0.000000 
#    y 0.000000 3.744670 0.000000 
#    z 0.000000 0.000000 3.771070 
# 
# 
# High freq. dielectric constant tensor:
#      x y z
#    x 1.773350 0.000000 0.000000 
#    y 0.000000 1.773350 0.000000 
#    z 0.000000 0.000000 1.796830 
# 
# From -- ./inp_files/4154.got.cif
#   From: 2010.03.12/outbox.cif.g09.slc.cpg/sg181_3_cif.got.tgz:4154.got - 2010.04.01 11:42:41.
