data_PCOD8326235
_publ_section_title
;
Structure prediction by ZEFSAII (Michael W. Deem and Ramdas Pophale) SiO2 
 PCOD8326235
Probable space group: P 62 2 2
;
_chemical_formula_sum "Si O2"
_cell_formula_units_Z 18
_cell_length_a 7.725614
_cell_length_b 7.725614
_cell_length_c 12.919098
_cell_angle_alpha 90.000000
_cell_angle_beta 90.000000
_cell_angle_gamma 120.000000
_cell_volume 667.772969
_symmetry_space_group_name_H-M "P 62 2 2"
_symmetry_group_IT_number 180
_symmetry_cell_setting 'hexagonal'
loop_
_space_group_symop_operation_xyz
x,y,z
x-y,x,1/3+z
-y,x-y,2/3+z
-x,-y,z
-x+y,-x,1/3+z
y,-x+y,2/3+z
x-y,-y,-z
-x,-x+y,1/3-z
y,x,2/3-z
-y,-x,2/3-z
-x+y,y,-z
x,x-y,1/3-z
loop_
_atom_site_type_symbol
_atom_site_label
_atom_site_fract_x
_atom_site_fract_y
_atom_site_fract_z
Si Si1 0.170502 0.341004 0.500000
Si Si2 0.000000 0.500000 0.991631
Si Si3 0.252277 0.000000 0.500000
O O1 0.320224 0.486497 0.588203
O O2 0.240328 0.189296 0.455536
O O3 0.095920 0.407360 0.070921
#
# Coordination Sequence:
#
# PCOD8326235 Si02
#       3
#     6   6   6
#     4  11  24  44  74 109 148 194 250 309 366 435
#     4  11  24  42  73 110 148 196 251 301 370 446
#     4  10  24  48  72 102 152 204 244 304 374 438
#
# _framework density 26.955271
#
# number of rings (size 3 to 8) (size 9 to 14) (size 15 to 20)
#    0.000    1.333    0.000    4.000    0.000   16.000 
#    0.000    3.333    0.000    0.000    0.000    0.000 
#    0.000    0.000    0.000    0.000    0.000    0.000 
#
# Total GULP energy -223010.365048 kJ/mol
# GULP energy per Si atom -12389.464725 kJ/mol
# Density = 2.689392 g / cm^3
# Si number density = 26.955271 Si / 1000 Ang^3
#
#
#
# Elastic Constant Matrix: (Units=GPa)
#
#
# Indices 1 2 3 4 5 6 
#
# 1 153.9592 74.6754 96.5841 0.0000 0.0000 0.0000
# 2 74.6754 153.9592 96.5841 0.0000 0.0000 0.0000
# 3 96.5841 96.5841 209.9455 0.0000 0.0000 0.0000
# 4 0.0000 0.0000 0.0000 45.3188 0.0000 0.0000
# 5 0.0000 0.0000 0.0000 0.0000 45.3188 0.0000
# 6 0.0000 0.0000 0.0000 0.0000 0.0000 39.6419
#
#
#
# Elastic Compliance Matrix: (Units=1/GPa)
#
#
# Indices 1 2 3 4 5 6 
#
# 1 0.009884 -0.002729 -0.003291 0.000000 0.000000 0.000000
# 2 -0.002729 0.009884 -0.003291 0.000000 0.000000 0.000000
# 3 -0.003291 -0.003291 0.007792 0.000000 0.000000 0.000000
# 4 0.000000 0.000000 0.000000 0.022066 0.000000 0.000000
# 5 0.000000 0.000000 0.000000 0.000000 0.022066 0.000000
# 6 0.000000 0.000000 0.000000 0.000000 0.000000 0.025226
#
#
# Mechanical properties :
#
#
# Convention : Reuss Voigt Hill
#
# Bulk Modulus (GPa) = 111.91851 117.06124 114.48987
# Shear Modulus (GPa) = 42.18723 42.72391 42.45557
#
# Velocity S-wave (km/s) = 3.96040 3.98552 3.97298
# Velocity P-wave (km/s) = 7.90717 8.04371 7.97573
#
# Compressibility (1/GPa) = 0.00893507
#
# Stress axis : x y z
#
# Youngs Moduli (GPa) = 101.17567 101.17567 128.34368
#
# Poissons Ratio (x) = 0.27612 0.42244
# Poissons Ratio (y) = 0.27612 0.42244
# Poissons Ratio (z) = 0.33302 0.33302
#
# Static dielectric constant tensor:
#      x y z
#    x 4.859070 0.000000 0.000000 
#    y 0.000000 4.859070 0.000000 
#    z 0.000000 0.000000 4.877660 
# 
# 
# High freq. dielectric constant tensor:
#      x y z
#    x 2.083850 0.000000 0.000000 
#    y 0.000000 2.083850 0.000000 
#    z 0.000000 0.000000 2.079320 
# 
# From -- ./inp_files/3585.got.cif
#   From: 2010.03.12/outbox.cif.g09.slc.cpg/sg180_2_cif.got.tgz:3585.got - 2010.04.01 11:35:50.
