data_PCOD8326037
_publ_section_title
;
Structure prediction by ZEFSAII (Michael W. Deem and Ramdas Pophale) SiO2 
 PCOD8326037
Probable space group: P 65 2 2
;
_chemical_formula_sum "Si O2"
_cell_formula_units_Z 78
_cell_length_a 18.749974
_cell_length_b 18.749974
_cell_length_c 14.075022
_cell_angle_alpha 90.000000
_cell_angle_beta 90.000000
_cell_angle_gamma 120.000000
_cell_volume 4285.298252
_symmetry_space_group_name_H-M "P 65 2 2"
_symmetry_group_IT_number 179
_symmetry_cell_setting 'hexagonal'
loop_
_space_group_symop_operation_xyz
x,y,z
x-y,x,5/6+z
-y,x-y,2/3+z
-x,-y,1/2+z
-x+y,-x,1/3+z
y,-x+y,1/6+z
x-y,-y,-z
-x,-x+y,1/3-z
y,x,2/3-z
-y,-x,1/6-z
-x+y,y,1/2-z
x,x-y,5/6-z
loop_
_atom_site_type_symbol
_atom_site_label
_atom_site_fract_x
_atom_site_fract_y
_atom_site_fract_z
Si Si1 0.791779 0.705704 0.859182
Si Si2 0.184697 0.491977 0.815483
Si Si3 0.370349 0.267342 0.494804
Si Si4 0.321029 0.928174 0.318076
Si Si5 0.450562 0.634294 0.996297
Si Si6 0.342711 0.657290 0.583334
Si Si7 0.528759 0.438127 0.300362
O O1 0.792128 0.792128 0.833334
O O2 0.877278 0.703658 0.851160
O O3 0.723963 0.638879 0.785398
O O4 0.762433 0.676184 0.965634
O O5 0.225773 0.451545 0.750000
O O6 0.129290 0.425600 0.893694
O O7 0.258626 0.572115 0.863964
O O8 0.127288 0.512121 0.751771
O O9 0.365611 0.341402 0.547714
O O10 0.461742 0.282323 0.518085
O O11 0.374747 0.908298 0.389907
O O12 0.374733 0.651302 0.994024
O O13 0.460484 0.602573 0.894769
O O14 0.430247 0.569754 0.083334
O O15 0.502994 0.502994 0.333334
#
# Coordination Sequence:
#
# PCOD8326037 Si02
#       7
#    12  12  12  12  12   6  12
#     4   9  18  34  58  85 111 146 182 237 299 364
#     4  12  26  41  59  78 113 162 204 255 308 356
#     4  10  20  35  56  87 117 148 195 243 298 362
#     4  11  21  38  59  79 113 160 188 241 311 356
#     4  12  26  34  56  83 109 147 210 250 304 350
#     4  12  24  42  56  78 112 154 206 262 300 336
#     4  12  23  40  56  79 111 146 204 249 301 358
#
# _framework density 18.201767
#
# number of rings (size 3 to 8) (size 9 to 14) (size 15 to 20)
#    0.000    0.923    6.154    1.846    4.308    0.000 
#    0.000    0.000    0.000    0.000    0.000    0.000 
#    0.000    0.000  146.462    0.000    0.000    0.000 
#
# Total GULP energy -966335.547292 kJ/mol
# GULP energy per Si atom -12388.917273 kJ/mol
# Density = 1.816034 g / cm^3
# Si number density = 18.201767 Si / 1000 Ang^3
#
#
#
# Elastic Constant Matrix: (Units=GPa)
#
#
# Indices 1 2 3 4 5 6 
#
# 1 81.0336 40.9664 46.4607 0.0000 0.0000 0.0000
# 2 40.9664 81.0336 46.4607 0.0000 0.0000 0.0000
# 3 46.4607 46.4607 94.4010 0.0000 0.0000 0.0000
# 4 0.0000 0.0000 0.0000 17.0301 0.0000 0.0000
# 5 0.0000 0.0000 0.0000 0.0000 17.0301 0.0000
# 6 0.0000 0.0000 0.0000 0.0000 0.0000 20.0336
#
#
#
# Elastic Compliance Matrix: (Units=1/GPa)
#
#
# Indices 1 2 3 4 5 6 
#
# 1 0.019035 -0.005923 -0.006453 0.000000 0.000000 0.000000
# 2 -0.005923 0.019035 -0.006453 0.000000 0.000000 0.000000
# 3 -0.006453 -0.006453 0.016945 0.000000 0.000000 0.000000
# 4 0.000000 0.000000 0.000000 0.058720 0.000000 0.000000
# 5 0.000000 0.000000 0.000000 0.000000 0.058720 0.000000
# 6 0.000000 0.000000 0.000000 0.000000 0.000000 0.049916
#
#
# Mechanical properties :
#
#
# Convention : Reuss Voigt Hill
#
# Bulk Modulus (GPa) = 57.61662 58.24929 57.93295
# Shear Modulus (GPa) = 18.81013 18.99079 18.90046
#
# Velocity S-wave (km/s) = 3.21818 3.23360 3.22590
# Velocity P-wave (km/s) = 6.74774 6.78329 6.76554
#
# Compressibility (1/GPa) = 0.01735610
#
# Stress axis : x y z
#
# Youngs Moduli (GPa) = 52.53506 52.53506 59.01421
#
# Poissons Ratio (x) = 0.31117 0.38083
# Poissons Ratio (y) = 0.31117 0.38083
# Poissons Ratio (z) = 0.33901 0.33901
#
# Static dielectric constant tensor:
#      x y z
#    x 3.530210 0.000000 0.000000 
#    y 0.000000 3.530210 0.000000 
#    z 0.000000 0.000000 3.539530 
# 
# 
# High freq. dielectric constant tensor:
#      x y z
#    x 1.687720 0.000000 0.000000 
#    y 0.000000 1.687720 0.000000 
#    z 0.000000 0.000000 1.703850 
# 
# From -- ./inp_files/6073.got.cif
#   From: 2010.03.12/outbox.cif.g09.slc.cpg/sg179_4_cif.got.tgz:6073.got - 2010.04.02 07:08:42.
