data_PCOD8326850
_publ_section_title
;
Structure prediction by ZEFSAII (Michael W. Deem and Ramdas Pophale) SiO2 
 PCOD8326850
Probable space group: P -6 M 2
;
_chemical_formula_sum "Si O2"
_cell_formula_units_Z 96
_cell_length_a 16.306228
_cell_length_b 16.306228
_cell_length_c 27.334517
_cell_angle_alpha 90.000000
_cell_angle_beta 90.000000
_cell_angle_gamma 120.000000
_cell_volume 6294.323458
_symmetry_space_group_name_H-M "P -6 M 2"
_symmetry_group_IT_number 187
_symmetry_cell_setting 'hexagonal'
loop_
_space_group_symop_operation_xyz
x,y,z
-x+y,-x,-z
-y,x-y,z
x,y,-z
-x+y,-x,z
-y,x-y,-z
-y,-x,-z
-x+y,y,-z
x,x-y,-z
-x+y,y,z
x,x-y,z
-y,-x,z
loop_
_atom_site_type_symbol
_atom_site_label
_atom_site_fract_x
_atom_site_fract_y
_atom_site_fract_z
Si Si1 0.997687 0.809409 0.610323
Si Si2 0.002569 0.191465 0.203183
Si Si3 0.857057 0.333898 0.757318
Si Si4 0.629209 0.718113 0.446442
Si Si5 0.368895 0.281023 0.852294
Si Si6 0.143033 0.665734 0.351721
Si Si7 0.474865 0.140931 0.054426
Si Si8 0.999736 0.704018 0.703105
O O1 0.913647 0.827293 0.593805
O O2 0.968635 0.747441 0.659315
O O3 0.014493 0.752283 0.567192
O O4 0.091313 0.908688 0.621035
O O5 0.085159 0.170318 0.188323
O O6 0.990537 0.250620 0.158811
O O7 0.030415 0.254497 0.251720
O O8 0.906318 0.093683 0.212815
O O9 0.861059 0.430530 0.742515
O O10 0.748486 0.251515 0.760170
O O11 0.910502 0.348067 0.809275
O O12 0.910442 0.308110 0.715972
O O13 0.606515 0.667993 0.500000
O O14 0.615422 0.807711 0.448884
O O15 0.558513 0.649535 0.404539
O O16 0.378614 0.189307 0.852185
O O17 0.400195 0.330851 0.905452
O O18 0.139268 0.569634 0.335766
O O19 0.251420 0.748580 0.354640
O O20 0.089426 0.693148 0.311357
O O21 0.574907 0.149813 0.064756
O O22 0.490442 0.245221 0.060019
O O23 0.436840 0.100194 0.000000
#
# Coordination Sequence:
#
# PCOD8326850 Si02
#       8
#    12  12  12  12  12  12  12  12
#     4  10  18  28  43  62  84 109 139 173 209 253
#     4  10  18  29  45  63  83 108 144 185 220 256
#     4  10  18  28  42  60  84 113 146 177 205 243
#     4   8  16  30  44  59  82 108 130 159 202 245
#     4   8  16  27  38  56  82 110 137 169 211 254
#     4  10  19  31  47  65  84 107 138 173 209 251
#     4   9  15  23  37  58  84 113 144 175 207 248
#     4  10  19  31  43  60  86 115 139 170 217 262
#
# _framework density 15.251837999999999
#
# number of rings (size 3 to 8) (size 9 to 14) (size 15 to 20)
#    0.000    2.625    0.000    5.125    0.000    1.000 
#    0.000    2.500    0.000    1.875    0.000    0.000 
#    0.000    1.000    0.000    0.375    0.000   47.250 
#
# Total GULP energy -1189974.957276 kJ/mol
# GULP energy per Si atom -12395.572472 kJ/mol
# Density = 1.521712 g / cm^3
# Si number density = 15.251838 Si / 1000 Ang^3
#
#
#
# Elastic Constant Matrix: (Units=GPa)
#
#
# Indices 1 2 3 4 5 6 
#
# 1 73.9781 27.0075 28.2052 0.0000 -0.0001 0.0000
# 2 27.0075 73.9781 28.2052 0.0000 0.0001 0.0000
# 3 28.2052 28.2052 83.9633 0.0000 0.0000 0.0000
# 4 0.0000 0.0000 0.0000 15.0067 0.0000 0.0001
# 5 -0.0001 0.0001 0.0000 0.0000 15.0067 0.0000
# 6 0.0000 0.0000 0.0000 0.0001 0.0000 23.4853
#
#
#
# Elastic Compliance Matrix: (Units=1/GPa)
#
#
# Indices 1 2 3 4 5 6 
#
# 1 0.016740 -0.004550 -0.004095 0.000000 0.000000 0.000000
# 2 -0.004550 0.016740 -0.004095 0.000000 0.000000 0.000000
# 3 -0.004095 -0.004095 0.014661 0.000000 0.000000 0.000000
# 4 0.000000 0.000000 0.000000 0.066637 0.000000 0.000000
# 5 0.000000 0.000000 0.000000 0.000000 0.066637 0.000000
# 6 0.000000 0.000000 0.000000 0.000000 0.000000 0.042580
#
#
# Mechanical properties :
#
#
# Convention : Reuss Voigt Hill
#
# Bulk Modulus (GPa) = 44.12813 44.30617 44.21715
# Shear Modulus (GPa) = 19.45312 20.59981 20.02647
#
# Velocity S-wave (km/s) = 3.57523 3.67910 3.62754
# Velocity P-wave (km/s) = 6.78519 6.86735 6.82640
#
# Compressibility (1/GPa) = 0.02266128
#
# Stress axis : x y z
#
# Youngs Moduli (GPa) = 59.73767 59.73767 68.20785
#
# Poissons Ratio (x) = 0.27181 0.27930
# Poissons Ratio (y) = 0.27181 0.27930
# Poissons Ratio (z) = 0.24462 0.24462
#
# Static dielectric constant tensor:
#      x y z
#    x 2.823540 0.000000 0.000000 
#    y 0.000000 2.823540 0.000000 
#    z 0.000000 0.000000 3.193390 
# 
# 
# High freq. dielectric constant tensor:
#      x y z
#    x 1.570290 0.000000 0.000000 
#    y 0.000000 1.570290 0.000000 
#    z 0.000000 0.000000 1.579120 
# 
# From -- ./inp_files/4342.got.cif
#   From: 2010.03.12/outbox.cif.g09.slc.cpg/sg187_3_cif.got.tgz:4342.got - 2010.04.01 11:58:23.
