data_PCOD8326524
_publ_section_title
;
Structure prediction by ZEFSAII (Michael W. Deem and Ramdas Pophale) SiO2 
 PCOD8326524
Probable space group: P 6 M M
;
_chemical_formula_sum "Si O2"
_cell_formula_units_Z 96
_cell_length_a 22.761430
_cell_length_b 22.761430
_cell_length_c 12.334308
_cell_angle_alpha 90.000000
_cell_angle_beta 90.000000
_cell_angle_gamma 120.000000
_cell_volume 5534.068207
_symmetry_space_group_name_H-M "P 6 M M"
_symmetry_group_IT_number 183
_symmetry_cell_setting 'hexagonal'
loop_
_space_group_symop_operation_xyz
x,y,z
x-y,x,z
-y,x-y,z
-x,-y,z
-x+y,-x,z
y,-x+y,z
-x+y,y,z
x,x-y,z
-y,-x,z
y,x,z
x-y,-y,z
-x,-x+y,z
loop_
_atom_site_type_symbol
_atom_site_label
_atom_site_fract_x
_atom_site_fract_y
_atom_site_fract_z
Si Si1 0.533202 0.699443 0.004150
Si Si2 0.715779 0.922683 0.840346
Si Si3 0.713283 0.562377 0.769632
Si Si4 0.326072 0.250794 0.076307
Si Si5 0.470501 0.390384 0.578463
Si Si6 0.283635 0.078439 0.302715
Si Si7 0.145832 0.718621 0.391757
Si Si8 0.665581 0.463951 0.215916
O O1 0.558400 0.779200 0.007626
O O2 0.596188 0.695892 0.051922
O O3 0.470925 0.657707 0.085892
O O4 0.518881 0.676250 0.878769
O O5 0.741122 0.870561 0.801190
O O6 0.642162 0.899580 0.790145
O O7 0.768394 0.000000 0.802756
O O8 0.711237 0.917763 0.970483
O O9 0.774846 0.549691 0.733843
O O10 0.653888 0.535823 0.683089
O O11 0.299334 0.299334 0.113375
O O12 0.310863 0.204213 0.181580
O O13 0.546398 0.453603 0.571719
O O14 0.416283 0.416283 0.583055
O O15 0.457401 0.342155 0.476671
O O16 0.254596 0.127298 0.343663
O O17 0.347970 0.091900 0.375934
O O18 0.224947 0.000000 0.312407
O O19 0.218548 0.781453 0.430718
O O20 0.154537 0.688489 0.278284
O O21 0.719855 0.439710 0.235562
O O22 0.593723 0.406278 0.261395
#
# Coordination Sequence:
#
# PCOD8326524 Si02
#       8
#    12  12  12  12  12  12  12  12
#     4   9  16  29  48  70  96 124 158 199 244 292
#     4   9  16  26  44  70  98 127 161 203 246 288
#     4   9  18  33  54  74  94 124 165 208 246 286
#     4   9  15  24  42  67  96 125 157 197 241 286
#     4  11  23  37  52  70  98 132 163 198 244 302
#     4  10  18  29  48  73 100 128 161 201 242 286
#     4  10  20  35  55  73  94 126 166 209 247 286
#     4  10  19  31  49  72  98 126 158 199 248 300
#
# _framework density 17.347093999999998
#
# number of rings (size 3 to 8) (size 9 to 14) (size 15 to 20)
#    0.000    2.375    1.250    3.500    0.000    1.000 
#    0.000    0.000    0.000    4.125    0.000    0.000 
#    0.000    3.000    0.000    0.000    0.000   26.000 
#
# Total GULP energy -1189376.983413 kJ/mol
# GULP energy per Si atom -12389.343577 kJ/mol
# Density = 1.730761 g / cm^3
# Si number density = 17.347094 Si / 1000 Ang^3
#
#
#
# Elastic Constant Matrix: (Units=GPa)
#
#
# Indices 1 2 3 4 5 6 
#
# 1 88.5143 49.5116 37.4514 0.0000 0.0000 0.0000
# 2 49.5116 88.5143 37.4514 0.0000 0.0000 0.0000
# 3 37.4514 37.4514 86.3269 0.0000 0.0000 0.0000
# 4 0.0000 0.0000 0.0000 20.1911 0.0000 0.0000
# 5 0.0000 0.0000 0.0000 0.0000 20.1911 0.0000
# 6 0.0000 0.0000 0.0000 0.0000 0.0000 19.5013
#
#
#
# Elastic Compliance Matrix: (Units=1/GPa)
#
#
# Indices 1 2 3 4 5 6 
#
# 1 0.017558 -0.008082 -0.004111 0.000000 0.000000 0.000000
# 2 -0.008082 0.017558 -0.004111 0.000000 0.000000 0.000000
# 3 -0.004111 -0.004111 0.015151 0.000000 0.000000 0.000000
# 4 0.000000 0.000000 0.000000 0.049527 0.000000 0.000000
# 5 0.000000 0.000000 0.000000 0.000000 0.049527 0.000000
# 6 0.000000 0.000000 0.000000 0.000000 0.000000 0.051279
#
#
# Mechanical properties :
#
#
# Convention : Reuss Voigt Hill
#
# Bulk Modulus (GPa) = 56.62895 56.90935 56.76915
# Shear Modulus (GPa) = 20.91249 21.23945 21.07597
#
# Velocity S-wave (km/s) = 3.47585 3.50291 3.48940
# Velocity P-wave (km/s) = 6.98743 7.01698 7.00222
#
# Compressibility (1/GPa) = 0.01765881
#
# Stress axis : x y z
#
# Youngs Moduli (GPa) = 56.95543 56.95543 66.00311
#
# Poissons Ratio (x) = 0.46030 0.27134
# Poissons Ratio (y) = 0.46030 0.27134
# Poissons Ratio (z) = 0.23414 0.23414
#
# Static dielectric constant tensor:
#      x y z
#    x 3.117300 0.000000 0.000000 
#    y 0.000000 3.117300 0.000000 
#    z 0.000000 0.000000 3.199690 
# 
# 
# High freq. dielectric constant tensor:
#      x y z
#    x 1.657240 0.000000 0.000000 
#    y 0.000000 1.657240 0.000000 
#    z 0.000000 0.000000 1.663480 
# 
# From -- ./inp_files/2072.got.cif
#   From: 2010.03.12/outbox.cif.g09.slc.cpg/sg183_2_cif.got.tgz:2072.got - 2010.04.01 11:53:02.
