data_PCOD8326169
_publ_section_title
;
Structure prediction by ZEFSAII (Michael W. Deem and Ramdas Pophale) SiO2 
 PCOD8326169
Probable space group: P 62 2 2
;
_chemical_formula_sum "Si O2"
_cell_formula_units_Z 36
_cell_length_a 9.092552
_cell_length_b 9.092552
_cell_length_c 21.811196
_cell_angle_alpha 90.000000
_cell_angle_beta 90.000000
_cell_angle_gamma 120.000000
_cell_volume 1561.642785
_symmetry_space_group_name_H-M "P 62 2 2"
_symmetry_group_IT_number 180
_symmetry_cell_setting 'hexagonal'
loop_
_space_group_symop_operation_xyz
x,y,z
x-y,x,1/3+z
-y,x-y,2/3+z
-x,-y,z
-x+y,-x,1/3+z
y,-x+y,2/3+z
x-y,-y,-z
-x,-x+y,1/3-z
y,x,2/3-z
-y,-x,2/3-z
-x+y,y,-z
x,x-y,1/3-z
loop_
_atom_site_type_symbol
_atom_site_label
_atom_site_fract_x
_atom_site_fract_y
_atom_site_fract_z
Si Si1 0.000000 0.500000 0.063759
Si Si2 0.000000 0.000000 0.666667
Si Si3 0.366522 0.633479 0.833334
Si Si4 0.500000 0.500000 0.142966
Si Si5 0.500000 0.000000 0.000000
Si Si6 0.227335 0.356699 0.626454
O O1 0.158110 0.535527 0.106812
O O2 0.054108 0.663010 0.021598
O O3 0.106553 0.156216 0.621370
O O4 0.462186 0.835315 0.849887
O O5 0.404562 0.334852 0.101205
O O6 0.544481 0.879029 0.040901
#
# Coordination Sequence:
#
# PCOD8326169 Si02
#       6
#     6   3   6   6   3  12
#     4  10  22  41  62  85 124 166 206 254 318 378
#     4  10  20  32  60  92 112 140 200 260 304 348
#     4  11  24  40  60  89 122 164 208 263 320 372
#     4  11  24  40  60  86 124 165 208 254 314 378
#     4  10  20  34  68 100 120 154 220 272 308 364
#     4  10  21  40  63  90 121 162 208 256 309 385
#
# _framework density 23.052648000000001
#
# number of rings (size 3 to 8) (size 9 to 14) (size 15 to 20)
#    0.000    1.667    0.000    4.000    0.000   13.333 
#    0.000    0.000    0.000    2.000    0.000    0.000 
#    0.000    0.000    0.000    0.000    0.000    0.000 
#
# Total GULP energy -446337.713561 kJ/mol
# GULP energy per Si atom -12398.269821 kJ/mol
# Density = 2.300018 g / cm^3
# Si number density = 23.052648 Si / 1000 Ang^3
#
#
#
# Elastic Constant Matrix: (Units=GPa)
#
#
# Indices 1 2 3 4 5 6 
#
# 1 132.3983 98.5714 27.0335 0.0000 0.0000 0.0000
# 2 98.5714 132.3983 27.0335 0.0000 0.0000 0.0000
# 3 27.0335 27.0335 69.6411 0.0000 0.0000 0.0000
# 4 0.0000 0.0000 0.0000 10.5150 0.0000 0.0000
# 5 0.0000 0.0000 0.0000 0.0000 10.5150 0.0000
# 6 0.0000 0.0000 0.0000 0.0000 0.0000 16.9135
#
#
#
# Elastic Compliance Matrix: (Units=1/GPa)
#
#
# Indices 1 2 3 4 5 6 
#
# 1 0.017162 -0.012400 -0.001849 0.000000 0.000000 0.000000
# 2 -0.012400 0.017162 -0.001849 0.000000 0.000000 0.000000
# 3 -0.001849 -0.001849 0.015795 0.000000 0.000000 0.000000
# 4 0.000000 0.000000 0.000000 0.095102 0.000000 0.000000
# 5 0.000000 0.000000 0.000000 0.000000 0.095102 0.000000
# 6 0.000000 0.000000 0.000000 0.000000 0.000000 0.059124
#
#
# Mechanical properties :
#
#
# Convention : Reuss Voigt Hill
#
# Bulk Modulus (GPa) = 55.78928 71.07941 63.43434
# Shear Modulus (GPa) = 14.80968 19.70866 17.25917
#
# Velocity S-wave (km/s) = 2.53737 2.92711 2.73918
# Velocity P-wave (km/s) = 5.73042 6.50572 6.13034
#
# Compressibility (1/GPa) = 0.01792459
#
# Stress axis : x y z
#
# Youngs Moduli (GPa) = 58.26732 58.26732 63.31289
#
# Poissons Ratio (x) = 0.72251 0.11704
# Poissons Ratio (y) = 0.72251 0.11704
# Poissons Ratio (z) = 0.10772 0.10772
#
# Static dielectric constant tensor:
#      x y z
#    x 4.501550 0.000000 0.000000 
#    y 0.000000 4.501550 0.000000 
#    z 0.000000 0.000000 4.085630 
# 
# 
# High freq. dielectric constant tensor:
#      x y z
#    x 1.925980 0.000000 0.000000 
#    y 0.000000 1.925980 0.000000 
#    z 0.000000 0.000000 1.892650 
# 
# From -- ./inp_files/10943.got.cif
#   From: 2010.03.12/outbox.cif.g09.slc.cpg/sg180_6_cif.got.tgz:10943.got - 2010.04.01 11:35:50.
