data_PCOD8326908
_publ_section_title
;
Structure prediction by ZEFSAII (Michael W. Deem and Ramdas Pophale) SiO2 
 PCOD8326908
Probable space group: P -6 M 2
;
_chemical_formula_sum "Si O2"
_cell_formula_units_Z 90
_cell_length_a 18.447647
_cell_length_b 18.447647
_cell_length_c 17.272701
_cell_angle_alpha 90.000000
_cell_angle_beta 90.000000
_cell_angle_gamma 120.000000
_cell_volume 5090.645399
_symmetry_space_group_name_H-M "P -6 M 2"
_symmetry_group_IT_number 187
_symmetry_cell_setting 'hexagonal'
loop_
_space_group_symop_operation_xyz
x,y,z
-x+y,-x,-z
-y,x-y,z
x,y,-z
-x+y,-x,z
-y,x-y,-z
-y,-x,-z
-x+y,y,-z
x,x-y,-z
-x+y,y,z
x,x-y,z
-y,-x,z
loop_
_atom_site_type_symbol
_atom_site_label
_atom_site_fract_x
_atom_site_fract_y
_atom_site_fract_z
Si Si1 0.999746 0.832353 0.171730
Si Si2 0.000632 0.161713 0.351060
Si Si3 0.746580 0.665271 0.087626
Si Si4 0.298088 0.323459 0.589335
Si Si5 0.434288 0.302431 0.655680
Si Si6 0.495350 0.828378 0.408209
Si Si7 0.664905 0.500871 0.177952
Si Si8 0.664138 0.489637 0.500000
O O1 0.087658 0.912343 0.146795
O O2 0.996391 0.812226 0.262057
O O3 0.925359 0.850718 0.149046
O O4 0.989567 0.750380 0.127516
O O5 0.061505 0.123010 0.358465
O O6 0.041940 0.246070 0.402926
O O7 0.908448 0.091553 0.380735
O O8 0.832499 0.664997 0.091235
O O9 0.677014 0.582026 0.131581
O O10 0.715973 0.662120 0.000000
O O11 0.328036 0.329119 0.500000
O O12 0.345573 0.297443 0.652237
O O13 0.309769 0.411748 0.617671
O O14 0.418623 0.209312 0.652006
O O15 0.486414 0.347703 0.731745
O O16 0.480105 0.357872 0.579352
O O17 0.491354 0.825080 0.500000
O O18 0.423690 0.847379 0.375828
O O19 0.477640 0.738820 0.375748
O O20 0.742978 0.485956 0.165490
O O21 0.581275 0.418726 0.148384
O O22 0.610868 0.389133 0.500000
O O23 0.761683 0.523365 0.500000
#
# Coordination Sequence:
#
# PCOD8326908 Si02
#       8
#    12  12  12  12  12  12  12   6
#     4   9  17  31  51  75 102 134 169 202 239 290
#     4  10  20  33  50  70  96 130 169 210 249 291
#     4   9  18  32  49  72 102 131 160 199 247 295
#     4  11  21  33  48  69  93 126 164 209 253 311
#     4  10  20  33  47  67  94 126 163 205 255 304
#     4   9  18  32  49  67  87 112 146 192 249 308
#     4  10  20  34  52  72  96 130 172 215 257 304
#     4  10  19  30  44  62  87 118 154 198 248 300
#
# _framework density 17.679487000000002
#
# number of rings (size 3 to 8) (size 9 to 14) (size 15 to 20)
#    0.000    2.267    0.667    2.600    0.000    6.933 
#    0.000    1.333    0.000    2.400    0.000    0.000 
#    0.000    0.000    0.000    0.400    0.000    1.733 
#
# Total GULP energy -1115426.687151 kJ/mol
# GULP energy per Si atom -12393.629857 kJ/mol
# Density = 1.763925 g / cm^3
# Si number density = 17.679487 Si / 1000 Ang^3
#
#
#
# Elastic Constant Matrix: (Units=GPa)
#
#
# Indices 1 2 3 4 5 6 
#
# 1 111.9188 50.1619 34.8448 0.0000 -0.0001 0.0000
# 2 50.1619 111.9188 34.8448 0.0000 0.0001 0.0000
# 3 34.8448 34.8448 56.9828 0.0000 0.0000 0.0000
# 4 0.0000 0.0000 0.0000 14.4344 0.0000 0.0001
# 5 -0.0001 0.0001 0.0000 0.0000 14.4344 0.0000
# 6 0.0000 0.0000 0.0000 0.0001 0.0000 30.8784
#
#
#
# Elastic Compliance Matrix: (Units=1/GPa)
#
#
# Indices 1 2 3 4 5 6 
#
# 1 0.012282 -0.003911 -0.005119 0.000000 0.000000 0.000000
# 2 -0.003911 0.012282 -0.005119 0.000000 0.000000 0.000000
# 3 -0.005119 -0.005119 0.023809 0.000000 0.000000 0.000000
# 4 0.000000 0.000000 0.000000 0.069279 0.000000 0.000000
# 5 0.000000 0.000000 0.000000 0.000000 0.069279 0.000000
# 6 0.000000 0.000000 0.000000 0.000000 0.000000 0.032385
#
#
# Mechanical properties :
#
#
# Convention : Reuss Voigt Hill
#
# Bulk Modulus (GPa) = 49.81079 57.83597 53.82338
# Shear Modulus (GPa) = 19.66150 22.68068 21.17109
#
# Velocity S-wave (km/s) = 3.33845 3.58562 3.46424
# Velocity P-wave (km/s) = 6.56474 7.06589 6.81992
#
# Compressibility (1/GPa) = 0.02007597
#
# Stress axis : x y z
#
# Youngs Moduli (GPa) = 81.42283 81.42283 42.00060
#
# Poissons Ratio (x) = 0.31844 0.21498
# Poissons Ratio (y) = 0.31844 0.21498
# Poissons Ratio (z) = 0.41677 0.41677
#
# Static dielectric constant tensor:
#      x y z
#    x 3.230930 0.000000 0.000000 
#    y 0.000000 3.230930 0.000000 
#    z 0.000000 0.000000 3.163680 
# 
# 
# High freq. dielectric constant tensor:
#      x y z
#    x 1.675740 0.000000 0.000000 
#    y 0.000000 1.675740 0.000000 
#    z 0.000000 0.000000 1.654500 
# 
# From -- ./inp_files/3250.got.cif
#   From: 2010.03.12/outbox.cif.g09.slc.cpg/sg187_2_cif.got.tgz:3250.got - 2010.04.01 11:58:23.
