data_PCOD8326708
_publ_section_title
;
Structure prediction by ZEFSAII (Michael W. Deem and Ramdas Pophale) SiO2 
 PCOD8326708
Probable space group: P 63 M C
;
_chemical_formula_sum "Si O2"
_cell_formula_units_Z 84
_cell_length_a 23.667244
_cell_length_b 23.667244
_cell_length_c 10.001182
_cell_angle_alpha 90.000000
_cell_angle_beta 90.000000
_cell_angle_gamma 120.000000
_cell_volume 4851.514555
_symmetry_space_group_name_H-M "P 63 M C"
_symmetry_group_IT_number 186
_symmetry_cell_setting 'hexagonal'
loop_
_space_group_symop_operation_xyz
x,y,z
x-y,x,1/2+z
-y,x-y,z
-x,-y,1/2+z
-x+y,-x,z
y,-x+y,1/2+z
-x+y,y,z
x,x-y,z
-y,-x,z
y,x,1/2+z
x-y,-y,1/2+z
-x,-x+y,1/2+z
loop_
_atom_site_type_symbol
_atom_site_label
_atom_site_fract_x
_atom_site_fract_y
_atom_site_fract_z
Si Si1 0.614572 0.030960 0.023710
Si Si2 0.064727 0.470760 0.801502
Si Si3 0.742783 0.128937 0.897588
Si Si4 0.645693 0.723699 0.119485
Si Si5 0.821721 0.055968 0.944734
Si Si6 0.750501 0.776632 0.721452
Si Si7 0.614212 0.743803 0.838100
O O1 0.578773 0.043457 0.146476
O O2 0.633818 0.979746 0.077399
O O3 0.677081 0.101194 0.984973
O O4 0.569533 0.999482 0.893658
O O5 0.095478 0.547739 0.837782
O O6 0.117289 0.446779 0.821677
O O7 0.795368 0.204633 0.931620
O O8 0.722977 0.122734 0.740653
O O9 0.771300 0.082158 0.932219
O O10 0.719502 0.763291 0.170639
O O11 0.635312 0.758588 0.992498
O O12 0.892709 0.107292 0.887491
O O13 0.792353 0.988760 0.859102
O O14 0.829818 0.048854 0.103678
O O15 0.674513 0.752311 0.748257
O O16 0.594283 0.797142 0.791381
#
# Coordination Sequence:
#
# PCOD8326708 Si02
#       7
#    12  12  12  12  12  12  12
#     4  11  18  34  51  71 101 137 177 214 261 317
#     4  11  22  35  53  74 102 137 177 221 266 317
#     4  10  18  28  47  72  99 135 176 219 262 312
#     4  10  16  31  47  68 105 140 173 215 256 310
#     4  10  19  29  44  66  97 138 174 207 251 305
#     4  11  17  33  47  69 103 135 179 211 252 311
#     4  11  21  32  53  78 105 142 182 219 265 320
#
# _framework density 17.314181000000001
#
# number of rings (size 3 to 8) (size 9 to 14) (size 15 to 20)
#    0.000    1.429    5.714    3.000    0.000    2.286 
#    0.000    0.000    0.000    0.286    0.000    0.000 
#    0.000    0.000    0.000   16.571    0.000    4.143 
#
# Total GULP energy -1040745.822384 kJ/mol
# GULP energy per Si atom -12389.831219 kJ/mol
# Density = 1.727477 g / cm^3
# Si number density = 17.314181 Si / 1000 Ang^3
#
#
#
# Elastic Constant Matrix: (Units=GPa)
#
#
# Indices 1 2 3 4 5 6 
#
# 1 73.8833 46.3586 29.1617 0.0000 0.0000 0.0000
# 2 46.3586 73.8833 29.1617 0.0000 0.0000 0.0000
# 3 29.1617 29.1617 115.5237 0.0000 0.0000 0.0000
# 4 0.0000 0.0000 0.0000 12.2471 0.0000 0.0000
# 5 0.0000 0.0000 0.0000 0.0000 12.2471 0.0000
# 6 0.0000 0.0000 0.0000 0.0000 0.0000 13.7624
#
#
#
# Elastic Compliance Matrix: (Units=1/GPa)
#
#
# Indices 1 2 3 4 5 6 
#
# 1 0.022904 -0.013427 -0.002392 0.000000 0.000000 0.000000
# 2 -0.013427 0.022904 -0.002392 0.000000 0.000000 0.000000
# 3 -0.002392 -0.002392 0.009864 0.000000 0.000000 0.000000
# 4 0.000000 0.000000 0.000000 0.081652 0.000000 0.000000
# 5 0.000000 0.000000 0.000000 0.000000 0.081652 0.000000
# 6 0.000000 0.000000 0.000000 0.000000 0.000000 0.072662
#
#
# Mechanical properties :
#
#
# Convention : Reuss Voigt Hill
#
# Bulk Modulus (GPa) = 51.95128 52.51714 52.23421
# Shear Modulus (GPa) = 14.94869 18.22519 16.58694
#
# Velocity S-wave (km/s) = 2.94152 3.24792 3.09851
# Velocity P-wave (km/s) = 6.45034 6.66806 6.56011
#
# Compressibility (1/GPa) = 0.01924880
#
# Stress axis : x y z
#
# Youngs Moduli (GPa) = 43.66057 43.66057 101.37877
#
# Poissons Ratio (x) = 0.58623 0.24253
# Poissons Ratio (y) = 0.58623 0.24253
# Poissons Ratio (z) = 0.10445 0.10445
#
# Static dielectric constant tensor:
#      x y z
#    x 2.964140 0.000000 0.000000 
#    y 0.000000 2.964140 0.000000 
#    z 0.000000 0.000000 3.866910 
# 
# 
# High freq. dielectric constant tensor:
#      x y z
#    x 1.622960 0.000000 0.000000 
#    y 0.000000 1.622960 0.000000 
#    z 0.000000 0.000000 1.702520 
# 
# From -- ./inp_files/2020.got.cif
#   From: 2010.03.12/outbox.cif.g09.slc.cpg/sg186_2_cif.got.tgz:2020.got - 2010.04.01 11:56:34.
