data_PCOD8326530
_publ_section_title
;
Structure prediction by ZEFSAII (Michael W. Deem and Ramdas Pophale) SiO2 
 PCOD8326530
Probable space group: P 6 M M
;
_chemical_formula_sum "Si O2"
_cell_formula_units_Z 84
_cell_length_a 18.065144
_cell_length_b 18.065144
_cell_length_c 18.002250
_cell_angle_alpha 90.000000
_cell_angle_beta 90.000000
_cell_angle_gamma 120.000000
_cell_volume 5087.920019
_symmetry_space_group_name_H-M "P 6 M M"
_symmetry_group_IT_number 183
_symmetry_cell_setting 'hexagonal'
loop_
_space_group_symop_operation_xyz
x,y,z
x-y,x,z
-y,x-y,z
-x,-y,z
-x+y,-x,z
y,-x+y,z
-x+y,y,z
x,x-y,z
-y,-x,z
y,x,z
x-y,-y,z
-x,-x+y,z
loop_
_atom_site_type_symbol
_atom_site_label
_atom_site_fract_x
_atom_site_fract_y
_atom_site_fract_z
Si Si1 0.166042 0.669167 0.403990
Si Si2 0.367176 0.468437 0.150465
Si Si3 0.540501 0.905846 0.558372
Si Si4 0.367508 0.468621 0.985575
Si Si5 0.097978 0.736019 0.281620
Si Si6 0.367219 0.898697 0.719150
Si Si7 0.637343 0.899599 0.853406
O O1 0.146398 0.573199 0.391510
O O2 0.263980 0.736021 0.382890
O O3 0.152460 0.687863 0.489238
O O4 0.102244 0.684026 0.352425
O O5 0.431246 0.568755 0.169511
O O6 0.421344 0.421344 0.152791
O O7 0.291953 0.424437 0.210245
O O8 0.327711 0.460182 0.067930
O O9 0.457201 0.914403 0.560484
O O10 0.544760 0.865885 0.638345
O O11 0.622874 0.000000 0.547092
O O12 0.431085 0.568916 0.966192
O O13 0.423198 0.423198 0.983934
O O14 0.293183 0.423333 0.925509
O O15 0.161689 0.838312 0.291388
O O16 0.000000 0.715016 0.272674
O O17 0.430616 0.861231 0.737093
O O18 0.297083 0.872312 0.782612
O O19 0.424195 0.000000 0.714799
O O20 0.682778 0.841389 0.851901
O O21 0.709099 0.000000 0.853917
#
# Coordination Sequence:
#
# PCOD8326530 Si02
#       7
#    12  12  12  12  12  12  12
#     4  10  19  29  42  62  90 122 152 180 210 247
#     4   8  14  26  45  68  91 113 138 167 200 244
#     4   8  14  25  41  60  82 110 144 178 210 249
#     4   8  14  26  45  67  88 110 137 169 206 250
#     4  10  20  32  47  67  89 114 146 186 228 266
#     4   8  14  26  44  64  84 107 138 176 217 260
#     4  10  19  29  43  63  86 113 147 188 229 267
#
# _framework density 16.509692999999999
#
# number of rings (size 3 to 8) (size 9 to 14) (size 15 to 20)
#    0.000    3.143    0.000    3.143    0.000    4.286 
#    0.000    0.000    0.000    2.857    0.000    0.000 
#    0.000    0.000    0.000    7.143    0.000   18.571 
#
# Total GULP energy -1040684.518602 kJ/mol
# GULP energy per Si atom -12389.101412 kJ/mol
# Density = 1.647212 g / cm^3
# Si number density = 16.509693 Si / 1000 Ang^3
#
#
#
# Elastic Constant Matrix: (Units=GPa)
#
#
# Indices 1 2 3 4 5 6 
#
# 1 64.8188 34.5731 31.5764 0.0000 0.0000 0.0000
# 2 34.5731 64.8188 31.5764 0.0000 0.0000 0.0000
# 3 31.5764 31.5764 111.0211 0.0000 0.0000 0.0000
# 4 0.0000 0.0000 0.0000 9.3681 0.0000 0.0000
# 5 0.0000 0.0000 0.0000 0.0000 9.3681 0.0000
# 6 0.0000 0.0000 0.0000 0.0000 0.0000 15.1228
#
#
#
# Elastic Compliance Matrix: (Units=1/GPa)
#
#
# Indices 1 2 3 4 5 6 
#
# 1 0.022672 -0.010391 -0.003493 0.000000 0.000000 0.000000
# 2 -0.010391 0.022672 -0.003493 0.000000 0.000000 0.000000
# 3 -0.003493 -0.003493 0.010994 0.000000 0.000000 0.000000
# 4 0.000000 0.000000 0.000000 0.106745 0.000000 0.000000
# 5 0.000000 0.000000 0.000000 0.000000 0.106745 0.000000
# 6 0.000000 0.000000 0.000000 0.000000 0.000000 0.066125
#
#
# Mechanical properties :
#
#
# Convention : Reuss Voigt Hill
#
# Bulk Modulus (GPa) = 46.33079 48.45671 47.39375
# Shear Modulus (GPa) = 13.23099 16.30066 14.76583
#
# Velocity S-wave (km/s) = 2.83399 3.14560 2.99385
# Velocity P-wave (km/s) = 6.23156 6.52742 6.38121
#
# Compressibility (1/GPa) = 0.02158392
#
# Stress axis : x y z
#
# Youngs Moduli (GPa) = 44.10821 44.10821 90.95769
#
# Poissons Ratio (x) = 0.45833 0.31770
# Poissons Ratio (y) = 0.45833 0.31770
# Poissons Ratio (z) = 0.15406 0.15406
#
# Static dielectric constant tensor:
#      x y z
#    x 2.772390 0.000000 0.000000 
#    y 0.000000 2.772390 0.000000 
#    z 0.000000 0.000000 3.696010 
# 
# 
# High freq. dielectric constant tensor:
#      x y z
#    x 1.596690 0.000000 0.000000 
#    y 0.000000 1.596690 0.000000 
#    z 0.000000 0.000000 1.659180 
# 
# From -- ./inp_files/2888.got.cif
#   From: 2010.03.12/outbox.cif.g09.slc.cpg/sg183_2_cif.got.tgz:2888.got - 2010.04.01 11:53:02.
