data_PCOD8326622
_publ_section_title
;
Structure prediction by ZEFSAII (Michael W. Deem and Ramdas Pophale) SiO2 
 PCOD8326622
Probable space group: P 63 C M
;
_chemical_formula_sum "Si O2"
_cell_formula_units_Z 48
_cell_length_a 19.189586
_cell_length_b 19.189586
_cell_length_c 9.777197
_cell_angle_alpha 90.000000
_cell_angle_beta 90.000000
_cell_angle_gamma 120.000000
_cell_volume 3118.000698
_symmetry_space_group_name_H-M "P 63 C M"
_symmetry_group_IT_number 185
_symmetry_cell_setting 'hexagonal'
loop_
_space_group_symop_operation_xyz
x,y,z
x-y,x,1/2+z
-y,x-y,z
-x,-y,1/2+z
-x+y,-x,z
y,-x+y,1/2+z
-x+y,y,1/2+z
x,x-y,1/2+z
-y,-x,1/2+z
y,x,z
x-y,-y,z
-x,-x+y,z
loop_
_atom_site_type_symbol
_atom_site_label
_atom_site_fract_x
_atom_site_fract_y
_atom_site_fract_z
Si Si1 0.213606 0.908267 0.682090
Si Si2 0.091733 0.786394 0.866497
Si Si3 0.540408 0.770204 0.274294
Si Si4 0.433164 0.738949 0.524294
O O1 0.132144 0.867856 0.774293
O O2 0.188389 0.902172 0.524293
O O3 0.260960 0.858912 0.708521
O O4 0.270951 0.000000 0.727723
O O5 0.141088 0.739040 0.840066
O O6 0.000000 0.729048 0.820864
O O7 0.485745 0.778344 0.389729
O O8 0.485745 0.707401 0.158858
O O9 0.358234 0.755644 0.524293
#
# Coordination Sequence:
#
# PCOD8326622 Si02
#       4
#    12  12  12  12
#     4   9  18  32  53  78 104 133 168 205 249 303
#     4   9  18  32  53  78 104 133 168 205 249 303
#     4  10  16  34  48  76  99 134 169 206 252 302
#     4  10  20  30  50  74  97 134 175 212 248 300
#
# _framework density 15.39448
#
# number of rings (size 3 to 8) (size 9 to 14) (size 15 to 20)
#    2.000    0.500    2.500    1.500    0.000    1.000 
#    0.000    0.000    0.000    9.500    0.000    0.000 
#    0.000    0.000    0.000    0.000    0.000    0.000 
#
# Total GULP energy -594631.145375 kJ/mol
# GULP energy per Si atom -12388.148862 kJ/mol
# Density = 1.535944 g / cm^3
# Si number density = 15.394480 Si / 1000 Ang^3
#
#
#
# Elastic Constant Matrix: (Units=GPa)
#
#
# Indices 1 2 3 4 5 6 
#
# 1 73.1987 30.6701 30.5405 0.0000 0.0000 0.0000
# 2 30.6701 73.1987 30.5405 0.0000 0.0000 0.0000
# 3 30.5405 30.5405 99.3524 0.0000 0.0000 0.0000
# 4 0.0000 0.0000 0.0000 23.8738 0.0000 0.0000
# 5 0.0000 0.0000 0.0000 0.0000 23.8738 0.0000
# 6 0.0000 0.0000 0.0000 0.0000 0.0000 21.2643
#
#
#
# Elastic Compliance Matrix: (Units=1/GPa)
#
#
# Indices 1 2 3 4 5 6 
#
# 1 0.017633 -0.005881 -0.003612 0.000000 0.000000 0.000000
# 2 -0.005881 0.017633 -0.003612 0.000000 0.000000 0.000000
# 3 -0.003612 -0.003612 0.012286 0.000000 0.000000 0.000000
# 4 0.000000 0.000000 0.000000 0.041887 0.000000 0.000000
# 5 0.000000 0.000000 0.000000 0.000000 0.041887 0.000000
# 6 0.000000 0.000000 0.000000 0.000000 0.000000 0.047027
#
#
# Mechanical properties :
#
#
# Convention : Reuss Voigt Hill
#
# Bulk Modulus (GPa) = 46.86045 47.69466 47.27756
# Shear Modulus (GPa) = 23.62084 24.06896 23.84490
#
# Velocity S-wave (km/s) = 3.92135 3.95838 3.93991
# Velocity P-wave (km/s) = 7.14203 7.20698 7.17458
#
# Compressibility (1/GPa) = 0.02133996
#
# Stress axis : x y z
#
# Youngs Moduli (GPa) = 56.71275 56.71275 81.39276
#
# Poissons Ratio (x) = 0.33352 0.29403
# Poissons Ratio (y) = 0.33352 0.29403
# Poissons Ratio (z) = 0.20487 0.20487
#
# Static dielectric constant tensor:
#      x y z
#    x 2.730490 0.000000 0.000000 
#    y 0.000000 2.730490 0.000000 
#    z 0.000000 0.000000 3.040960 
# 
# 
# High freq. dielectric constant tensor:
#      x y z
#    x 1.564580 0.000000 0.000000 
#    y 0.000000 1.564580 0.000000 
#    z 0.000000 0.000000 1.609520 
# 
# From -- ./inp_files/458.got.cif
#   From: 2010.03.12/outbox.cif.g09.slc.cpg/sg185_cif.got.tgz:458.got - 2010.04.01 11:55:19.
