data_PCOD8326513
_publ_section_title
;
Structure prediction by ZEFSAII (Michael W. Deem and Ramdas Pophale) SiO2 
 PCOD8326513
Probable space group: P 6 M M
;
_chemical_formula_sum "Si O2"
_cell_formula_units_Z 84
_cell_length_a 23.073819
_cell_length_b 23.073819
_cell_length_c 12.741823
_cell_angle_alpha 90.000000
_cell_angle_beta 90.000000
_cell_angle_gamma 120.000000
_cell_volume 5874.909253
_symmetry_space_group_name_H-M "P 6 M M"
_symmetry_group_IT_number 183
_symmetry_cell_setting 'hexagonal'
loop_
_space_group_symop_operation_xyz
x,y,z
x-y,x,z
-y,x-y,z
-x,-y,z
-x+y,-x,z
y,-x+y,z
-x+y,y,z
x,x-y,z
-y,-x,z
y,x,z
x-y,-y,z
-x,-x+y,z
loop_
_atom_site_type_symbol
_atom_site_label
_atom_site_fract_x
_atom_site_fract_y
_atom_site_fract_z
Si Si1 0.206687 0.283429 0.277170
Si Si2 0.920404 0.522878 0.397543
Si Si3 0.921328 0.641852 0.477181
Si Si4 0.280080 0.074902 0.904021
Si Si5 0.379996 0.256451 0.085976
Si Si6 0.474524 0.396135 0.157701
Si Si7 0.278880 0.203390 0.665691
O O1 0.126919 0.253838 0.259980
O O2 0.222665 0.222665 0.285387
O O3 0.226895 0.327967 0.382334
O O4 0.248490 0.330343 0.180546
O O5 0.893660 0.446830 0.439516
O O6 0.890072 0.561439 0.464605
O O7 0.897975 0.519979 0.277571
O O8 0.000000 0.562232 0.402497
O O9 0.899345 0.657451 0.588678
O O10 0.000000 0.674302 0.471331
O O11 0.253118 0.126559 0.926198
O O12 0.305025 0.080352 0.784164
O O13 0.219391 0.000000 0.927350
O O14 0.343288 0.092312 0.976310
O O15 0.402632 0.201316 0.094279
O O16 0.446527 0.328891 0.089154
O O17 0.547828 0.452172 0.116094
O O18 0.423058 0.423058 0.147388
O O19 0.247179 0.123590 0.651046
O O20 0.221289 0.221289 0.637224
#
# Coordination Sequence:
#
# PCOD8326513 Si02
#       7
#    12  12  12  12  12  12  12
#     4  10  18  26  38  57  80 104 130 166 210 250
#     4   8  13  21  35  55  78 103 126 150 184 227
#     4   9  15  24  38  55  77 100 126 161 199 240
#     4   9  17  28  42  58  78 106 139 174 212 254
#     4  10  18  27  41  61  84 107 132 164 201 242
#     4   9  15  24  40  60  82 106 130 157 190 229
#     4   9  17  28  41  57  77 106 141 175 213 255
#
# _framework density 14.298093
#
# number of rings (size 3 to 8) (size 9 to 14) (size 15 to 20)
#    0.000    2.857    1.429    2.571    0.000    0.000 
#    0.000    0.000    0.000    1.571    0.000    6.000 
#    0.000    6.857    0.000    0.857    0.000    5.857 
#
# Total GULP energy -1040924.323795 kJ/mol
# GULP energy per Si atom -12391.956236 kJ/mol
# Density = 1.426555 g / cm^3
# Si number density = 14.298093 Si / 1000 Ang^3
#
#
#
# Elastic Constant Matrix: (Units=GPa)
#
#
# Indices 1 2 3 4 5 6 
#
# 1 87.5605 48.7477 36.8766 0.0000 0.0000 0.0000
# 2 48.7477 87.5605 36.8766 0.0000 0.0000 0.0000
# 3 36.8766 36.8766 73.2452 0.0000 0.0000 0.0000
# 4 0.0000 0.0000 0.0000 17.1293 0.0000 0.0000
# 5 0.0000 0.0000 0.0000 0.0000 17.1293 0.0000
# 6 0.0000 0.0000 0.0000 0.0000 0.0000 19.4064
#
#
#
# Elastic Compliance Matrix: (Units=1/GPa)
#
#
# Indices 1 2 3 4 5 6 
#
# 1 0.017924 -0.007841 -0.005077 0.000000 0.000000 0.000000
# 2 -0.007841 0.017924 -0.005077 0.000000 0.000000 0.000000
# 3 -0.005077 -0.005077 0.018764 0.000000 0.000000 0.000000
# 4 0.000000 0.000000 0.000000 0.058379 0.000000 0.000000
# 5 0.000000 0.000000 0.000000 0.000000 0.058379 0.000000
# 6 0.000000 0.000000 0.000000 0.000000 0.000000 0.051529
#
#
# Mechanical properties :
#
#
# Convention : Reuss Voigt Hill
#
# Bulk Modulus (GPa) = 53.69233 54.81865 54.25549
# Shear Modulus (GPa) = 18.86107 19.12404 18.99256
#
# Velocity S-wave (km/s) = 3.63593 3.66118 3.64858
# Velocity P-wave (km/s) = 7.43372 7.50303 7.46846
#
# Compressibility (1/GPa) = 0.01862463
#
# Stress axis : x y z
#
# Youngs Moduli (GPa) = 55.79144 55.79144 53.29216
#
# Poissons Ratio (x) = 0.43745 0.27054
# Poissons Ratio (y) = 0.43745 0.27054
# Poissons Ratio (z) = 0.28323 0.28323
#
# Static dielectric constant tensor:
#      x y z
#    x 2.794650 0.000000 0.000000 
#    y 0.000000 2.794650 0.000000 
#    z 0.000000 0.000000 2.862570 
# 
# 
# High freq. dielectric constant tensor:
#      x y z
#    x 1.525040 0.000000 0.000000 
#    y 0.000000 1.525040 0.000000 
#    z 0.000000 0.000000 1.539420 
# 
# From -- ./inp_files/1878.got.cif
#   From: 2010.03.12/outbox.cif.g09.slc.cpg/sg183_1_cif.got.tgz:1878.got - 2010.04.01 11:53:02.
