data_PCOD8326992
_publ_section_title
;
Structure prediction by ZEFSAII (Michael W. Deem and Ramdas Pophale) SiO2 
 PCOD8326992
Probable space group: P -6 M 2
;
_chemical_formula_sum "Si O2"
_cell_formula_units_Z 72
_cell_length_a 22.937842
_cell_length_b 22.937842
_cell_length_c 9.260148
_cell_angle_alpha 90.000000
_cell_angle_beta 90.000000
_cell_angle_gamma 120.000000
_cell_volume 4219.428902
_symmetry_space_group_name_H-M "P -6 M 2"
_symmetry_group_IT_number 187
_symmetry_cell_setting 'hexagonal'
loop_
_space_group_symop_operation_xyz
x,y,z
-x+y,-x,-z
-y,x-y,z
x,y,-z
-x+y,-x,z
-y,x-y,-z
-y,-x,-z
-x+y,y,-z
x,x-y,-z
-x+y,y,z
x,x-y,z
-y,-x,z
loop_
_atom_site_type_symbol
_atom_site_label
_atom_site_fract_x
_atom_site_fract_y
_atom_site_fract_z
Si Si1 0.062038 0.466044 0.332860
Si Si2 0.994820 0.744919 0.670405
Si Si3 0.396922 0.131176 0.331110
Si Si4 0.133252 0.999582 0.167057
Si Si5 0.126704 0.744390 0.329495
Si Si6 0.604193 0.528350 0.832561
O O1 0.041024 0.446629 0.500000
O O2 0.091632 0.545816 0.306743
O O3 0.118116 0.446324 0.287716
O O4 0.996570 0.422244 0.238542
O O5 0.996763 0.755030 0.500000
O O6 0.932653 0.673393 0.715823
O O7 0.984474 0.801902 0.741683
O O8 0.063332 0.749614 0.728957
O O9 0.410463 0.129595 0.500000
O O10 0.396227 0.198114 0.286523
O O11 0.456909 0.129994 0.243669
O O12 0.114968 0.057484 0.194878
O O13 0.149143 0.995933 0.000000
O O14 0.070307 0.929694 0.219790
O O15 0.129791 0.752718 0.500000
O O16 0.195922 0.804079 0.260449
O O17 0.550214 0.449787 0.810082
O O18 0.617182 0.547362 0.000000
#
# Coordination Sequence:
#
# PCOD8326992 Si02
#       6
#    12  12  12  12  12  12
#     4   9  16  29  50  72  96 130 170 207 244 291
#     4  10  19  33  51  72  97 127 162 205 256 301
#     4  10  20  34  53  77 104 133 166 204 244 291
#     4  10  21  36  51  66  88 123 166 209 253 302
#     4   9  16  27  46  72 100 129 163 203 247 294
#     4  10  20  33  51  76 104 131 161 202 248 292
#
# _framework density 17.063921000000001
#
# number of rings (size 3 to 8) (size 9 to 14) (size 15 to 20)
#    0.000    2.333    1.667    1.667    0.000    4.667 
#    0.000    0.000    0.000    2.167    0.000    2.333 
#    0.000    0.000    0.000    0.000    0.000    0.167 
#
# Total GULP energy -892776.304689 kJ/mol
# GULP energy per Si atom -12399.670898 kJ/mol
# Density = 1.702508 g / cm^3
# Si number density = 17.063921 Si / 1000 Ang^3
#
#
#
# Elastic Constant Matrix: (Units=GPa)
#
#
# Indices 1 2 3 4 5 6 
#
# 1 120.2351 61.9192 41.7944 0.0000 -0.0002 0.0000
# 2 61.9192 120.2351 41.7944 0.0000 0.0002 0.0000
# 3 41.7944 41.7944 46.7411 0.0000 0.0000 0.0000
# 4 0.0000 0.0000 0.0000 20.0252 0.0000 0.0002
# 5 -0.0002 0.0002 0.0000 0.0000 20.0252 0.0000
# 6 0.0000 0.0000 0.0000 0.0002 0.0000 29.1580
#
#
#
# Elastic Compliance Matrix: (Units=1/GPa)
#
#
# Indices 1 2 3 4 5 6 
#
# 1 0.013229 -0.003919 -0.008325 0.000000 0.000000 0.000000
# 2 -0.003919 0.013229 -0.008325 0.000000 0.000000 0.000000
# 3 -0.008325 -0.008325 0.036282 0.000000 0.000000 0.000000
# 4 0.000000 0.000000 0.000000 0.049937 0.000000 0.000000
# 5 0.000000 0.000000 0.000000 0.000000 0.049937 0.000000
# 6 0.000000 0.000000 0.000000 0.000000 0.000000 0.034296
#
#
# Mechanical properties :
#
#
# Convention : Reuss Voigt Hill
#
# Bulk Modulus (GPa) = 46.28991 64.24749 55.26870
# Shear Modulus (GPa) = 20.38757 23.28855 21.83806
#
# Velocity S-wave (km/s) = 3.46030 3.69831 3.58128
# Velocity P-wave (km/s) = 6.56896 7.48127 7.03991
#
# Compressibility (1/GPa) = 0.02160298
#
# Stress axis : x y z
#
# Youngs Moduli (GPa) = 75.59173 75.59173 27.56214
#
# Poissons Ratio (x) = 0.29625 0.22944
# Poissons Ratio (y) = 0.29625 0.22944
# Poissons Ratio (z) = 0.62927 0.62927
#
# Static dielectric constant tensor:
#      x y z
#    x 3.309780 0.000000 0.000000 
#    y 0.000000 3.309780 0.000000 
#    z 0.000000 0.000000 3.023080 
# 
# 
# High freq. dielectric constant tensor:
#      x y z
#    x 1.655590 0.000000 0.000000 
#    y 0.000000 1.655590 0.000000 
#    z 0.000000 0.000000 1.639000 
# 
# From -- ./inp_files/937.got.cif
#   From: 2010.03.12/outbox.cif.g09.slc.cpg/sg187_1_cif.got.tgz:937.got - 2010.04.01 11:58:23.
