data_PCOD8326456
_publ_section_title
;
Structure prediction by ZEFSAII (Michael W. Deem and Ramdas Pophale) SiO2 
 PCOD8326456
Probable space group: P 63 2 2
;
_chemical_formula_sum "Si O2"
_cell_formula_units_Z 66
_cell_length_a 32.754104
_cell_length_b 32.754104
_cell_length_c 5.119449
_cell_angle_alpha 90.000000
_cell_angle_beta 90.000000
_cell_angle_gamma 120.000000
_cell_volume 4756.475892
_symmetry_space_group_name_H-M "P 63 2 2"
_symmetry_group_IT_number 182
_symmetry_cell_setting 'hexagonal'
loop_
_space_group_symop_operation_xyz
x,y,z
x-y,x,1/2+z
-y,x-y,z
-x,-y,1/2+z
-x+y,-x,z
y,-x+y,1/2+z
x-y,-y,-z
-x,-x+y,-z
y,x,-z
-y,-x,1/2-z
-x+y,y,1/2-z
x,x-y,1/2-z
loop_
_atom_site_type_symbol
_atom_site_label
_atom_site_fract_x
_atom_site_fract_y
_atom_site_fract_z
Si Si1 0.893139 0.339176 0.939530
Si Si2 0.197562 0.443582 0.002465
Si Si3 0.162649 0.555949 0.999971
Si Si4 0.514898 0.485103 0.250000
Si Si5 0.301713 0.556036 0.499813
Si Si6 0.613428 0.560124 0.417506
O O1 0.858406 0.282978 0.971482
O O2 0.864587 0.364877 0.016438
O O3 0.912379 0.353649 0.646296
O O4 0.934743 0.355431 0.153972
O O5 0.211897 0.423794 0.250000
O O6 0.212031 0.424061 0.750000
O O7 0.225396 0.499759 0.999503
O O8 0.146493 0.573247 0.250000
O O9 0.147825 0.573913 0.750000
O O10 0.218637 0.576078 0.004293
O O11 0.483513 0.483513 0.500000
O O12 0.568315 0.508128 0.357214
O O13 0.287882 0.575764 0.750000
O O14 0.287851 0.575701 0.250000
O O15 0.595866 0.595866 0.500000
#
# Coordination Sequence:
#
# PCOD8326456 Si02
#       6
#    12  12  12   6  12  12
#     4  11  22  33  49  68  85 110 137 162 196 227
#     4   9  17  31  49  67  83  96 120 155 195 233
#     4  11  22  33  46  66  83  96 119 157 187 213
#     4  10  20  34  46  58  78 118 154 172 194 216
#     4   9  17  31  49  60  72  93 110 131 175 225
#     4  11  22  35  47  62  88 117 146 164 187 221
#
# _framework density 13.875819
#
# number of rings (size 3 to 8) (size 9 to 14) (size 15 to 20)
#    0.000    1.818    0.000    6.000    3.818    5.818 
#    0.000    0.000    0.000    7.273    0.000    0.000 
#    0.000    0.000    0.000    0.000    0.000    0.000 
#
# Total GULP energy -818198.391756 kJ/mol
# GULP energy per Si atom -12396.945330 kJ/mol
# Density = 1.384424 g / cm^3
# Si number density = 13.875819 Si / 1000 Ang^3
#
#
#
# Elastic Constant Matrix: (Units=GPa)
#
#
# Indices 1 2 3 4 5 6 
#
# 1 46.4468 14.8092 22.1601 0.0000 0.0000 0.0000
# 2 14.8092 46.4468 22.1601 0.0000 0.0000 0.0000
# 3 22.1601 22.1601 117.6583 0.0000 0.0000 0.0000
# 4 0.0000 0.0000 0.0000 21.2490 0.0000 0.0000
# 5 0.0000 0.0000 0.0000 0.0000 21.2490 0.0000
# 6 0.0000 0.0000 0.0000 0.0000 0.0000 15.8188
#
#
#
# Elastic Compliance Matrix: (Units=1/GPa)
#
#
# Indices 1 2 3 4 5 6 
#
# 1 0.025254 -0.006354 -0.003560 0.000000 0.000000 0.000000
# 2 -0.006354 0.025254 -0.003560 0.000000 0.000000 0.000000
# 3 -0.003560 -0.003560 0.009840 0.000000 0.000000 0.000000
# 4 0.000000 0.000000 0.000000 0.047061 0.000000 0.000000
# 5 0.000000 0.000000 0.000000 0.000000 0.047061 0.000000
# 6 0.000000 0.000000 0.000000 0.000000 0.000000 0.063216
#
#
# Mechanical properties :
#
#
# Convention : Reuss Voigt Hill
#
# Bulk Modulus (GPa) = 29.93830 36.53452 33.23641
# Shear Modulus (GPa) = 19.54903 21.75818 20.65360
#
# Velocity S-wave (km/s) = 3.75754 3.96418 3.86224
# Velocity P-wave (km/s) = 6.35989 6.88039 6.62525
#
# Compressibility (1/GPa) = 0.03340203
#
# Stress axis : x y z
#
# Youngs Moduli (GPa) = 39.59732 39.59732 101.62495
#
# Poissons Ratio (x) = 0.25159 0.36176
# Poissons Ratio (y) = 0.25159 0.36176
# Poissons Ratio (z) = 0.14096 0.14096
#
# Static dielectric constant tensor:
#      x y z
#    x 2.566510 0.000000 0.000000 
#    y 0.000000 2.566510 0.000000 
#    z 0.000000 0.000000 3.027090 
# 
# 
# High freq. dielectric constant tensor:
#      x y z
#    x 1.484270 0.000000 0.000000 
#    y 0.000000 1.484270 0.000000 
#    z 0.000000 0.000000 1.559300 
# 
# From -- ./inp_files/797.got.cif
#   From: 2010.03.12/outbox.cif.g09.slc.cpg/sg182_1_cif.got.tgz:797.got - 2010.04.01 11:49:36.
