data_PCOD8326406
_publ_section_title
;
Structure prediction by ZEFSAII (Michael W. Deem and Ramdas Pophale) SiO2 
 PCOD8326406
Probable space group: P 64 2 2
;
_chemical_formula_sum "Si O2"
_cell_formula_units_Z 72
_cell_length_a 15.386603
_cell_length_b 15.386603
_cell_length_c 17.456448
_cell_angle_alpha 90.000000
_cell_angle_beta 90.000000
_cell_angle_gamma 120.000000
_cell_volume 3579.084959
_symmetry_space_group_name_H-M "P 64 2 2"
_symmetry_group_IT_number 181
_symmetry_cell_setting 'hexagonal'
loop_
_space_group_symop_operation_xyz
x,y,z
x-y,x,2/3+z
-y,x-y,1/3+z
-x,-y,z
-x+y,-x,2/3+z
y,-x+y,1/3+z
x-y,-y,-z
-x,-x+y,2/3-z
y,x,1/3-z
-y,-x,1/3-z
-x+y,y,-z
x,x-y,2/3-z
loop_
_atom_site_type_symbol
_atom_site_label
_atom_site_fract_x
_atom_site_fract_y
_atom_site_fract_z
Si Si1 0.555132 0.436462 0.750726
Si Si2 0.365965 0.119225 0.898095
Si Si3 0.718467 0.629691 0.993903
Si Si4 0.900103 0.622135 0.183219
Si Si5 0.443265 0.561546 0.252537
Si Si6 0.621064 0.867223 0.623552
O O1 0.500000 0.500000 0.743945
O O2 0.583931 0.416070 0.666667
O O3 0.481193 0.329391 0.789822
O O4 0.655710 0.503443 0.797960
O O5 0.323203 0.161602 0.833334
O O6 0.301617 0.998250 0.899664
O O7 0.359317 0.162716 0.979836
O O8 0.661092 0.517994 0.032154
O O9 0.694539 0.708358 0.035518
O O10 0.836657 0.673314 0.000000
O O11 0.696887 0.630262 0.904271
O O12 0.811709 0.645690 0.207533
O O13 0.500000 0.500000 0.245229
O O14 0.417345 0.582656 0.166667
O O15 0.337946 0.493911 0.296525
#
# Coordination Sequence:
#
# PCOD8326406 Si02
#       6
#    12  12  12  12  12  12
#     4   9  18  33  54  81 121 156 188 238 302 364
#     4  11  21  36  60  93 126 162 202 252 319 379
#     4  11  24  41  62  90 120 164 218 259 312 378
#     4  11  22  38  63  91 126 164 207 260 309 381
#     4   9  20  39  61  83 116 156 202 253 303 360
#     4  11  22  39  64  90 122 168 207 258 317 371
#
# _framework density 20.116875
#
# number of rings (size 3 to 8) (size 9 to 14) (size 15 to 20)
#    0.000    1.667    3.333    1.500    2.333    4.000 
#    3.000    0.833    0.000    2.000    0.000    0.000 
#    0.000    0.000    0.000    0.000    0.000    0.000 
#
# Total GULP energy -892158.383524 kJ/mol
# GULP energy per Si atom -12391.088660 kJ/mol
# Density = 2.007109 g / cm^3
# Si number density = 20.116875 Si / 1000 Ang^3
#
#
#
# Elastic Constant Matrix: (Units=GPa)
#
#
# Indices 1 2 3 4 5 6 
#
# 1 95.7996 47.0931 27.1202 0.0000 0.0000 0.0000
# 2 47.0931 95.7996 27.1202 0.0000 0.0000 0.0000
# 3 27.1202 27.1202 89.7751 0.0000 0.0000 0.0000
# 4 0.0000 0.0000 0.0000 31.2672 0.0000 0.0000
# 5 0.0000 0.0000 0.0000 0.0000 31.2672 0.0000
# 6 0.0000 0.0000 0.0000 0.0000 0.0000 24.3533
#
#
#
# Elastic Compliance Matrix: (Units=1/GPa)
#
#
# Indices 1 2 3 4 5 6 
#
# 1 0.014218 -0.006313 -0.002388 0.000000 0.000000 0.000000
# 2 -0.006313 0.014218 -0.002388 0.000000 0.000000 0.000000
# 3 -0.002388 -0.002388 0.012582 0.000000 0.000000 0.000000
# 4 0.000000 0.000000 0.000000 0.031982 0.000000 0.000000
# 5 0.000000 0.000000 0.000000 0.000000 0.031982 0.000000
# 6 0.000000 0.000000 0.000000 0.000000 0.000000 0.041062
#
#
# Mechanical properties :
#
#
# Convention : Reuss Voigt Hill
#
# Bulk Modulus (GPa) = 53.08038 53.78234 53.43136
# Shear Modulus (GPa) = 28.65289 29.38026 29.01658
#
# Velocity S-wave (km/s) = 3.77811 3.82577 3.80201
# Velocity P-wave (km/s) = 6.74355 6.80502 6.77435
#
# Compressibility (1/GPa) = 0.01883935
#
# Stress axis : x y z
#
# Youngs Moduli (GPa) = 70.33390 70.33390 79.48058
#
# Poissons Ratio (x) = 0.44403 0.18979
# Poissons Ratio (y) = 0.44403 0.18979
# Poissons Ratio (z) = 0.16795 0.16795
#
# Static dielectric constant tensor:
#      x y z
#    x 3.632640 0.000000 0.000000 
#    y 0.000000 3.632640 0.000000 
#    z 0.000000 0.000000 3.801420 
# 
# 
# High freq. dielectric constant tensor:
#      x y z
#    x 1.769430 0.000000 0.000000 
#    y 0.000000 1.769430 0.000000 
#    z 0.000000 0.000000 1.789650 
# 
# From -- ./inp_files/7766.got.cif
#   From: 2010.03.12/outbox.cif.g09.slc.cpg/sg181_4_cif.got.tgz:7766.got - 2010.04.01 11:42:41.
