data_PCOD8326653
_publ_section_title
;
Structure prediction by ZEFSAII (Michael W. Deem and Ramdas Pophale) SiO2 
 PCOD8326653
Probable space group: P 63 C M
;
_chemical_formula_sum "Si O2"
_cell_formula_units_Z 48
_cell_length_a 12.981600
_cell_length_b 12.981600
_cell_length_c 16.601916
_cell_angle_alpha 90.000000
_cell_angle_beta 90.000000
_cell_angle_gamma 120.000000
_cell_volume 2422.954675
_symmetry_space_group_name_H-M "P 63 C M"
_symmetry_group_IT_number 185
_symmetry_cell_setting 'hexagonal'
loop_
_space_group_symop_operation_xyz
x,y,z
x-y,x,1/2+z
-y,x-y,z
-x,-y,1/2+z
-x+y,-x,z
y,-x+y,1/2+z
-x+y,y,1/2+z
x,x-y,1/2+z
-y,-x,1/2+z
y,x,z
x-y,-y,z
-x,-x+y,z
loop_
_atom_site_type_symbol
_atom_site_label
_atom_site_fract_x
_atom_site_fract_y
_atom_site_fract_z
Si Si1 0.498415 0.133748 0.389440
Si Si2 0.302253 0.865911 0.155905
Si Si3 0.865911 0.302253 0.974017
Si Si4 0.133748 0.635332 0.240482
O O1 0.431773 0.207493 0.408993
O O2 0.576373 0.140077 0.467216
O O3 0.592279 0.184558 0.314961
O O4 0.395982 0.000000 0.369096
O O5 0.207493 0.775721 0.220929
O O6 0.423627 0.859923 0.162706
O O7 0.331880 0.000000 0.177367
O O8 0.253661 0.832658 0.064961
O O9 0.000000 0.331880 0.952555
O O10 0.000000 0.604018 0.260826
#
# Coordination Sequence:
#
# PCOD8326653 Si02
#       4
#    12  12  12  12
#     4  10  20  34  53  76 104 140 182 228 275 326
#     4  10  20  33  51  76 105 139 179 223 275 335
#     4  10  20  33  51  76 105 139 179 223 275 335
#     4  10  20  34  53  76 104 140 182 228 275 326
#
# _framework density 19.810523
#
# number of rings (size 3 to 8) (size 9 to 14) (size 15 to 20)
#    0.000    2.000    0.000    4.000    0.000    3.000 
#    0.000    0.000    0.000    1.000    0.000    0.000 
#    0.000   12.000    0.000    0.000    0.000    0.000 
#
# Total GULP energy -594800.683709 kJ/mol
# GULP energy per Si atom -12391.680911 kJ/mol
# Density = 1.976543 g / cm^3
# Si number density = 19.810523 Si / 1000 Ang^3
#
#
#
# Elastic Constant Matrix: (Units=GPa)
#
#
# Indices 1 2 3 4 5 6 
#
# 1 107.8050 56.8522 55.0889 0.0000 0.0000 0.0000
# 2 56.8522 107.8050 55.0889 0.0000 0.0000 0.0000
# 3 55.0889 55.0889 118.9975 0.0000 0.0000 0.0000
# 4 0.0000 0.0000 0.0000 29.2568 0.0000 0.0000
# 5 0.0000 0.0000 0.0000 0.0000 29.2568 0.0000
# 6 0.0000 0.0000 0.0000 0.0000 0.0000 25.4764
#
#
#
# Elastic Compliance Matrix: (Units=1/GPa)
#
#
# Indices 1 2 3 4 5 6 
#
# 1 0.014212 -0.005414 -0.004073 0.000000 0.000000 0.000000
# 2 -0.005414 0.014212 -0.004073 0.000000 0.000000 0.000000
# 3 -0.004073 -0.004073 0.012175 0.000000 0.000000 0.000000
# 4 0.000000 0.000000 0.000000 0.034180 0.000000 0.000000
# 5 0.000000 0.000000 0.000000 0.000000 0.034180 0.000000
# 6 0.000000 0.000000 0.000000 0.000000 0.000000 0.039252
#
#
# Mechanical properties :
#
#
# Convention : Reuss Voigt Hill
#
# Bulk Modulus (GPa) = 74.18800 74.29638 74.24219
# Shear Modulus (GPa) = 27.80469 27.96982 27.88725
#
# Velocity S-wave (km/s) = 3.75044 3.76156 3.75600
# Velocity P-wave (km/s) = 7.50230 7.51337 7.50783
#
# Compressibility (1/GPa) = 0.01347927
#
# Stress axis : x y z
#
# Youngs Moduli (GPa) = 70.36097 70.36097 82.13566
#
# Poissons Ratio (x) = 0.38091 0.33457
# Poissons Ratio (y) = 0.38091 0.33457
# Poissons Ratio (z) = 0.28660 0.28660
#
# Static dielectric constant tensor:
#      x y z
#    x 3.446850 0.000000 0.000000 
#    y 0.000000 3.446850 0.000000 
#    z 0.000000 0.000000 3.688020 
# 
# 
# High freq. dielectric constant tensor:
#      x y z
#    x 1.744420 0.000000 0.000000 
#    y 0.000000 1.744420 0.000000 
#    z 0.000000 0.000000 1.788830 
# 
# From -- ./inp_files/1837.got.cif
#   From: 2010.03.12/outbox.cif.g09.slc.cpg/sg185_cif.got.tgz:1837.got - 2010.04.01 11:55:19.
