data_PCOD8326349
_publ_section_title
;
Structure prediction by ZEFSAII (Michael W. Deem and Ramdas Pophale) SiO2 
 PCOD8326349
Probable space group: P 64 2 2
;
_chemical_formula_sum "Si O2"
_cell_formula_units_Z 72
_cell_length_a 14.665889
_cell_length_b 14.665889
_cell_length_c 17.206142
_cell_angle_alpha 90.000000
_cell_angle_beta 90.000000
_cell_angle_gamma 120.000000
_cell_volume 3205.021313
_symmetry_space_group_name_H-M "P 64 2 2"
_symmetry_group_IT_number 181
_symmetry_cell_setting 'hexagonal'
loop_
_space_group_symop_operation_xyz
x,y,z
x-y,x,2/3+z
-y,x-y,1/3+z
-x,-y,z
-x+y,-x,2/3+z
y,-x+y,1/3+z
x-y,-y,-z
-x,-x+y,2/3-z
y,x,1/3-z
-y,-x,1/3-z
-x+y,y,-z
x,x-y,2/3-z
loop_
_atom_site_type_symbol
_atom_site_label
_atom_site_fract_x
_atom_site_fract_y
_atom_site_fract_z
Si Si1 0.523135 0.410381 0.935489
Si Si2 0.846574 0.176826 0.511106
Si Si3 0.659677 0.329839 0.333334
Si Si4 0.500000 0.500000 0.666667
Si Si5 0.197890 0.012701 0.613783
Si Si6 0.000000 0.000000 0.333334
Si Si7 0.766205 0.694067 0.438856
Si Si8 0.526434 0.168803 0.115565
O O1 0.500000 0.500000 0.968846
O O2 0.417095 0.297733 0.938878
O O3 0.550804 0.427369 0.845236
O O4 0.616039 0.411878 0.986862
O O5 0.820348 0.105103 0.436296
O O6 0.789825 0.244756 0.492928
O O7 0.966302 0.272644 0.513496
O O8 0.813076 0.100176 0.587243
O O9 0.728861 0.351404 0.410325
O O10 0.395044 0.470486 0.717720
O O11 0.220355 0.037232 0.704526
O O12 0.090446 0.015845 0.605106
O O13 0.847654 0.695307 0.500000
#
# Coordination Sequence:
#
# PCOD8326349 Si02
#       8
#    12  12   6   3  12   3  12  12
#     4  12  25  46  70 104 139 179 238 294 371 444
#     4  11  23  40  64  93 142 182 234 294 357 437
#     4  11  26  43  75 106 144 187 230 303 370 439
#     4  10  20  38  72 104 134 170 226 300 354 398
#     4  11  25  39  61  99 133 190 238 293 367 437
#     4  12  20  40  58  84 144 180 238 292 344 434
#     4  12  23  42  66  95 130 181 238 297 357 440
#     4  11  22  44  68 103 138 180 231 298 356 428
#
# _framework density 22.464749000000001
#
# number of rings (size 3 to 8) (size 9 to 14) (size 15 to 20)
#    0.000    0.667    4.167    3.500    0.000    6.667 
#    0.000    0.000    0.000    1.000    0.000    0.000 
#    0.000    0.000    0.000    0.000    0.000    0.000 
#
# Total GULP energy -892244.362195 kJ/mol
# GULP energy per Si atom -12392.282808 kJ/mol
# Density = 2.241362 g / cm^3
# Si number density = 22.464749 Si / 1000 Ang^3
#
#
#
# Elastic Constant Matrix: (Units=GPa)
#
#
# Indices 1 2 3 4 5 6 
#
# 1 113.9664 41.2561 32.9687 0.0000 0.0000 0.0000
# 2 41.2561 113.9664 32.9687 0.0000 0.0000 0.0000
# 3 32.9687 32.9687 75.6472 0.0000 0.0000 0.0000
# 4 0.0000 0.0000 0.0000 18.9204 0.0000 0.0000
# 5 0.0000 0.0000 0.0000 0.0000 18.9204 0.0000
# 6 0.0000 0.0000 0.0000 0.0000 0.0000 36.3552
#
#
#
# Elastic Compliance Matrix: (Units=1/GPa)
#
#
# Indices 1 2 3 4 5 6 
#
# 1 0.010830 -0.002924 -0.003446 0.000000 0.000000 0.000000
# 2 -0.002924 0.010830 -0.003446 0.000000 0.000000 0.000000
# 3 -0.003446 -0.003446 0.016223 0.000000 0.000000 0.000000
# 4 0.000000 0.000000 0.000000 0.052853 0.000000 0.000000
# 5 0.000000 0.000000 0.000000 0.000000 0.052853 0.000000
# 6 0.000000 0.000000 0.000000 0.000000 0.000000 0.027506
#
#
# Mechanical properties :
#
#
# Convention : Reuss Voigt Hill
#
# Bulk Modulus (GPa) = 54.78792 57.55190 56.16991
# Shear Modulus (GPa) = 25.40550 27.93164 26.66857
#
# Velocity S-wave (km/s) = 3.36654 3.52995 3.44921
# Velocity P-wave (km/s) = 6.28910 6.50296 6.39692
#
# Compressibility (1/GPa) = 0.01825220
#
# Stress axis : x y z
#
# Youngs Moduli (GPa) = 92.33933 92.33933 61.64230
#
# Poissons Ratio (x) = 0.26996 0.21240
# Poissons Ratio (y) = 0.26996 0.21240
# Poissons Ratio (z) = 0.31817 0.31817
#
# Static dielectric constant tensor:
#      x y z
#    x 4.105680 0.000000 0.000000 
#    y 0.000000 4.105680 0.000000 
#    z 0.000000 0.000000 4.023730 
# 
# 
# High freq. dielectric constant tensor:
#      x y z
#    x 1.884820 0.000000 0.000000 
#    y 0.000000 1.884820 0.000000 
#    z 0.000000 0.000000 1.883460 
# 
# From -- ./inp_files/7863.got.cif
#   From: 2010.03.12/outbox.cif.g09.slc.cpg/sg181_4_cif.got.tgz:7863.got - 2010.04.01 11:42:41.
