data_PCOD8326498
_publ_section_title
;
Structure prediction by ZEFSAII (Michael W. Deem and Ramdas Pophale) SiO2 
 PCOD8326498
Probable space group: P 63 2 2
;
_chemical_formula_sum "Si O2"
_cell_formula_units_Z 42
_cell_length_a 21.001032
_cell_length_b 21.001032
_cell_length_c 5.488479
_cell_angle_alpha 90.000000
_cell_angle_beta 90.000000
_cell_angle_gamma 120.000000
_cell_volume 2096.350575
_symmetry_space_group_name_H-M "P 63 2 2"
_symmetry_group_IT_number 182
_symmetry_cell_setting 'hexagonal'
loop_
_space_group_symop_operation_xyz
x,y,z
x-y,x,1/2+z
-y,x-y,z
-x,-y,1/2+z
-x+y,-x,z
y,-x+y,1/2+z
x-y,-y,-z
-x,-x+y,-z
y,x,-z
-y,-x,1/2-z
-x+y,y,1/2-z
x,x-y,1/2-z
loop_
_atom_site_type_symbol
_atom_site_label
_atom_site_fract_x
_atom_site_fract_y
_atom_site_fract_z
Si Si1 0.201140 0.927893 0.137790
Si Si2 0.530591 0.602446 0.848993
Si Si3 0.334968 0.000000 0.500000
Si Si4 0.821091 0.573392 0.495160
O O1 0.118443 0.881558 0.250000
O O2 0.213306 0.874742 0.956217
O O3 0.264519 0.949840 0.336673
O O4 0.209961 0.000000 0.000000
O O5 0.448443 0.551558 0.750000
O O6 0.592018 0.647640 0.645513
O O7 0.549208 0.549208 0.000000
O O8 0.530611 0.663944 0.021992
O O9 0.778008 0.556016 0.750000
O O10 0.771947 0.543893 0.250000
#
# Coordination Sequence:
#
# PCOD8326498 Si02
#       4
#    12  12   6  12
#     4  11  23  35  59  86 129 163 205 263 320 388
#     4  12  23  36  59  94 132 174 213 276 339 403
#     4  12  20  40  56  90 138 162 220 254 336 398
#     4  11  23  40  62  88 126 172 215 266 324 390
#
# _framework density 20.034818000000001
#
# number of rings (size 3 to 8) (size 9 to 14) (size 15 to 20)
#    0.000    0.571    7.143    3.429    0.000    0.000 
#    0.000    0.000    0.000    0.571    0.000   10.000 
#   14.286    0.000    0.000    0.000    0.000    0.000 
#
# Total GULP energy -520676.331918 kJ/mol
# GULP energy per Si atom -12397.055522 kJ/mol
# Density = 1.998922 g / cm^3
# Si number density = 20.034818 Si / 1000 Ang^3
#
#
#
# Elastic Constant Matrix: (Units=GPa)
#
#
# Indices 1 2 3 4 5 6 
#
# 1 110.8566 67.8394 48.6799 0.0000 0.0000 0.0000
# 2 67.8394 110.8566 48.6799 0.0000 0.0000 0.0000
# 3 48.6799 48.6799 112.1418 0.0000 0.0000 0.0000
# 4 0.0000 0.0000 0.0000 30.9619 0.0000 0.0000
# 5 0.0000 0.0000 0.0000 0.0000 30.9619 0.0000
# 6 0.0000 0.0000 0.0000 0.0000 0.0000 21.5086
#
#
#
# Elastic Compliance Matrix: (Units=1/GPa)
#
#
# Indices 1 2 3 4 5 6 
#
# 1 0.015288 -0.007958 -0.003182 0.000000 0.000000 0.000000
# 2 -0.007958 0.015288 -0.003182 0.000000 0.000000 0.000000
# 3 -0.003182 -0.003182 0.011680 0.000000 0.000000 0.000000
# 4 0.000000 0.000000 0.000000 0.032298 0.000000 0.000000
# 5 0.000000 0.000000 0.000000 0.000000 0.032298 0.000000
# 6 0.000000 0.000000 0.000000 0.000000 0.000000 0.046493
#
#
# Mechanical properties :
#
#
# Convention : Reuss Voigt Hill
#
# Bulk Modulus (GPa) = 73.46502 73.80593 73.63548
# Shear Modulus (GPa) = 26.80598 27.93018 27.36808
#
# Velocity S-wave (km/s) = 3.66179 3.73779 3.69999
# Velocity P-wave (km/s) = 7.39098 7.45298 7.42205
#
# Compressibility (1/GPa) = 0.01361192
#
# Stress axis : x y z
#
# Youngs Moduli (GPa) = 65.41047 65.41047 85.61931
#
# Poissons Ratio (x) = 0.52057 0.27242
# Poissons Ratio (y) = 0.52057 0.27242
# Poissons Ratio (z) = 0.20812 0.20812
#
# Static dielectric constant tensor:
#      x y z
#    x 3.665660 0.000000 0.000000 
#    y 0.000000 3.665660 0.000000 
#    z 0.000000 0.000000 3.758130 
# 
# 
# High freq. dielectric constant tensor:
#      x y z
#    x 1.760870 0.000000 0.000000 
#    y 0.000000 1.760870 0.000000 
#    z 0.000000 0.000000 1.794050 
# 
# From -- ./inp_files/341.got.cif
#   From: 2010.03.12/outbox.cif.g09.slc.cpg/sg182_1_cif.got.tgz:341.got - 2010.04.01 11:49:36.
