data_PCOD8326987
_publ_section_title
;
Structure prediction by ZEFSAII (Michael W. Deem and Ramdas Pophale) SiO2 
 PCOD8326987
Probable space group: P -6 M 2
;
_chemical_formula_sum "Si O2"
_cell_formula_units_Z 66
_cell_length_a 20.274878
_cell_length_b 20.274878
_cell_length_c 9.688927
_cell_angle_alpha 90.000000
_cell_angle_beta 90.000000
_cell_angle_gamma 120.000000
_cell_volume 3449.235241
_symmetry_space_group_name_H-M "P -6 M 2"
_symmetry_group_IT_number 187
_symmetry_cell_setting 'hexagonal'
loop_
_space_group_symop_operation_xyz
x,y,z
-x+y,-x,-z
-y,x-y,z
x,y,-z
-x+y,-x,z
-y,x-y,-z
-y,-x,-z
-x+y,y,-z
x,x-y,-z
-x+y,y,z
x,x-y,z
-y,-x,z
loop_
_atom_site_type_symbol
_atom_site_label
_atom_site_fract_x
_atom_site_fract_y
_atom_site_fract_z
Si Si1 0.847573 0.845076 0.000000
Si Si2 0.226134 0.307964 0.647522
Si Si3 0.934517 0.720831 0.767512
Si Si4 0.697068 0.148979 0.841867
Si Si5 0.910830 0.455415 0.670725
Si Si6 0.466815 0.933630 0.161624
Si Si7 0.148961 0.705797 0.158837
O O1 0.807685 0.789429 0.872604
O O2 0.938342 0.876684 0.000000
O O3 0.832702 0.916351 0.000000
O O4 0.246654 0.350445 0.500000
O O5 0.135228 0.270456 0.674399
O O6 0.255067 0.247346 0.640117
O O7 0.273299 0.365629 0.766757
O O8 0.859576 0.719151 0.713009
O O9 0.911560 0.637953 0.828486
O O10 0.765769 0.234231 0.812025
O O11 0.630738 0.131385 0.730587
O O12 0.667469 0.142999 0.000000
O O13 0.910962 0.455481 0.500000
O O14 0.995888 0.497944 0.733339
O O15 0.497322 0.876900 0.197238
O O16 0.480392 0.960784 0.000000
O O17 0.237019 0.762982 0.203428
O O18 0.137559 0.715271 0.000000
#
# Coordination Sequence:
#
# PCOD8326987 Si02
#       7
#     6  12  12  12   6   6  12
#     4  10  19  32  52  83 120 156 192 236 288 341
#     4  10  21  35  51  75 108 146 187 232 280 335
#     4  10  20  34  56  84 112 145 189 240 287 337
#     4  10  21  41  65  88 117 152 194 240 291 357
#     4  12  26  40  60  92 122 156 198 244 302 358
#     4  10  20  36  58  82 116 154 194 242 294 362
#     4   9  19  35  55  81 109 143 188 236 290 344
#
# _framework density 19.134675999999999
#
# number of rings (size 3 to 8) (size 9 to 14) (size 15 to 20)
#    0.000    2.000    0.909    2.545    1.273    5.091 
#    1.091    1.818    0.000    0.364    0.000    0.000 
#    0.000    0.000    0.000    0.000    0.000    0.000 
#
# Total GULP energy -817622.819292 kJ/mol
# GULP energy per Si atom -12388.224535 kJ/mol
# Density = 1.909112 g / cm^3
# Si number density = 19.134676 Si / 1000 Ang^3
#
#
#
# Elastic Constant Matrix: (Units=GPa)
#
#
# Indices 1 2 3 4 5 6 
#
# 1 94.6708 102.6838 57.4053 0.0000 -0.0001 0.0000
# 2 102.6838 94.6708 57.4053 0.0000 0.0001 0.0000
# 3 57.4053 57.4053 88.8427 0.0000 0.0000 0.0000
# 4 0.0000 0.0000 0.0000 22.9607 0.0000 0.0001
# 5 -0.0001 0.0001 0.0000 0.0000 22.9607 0.0000
# 6 0.0000 0.0000 0.0000 0.0001 0.0000 -4.0065
#
#
#
# Elastic Compliance Matrix: (Units=1/GPa)
#
#
# Indices 1 2 3 4 5 6 
#
# 1 -0.058339 0.066458 -0.005246 0.000000 -0.000001 0.000000
# 2 0.066458 -0.058339 -0.005246 0.000000 0.000001 0.000000
# 3 -0.005246 -0.005246 0.018035 0.000000 0.000000 0.000000
# 4 0.000000 0.000000 0.000000 0.043553 0.000000 0.000001
# 5 -0.000001 0.000001 0.000000 0.000000 0.043553 0.000000
# 6 0.000000 0.000000 0.000000 0.000001 0.000000 -0.249595
#
#
# Mechanical properties :
#
#
# Convention : Reuss Voigt Hill
#
# Bulk Modulus (GPa) = 75.25009 79.24146 77.24577
# Shear Modulus (GPa) = -13.56349 12.42899 -0.56725
#
# Velocity S-wave (km/s) = -2.66530 2.55140 -0.54506
# Velocity P-wave (km/s) = 5.47176 7.08392 6.32938
#
# Compressibility (1/GPa) = 0.01328902
#
# Stress axis : x y z
#
# Youngs Moduli (GPa) = -17.14107 -17.14107 55.44729
#
# Poissons Ratio (x) = 1.13917 0.29087
# Poissons Ratio (y) = 1.13917 0.29087
# Poissons Ratio (z) = -0.08992 -0.08992
#
# Static dielectric constant tensor:
#      x y z
#    x 3.642560 0.000000 0.000000 
#    y 0.000000 3.642560 0.000000 
#    z 0.000000 0.000000 3.513090 
# 
# 
# High freq. dielectric constant tensor:
#      x y z
#    x 1.747000 0.000000 0.000000 
#    y 0.000000 1.747000 0.000000 
#    z 0.000000 0.000000 1.737110 
# 
# From -- ./inp_files/800.got.cif
#   From: 2010.03.12/outbox.cif.g09.slc.cpg/sg187_1_cif.got.tgz:800.got - 2010.04.01 11:58:23.
