data_PCOD8326731
_publ_section_title
;
Structure prediction by ZEFSAII (Michael W. Deem and Ramdas Pophale) SiO2 
 PCOD8326731
Probable space group: P 63 M C
;
_chemical_formula_sum "Si O2"
_cell_formula_units_Z 96
_cell_length_a 17.413424
_cell_length_b 17.413424
_cell_length_c 22.862504
_cell_angle_alpha 90.000000
_cell_angle_beta 90.000000
_cell_angle_gamma 120.000000
_cell_volume 6003.752435
_symmetry_space_group_name_H-M "P 63 M C"
_symmetry_group_IT_number 186
_symmetry_cell_setting 'hexagonal'
loop_
_space_group_symop_operation_xyz
x,y,z
x-y,x,1/2+z
-y,x-y,z
-x,-y,1/2+z
-x+y,-x,z
y,-x+y,1/2+z
-x+y,y,z
x,x-y,z
-y,-x,z
y,x,1/2+z
x-y,-y,1/2+z
-x,-x+y,1/2+z
loop_
_atom_site_type_symbol
_atom_site_label
_atom_site_fract_x
_atom_site_fract_y
_atom_site_fract_z
Si Si1 0.268718 0.363332 0.947760
Si Si2 0.042867 0.431809 0.394239
Si Si3 0.000622 0.827553 0.587609
Si Si4 0.332762 0.844119 0.288199
Si Si5 0.333771 0.843861 0.154947
Si Si6 0.849633 0.333529 0.008295
Si Si7 0.336124 0.351443 0.072169
Si Si8 0.999285 0.165052 0.948669
O O1 0.199112 0.398224 0.938576
O O2 0.354211 0.412740 0.906295
O O3 0.228196 0.262785 0.925030
O O4 0.294928 0.372488 0.015502
O O5 0.036265 0.518133 0.394740
O O6 0.078373 0.420072 0.331594
O O7 0.109886 0.438538 0.445728
O O8 0.087133 0.912868 0.614549
O O9 0.000813 0.737883 0.604621
O O10 0.912248 0.824495 0.612524
O O11 0.003202 0.833970 0.518262
O O12 0.412631 0.825261 0.299256
O O13 0.244687 0.755314 0.305428
O O14 0.330463 0.872216 0.221672
O O15 0.406753 0.813506 0.148197
O O16 0.238776 0.761224 0.136147
O O17 0.362844 0.930179 0.115829
O O18 0.832952 0.416476 0.012489
O O19 0.757100 0.242901 0.018345
O O20 0.920918 0.343377 0.057422
O O21 0.065021 0.130041 0.928667
O O22 0.901532 0.098469 0.923350
#
# Coordination Sequence:
#
# PCOD8326731 Si02
#       8
#    12  12  12  12  12  12  12  12
#     4   9  17  28  42  60  85 116 145 174 211 255
#     4   9  18  30  45  66  89 114 145 181 222 267
#     4   9  15  23  36  55  80 109 142 178 215 253
#     4   9  17  29  46  68  92 117 144 178 222 271
#     4  10  19  31  47  66  89 116 148 186 229 276
#     4  10  19  30  45  66  94 125 153 181 217 267
#     4  10  18  29  43  63  88 118 151 184 221 266
#     4   8  13  20  32  52  77 105 134 164 197 233
#
# _framework density 15.990000999999999
#
# number of rings (size 3 to 8) (size 9 to 14) (size 15 to 20)
#    0.000    2.750    0.000    3.625    0.000    6.000 
#    0.000    1.250    0.000    1.750    0.000    0.000 
#    0.000    0.000    0.000    0.500    0.000    2.500 
#
# Total GULP energy -1189745.994139 kJ/mol
# GULP energy per Si atom -12393.187439 kJ/mol
# Density = 1.595361 g / cm^3
# Si number density = 15.990001 Si / 1000 Ang^3
#
#
#
# Elastic Constant Matrix: (Units=GPa)
#
#
# Indices 1 2 3 4 5 6 
#
# 1 76.6096 27.0557 35.8924 0.0000 0.0000 0.0000
# 2 27.0557 76.6096 35.8924 0.0000 0.0000 0.0000
# 3 35.8924 35.8924 56.0961 0.0000 0.0000 0.0000
# 4 0.0000 0.0000 0.0000 17.0984 0.0000 0.0000
# 5 0.0000 0.0000 0.0000 0.0000 17.0984 0.0000
# 6 0.0000 0.0000 0.0000 0.0000 0.0000 24.7769
#
#
#
# Elastic Compliance Matrix: (Units=1/GPa)
#
#
# Indices 1 2 3 4 5 6 
#
# 1 0.018750 -0.001430 -0.011082 0.000000 0.000000 0.000000
# 2 -0.001430 0.018750 -0.011082 0.000000 0.000000 0.000000
# 3 -0.011082 -0.011082 0.032008 0.000000 0.000000 0.000000
# 4 0.000000 0.000000 0.000000 0.058485 0.000000 0.000000
# 5 0.000000 0.000000 0.000000 0.000000 0.058485 0.000000
# 6 0.000000 0.000000 0.000000 0.000000 0.000000 0.040360
#
#
# Mechanical properties :
#
#
# Convention : Reuss Voigt Hill
#
# Bulk Modulus (GPa) = 44.80265 45.22180 45.01223
# Shear Modulus (GPa) = 17.76399 19.15972 18.46185
#
# Velocity S-wave (km/s) = 3.33670 3.46530 3.40161
# Velocity P-wave (km/s) = 6.55170 6.65986 6.60600
#
# Compressibility (1/GPa) = 0.02232011
#
# Stress axis : x y z
#
# Youngs Moduli (GPa) = 53.33238 53.33238 31.24180
#
# Poissons Ratio (x) = 0.07625 0.34623
# Poissons Ratio (y) = 0.07625 0.34623
# Poissons Ratio (z) = 0.59105 0.59105
#
# Static dielectric constant tensor:
#      x y z
#    x 3.141750 0.000000 0.000000 
#    y 0.000000 3.141750 0.000000 
#    z 0.000000 0.000000 2.769710 
# 
# 
# High freq. dielectric constant tensor:
#      x y z
#    x 1.616150 0.000000 0.000000 
#    y 0.000000 1.616150 0.000000 
#    z 0.000000 0.000000 1.563720 
# 
# From -- ./inp_files/3909.got.cif
#   From: 2010.03.12/outbox.cif.g09.slc.cpg/sg186_2_cif.got.tgz:3909.got - 2010.04.01 11:56:34.
