data_PCOD8326597
_publ_section_title
;
Structure prediction by ZEFSAII (Michael W. Deem and Ramdas Pophale) SiO2 
 PCOD8326597
Probable space group: P 6 C C
;
_chemical_formula_sum "Si O2"
_cell_formula_units_Z 66
_cell_length_a 19.245708
_cell_length_b 19.245708
_cell_length_c 8.766718
_cell_angle_alpha 90.000000
_cell_angle_beta 90.000000
_cell_angle_gamma 120.000000
_cell_volume 2812.130386
_symmetry_space_group_name_H-M "P 6 C C"
_symmetry_group_IT_number 184
_symmetry_cell_setting 'hexagonal'
loop_
_space_group_symop_operation_xyz
x,y,z
x-y,x,z
-y,x-y,z
-x,-y,z
-x+y,-x,z
y,-x+y,z
-x+y,y,1/2+z
x,x-y,1/2+z
-y,-x,1/2+z
y,x,1/2+z
x-y,-y,1/2+z
-x,-x+y,1/2+z
loop_
_atom_site_type_symbol
_atom_site_label
_atom_site_fract_x
_atom_site_fract_y
_atom_site_fract_z
Si Si1 0.072759 0.631421 0.321400
Si Si2 0.500000 0.500000 0.567535
Si Si3 0.824232 0.709050 0.646394
Si Si4 0.428487 0.746090 0.911529
Si Si5 0.033289 0.763306 0.331801
Si Si6 0.239608 0.773961 0.675093
O O1 0.048346 0.579689 0.167135
O O2 0.018800 0.673217 0.346652
O O3 0.161362 0.709773 0.307251
O O4 0.063861 0.573761 0.462233
O O5 0.815166 0.746031 0.486740
O O6 0.802276 0.747316 0.789976
O O7 0.912793 0.724343 0.683874
O O8 0.768108 0.612502 0.633658
O O9 0.348939 0.752701 0.925803
O O10 0.497549 0.796811 0.032525
O O11 0.467474 0.779314 0.745096
#
# Coordination Sequence:
#
# PCOD8326597 Si02
#       6
#    12   6  12  12  12  12
#     4  10  23  38  59  88 124 166 225 264 349 399
#     4  10  22  40  54  86 124 170 206 284 324 410
#     4  11  24  42  74  97 143 173 235 277 355 427
#     4  10  23  39  56  86 119 156 224 281 338 411
#     4  11  23  45  67 106 134 184 223 292 343 436
#     4  11  22  41  61  89 117 174 213 283 344 403
#
# _framework density 23.469752
#
# number of rings (size 3 to 8) (size 9 to 14) (size 15 to 20)
#    0.364    1.091    0.000    5.455    2.545    4.364 
#    9.818    0.000    0.000    0.364    0.000    2.545 
#    0.000    0.000    0.000    0.000    0.000    0.000 
#
# Total GULP energy -817898.013652 kJ/mol
# GULP energy per Si atom -12392.394146 kJ/mol
# Density = 2.341633 g / cm^3
# Si number density = 23.469752 Si / 1000 Ang^3
#
#
#
# Elastic Constant Matrix: (Units=GPa)
#
#
# Indices 1 2 3 4 5 6 
#
# 1 58.8802 13.6414 12.4481 0.0000 0.0000 0.0000
# 2 13.6414 58.8802 12.4481 0.0000 0.0000 0.0000
# 3 12.4481 12.4481 100.5625 0.0000 0.0000 0.0000
# 4 0.0000 0.0000 0.0000 38.2290 0.0000 0.0000
# 5 0.0000 0.0000 0.0000 0.0000 38.2290 0.0000
# 6 0.0000 0.0000 0.0000 0.0000 0.0000 22.6194
#
#
#
# Elastic Compliance Matrix: (Units=1/GPa)
#
#
# Indices 1 2 3 4 5 6 
#
# 1 0.018253 -0.003852 -0.001783 0.000000 0.000000 0.000000
# 2 -0.003852 0.018253 -0.001783 0.000000 0.000000 0.000000
# 3 -0.001783 -0.001783 0.010385 0.000000 0.000000 0.000000
# 4 0.000000 0.000000 0.000000 0.026158 0.000000 0.000000
# 5 0.000000 0.000000 0.000000 0.000000 0.026158 0.000000
# 6 0.000000 0.000000 0.000000 0.000000 0.000000 0.044210
#
#
# Mechanical properties :
#
#
# Convention : Reuss Voigt Hill
#
# Bulk Modulus (GPa) = 31.19461 32.82202 32.00832
# Shear Modulus (GPa) = 29.59678 31.80119 30.69898
#
# Velocity S-wave (km/s) = 3.55499 3.68501 3.62058
# Velocity P-wave (km/s) = 5.49281 5.66753 5.58085
#
# Compressibility (1/GPa) = 0.03205682
#
# Stress axis : x y z
#
# Youngs Moduli (GPa) = 54.78574 54.78574 96.28914
#
# Poissons Ratio (x) = 0.21103 0.17165
# Poissons Ratio (y) = 0.21103 0.17165
# Poissons Ratio (z) = 0.09766 0.09766
#
# Static dielectric constant tensor:
#      x y z
#    x 3.972140 0.000000 0.000000 
#    y 0.000000 3.972140 0.000000 
#    z 0.000000 0.000000 4.119130 
# 
# 
# High freq. dielectric constant tensor:
#      x y z
#    x 1.910590 0.000000 0.000000 
#    y 0.000000 1.910590 0.000000 
#    z 0.000000 0.000000 1.939420 
# 
# From -- ./inp_files/304.got.cif
#   From: 2010.03.12/outbox.cif.g09.slc.cpg/sg184_cif.got.tgz:304.got - 2010.04.01 11:54:36.
