data_PCOD8326206
_publ_section_title
;
Structure prediction by ZEFSAII (Michael W. Deem and Ramdas Pophale) SiO2 
 PCOD8326206
Probable space group: P 62 2 2
;
_chemical_formula_sum "Si O2"
_cell_formula_units_Z 60
_cell_length_a 11.872453
_cell_length_b 11.872453
_cell_length_c 22.495286
_cell_angle_alpha 90.000000
_cell_angle_beta 90.000000
_cell_angle_gamma 120.000000
_cell_volume 2746.016034
_symmetry_space_group_name_H-M "P 62 2 2"
_symmetry_group_IT_number 180
_symmetry_cell_setting 'hexagonal'
loop_
_space_group_symop_operation_xyz
x,y,z
x-y,x,1/3+z
-y,x-y,2/3+z
-x,-y,z
-x+y,-x,1/3+z
y,-x+y,2/3+z
x-y,-y,-z
-x,-x+y,1/3-z
y,x,2/3-z
-y,-x,2/3-z
-x+y,y,-z
x,x-y,1/3-z
loop_
_atom_site_type_symbol
_atom_site_label
_atom_site_fract_x
_atom_site_fract_y
_atom_site_fract_z
Si Si1 0.606935 0.458230 0.397870
Si Si2 0.262187 0.767878 0.510415
Si Si3 0.802477 0.661419 0.062493
Si Si4 0.283745 0.140278 0.096091
Si Si5 0.143625 0.212378 0.773720
O O1 0.500000 0.500000 0.402648
O O2 0.603581 0.396420 0.333334
O O3 0.584966 0.363511 0.453074
O O4 0.746261 0.584587 0.401790
O O5 0.417864 0.835727 0.500000
O O6 0.193016 0.743918 0.446261
O O7 0.223597 0.857465 0.547708
O O8 0.728518 0.742698 0.068079
O O9 0.955587 0.767161 0.062556
O O10 0.795109 0.590218 0.000000
O O11 0.293569 0.146785 0.166667
O O12 0.163310 0.997718 0.078921
O O13 0.129704 0.129704 0.833334
#
# Coordination Sequence:
#
# PCOD8326206 Si02
#       5
#    12  12  12  12  12
#     4  11  24  41  67 100 138 183 237 289 354 427
#     4  11  24  45  69  91 137 191 234 285 352 421
#     4  11  26  41  70 107 139 181 234 293 359 435
#     4  12  21  41  71 103 140 182 229 296 362 425
#     4  10  21  39  66  99 139 176 228 283 367 426
#
# _framework density 21.849834999999999
#
# number of rings (size 3 to 8) (size 9 to 14) (size 15 to 20)
#    0.000    1.000    6.000    1.200    2.800    6.000 
#    0.000    0.000   13.200    0.000    0.000    0.000 
#    0.000    0.000    0.000    0.000    0.000    0.000 
#
# Total GULP energy -743766.633473 kJ/mol
# GULP energy per Si atom -12396.110558 kJ/mol
# Density = 2.180010 g / cm^3
# Si number density = 21.849835 Si / 1000 Ang^3
#
#
#
# Elastic Constant Matrix: (Units=GPa)
#
#
# Indices 1 2 3 4 5 6 
#
# 1 102.3345 69.8063 39.6864 0.0000 0.0000 0.0000
# 2 69.8063 102.3345 39.6864 0.0000 0.0000 0.0000
# 3 39.6864 39.6864 129.7882 0.0000 0.0000 0.0000
# 4 0.0000 0.0000 0.0000 16.4783 0.0000 0.0000
# 5 0.0000 0.0000 0.0000 0.0000 16.4783 0.0000
# 6 0.0000 0.0000 0.0000 0.0000 0.0000 16.2641
#
#
#
# Elastic Compliance Matrix: (Units=1/GPa)
#
#
# Indices 1 2 3 4 5 6 
#
# 1 0.018753 -0.011990 -0.002068 0.000000 0.000000 0.000000
# 2 -0.011990 0.018753 -0.002068 0.000000 0.000000 0.000000
# 3 -0.002068 -0.002068 0.008969 0.000000 0.000000 0.000000
# 4 0.000000 0.000000 0.000000 0.060686 0.000000 0.000000
# 5 0.000000 0.000000 0.000000 0.000000 0.060686 0.000000
# 6 0.000000 0.000000 0.000000 0.000000 0.000000 0.061485
#
#
# Mechanical properties :
#
#
# Convention : Reuss Voigt Hill
#
# Bulk Modulus (GPa) = 70.30702 70.31281 70.30992
# Shear Modulus (GPa) = 18.77408 22.19598 20.48503
#
# Velocity S-wave (km/s) = 2.93445 3.19069 3.06524
# Velocity P-wave (km/s) = 6.61275 6.76933 6.69150
#
# Compressibility (1/GPa) = 0.01422333
#
# Stress axis : x y z
#
# Youngs Moduli (GPa) = 53.32579 53.32579 111.48910
#
# Poissons Ratio (x) = 0.63937 0.23055
# Poissons Ratio (y) = 0.63937 0.23055
# Poissons Ratio (z) = 0.11027 0.11027
#
# Static dielectric constant tensor:
#      x y z
#    x 4.097230 0.000000 0.000000 
#    y 0.000000 4.097230 0.000000 
#    z 0.000000 0.000000 4.078000 
# 
# 
# High freq. dielectric constant tensor:
#      x y z
#    x 1.858070 0.000000 0.000000 
#    y 0.000000 1.858070 0.000000 
#    z 0.000000 0.000000 1.859420 
# 
# From -- ./inp_files/11223.got.cif
#   From: 2010.03.12/outbox.cif.g09.slc.cpg/sg180_6_cif.got.tgz:11223.got - 2010.04.01 11:35:50.
