data_PCOD8326229
_publ_section_title
;
Structure prediction by ZEFSAII (Michael W. Deem and Ramdas Pophale) SiO2 
 PCOD8326229
Probable space group: P 62 2 2
;
_chemical_formula_sum "Si O2"
_cell_formula_units_Z 66
_cell_length_a 21.574329
_cell_length_b 21.574329
_cell_length_c 7.646519
_cell_angle_alpha 90.000000
_cell_angle_beta 90.000000
_cell_angle_gamma 120.000000
_cell_volume 3082.258069
_symmetry_space_group_name_H-M "P 62 2 2"
_symmetry_group_IT_number 180
_symmetry_cell_setting 'hexagonal'
loop_
_space_group_symop_operation_xyz
x,y,z
x-y,x,1/3+z
-y,x-y,2/3+z
-x,-y,z
-x+y,-x,1/3+z
y,-x+y,2/3+z
x-y,-y,-z
-x,-x+y,1/3-z
y,x,2/3-z
-y,-x,2/3-z
-x+y,y,-z
x,x-y,1/3-z
loop_
_atom_site_type_symbol
_atom_site_label
_atom_site_fract_x
_atom_site_fract_y
_atom_site_fract_z
Si Si1 0.499613 0.192289 0.280926
Si Si2 0.037644 0.452356 0.495828
Si Si3 0.635582 0.364419 0.833334
Si Si4 0.218180 0.858516 0.505409
Si Si5 0.057768 0.211629 0.308110
Si Si6 0.000000 0.646050 0.166667
Si Si7 0.842272 0.000000 0.000000
O O1 0.527435 0.263718 0.166667
O O2 0.496073 0.125554 0.167494
O O3 0.554901 0.215692 0.440646
O O4 0.423368 0.174641 0.356421
O O5 0.000000 0.500000 0.477307
O O6 0.000000 0.402414 0.666667
O O7 0.019453 0.405559 0.327229
O O8 0.636850 0.318425 0.666667
O O9 0.189196 0.810805 0.333334
O O10 0.159259 0.870950 0.606568
O O11 0.279352 0.935080 0.438834
O O12 0.081013 0.150883 0.289353
O O13 0.023824 0.210343 0.498046
O O14 0.000000 0.199530 0.166667
#
# Coordination Sequence:
#
# PCOD8326229 Si02
#       7
#    12  12   6  12  12   6   6
#     4  11  27  46  71 112 144 189 247 304 371 444
#     4  10  24  44  72 103 140 187 233 297 358 437
#     4  12  26  50  75 108 148 196 250 302 374 452
#     4  11  24  42  67  97 138 185 228 294 357 426
#     4  11  22  44  64  95 131 174 230 280 353 425
#     4  10  23  42  64 104 132 181 228 282 358 422
#     4  10  24  38  65  94 124 176 215 282 346 408
#
# _framework density 21.412872
#
# number of rings (size 3 to 8) (size 9 to 14) (size 15 to 20)
#    0.000    1.273    1.818    2.455   10.182    2.909 
#    6.545    5.455    0.000    0.000    0.000    0.000 
#    0.000    0.000    0.000    0.000    0.000    0.000 
#
# Total GULP energy -817765.306901 kJ/mol
# GULP energy per Si atom -12390.383438 kJ/mol
# Density = 2.136414 g / cm^3
# Si number density = 21.412872 Si / 1000 Ang^3
#
#
#
# Elastic Constant Matrix: (Units=GPa)
#
#
# Indices 1 2 3 4 5 6 
#
# 1 100.4159 56.2759 42.4235 0.0000 0.0000 0.0000
# 2 56.2759 100.4159 42.4235 0.0000 0.0000 0.0000
# 3 42.4235 42.4235 118.4922 0.0000 0.0000 0.0000
# 4 0.0000 0.0000 0.0000 31.5004 0.0000 0.0000
# 5 0.0000 0.0000 0.0000 0.0000 31.5004 0.0000
# 6 0.0000 0.0000 0.0000 0.0000 0.0000 22.0700
#
#
#
# Elastic Compliance Matrix: (Units=1/GPa)
#
#
# Indices 1 2 3 4 5 6 
#
# 1 0.015286 -0.007369 -0.002834 0.000000 0.000000 0.000000
# 2 -0.007369 0.015286 -0.002834 0.000000 0.000000 0.000000
# 3 -0.002834 -0.002834 0.010469 0.000000 0.000000 0.000000
# 4 0.000000 0.000000 0.000000 0.031746 0.000000 0.000000
# 5 0.000000 0.000000 0.000000 0.000000 0.031746 0.000000
# 6 0.000000 0.000000 0.000000 0.000000 0.000000 0.045310
#
#
# Mechanical properties :
#
#
# Convention : Reuss Voigt Hill
#
# Bulk Modulus (GPa) = 66.82339 66.84109 66.83224
# Shear Modulus (GPa) = 27.63854 28.89425 28.26640
#
# Velocity S-wave (km/s) = 3.59659 3.67739 3.63721
# Velocity P-wave (km/s) = 6.96578 7.02240 6.99415
#
# Compressibility (1/GPa) = 0.01496482
#
# Stress axis : x y z
#
# Youngs Moduli (GPa) = 65.41951 65.41951 95.52030
#
# Poissons Ratio (x) = 0.48209 0.27074
# Poissons Ratio (y) = 0.48209 0.27074
# Poissons Ratio (z) = 0.18543 0.18543
#
# Static dielectric constant tensor:
#      x y z
#    x 4.142240 0.000000 0.000000 
#    y 0.000000 4.142240 0.000000 
#    z 0.000000 0.000000 -2.792400 
# 
# 
# High freq. dielectric constant tensor:
#      x y z
#    x 1.843890 0.000000 0.000000 
#    y 0.000000 1.843890 0.000000 
#    z 0.000000 0.000000 1.850380 
# 
# From -- ./inp_files/3276.got.cif
#   From: 2010.03.12/outbox.cif.g09.slc.cpg/sg180_2_cif.got.tgz:3276.got - 2010.04.01 11:35:50.
