data_PCOD8326668
_publ_section_title
;
Structure prediction by ZEFSAII (Michael W. Deem and Ramdas Pophale) SiO2 
 PCOD8326668
Probable space group: P 63 C M
;
_chemical_formula_sum "Si O2"
_cell_formula_units_Z 84
_cell_length_a 19.050221
_cell_length_b 19.050221
_cell_length_c 13.626772
_cell_angle_alpha 90.000000
_cell_angle_beta 90.000000
_cell_angle_gamma 120.000000
_cell_volume 4282.759210
_symmetry_space_group_name_H-M "P 63 C M"
_symmetry_group_IT_number 185
_symmetry_cell_setting 'hexagonal'
loop_
_space_group_symop_operation_xyz
x,y,z
x-y,x,1/2+z
-y,x-y,z
-x,-y,1/2+z
-x+y,-x,z
y,-x+y,1/2+z
-x+y,y,1/2+z
x,x-y,1/2+z
-y,-x,1/2+z
y,x,z
x-y,-y,z
-x,-x+y,z
loop_
_atom_site_type_symbol
_atom_site_label
_atom_site_fract_x
_atom_site_fract_y
_atom_site_fract_z
Si Si1 0.475935 0.569567 0.389260
Si Si2 0.521612 0.834889 0.722301
Si Si3 0.686723 0.521612 0.779397
Si Si4 0.569567 0.475935 0.612438
Si Si5 0.313184 0.093319 0.889909
Si Si6 0.093319 0.313184 0.111789
Si Si7 0.906511 0.813022 0.750849
O O1 0.500407 0.500407 0.376776
O O2 0.533097 0.645959 0.320805
O O3 0.382675 0.533087 0.357359
O O4 0.486508 0.599977 0.500849
O O5 0.479045 0.739522 0.750849
O O6 0.466913 0.849588 0.644339
O O7 0.607303 0.858145 0.676337
O O8 0.645959 0.533097 0.680893
O O9 0.749158 0.607303 0.825361
O O10 0.500407 0.500407 0.624922
O O11 0.241987 0.105392 0.845597
O O12 0.289408 0.000000 0.888355
O O13 0.329354 0.126937 0.000849
O O14 0.105392 0.241987 0.156101
O O15 0.000000 0.289408 0.113343
O O16 0.869045 0.869045 0.722617
O O17 0.000000 0.869045 0.779081
#
# Coordination Sequence:
#
# PCOD8326668 Si02
#       7
#    12  12  12  12  12  12  12
#     4  10  22  41  64  86 113 156 204 244 287 350
#     4  11  21  37  60  88 122 151 191 242 298 352
#     4  11  21  37  60  88 122 151 191 242 298 352
#     4  10  22  41  64  86 113 156 204 244 287 350
#     4  10  20  36  59  86 118 156 195 240 297 354
#     4  10  20  36  59  86 118 156 195 240 297 354
#     4  10  21  38  58  84 118 160 206 248 290 342
#
# _framework density 19.613524000000002
#
# number of rings (size 3 to 8) (size 9 to 14) (size 15 to 20)
#    0.000    1.714    1.429    4.429    0.000    5.143 
#    6.857    0.000    0.000    1.714    0.000    0.000 
#    0.000    0.000    0.000    0.000    0.000    0.000 
#
# Total GULP energy -1041713.903915 kJ/mol
# GULP energy per Si atom -12401.355999 kJ/mol
# Density = 1.956888 g / cm^3
# Si number density = 19.613524 Si / 1000 Ang^3
#
#
#
# Elastic Constant Matrix: (Units=GPa)
#
#
# Indices 1 2 3 4 5 6 
#
# 1 100.4570 46.2904 53.4938 0.0000 0.0000 0.0000
# 2 46.2904 100.4570 53.4938 0.0000 0.0000 0.0000
# 3 53.4938 53.4938 162.4123 0.0000 0.0000 0.0000
# 4 0.0000 0.0000 0.0000 23.5555 0.0000 0.0000
# 5 0.0000 0.0000 0.0000 0.0000 23.5555 0.0000
# 6 0.0000 0.0000 0.0000 0.0000 0.0000 27.0833
#
#
#
# Elastic Compliance Matrix: (Units=1/GPa)
#
#
# Indices 1 2 3 4 5 6 
#
# 1 0.013715 -0.004747 -0.002954 0.000000 0.000000 0.000000
# 2 -0.004747 0.013715 -0.002954 0.000000 0.000000 0.000000
# 3 -0.002954 -0.002954 0.008103 0.000000 0.000000 0.000000
# 4 0.000000 0.000000 0.000000 0.042453 0.000000 0.000000
# 5 0.000000 0.000000 0.000000 0.000000 0.042453 0.000000
# 6 0.000000 0.000000 0.000000 0.000000 0.000000 0.036923
#
#
# Mechanical properties :
#
#
# Convention : Reuss Voigt Hill
#
# Bulk Modulus (GPa) = 70.30527 74.43139 72.36833
# Shear Modulus (GPa) = 27.26114 28.84208 28.05161
#
# Velocity S-wave (km/s) = 3.73220 3.83890 3.78592
# Velocity P-wave (km/s) = 7.38211 7.59479 7.48921
#
# Compressibility (1/GPa) = 0.01422369
#
# Stress axis : x y z
#
# Youngs Moduli (GPa) = 72.91424 72.91424 123.41207
#
# Poissons Ratio (x) = 0.34611 0.36453
# Poissons Ratio (y) = 0.34611 0.36453
# Poissons Ratio (z) = 0.21537 0.21537
#
# Static dielectric constant tensor:
#      x y z
#    x 3.555330 0.000000 0.000000 
#    y 0.000000 3.555330 0.000000 
#    z 0.000000 0.000000 3.738580 
# 
# 
# High freq. dielectric constant tensor:
#      x y z
#    x 1.758340 0.000000 0.000000 
#    y 0.000000 1.758340 0.000000 
#    z 0.000000 0.000000 1.775030 
# 
# From -- ./inp_files/1504.got.cif
#   From: 2010.03.12/outbox.cif.g09.slc.cpg/sg185_cif.got.tgz:1504.got - 2010.04.01 11:55:19.
