data_PCOD8326821
_publ_section_title
;
Structure prediction by ZEFSAII (Michael W. Deem and Ramdas Pophale) SiO2 
 PCOD8326821
Probable space group: P 63 M C
;
_chemical_formula_sum "Si O2"
_cell_formula_units_Z 84
_cell_length_a 13.424434
_cell_length_b 13.424434
_cell_length_c 35.309343
_cell_angle_alpha 90.000000
_cell_angle_beta 90.000000
_cell_angle_gamma 120.000000
_cell_volume 5510.769379
_symmetry_space_group_name_H-M "P 63 M C"
_symmetry_group_IT_number 186
_symmetry_cell_setting 'hexagonal'
loop_
_space_group_symop_operation_xyz
x,y,z
x-y,x,1/2+z
-y,x-y,z
-x,-y,1/2+z
-x+y,-x,z
y,-x+y,1/2+z
-x+y,y,z
x,x-y,z
-y,-x,z
y,x,1/2+z
x-y,-y,1/2+z
-x,-x+y,1/2+z
loop_
_atom_site_type_symbol
_atom_site_label
_atom_site_fract_x
_atom_site_fract_y
_atom_site_fract_z
Si Si1 0.437221 0.333024 0.854400
Si Si2 0.666297 0.102742 0.767215
Si Si3 0.002470 0.235228 0.212791
Si Si4 0.223632 0.225746 0.130429
Si Si5 0.767242 0.002470 0.548067
Si Si6 0.333704 0.436445 0.993644
Si Si7 0.333025 0.895803 0.906459
O O1 0.427753 0.213877 0.866013
O O2 0.567205 0.432796 0.862111
O O3 0.403326 0.333865 0.810865
O O4 0.348153 0.348153 0.880429
O O5 0.547730 0.095459 0.755543
O O6 0.768082 0.231919 0.759095
O O7 0.680918 0.010542 0.742365
O O8 0.102133 0.204266 0.221150
O O9 0.019782 0.292430 0.170382
O O10 0.880087 0.119914 0.217241
O O11 0.086313 0.172626 0.130429
O O12 0.272648 0.292430 0.090477
O O13 0.252501 0.126251 0.130429
O O14 0.760175 0.880087 0.543618
O O15 0.680917 0.010541 0.518494
O O16 0.897867 0.102134 0.539709
O O17 0.231918 0.463835 0.001763
O O18 0.452270 0.547731 0.005317
O O19 0.333868 0.403327 0.949995
O O20 0.432796 0.865592 0.898748
O O21 0.213876 0.786125 0.894847
#
# Coordination Sequence:
#
# PCOD8326821 Si02
#       7
#    12  12  12  12  12  12  12
#     4   9  17  29  45  63  82 106 137 172 208 245
#     4   9  17  29  44  61  82 110 141 170 201 241
#     4   9  16  26  42  63  85 107 132 165 204 243
#     4   8  13  22  37  58  82 106 132 162 198 238
#     4   9  16  26  42  63  85 107 132 165 204 243
#     4   9  17  29  44  61  82 110 141 170 201 241
#     4   9  17  29  45  63  82 106 137 172 208 245
#
# _framework density 15.242881000000001
#
# number of rings (size 3 to 8) (size 9 to 14) (size 15 to 20)
#    0.000    3.143    0.000    1.000    0.000    5.714 
#    0.000    0.714    0.000    0.857    0.000    2.000 
#    0.000    0.000    0.000    0.000    0.000    0.000 
#
# Total GULP energy -1040887.344375 kJ/mol
# GULP energy per Si atom -12391.516004 kJ/mol
# Density = 1.520819 g / cm^3
# Si number density = 15.242881 Si / 1000 Ang^3
#
#
#
# Elastic Constant Matrix: (Units=GPa)
#
#
# Indices 1 2 3 4 5 6 
#
# 1 85.6905 46.2764 61.0757 0.0000 0.0000 0.0000
# 2 46.2764 85.6905 61.0757 0.0000 0.0000 0.0000
# 3 61.0757 61.0757 100.0793 0.0000 0.0000 0.0000
# 4 0.0000 0.0000 0.0000 23.7620 0.0000 0.0000
# 5 0.0000 0.0000 0.0000 0.0000 23.7620 0.0000
# 6 0.0000 0.0000 0.0000 0.0000 0.0000 19.7071
#
#
#
# Elastic Compliance Matrix: (Units=1/GPa)
#
#
# Indices 1 2 3 4 5 6 
#
# 1 0.021393 -0.003978 -0.010628 0.000000 0.000000 0.000000
# 2 -0.003978 0.021393 -0.010628 0.000000 0.000000 0.000000
# 3 -0.010628 -0.010628 0.022964 0.000000 0.000000 0.000000
# 4 0.000000 0.000000 0.000000 0.042084 0.000000 0.000000
# 5 0.000000 0.000000 0.000000 0.000000 0.042084 0.000000
# 6 0.000000 0.000000 0.000000 0.000000 0.000000 0.050743
#
#
# Mechanical properties :
#
#
# Convention : Reuss Voigt Hill
#
# Bulk Modulus (GPa) = 65.43492 67.59065 66.51278
# Shear Modulus (GPa) = 19.51412 20.31504 19.91458
#
# Velocity S-wave (km/s) = 3.58189 3.65465 3.61845
# Velocity P-wave (km/s) = 7.75422 7.88970 7.82225
#
# Compressibility (1/GPa) = 0.01528236
#
# Stress axis : x y z
#
# Youngs Moduli (GPa) = 46.74338 46.74338 43.54624
#
# Poissons Ratio (x) = 0.18595 0.46281
# Poissons Ratio (y) = 0.18595 0.46281
# Poissons Ratio (z) = 0.49679 0.49679
#
# Static dielectric constant tensor:
#      x y z
#    x 2.756590 0.000000 0.000000 
#    y 0.000000 2.756590 0.000000 
#    z 0.000000 0.000000 3.264840 
# 
# 
# High freq. dielectric constant tensor:
#      x y z
#    x 1.563360 0.000000 0.000000 
#    y 0.000000 1.563360 0.000000 
#    z 0.000000 0.000000 1.596770 
# 
# From -- ./inp_files/4100.got.cif
#   From: 2010.03.12/outbox.cif.g09.slc.cpg/sg186_3_cif.got.tgz:4100.got - 2010.04.01 11:56:34.
