data_PCOD8326348
_publ_section_title
;
Structure prediction by ZEFSAII (Michael W. Deem and Ramdas Pophale) SiO2 
 PCOD8326348
Probable space group: P 64 2 2
;
_chemical_formula_sum "Si O2"
_cell_formula_units_Z 54
_cell_length_a 12.488659
_cell_length_b 12.488659
_cell_length_c 19.071525
_cell_angle_alpha 90.000000
_cell_angle_beta 90.000000
_cell_angle_gamma 120.000000
_cell_volume 2576.010733
_symmetry_space_group_name_H-M "P 64 2 2"
_symmetry_group_IT_number 181
_symmetry_cell_setting 'hexagonal'
loop_
_space_group_symop_operation_xyz
x,y,z
x-y,x,2/3+z
-y,x-y,1/3+z
-x,-y,z
-x+y,-x,2/3+z
y,-x+y,1/3+z
x-y,-y,-z
-x,-x+y,2/3-z
y,x,1/3-z
-y,-x,1/3-z
-x+y,y,-z
x,x-y,2/3-z
loop_
_atom_site_type_symbol
_atom_site_label
_atom_site_fract_x
_atom_site_fract_y
_atom_site_fract_z
Si Si1 0.187996 0.325351 0.647231
Si Si2 0.116290 0.836062 0.870870
Si Si3 0.674176 0.408748 0.392162
Si Si4 0.803553 0.901777 0.833334
Si Si5 0.483493 0.868523 0.151907
O O1 0.300603 0.300603 0.666667
O O2 0.091083 0.264400 0.711849
O O3 0.232034 0.468187 0.650289
O O4 0.131706 0.279428 0.570319
O O5 0.252114 0.858602 0.852858
O O6 0.000000 0.716786 0.833334
O O7 0.111075 0.952215 0.838596
O O8 0.606721 0.303361 0.333334
O O9 0.758522 0.377342 0.440488
O O10 0.566237 0.414284 0.434816
O O11 0.500000 0.000000 0.126769
#
# Coordination Sequence:
#
# PCOD8326348 Si02
#       5
#    12  12  12   6  12
#     4  10  20  38  66  95 123 165 213 274 330 380
#     4  11  23  41  64  95 135 175 211 261 336 398
#     4  11  22  39  62  92 122 157 217 275 316 373
#     4  10  21  40  64 100 126 158 219 274 315 386
#     4  11  23  42  65  91 125 167 214 269 322 389
#
# _framework density 20.962645999999999
#
# number of rings (size 3 to 8) (size 9 to 14) (size 15 to 20)
#    0.000    1.333    2.222    5.667    0.000    0.889 
#    8.000    5.556    0.000    0.000    0.000    0.000 
#    0.000    0.000    0.000    0.000    0.000    0.000 
#
# Total GULP energy -669116.837063 kJ/mol
# GULP energy per Si atom -12391.052538 kJ/mol
# Density = 2.091493 g / cm^3
# Si number density = 20.962646 Si / 1000 Ang^3
#
#
#
# Elastic Constant Matrix: (Units=GPa)
#
#
# Indices 1 2 3 4 5 6 
#
# 1 79.0241 38.3775 38.8481 0.0000 0.0000 0.0000
# 2 38.3775 79.0241 38.8481 0.0000 0.0000 0.0000
# 3 38.8481 38.8481 149.6211 0.0000 0.0000 0.0000
# 4 0.0000 0.0000 0.0000 13.9299 0.0000 0.0000
# 5 0.0000 0.0000 0.0000 0.0000 13.9299 0.0000
# 6 0.0000 0.0000 0.0000 0.0000 0.0000 20.3233
#
#
#
# Elastic Compliance Matrix: (Units=1/GPa)
#
#
# Indices 1 2 3 4 5 6 
#
# 1 0.017444 -0.007159 -0.002670 0.000000 0.000000 0.000000
# 2 -0.007159 0.017444 -0.002670 0.000000 0.000000 0.000000
# 3 -0.002670 -0.002670 0.008070 0.000000 0.000000 0.000000
# 4 0.000000 0.000000 0.000000 0.071788 0.000000 0.000000
# 5 0.000000 0.000000 0.000000 0.000000 0.071788 0.000000
# 6 0.000000 0.000000 0.000000 0.000000 0.000000 0.049204
#
#
# Mechanical properties :
#
#
# Convention : Reuss Voigt Hill
#
# Bulk Modulus (GPa) = 55.68354 59.97961 57.83158
# Shear Modulus (GPa) = 18.74604 22.40970 20.57787
#
# Velocity S-wave (km/s) = 2.99366 3.27315 3.13652
# Velocity P-wave (km/s) = 6.21049 6.55434 6.38473
#
# Compressibility (1/GPa) = 0.01795863
#
# Stress axis : x y z
#
# Youngs Moduli (GPa) = 57.32743 57.32743 123.91156
#
# Poissons Ratio (x) = 0.41038 0.33090
# Poissons Ratio (y) = 0.41038 0.33090
# Poissons Ratio (z) = 0.15309 0.15309
#
# Static dielectric constant tensor:
#      x y z
#    x 3.938890 0.000000 0.000000 
#    y 0.000000 3.938890 0.000000 
#    z 0.000000 0.000000 4.254150 
# 
# 
# High freq. dielectric constant tensor:
#      x y z
#    x 1.807630 0.000000 0.000000 
#    y 0.000000 1.807630 0.000000 
#    z 0.000000 0.000000 1.842430 
# 
# From -- ./inp_files/8753.got.cif
#   From: 2010.03.12/outbox.cif.g09.slc.cpg/sg181_5_cif.got.tgz:8753.got - 2010.04.01 11:42:41.
