data_PCOD8326723
_publ_section_title
;
Structure prediction by ZEFSAII (Michael W. Deem and Ramdas Pophale) SiO2 
 PCOD8326723
Probable space group: P 63 M C
;
_chemical_formula_sum "Si O2"
_cell_formula_units_Z 84
_cell_length_a 17.878790
_cell_length_b 17.878790
_cell_length_c 19.996779
_cell_angle_alpha 90.000000
_cell_angle_beta 90.000000
_cell_angle_gamma 120.000000
_cell_volume 5535.628354
_symmetry_space_group_name_H-M "P 63 M C"
_symmetry_group_IT_number 186
_symmetry_cell_setting 'hexagonal'
loop_
_space_group_symop_operation_xyz
x,y,z
x-y,x,1/2+z
-y,x-y,z
-x,-y,1/2+z
-x+y,-x,z
y,-x+y,1/2+z
-x+y,y,z
x,x-y,z
-y,-x,z
y,x,1/2+z
x-y,-y,1/2+z
-x,-x+y,1/2+z
loop_
_atom_site_type_symbol
_atom_site_label
_atom_site_fract_x
_atom_site_fract_y
_atom_site_fract_z
Si Si1 0.308048 0.444567 0.032820
Si Si2 0.497305 0.336640 0.675151
Si Si3 0.068467 0.309456 0.226237
Si Si4 0.164967 0.499894 0.886884
Si Si5 0.170982 0.001258 0.116347
Si Si6 0.220908 0.954980 0.988429
Si Si7 0.240940 0.306486 0.845319
O O1 0.212890 0.425780 0.050959
O O2 0.363243 0.489313 0.098923
O O3 0.345477 0.503323 0.967233
O O4 0.302181 0.352587 0.018429
O O5 0.518206 0.259103 0.678778
O O6 0.577877 0.422124 0.707571
O O7 0.409364 0.311677 0.714668
O O8 0.149891 0.299782 0.247081
O O9 0.025293 0.255687 0.158754
O O10 0.998988 0.270722 0.284243
O O11 0.261051 0.522102 0.867180
O O12 0.147833 0.573917 0.856573
O O13 0.096663 0.407078 0.857090
O O14 0.182802 0.091401 0.142379
O O15 0.070952 0.929049 0.123353
O O16 0.199569 0.012635 0.038075
O O17 0.142217 0.857784 0.984635
O O18 0.239311 0.987397 0.911433
O O19 0.146791 0.293581 0.829823
#
# Coordination Sequence:
#
# PCOD8326723 Si02
#       7
#    12  12  12  12  12  12  12
#     4   8  13  24  40  60  86 113 137 164 205 254
#     4  10  18  28  43  63  87 114 144 177 214 257
#     4  10  20  32  45  61  86 116 145 178 217 259
#     4   9  16  25  41  64  91 118 144 174 208 251
#     4  10  18  29  46  66  87 111 142 179 215 254
#     4   8  14  27  44  61  84 110 138 173 210 248
#     4   9  18  31  46  63  85 116 148 177 212 255
#
# _framework density 15.174429999999999
#
# number of rings (size 3 to 8) (size 9 to 14) (size 15 to 20)
#    0.000    2.857    1.429    3.000    0.000    1.143 
#    0.000    1.429    0.000    0.286    0.000    0.000 
#    0.000    0.000    0.000    0.000    0.000    1.429 
#
# Total GULP energy -1040767.347456 kJ/mol
# GULP energy per Si atom -12390.087470 kJ/mol
# Density = 1.513989 g / cm^3
# Si number density = 15.174430 Si / 1000 Ang^3
#
#
#
# Elastic Constant Matrix: (Units=GPa)
#
#
# Indices 1 2 3 4 5 6 
#
# 1 74.3246 38.3999 38.4291 0.0000 0.0000 0.0000
# 2 38.3999 74.3246 38.4291 0.0000 0.0000 0.0000
# 3 38.4291 38.4291 84.5101 0.0000 0.0000 0.0000
# 4 0.0000 0.0000 0.0000 15.2892 0.0000 0.0000
# 5 0.0000 0.0000 0.0000 0.0000 15.2892 0.0000
# 6 0.0000 0.0000 0.0000 0.0000 0.0000 17.9624
#
#
#
# Elastic Compliance Matrix: (Units=1/GPa)
#
#
# Indices 1 2 3 4 5 6 
#
# 1 0.020347 -0.007489 -0.005847 0.000000 0.000000 0.000000
# 2 -0.007489 0.020347 -0.005847 0.000000 0.000000 0.000000
# 3 -0.005847 -0.005847 0.017150 0.000000 0.000000 0.000000
# 4 0.000000 0.000000 0.000000 0.065405 0.000000 0.000000
# 5 0.000000 0.000000 0.000000 0.000000 0.065405 0.000000
# 6 0.000000 0.000000 0.000000 0.000000 0.000000 0.055672
#
#
# Mechanical properties :
#
#
# Convention : Reuss Voigt Hill
#
# Bulk Modulus (GPa) = 51.33840 51.51951 51.42895
# Shear Modulus (GPa) = 17.28997 17.56824 17.42911
#
# Velocity S-wave (km/s) = 3.37918 3.40627 3.39275
# Velocity P-wave (km/s) = 7.00934 7.03530 7.02233
#
# Compressibility (1/GPa) = 0.01947860
#
# Stress axis : x y z
#
# Youngs Moduli (GPa) = 49.14777 49.14777 58.30818
#
# Poissons Ratio (x) = 0.36808 0.34091
# Poissons Ratio (y) = 0.36808 0.34091
# Poissons Ratio (z) = 0.28735 0.28735
#
# Static dielectric constant tensor:
#      x y z
#    x 2.714910 0.000000 0.000000 
#    y 0.000000 2.714910 0.000000 
#    z 0.000000 0.000000 2.866050 
# 
# 
# High freq. dielectric constant tensor:
#      x y z
#    x 1.562380 0.000000 0.000000 
#    y 0.000000 1.562380 0.000000 
#    z 0.000000 0.000000 1.571040 
# 
# From -- ./inp_files/3472.got.cif
#   From: 2010.03.12/outbox.cif.g09.slc.cpg/sg186_2_cif.got.tgz:3472.got - 2010.04.01 11:56:34.
