data_PCOD8326596
_publ_section_title
;
Structure prediction by ZEFSAII (Michael W. Deem and Ramdas Pophale) SiO2 
 PCOD8326596
Probable space group: P 6 C C
;
_chemical_formula_sum "Si O2"
_cell_formula_units_Z 60
_cell_length_a 13.615755
_cell_length_b 13.615755
_cell_length_c 17.168261
_cell_angle_alpha 90.000000
_cell_angle_beta 90.000000
_cell_angle_gamma 120.000000
_cell_volume 2756.388283
_symmetry_space_group_name_H-M "P 6 C C"
_symmetry_group_IT_number 184
_symmetry_cell_setting 'hexagonal'
loop_
_space_group_symop_operation_xyz
x,y,z
x-y,x,z
-y,x-y,z
-x,-y,z
-x+y,-x,z
y,-x+y,z
-x+y,y,1/2+z
x,x-y,1/2+z
-y,-x,1/2+z
y,x,1/2+z
x-y,-y,1/2+z
-x,-x+y,1/2+z
loop_
_atom_site_type_symbol
_atom_site_label
_atom_site_fract_x
_atom_site_fract_y
_atom_site_fract_z
Si Si1 0.813341 0.204901 0.770380
Si Si2 0.381615 0.391078 0.541448
Si Si3 0.227655 0.697435 0.623823
Si Si4 0.604495 0.621850 0.859284
Si Si5 0.823702 0.746347 0.129032
O O1 0.794811 0.289077 0.714428
O O2 0.929295 0.280509 0.816240
O O3 0.816735 0.105551 0.719661
O O4 0.712893 0.144477 0.833116
O O5 0.500000 0.500000 0.564313
O O6 0.287232 0.423134 0.573013
O O7 0.366367 0.369026 0.450337
O O8 0.364346 0.276026 0.583551
O O9 0.211074 0.571682 0.606948
O O10 0.500000 0.500000 0.837691
O O11 0.794466 0.842219 0.104286
#
# Coordination Sequence:
#
# PCOD8326596 Si02
#       5
#    12  12  12  12  12
#     4  12  22  44  70 102 138 187 238 301 358 430
#     4  11  25  44  69 103 144 187 234 294 367 444
#     4  10  22  39  72 103 134 181 235 285 351 434
#     4  11  27  44  69 103 148 192 232 298 380 442
#     4  12  25  45  72 102 134 187 247 301 352 424
#
# _framework density 21.767616
#
# number of rings (size 3 to 8) (size 9 to 14) (size 15 to 20)
#    0.400    0.400    4.000    2.600    2.800    3.200 
#    1.200    0.000    0.000    0.000    0.000    0.000 
#    0.000    0.000    0.000    0.000    0.000    0.000 
#
# Total GULP energy -743446.786646 kJ/mol
# GULP energy per Si atom -12390.779777 kJ/mol
# Density = 2.171807 g / cm^3
# Si number density = 21.767616 Si / 1000 Ang^3
#
#
#
# Elastic Constant Matrix: (Units=GPa)
#
#
# Indices 1 2 3 4 5 6 
#
# 1 120.1370 52.7800 45.8818 0.0000 0.0000 0.0000
# 2 52.7800 120.1370 45.8818 0.0000 0.0000 0.0000
# 3 45.8818 45.8818 96.8190 0.0000 0.0000 0.0000
# 4 0.0000 0.0000 0.0000 33.3165 0.0000 0.0000
# 5 0.0000 0.0000 0.0000 0.0000 33.3165 0.0000
# 6 0.0000 0.0000 0.0000 0.0000 0.0000 33.6785
#
#
#
# Elastic Compliance Matrix: (Units=1/GPa)
#
#
# Indices 1 2 3 4 5 6 
#
# 1 0.011286 -0.003560 -0.003661 0.000000 0.000000 0.000000
# 2 -0.003560 0.011286 -0.003661 0.000000 0.000000 0.000000
# 3 -0.003661 -0.003661 0.013799 0.000000 0.000000 0.000000
# 4 0.000000 0.000000 0.000000 0.030015 0.000000 0.000000
# 5 0.000000 0.000000 0.000000 0.000000 0.030015 0.000000
# 6 0.000000 0.000000 0.000000 0.000000 0.000000 0.029693
#
#
# Mechanical properties :
#
#
# Convention : Reuss Voigt Hill
#
# Bulk Modulus (GPa) = 68.46708 69.57561 69.02135
# Shear Modulus (GPa) = 32.73794 32.89894 32.81844
#
# Velocity S-wave (km/s) = 3.88232 3.89185 3.88709
# Velocity P-wave (km/s) = 7.18460 7.22687 7.20577
#
# Compressibility (1/GPa) = 0.01460556
#
# Stress axis : x y z
#
# Youngs Moduli (GPa) = 88.60383 88.60383 72.47044
#
# Poissons Ratio (x) = 0.31544 0.26534
# Poissons Ratio (y) = 0.31544 0.26534
# Poissons Ratio (z) = 0.32441 0.32441
#
# Static dielectric constant tensor:
#      x y z
#    x 4.121720 0.000000 0.000000 
#    y 0.000000 4.121720 0.000000 
#    z 0.000000 0.000000 3.681890 
# 
# 
# High freq. dielectric constant tensor:
#      x y z
#    x 1.873030 0.000000 0.000000 
#    y 0.000000 1.873030 0.000000 
#    z 0.000000 0.000000 1.833560 
# 
# From -- ./inp_files/825.got.cif
#   From: 2010.03.12/outbox.cif.g09.slc.cpg/sg184_cif.got.tgz:825.got - 2010.04.01 11:54:36.
