data_PCOD8326362
_publ_section_title
;
Structure prediction by ZEFSAII (Michael W. Deem and Ramdas Pophale) SiO2 
 PCOD8326362
Probable space group: P 64 2 2
;
_chemical_formula_sum "Si O2"
_cell_formula_units_Z 60
_cell_length_a 10.499308
_cell_length_b 10.499308
_cell_length_c 27.047259
_cell_angle_alpha 90.000000
_cell_angle_beta 90.000000
_cell_angle_gamma 120.000000
_cell_volume 2582.112996
_symmetry_space_group_name_H-M "P 64 2 2"
_symmetry_group_IT_number 181
_symmetry_cell_setting 'hexagonal'
loop_
_space_group_symop_operation_xyz
x,y,z
x-y,x,2/3+z
-y,x-y,1/3+z
-x,-y,z
-x+y,-x,2/3+z
y,-x+y,1/3+z
x-y,-y,-z
-x,-x+y,2/3-z
y,x,1/3-z
-y,-x,1/3-z
-x+y,y,-z
x,x-y,2/3-z
loop_
_atom_site_type_symbol
_atom_site_label
_atom_site_fract_x
_atom_site_fract_y
_atom_site_fract_z
Si Si1 0.312747 0.312747 0.166667
Si Si2 0.167268 0.876872 0.321472
Si Si3 0.129965 0.167608 0.897844
Si Si4 0.659228 0.534624 0.259147
Si Si5 0.193120 0.806881 0.166667
Si Si6 0.836630 0.465626 0.407971
O O1 0.334802 0.450516 0.199140
O O2 0.197755 0.276460 0.122698
O O3 0.196136 0.018723 0.288790
O O4 0.240558 0.921955 0.375458
O O5 0.214910 0.772346 0.292704
O O6 0.000000 0.785066 0.333334
O O7 0.279465 0.218495 0.868445
O O8 0.000000 0.000000 0.887914
O O9 0.500000 0.500000 0.277796
O O10 0.713229 0.417406 0.268883
O O11 0.332789 0.843343 0.132227
O O12 0.000000 0.500000 0.392833
#
# Coordination Sequence:
#
# PCOD8326362 Si02
#       6
#     6  12  12  12   6  12
#     4  12  24  44  70  96 146 194 234 296 386 470
#     4  11  24  45  74 109 140 196 255 316 382 468
#     4  11  21  40  69 107 143 173 235 312 376 438
#     4  12  28  47  68 102 150 197 255 314 396 456
#     4  10  21  38  67 104 136 178 240 304 361 434
#     4  11  23  44  75 102 142 198 261 307 374 477
#
# _framework density 23.236785000000001
#
# number of rings (size 3 to 8) (size 9 to 14) (size 15 to 20)
#    0.000    0.800    4.000    3.300    2.800    2.800 
#    7.200    2.000    0.000    0.000    0.000    0.000 
#    0.000    0.000    0.000    0.000    0.000    0.000 
#
# Total GULP energy -743344.189284 kJ/mol
# GULP energy per Si atom -12389.069821 kJ/mol
# Density = 2.318390 g / cm^3
# Si number density = 23.236785 Si / 1000 Ang^3
#
#
#
# Elastic Constant Matrix: (Units=GPa)
#
#
# Indices 1 2 3 4 5 6 
#
# 1 84.0673 19.9413 23.3946 0.0000 0.0000 0.0000
# 2 19.9413 84.0673 23.3946 0.0000 0.0000 0.0000
# 3 23.3946 23.3946 142.8327 0.0000 0.0000 0.0000
# 4 0.0000 0.0000 0.0000 70.0873 0.0000 0.0000
# 5 0.0000 0.0000 0.0000 0.0000 70.0873 0.0000
# 6 0.0000 0.0000 0.0000 0.0000 0.0000 32.0630
#
#
#
# Elastic Compliance Matrix: (Units=1/GPa)
#
#
# Indices 1 2 3 4 5 6 
#
# 1 0.012987 -0.002607 -0.001700 0.000000 0.000000 0.000000
# 2 -0.002607 0.012987 -0.001700 0.000000 0.000000 0.000000
# 3 -0.001700 -0.001700 0.007558 0.000000 0.000000 0.000000
# 4 0.000000 0.000000 0.000000 0.014268 0.000000 0.000000
# 5 0.000000 0.000000 0.000000 0.000000 0.014268 0.000000
# 6 0.000000 0.000000 0.000000 0.000000 0.000000 0.031189
#
#
# Mechanical properties :
#
#
# Convention : Reuss Voigt Hill
#
# Bulk Modulus (GPa) = 46.47560 49.38094 47.92827
# Shear Modulus (GPa) = 44.46678 50.72997 47.59837
#
# Velocity S-wave (km/s) = 4.37926 4.67751 4.53084
# Velocity P-wave (km/s) = 6.75388 7.10419 6.93125
#
# Compressibility (1/GPa) = 0.02151667
#
# Stress axis : x y z
#
# Youngs Moduli (GPa) = 77.00111 77.00111 132.30845
#
# Poissons Ratio (x) = 0.20078 0.22493
# Poissons Ratio (y) = 0.20078 0.22493
# Poissons Ratio (z) = 0.13090 0.13090
#
# Static dielectric constant tensor:
#      x y z
#    x 3.877900 0.000000 0.000000 
#    y 0.000000 3.877900 0.000000 
#    z 0.000000 0.000000 5.278320 
# 
# 
# High freq. dielectric constant tensor:
#      x y z
#    x 1.906460 0.000000 0.000000 
#    y 0.000000 1.906460 0.000000 
#    z 0.000000 0.000000 1.948690 
# 
# From -- ./inp_files/11239.got.cif
#   From: 2010.03.12/outbox.cif.g09.slc.cpg/sg181_6_cif.got.tgz:11239.got - 2010.04.01 11:42:41.
