data_PCOD8326745
_publ_section_title
;
Structure prediction by ZEFSAII (Michael W. Deem and Ramdas Pophale) SiO2 
 PCOD8326745
Probable space group: P 63 M C
;
_chemical_formula_sum "Si O2"
_cell_formula_units_Z 72
_cell_length_a 22.062103
_cell_length_b 22.062103
_cell_length_c 10.318423
_cell_angle_alpha 90.000000
_cell_angle_beta 90.000000
_cell_angle_gamma 120.000000
_cell_volume 4349.484375
_symmetry_space_group_name_H-M "P 63 M C"
_symmetry_group_IT_number 186
_symmetry_cell_setting 'hexagonal'
loop_
_space_group_symop_operation_xyz
x,y,z
x-y,x,1/2+z
-y,x-y,z
-x,-y,1/2+z
-x+y,-x,z
y,-x+y,1/2+z
-x+y,y,z
x,x-y,z
-y,-x,z
y,x,1/2+z
x-y,-y,1/2+z
-x,-x+y,1/2+z
loop_
_atom_site_type_symbol
_atom_site_label
_atom_site_fract_x
_atom_site_fract_y
_atom_site_fract_z
Si Si1 0.471654 0.666148 0.625000
Si Si2 0.213342 0.927240 0.778121
Si Si3 0.222854 0.920160 0.278120
Si Si4 0.880079 0.261593 0.521166
Si Si5 0.119922 0.381514 0.535073
Si Si6 0.194494 0.666148 0.931242
O O1 0.458301 0.729151 0.585180
O O2 0.405818 0.594183 0.577049
O O3 0.540805 0.672293 0.556577
O O4 0.482595 0.666924 0.778121
O O5 0.130087 0.869914 0.778124
O O6 0.252611 0.921605 0.652900
O O7 0.227862 0.007056 0.778120
O O8 0.252614 0.921607 0.903339
O O9 0.142833 0.857168 0.278120
O O10 0.266993 0.919297 0.154782
O O11 0.266993 0.919298 0.401458
O O12 0.803634 0.196367 0.525009
O O13 0.868512 0.327708 0.499665
O O14 0.196368 0.392735 0.531224
O O15 0.188365 0.594183 0.979193
O O16 0.270850 0.729151 0.971062
#
# Coordination Sequence:
#
# PCOD8326745 Si02
#       6
#    12  12  12  12  12  12
#     4   9  15  25  44  69  95 123 161 205 244 276
#     4  10  18  32  53  72  91 117 153 191 225 271
#     4  10  20  32  49  72  97 121 149 187 233 281
#     4   9  17  30  47  69  94 123 156 192 232 273
#     4   9  17  30  47  69  94 123 156 192 232 273
#     4   9  15  25  44  69  95 123 161 205 244 276
#
# _framework density 16.553685999999999
#
# number of rings (size 3 to 8) (size 9 to 14) (size 15 to 20)
#    0.000    2.667    1.667    1.333    0.000    1.333 
#    0.000    0.833    0.000    6.333    0.000    2.333 
#    0.000    8.000    0.000    0.000    0.000    1.333 
#
# Total GULP energy -892275.026124 kJ/mol
# GULP energy per Si atom -12392.708696 kJ/mol
# Density = 1.651601 g / cm^3
# Si number density = 16.553686 Si / 1000 Ang^3
#
#
#
# Elastic Constant Matrix: (Units=GPa)
#
#
# Indices 1 2 3 4 5 6 
#
# 1 99.2160 57.4837 35.7554 0.0000 0.0000 0.0000
# 2 57.4837 99.2160 35.7554 0.0000 0.0000 0.0000
# 3 35.7554 35.7554 107.2326 0.0000 0.0000 0.0000
# 4 0.0000 0.0000 0.0000 21.4149 0.0000 0.0000
# 5 0.0000 0.0000 0.0000 0.0000 21.4149 0.0000
# 6 0.0000 0.0000 0.0000 0.0000 0.0000 20.8661
#
#
#
# Elastic Compliance Matrix: (Units=1/GPa)
#
#
# Indices 1 2 3 4 5 6 
#
# 1 0.015745 -0.008218 -0.002510 0.000000 0.000000 0.000000
# 2 -0.008218 0.015745 -0.002510 0.000000 0.000000 0.000000
# 3 -0.002510 -0.002510 0.010999 0.000000 0.000000 0.000000
# 4 0.000000 0.000000 0.000000 0.046696 0.000000 0.000000
# 5 0.000000 0.000000 0.000000 0.000000 0.046696 0.000000
# 6 0.000000 0.000000 0.000000 0.000000 0.000000 0.047925
#
#
# Mechanical properties :
#
#
# Convention : Reuss Voigt Hill
#
# Bulk Modulus (GPa) = 62.44506 62.62819 62.53663
# Shear Modulus (GPa) = 23.18914 24.51721 23.85317
#
# Velocity S-wave (km/s) = 3.74685 3.85265 3.80011
# Velocity P-wave (km/s) = 7.51819 7.59645 7.55742
#
# Compressibility (1/GPa) = 0.01601408
#
# Stress axis : x y z
#
# Youngs Moduli (GPa) = 63.51374 63.51374 90.91543
#
# Poissons Ratio (x) = 0.52193 0.22818
# Poissons Ratio (y) = 0.52193 0.22818
# Poissons Ratio (z) = 0.15941 0.15941
#
# Static dielectric constant tensor:
#      x y z
#    x 3.072260 0.000000 0.000000 
#    y 0.000000 3.072260 0.000000 
#    z 0.000000 0.000000 5.218040 
# 
# 
# High freq. dielectric constant tensor:
#      x y z
#    x 1.621030 0.000000 0.000000 
#    y 0.000000 1.621030 0.000000 
#    z 0.000000 0.000000 1.633980 
# 
# From -- ./inp_files/1218.got.cif
#   From: 2010.03.12/outbox.cif.g09.slc.cpg/sg186_1_cif.got.tgz:1218.got - 2010.04.01 11:56:34.
