data_PCOD8326642
_publ_section_title
;
Structure prediction by ZEFSAII (Michael W. Deem and Ramdas Pophale) SiO2 
 PCOD8326642
Probable space group: P 63 C M
;
_chemical_formula_sum "Si O2"
_cell_formula_units_Z 60
_cell_length_a 13.782310
_cell_length_b 13.782310
_cell_length_c 19.067634
_cell_angle_alpha 90.000000
_cell_angle_beta 90.000000
_cell_angle_gamma 120.000000
_cell_volume 3136.689044
_symmetry_space_group_name_H-M "P 63 C M"
_symmetry_group_IT_number 185
_symmetry_cell_setting 'hexagonal'
loop_
_space_group_symop_operation_xyz
x,y,z
x-y,x,1/2+z
-y,x-y,z
-x,-y,1/2+z
-x+y,-x,z
y,-x+y,1/2+z
-x+y,y,1/2+z
x,x-y,1/2+z
-y,-x,1/2+z
y,x,z
x-y,-y,z
-x,-x+y,z
loop_
_atom_site_type_symbol
_atom_site_label
_atom_site_fract_x
_atom_site_fract_y
_atom_site_fract_z
Si Si1 0.790066 0.128155 0.635110
Si Si2 0.432700 0.872469 0.635110
Si Si3 0.290426 0.419221 0.018245
Si Si4 0.871206 0.580779 0.251975
Si Si5 0.477121 0.738560 0.385110
O O1 0.681551 0.143206 0.635110
O O2 0.861484 0.188611 0.565851
O O3 0.861484 0.188611 0.704369
O O4 0.759160 0.000000 0.635110
O O5 0.358944 0.824312 0.564033
O O6 0.358944 0.824311 0.706187
O O7 0.462173 0.000000 0.635110
O O8 0.367924 0.367924 0.993192
O O9 0.232770 0.443942 0.952611
O O10 0.788828 0.556058 0.317609
O O11 0.000000 0.632075 0.277027
O O12 0.397428 0.794857 0.385110
#
# Coordination Sequence:
#
# PCOD8326642 Si02
#       5
#    12  12  12  12  12
#     4  10  19  33  55  79 101 131 173 218 264 312
#     4   8  16  31  52  75 100 131 166 212 259 308
#     4  10  20  35  53  76 107 140 175 215 264 315
#     4  10  20  35  53  76 107 140 175 215 264 315
#     4  10  22  34  49  80 109 146 180 216 258 316
#
# _framework density 19.128450999999998
#
# number of rings (size 3 to 8) (size 9 to 14) (size 15 to 20)
#    0.400    2.000    0.000    4.200    0.000    2.400 
#    9.600    0.000    0.000    3.200    0.000    1.400 
#    0.000    0.000    0.000    0.000    0.000    0.000 
#
# Total GULP energy -743521.997643 kJ/mol
# GULP energy per Si atom -12392.033294 kJ/mol
# Density = 1.908491 g / cm^3
# Si number density = 19.128451 Si / 1000 Ang^3
#
#
#
# Elastic Constant Matrix: (Units=GPa)
#
#
# Indices 1 2 3 4 5 6 
#
# 1 59.7604 11.2868 30.5384 0.0000 0.0000 0.0000
# 2 11.2868 59.7604 30.5384 0.0000 0.0000 0.0000
# 3 30.5384 30.5384 152.2375 0.0000 0.0000 0.0000
# 4 0.0000 0.0000 0.0000 19.7386 0.0000 0.0000
# 5 0.0000 0.0000 0.0000 0.0000 19.7386 0.0000
# 6 0.0000 0.0000 0.0000 0.0000 0.0000 24.2368
#
#
#
# Elastic Compliance Matrix: (Units=1/GPa)
#
#
# Indices 1 2 3 4 5 6 
#
# 1 0.018819 -0.001811 -0.003412 0.000000 0.000000 0.000000
# 2 -0.001811 0.018819 -0.003412 0.000000 0.000000 0.000000
# 3 -0.003412 -0.003412 0.007937 0.000000 0.000000 0.000000
# 4 0.000000 0.000000 0.000000 0.050662 0.000000 0.000000
# 5 0.000000 0.000000 0.000000 0.000000 0.050662 0.000000
# 6 0.000000 0.000000 0.000000 0.000000 0.000000 0.041260
#
#
# Mechanical properties :
#
#
# Convention : Reuss Voigt Hill
#
# Bulk Modulus (GPa) = 35.32744 46.27616 40.80180
# Shear Modulus (GPa) = 23.27059 26.03579 24.65319
#
# Velocity S-wave (km/s) = 3.49168 3.69332 3.59391
# Velocity P-wave (km/s) = 5.89614 6.51401 6.21276
#
# Compressibility (1/GPa) = 0.02830661
#
# Stress axis : x y z
#
# Youngs Moduli (GPa) = 53.13792 53.13792 125.98472
#
# Poissons Ratio (x) = 0.09622 0.42983
# Poissons Ratio (y) = 0.09622 0.42983
# Poissons Ratio (z) = 0.18129 0.18129
#
# Static dielectric constant tensor:
#      x y z
#    x 3.276940 0.000000 0.000000 
#    y 0.000000 3.276940 0.000000 
#    z 0.000000 0.000000 3.426290 
# 
# 
# High freq. dielectric constant tensor:
#      x y z
#    x 1.718720 0.000000 0.000000 
#    y 0.000000 1.718720 0.000000 
#    z 0.000000 0.000000 1.743760 
# 
# From -- ./inp_files/1895.got.cif
#   From: 2010.03.12/outbox.cif.g09.slc.cpg/sg185_cif.got.tgz:1895.got - 2010.04.01 11:55:19.
