data_PCOD8326319
_publ_section_title
;
Structure prediction by ZEFSAII (Michael W. Deem and Ramdas Pophale) SiO2 
 PCOD8326319
Probable space group: P 64 2 2
;
_chemical_formula_sum "Si O2"
_cell_formula_units_Z 60
_cell_length_a 15.433167
_cell_length_b 15.433167
_cell_length_c 15.199387
_cell_angle_alpha 90.000000
_cell_angle_beta 90.000000
_cell_angle_gamma 120.000000
_cell_volume 3135.211301
_symmetry_space_group_name_H-M "P 64 2 2"
_symmetry_group_IT_number 181
_symmetry_cell_setting 'hexagonal'
loop_
_space_group_symop_operation_xyz
x,y,z
x-y,x,2/3+z
-y,x-y,1/3+z
-x,-y,z
-x+y,-x,2/3+z
y,-x+y,1/3+z
x-y,-y,-z
-x,-x+y,2/3-z
y,x,1/3-z
-y,-x,1/3-z
-x+y,y,-z
x,x-y,2/3-z
loop_
_atom_site_type_symbol
_atom_site_label
_atom_site_fract_x
_atom_site_fract_y
_atom_site_fract_z
Si Si1 0.115875 0.557834 0.667018
Si Si2 0.380535 0.259542 0.071659
Si Si3 0.737378 0.630960 0.057925
Si Si4 0.434327 0.119245 0.003702
Si Si5 0.198074 0.612256 0.190890
O O1 0.161786 0.498899 0.719454
O O2 0.156712 0.669025 0.704710
O O3 0.134923 0.562295 0.563890
O O4 0.000000 0.500000 0.688233
O O5 0.314739 0.304398 0.031236
O O6 0.357278 0.235657 0.173578
O O7 0.353894 0.155206 0.023525
O O8 0.837486 0.674972 0.000000
O O9 0.517010 0.170470 0.081145
O O10 0.482213 0.162346 0.909033
O O11 0.383548 0.000000 0.000000
O O12 0.316622 0.683379 0.166667
#
# Coordination Sequence:
#
# PCOD8326319 Si02
#       5
#    12  12  12  12  12
#     4  10  19  34  55  80 114 150 188 239 292 349
#     4  10  21  38  56  84 116 144 198 241 287 363
#     4  10  21  36  59  85 111 151 188 245 305 349
#     4  11  23  39  57  81 118 161 198 239 291 354
#     4  11  21  36  55  83 116 152 196 242 278 348
#
# _framework density 19.137467000000001
#
# number of rings (size 3 to 8) (size 9 to 14) (size 15 to 20)
#    0.000    1.600    2.000    4.200    0.000    7.200 
#    0.000    0.000    0.000    0.600    0.000    2.800 
#    0.000    0.000    0.000    0.000    0.000    0.000 
#
# Total GULP energy -743690.088623 kJ/mol
# GULP energy per Si atom -12394.834810 kJ/mol
# Density = 1.909391 g / cm^3
# Si number density = 19.137467 Si / 1000 Ang^3
#
#
#
# Elastic Constant Matrix: (Units=GPa)
#
#
# Indices 1 2 3 4 5 6 
#
# 1 90.9979 48.8050 27.5298 0.0000 0.0000 0.0000
# 2 48.8050 90.9979 27.5298 0.0000 0.0000 0.0000
# 3 27.5298 27.5298 75.4876 0.0000 0.0000 0.0000
# 4 0.0000 0.0000 0.0000 30.2415 0.0000 0.0000
# 5 0.0000 0.0000 0.0000 0.0000 30.2415 0.0000
# 6 0.0000 0.0000 0.0000 0.0000 0.0000 21.0964
#
#
#
# Elastic Compliance Matrix: (Units=1/GPa)
#
#
# Indices 1 2 3 4 5 6 
#
# 1 0.016027 -0.007674 -0.003046 0.000000 0.000000 0.000000
# 2 -0.007674 0.016027 -0.003046 0.000000 0.000000 0.000000
# 3 -0.003046 -0.003046 0.015469 0.000000 0.000000 0.000000
# 4 0.000000 0.000000 0.000000 0.033067 0.000000 0.000000
# 5 0.000000 0.000000 0.000000 0.000000 0.033067 0.000000
# 6 0.000000 0.000000 0.000000 0.000000 0.000000 0.047401
#
#
# Mechanical properties :
#
#
# Convention : Reuss Voigt Hill
#
# Bulk Modulus (GPa) = 50.02576 51.69025 50.85801
# Shear Modulus (GPa) = 25.60770 26.55715 26.08243
#
# Velocity S-wave (km/s) = 3.66196 3.72923 3.69575
# Velocity P-wave (km/s) = 6.63905 6.75363 6.69658
#
# Compressibility (1/GPa) = 0.01998970
#
# Stress axis : x y z
#
# Youngs Moduli (GPa) = 62.39606 62.39606 64.64532
#
# Poissons Ratio (x) = 0.47883 0.19692
# Poissons Ratio (y) = 0.47883 0.19692
# Poissons Ratio (z) = 0.19007 0.19007
#
# Static dielectric constant tensor:
#      x y z
#    x 3.509950 0.000000 0.000000 
#    y 0.000000 3.509950 0.000000 
#    z 0.000000 0.000000 3.518340 
# 
# 
# High freq. dielectric constant tensor:
#      x y z
#    x 1.726920 0.000000 0.000000 
#    y 0.000000 1.726920 0.000000 
#    z 0.000000 0.000000 1.755740 
# 
# From -- ./inp_files/6156.got.cif
#   From: 2010.03.12/outbox.cif.g09.slc.cpg/sg181_4_cif.got.tgz:6156.got - 2010.04.01 11:42:41.
