data_PCOD8326410
_publ_section_title
;
Structure prediction by ZEFSAII (Michael W. Deem and Ramdas Pophale) SiO2 
 PCOD8326410
Probable space group: P 64 2 2
;
_chemical_formula_sum "Si O2"
_cell_formula_units_Z 66
_cell_length_a 19.599185
_cell_length_b 19.599185
_cell_length_c 10.019147
_cell_angle_alpha 90.000000
_cell_angle_beta 90.000000
_cell_angle_gamma 120.000000
_cell_volume 3333.016049
_symmetry_space_group_name_H-M "P 64 2 2"
_symmetry_group_IT_number 181
_symmetry_cell_setting 'hexagonal'
loop_
_space_group_symop_operation_xyz
x,y,z
x-y,x,2/3+z
-y,x-y,1/3+z
-x,-y,z
-x+y,-x,2/3+z
y,-x+y,1/3+z
x-y,-y,-z
-x,-x+y,2/3-z
y,x,1/3-z
-y,-x,1/3-z
-x+y,y,-z
x,x-y,2/3-z
loop_
_atom_site_type_symbol
_atom_site_label
_atom_site_fract_x
_atom_site_fract_y
_atom_site_fract_z
Si Si1 0.310418 0.777454 0.037180
Si Si2 0.091850 0.867999 0.319339
Si Si3 0.783514 0.468608 0.876102
Si Si4 0.775097 0.775097 0.166667
Si Si5 0.290447 0.378015 0.705324
Si Si6 0.891456 0.267428 0.671708
O O1 0.277781 0.722220 0.166667
O O2 0.394828 0.789656 0.000000
O O3 0.250812 0.741334 0.915811
O O4 0.314238 0.860806 0.056506
O O5 0.109705 0.890296 0.166667
O O6 0.145325 0.939483 0.420862
O O7 0.111628 0.799874 0.351243
O O8 0.000000 0.840567 0.333334
O O9 0.799009 0.399505 0.833334
O O10 0.867586 0.546312 0.905905
O O11 0.722012 0.444024 0.000000
O O12 0.741862 0.704932 0.059075
O O13 0.349938 0.349938 0.666667
O O14 0.306731 0.398727 0.860620
O O15 0.819396 0.180605 0.666667
#
# Coordination Sequence:
#
# PCOD8326410 Si02
#       6
#    12  12  12   6  12  12
#     4  12  24  38  64  99 132 175 218 271 332 391
#     4  11  24  40  65  95 125 168 218 273 333 403
#     4  11  21  40  66  95 133 169 218 272 320 393
#     4  12  22  40  70  90 130 170 216 272 334 400
#     4  11  23  43  66  94 132 169 224 274 322 399
#     4  11  22  42  67  93 125 173 220 265 326 394
#
# _framework density 19.801884000000001
#
# number of rings (size 3 to 8) (size 9 to 14) (size 15 to 20)
#    0.000    0.727    5.455    4.909    0.000    1.818 
#    0.000    1.818    4.000    0.000    0.000    0.000 
#    0.000    0.000    0.000    0.000    0.000    0.000 
#
# Total GULP energy -818272.438581 kJ/mol
# GULP energy per Si atom -12398.067251 kJ/mol
# Density = 1.975681 g / cm^3
# Si number density = 19.801884 Si / 1000 Ang^3
#
#
#
# Elastic Constant Matrix: (Units=GPa)
#
#
# Indices 1 2 3 4 5 6 
#
# 1 103.3927 99.7261 46.9377 0.0000 0.0000 0.0000
# 2 99.7261 103.3927 46.9377 0.0000 0.0000 0.0000
# 3 46.9377 46.9377 118.6378 0.0000 0.0000 0.0000
# 4 0.0000 0.0000 0.0000 27.6033 0.0000 0.0000
# 5 0.0000 0.0000 0.0000 0.0000 27.6033 0.0000
# 6 0.0000 0.0000 0.0000 0.0000 0.0000 1.8333
#
#
#
# Elastic Compliance Matrix: (Units=1/GPa)
#
#
# Indices 1 2 3 4 5 6 
#
# 1 0.139376 -0.133352 -0.002384 0.000000 0.000000 0.000000
# 2 -0.133352 0.139376 -0.002384 0.000000 0.000000 0.000000
# 3 -0.002384 -0.002384 0.010315 0.000000 0.000000 0.000000
# 4 0.000000 0.000000 0.000000 0.036228 0.000000 0.000000
# 5 0.000000 0.000000 0.000000 0.000000 0.036228 0.000000
# 6 0.000000 0.000000 0.000000 0.000000 0.000000 0.545456
#
#
# Mechanical properties :
#
#
# Convention : Reuss Voigt Hill
#
# Bulk Modulus (GPa) = 77.94091 79.18069 78.56080
# Shear Modulus (GPa) = 4.21055 20.19611 12.20333
#
# Velocity S-wave (km/s) = 1.45978 3.19706 2.48517
# Velocity P-wave (km/s) = 6.50285 7.32813 6.92779
#
# Compressibility (1/GPa) = 0.01283023
#
# Stress axis : x y z
#
# Youngs Moduli (GPa) = 7.17482 7.17482 96.94461
#
# Poissons Ratio (x) = 0.95677 0.23108
# Poissons Ratio (y) = 0.95677 0.23108
# Poissons Ratio (z) = 0.01710 0.01710
#
# Static dielectric constant tensor:
#      x y z
#    x 3.948720 0.000000 0.000000 
#    y 0.000000 3.948720 0.000000 
#    z 0.000000 0.000000 3.886840 
# 
# 
# High freq. dielectric constant tensor:
#      x y z
#    x 1.772110 0.000000 0.000000 
#    y 0.000000 1.772110 0.000000 
#    z 0.000000 0.000000 1.789250 
# 
# From -- ./inp_files/3205.got.cif
#   From: 2010.03.12/outbox.cif.g09.slc.cpg/sg181_2_cif.got.tgz:3205.got - 2010.04.01 11:42:41.
