data_PCOD8326677
_publ_section_title
;
Structure prediction by ZEFSAII (Michael W. Deem and Ramdas Pophale) SiO2 
 PCOD8326677
Probable space group: P 63 C M
;
_chemical_formula_sum "Si O2"
_cell_formula_units_Z 60
_cell_length_a 14.553165
_cell_length_b 14.553165
_cell_length_c 15.426977
_cell_angle_alpha 90.000000
_cell_angle_beta 90.000000
_cell_angle_gamma 120.000000
_cell_volume 2829.608623
_symmetry_space_group_name_H-M "P 63 C M"
_symmetry_group_IT_number 185
_symmetry_cell_setting 'hexagonal'
loop_
_space_group_symop_operation_xyz
x,y,z
x-y,x,1/2+z
-y,x-y,z
-x,-y,1/2+z
-x+y,-x,z
y,-x+y,1/2+z
-x+y,y,1/2+z
x,x-y,1/2+z
-y,-x,1/2+z
y,x,z
x-y,-y,z
-x,-x+y,z
loop_
_atom_site_type_symbol
_atom_site_label
_atom_site_fract_x
_atom_site_fract_y
_atom_site_fract_z
Si Si1 0.763424 0.643334 0.867660
Si Si2 0.875886 0.125755 0.696940
Si Si3 0.195711 0.419120 0.545438
Si Si4 0.437492 0.558525 0.598440
Si Si5 0.352440 0.561208 0.281263
O O1 0.727334 0.727334 0.888440
O O2 0.842779 0.681994 0.785677
O O3 0.656922 0.529483 0.846113
O O4 0.820784 0.637861 0.953571
O O5 0.854416 0.183546 0.618047
O O6 0.000000 0.163183 0.699925
O O7 0.808857 0.000000 0.684492
O O8 0.317725 0.503700 0.566635
O O9 0.133087 0.483919 0.531944
O O10 0.466834 0.466834 0.611007
O O11 0.464755 0.630810 0.684118
O O12 0.445191 0.682487 0.296543
#
# Coordination Sequence:
#
# PCOD8326677 Si02
#       5
#    12  12  12  12  12
#     4  11  24  42  65  96 137 174 217 275 338 404
#     4  11  24  46  72  98 130 173 227 287 347 408
#     4  12  25  43  65  99 138 173 221 276 332 401
#     4  12  22  39  66  93 129 176 216 262 326 392
#     4  10  20  38  62  92 125 170 213 268 319 377
#
# _framework density 21.204346000000001
#
# number of rings (size 3 to 8) (size 9 to 14) (size 15 to 20)
#    0.400    0.400    4.000    3.600    2.800    1.600 
#    0.000    1.000    0.000    2.400    0.000    0.000 
#    0.000    0.000    0.000    0.000    0.000    0.000 
#
# Total GULP energy -743647.993655 kJ/mol
# GULP energy per Si atom -12394.133228 kJ/mol
# Density = 2.115608 g / cm^3
# Si number density = 21.204346 Si / 1000 Ang^3
#
#
#
# Elastic Constant Matrix: (Units=GPa)
#
#
# Indices 1 2 3 4 5 6 
#
# 1 82.2070 14.1624 12.9917 0.0000 0.0000 0.0000
# 2 14.1624 82.2070 12.9917 0.0000 0.0000 0.0000
# 3 12.9917 12.9917 104.2186 0.0000 0.0000 0.0000
# 4 0.0000 0.0000 0.0000 21.5548 0.0000 0.0000
# 5 0.0000 0.0000 0.0000 0.0000 21.5548 0.0000
# 6 0.0000 0.0000 0.0000 0.0000 0.0000 34.0223
#
#
#
# Elastic Compliance Matrix: (Units=1/GPa)
#
#
# Indices 1 2 3 4 5 6 
#
# 1 0.012717 -0.001979 -0.001339 0.000000 0.000000 0.000000
# 2 -0.001979 0.012717 -0.001339 0.000000 0.000000 0.000000
# 3 -0.001339 -0.001339 0.009929 0.000000 0.000000 0.000000
# 4 0.000000 0.000000 0.000000 0.046393 0.000000 0.000000
# 5 0.000000 0.000000 0.000000 0.000000 0.046393 0.000000
# 6 0.000000 0.000000 0.000000 0.000000 0.000000 0.029392
#
#
# Mechanical properties :
#
#
# Convention : Reuss Voigt Hill
#
# Bulk Modulus (GPa) = 38.38758 38.76933 38.57846
# Shear Modulus (GPa) = 28.48381 30.65882 29.57131
#
# Velocity S-wave (km/s) = 3.66908 3.80659 3.73847
# Velocity P-wave (km/s) = 6.00770 6.13543 6.07190
#
# Compressibility (1/GPa) = 0.02605009
#
# Stress axis : x y z
#
# Youngs Moduli (GPa) = 78.63523 78.63523 100.71570
#
# Poissons Ratio (x) = 0.15564 0.13481
# Poissons Ratio (y) = 0.15564 0.13481
# Poissons Ratio (z) = 0.10526 0.10526
#
# Static dielectric constant tensor:
#      x y z
#    x 3.796600 0.000000 0.000000 
#    y 0.000000 3.796600 0.000000 
#    z 0.000000 0.000000 3.830340 
# 
# 
# High freq. dielectric constant tensor:
#      x y z
#    x 1.830570 0.000000 0.000000 
#    y 0.000000 1.830570 0.000000 
#    z 0.000000 0.000000 1.828870 
# 
# From -- ./inp_files/1349.got.cif
#   From: 2010.03.12/outbox.cif.g09.slc.cpg/sg185_cif.got.tgz:1349.got - 2010.04.01 11:55:19.
