data_PCOD8326686
_publ_section_title
;
Structure prediction by ZEFSAII (Michael W. Deem and Ramdas Pophale) SiO2 
 PCOD8326686
Probable space group: P 63 C M
;
_chemical_formula_sum "Si O2"
_cell_formula_units_Z 96
_cell_length_a 14.511518
_cell_length_b 14.511518
_cell_length_c 24.268693
_cell_angle_alpha 90.000000
_cell_angle_beta 90.000000
_cell_angle_gamma 120.000000
_cell_volume 4425.911334
_symmetry_space_group_name_H-M "P 63 C M"
_symmetry_group_IT_number 185
_symmetry_cell_setting 'hexagonal'
loop_
_space_group_symop_operation_xyz
x,y,z
x-y,x,1/2+z
-y,x-y,z
-x,-y,1/2+z
-x+y,-x,z
y,-x+y,1/2+z
-x+y,y,1/2+z
x,x-y,1/2+z
-y,-x,1/2+z
y,x,z
x-y,-y,z
-x,-x+y,z
loop_
_atom_site_type_symbol
_atom_site_label
_atom_site_fract_x
_atom_site_fract_y
_atom_site_fract_z
Si Si1 0.875382 0.540771 0.162450
Si Si2 0.456585 0.281028 0.829089
Si Si3 0.230853 0.116430 0.456679
Si Si4 0.124618 0.459229 0.120775
Si Si5 0.230853 0.116430 0.326546
Si Si6 0.384966 0.503025 0.495803
Si Si7 0.118058 0.503025 0.787421
Si Si8 0.281028 0.456585 0.954136
O O1 0.784588 0.569175 0.141612
O O2 0.850052 0.425026 0.141612
O O3 0.862789 0.530538 0.227928
O O4 0.000000 0.630336 0.147098
O O5 0.339950 0.208717 0.802537
O O6 0.510454 0.207190 0.829396
O O7 0.511708 0.379832 0.787697
O O8 0.455118 0.319226 0.891612
O O9 0.201418 0.201418 0.482301
O O10 0.245576 0.133179 0.391612
O O11 0.339950 0.131233 0.480688
O O12 0.135137 0.000000 0.471442
O O13 0.137211 0.469462 0.055297
O O14 0.000000 0.369664 0.136127
O O15 0.201418 0.201418 0.300924
O O16 0.135137 0.000000 0.311783
O O17 0.418675 0.418675 0.474509
O O18 0.303264 0.510454 0.453828
O O19 0.488292 0.620168 0.495528
O O20 0.000000 0.418675 0.808716
#
# Coordination Sequence:
#
# PCOD8326686 Si02
#       8
#    12  12  12  12  12  12  12  12
#     4  10  21  39  65  93 120 152 193 250 316 378
#     4  11  22  35  52  77 113 156 197 235 278 335
#     4   9  17  30  49  72  99 136 184 235 281 324
#     4  10  21  39  65  93 120 152 193 250 316 378
#     4   9  17  30  49  72  99 136 184 235 281 324
#     4  11  23  38  57  82 113 150 192 239 292 350
#     4  11  23  38  57  82 113 150 192 239 292 350
#     4  11  22  35  52  77 113 156 197 235 278 335
#
# _framework density 21.690448
#
# number of rings (size 3 to 8) (size 9 to 14) (size 15 to 20)
#    0.000    1.750    0.000    4.750    0.000    5.000 
#    0.000    1.250    0.000    0.250    0.000    0.000 
#    0.000    0.000    0.000    0.000    0.000    1.000 
#
# Total GULP energy -1189524.423614 kJ/mol
# GULP energy per Si atom -12390.879413 kJ/mol
# Density = 2.164108 g / cm^3
# Si number density = 21.690448 Si / 1000 Ang^3
#
#
#
# Elastic Constant Matrix: (Units=GPa)
#
#
# Indices 1 2 3 4 5 6 
#
# 1 126.8709 57.0900 28.7021 0.0000 0.0000 0.0000
# 2 57.0900 126.8709 28.7021 0.0000 0.0000 0.0000
# 3 28.7021 28.7021 46.3465 0.0000 0.0000 0.0000
# 4 0.0000 0.0000 0.0000 8.1568 0.0000 0.0000
# 5 0.0000 0.0000 0.0000 0.0000 8.1568 0.0000
# 6 0.0000 0.0000 0.0000 0.0000 0.0000 34.8904
#
#
#
# Elastic Compliance Matrix: (Units=1/GPa)
#
#
# Indices 1 2 3 4 5 6 
#
# 1 0.010534 -0.003796 -0.004173 0.000000 0.000000 0.000000
# 2 -0.003796 0.010534 -0.004173 0.000000 0.000000 0.000000
# 3 -0.004173 -0.004173 0.026745 0.000000 0.000000 0.000000
# 4 0.000000 0.000000 0.000000 0.122597 0.000000 0.000000
# 5 0.000000 0.000000 0.000000 0.000000 0.122597 0.000000
# 6 0.000000 0.000000 0.000000 0.000000 0.000000 0.028661
#
#
# Mechanical properties :
#
#
# Convention : Reuss Voigt Hill
#
# Bulk Modulus (GPa) = 42.49932 58.78630 50.64281
# Shear Modulus (GPa) = 14.13247 22.61376 18.37311
#
# Velocity S-wave (km/s) = 2.55532 3.23238 2.91359
# Velocity P-wave (km/s) = 5.32375 6.41033 5.89214
#
# Compressibility (1/GPa) = 0.02352979
#
# Stress axis : x y z
#
# Youngs Moduli (GPa) = 94.92790 94.92790 37.39016
#
# Poissons Ratio (x) = 0.36037 0.15602
# Poissons Ratio (y) = 0.36037 0.15602
# Poissons Ratio (z) = 0.39612 0.39612
#
# Static dielectric constant tensor:
#      x y z
#    x 4.186030 0.000000 0.000000 
#    y 0.000000 4.186030 0.000000 
#    z 0.000000 0.000000 3.507460 
# 
# 
# High freq. dielectric constant tensor:
#      x y z
#    x 1.862820 0.000000 0.000000 
#    y 0.000000 1.862820 0.000000 
#    z 0.000000 0.000000 1.806500 
# 
# From -- ./inp_files/2189.got.cif
#   From: 2010.03.12/outbox.cif.g09.slc.cpg/sg185_cif.got.tgz:2189.got - 2010.04.01 11:55:19.
