data_PCOD8326330
_publ_section_title
;
Structure prediction by ZEFSAII (Michael W. Deem and Ramdas Pophale) SiO2 
 PCOD8326330
Probable space group: P 64 2 2
;
_chemical_formula_sum "Si O2"
_cell_formula_units_Z 96
_cell_length_a 14.355056
_cell_length_b 14.355056
_cell_length_c 26.504536
_cell_angle_alpha 90.000000
_cell_angle_beta 90.000000
_cell_angle_gamma 120.000000
_cell_volume 4729.994323
_symmetry_space_group_name_H-M "P 64 2 2"
_symmetry_group_IT_number 181
_symmetry_cell_setting 'hexagonal'
loop_
_space_group_symop_operation_xyz
x,y,z
x-y,x,2/3+z
-y,x-y,1/3+z
-x,-y,z
-x+y,-x,2/3+z
y,-x+y,1/3+z
x-y,-y,-z
-x,-x+y,2/3-z
y,x,1/3-z
-y,-x,1/3-z
-x+y,y,-z
x,x-y,2/3-z
loop_
_atom_site_type_symbol
_atom_site_label
_atom_site_fract_x
_atom_site_fract_y
_atom_site_fract_z
Si Si1 0.202807 0.509904 0.565943
Si Si2 0.255622 0.264515 0.610170
Si Si3 0.489396 0.597890 0.111425
Si Si4 0.292595 0.221753 0.075023
Si Si5 0.233169 0.925031 0.293142
Si Si6 0.458893 0.085419 0.868645
Si Si7 0.268152 0.710994 0.724370
Si Si8 0.843671 0.691883 0.941923
O O1 0.154133 0.431583 0.613010
O O2 0.325193 0.532681 0.556725
O O3 0.112500 0.448538 0.522654
O O4 0.213582 0.623932 0.577757
O O5 0.306540 0.306540 0.666667
O O6 0.256001 0.158997 0.590950
O O7 0.133054 0.238288 0.615609
O O8 0.317098 0.348897 0.566148
O O9 0.500000 0.500000 0.087672
O O10 0.437516 0.562485 0.166667
O O11 0.604865 0.708142 0.111414
O O12 0.410277 0.620237 0.077832
O O13 0.192662 0.239436 0.090886
O O14 0.319293 0.267054 0.018155
O O15 0.285227 0.033609 0.259067
O O16 0.500000 0.000000 0.873850
O O17 0.295398 0.704603 0.666667
O O18 0.191012 0.759594 0.732316
O O19 0.864628 0.729256 0.000000
#
# Coordination Sequence:
#
# PCOD8326330 Si02
#       8
#    12  12  12  12  12  12  12  12
#     4  10  23  40  58  86 121 156 199 248 304 367
#     4   9  20  38  63  87 118 159 200 245 309 366
#     4  11  24  40  58  84 126 163 201 254 307 369
#     4  10  19  38  62  87 119 160 197 248 307 359
#     4   9  19  38  59  90 121 153 199 251 299 369
#     4  10  23  40  57  87 117 154 200 248 303 365
#     4  11  23  39  61  91 119 161 210 253 308 374
#     4   9  19  34  58  90 122 151 199 251 298 359
#
# _framework density 20.296008
#
# number of rings (size 3 to 8) (size 9 to 14) (size 15 to 20)
#    0.000    2.125    1.250    0.750    5.250    0.750 
#    0.000    2.500    0.000    0.000    0.000    3.500 
#    0.000    0.000    0.000    0.000    0.000    0.000 
#
# Total GULP energy -1189487.052436 kJ/mol
# GULP energy per Si atom -12390.490130 kJ/mol
# Density = 2.024981 g / cm^3
# Si number density = 20.296008 Si / 1000 Ang^3
#
#
#
# Elastic Constant Matrix: (Units=GPa)
#
#
# Indices 1 2 3 4 5 6 
#
# 1 98.0128 37.5213 28.9431 0.0000 0.0000 0.0000
# 2 37.5213 98.0128 28.9431 0.0000 0.0000 0.0000
# 3 28.9431 28.9431 65.5174 0.0000 0.0000 0.0000
# 4 0.0000 0.0000 0.0000 23.5026 0.0000 0.0000
# 5 0.0000 0.0000 0.0000 0.0000 23.5026 0.0000
# 6 0.0000 0.0000 0.0000 0.0000 0.0000 30.2458
#
#
#
# Elastic Compliance Matrix: (Units=1/GPa)
#
#
# Indices 1 2 3 4 5 6 
#
# 1 0.012813 -0.003719 -0.004017 0.000000 0.000000 0.000000
# 2 -0.003719 0.012813 -0.004017 0.000000 0.000000 0.000000
# 3 -0.004017 -0.004017 0.018813 0.000000 0.000000 0.000000
# 4 0.000000 0.000000 0.000000 0.042549 0.000000 0.000000
# 5 0.000000 0.000000 0.000000 0.000000 0.042549 0.000000
# 6 0.000000 0.000000 0.000000 0.000000 0.000000 0.033062
#
#
# Mechanical properties :
#
#
# Convention : Reuss Voigt Hill
#
# Bulk Modulus (GPa) = 47.77587 50.26199 49.01893
# Shear Modulus (GPa) = 25.89584 26.52589 26.21086
#
# Velocity S-wave (km/s) = 3.57586 3.61910 3.59755
# Velocity P-wave (km/s) = 6.37493 6.50247 6.43901
#
# Compressibility (1/GPa) = 0.02093107
#
# Stress axis : x y z
#
# Youngs Moduli (GPa) = 78.04797 78.04797 53.15595
#
# Poissons Ratio (x) = 0.29023 0.21355
# Poissons Ratio (y) = 0.29023 0.21355
# Poissons Ratio (z) = 0.31355 0.31355
#
# Static dielectric constant tensor:
#      x y z
#    x 3.727680 0.000000 0.000000 
#    y 0.000000 3.727680 0.000000 
#    z 0.000000 0.000000 3.570930 
# 
# 
# High freq. dielectric constant tensor:
#      x y z
#    x 1.793310 0.000000 0.000000 
#    y 0.000000 1.793310 0.000000 
#    z 0.000000 0.000000 1.777130 
# 
# From -- ./inp_files/12487.got.cif
#   From: 2010.03.12/outbox.cif.g09.slc.cpg/sg181_7_cif.got.tgz:12487.got - 2010.04.01 11:42:41.
