data_PCOD8326655
_publ_section_title
;
Structure prediction by ZEFSAII (Michael W. Deem and Ramdas Pophale) SiO2 
 PCOD8326655
Probable space group: P 63 C M
;
_chemical_formula_sum "Si O2"
_cell_formula_units_Z 84
_cell_length_a 13.284182
_cell_length_b 13.284182
_cell_length_c 27.280303
_cell_angle_alpha 90.000000
_cell_angle_beta 90.000000
_cell_angle_gamma 120.000000
_cell_volume 4169.168573
_symmetry_space_group_name_H-M "P 63 C M"
_symmetry_group_IT_number 185
_symmetry_cell_setting 'hexagonal'
loop_
_space_group_symop_operation_xyz
x,y,z
x-y,x,1/2+z
-y,x-y,z
-x,-y,1/2+z
-x+y,-x,z
y,-x+y,1/2+z
-x+y,y,1/2+z
x,x-y,1/2+z
-y,-x,1/2+z
y,x,z
x-y,-y,z
-x,-x+y,z
loop_
_atom_site_type_symbol
_atom_site_label
_atom_site_fract_x
_atom_site_fract_y
_atom_site_fract_z
Si Si1 0.448457 0.573845 0.068520
Si Si2 0.731829 0.866381 0.204974
Si Si3 0.864279 0.535216 0.973699
Si Si4 0.478594 0.754943 0.870356
Si Si5 0.258856 0.129909 0.530151
Si Si6 0.812638 0.227282 0.615589
Si Si7 0.136498 0.863637 0.818630
O O1 0.564988 0.564988 0.063540
O O2 0.479436 0.689656 0.097416
O O3 0.360737 0.462821 0.101604
O O4 0.398092 0.567626 0.013589
O O5 0.794714 0.794714 0.191671
O O6 0.613255 0.816371 0.173326
O O7 0.696154 0.852349 0.261612
O O8 0.818771 0.000000 0.191905
O O9 0.777212 0.493042 0.928341
O O10 0.000000 0.592726 0.957847
O O11 0.840576 0.629232 0.999045
O O12 0.384322 0.797409 0.857043
O O13 0.604068 0.821844 0.845066
O O14 0.215257 0.215257 0.511741
O O15 0.294325 0.149894 0.587437
O O16 0.155348 0.000000 0.521988
O O17 0.000000 0.814462 0.830402
O O18 0.209755 0.000000 0.835209
#
# Coordination Sequence:
#
# PCOD8326655 Si02
#       7
#    12  12  12  12  12  12  12
#     4  10  21  35  52  79 114 155 197 241 287 342
#     4  10  20  37  62  91 119 151 192 244 302 365
#     4   9  20  37  57  81 117 158 204 251 295 362
#     4  10  24  41  62  95 123 163 206 261 324 383
#     4  10  20  34  54  83 119 153 189 238 297 360
#     4  11  21  35  54  81 114 155 200 241 286 349
#     4  10  22  43  69  96 125 161 210 264 323 387
#
# _framework density 20.147901000000001
#
# number of rings (size 3 to 8) (size 9 to 14) (size 15 to 20)
#    0.286    1.714    0.000    4.571    4.000    2.857 
#    2.571    1.429    0.000    1.714    0.000    0.000 
#    0.000    0.000    0.000    0.000    0.000    0.000 
#
# Total GULP energy -1040760.444667 kJ/mol
# GULP energy per Si atom -12390.005294 kJ/mol
# Density = 2.010204 g / cm^3
# Si number density = 20.147901 Si / 1000 Ang^3
#
#
#
# Elastic Constant Matrix: (Units=GPa)
#
#
# Indices 1 2 3 4 5 6 
#
# 1 89.5118 30.3995 39.7817 0.0000 0.0000 0.0000
# 2 30.3995 89.5118 39.7817 0.0000 0.0000 0.0000
# 3 39.7817 39.7817 93.3926 0.0000 0.0000 0.0000
# 4 0.0000 0.0000 0.0000 28.5195 0.0000 0.0000
# 5 0.0000 0.0000 0.0000 0.0000 28.5195 0.0000
# 6 0.0000 0.0000 0.0000 0.0000 0.0000 29.5561
#
#
#
# Elastic Compliance Matrix: (Units=1/GPa)
#
#
# Indices 1 2 3 4 5 6 
#
# 1 0.014271 -0.002646 -0.004952 0.000000 0.000000 0.000000
# 2 -0.002646 0.014271 -0.004952 0.000000 0.000000 0.000000
# 3 -0.004952 -0.004952 0.014926 0.000000 0.000000 0.000000
# 4 0.000000 0.000000 0.000000 0.035064 0.000000 0.000000
# 5 0.000000 0.000000 0.000000 0.000000 0.035064 0.000000
# 6 0.000000 0.000000 0.000000 0.000000 0.000000 0.033834
#
#
# Mechanical properties :
#
#
# Convention : Reuss Voigt Hill
#
# Bulk Modulus (GPa) = 54.43978 54.70467 54.57223
# Shear Modulus (GPa) = 27.98739 28.14925 28.06832
#
# Velocity S-wave (km/s) = 3.73110 3.74188 3.73649
# Velocity P-wave (km/s) = 6.75576 6.77343 6.76460
#
# Compressibility (1/GPa) = 0.01836892
#
# Stress axis : x y z
#
# Youngs Moduli (GPa) = 70.07188 70.07188 66.99671
#
# Poissons Ratio (x) = 0.18540 0.33176
# Poissons Ratio (y) = 0.18540 0.33176
# Poissons Ratio (z) = 0.34699 0.34699
#
# Static dielectric constant tensor:
#      x y z
#    x 3.736630 0.000000 0.000000 
#    y 0.000000 3.736630 0.000000 
#    z 0.000000 0.000000 3.558900 
# 
# 
# High freq. dielectric constant tensor:
#      x y z
#    x 1.792300 0.000000 0.000000 
#    y 0.000000 1.792300 0.000000 
#    z 0.000000 0.000000 1.764690 
# 
# From -- ./inp_files/2157.got.cif
#   From: 2010.03.12/outbox.cif.g09.slc.cpg/sg185_cif.got.tgz:2157.got - 2010.04.01 11:55:19.
