data_PCOD8326333
_publ_section_title
;
Structure prediction by ZEFSAII (Michael W. Deem and Ramdas Pophale) SiO2 
 PCOD8326333
Probable space group: P 64 2 2
;
_chemical_formula_sum "Si O2"
_cell_formula_units_Z 84
_cell_length_a 18.848185
_cell_length_b 18.848185
_cell_length_c 13.701294
_cell_angle_alpha 90.000000
_cell_angle_beta 90.000000
_cell_angle_gamma 120.000000
_cell_volume 4215.327180
_symmetry_space_group_name_H-M "P 64 2 2"
_symmetry_group_IT_number 181
_symmetry_cell_setting 'hexagonal'
loop_
_space_group_symop_operation_xyz
x,y,z
x-y,x,2/3+z
-y,x-y,1/3+z
-x,-y,z
-x+y,-x,2/3+z
y,-x+y,1/3+z
x-y,-y,-z
-x,-x+y,2/3-z
y,x,1/3-z
-y,-x,1/3-z
-x+y,y,-z
x,x-y,2/3-z
loop_
_atom_site_type_symbol
_atom_site_label
_atom_site_fract_x
_atom_site_fract_y
_atom_site_fract_z
Si Si1 0.525691 0.342372 0.294044
Si Si2 0.000000 0.799738 0.833334
Si Si3 0.689914 0.740003 0.476388
Si Si4 0.886106 0.772212 0.000000
Si Si5 0.849013 0.664404 0.723694
Si Si6 0.014888 0.431951 0.052201
Si Si7 0.516095 0.654316 0.073803
Si Si8 0.853429 0.058529 0.080474
O O1 0.531750 0.265875 0.333334
O O2 0.466775 0.356583 0.364161
O O3 0.483870 0.329827 0.188544
O O4 0.616586 0.422716 0.296981
O O5 0.954118 0.826292 0.916101
O O6 0.930191 0.713586 0.790277
O O7 0.716216 0.795840 0.379071
O O8 0.639484 0.767528 0.546768
O O9 0.644574 0.642826 0.453191
O O10 0.764926 0.754160 0.541384
O O11 0.837961 0.577942 0.688099
O O12 0.863843 0.721984 0.631002
O O13 0.000000 0.500000 0.107982
O O14 0.957029 0.407447 0.955431
O O15 0.919817 0.080184 0.166667
O O16 0.862052 0.000000 0.000000
#
# Coordination Sequence:
#
# PCOD8326333 Si02
#       8
#    12   6  12   6  12  12  12  12
#     4  10  21  34  53  78 118 156 184 234 292 363
#     4  10  20  32  52  89 117 144 188 242 308 350
#     4  10  21  35  57  85 113 148 191 238 303 348
#     4  10  20  32  52  88 115 148 186 248 292 362
#     4  10  21  35  58  85 114 146 193 252 289 352
#     4  10  20  33  53  84 118 147 189 236 302 350
#     4  10  20  34  54  80 113 150 193 235 288 353
#     4  10  20  36  56  83 116 151 189 244 295 345
#
# _framework density 19.92728
#
# number of rings (size 3 to 8) (size 9 to 14) (size 15 to 20)
#    0.000    2.000    0.000    3.857    7.000    1.714 
#    0.000    0.000   18.857    3.000    0.000  260.500 
#    0.000    0.000    0.000    0.000    0.000    0.000 
#
# Total GULP energy -1040618.801808 kJ/mol
# GULP energy per Si atom -12388.319069 kJ/mol
# Density = 1.988192 g / cm^3
# Si number density = 19.927280 Si / 1000 Ang^3
#
#
#
# Elastic Constant Matrix: (Units=GPa)
#
#
# Indices 1 2 3 4 5 6 
#
# 1 106.0966 48.5346 37.2991 0.0000 0.0000 0.0000
# 2 48.5346 106.0966 37.2991 0.0000 0.0000 0.0000
# 3 37.2991 37.2991 86.3915 0.0000 0.0000 0.0000
# 4 0.0000 0.0000 0.0000 13.5849 0.0000 0.0000
# 5 0.0000 0.0000 0.0000 0.0000 13.5849 0.0000
# 6 0.0000 0.0000 0.0000 0.0000 0.0000 28.7810
#
#
#
# Elastic Compliance Matrix: (Units=1/GPa)
#
#
# Indices 1 2 3 4 5 6 
#
# 1 0.012770 -0.004602 -0.003527 0.000000 0.000000 0.000000
# 2 -0.004602 0.012770 -0.003527 0.000000 0.000000 0.000000
# 3 -0.003527 -0.003527 0.014620 0.000000 0.000000 0.000000
# 4 0.000000 0.000000 0.000000 0.073611 0.000000 0.000000
# 5 0.000000 0.000000 0.000000 0.000000 0.073611 0.000000
# 6 0.000000 0.000000 0.000000 0.000000 0.000000 0.034745
#
#
# Mechanical properties :
#
#
# Convention : Reuss Voigt Hill
#
# Bulk Modulus (GPa) = 59.34520 60.53890 59.94205
# Shear Modulus (GPa) = 19.91583 22.88695 21.40139
#
# Velocity S-wave (km/s) = 3.16480 3.39266 3.28071
# Velocity P-wave (km/s) = 6.57268 6.76703 6.67057
#
# Compressibility (1/GPa) = 0.01685056
#
# Stress axis : x y z
#
# Youngs Moduli (GPa) = 78.30574 78.30574 68.39739
#
# Poissons Ratio (x) = 0.36037 0.24121
# Poissons Ratio (y) = 0.36037 0.24121
# Poissons Ratio (z) = 0.27616 0.27616
#
# Static dielectric constant tensor:
#      x y z
#    x 3.776530 0.000000 0.000000 
#    y 0.000000 3.776530 0.000000 
#    z 0.000000 0.000000 3.591350 
# 
# 
# High freq. dielectric constant tensor:
#      x y z
#    x 1.770000 0.000000 0.000000 
#    y 0.000000 1.770000 0.000000 
#    z 0.000000 0.000000 1.762460 
# 
# From -- ./inp_files/6530.got.cif
#   From: 2010.03.12/outbox.cif.g09.slc.cpg/sg181_4_cif.got.tgz:6530.got - 2010.04.01 11:42:41.
