data_PCOD8326823
_publ_section_title
;
Structure prediction by ZEFSAII (Michael W. Deem and Ramdas Pophale) SiO2 
 PCOD8326823
Probable space group: P 63 M C
;
_chemical_formula_sum "Si O2"
_cell_formula_units_Z 96
_cell_length_a 17.001217
_cell_length_b 17.001217
_cell_length_c 27.516631
_cell_angle_alpha 90.000000
_cell_angle_beta 90.000000
_cell_angle_gamma 120.000000
_cell_volume 6887.885403
_symmetry_space_group_name_H-M "P 63 M C"
_symmetry_group_IT_number 186
_symmetry_cell_setting 'hexagonal'
loop_
_space_group_symop_operation_xyz
x,y,z
x-y,x,1/2+z
-y,x-y,z
-x,-y,1/2+z
-x+y,-x,z
y,-x+y,1/2+z
-x+y,y,z
x,x-y,z
-y,-x,z
y,x,1/2+z
x-y,-y,1/2+z
-x,-x+y,1/2+z
loop_
_atom_site_type_symbol
_atom_site_label
_atom_site_fract_x
_atom_site_fract_y
_atom_site_fract_z
Si Si1 0.729018 0.635596 0.610440
Si Si2 0.238340 0.941527 0.677048
Si Si3 0.156388 0.667623 0.201556
Si Si4 0.392643 0.430978 0.736740
Si Si5 0.151807 0.667077 0.913340
Si Si6 0.273328 0.908223 0.824591
Si Si7 0.000901 0.183423 0.773093
Si Si8 0.516354 0.849861 0.023729
O O1 0.834978 0.669956 0.604856
O O2 0.723671 0.722663 0.628511
O O3 0.680660 0.552809 0.648005
O O4 0.678592 0.598210 0.558718
O O5 0.148247 0.851754 0.661092
O O6 0.311113 0.915355 0.697846
O O7 0.219348 0.995961 0.719409
O O8 0.189630 0.594815 0.198193
O O9 0.238389 0.761612 0.222324
O O10 0.070878 0.634805 0.237246
O O11 0.467261 0.532740 0.721779
O O12 0.357008 0.430968 0.790457
O O13 0.140547 0.570274 0.898703
O O14 0.257730 0.742271 0.907451
O O15 0.089542 0.692611 0.879609
O O16 0.119197 0.665822 0.968348
O O17 0.190028 0.809973 0.810808
O O18 0.241265 0.981903 0.814115
O O19 0.902779 0.097222 0.782549
O O20 0.076802 0.153604 0.777297
O O21 0.426053 0.852105 0.036654
O O22 0.495828 0.747914 0.033169
#
# Coordination Sequence:
#
# PCOD8326823 Si02
#       8
#    12  12  12  12  12  12  12  12
#     4   9  16  25  38  57  79 102 127 153 186 228
#     4   9  17  28  41  56  75 101 130 159 192 227
#     4   9  16  24  35  53  78 106 131 152 176 213
#     4   9  16  25  37  53  73  98 127 156 186 221
#     4   9  16  26  40  58  80 105 132 160 189 223
#     4   9  17  27  39  55  75 100 127 156 193 232
#     4   9  16  26  41  60  80 101 127 160 197 234
#     4   9  16  25  39  60  84 107 129 154 185 222
#
# _framework density 13.937514
#
# number of rings (size 3 to 8) (size 9 to 14) (size 15 to 20)
#    0.000    3.000    0.000    2.750    0.000    4.500 
#    0.000    1.250    0.000    3.750    0.000    0.000 
#    0.000    0.000    0.000    0.000    0.000    2.750 
#
# Total GULP energy -1189953.732303 kJ/mol
# GULP energy per Si atom -12395.351378 kJ/mol
# Density = 1.390579 g / cm^3
# Si number density = 13.937514 Si / 1000 Ang^3
#
#
#
# Elastic Constant Matrix: (Units=GPa)
#
#
# Indices 1 2 3 4 5 6 
#
# 1 80.0119 43.7616 46.8753 0.0000 0.0000 0.0000
# 2 43.7616 80.0119 46.8753 0.0000 0.0000 0.0000
# 3 46.8753 46.8753 85.6286 0.0000 0.0000 0.0000
# 4 0.0000 0.0000 0.0000 20.4276 0.0000 0.0000
# 5 0.0000 0.0000 0.0000 0.0000 20.4276 0.0000
# 6 0.0000 0.0000 0.0000 0.0000 0.0000 18.1252
#
#
#
# Elastic Compliance Matrix: (Units=1/GPa)
#
#
# Indices 1 2 3 4 5 6 
#
# 1 0.020694 -0.006892 -0.007556 0.000000 0.000000 0.000000
# 2 -0.006892 0.020694 -0.007556 0.000000 0.000000 0.000000
# 3 -0.007556 -0.007556 0.019951 0.000000 0.000000 0.000000
# 4 0.000000 0.000000 0.000000 0.048953 0.000000 0.000000
# 5 0.000000 0.000000 0.000000 0.000000 0.048953 0.000000
# 6 0.000000 0.000000 0.000000 0.000000 0.000000 0.055172
#
#
# Mechanical properties :
#
#
# Convention : Reuss Voigt Hill
#
# Bulk Modulus (GPa) = 57.69544 57.85296 57.77420
# Shear Modulus (GPa) = 18.92495 19.00542 18.96518
#
# Velocity S-wave (km/s) = 3.68889 3.69672 3.69281
# Velocity P-wave (km/s) = 7.72202 7.73434 7.72818
#
# Compressibility (1/GPa) = 0.01733239
#
# Stress axis : x y z
#
# Youngs Moduli (GPa) = 48.32299 48.32299 50.12352
#
# Poissons Ratio (x) = 0.33303 0.37872
# Poissons Ratio (y) = 0.33303 0.37872
# Poissons Ratio (z) = 0.36511 0.36511
#
# Static dielectric constant tensor:
#      x y z
#    x 2.717890 0.000000 0.000000 
#    y 0.000000 2.717890 0.000000 
#    z 0.000000 0.000000 2.697900 
# 
# 
# High freq. dielectric constant tensor:
#      x y z
#    x 1.523140 0.000000 0.000000 
#    y 0.000000 1.523140 0.000000 
#    z 0.000000 0.000000 1.511540 
# 
# From -- ./inp_files/3911.got.cif
#   From: 2010.03.12/outbox.cif.g09.slc.cpg/sg186_2_cif.got.tgz:3911.got - 2010.04.01 11:56:34.
