data_PCOD8326933
_publ_section_title
;
Structure prediction by ZEFSAII (Michael W. Deem and Ramdas Pophale) SiO2 
 PCOD8326933
Probable space group: P -6 M 2
;
_chemical_formula_sum "Si O2"
_cell_formula_units_Z 66
_cell_length_a 17.077014
_cell_length_b 17.077014
_cell_length_c 15.366474
_cell_angle_alpha 90.000000
_cell_angle_beta 90.000000
_cell_angle_gamma 120.000000
_cell_volume 3880.866702
_symmetry_space_group_name_H-M "P -6 M 2"
_symmetry_group_IT_number 187
_symmetry_cell_setting 'hexagonal'
loop_
_space_group_symop_operation_xyz
x,y,z
-x+y,-x,-z
-y,x-y,z
x,y,-z
-x+y,-x,z
-y,x-y,-z
-y,-x,-z
-x+y,y,-z
x,x-y,-z
-x+y,y,z
x,x-y,z
-y,-x,z
loop_
_atom_site_type_symbol
_atom_site_label
_atom_site_fract_x
_atom_site_fract_y
_atom_site_fract_z
Si Si1 0.294342 0.236890 0.097692
Si Si2 0.433459 0.390104 0.326207
Si Si3 0.821651 0.819106 0.405542
Si Si4 0.844111 0.509932 0.158083
Si Si5 0.247425 0.311531 0.258050
Si Si6 0.478613 0.144773 0.500000
O O1 0.271908 0.135954 0.124601
O O2 0.402078 0.304218 0.099058
O O3 0.244170 0.272408 0.161839
O O4 0.259771 0.236772 0.000000
O O5 0.504949 0.495052 0.338756
O O6 0.466558 0.341770 0.257713
O O7 0.345586 0.392657 0.287112
O O8 0.422525 0.337941 0.416843
O O9 0.789937 0.769540 0.500000
O O10 0.924079 0.848158 0.386025
O O11 0.762291 0.758392 0.326694
O O12 0.813933 0.906967 0.407439
O O13 0.738354 0.476708 0.153321
O O14 0.859233 0.429617 0.122638
O O15 0.169252 0.338503 0.265824
O O16 0.582043 0.164085 0.500000
O O17 0.480468 0.240234 0.500000
#
# Coordination Sequence:
#
# PCOD8326933 Si02
#       6
#    12  12  12  12  12   6
#     4   9  18  32  48  67  95 128 159 196 242 287
#     4   9  19  33  46  65  95 129 161 199 247 289
#     4   9  17  28  43  65  94 124 151 181 221 269
#     4   9  16  27  44  67  97 132 168 199 229 270
#     4  10  20  33  50  71  91 117 159 204 244 288
#     4  10  19  30  47  72 104 140 174 198 219 256
#
# _framework density 17.006509999999999
#
# number of rings (size 3 to 8) (size 9 to 14) (size 15 to 20)
#    0.000    2.727    0.000    1.545    1.273    3.636 
#    0.000    1.818    0.000    1.818    0.000    0.000 
#    0.000    0.000    0.000    0.545    0.000    0.000 
#
# Total GULP energy -817828.895464 kJ/mol
# GULP energy per Si atom -12391.346901 kJ/mol
# Density = 1.696780 g / cm^3
# Si number density = 17.006510 Si / 1000 Ang^3
#
#
#
# Elastic Constant Matrix: (Units=GPa)
#
#
# Indices 1 2 3 4 5 6 
#
# 1 66.2263 25.8413 27.9072 0.0000 0.0000 0.0000
# 2 25.8413 66.2263 27.9072 0.0000 0.0000 0.0000
# 3 27.9072 27.9072 90.2203 0.0000 0.0000 0.0000
# 4 0.0000 0.0000 0.0000 20.1662 0.0000 0.0000
# 5 0.0000 0.0000 0.0000 0.0000 20.1662 0.0000
# 6 0.0000 0.0000 0.0000 0.0000 0.0000 20.1925
#
#
#
# Elastic Compliance Matrix: (Units=1/GPa)
#
#
# Indices 1 2 3 4 5 6 
#
# 1 0.019065 -0.005697 -0.004135 0.000000 0.000000 0.000000
# 2 -0.005697 0.019065 -0.004135 0.000000 0.000000 0.000000
# 3 -0.004135 -0.004135 0.013642 0.000000 0.000000 0.000000
# 4 0.000000 0.000000 0.000000 0.049588 0.000000 0.000000
# 5 0.000000 0.000000 0.000000 0.000000 0.049588 0.000000
# 6 0.000000 0.000000 0.000000 0.000000 0.000000 0.049523
#
#
# Mechanical properties :
#
#
# Convention : Reuss Voigt Hill
#
# Bulk Modulus (GPa) = 41.94908 42.88714 42.41811
# Shear Modulus (GPa) = 21.15493 21.50612 21.33053
#
# Velocity S-wave (km/s) = 3.53077 3.55995 3.54539
# Velocity P-wave (km/s) = 6.42976 6.49388 6.46190
#
# Compressibility (1/GPa) = 0.02383843
#
# Stress axis : x y z
#
# Youngs Moduli (GPa) = 52.45198 52.45198 73.30206
#
# Poissons Ratio (x) = 0.29880 0.30312
# Poissons Ratio (y) = 0.29880 0.30312
# Poissons Ratio (z) = 0.21690 0.21690
#
# Static dielectric constant tensor:
#      x y z
#    x 3.047970 0.000000 0.000000 
#    y 0.000000 3.047970 0.000000 
#    z 0.000000 0.000000 2.861730 
# 
# 
# High freq. dielectric constant tensor:
#      x y z
#    x 1.635790 0.000000 0.000000 
#    y 0.000000 1.635790 0.000000 
#    z 0.000000 0.000000 1.668620 
# 
# From -- ./inp_files/2449.got.cif
#   From: 2010.03.12/outbox.cif.g09.slc.cpg/sg187_2_cif.got.tgz:2449.got - 2010.04.01 11:58:23.
