data_PCOD8326932
_publ_section_title
;
Structure prediction by ZEFSAII (Michael W. Deem and Ramdas Pophale) SiO2 
 PCOD8326932
Probable space group: P -6 M 2
;
_chemical_formula_sum "Si O2"
_cell_formula_units_Z 48
_cell_length_a 17.859010
_cell_length_b 17.859010
_cell_length_c 10.206934
_cell_angle_alpha 90.000000
_cell_angle_beta 90.000000
_cell_angle_gamma 120.000000
_cell_volume 2819.296156
_symmetry_space_group_name_H-M "P -6 M 2"
_symmetry_group_IT_number 187
_symmetry_cell_setting 'hexagonal'
loop_
_space_group_symop_operation_xyz
x,y,z
-x+y,-x,-z
-y,x-y,z
x,y,-z
-x+y,-x,z
-y,x-y,-z
-y,-x,-z
-x+y,y,-z
x,x-y,-z
-x+y,y,z
x,x-y,z
-y,-x,z
loop_
_atom_site_type_symbol
_atom_site_label
_atom_site_fract_x
_atom_site_fract_y
_atom_site_fract_z
Si Si1 0.999364 0.176464 0.000000
Si Si2 0.999414 0.820631 0.500000
Si Si3 0.427097 0.023892 0.845049
Si Si4 0.496360 0.829082 0.844635
Si Si5 0.289302 0.057230 0.249340
O O1 0.995868 0.228266 0.874685
O O2 0.922140 0.077861 0.000000
O O3 0.087914 0.175828 0.000000
O O4 0.087844 0.912157 0.500000
O O5 0.919923 0.839846 0.500000
O O6 0.995970 0.763432 0.623893
O O7 0.525903 0.051805 0.803818
O O8 0.387040 0.073037 0.763873
O O9 0.361916 0.925596 0.802036
O O10 0.425151 0.038853 0.000000
O O11 0.401379 0.802758 0.791032
O O12 0.523815 0.761908 0.786892
O O13 0.493014 0.824789 0.000000
O O14 0.304564 0.152282 0.254856
#
# Coordination Sequence:
#
# PCOD8326932 Si02
#       5
#     6   6  12  12  12
#     4  10  19  30  47  72 102 134 170 214 263 314
#     4  10  21  36  53  74 106 146 184 218 257 310
#     4   9  17  30  47  70  98 128 161 202 260 316
#     4   8  13  20  32  53  83 117 150 182 220 271
#     4  10  20  34  51  73  99 132 175 218 263 315
#
# _framework density 17.025527
#
# number of rings (size 3 to 8) (size 9 to 14) (size 15 to 20)
#    0.000    2.750    1.250    2.750    0.000    3.000 
#    0.000    3.125    0.000    0.500    0.000    0.000 
#    0.000    0.000    0.000    0.000    0.000    0.000 
#
# Total GULP energy -594751.267980 kJ/mol
# GULP energy per Si atom -12390.651416 kJ/mol
# Density = 1.698678 g / cm^3
# Si number density = 17.025527 Si / 1000 Ang^3
#
#
#
# Elastic Constant Matrix: (Units=GPa)
#
#
# Indices 1 2 3 4 5 6 
#
# 1 79.5182 41.8365 36.9299 0.0000 0.0003 0.0000
# 2 41.8365 79.5182 36.9299 0.0000 -0.0003 0.0000
# 3 36.9299 36.9299 90.2145 0.0000 0.0000 0.0000
# 4 0.0000 0.0000 0.0000 16.4215 0.0000 -0.0003
# 5 0.0003 -0.0003 0.0000 0.0000 16.4215 0.0000
# 6 0.0000 0.0000 0.0000 -0.0003 0.0000 18.8409
#
#
#
# Elastic Compliance Matrix: (Units=1/GPa)
#
#
# Indices 1 2 3 4 5 6 
#
# 1 0.018756 -0.007782 -0.004493 0.000000 0.000000 0.000000
# 2 -0.007782 0.018756 -0.004493 0.000000 0.000000 0.000000
# 3 -0.004493 -0.004493 0.014763 0.000000 0.000000 0.000000
# 4 0.000000 0.000000 0.000000 0.060896 0.000000 0.000001
# 5 0.000000 0.000000 0.000000 0.000000 0.060896 0.000000
# 6 0.000000 0.000000 0.000000 0.000001 0.000000 0.053076
#
#
# Mechanical properties :
#
#
# Convention : Reuss Voigt Hill
#
# Bulk Modulus (GPa) = 53.35647 53.40483 53.38065
# Shear Modulus (GPa) = 18.73195 19.24043 18.98619
#
# Velocity S-wave (km/s) = 3.32057 3.36533 3.34302
# Velocity P-wave (km/s) = 6.79034 6.82175 6.80606
#
# Compressibility (1/GPa) = 0.01874187
#
# Stress axis : x y z
#
# Youngs Moduli (GPa) = 53.31538 53.31538 67.73798
#
# Poissons Ratio (x) = 0.41489 0.30431
# Poissons Ratio (y) = 0.41489 0.30431
# Poissons Ratio (z) = 0.23952 0.23952
#
# Static dielectric constant tensor:
#      x y z
#    x 3.572110 0.000000 0.000000 
#    y 0.000000 3.572110 0.000000 
#    z 0.000000 0.000000 3.082000 
# 
# 
# High freq. dielectric constant tensor:
#      x y z
#    x 1.652330 0.000000 0.000000 
#    y 0.000000 1.652330 0.000000 
#    z 0.000000 0.000000 1.616110 
# 
# From -- ./inp_files/403.got.cif
#   From: 2010.03.12/outbox.cif.g09.slc.cpg/sg187_1_cif.got.tgz:403.got - 2010.04.01 11:58:23.
