data_PCOD8326240
_publ_section_title
;
Structure prediction by ZEFSAII (Michael W. Deem and Ramdas Pophale) SiO2 
 PCOD8326240
Probable space group: P 62 2 2
;
_chemical_formula_sum "Si O2"
_cell_formula_units_Z 48
_cell_length_a 12.814028
_cell_length_b 12.814028
_cell_length_c 17.366358
_cell_angle_alpha 90.000000
_cell_angle_beta 90.000000
_cell_angle_gamma 120.000000
_cell_volume 2469.509599
_symmetry_space_group_name_H-M "P 62 2 2"
_symmetry_group_IT_number 180
_symmetry_cell_setting 'hexagonal'
loop_
_space_group_symop_operation_xyz
x,y,z
x-y,x,1/3+z
-y,x-y,2/3+z
-x,-y,z
-x+y,-x,1/3+z
y,-x+y,2/3+z
x-y,-y,-z
-x,-x+y,1/3-z
y,x,2/3-z
-y,-x,2/3-z
-x+y,y,-z
x,x-y,1/3-z
loop_
_atom_site_type_symbol
_atom_site_label
_atom_site_fract_x
_atom_site_fract_y
_atom_site_fract_z
Si Si1 0.439835 0.138959 0.599675
Si Si2 0.694324 0.154582 0.130024
Si Si3 0.875923 0.544206 0.306273
Si Si4 0.664690 0.554723 0.513909
O O1 0.409162 0.204581 0.666667
O O2 0.433235 0.196358 0.519816
O O3 0.572513 0.157837 0.606721
O O4 0.343556 0.996024 0.600704
O O5 0.757343 0.201276 0.045801
O O6 0.577507 0.169364 0.141753
O O7 0.649588 0.014564 0.140995
O O8 0.905781 0.544048 0.395812
O O9 0.805160 0.610319 0.500000
#
# Coordination Sequence:
#
# PCOD8326240 Si02
#       4
#    12  12  12  12
#     4  11  18  36  60  87 117 146 190 242 297 350
#     4  11  22  37  59  87 115 156 196 238 302 359
#     4  11  22  35  60  86 117 156 187 243 303 349
#     4  11  23  38  55  84 121 153 197 245 289 357
#
# _framework density 19.437059000000001
#
# number of rings (size 3 to 8) (size 9 to 14) (size 15 to 20)
#    0.000    1.000    5.000    4.500    0.000    3.000 
#    0.000    2.500    0.000    3.000    0.000    0.000 
#    0.000    0.000    0.000    0.000    0.000    0.000 
#
# Total GULP energy -595092.236246 kJ/mol
# GULP energy per Si atom -12397.754922 kJ/mol
# Density = 1.939282 g / cm^3
# Si number density = 19.437059 Si / 1000 Ang^3
#
#
#
# Elastic Constant Matrix: (Units=GPa)
#
#
# Indices 1 2 3 4 5 6 
#
# 1 118.2620 60.9509 22.6551 0.0000 0.0000 0.0000
# 2 60.9509 118.2620 22.6551 0.0000 0.0000 0.0000
# 3 22.6551 22.6551 29.5960 0.0000 0.0000 0.0000
# 4 0.0000 0.0000 0.0000 28.0669 0.0000 0.0000
# 5 0.0000 0.0000 0.0000 0.0000 28.0669 0.0000
# 6 0.0000 0.0000 0.0000 0.0000 0.0000 28.6555
#
#
#
# Elastic Compliance Matrix: (Units=1/GPa)
#
#
# Indices 1 2 3 4 5 6 
#
# 1 0.012184 -0.005265 -0.005296 0.000000 0.000000 0.000000
# 2 -0.005265 0.012184 -0.005296 0.000000 0.000000 0.000000
# 3 -0.005296 -0.005296 0.041897 0.000000 0.000000 0.000000
# 4 0.000000 0.000000 0.000000 0.035629 0.000000 0.000000
# 5 0.000000 0.000000 0.000000 0.000000 0.035629 0.000000
# 6 0.000000 0.000000 0.000000 0.000000 0.000000 0.034897
#
#
# Mechanical properties :
#
#
# Convention : Reuss Voigt Hill
#
# Bulk Modulus (GPa) = 28.94401 53.18249 41.06325
# Shear Modulus (GPa) = 23.18551 27.61511 25.40031
#
# Velocity S-wave (km/s) = 3.45751 3.77337 3.61889
# Velocity P-wave (km/s) = 5.55542 6.81213 6.21562
#
# Compressibility (1/GPa) = 0.03454947
#
# Stress axis : x y z
#
# Youngs Moduli (GPa) = 82.07591 82.07591 23.86808
#
# Poissons Ratio (x) = 0.43211 0.12641
# Poissons Ratio (y) = 0.43211 0.12641
# Poissons Ratio (z) = 0.43471 0.43471
#
# Static dielectric constant tensor:
#      x y z
#    x 3.585520 0.000000 0.000000 
#    y 0.000000 3.585520 0.000000 
#    z 0.000000 0.000000 3.803640 
# 
# 
# High freq. dielectric constant tensor:
#      x y z
#    x 1.747390 0.000000 0.000000 
#    y 0.000000 1.747390 0.000000 
#    z 0.000000 0.000000 1.762290 
# 
# From -- ./inp_files/8635.got.cif
#   From: 2010.03.12/outbox.cif.g09.slc.cpg/sg180_5_cif.got.tgz:8635.got - 2010.04.01 11:35:50.
