data_PCOD8326050
_publ_section_title
;
Structure prediction by ZEFSAII (Michael W. Deem and Ramdas Pophale) SiO2 
 PCOD8326050
Probable space group: P 65 2 2
;
_chemical_formula_sum "Si O2"
_cell_formula_units_Z 72
_cell_length_a 11.307743
_cell_length_b 11.307743
_cell_length_c 32.594666
_cell_angle_alpha 90.000000
_cell_angle_beta 90.000000
_cell_angle_gamma 120.000000
_cell_volume 3609.350231
_symmetry_space_group_name_H-M "P 65 2 2"
_symmetry_group_IT_number 179
_symmetry_cell_setting 'hexagonal'
loop_
_space_group_symop_operation_xyz
x,y,z
x-y,x,5/6+z
-y,x-y,2/3+z
-x,-y,1/2+z
-x+y,-x,1/3+z
y,-x+y,1/6+z
x-y,-y,-z
-x,-x+y,1/3-z
y,x,2/3-z
-y,-x,1/6-z
-x+y,y,1/2-z
x,x-y,5/6-z
loop_
_atom_site_type_symbol
_atom_site_label
_atom_site_fract_x
_atom_site_fract_y
_atom_site_fract_z
Si Si1 0.508919 0.978988 0.131411
Si Si2 0.258047 0.468051 0.076364
Si Si3 0.932125 0.371161 0.453707
Si Si4 0.026896 0.000000 0.500000
Si Si5 0.036627 0.294768 0.351117
Si Si6 0.633840 0.766813 0.235032
Si Si7 0.864951 0.932476 0.416667
O O1 0.514403 0.869945 0.101502
O O2 0.404220 0.896553 0.168424
O O3 0.658330 0.068117 0.150787
O O4 0.476029 0.087561 0.109677
O O5 0.380375 0.619626 0.083334
O O6 0.305447 0.391389 0.042971
O O7 0.213750 0.368432 0.115418
O O8 0.940369 0.470185 0.416667
O O9 0.810838 0.218151 0.444258
O O10 0.175661 0.128755 0.495824
O O11 0.952473 0.999592 0.542269
O O12 0.882347 0.232265 0.369157
O O13 0.773899 0.767059 0.241588
#
# Coordination Sequence:
#
# PCOD8326050 Si02
#       7
#    12  12  12   6  12  12   6
#     4  12  22  37  69  89 128 174 206 271 333 385
#     4  10  21  39  61  90 123 162 217 264 317 395
#     4  10  20  39  61  91 121 161 221 267 311 398
#     4  10  24  42  68  98 134 172 222 278 332 394
#     4  10  22  41  67  93 123 168 221 269 320 395
#     4  10  23  39  61  99 123 166 220 269 328 388
#     4  10  24  42  66  98 130 178 216 278 332 394
#
# _framework density 19.948187999999998
#
# number of rings (size 3 to 8) (size 9 to 14) (size 15 to 20)
#    0.000    1.667    5.000    1.000   12.833    0.000 
#    0.000    3.333    0.000    0.000    0.000    0.000 
#    0.000    0.000    0.000    0.000    0.000    0.000 
#
# Total GULP energy -892134.651106 kJ/mol
# GULP energy per Si atom -12390.759043 kJ/mol
# Density = 1.990278 g / cm^3
# Si number density = 19.948188 Si / 1000 Ang^3
#
#
#
# Elastic Constant Matrix: (Units=GPa)
#
#
# Indices 1 2 3 4 5 6 
#
# 1 104.8795 50.4913 34.4687 0.0000 0.0000 0.0000
# 2 50.4913 104.8795 34.4687 0.0000 0.0000 0.0000
# 3 34.4687 34.4687 78.8015 0.0000 0.0000 0.0000
# 4 0.0000 0.0000 0.0000 25.8762 0.0000 0.0000
# 5 0.0000 0.0000 0.0000 0.0000 25.8762 0.0000
# 6 0.0000 0.0000 0.0000 0.0000 0.0000 27.1941
#
#
#
# Elastic Compliance Matrix: (Units=1/GPa)
#
#
# Indices 1 2 3 4 5 6 
#
# 1 0.013186 -0.005200 -0.003493 0.000000 0.000000 0.000000
# 2 -0.005200 0.013186 -0.003493 0.000000 0.000000 0.000000
# 3 -0.003493 -0.003493 0.015746 0.000000 0.000000 0.000000
# 4 0.000000 0.000000 0.000000 0.038646 0.000000 0.000000
# 5 0.000000 0.000000 0.000000 0.000000 0.038646 0.000000
# 6 0.000000 0.000000 0.000000 0.000000 0.000000 0.036773
#
#
# Mechanical properties :
#
#
# Convention : Reuss Voigt Hill
#
# Bulk Modulus (GPa) = 56.35252 58.60198 57.47725
# Shear Modulus (GPa) = 26.81387 27.06475 26.93931
#
# Velocity S-wave (km/s) = 3.67028 3.68741 3.67885
# Velocity P-wave (km/s) = 6.80235 6.89711 6.84990
#
# Compressibility (1/GPa) = 0.01774544
#
# Stress axis : x y z
#
# Youngs Moduli (GPa) = 75.83659 75.83659 63.50792
#
# Poissons Ratio (x) = 0.39436 0.22185
# Poissons Ratio (y) = 0.39436 0.22185
# Poissons Ratio (z) = 0.26491 0.26491
#
# Static dielectric constant tensor:
#      x y z
#    x 3.683520 0.000000 0.000000 
#    y 0.000000 3.683520 0.000000 
#    z 0.000000 0.000000 3.605620 
# 
# 
# High freq. dielectric constant tensor:
#      x y z
#    x 1.773530 0.000000 0.000000 
#    y 0.000000 1.773530 0.000000 
#    z 0.000000 0.000000 1.766110 
# 
# From -- ./inp_files/9581.got.cif
#   From: 2010.03.12/outbox.cif.g09.slc.cpg/sg179_5_cif.got.tgz:9581.got - 2010.04.02 07:08:42.
