data_PCOD8326810
_publ_section_title
;
Structure prediction by ZEFSAII (Michael W. Deem and Ramdas Pophale) SiO2 
 PCOD8326810
Probable space group: P 63 M C
;
_chemical_formula_sum "Si O2"
_cell_formula_units_Z 84
_cell_length_a 20.594650
_cell_length_b 20.594650
_cell_length_c 10.865594
_cell_angle_alpha 90.000000
_cell_angle_beta 90.000000
_cell_angle_gamma 120.000000
_cell_volume 3991.103003
_symmetry_space_group_name_H-M "P 63 M C"
_symmetry_group_IT_number 186
_symmetry_cell_setting 'hexagonal'
loop_
_space_group_symop_operation_xyz
x,y,z
x-y,x,1/2+z
-y,x-y,z
-x,-y,1/2+z
-x+y,-x,z
y,-x+y,1/2+z
-x+y,y,z
x,x-y,z
-y,-x,z
y,x,1/2+z
x-y,-y,1/2+z
-x,-x+y,1/2+z
loop_
_atom_site_type_symbol
_atom_site_label
_atom_site_fract_x
_atom_site_fract_y
_atom_site_fract_z
Si Si1 0.474032 0.808643 0.269220
Si Si2 0.615161 0.080785 0.375254
Si Si3 0.467686 0.392064 0.965749
Si Si4 0.271656 0.876190 0.662270
Si Si5 0.230694 0.998063 0.654590
Si Si6 0.874174 0.604324 0.588090
Si Si7 0.151400 0.149552 0.902574
O O1 0.410462 0.820924 0.200986
O O2 0.440227 0.720114 0.281946
O O3 0.487339 0.843734 0.403990
O O4 0.554846 0.847230 0.208967
O O5 0.554457 0.108913 0.372811
O O6 0.677756 0.124355 0.273313
O O7 0.658308 0.098551 0.503351
O O8 0.574370 0.990232 0.363448
O O9 0.530353 0.469648 0.034315
O O10 0.407478 0.329515 0.054325
O O11 0.209707 0.790294 0.630693
O O12 0.228525 0.921231 0.691019
O O13 0.199096 0.017823 0.776459
O O14 0.314312 0.062881 0.629037
O O15 0.184820 0.987457 0.528674
O O16 0.804937 0.609874 0.527302
O O17 0.081302 0.162603 0.898473
O O18 0.122847 0.061424 0.906390
#
# Coordination Sequence:
#
# PCOD8326810 Si02
#       7
#    12  12  12  12  12  12  12
#     4  10  21  37  59  88 122 163 208 257 313 375
#     4  11  23  41  65  92 128 167 216 271 322 393
#     4  10  22  39  61  90 123 163 212 262 313 374
#     4  12  24  41  64  94 130 168 212 265 325 394
#     4  12  26  44  67 101 138 176 223 281 342 398
#     4  11  22  39  64  93 129 167 210 266 323 387
#     4  12  26  47  70  98 132 178 227 278 338 407
#
# _framework density 21.046814000000001
#
# number of rings (size 3 to 8) (size 9 to 14) (size 15 to 20)
#    0.000    0.857    1.429    6.286    2.000    0.000 
#    0.000    1.429    0.000    6.857    0.000    0.000 
#    0.000    0.000    0.000    0.000    0.000    0.000 
#
# Total GULP energy -1041039.044711 kJ/mol
# GULP energy per Si atom -12393.321961 kJ/mol
# Density = 2.099891 g / cm^3
# Si number density = 21.046814 Si / 1000 Ang^3
#
#
#
# Elastic Constant Matrix: (Units=GPa)
#
#
# Indices 1 2 3 4 5 6 
#
# 1 108.8471 50.6246 26.0556 0.0000 0.0000 0.0000
# 2 50.6246 108.8471 26.0556 0.0000 0.0000 0.0000
# 3 26.0556 26.0556 83.0375 0.0000 0.0000 0.0000
# 4 0.0000 0.0000 0.0000 31.8226 0.0000 0.0000
# 5 0.0000 0.0000 0.0000 0.0000 31.8226 0.0000
# 6 0.0000 0.0000 0.0000 0.0000 0.0000 29.1112
#
#
#
# Elastic Compliance Matrix: (Units=1/GPa)
#
#
# Indices 1 2 3 4 5 6 
#
# 1 0.012081 -0.005094 -0.002192 0.000000 0.000000 0.000000
# 2 -0.005094 0.012081 -0.002192 0.000000 0.000000 0.000000
# 3 -0.002192 -0.002192 0.013419 0.000000 0.000000 0.000000
# 4 0.000000 0.000000 0.000000 0.031424 0.000000 0.000000
# 5 0.000000 0.000000 0.000000 0.000000 0.031424 0.000000
# 6 0.000000 0.000000 0.000000 0.000000 0.000000 0.034351
#
#
# Mechanical properties :
#
#
# Convention : Reuss Voigt Hill
#
# Bulk Modulus (GPa) = 53.69652 56.24481 54.97067
# Shear Modulus (GPa) = 31.26045 31.75100 31.50572
#
# Velocity S-wave (km/s) = 3.85812 3.88827 3.87322
# Velocity P-wave (km/s) = 6.73907 6.85127 6.79540
#
# Compressibility (1/GPa) = 0.01862318
#
# Stress axis : x y z
#
# Youngs Moduli (GPa) = 82.77243 82.77243 74.52316
#
# Poissons Ratio (x) = 0.42166 0.16339
# Poissons Ratio (y) = 0.42166 0.16339
# Poissons Ratio (z) = 0.18147 0.18147
#
# Static dielectric constant tensor:
#      x y z
#    x 4.066610 0.000000 0.000000 
#    y 0.000000 4.066610 0.000000 
#    z 0.000000 0.000000 3.676390 
# 
# 
# High freq. dielectric constant tensor:
#      x y z
#    x 1.840230 0.000000 0.000000 
#    y 0.000000 1.840230 0.000000 
#    z 0.000000 0.000000 1.809660 
# 
# From -- ./inp_files/1901.got.cif
#   From: 2010.03.12/outbox.cif.g09.slc.cpg/sg186_1_cif.got.tgz:1901.got - 2010.04.01 11:56:34.
