data_PCOD8326487
_publ_section_title
;
Structure prediction by ZEFSAII (Michael W. Deem and Ramdas Pophale) SiO2 
 PCOD8326487
Probable space group: P 63 2 2
;
_chemical_formula_sum "Si O2"
_cell_formula_units_Z 54
_cell_length_a 11.863532
_cell_length_b 11.863532
_cell_length_c 23.818750
_cell_angle_alpha 90.000000
_cell_angle_beta 90.000000
_cell_angle_gamma 120.000000
_cell_volume 2903.204377
_symmetry_space_group_name_H-M "P 63 2 2"
_symmetry_group_IT_number 182
_symmetry_cell_setting 'hexagonal'
loop_
_space_group_symop_operation_xyz
x,y,z
x-y,x,1/2+z
-y,x-y,z
-x,-y,1/2+z
-x+y,-x,z
y,-x+y,1/2+z
x-y,-y,-z
-x,-x+y,-z
y,x,-z
-y,-x,1/2-z
-x+y,y,1/2-z
x,x-y,1/2-z
loop_
_atom_site_type_symbol
_atom_site_label
_atom_site_fract_x
_atom_site_fract_y
_atom_site_fract_z
Si Si1 0.728360 0.954520 0.436217
Si Si2 0.333335 0.666668 0.458986
Si Si3 0.582015 0.164030 0.250000
Si Si4 0.512737 0.931891 0.632093
Si Si5 0.925820 0.350163 0.557825
Si Si6 0.333334 0.666668 0.909841
Si Si7 0.000000 0.000000 0.933706
O O1 0.674611 0.801104 0.435245
O O2 0.718201 0.000000 0.500000
O O3 0.646960 0.986521 0.391035
O O4 0.877594 0.016439 0.414624
O O5 0.427103 0.616175 0.437657
O O6 0.333334 0.666667 0.524844
O O7 0.740049 0.259952 0.250000
O O8 0.509838 0.065134 0.198524
O O9 0.466193 0.784908 0.613761
O O10 0.415077 0.976373 0.606177
O O11 0.000000 0.399167 0.500000
O O12 0.000000 0.000000 0.000000
#
# Coordination Sequence:
#
# PCOD8326487 Si02
#       7
#    12   4   6  12  12   4   4
#     4  11  23  39  58  90 132 168 200 242 306 388
#     4  12  21  36  52 101 136 162 198 244 320 385
#     4  10  22  42  62  90 118 152 214 280 314 362
#     4  12  23  38  63  91 120 159 208 270 318 356
#     4  12  23  36  61  92 133 166 201 251 313 381
#     4  12  21  34  67  93 121 160 204 256 326 358
#     4   9  21  36  57  84 130 179 199 222 295 395
#
# _framework density 18.600137
#
# number of rings (size 3 to 8) (size 9 to 14) (size 15 to 20)
#    0.222    0.444    6.667    4.000    3.111    0.000 
#    0.000    1.111    0.000    0.000    0.000    0.000 
#    0.000    0.000    0.000    0.000    0.000    0.000 
#
# Total GULP energy -669175.519281 kJ/mol
# GULP energy per Si atom -12392.139246 kJ/mol
# Density = 1.855780 g / cm^3
# Si number density = 18.600137 Si / 1000 Ang^3
#
#
#
# Elastic Constant Matrix: (Units=GPa)
#
#
# Indices 1 2 3 4 5 6 
#
# 1 94.4283 28.9068 35.7320 -0.0001 -0.0001 -0.0002
# 2 28.9068 94.4275 35.7313 -0.0004 -0.0002 -0.0001
# 3 35.7320 35.7313 123.2193 -0.0001 -0.0001 -0.0002
# 4 -0.0001 -0.0004 -0.0001 21.0694 0.0002 0.0000
# 5 -0.0001 -0.0002 -0.0001 0.0002 21.0682 -0.0001
# 6 -0.0002 -0.0001 -0.0002 0.0000 -0.0001 32.7603
#
#
#
# Elastic Compliance Matrix: (Units=1/GPa)
#
#
# Indices 1 2 3 4 5 6 
#
# 1 0.012504 -0.002758 -0.002826 0.000000 0.000000 0.000000
# 2 -0.002758 0.012504 -0.002826 0.000000 0.000000 0.000000
# 3 -0.002826 -0.002826 0.009755 0.000000 0.000000 0.000000
# 4 0.000000 0.000000 0.000000 0.047462 0.000000 0.000000
# 5 0.000000 0.000000 0.000000 0.000000 0.047465 0.000000
# 6 0.000000 0.000000 0.000000 0.000000 0.000000 0.030525
#
#
# Mechanical properties :
#
#
# Convention : Reuss Voigt Hill
#
# Bulk Modulus (GPa) = 55.73683 56.97949 56.35816
# Shear Modulus (GPa) = 27.32006 29.09324 28.20665
#
# Velocity S-wave (km/s) = 3.83666 3.95921 3.89842
# Velocity P-wave (km/s) = 7.04681 7.18338 7.11542
#
# Compressibility (1/GPa) = 0.01794146
#
# Stress axis : x y z
#
# Youngs Moduli (GPa) = 79.97532 79.97493 102.51548
#
# Poissons Ratio (x) = 0.22060 0.28972
# Poissons Ratio (y) = 0.22060 0.28971
# Poissons Ratio (z) = 0.22602 0.22601
#
# Static dielectric constant tensor:
#      x y z
#    x 3.545840 0.000000 0.000000 
#    y 0.000000 3.545850 0.000010 
#    z 0.000000 0.000010 3.183060 
# 
# 
# High freq. dielectric constant tensor:
#      x y z
#    x 1.731310 0.000000 0.000000 
#    y 0.000000 1.731310 0.000000 
#    z 0.000000 0.000000 1.681800 
# 
# From -- ./inp_files/5222.got.cif
#   From: 2010.03.12/outbox.cif.g09.slc.cpg/sg182_3_cif.got.tgz:5222.got - 2010.04.01 11:49:36.
