data_PCOD8326058
_publ_section_title
;
Structure prediction by ZEFSAII (Michael W. Deem and Ramdas Pophale) SiO2 
 PCOD8326058
Probable space group: P 65 2 2
;
_chemical_formula_sum "Si O2"
_cell_formula_units_Z 66
_cell_length_a 18.204563
_cell_length_b 18.204563
_cell_length_c 14.050802
_cell_angle_alpha 90.000000
_cell_angle_beta 90.000000
_cell_angle_gamma 120.000000
_cell_volume 4032.666077
_symmetry_space_group_name_H-M "P 65 2 2"
_symmetry_group_IT_number 179
_symmetry_cell_setting 'hexagonal'
loop_
_space_group_symop_operation_xyz
x,y,z
x-y,x,5/6+z
-y,x-y,2/3+z
-x,-y,1/2+z
-x+y,-x,1/3+z
y,-x+y,1/6+z
x-y,-y,-z
-x,-x+y,1/3-z
y,x,2/3-z
-y,-x,1/6-z
-x+y,y,1/2-z
x,x-y,5/6-z
loop_
_atom_site_type_symbol
_atom_site_label
_atom_site_fract_x
_atom_site_fract_y
_atom_site_fract_z
Si Si1 0.776121 0.223880 0.083334
Si Si2 0.718686 0.442084 0.939793
Si Si3 0.580133 0.633231 0.927965
Si Si4 0.349952 0.530189 0.728644
Si Si5 0.387193 0.509372 0.935803
Si Si6 0.401381 0.430394 0.610276
O O1 0.750910 0.253987 0.178447
O O2 0.732855 0.121632 0.081751
O O3 0.698834 0.349417 0.916667
O O4 0.624831 0.423641 0.972585
O O5 0.789578 0.479430 0.022312
O O6 0.591551 0.591551 0.833334
O O7 0.480714 0.589044 0.960263
O O8 0.635100 0.624683 0.013595
O O9 0.261002 0.522004 0.750000
O O10 0.381885 0.504569 0.822725
O O11 0.336762 0.459070 0.650880
O O12 0.378115 0.422900 0.978411
O O13 0.487228 0.512773 0.583334
#
# Coordination Sequence:
#
# PCOD8326058 Si02
#       6
#     6  12  12  12  12  12
#     4  12  20  34  50  74  92 130 174 206 258 304
#     4  11  19  31  47  70  97 125 166 221 265 298
#     4  11  22  36  54  70  96 131 174 211 256 321
#     4  11  24  31  50  74  99 126 171 225 273 308
#     4  11  19  35  48  67  97 133 164 214 274 312
#     4  10  21  36  50  66  94 133 166 212 269 320
#
# _framework density 16.366344000000002
#
# number of rings (size 3 to 8) (size 9 to 14) (size 15 to 20)
#    0.000    1.091    5.455    3.273    2.545    1.455 
#    0.000    0.000    0.000    0.000    0.000    0.000 
#    0.000    0.000    0.000    0.000    3.455    0.000 
#
# Total GULP energy -817835.125306 kJ/mol
# GULP energy per Si atom -12391.441293 kJ/mol
# Density = 1.632909 g / cm^3
# Si number density = 16.366344 Si / 1000 Ang^3
#
#
#
# Elastic Constant Matrix: (Units=GPa)
#
#
# Indices 1 2 3 4 5 6 
#
# 1 68.5631 36.6520 39.7090 0.0000 0.0000 0.0000
# 2 36.6520 68.5631 39.7090 0.0000 0.0000 0.0000
# 3 39.7090 39.7090 81.0087 0.0000 0.0000 0.0000
# 4 0.0000 0.0000 0.0000 25.0376 0.0000 0.0000
# 5 0.0000 0.0000 0.0000 0.0000 25.0376 0.0000
# 6 0.0000 0.0000 0.0000 0.0000 0.0000 15.9555
#
#
#
# Elastic Compliance Matrix: (Units=1/GPa)
#
#
# Indices 1 2 3 4 5 6 
#
# 1 0.023212 -0.008125 -0.007395 0.000000 0.000000 0.000000
# 2 -0.008125 0.023212 -0.007395 0.000000 0.000000 0.000000
# 3 -0.007395 -0.007395 0.019594 0.000000 0.000000 0.000000
# 4 0.000000 0.000000 0.000000 0.039940 0.000000 0.000000
# 5 0.000000 0.000000 0.000000 0.000000 0.039940 0.000000
# 6 0.000000 0.000000 0.000000 0.000000 0.000000 0.062674
#
#
# Mechanical properties :
#
#
# Convention : Reuss Voigt Hill
#
# Bulk Modulus (GPa) = 49.53784 50.03054 49.78419
# Shear Modulus (GPa) = 19.14747 20.01047 19.57897
#
# Velocity S-wave (km/s) = 3.42413 3.50045 3.46250
# Velocity P-wave (km/s) = 6.77988 6.85369 6.81688
#
# Compressibility (1/GPa) = 0.02018659
#
# Stress axis : x y z
#
# Youngs Moduli (GPa) = 43.08186 43.08186 51.03575
#
# Poissons Ratio (x) = 0.35006 0.37741
# Poissons Ratio (y) = 0.35006 0.37741
# Poissons Ratio (z) = 0.31859 0.31859
#
# Static dielectric constant tensor:
#      x y z
#    x 3.062060 0.000000 0.000000 
#    y 0.000000 3.062060 0.000000 
#    z 0.000000 0.000000 3.575030 
# 
# 
# High freq. dielectric constant tensor:
#      x y z
#    x 1.588480 0.000000 0.000000 
#    y 0.000000 1.588480 0.000000 
#    z 0.000000 0.000000 1.657190 
# 
# From -- ./inp_files/6003.got.cif
#   From: 2010.03.12/outbox.cif.g09.slc.cpg/sg179_4_cif.got.tgz:6003.got - 2010.04.02 07:08:42.
