data_PCOD8326107
_publ_section_title
;
Structure prediction by ZEFSAII (Michael W. Deem and Ramdas Pophale) SiO2 
 PCOD8326107
Probable space group: P 65 2 2
;
_chemical_formula_sum "Si O2"
_cell_formula_units_Z 60
_cell_length_a 20.367692
_cell_length_b 20.367692
_cell_length_c 8.021688
_cell_angle_alpha 90.000000
_cell_angle_beta 90.000000
_cell_angle_gamma 120.000000
_cell_volume 2881.907491
_symmetry_space_group_name_H-M "P 65 2 2"
_symmetry_group_IT_number 179
_symmetry_cell_setting 'hexagonal'
loop_
_space_group_symop_operation_xyz
x,y,z
x-y,x,5/6+z
-y,x-y,2/3+z
-x,-y,1/2+z
-x+y,-x,1/3+z
y,-x+y,1/6+z
x-y,-y,-z
-x,-x+y,1/3-z
y,x,2/3-z
-y,-x,1/6-z
-x+y,y,1/2-z
x,x-y,5/6-z
loop_
_atom_site_type_symbol
_atom_site_label
_atom_site_fract_x
_atom_site_fract_y
_atom_site_fract_z
Si Si1 0.781341 0.064586 0.285206
Si Si2 0.620957 0.926413 0.233232
Si Si3 0.440810 0.149044 0.390375
Si Si4 0.552705 0.447296 0.583334
Si Si5 0.335104 0.167552 0.916667
Si Si6 0.560727 0.000000 0.500000
Si Si7 0.839521 0.919761 0.916667
O O1 0.758510 0.124169 0.216300
O O2 0.802775 0.088163 0.480101
O O3 0.857310 0.071861 0.214235
O O4 0.712006 0.982226 0.235663
O O5 0.609159 0.846538 0.298588
O O6 0.584604 0.962464 0.353079
O O7 0.582740 0.907719 0.050528
O O8 0.476021 0.238010 0.416667
O O9 0.508964 0.150768 0.286321
O O10 0.542036 0.482676 0.415252
O O11 0.894156 0.894156 0.833334
#
# Coordination Sequence:
#
# PCOD8326107 Si02
#       7
#    12  12  12   6   6   6   6
#     4  12  22  42  67 103 136 179 233 286 342 414
#     4  12  23  39  68 101 139 179 232 281 342 412
#     4  12  24  44  70  98 137 180 228 279 346 420
#     4  12  26  44  68 103 138 173 219 284 358 416
#     4  12  20  36  61 105 140 176 226 282 332 404
#     4  12  24  42  68 104 142 170 216 288 346 416
#     4  12  26  46  69  96 138 189 241 294 354 408
#
# _framework density 20.819541999999998
#
# number of rings (size 3 to 8) (size 9 to 14) (size 15 to 20)
#    0.000    0.000    7.000    4.200    0.000    0.000 
#    0.000    4.000    4.400    0.000    0.000    0.000 
#    0.000    0.000    0.000    0.000    0.000    0.000 
#
# Total GULP energy -743495.177270 kJ/mol
# GULP energy per Si atom -12391.586288 kJ/mol
# Density = 2.077216 g / cm^3
# Si number density = 20.819542 Si / 1000 Ang^3
#
#
#
# Elastic Constant Matrix: (Units=GPa)
#
#
# Indices 1 2 3 4 5 6 
#
# 1 355.5231 -190.1595 35.2697 0.0000 0.0000 0.0000
# 2 -190.1595 355.5231 35.2697 0.0000 0.0000 0.0000
# 3 35.2697 35.2697 108.0009 0.0000 0.0000 0.0000
# 4 0.0000 0.0000 0.0000 31.5115 0.0000 0.0000
# 5 0.0000 0.0000 0.0000 0.0000 31.5115 0.0000
# 6 0.0000 0.0000 0.0000 0.0000 0.0000 272.8413
#
#
#
# Elastic Compliance Matrix: (Units=1/GPa)
#
#
# Indices 1 2 3 4 5 6 
#
# 1 0.004429 0.002597 -0.002294 0.000000 0.000000 0.000000
# 2 0.002597 0.004429 -0.002294 0.000000 0.000000 0.000000
# 3 -0.002294 -0.002294 0.010758 0.000000 0.000000 0.000000
# 4 0.000000 0.000000 0.000000 0.031734 0.000000 0.000000
# 5 0.000000 0.000000 0.000000 0.000000 0.031734 0.000000
# 6 0.000000 0.000000 0.000000 0.000000 0.000000 0.003665
#
#
# Mechanical properties :
#
#
# Convention : Reuss Voigt Hill
#
# Bulk Modulus (GPa) = 63.97157 64.42298 64.19728
# Shear Modulus (GPa) = 52.11287 129.75068 90.93178
#
# Velocity S-wave (km/s) = 5.00850 7.90297 6.61596
# Velocity P-wave (km/s) = 8.01500 10.69049 9.44793
#
# Compressibility (1/GPa) = 0.01563194
#
# Stress axis : x y z
#
# Youngs Moduli (GPa) = 225.76911 225.76911 92.95584
#
# Poissons Ratio (x) = -0.58626 0.21329
# Poissons Ratio (y) = -0.58626 0.21329
# Poissons Ratio (z) = 0.51802 0.51802
#
# Static dielectric constant tensor:
#      x y z
#    x 3.798150 0.000000 0.000000 
#    y 0.000000 3.798150 0.000000 
#    z 0.000000 0.000000 4.033710 
# 
# 
# High freq. dielectric constant tensor:
#      x y z
#    x 1.807640 0.000000 0.000000 
#    y 0.000000 1.807640 0.000000 
#    z 0.000000 0.000000 1.834730 
# 
# From -- ./inp_files/3290.got.cif
#   From: 2010.03.12/outbox.cif.g09.slc.cpg/sg179_2_cif.got.tgz:3290.got - 2010.04.02 07:08:42.
