data_PCOD8326273
_publ_section_title
;
Structure prediction by ZEFSAII (Michael W. Deem and Ramdas Pophale) SiO2 
 PCOD8326273
Probable space group: P 62 2 2
;
_chemical_formula_sum "Si O2"
_cell_formula_units_Z 21
_cell_length_a 12.532807
_cell_length_b 12.532807
_cell_length_c 6.925876
_cell_angle_alpha 90.000000
_cell_angle_beta 90.000000
_cell_angle_gamma 120.000000
_cell_volume 942.110940
_symmetry_space_group_name_H-M "P 62 2 2"
_symmetry_group_IT_number 180
_symmetry_cell_setting 'hexagonal'
loop_
_space_group_symop_operation_xyz
x,y,z
x-y,x,1/3+z
-y,x-y,2/3+z
-x,-y,z
-x+y,-x,1/3+z
y,-x+y,2/3+z
x-y,-y,-z
-x,-x+y,1/3-z
y,x,2/3-z
-y,-x,2/3-z
-x+y,y,-z
x,x-y,1/3-z
loop_
_atom_site_type_symbol
_atom_site_label
_atom_site_fract_x
_atom_site_fract_y
_atom_site_fract_z
Si Si1 0.500000 0.500000 0.333334
Si Si2 0.910546 0.089455 0.833334
Si Si3 0.635344 0.693219 0.638295
O O1 0.534869 0.615143 0.474237
O O2 0.000000 0.090337 0.666667
O O3 0.959528 0.226645 0.908413
O O4 0.620458 0.810229 0.666667
O O5 0.613552 0.613552 0.833334
#
# Coordination Sequence:
#
# PCOD8326273 Si02
#       3
#     3   6  12
#     4  12  26  48  72  96 156 196 250 312 352 434
#     4  12  24  45  78 122 160 188 229 306 398 478
#     4  12  24  44  77 108 145 193 244 302 376 445
#
# _framework density 22.290369999999999
#
# number of rings (size 3 to 8) (size 9 to 14) (size 15 to 20)
#    0.000    0.000    8.571    0.857    0.000    3.429 
#    5.143    0.000   62.857    0.000    0.000    0.000 
#    0.000    0.000    0.000    0.000    0.000    0.000 
#
# Total GULP energy -260336.592497 kJ/mol
# GULP energy per Si atom -12396.980595 kJ/mol
# Density = 2.223964 g / cm^3
# Si number density = 22.290370 Si / 1000 Ang^3
#
#
#
# Elastic Constant Matrix: (Units=GPa)
#
#
# Indices 1 2 3 4 5 6 
#
# 1 50.7050 139.6499 72.9873 0.0000 0.0000 0.0000
# 2 139.6499 50.7050 72.9873 0.0000 0.0000 0.0000
# 3 72.9873 72.9873 200.2682 0.0000 0.0000 0.0000
# 4 0.0000 0.0000 0.0000 55.4522 0.0000 0.0000
# 5 0.0000 0.0000 0.0000 0.0000 55.4522 0.0000
# 6 0.0000 0.0000 0.0000 0.0000 0.0000 -44.4725
#
#
#
# Elastic Compliance Matrix: (Units=1/GPa)
#
#
# Indices 1 2 3 4 5 6 
#
# 1 -0.001976 0.009267 -0.002657 0.000000 0.000000 0.000000
# 2 0.009267 -0.001976 -0.002657 0.000000 0.000000 0.000000
# 3 -0.002657 -0.002657 0.006930 0.000000 0.000000 0.000000
# 4 0.000000 0.000000 0.000000 0.018034 0.000000 0.000000
# 5 0.000000 0.000000 0.000000 0.000000 0.018034 0.000000
# 6 0.000000 0.000000 0.000000 0.000000 0.000000 -0.022486
#
#
# Mechanical properties :
#
#
# Convention : Reuss Voigt Hill
#
# Bulk Modulus (GPa) = 91.88315 96.99190 94.43753
# Shear Modulus (GPa) = 407.09460 14.35664 210.72562
#
# Velocity S-wave (km/s) = 13.52882 2.54061 9.73354
# Velocity P-wave (km/s) = 16.89228 7.22590 12.99159
#
# Compressibility (1/GPa) = 0.01088339
#
# Stress axis : x y z
#
# Youngs Moduli (GPa) = -506.08783 -506.08783 144.29753
#
# Poissons Ratio (x) = 4.68990 0.38343
# Poissons Ratio (y) = 4.68990 0.38343
# Poissons Ratio (z) = -1.34478 -1.34478
#
# Static dielectric constant tensor:
#      x y z
#    x 3.983780 0.000000 0.000000 
#    y 0.000000 3.983780 0.000000 
#    z 0.000000 0.000000 4.959110 
# 
# 
# High freq. dielectric constant tensor:
#      x y z
#    x 1.864560 0.000000 0.000000 
#    y 0.000000 1.864560 0.000000 
#    z 0.000000 0.000000 1.917530 
# 
# From -- ./inp_files/1886.got.cif
#   From: 2010.03.12/outbox.cif.g09.slc.cpg/sg180_1_cif.got.tgz:1886.got - 2010.04.01 11:35:50.
