data_PCOD8326018
_publ_section_title
;
Structure prediction by ZEFSAII (Michael W. Deem and Ramdas Pophale) SiO2 
 PCOD8326018
Probable space group: P 65 2 2
;
_chemical_formula_sum "Si O2"
_cell_formula_units_Z 66
_cell_length_a 21.597761
_cell_length_b 21.597761
_cell_length_c 8.456979
_cell_angle_alpha 90.000000
_cell_angle_beta 90.000000
_cell_angle_gamma 120.000000
_cell_volume 3416.357778
_symmetry_space_group_name_H-M "P 65 2 2"
_symmetry_group_IT_number 179
_symmetry_cell_setting 'hexagonal'
loop_
_space_group_symop_operation_xyz
x,y,z
x-y,x,5/6+z
-y,x-y,2/3+z
-x,-y,1/2+z
-x+y,-x,1/3+z
y,-x+y,1/6+z
x-y,-y,-z
-x,-x+y,1/3-z
y,x,2/3-z
-y,-x,1/6-z
-x+y,y,1/2-z
x,x-y,5/6-z
loop_
_atom_site_type_symbol
_atom_site_label
_atom_site_fract_x
_atom_site_fract_y
_atom_site_fract_z
Si Si1 0.669074 0.531745 0.853936
Si Si2 0.407372 0.814744 0.250000
Si Si3 0.901683 0.860976 0.494813
Si Si4 0.263417 0.818793 0.802057
Si Si5 0.904122 0.197181 0.953767
Si Si6 0.262414 0.737587 0.083334
Si Si7 0.320491 0.320491 0.333334
O O1 0.741689 0.540748 0.919087
O O2 0.671818 0.523075 0.662002
O O3 0.666897 0.603493 0.893564
O O4 0.602453 0.465048 0.945393
O O5 0.331495 0.758113 0.182963
O O6 0.891063 0.904746 0.637234
O O7 0.868298 0.868298 0.333334
O O8 0.861350 0.777885 0.534574
O O9 0.232901 0.872640 0.830880
O O10 0.287584 0.808075 0.974156
O O11 0.842549 0.157452 0.083334
O O12 0.976183 0.261916 0.027189
#
# Coordination Sequence:
#
# PCOD8326018 Si02
#       7
#    12   6  12  12  12   6   6
#     4   9  18  36  58  82 119 152 190 246 291 360
#     4  10  22  38  56  90 117 154 202 232 302 365
#     4  10  23  41  52  78 116 154 195 252 314 368
#     4   9  18  36  58  84 115 148 195 249 299 334
#     4  11  19  36  61  89 105 149 205 252 292 356
#     4  10  22  36  60  88 115 160 190 246 298 353
#     4  10  18  34  60  84 116 152 190 242 298 356
#
# _framework density 19.318818
#
# number of rings (size 3 to 8) (size 9 to 14) (size 15 to 20)
#    0.000    2.182    3.636    1.091    0.000    5.091 
#   13.091    3.636    0.000    0.000    0.000    0.000 
#    0.000    0.000    0.000    0.000    0.000    0.000 
#
# Total GULP energy -817840.690903 kJ/mol
# GULP energy per Si atom -12391.525620 kJ/mol
# Density = 1.927485 g / cm^3
# Si number density = 19.318818 Si / 1000 Ang^3
#
#
#
# Elastic Constant Matrix: (Units=GPa)
#
#
# Indices 1 2 3 4 5 6 
#
# 1 99.9213 40.5743 44.6914 0.0000 0.0000 0.0000
# 2 40.5743 99.9213 44.6914 0.0000 0.0000 0.0000
# 3 44.6914 44.6914 86.1631 0.0000 0.0000 0.0000
# 4 0.0000 0.0000 0.0000 26.2280 0.0000 0.0000
# 5 0.0000 0.0000 0.0000 0.0000 26.2280 0.0000
# 6 0.0000 0.0000 0.0000 0.0000 0.0000 29.6735
#
#
#
# Elastic Compliance Matrix: (Units=1/GPa)
#
#
# Indices 1 2 3 4 5 6 
#
# 1 0.013737 -0.003113 -0.005510 0.000000 0.000000 0.000000
# 2 -0.003113 0.013737 -0.005510 0.000000 0.000000 0.000000
# 3 -0.005510 -0.005510 0.017322 0.000000 0.000000 0.000000
# 4 0.000000 0.000000 0.000000 0.038127 0.000000 0.000000
# 5 0.000000 0.000000 0.000000 0.000000 0.038127 0.000000
# 6 0.000000 0.000000 0.000000 0.000000 0.000000 0.033700
#
#
# Mechanical properties :
#
#
# Convention : Reuss Voigt Hill
#
# Bulk Modulus (GPa) = 60.50369 60.65777 60.58073
# Shear Modulus (GPa) = 26.52155 26.82914 26.67534
#
# Velocity S-wave (km/s) = 3.70920 3.73065 3.71994
# Velocity P-wave (km/s) = 7.05200 7.07272 7.06237
#
# Compressibility (1/GPa) = 0.01652792
#
# Stress axis : x y z
#
# Youngs Moduli (GPa) = 72.79821 72.79821 57.73053
#
# Poissons Ratio (x) = 0.22665 0.31810
# Poissons Ratio (y) = 0.22665 0.31810
# Poissons Ratio (z) = 0.40112 0.40112
#
# Static dielectric constant tensor:
#      x y z
#    x 3.608540 0.000000 0.000000 
#    y 0.000000 3.608540 0.000000 
#    z 0.000000 0.000000 4.082970 
# 
# 
# High freq. dielectric constant tensor:
#      x y z
#    x 1.748280 0.000000 0.000000 
#    y 0.000000 1.748280 0.000000 
#    z 0.000000 0.000000 1.742000 
# 
# From -- ./inp_files/3456.got.cif
#   From: 2010.03.12/outbox.cif.g09.slc.cpg/sg179_2_cif.got.tgz:3456.got - 2010.04.02 07:08:42.
