data_PCOD8326115
_publ_section_title
;
Structure prediction by ZEFSAII (Michael W. Deem and Ramdas Pophale) SiO2 
 PCOD8326115
Probable space group: P 65 2 2
;
_chemical_formula_sum "Si O2"
_cell_formula_units_Z 30
_cell_length_a 18.030209
_cell_length_b 18.030209
_cell_length_c 4.973678
_cell_angle_alpha 90.000000
_cell_angle_beta 90.000000
_cell_angle_gamma 120.000000
_cell_volume 1400.263663
_symmetry_space_group_name_H-M "P 65 2 2"
_symmetry_group_IT_number 179
_symmetry_cell_setting 'hexagonal'
loop_
_space_group_symop_operation_xyz
x,y,z
x-y,x,5/6+z
-y,x-y,2/3+z
-x,-y,1/2+z
-x+y,-x,1/3+z
y,-x+y,1/6+z
x-y,-y,-z
-x,-x+y,1/3-z
y,x,2/3-z
-y,-x,1/6-z
-x+y,y,1/2-z
x,x-y,5/6-z
loop_
_atom_site_type_symbol
_atom_site_label
_atom_site_fract_x
_atom_site_fract_y
_atom_site_fract_z
Si Si1 0.000000 0.259958 0.666667
Si Si2 0.164845 0.434107 0.506535
Si Si3 0.165289 0.000000 0.500000
Si Si4 0.936507 0.468254 0.916667
O O1 0.080190 0.346909 0.573799
O O2 0.966303 0.196350 0.415358
O O3 0.233225 0.466449 0.750000
O O4 0.130632 0.498979 0.452060
O O5 0.210985 0.421970 0.250000
O O6 0.150808 0.075404 0.416667
O O7 0.000000 0.512786 0.666667
#
# Coordination Sequence:
#
# PCOD8326115 Si02
#       4
#     6  12   6   6
#     4  12  24  45  69 100 134 174 240 286 342 408
#     4  12  26  46  74 106 142 185 237 301 359 426
#     4  12  26  43  63  94 136 182 222 278 344 412
#     4  12  26  50  76 108 148 196 246 296 374 454
#
# _framework density 21.424537000000001
#
# number of rings (size 3 to 8) (size 9 to 14) (size 15 to 20)
#    0.000    0.000    2.000    9.600    2.800    1.600 
#    3.600    0.000    0.000    0.000    0.000    0.000 
#    0.000    0.000    0.000    0.000    0.000    0.000 
#
# Total GULP energy -372065.718910 kJ/mol
# GULP energy per Si atom -12402.190630 kJ/mol
# Density = 2.137577 g / cm^3
# Si number density = 21.424537 Si / 1000 Ang^3
#
#
#
# Elastic Constant Matrix: (Units=GPa)
#
#
# Indices 1 2 3 4 5 6 
#
# 1 182.2118 102.3720 86.5267 0.0000 0.0000 0.0000
# 2 102.3720 182.2118 86.5267 0.0000 0.0000 0.0000
# 3 86.5267 86.5267 190.3063 0.0000 0.0000 0.0000
# 4 0.0000 0.0000 0.0000 16.6536 0.0000 0.0000
# 5 0.0000 0.0000 0.0000 0.0000 16.6536 0.0000
# 6 0.0000 0.0000 0.0000 0.0000 0.0000 39.9199
#
#
#
# Elastic Compliance Matrix: (Units=1/GPa)
#
#
# Indices 1 2 3 4 5 6 
#
# 1 0.008691 -0.003834 -0.002208 0.000000 0.000000 0.000000
# 2 -0.003834 0.008691 -0.002208 0.000000 0.000000 0.000000
# 3 -0.002208 -0.002208 0.007263 0.000000 0.000000 0.000000
# 4 0.000000 0.000000 0.000000 0.060047 0.000000 0.000000
# 5 0.000000 0.000000 0.000000 0.000000 0.060047 0.000000
# 6 0.000000 0.000000 0.000000 0.000000 0.000000 0.025050
#
#
# Mechanical properties :
#
#
# Convention : Reuss Voigt Hill
#
# Bulk Modulus (GPa) = 122.80044 122.84228 122.82136
# Shear Modulus (GPa) = 26.45437 33.26571 29.86004
#
# Velocity S-wave (km/s) = 3.51774 3.94470 3.73732
# Velocity P-wave (km/s) = 8.59892 8.84359 8.72212
#
# Compressibility (1/GPa) = 0.00814329
#
# Stress axis : x y z
#
# Youngs Moduli (GPa) = 115.06308 115.06308 137.69008
#
# Poissons Ratio (x) = 0.44117 0.30405
# Poissons Ratio (y) = 0.44117 0.30405
# Poissons Ratio (z) = 0.25408 0.25408
#
# Static dielectric constant tensor:
#      x y z
#    x 4.142150 0.000000 0.000000 
#    y 0.000000 4.142150 0.000000 
#    z 0.000000 0.000000 4.340630 
# 
# 
# High freq. dielectric constant tensor:
#      x y z
#    x 1.854210 0.000000 0.000000 
#    y 0.000000 1.854210 0.000000 
#    z 0.000000 0.000000 1.868120 
# 
# From -- ./inp_files/424.got.cif
#   From: 2010.03.12/outbox.cif.g09.slc.cpg/sg179_1_cif.got.tgz:424.got - 2010.04.02 07:08:42.
