data_PCOD8326003
_publ_section_title
;
Structure prediction by ZEFSAII (Michael W. Deem and Ramdas Pophale) SiO2 
 PCOD8326003
Probable space group: P 61 2 2
;
_chemical_formula_sum "Si O2"
_cell_formula_units_Z 36
_cell_length_a 8.128286
_cell_length_b 8.128286
_cell_length_c 23.702297
_cell_angle_alpha 90.000000
_cell_angle_beta 90.000000
_cell_angle_gamma 120.000000
_cell_volume 1356.185260
_symmetry_space_group_name_H-M "P 61 2 2"
_symmetry_group_IT_number 178
_symmetry_cell_setting 'hexagonal'
loop_
_space_group_symop_operation_xyz
x,y,z
x-y,x,1/6+z
-y,x-y,1/3+z
-x,-y,1/2+z
-x+y,-x,2/3+z
y,-x+y,5/6+z
x-y,-y,-z
-x,-x+y,2/3-z
y,x,1/3-z
-y,-x,5/6-z
-x+y,y,1/2-z
x,x-y,1/6-z
loop_
_atom_site_type_symbol
_atom_site_label
_atom_site_fract_x
_atom_site_fract_y
_atom_site_fract_z
Si Si1 0.314403 0.361989 0.949752
Si Si2 0.873261 0.126740 0.916667
Si Si3 0.581223 0.581223 0.166667
Si Si4 0.972798 0.311037 0.245346
O O1 0.440241 0.559759 0.916667
O O2 0.402836 0.224611 0.943752
O O3 0.100224 0.238264 0.925741
O O4 0.327612 0.412345 0.015362
O O5 0.836514 0.218655 0.860460
O O6 0.510376 0.435463 0.113387
O O7 0.111378 0.222756 0.250000
#
# Coordination Sequence:
#
# PCOD8326003 Si02
#       4
#    12   6   6  12
#     4  12  29  52  90 127 171 234 300 364 453 539
#     4  12  30  56  82 124 180 244 284 376 458 538
#     4  12  30  48  82 122 176 236 294 354 458 540
#     4  12  26  53  82 129 176 223 295 374 444 541
#
# _framework density 26.545044000000001
#
# number of rings (size 3 to 8) (size 9 to 14) (size 15 to 20)
#    0.000    0.000    5.000    2.000   11.667    1.333 
#    0.000    0.000    0.000    0.000    0.000    0.000 
#    0.000    0.000    0.000    0.000    0.000    0.000 
#
# Total GULP energy -446129.533635 kJ/mol
# GULP energy per Si atom -12392.487045 kJ/mol
# Density = 2.648463 g / cm^3
# Si number density = 26.545044 Si / 1000 Ang^3
#
#
#
# Elastic Constant Matrix: (Units=GPa)
#
#
# Indices 1 2 3 4 5 6 
#
# 1 130.2807 50.7927 53.0972 0.0000 0.0000 0.0000
# 2 50.7927 130.2807 53.0972 0.0000 0.0000 0.0000
# 3 53.0972 53.0972 190.6670 0.0000 0.0000 0.0000
# 4 0.0000 0.0000 0.0000 41.5222 0.0000 0.0000
# 5 0.0000 0.0000 0.0000 0.0000 41.5222 0.0000
# 6 0.0000 0.0000 0.0000 0.0000 0.0000 39.7440
#
#
#
# Elastic Compliance Matrix: (Units=1/GPa)
#
#
# Indices 1 2 3 4 5 6 
#
# 1 0.009591 -0.002990 -0.001838 0.000000 0.000000 0.000000
# 2 -0.002990 0.009591 -0.001838 0.000000 0.000000 0.000000
# 3 -0.001838 -0.001838 0.006269 0.000000 0.000000 0.000000
# 4 0.000000 0.000000 0.000000 0.024083 0.000000 0.000000
# 5 0.000000 0.000000 0.000000 0.000000 0.024083 0.000000
# 6 0.000000 0.000000 0.000000 0.000000 0.000000 0.025161
#
#
# Mechanical properties :
#
#
# Convention : Reuss Voigt Hill
#
# Bulk Modulus (GPa) = 82.52732 85.02251 83.77491
# Shear Modulus (GPa) = 43.04805 44.17378 43.61092
#
# Velocity S-wave (km/s) = 4.03140 4.08377 4.05767
# Velocity P-wave (km/s) = 7.26819 7.37125 7.31990
#
# Compressibility (1/GPa) = 0.01211720
#
# Stress axis : x y z
#
# Youngs Moduli (GPa) = 104.26892 104.26892 159.52698
#
# Poissons Ratio (x) = 0.31176 0.29324
# Poissons Ratio (y) = 0.31176 0.29324
# Poissons Ratio (z) = 0.19166 0.19166
#
# Static dielectric constant tensor:
#      x y z
#    x 4.741820 0.000000 0.000000 
#    y 0.000000 4.741820 0.000000 
#    z 0.000000 0.000000 4.972600 
# 
# 
# High freq. dielectric constant tensor:
#      x y z
#    x 2.059240 0.000000 0.000000 
#    y 0.000000 2.059240 0.000000 
#    z 0.000000 0.000000 2.087830 
# 
# From -- ./inp_files/8574.got.cif
#   From: 2010.03.12/outbox.cif.g09.slc.cpg/sg178_5_cif.got.tgz:8574.got - 2010.04.02 07:02:38.
