data_PCOD8326347
_publ_section_title
;
Structure prediction by ZEFSAII (Michael W. Deem and Ramdas Pophale) SiO2 
 PCOD8326347
Probable space group: P 64 2 2
;
_chemical_formula_sum "Si O2"
_cell_formula_units_Z 48
_cell_length_a 11.002626
_cell_length_b 11.002626
_cell_length_c 25.268633
_cell_angle_alpha 90.000000
_cell_angle_beta 90.000000
_cell_angle_gamma 120.000000
_cell_volume 2649.141041
_symmetry_space_group_name_H-M "P 64 2 2"
_symmetry_group_IT_number 181
_symmetry_cell_setting 'hexagonal'
loop_
_space_group_symop_operation_xyz
x,y,z
x-y,x,2/3+z
-y,x-y,1/3+z
-x,-y,z
-x+y,-x,2/3+z
y,-x+y,1/3+z
x-y,-y,-z
-x,-x+y,2/3-z
y,x,1/3-z
-y,-x,1/3-z
-x+y,y,-z
x,x-y,2/3-z
loop_
_atom_site_type_symbol
_atom_site_label
_atom_site_fract_x
_atom_site_fract_y
_atom_site_fract_z
Si Si1 0.662645 0.831323 0.833334
Si Si2 0.164860 0.083472 0.117407
Si Si3 0.347017 0.870183 0.266161
Si Si4 0.265618 0.258804 0.314347
Si Si5 0.267868 0.535735 0.000000
O O1 0.759359 0.782222 0.802259
O O2 0.558154 0.719419 0.875197
O O3 0.185117 0.185117 0.166667
O O4 0.263535 0.182415 0.070458
O O5 0.000000 0.000000 0.101596
O O6 0.363212 0.742488 0.289631
O O7 0.500000 0.000000 0.259818
O O8 0.250055 0.899684 0.306193
O O9 0.193413 0.096707 0.333334
O O10 0.432961 0.315780 0.304251
#
# Coordination Sequence:
#
# PCOD8326347 Si02
#       5
#     6  12  12  12   6
#     4  10  21  34  54  78 115 142 164 230 280 334
#     4   9  18  30  51  87 112 129 171 223 288 327
#     4  10  20  38  55  75 105 148 186 213 270 319
#     4   9  17  32  58  78 104 140 175 227 264 318
#     4   8  20  36  57  71 102 148 190 210 250 322
#
# _framework density 18.119081000000001
#
# number of rings (size 3 to 8) (size 9 to 14) (size 15 to 20)
#    0.750    2.250    0.000    3.000    0.000    3.500 
#    4.500    0.000    0.000    5.250    0.000    0.000 
#    0.000    0.000    0.000    0.000    0.000    0.000 
#
# Total GULP energy -594680.195891 kJ/mol
# GULP energy per Si atom -12389.170748 kJ/mol
# Density = 1.807784 g / cm^3
# Si number density = 18.119081 Si / 1000 Ang^3
#
#
#
# Elastic Constant Matrix: (Units=GPa)
#
#
# Indices 1 2 3 4 5 6 
#
# 1 59.5656 35.5480 61.6177 0.0000 0.0000 0.0000
# 2 35.5480 59.5656 61.6177 0.0000 0.0000 0.0000
# 3 61.6177 61.6177 157.3912 0.0000 0.0000 0.0000
# 4 0.0000 0.0000 0.0000 29.5354 0.0000 0.0000
# 5 0.0000 0.0000 0.0000 0.0000 29.5354 0.0000
# 6 0.0000 0.0000 0.0000 0.0000 0.0000 12.0088
#
#
#
# Elastic Compliance Matrix: (Units=1/GPa)
#
#
# Indices 1 2 3 4 5 6 
#
# 1 0.031486 -0.010150 -0.008353 0.000000 0.000000 0.000000
# 2 -0.010150 0.031486 -0.008353 0.000000 0.000000 0.000000
# 3 -0.008353 -0.008353 0.012894 0.000000 0.000000 0.000000
# 4 0.000000 0.000000 0.000000 0.033858 0.000000 0.000000
# 5 0.000000 0.000000 0.000000 0.000000 0.033858 0.000000
# 6 0.000000 0.000000 0.000000 0.000000 0.000000 0.083272
#
#
# Mechanical properties :
#
#
# Convention : Reuss Voigt Hill
#
# Bulk Modulus (GPa) = 45.13725 66.00992 55.57359
# Shear Modulus (GPa) = 17.36405 22.06519 19.71462
#
# Velocity S-wave (km/s) = 3.09905 3.49347 3.30215
# Velocity P-wave (km/s) = 6.14581 7.26517 6.72881
#
# Compressibility (1/GPa) = 0.02215465
#
# Stress axis : x y z
#
# Youngs Moduli (GPa) = 31.75978 31.75978 77.55521
#
# Poissons Ratio (x) = 0.32235 0.64783
# Poissons Ratio (y) = 0.32235 0.64783
# Poissons Ratio (z) = 0.26530 0.26530
#
# Static dielectric constant tensor:
#      x y z
#    x 3.209860 0.000000 0.000000 
#    y 0.000000 3.209860 0.000000 
#    z 0.000000 0.000000 3.300750 
# 
# 
# High freq. dielectric constant tensor:
#      x y z
#    x 1.676850 0.000000 0.000000 
#    y 0.000000 1.676850 0.000000 
#    z 0.000000 0.000000 1.698770 
# 
# From -- ./inp_files/9935.got.cif
#   From: 2010.03.12/outbox.cif.g09.slc.cpg/sg181_5_cif.got.tgz:9935.got - 2010.04.01 11:42:41.
