data_PCOD8326421
_publ_section_title
;
Structure prediction by ZEFSAII (Michael W. Deem and Ramdas Pophale) SiO2 
 PCOD8326421
Probable space group: P 64 2 2
;
_chemical_formula_sum "Si O2"
_cell_formula_units_Z 36
_cell_length_a 8.765892
_cell_length_b 8.765892
_cell_length_c 20.287553
_cell_angle_alpha 90.000000
_cell_angle_beta 90.000000
_cell_angle_gamma 120.000000
_cell_volume 1350.058322
_symmetry_space_group_name_H-M "P 64 2 2"
_symmetry_group_IT_number 181
_symmetry_cell_setting 'hexagonal'
loop_
_space_group_symop_operation_xyz
x,y,z
x-y,x,2/3+z
-y,x-y,1/3+z
-x,-y,z
-x+y,-x,2/3+z
y,-x+y,1/3+z
x-y,-y,-z
-x,-x+y,2/3-z
y,x,1/3-z
-y,-x,1/3-z
-x+y,y,-z
x,x-y,2/3-z
loop_
_atom_site_type_symbol
_atom_site_label
_atom_site_fract_x
_atom_site_fract_y
_atom_site_fract_z
Si Si1 0.618003 0.698459 0.010300
Si Si2 0.138070 0.199342 0.900579
Si Si3 0.317756 0.494343 0.796954
O O1 0.500000 0.500000 0.986814
O O2 0.770793 0.703975 0.053941
O O3 0.511227 0.767746 0.054342
O O4 0.699941 0.802931 0.941071
O O5 0.188922 0.308497 0.832574
O O6 0.000000 0.000000 0.884408
O O7 0.500000 0.500000 0.796393
O O8 0.323324 0.661662 0.833334
#
# Coordination Sequence:
#
# PCOD8326421 Si02
#       3
#    12  12  12
#     4  11  23  48  79 113 162 210 266 340 414 499
#     4  11  26  48  81 120 155 214 287 339 418 516
#     4  12  28  51  80 121 165 218 278 354 435 513
#
# _framework density 26.665517000000001
#
# number of rings (size 3 to 8) (size 9 to 14) (size 15 to 20)
#    0.000    0.667    3.333    4.000    4.667    2.667 
#    6.000    0.000    0.000    0.000    0.000    0.000 
#    0.000    0.000    0.000    0.000    0.000    0.000 
#
# Total GULP energy -446145.382820 kJ/mol
# GULP energy per Si atom -12392.927301 kJ/mol
# Density = 2.660482 g / cm^3
# Si number density = 26.665517 Si / 1000 Ang^3
#
#
#
# Elastic Constant Matrix: (Units=GPa)
#
#
# Indices 1 2 3 4 5 6 
#
# 1 154.0956 78.7160 52.7811 0.0000 0.0000 0.0000
# 2 78.7160 154.0956 52.7811 0.0000 0.0000 0.0000
# 3 52.7811 52.7811 148.9397 0.0000 0.0000 0.0000
# 4 0.0000 0.0000 0.0000 -16.9609 0.0000 0.0000
# 5 0.0000 0.0000 0.0000 0.0000 -16.9609 0.0000
# 6 0.0000 0.0000 0.0000 0.0000 0.0000 37.6898
#
#
#
# Elastic Compliance Matrix: (Units=1/GPa)
#
#
# Indices 1 2 3 4 5 6 
#
# 1 0.009192 -0.004074 -0.001814 0.000000 0.000000 0.000000
# 2 -0.004074 0.009192 -0.001814 0.000000 0.000000 0.000000
# 3 -0.001814 -0.001814 0.008000 0.000000 0.000000 0.000000
# 4 0.000000 0.000000 0.000000 -0.058959 0.000000 0.000000
# 5 0.000000 0.000000 0.000000 0.000000 -0.058959 0.000000
# 6 0.000000 0.000000 0.000000 0.000000 0.000000 0.026532
#
#
# Mechanical properties :
#
#
# Convention : Reuss Voigt Hill
#
# Bulk Modulus (GPa) = 91.07086 91.74305 91.40695
# Shear Modulus (GPa) = -108.83810 18.94380 -44.94715
#
# Velocity S-wave (km/s) = -6.39567 2.66827 -4.11005
# Velocity P-wave (km/s) = 4.50692 6.63119 3.43950
#
# Compressibility (1/GPa) = 0.01098046
#
# Stress axis : x y z
#
# Youngs Moduli (GPa) = 108.79133 108.79133 125.00748
#
# Poissons Ratio (x) = 0.44325 0.22671
# Poissons Ratio (y) = 0.44325 0.22671
# Poissons Ratio (z) = 0.19730 0.19730
#
# Static dielectric constant tensor:
#      x y z
#    x 5.311670 0.000000 0.000000 
#    y 0.000000 5.311670 0.000000 
#    z 0.000000 0.000000 5.914080 
# 
# 
# High freq. dielectric constant tensor:
#      x y z
#    x 2.078540 0.000000 0.000000 
#    y 0.000000 2.078540 0.000000 
#    z 0.000000 0.000000 2.096130 
# 
# From -- ./inp_files/10793.got.cif
#   From: 2010.03.12/outbox.cif.g09.slc.cpg/sg181_6_cif.got.tgz:10793.got - 2010.04.01 11:42:41.
