data_PCOD8326385
_publ_section_title
;
Structure prediction by ZEFSAII (Michael W. Deem and Ramdas Pophale) SiO2 
 PCOD8326385
Probable space group: P 64 2 2
;
_chemical_formula_sum "Si O2"
_cell_formula_units_Z 39
_cell_length_a 16.550850
_cell_length_b 16.550850
_cell_length_c 8.310746
_cell_angle_alpha 90.000000
_cell_angle_beta 90.000000
_cell_angle_gamma 120.000000
_cell_volume 1971.565665
_symmetry_space_group_name_H-M "P 64 2 2"
_symmetry_group_IT_number 181
_symmetry_cell_setting 'hexagonal'
loop_
_space_group_symop_operation_xyz
x,y,z
x-y,x,2/3+z
-y,x-y,1/3+z
-x,-y,z
-x+y,-x,2/3+z
y,-x+y,1/3+z
x-y,-y,-z
-x,-x+y,2/3-z
y,x,1/3-z
-y,-x,1/3-z
-x+y,y,-z
x,x-y,2/3-z
loop_
_atom_site_type_symbol
_atom_site_label
_atom_site_fract_x
_atom_site_fract_y
_atom_site_fract_z
Si Si1 0.281919 0.500322 0.822383
Si Si2 0.500000 0.500000 0.166667
Si Si3 0.343030 0.102970 0.950565
Si Si4 0.517595 0.147245 0.739485
O O1 0.231347 0.388954 0.783820
O O2 0.394483 0.553660 0.824708
O O3 0.244491 0.544125 0.685416
O O4 0.256121 0.512242 0.000000
O O5 0.411538 0.477183 0.274754
O O6 0.298121 0.149061 0.833334
O O7 0.433452 0.111679 0.863647
O O8 0.263470 0.000000 0.000000
#
# Coordination Sequence:
#
# PCOD8326385 Si02
#       4
#    12   3  12  12
#     4  11  21  37  52  82 114 161 207 256 301 358
#     4  12  20  36  50  76 104 160 208 264 292 348
#     4  10  23  40  59  84 116 158 198 251 308 373
#     4  11  23  34  56  76 116 160 209 260 301 359
#
# _framework density 19.781233
#
# number of rings (size 3 to 8) (size 9 to 14) (size 15 to 20)
#    0.000    1.231    3.077    2.769    0.000   11.077 
#    0.000    0.000    0.000    0.000    0.000    0.000 
#    0.000    6.154    0.000    0.000    0.000    0.000 
#
# Total GULP energy -483293.321689 kJ/mol
# GULP energy per Si atom -12392.136454 kJ/mol
# Density = 1.973621 g / cm^3
# Si number density = 19.781233 Si / 1000 Ang^3
#
#
#
# Elastic Constant Matrix: (Units=GPa)
#
#
# Indices 1 2 3 4 5 6 
#
# 1 87.0653 46.4109 23.1404 0.0000 0.0000 0.0000
# 2 46.4109 87.0653 23.1404 0.0000 0.0000 0.0000
# 3 23.1404 23.1404 77.5879 0.0000 0.0000 0.0000
# 4 0.0000 0.0000 0.0000 18.3886 0.0000 0.0000
# 5 0.0000 0.0000 0.0000 0.0000 18.3886 0.0000
# 6 0.0000 0.0000 0.0000 0.0000 0.0000 20.3272
#
#
#
# Elastic Compliance Matrix: (Units=1/GPa)
#
#
# Indices 1 2 3 4 5 6 
#
# 1 0.016477 -0.008121 -0.002492 0.000000 0.000000 0.000000
# 2 -0.008121 0.016477 -0.002492 0.000000 0.000000 0.000000
# 3 -0.002492 -0.002492 0.014375 0.000000 0.000000 0.000000
# 4 0.000000 0.000000 0.000000 0.054381 0.000000 0.000000
# 5 0.000000 0.000000 0.000000 0.000000 0.054381 0.000000
# 6 0.000000 0.000000 0.000000 0.000000 0.000000 0.049195
#
#
# Mechanical properties :
#
#
# Convention : Reuss Voigt Hill
#
# Bulk Modulus (GPa) = 47.35152 48.56686 47.95919
# Shear Modulus (GPa) = 20.96113 22.02267 21.49190
#
# Velocity S-wave (km/s) = 3.25875 3.34025 3.29975
# Velocity P-wave (km/s) = 6.17648 6.28344 6.23019
#
# Compressibility (1/GPa) = 0.02111865
#
# Stress axis : x y z
#
# Youngs Moduli (GPa) = 60.69120 60.69120 69.56436
#
# Poissons Ratio (x) = 0.49286 0.17337
# Poissons Ratio (y) = 0.49286 0.17337
# Poissons Ratio (z) = 0.15125 0.15125
#
# Static dielectric constant tensor:
#      x y z
#    x 3.682980 0.000000 0.000000 
#    y 0.000000 3.682980 0.000000 
#    z 0.000000 0.000000 4.347460 
# 
# 
# High freq. dielectric constant tensor:
#      x y z
#    x 1.737890 0.000000 0.000000 
#    y 0.000000 1.737890 0.000000 
#    z 0.000000 0.000000 1.802900 
# 
# From -- ./inp_files/2500.got.cif
#   From: 2010.03.12/outbox.cif.g09.slc.cpg/sg181_2_cif.got.tgz:2500.got - 2010.04.01 11:42:41.
