data_PCOD8326965
_publ_section_title
;
Structure prediction by ZEFSAII (Michael W. Deem and Ramdas Pophale) SiO2 
 PCOD8326965
Probable space group: P -6 M 2
;
_chemical_formula_sum "Si O2"
_cell_formula_units_Z 66
_cell_length_a 17.643592
_cell_length_b 17.643592
_cell_length_c 15.406751
_cell_angle_alpha 90.000000
_cell_angle_beta 90.000000
_cell_angle_gamma 120.000000
_cell_volume 4153.514281
_symmetry_space_group_name_H-M "P -6 M 2"
_symmetry_group_IT_number 187
_symmetry_cell_setting 'hexagonal'
loop_
_space_group_symop_operation_xyz
x,y,z
-x+y,-x,-z
-y,x-y,z
x,y,-z
-x+y,-x,z
-y,x-y,-z
-y,-x,-z
-x+y,y,-z
x,x-y,-z
-x+y,y,z
x,x-y,z
-y,-x,z
loop_
_atom_site_type_symbol
_atom_site_label
_atom_site_fract_x
_atom_site_fract_y
_atom_site_fract_z
Si Si1 0.999652 0.170213 0.602807
Si Si2 0.094263 0.362970 0.661489
Si Si3 0.666378 0.508850 0.901358
Si Si4 0.493489 0.333957 0.401774
Si Si5 0.156879 0.488167 0.500000
Si Si6 0.601665 0.572887 0.247073
O O1 0.998057 0.173883 0.500000
O O2 0.905693 0.094308 0.638596
O O3 0.074146 0.148291 0.633149
O O4 0.020886 0.264161 0.637889
O O5 0.183893 0.367786 0.689329
O O6 0.109871 0.428759 0.583040
O O7 0.059417 0.393078 0.744197
O O8 0.756363 0.512726 0.879704
O O9 0.590014 0.409987 0.883798
O O10 0.656312 0.574849 0.837246
O O11 0.663754 0.537637 0.000000
O O12 0.461039 0.334760 0.500000
O O13 0.479820 0.239910 0.377617
O O14 0.596026 0.403975 0.392392
O O15 0.438159 0.356372 0.335551
O O16 0.259916 0.519832 0.500000
O O17 0.143965 0.571983 0.500000
O O18 0.501442 0.498559 0.236283
#
# Coordination Sequence:
#
# PCOD8326965 Si02
#       6
#    12  12  12  12   6  12
#     4   9  16  27  42  60  82 111 148 187 226 266
#     4  10  20  33  46  63  88 118 152 192 239 282
#     4   9  17  30  49  73 101 131 162 193 224 261
#     4   9  17  27  39  58  89 128 164 189 211 250
#     4  10  19  32  49  66  86 116 156 198 235 276
#     4  10  20  31  45  66  89 118 153 191 236 278
#
# _framework density 15.890158
#
# number of rings (size 3 to 8) (size 9 to 14) (size 15 to 20)
#    0.000    2.545    0.909    1.727    1.273    3.636 
#    0.000    3.636    0.000    0.909    0.000    0.000 
#    0.000    0.000    0.000    0.000    0.000    0.000 
#
# Total GULP energy -818289.464655 kJ/mol
# GULP energy per Si atom -12398.325222 kJ/mol
# Density = 1.585399 g / cm^3
# Si number density = 15.890158 Si / 1000 Ang^3
#
#
#
# Elastic Constant Matrix: (Units=GPa)
#
#
# Indices 1 2 3 4 5 6 
#
# 1 89.3212 59.0737 41.0612 0.0000 -0.0001 0.0000
# 2 59.0737 89.3212 41.0612 0.0000 0.0001 0.0000
# 3 41.0612 41.0612 74.4732 0.0000 0.0000 0.0000
# 4 0.0000 0.0000 0.0000 18.5612 0.0000 0.0001
# 5 -0.0001 0.0001 0.0000 0.0000 18.5612 0.0000
# 6 0.0000 0.0000 0.0000 0.0001 0.0000 15.1238
#
#
#
# Elastic Compliance Matrix: (Units=1/GPa)
#
#
# Indices 1 2 3 4 5 6 
#
# 1 0.021379 -0.011681 -0.005347 0.000000 0.000000 0.000000
# 2 -0.011681 0.021379 -0.005347 0.000000 0.000000 0.000000
# 3 -0.005347 -0.005347 0.019324 0.000000 0.000000 0.000000
# 4 0.000000 0.000000 0.000000 0.053876 0.000000 0.000000
# 5 0.000000 0.000000 0.000000 0.000000 0.053876 0.000000
# 6 0.000000 0.000000 0.000000 0.000000 0.000000 0.066121
#
#
# Mechanical properties :
#
#
# Convention : Reuss Voigt Hill
#
# Bulk Modulus (GPa) = 57.69799 59.50087 58.59943
# Shear Modulus (GPa) = 17.45306 17.91052 17.68179
#
# Velocity S-wave (km/s) = 3.31774 3.36094 3.33941
# Velocity P-wave (km/s) = 7.14604 7.25173 7.19908
#
# Compressibility (1/GPa) = 0.01733163
#
# Stress axis : x y z
#
# Youngs Moduli (GPa) = 46.77447 46.77447 51.74977
#
# Poissons Ratio (x) = 0.54639 0.27670
# Poissons Ratio (y) = 0.54639 0.27670
# Poissons Ratio (z) = 0.25010 0.25010
#
# Static dielectric constant tensor:
#      x y z
#    x 3.041600 0.000000 0.000000 
#    y 0.000000 3.041600 0.000000 
#    z 0.000000 0.000000 2.834750 
# 
# 
# High freq. dielectric constant tensor:
#      x y z
#    x 1.608260 0.000000 0.000000 
#    y 0.000000 1.608260 0.000000 
#    z 0.000000 0.000000 1.572570 
# 
# From -- ./inp_files/2470.got.cif
#   From: 2010.03.12/outbox.cif.g09.slc.cpg/sg187_2_cif.got.tgz:2470.got - 2010.04.01 11:58:23.
