data_PCOD8326727
_publ_section_title
;
Structure prediction by ZEFSAII (Michael W. Deem and Ramdas Pophale) SiO2 
 PCOD8326727
Probable space group: P 63 M C
;
_chemical_formula_sum "Si O2"
_cell_formula_units_Z 96
_cell_length_a 16.807044
_cell_length_b 16.807044
_cell_length_c 24.252335
_cell_angle_alpha 90.000000
_cell_angle_beta 90.000000
_cell_angle_gamma 120.000000
_cell_volume 5932.897760
_symmetry_space_group_name_H-M "P 63 M C"
_symmetry_group_IT_number 186
_symmetry_cell_setting 'hexagonal'
loop_
_space_group_symop_operation_xyz
x,y,z
x-y,x,1/2+z
-y,x-y,z
-x,-y,1/2+z
-x+y,-x,z
y,-x+y,1/2+z
-x+y,y,z
x,x-y,z
-y,-x,z
y,x,1/2+z
x-y,-y,1/2+z
-x,-x+y,1/2+z
loop_
_atom_site_type_symbol
_atom_site_label
_atom_site_fract_x
_atom_site_fract_y
_atom_site_fract_z
Si Si1 0.182830 0.183227 0.560580
Si Si2 0.664248 0.513735 0.650456
Si Si3 0.578008 0.977291 0.715395
Si Si4 0.853014 0.518476 0.431828
Si Si5 0.903483 0.623671 0.322796
Si Si6 0.819007 0.999063 0.287974
Si Si7 0.902423 0.616334 0.540049
Si Si8 0.269262 0.224723 0.176714
O O1 0.157947 0.078974 0.548643
O O2 0.276867 0.258020 0.531194
O O3 0.203241 0.203207 0.625158
O O4 0.097878 0.195756 0.540927
O O5 0.764040 0.528079 0.661690
O O6 0.592884 0.407117 0.637355
O O7 0.632766 0.544875 0.705717
O O8 0.663432 0.573680 0.597971
O O9 0.469524 0.939047 0.702233
O O10 0.585982 0.945744 0.776828
O O11 0.629140 0.944053 0.672138
O O12 0.753951 0.507901 0.436764
O O13 0.838985 0.419493 0.420856
O O14 0.909527 0.583046 0.381083
O O15 0.909965 0.560666 0.488237
O O16 0.798249 0.596498 0.307626
O O17 0.965144 0.733923 0.329457
O O18 0.807514 0.903757 0.310097
O O19 0.768500 0.982016 0.228790
O O20 0.927097 0.072904 0.282961
O O21 0.805327 0.610654 0.539709
O O22 0.292749 0.146375 0.189248
#
# Coordination Sequence:
#
# PCOD8326727 Si02
#       8
#    12  12  12  12  12  12  12  12
#     4  10  18  29  45  67  95 128 162 193 226 268
#     4  10  19  30  45  67  96 126 157 191 235 289
#     4  10  18  28  44  65  91 124 157 188 230 289
#     4  10  19  33  53  73  94 119 155 200 246 293
#     4   9  19  33  47  67  94 124 157 198 245 286
#     4   9  16  26  42  65  92 124 159 194 230 271
#     4   9  18  31  47  69  96 124 152 190 238 285
#     4   9  17  28  43  63  91 123 157 198 237 271
#
# _framework density 16.180962999999998
#
# number of rings (size 3 to 8) (size 9 to 14) (size 15 to 20)
#    0.000    2.500    1.250    2.750    0.000    2.000 
#    0.000    3.125    0.000    2.750    0.000    1.750 
#    0.000    0.000    0.000    5.625    0.000    0.000 
#
# Total GULP energy -1189435.990772 kJ/mol
# GULP energy per Si atom -12389.958237 kJ/mol
# Density = 1.614413 g / cm^3
# Si number density = 16.180963 Si / 1000 Ang^3
#
#
#
# Elastic Constant Matrix: (Units=GPa)
#
#
# Indices 1 2 3 4 5 6 
#
# 1 78.3685 29.6050 26.5774 0.0000 0.0000 0.0000
# 2 29.6050 78.3685 26.5774 0.0000 0.0000 0.0000
# 3 26.5774 26.5774 69.5585 0.0000 0.0000 0.0000
# 4 0.0000 0.0000 0.0000 20.7974 0.0000 0.0000
# 5 0.0000 0.0000 0.0000 0.0000 20.7974 0.0000
# 6 0.0000 0.0000 0.0000 0.0000 0.0000 24.3818
#
#
#
# Elastic Compliance Matrix: (Units=1/GPa)
#
#
# Indices 1 2 3 4 5 6 
#
# 1 0.015957 -0.004550 -0.004359 0.000000 0.000000 0.000000
# 2 -0.004550 0.015957 -0.004359 0.000000 0.000000 0.000000
# 3 -0.004359 -0.004359 0.017707 0.000000 0.000000 0.000000
# 4 0.000000 0.000000 0.000000 0.048083 0.000000 0.000000
# 5 0.000000 0.000000 0.000000 0.000000 0.048083 0.000000
# 6 0.000000 0.000000 0.000000 0.000000 0.000000 0.041014
#
#
# Mechanical properties :
#
#
# Convention : Reuss Voigt Hill
#
# Bulk Modulus (GPa) = 43.31383 43.53502 43.42443
# Shear Modulus (GPa) = 22.62120 22.76435 22.69278
#
# Velocity S-wave (km/s) = 3.74306 3.75488 3.74897
# Velocity P-wave (km/s) = 6.74590 6.76479 6.75535
#
# Compressibility (1/GPa) = 0.02308731
#
# Stress axis : x y z
#
# Youngs Moduli (GPa) = 62.66770 62.66770 56.47450
#
# Poissons Ratio (x) = 0.28513 0.24615
# Poissons Ratio (y) = 0.28513 0.24615
# Poissons Ratio (z) = 0.27314 0.27314
#
# Static dielectric constant tensor:
#      x y z
#    x 3.103220 0.000000 0.000000 
#    y 0.000000 3.103220 0.000000 
#    z 0.000000 0.000000 3.016040 
# 
# 
# High freq. dielectric constant tensor:
#      x y z
#    x 1.617080 0.000000 0.000000 
#    y 0.000000 1.617080 0.000000 
#    z 0.000000 0.000000 1.599500 
# 
# From -- ./inp_files/3912.got.cif
#   From: 2010.03.12/outbox.cif.g09.slc.cpg/sg186_2_cif.got.tgz:3912.got - 2010.04.01 11:56:34.
