data_PCOD8326376
_publ_section_title
;
Structure prediction by ZEFSAII (Michael W. Deem and Ramdas Pophale) SiO2 
 PCOD8326376
Probable space group: P 64 2 2
;
_chemical_formula_sum "Si O2"
_cell_formula_units_Z 51
_cell_length_a 12.159612
_cell_length_b 12.159612
_cell_length_c 19.212766
_cell_angle_alpha 90.000000
_cell_angle_beta 90.000000
_cell_angle_gamma 120.000000
_cell_volume 2460.140778
_symmetry_space_group_name_H-M "P 64 2 2"
_symmetry_group_IT_number 181
_symmetry_cell_setting 'hexagonal'
loop_
_space_group_symop_operation_xyz
x,y,z
x-y,x,2/3+z
-y,x-y,1/3+z
-x,-y,z
-x+y,-x,2/3+z
y,-x+y,1/3+z
x-y,-y,-z
-x,-x+y,2/3-z
y,x,1/3-z
-y,-x,1/3-z
-x+y,y,-z
x,x-y,2/3-z
loop_
_atom_site_type_symbol
_atom_site_label
_atom_site_fract_x
_atom_site_fract_y
_atom_site_fract_z
Si Si1 0.383334 0.191667 0.333334
Si Si2 0.768595 0.961051 0.752631
Si Si3 0.643530 0.039390 0.857011
Si Si4 0.309690 0.860101 0.526699
Si Si5 0.284077 0.000000 0.000000
Si Si6 0.000000 0.000000 0.166667
O O1 0.301824 0.242609 0.370893
O O2 0.461315 0.303570 0.277371
O O3 0.735003 0.842671 0.703500
O O4 0.911477 0.028456 0.783208
O O5 0.675927 0.937480 0.819775
O O6 0.748180 0.177798 0.833369
O O7 0.661066 0.049588 0.939935
O O8 0.500000 0.000000 0.836792
O O9 0.416741 0.833482 0.500000
O O10 0.339059 0.000000 0.500000
#
# Coordination Sequence:
#
# PCOD8326376 Si02
#       6
#     6  12  12  12   6   3
#     4  10  22  39  66 102 127 178 218 286 362 410
#     4  11  23  38  67 102 141 167 234 285 367 423
#     4  11  25  44  62  97 141 180 228 287 345 428
#     4  10  23  46  69  96 131 177 239 293 337 420
#     4  12  21  43  64 100 128 189 217 284 346 428
#     4  12  20  38  64 104 140 176 210 306 356 416
#
# _framework density 20.730522000000001
#
# number of rings (size 3 to 8) (size 9 to 14) (size 15 to 20)
#    0.000    1.176    2.353    3.176    6.588    1.882 
#   29.647    0.000    0.000    0.000    0.000    0.000 
#    0.000    0.000    0.000    0.000    0.000    0.000 
#
# Total GULP energy -631818.513525 kJ/mol
# GULP energy per Si atom -12388.598304 kJ/mol
# Density = 2.068334 g / cm^3
# Si number density = 20.730522 Si / 1000 Ang^3
#
#
#
# Elastic Constant Matrix: (Units=GPa)
#
#
# Indices 1 2 3 4 5 6 
#
# 1 126.3771 62.0850 55.7078 0.0000 0.0000 0.0000
# 2 62.0850 126.3771 55.7078 0.0000 0.0000 0.0000
# 3 55.7078 55.7078 176.3607 0.0000 0.0000 0.0000
# 4 0.0000 0.0000 0.0000 32.0930 0.0000 0.0000
# 5 0.0000 0.0000 0.0000 0.0000 32.0930 0.0000
# 6 0.0000 0.0000 0.0000 0.0000 0.0000 32.1461
#
#
#
# Elastic Compliance Matrix: (Units=1/GPa)
#
#
# Indices 1 2 3 4 5 6 
#
# 1 0.011039 -0.004515 -0.002061 0.000000 0.000000 0.000000
# 2 -0.004515 0.011039 -0.002061 0.000000 0.000000 0.000000
# 3 -0.002061 -0.002061 0.006972 0.000000 0.000000 0.000000
# 4 0.000000 0.000000 0.000000 0.031159 0.000000 0.000000
# 5 0.000000 0.000000 0.000000 0.000000 0.031159 0.000000
# 6 0.000000 0.000000 0.000000 0.000000 0.000000 0.031108
#
#
# Mechanical properties :
#
#
# Convention : Reuss Voigt Hill
#
# Bulk Modulus (GPa) = 84.90780 86.23513 85.57147
# Shear Modulus (GPa) = 34.80038 36.30736 35.55387
#
# Velocity S-wave (km/s) = 4.10164 4.18951 4.14581
# Velocity P-wave (km/s) = 7.96731 8.06791 8.01777
#
# Compressibility (1/GPa) = 0.01177748
#
# Stress axis : x y z
#
# Youngs Moduli (GPa) = 90.58588 90.58588 143.42713
#
# Poissons Ratio (x) = 0.40897 0.29559
# Poissons Ratio (y) = 0.40897 0.29559
# Poissons Ratio (z) = 0.18669 0.18669
#
# Static dielectric constant tensor:
#      x y z
#    x 3.551340 0.000000 0.000000 
#    y 0.000000 3.551340 0.000000 
#    z 0.000000 0.000000 5.235420 
# 
# 
# High freq. dielectric constant tensor:
#      x y z
#    x 1.802910 0.000000 0.000000 
#    y 0.000000 1.802910 0.000000 
#    z 0.000000 0.000000 1.842710 
# 
# From -- ./inp_files/8883.got.cif
#   From: 2010.03.12/outbox.cif.g09.slc.cpg/sg181_5_cif.got.tgz:8883.got - 2010.04.01 11:42:41.
