data_PCOD8326777
_publ_section_title
;
Structure prediction by ZEFSAII (Michael W. Deem and Ramdas Pophale) SiO2 
 PCOD8326777
Probable space group: P 63 M C
;
_chemical_formula_sum "Si O2"
_cell_formula_units_Z 84
_cell_length_a 20.757499
_cell_length_b 20.757499
_cell_length_c 11.324938
_cell_angle_alpha 90.000000
_cell_angle_beta 90.000000
_cell_angle_gamma 120.000000
_cell_volume 4225.873730
_symmetry_space_group_name_H-M "P 63 M C"
_symmetry_group_IT_number 186
_symmetry_cell_setting 'hexagonal'
loop_
_space_group_symop_operation_xyz
x,y,z
x-y,x,1/2+z
-y,x-y,z
-x,-y,1/2+z
-x+y,-x,z
y,-x+y,1/2+z
-x+y,y,z
x,x-y,z
-y,-x,z
y,x,1/2+z
x-y,-y,1/2+z
-x,-x+y,1/2+z
loop_
_atom_site_type_symbol
_atom_site_label
_atom_site_fract_x
_atom_site_fract_y
_atom_site_fract_z
Si Si1 0.996186 0.777242 0.277410
Si Si2 0.117294 0.380407 0.236975
Si Si3 0.334138 0.811573 0.381335
Si Si4 0.120412 0.735237 0.814194
Si Si5 0.983052 0.641709 0.524612
Si Si6 0.515315 0.887056 0.614969
Si Si7 0.187454 0.962007 0.525424
O O1 0.921144 0.698280 0.262520
O O2 0.999292 0.818559 0.151427
O O3 0.068633 0.769002 0.295157
O O4 0.996344 0.817463 0.403213
O O5 0.195550 0.391099 0.194174
O O6 0.127519 0.442445 0.331070
O O7 0.076568 0.390707 0.127555
O O8 0.412640 0.825280 0.329501
O O9 0.271217 0.728784 0.346633
O O10 0.338185 0.819391 0.522544
O O11 0.200631 0.799370 0.864018
O O12 0.134264 0.689201 0.715301
O O13 0.065876 0.674740 0.907772
O O14 0.038219 0.609943 0.543679
O O15 0.029554 0.731254 0.526213
O O16 0.448949 0.897897 0.668107
O O17 0.123641 0.876360 0.521105
#
# Coordination Sequence:
#
# PCOD8326777 Si02
#       7
#    12  12  12  12  12  12  12
#     4  10  20  32  53  84 113 153 200 230 287 355
#     4  10  19  34  54  80 114 150 186 232 295 350
#     4  10  21  36  56  80 107 146 195 247 299 350
#     4  11  21  37  59  81 113 152 194 241 298 363
#     4  10  22  37  54  83 110 150 196 231 289 352
#     4  11  23  36  55  81 114 151 195 249 301 357
#     4  10  19  34  54  79 117 156 186 232 285 343
#
# _framework density 19.877547
#
# number of rings (size 3 to 8) (size 9 to 14) (size 15 to 20)
#    0.000    1.714    2.857    3.571    0.000    2.857 
#    0.000    2.143    0.000    0.286    0.000    0.000 
#    0.000    0.000    0.000  872.143    0.000    0.000 
#
# Total GULP energy -1040720.096055 kJ/mol
# GULP energy per Si atom -12389.524953 kJ/mol
# Density = 1.983230 g / cm^3
# Si number density = 19.877547 Si / 1000 Ang^3
#
#
#
# Elastic Constant Matrix: (Units=GPa)
#
#
# Indices 1 2 3 4 5 6 
#
# 1 71.1232 40.9462 22.8690 0.0000 0.0000 0.0000
# 2 40.9462 71.1232 22.8690 0.0000 0.0000 0.0000
# 3 22.8690 22.8690 134.5136 0.0000 0.0000 0.0000
# 4 0.0000 0.0000 0.0000 15.0354 0.0000 0.0000
# 5 0.0000 0.0000 0.0000 0.0000 15.0354 0.0000
# 6 0.0000 0.0000 0.0000 0.0000 0.0000 15.0885
#
#
#
# Elastic Compliance Matrix: (Units=1/GPa)
#
#
# Indices 1 2 3 4 5 6 
#
# 1 0.021363 -0.011775 -0.001630 0.000000 0.000000 0.000000
# 2 -0.011775 0.021363 -0.001630 0.000000 0.000000 0.000000
# 3 -0.001630 -0.001630 0.007988 0.000000 0.000000 0.000000
# 4 0.000000 0.000000 0.000000 0.066510 0.000000 0.000000
# 5 0.000000 0.000000 0.000000 0.000000 0.066510 0.000000
# 6 0.000000 0.000000 0.000000 0.000000 0.000000 0.066276
#
#
# Mechanical properties :
#
#
# Convention : Reuss Voigt Hill
#
# Bulk Modulus (GPa) = 48.43881 50.01427 49.22654
# Shear Modulus (GPa) = 17.42395 21.70358 19.56377
#
# Velocity S-wave (km/s) = 2.96390 3.30792 3.14062
# Velocity P-wave (km/s) = 6.01119 6.30917 6.16198
#
# Compressibility (1/GPa) = 0.02064460
#
# Stress axis : x y z
#
# Youngs Moduli (GPa) = 46.80969 46.80969 125.18029
#
# Poissons Ratio (x) = 0.55117 0.20406
# Poissons Ratio (y) = 0.55117 0.20406
# Poissons Ratio (z) = 0.07631 0.07631
#
# Static dielectric constant tensor:
#      x y z
#    x 3.481630 0.000000 0.000000 
#    y 0.000000 3.481630 0.000000 
#    z 0.000000 0.000000 4.084400 
# 
# 
# High freq. dielectric constant tensor:
#      x y z
#    x 1.749980 0.000000 0.000000 
#    y 0.000000 1.749980 0.000000 
#    z 0.000000 0.000000 1.790630 
# 
# From -- ./inp_files/1896.got.cif
#   From: 2010.03.12/outbox.cif.g09.slc.cpg/sg186_1_cif.got.tgz:1896.got - 2010.04.01 11:56:34.
