data_PCOD8326465
_publ_section_title
;
Structure prediction by ZEFSAII (Michael W. Deem and Ramdas Pophale) SiO2 
 PCOD8326465
Probable space group: P 63 2 2
;
_chemical_formula_sum "Si O2"
_cell_formula_units_Z 46
_cell_length_a 14.034938
_cell_length_b 14.034938
_cell_length_c 12.379006
_cell_angle_alpha 90.000000
_cell_angle_beta 90.000000
_cell_angle_gamma 120.000000
_cell_volume 2111.725198
_symmetry_space_group_name_H-M "P 63 2 2"
_symmetry_group_IT_number 182
_symmetry_cell_setting 'hexagonal'
loop_
_space_group_symop_operation_xyz
x,y,z
x-y,x,1/2+z
-y,x-y,z
-x,-y,1/2+z
-x+y,-x,z
y,-x+y,1/2+z
x-y,-y,-z
-x,-x+y,-z
y,x,-z
-y,-x,1/2-z
-x+y,y,1/2-z
x,x-y,1/2-z
loop_
_atom_site_type_symbol
_atom_site_label
_atom_site_fract_x
_atom_site_fract_y
_atom_site_fract_z
Si Si1 0.883897 0.769317 0.028509
Si Si2 0.333334 0.666668 0.620159
Si Si3 0.927989 0.072012 0.250000
Si Si4 0.577914 0.796349 0.373828
Si Si5 0.568853 0.441921 0.528183
O O1 0.876707 0.763917 0.157200
O O2 0.879479 0.879479 0.000000
O O3 0.790612 0.669790 0.959133
O O4 0.000000 0.781157 0.000000
O O5 0.333334 0.666667 0.750000
O O6 0.206767 0.601503 0.577302
O O7 0.062434 0.124867 0.250000
O O8 0.619871 0.809936 0.250000
O O9 0.482431 0.826979 0.383144
O O10 0.540077 0.673732 0.413330
O O11 0.484541 0.484541 0.500000
#
# Coordination Sequence:
#
# PCOD8326465 Si02
#       5
#    12   4   6  12  12
#     4  12  23  40  61  98 134 172 221 255 313 387
#     4   9  21  39  67  98 133 168 210 271 338 391
#     4  10  20  40  64  86 134 196 212 248 308 374
#     4  11  25  42  69  95 125 167 223 275 327 384
#     4  10  22  47  65  93 128 168 218 270 329 396
#
# _framework density 21.783137
#
# number of rings (size 3 to 8) (size 9 to 14) (size 15 to 20)
#    0.261    1.043    2.609    3.130    3.652    2.087 
#    9.391    0.000    0.000    0.000    0.000    0.000 
#    0.000    0.000    0.000    0.000    0.000    0.000 
#
# Total GULP energy -569900.572440 kJ/mol
# GULP energy per Si atom -12389.142879 kJ/mol
# Density = 2.173356 g / cm^3
# Si number density = 21.783137 Si / 1000 Ang^3
#
#
#
# Elastic Constant Matrix: (Units=GPa)
#
#
# Indices 1 2 3 4 5 6 
#
# 1 94.4305 24.5834 51.3184 0.0000 -0.0001 0.0000
# 2 24.5834 94.4308 51.3186 -0.0001 0.0000 0.0000
# 3 51.3184 51.3186 220.6380 -0.0001 -0.0001 0.0001
# 4 0.0000 -0.0001 -0.0001 28.6730 0.0000 0.0000
# 5 -0.0001 0.0000 -0.0001 0.0000 28.6729 0.0000
# 6 0.0000 0.0000 0.0001 0.0000 0.0000 34.9236
#
#
#
# Elastic Compliance Matrix: (Units=1/GPa)
#
#
# Indices 1 2 3 4 5 6 
#
# 1 0.012414 -0.001903 -0.002445 0.000000 0.000000 0.000000
# 2 -0.001903 0.012414 -0.002445 0.000000 0.000000 0.000000
# 3 -0.002445 -0.002445 0.005670 0.000000 0.000000 0.000000
# 4 0.000000 0.000000 0.000000 0.034876 0.000000 0.000000
# 5 0.000000 0.000000 0.000000 0.000000 0.034876 0.000000
# 6 0.000000 0.000000 0.000000 0.000000 0.000000 0.028634
#
#
# Mechanical properties :
#
#
# Convention : Reuss Voigt Hill
#
# Bulk Modulus (GPa) = 59.12927 73.77110 66.45018
# Shear Modulus (GPa) = 33.75967 37.27248 35.51608
#
# Velocity S-wave (km/s) = 3.94103 4.14100 4.04225
# Velocity P-wave (km/s) = 6.92188 7.53681 7.23588
#
# Compressibility (1/GPa) = 0.01691210
#
# Stress axis : x y z
#
# Youngs Moduli (GPa) = 80.55536 80.55554 176.38128
#
# Poissons Ratio (x) = 0.15331 0.43120
# Poissons Ratio (y) = 0.15331 0.43120
# Poissons Ratio (z) = 0.19693 0.19693
#
# Static dielectric constant tensor:
#      x y z
#    x 3.741580 0.000000 0.000000 
#    y 0.000000 3.741570 0.000000 
#    z 0.000000 0.000000 3.922760 
# 
# 
# High freq. dielectric constant tensor:
#      x y z
#    x 1.849310 0.000000 0.000000 
#    y 0.000000 1.849310 0.000000 
#    z 0.000000 0.000000 1.858360 
# 
# From -- ./inp_files/2423.got.cif
#   From: 2010.03.12/outbox.cif.g09.slc.cpg/sg182_2_cif.got.tgz:2423.got - 2010.04.01 11:49:36.
