data_PCOD8326568
_publ_section_title
;
Structure prediction by ZEFSAII (Michael W. Deem and Ramdas Pophale) SiO2 
 PCOD8326568
Probable space group: P 6 C C
;
_chemical_formula_sum "Si O2"
_cell_formula_units_Z 72
_cell_length_a 21.016527
_cell_length_b 21.016527
_cell_length_c 9.063309
_cell_angle_alpha 90.000000
_cell_angle_beta 90.000000
_cell_angle_gamma 120.000000
_cell_volume 3466.884064
_symmetry_space_group_name_H-M "P 6 C C"
_symmetry_group_IT_number 184
_symmetry_cell_setting 'hexagonal'
loop_
_space_group_symop_operation_xyz
x,y,z
x-y,x,z
-y,x-y,z
-x,-y,z
-x+y,-x,z
y,-x+y,z
-x+y,y,1/2+z
x,x-y,1/2+z
-y,-x,1/2+z
y,x,1/2+z
x-y,-y,1/2+z
-x,-x+y,1/2+z
loop_
_atom_site_type_symbol
_atom_site_label
_atom_site_fract_x
_atom_site_fract_y
_atom_site_fract_z
Si Si1 0.532020 0.304917 0.953250
Si Si2 0.830305 0.415151 0.203244
Si Si3 0.785275 0.684540 0.953250
Si Si4 0.482849 0.344337 0.453244
Si Si5 0.268788 0.369356 0.453254
Si Si6 0.000002 0.283549 0.703254
O O1 0.572043 0.347571 0.805861
O O2 0.525743 0.226799 0.953249
O O3 0.453734 0.299044 0.953268
O O4 0.572055 0.347578 0.100625
O O5 0.882225 0.487342 0.305271
O O6 0.882229 0.394886 0.101215
O O7 0.709565 0.604758 0.953244
O O8 0.857588 0.677875 0.953248
O O9 0.784891 0.730205 0.808736
O O10 0.784893 0.730201 0.097772
O O11 0.301007 0.351881 0.598321
O O12 0.301009 0.351885 0.308184
#
# Coordination Sequence:
#
# PCOD8326568 Si02
#       6
#    12  12  12  12  12  12
#     4  10  20  36  51  70  96 139 173 218 278 326
#     4  10  20  32  48  71  94 126 170 226 264 330
#     4  10  20  36  58  78 110 142 173 209 265 313
#     4  10  20  36  51  70  96 139 173 218 278 326
#     4  10  20  36  58  78 110 142 173 209 265 313
#     4  10  20  32  56  89 102 134 183 218 240 316
#
# _framework density 20.767928000000001
#
# number of rings (size 3 to 8) (size 9 to 14) (size 15 to 20)
#    0.000    2.000    0.000    4.000    0.000    5.333 
#   20.000    0.000    0.000   70.000    0.000    0.000 
#    0.000    0.000    0.000  462.000    0.000    0.000 
#
# Total GULP energy -892166.200875 kJ/mol
# GULP energy per Si atom -12391.197234 kJ/mol
# Density = 2.072066 g / cm^3
# Si number density = 20.767928 Si / 1000 Ang^3
#
#
#
# Elastic Constant Matrix: (Units=GPa)
#
#
# Indices 1 2 3 4 5 6 
#
# 1 67.9415 48.6589 39.6418 0.0000 0.0000 0.0000
# 2 48.6589 67.9415 39.6418 0.0000 0.0000 0.0000
# 3 39.6418 39.6418 167.9845 0.0000 0.0000 0.0000
# 4 0.0000 0.0000 0.0000 35.4814 0.0000 0.0000
# 5 0.0000 0.0000 0.0000 0.0000 35.4814 0.0000
# 6 0.0000 0.0000 0.0000 0.0000 0.0000 9.6413
#
#
#
# Elastic Compliance Matrix: (Units=1/GPa)
#
#
# Indices 1 2 3 4 5 6 
#
# 1 0.031038 -0.020822 -0.002411 0.000000 0.000000 0.000000
# 2 -0.020822 0.031038 -0.002411 0.000000 0.000000 0.000000
# 3 -0.002411 -0.002411 0.007091 0.000000 0.000000 0.000000
# 4 0.000000 0.000000 0.000000 0.028184 0.000000 0.000000
# 5 0.000000 0.000000 0.000000 0.000000 0.028184 0.000000
# 6 0.000000 0.000000 0.000000 0.000000 0.000000 0.103720
#
#
# Mechanical properties :
#
#
# Convention : Reuss Voigt Hill
#
# Bulk Modulus (GPa) = 55.93192 62.19469 59.06331
# Shear Modulus (GPa) = 17.45194 27.84915 22.65054
#
# Velocity S-wave (km/s) = 2.90199 3.66590 3.30608
# Velocity P-wave (km/s) = 6.18216 6.92321 6.56315
#
# Compressibility (1/GPa) = 0.01787888
#
# Stress axis : x y z
#
# Youngs Moduli (GPa) = 32.21879 32.21879 141.02970
#
# Poissons Ratio (x) = 0.67087 0.33998
# Poissons Ratio (y) = 0.67087 0.33998
# Poissons Ratio (z) = 0.07767 0.07767
#
# Static dielectric constant tensor:
#      x y z
#    x 3.572560 0.000000 0.000000 
#    y 0.000000 3.572560 0.000000 
#    z 0.000000 0.000000 4.272500 
# 
# 
# High freq. dielectric constant tensor:
#      x y z
#    x 1.779280 0.000000 0.000000 
#    y 0.000000 1.779280 0.000000 
#    z 0.000000 0.000000 1.848640 
# 
# From -- ./inp_files/345.got.cif
#   From: 2010.03.12/outbox.cif.g09.slc.cpg/sg184_cif.got.tgz:345.got - 2010.04.01 11:54:36.
