data_PCOD8326887
_publ_section_title
;
Structure prediction by ZEFSAII (Michael W. Deem and Ramdas Pophale) SiO2 
 PCOD8326887
Probable space group: P -6 M 2
;
_chemical_formula_sum "Si O2"
_cell_formula_units_Z 60
_cell_length_a 21.765807
_cell_length_b 21.765807
_cell_length_c 7.690188
_cell_angle_alpha 90.000000
_cell_angle_beta 90.000000
_cell_angle_gamma 120.000000
_cell_volume 3155.129117
_symmetry_space_group_name_H-M "P -6 M 2"
_symmetry_group_IT_number 187
_symmetry_cell_setting 'hexagonal'
loop_
_space_group_symop_operation_xyz
x,y,z
-x+y,-x,-z
-y,x-y,z
x,y,-z
-x+y,-x,z
-y,x-y,-z
-y,-x,-z
-x+y,y,-z
x,x-y,-z
-x+y,y,z
x,x-y,z
-y,-x,z
loop_
_atom_site_type_symbol
_atom_site_label
_atom_site_fract_x
_atom_site_fract_y
_atom_site_fract_z
Si Si1 0.999840 0.144635 0.000000
Si Si2 0.478413 0.666699 0.500000
Si Si3 0.803939 0.052901 0.696628
Si Si4 0.086938 0.473511 0.806099
Si Si5 0.947606 0.338634 0.703477
Si Si6 0.805634 0.472521 0.707071
O O1 0.998763 0.186176 0.827740
O O2 0.935256 0.064744 0.000000
O O3 0.071295 0.142589 0.000000
O O4 0.398948 0.601053 0.500000
O O5 0.474386 0.737193 0.500000
O O6 0.521871 0.666994 0.670194
O O7 0.799703 0.024554 0.500000
O O8 0.867553 0.132448 0.716818
O O9 0.734546 0.055777 0.747516
O O10 0.067407 0.533703 0.758600
O O11 0.015247 0.399133 0.800793
O O12 0.119320 0.484324 0.000000
O O13 0.956013 0.355727 0.500000
O O14 0.876565 0.335301 0.776089
O O15 0.804277 0.472967 0.500000
O O16 0.737056 0.474111 0.780833
O O17 0.804235 0.402118 0.777074
#
# Coordination Sequence:
#
# PCOD8326887 Si02
#       6
#     6   6  12  12  12  12
#     4  10  21  38  60  84 109 140 178 222 274 334
#     4  10  21  40  64  88 113 142 178 222 274 332
#     4   9  19  35  55  80 112 145 181 229 276 325
#     4  10  21  36  56  82 114 148 184 229 273 322
#     4  10  18  31  54  77 107 147 196 230 277 329
#     4   9  16  25  42  72 109 148 191 241 291 335
#
# _framework density 19.016653999999999
#
# number of rings (size 3 to 8) (size 9 to 14) (size 15 to 20)
#    0.000    2.400    1.000    1.600    1.400    4.800 
#    0.000    1.000    0.000    2.400    0.000    0.000 
#    0.000    1.600    0.000    0.000    0.000    0.000 
#
# Total GULP energy -744086.405692 kJ/mol
# GULP energy per Si atom -12401.440095 kJ/mol
# Density = 1.897337 g / cm^3
# Si number density = 19.016654 Si / 1000 Ang^3
#
#
#
# Elastic Constant Matrix: (Units=GPa)
#
#
# Indices 1 2 3 4 5 6 
#
# 1 127.2810 58.5454 52.9220 0.0000 0.0004 0.0000
# 2 58.5454 127.2810 52.9220 0.0000 -0.0004 0.0000
# 3 52.9220 52.9220 97.6168 0.0000 0.0000 0.0000
# 4 0.0000 0.0000 0.0000 11.7001 0.0000 -0.0004
# 5 0.0004 -0.0004 0.0000 0.0000 11.7001 0.0000
# 6 0.0000 0.0000 0.0000 -0.0004 0.0000 34.3678
#
#
#
# Elastic Compliance Matrix: (Units=1/GPa)
#
#
# Indices 1 2 3 4 5 6 
#
# 1 0.011167 -0.003382 -0.004221 0.000000 0.000000 0.000000
# 2 -0.003382 0.011167 -0.004221 0.000000 0.000000 0.000000
# 3 -0.004221 -0.004221 0.014821 0.000000 0.000000 0.000000
# 4 0.000000 0.000000 0.000000 0.085469 0.000000 0.000001
# 5 0.000000 0.000000 0.000000 0.000000 0.085469 0.000000
# 6 0.000000 0.000000 0.000000 0.000001 0.000000 0.029097
#
#
# Mechanical properties :
#
#
# Convention : Reuss Voigt Hill
#
# Bulk Modulus (GPa) = 74.02817 75.66193 74.84505
# Shear Modulus (GPa) = 18.84378 24.07290 21.45834
#
# Velocity S-wave (km/s) = 3.15129 3.56179 3.36281
# Velocity P-wave (km/s) = 7.22865 7.53583 7.38384
#
# Compressibility (1/GPa) = 0.01350837
#
# Stress axis : x y z
#
# Youngs Moduli (GPa) = 89.54965 89.54965 67.47329
#
# Poissons Ratio (x) = 0.30281 0.28479
# Poissons Ratio (y) = 0.30281 0.28479
# Poissons Ratio (z) = 0.37797 0.37797
#
# Static dielectric constant tensor:
#      x y z
#    x 3.367740 0.000000 0.000000 
#    y 0.000000 3.367740 0.000000 
#    z 0.000000 0.000000 3.560030 
# 
# 
# High freq. dielectric constant tensor:
#      x y z
#    x 1.731530 0.000000 0.000000 
#    y 0.000000 1.731530 0.000000 
#    z 0.000000 0.000000 1.737200 
# 
# From -- ./inp_files/673.got.cif
#   From: 2010.03.12/outbox.cif.g09.slc.cpg/sg187_1_cif.got.tgz:673.got - 2010.04.01 11:58:23.
