data_PCOD8326100
_publ_section_title
;
Structure prediction by ZEFSAII (Michael W. Deem and Ramdas Pophale) SiO2 
 PCOD8326100
Probable space group: P 65 2 2
;
_chemical_formula_sum "Si O2"
_cell_formula_units_Z 48
_cell_length_a 16.497529
_cell_length_b 16.497529
_cell_length_c 9.913148
_cell_angle_alpha 90.000000
_cell_angle_beta 90.000000
_cell_angle_gamma 120.000000
_cell_volume 2336.576598
_symmetry_space_group_name_H-M "P 65 2 2"
_symmetry_group_IT_number 179
_symmetry_cell_setting 'hexagonal'
loop_
_space_group_symop_operation_xyz
x,y,z
x-y,x,5/6+z
-y,x-y,2/3+z
-x,-y,1/2+z
-x+y,-x,1/3+z
y,-x+y,1/6+z
x-y,-y,-z
-x,-x+y,1/3-z
y,x,2/3-z
-y,-x,1/6-z
-x+y,y,1/2-z
x,x-y,5/6-z
loop_
_atom_site_type_symbol
_atom_site_label
_atom_site_fract_x
_atom_site_fract_y
_atom_site_fract_z
Si Si1 0.306896 0.243926 0.709739
Si Si2 0.690343 0.489396 0.376643
Si Si3 0.799055 0.309658 0.209975
Si Si4 0.062970 0.306896 0.043072
O O1 0.242191 0.242191 0.833334
O O2 0.415741 0.306289 0.747095
O O3 0.277193 0.138596 0.666667
O O4 0.295724 0.295723 0.583334
O O5 0.758134 0.516267 0.250000
O O6 0.586026 0.413974 0.333335
O O7 0.724522 0.449043 0.500000
O O8 0.890549 0.306290 0.252905
O O9 0.758134 0.241867 0.083334
O O10 0.000000 0.242191 0.166667
#
# Coordination Sequence:
#
# PCOD8326100 Si02
#       4
#    12  12  12  12
#     4  11  23  42  65  90 120 157 201 251 309 366
#     4  11  22  38  61  91 128 168 207 243 285 342
#     4  11  22  38  61  91 128 168 207 243 285 342
#     4  11  23  42  65  90 120 157 201 251 309 366
#
# _framework density 20.542874000000001
#
# number of rings (size 3 to 8) (size 9 to 14) (size 15 to 20)
#    0.000    1.000    0.000   10.500    0.000    1.000 
#    0.000    7.500    0.000    7.500    0.000    0.000 
#    0.000    0.000    0.000    0.000    0.000    0.000 
#
# Total GULP energy -595416.553963 kJ/mol
# GULP energy per Si atom -12404.511541 kJ/mol
# Density = 2.049612 g / cm^3
# Si number density = 20.542874 Si / 1000 Ang^3
#
#
#
# Elastic Constant Matrix: (Units=GPa)
#
#
# Indices 1 2 3 4 5 6 
#
# 1 188.5761 27.7248 75.8933 0.0000 0.0000 0.0000
# 2 27.7248 188.5761 75.8933 0.0000 0.0000 0.0000
# 3 75.8933 75.8933 186.1210 0.0000 0.0000 0.0000
# 4 0.0000 0.0000 0.0000 52.3651 0.0000 0.0000
# 5 0.0000 0.0000 0.0000 0.0000 52.3651 0.0000
# 6 0.0000 0.0000 0.0000 0.0000 0.0000 80.4257
#
#
#
# Elastic Compliance Matrix: (Units=1/GPa)
#
#
# Indices 1 2 3 4 5 6 
#
# 1 0.006347 0.000130 -0.002641 0.000000 0.000000 0.000000
# 2 0.000130 0.006347 -0.002641 0.000000 0.000000 0.000000
# 3 -0.002641 -0.002641 0.007527 0.000000 0.000000 0.000000
# 4 0.000000 0.000000 0.000000 0.019097 0.000000 0.000000
# 5 0.000000 0.000000 0.000000 0.000000 0.019097 0.000000
# 6 0.000000 0.000000 0.000000 0.000000 0.000000 0.012434
#
#
# Mechanical properties :
#
#
# Convention : Reuss Voigt Hill
#
# Bulk Modulus (GPa) = 100.84778 102.47735 101.66257
# Shear Modulus (GPa) = 59.20230 62.61528 60.90879
#
# Velocity S-wave (km/s) = 5.37415 5.52689 5.45105
# Velocity P-wave (km/s) = 9.36518 9.52479 9.44532
#
# Compressibility (1/GPa) = 0.00991593
#
# Stress axis : x y z
#
# Youngs Moduli (GPa) = 157.56377 157.56377 132.86372
#
# Poissons Ratio (x) = -0.02044 0.35087
# Poissons Ratio (y) = -0.02044 0.35087
# Poissons Ratio (z) = 0.41610 0.41610
#
# Static dielectric constant tensor:
#      x y z
#    x 3.394960 0.000000 0.000000 
#    y 0.000000 3.394960 0.000000 
#    z 0.000000 0.000000 4.203360 
# 
# 
# High freq. dielectric constant tensor:
#      x y z
#    x 1.794670 0.000000 0.000000 
#    y 0.000000 1.794670 0.000000 
#    z 0.000000 0.000000 1.839010 
# 
# From -- ./inp_files/2584.got.cif
#   From: 2010.03.12/outbox.cif.g09.slc.cpg/sg179_2_cif.got.tgz:2584.got - 2010.04.02 07:08:42.
