data_PCOD8326680
_publ_section_title
;
Structure prediction by ZEFSAII (Michael W. Deem and Ramdas Pophale) SiO2 
 PCOD8326680
Probable space group: P 63 C M
;
_chemical_formula_sum "Si O2"
_cell_formula_units_Z 84
_cell_length_a 19.264384
_cell_length_b 19.264384
_cell_length_c 13.960744
_cell_angle_alpha 90.000000
_cell_angle_beta 90.000000
_cell_angle_gamma 120.000000
_cell_volume 4486.931591
_symmetry_space_group_name_H-M "P 63 C M"
_symmetry_group_IT_number 185
_symmetry_cell_setting 'hexagonal'
loop_
_space_group_symop_operation_xyz
x,y,z
x-y,x,1/2+z
-y,x-y,z
-x,-y,1/2+z
-x+y,-x,z
y,-x+y,1/2+z
-x+y,y,1/2+z
x,x-y,1/2+z
-y,-x,1/2+z
y,x,z
x-y,-y,z
-x,-x+y,z
loop_
_atom_site_type_symbol
_atom_site_label
_atom_site_fract_x
_atom_site_fract_y
_atom_site_fract_z
Si Si1 0.581738 0.095376 0.321440
Si Si2 0.095388 0.443102 0.008917
Si Si3 0.693840 0.788628 0.322349
Si Si4 0.513638 0.418262 0.109810
Si Si5 0.693840 0.905211 0.608901
Si Si6 0.904612 0.347714 0.422333
Si Si7 0.811899 0.905950 0.965625
O O1 0.653583 0.125328 0.399462
O O2 0.616373 0.130365 0.215625
O O3 0.520306 0.125053 0.353925
O O4 0.534109 0.000000 0.318114
O O5 0.125053 0.520306 0.077325
O O6 0.131176 0.388722 0.048408
O O7 0.000000 0.392926 0.008888
O O8 0.732238 0.732238 0.316594
O O9 0.676017 0.807911 0.215625
O O10 0.611278 0.742454 0.382843
O O11 0.755539 0.872053 0.372540
O O12 0.465891 0.465891 0.113137
O O13 0.471744 0.346417 0.031788
O O14 0.755539 0.883486 0.558710
O O15 0.732238 0.000000 0.614656
O O16 0.000000 0.392926 0.422362
O O17 0.867533 0.867533 0.950237
O O18 0.867533 0.000000 0.981013
#
# Coordination Sequence:
#
# PCOD8326680 Si02
#       7
#    12  12  12  12  12  12  12
#     4   8  12  18  31  55  88 122 148 165 182 215
#     4   8  13  21  35  57  85 116 147 173 201 252
#     4   9  17  30  47  64  82 107 142 187 244 314
#     4   8  12  18  31  55  88 122 148 165 182 215
#     4   9  17  30  47  64  82 107 142 187 244 314
#     4   8  13  21  35  57  85 116 147 173 201 252
#     4  10  21  36  52  68  84 106 148 214 290 356
#
# _framework density 18.721034
#
# number of rings (size 3 to 8) (size 9 to 14) (size 15 to 20)
#    0.000    3.429    0.000    2.714    0.000    4.000 
#    0.000    1.429    0.000    6.857    0.000    0.000 
#    0.000    0.000    0.000    6.857    0.000   32.571 
#
# Total GULP energy -1040829.308760 kJ/mol
# GULP energy per Si atom -12390.825104 kJ/mol
# Density = 1.867842 g / cm^3
# Si number density = 18.721034 Si / 1000 Ang^3
#
#
#
# Elastic Constant Matrix: (Units=GPa)
#
#
# Indices 1 2 3 4 5 6 
#
# 1 65.7138 39.2607 56.5312 0.0000 0.0000 0.0000
# 2 39.2607 65.7138 56.5312 0.0000 0.0000 0.0000
# 3 56.5312 56.5312 203.9342 0.0000 0.0000 0.0000
# 4 0.0000 0.0000 0.0000 16.8502 0.0000 0.0000
# 5 0.0000 0.0000 0.0000 0.0000 16.8502 0.0000
# 6 0.0000 0.0000 0.0000 0.0000 0.0000 13.2265
#
#
#
# Elastic Compliance Matrix: (Units=1/GPa)
#
#
# Indices 1 2 3 4 5 6 
#
# 1 0.025692 -0.012111 -0.003765 0.000000 0.000000 0.000000
# 2 -0.012111 0.025692 -0.003765 0.000000 0.000000 0.000000
# 3 -0.003765 -0.003765 0.006991 0.000000 0.000000 0.000000
# 4 0.000000 0.000000 0.000000 0.059346 0.000000 0.000000
# 5 0.000000 0.000000 0.000000 0.000000 0.059346 0.000000
# 6 0.000000 0.000000 0.000000 0.000000 0.000000 0.075606
#
#
# Mechanical properties :
#
#
# Convention : Reuss Voigt Hill
#
# Bulk Modulus (GPa) = 52.37317 71.11198 61.74258
# Shear Modulus (GPa) = 16.76064 21.58798 19.17431
#
# Velocity S-wave (km/s) = 2.99538 3.39948 3.20380
# Velocity P-wave (km/s) = 6.32450 7.31274 6.83650
#
# Compressibility (1/GPa) = 0.01909375
#
# Stress axis : x y z
#
# Youngs Moduli (GPa) = 38.92287 38.92287 143.04756
#
# Poissons Ratio (x) = 0.47140 0.53852
# Poissons Ratio (y) = 0.47140 0.53852
# Poissons Ratio (z) = 0.14653 0.14653
#
# Static dielectric constant tensor:
#      x y z
#    x 3.079540 0.000000 0.000000 
#    y 0.000000 3.079540 0.000000 
#    z 0.000000 0.000000 3.994610 
# 
# 
# High freq. dielectric constant tensor:
#      x y z
#    x 1.683740 0.000000 0.000000 
#    y 0.000000 1.683740 0.000000 
#    z 0.000000 0.000000 1.743510 
# 
# From -- ./inp_files/1502.got.cif
#   From: 2010.03.12/outbox.cif.g09.slc.cpg/sg185_cif.got.tgz:1502.got - 2010.04.01 11:55:19.
