data_PCOD8326396
_publ_section_title
;
Structure prediction by ZEFSAII (Michael W. Deem and Ramdas Pophale) SiO2 
 PCOD8326396
Probable space group: P 64 2 2
;
_chemical_formula_sum "Si O2"
_cell_formula_units_Z 51
_cell_length_a 14.002601
_cell_length_b 14.002601
_cell_length_c 14.233972
_cell_angle_alpha 90.000000
_cell_angle_beta 90.000000
_cell_angle_gamma 120.000000
_cell_volume 2416.986177
_symmetry_space_group_name_H-M "P 64 2 2"
_symmetry_group_IT_number 181
_symmetry_cell_setting 'hexagonal'
loop_
_space_group_symop_operation_xyz
x,y,z
x-y,x,2/3+z
-y,x-y,1/3+z
-x,-y,z
-x+y,-x,2/3+z
y,-x+y,1/3+z
x-y,-y,-z
-x,-x+y,2/3-z
y,x,1/3-z
-y,-x,1/3-z
-x+y,y,-z
x,x-y,2/3-z
loop_
_atom_site_type_symbol
_atom_site_label
_atom_site_fract_x
_atom_site_fract_y
_atom_site_fract_z
Si Si1 0.032885 0.711489 0.439418
Si Si2 0.831531 0.915766 0.833334
Si Si3 0.283059 0.410277 0.175931
Si Si4 0.389608 0.574306 0.019954
Si Si5 0.000000 0.500000 0.534652
Si Si6 0.000000 0.000000 0.333334
O O1 0.160579 0.797311 0.455049
O O2 0.992255 0.586962 0.467952
O O3 0.000000 0.712560 0.333334
O O4 0.967600 0.753470 0.501880
O O5 0.898787 0.931966 0.929519
O O6 0.314274 0.314274 0.166667
O O7 0.301432 0.462862 0.072854
O O8 0.357902 0.503813 0.250065
O O9 0.318155 0.636310 0.000000
O O10 0.432553 0.545173 0.926313
#
# Coordination Sequence:
#
# PCOD8326396 Si02
#       6
#    12   6  12  12   6   3
#     4  12  29  47  68 107 146 200 231 300 381 442
#     4  11  26  48  74 104 146 186 243 296 372 440
#     4  11  24  44  73 102 145 184 246 304 361 449
#     4  11  22  44  72 108 134 192 244 299 363 427
#     4  12  25  45  72 104 148 184 250 295 365 450
#     4  10  24  46  76 112 136 182 244 306 352 454
#
# _framework density 21.100660000000001
#
# number of rings (size 3 to 8) (size 9 to 14) (size 15 to 20)
#    0.000    0.706    5.882    1.059    6.588    3.765 
#    0.000    0.000    0.000    0.000    0.000    0.000 
#    0.000    0.000    0.000    0.000    0.000    0.000 
#
# Total GULP energy -632247.191178 kJ/mol
# GULP energy per Si atom -12397.003749 kJ/mol
# Density = 2.105263 g / cm^3
# Si number density = 21.100660 Si / 1000 Ang^3
#
#
#
# Elastic Constant Matrix: (Units=GPa)
#
#
# Indices 1 2 3 4 5 6 
#
# 1 138.7023 63.4477 47.0635 0.0000 0.0000 0.0000
# 2 63.4477 138.7023 47.0635 0.0000 0.0000 0.0000
# 3 47.0635 47.0635 102.8510 0.0000 0.0000 0.0000
# 4 0.0000 0.0000 0.0000 32.1457 0.0000 0.0000
# 5 0.0000 0.0000 0.0000 0.0000 32.1457 0.0000
# 6 0.0000 0.0000 0.0000 0.0000 0.0000 37.6273
#
#
#
# Elastic Compliance Matrix: (Units=1/GPa)
#
#
# Indices 1 2 3 4 5 6 
#
# 1 0.009787 -0.003501 -0.002877 0.000000 0.000000 0.000000
# 2 -0.003501 0.009787 -0.002877 0.000000 0.000000 0.000000
# 3 -0.002877 -0.002877 0.012355 0.000000 0.000000 0.000000
# 4 0.000000 0.000000 0.000000 0.031108 0.000000 0.000000
# 5 0.000000 0.000000 0.000000 0.000000 0.031108 0.000000
# 6 0.000000 0.000000 0.000000 0.000000 0.000000 0.026576
#
#
# Mechanical properties :
#
#
# Convention : Reuss Voigt Hill
#
# Bulk Modulus (GPa) = 74.50607 77.26723 75.88665
# Shear Modulus (GPa) = 34.79355 35.22914 35.01135
#
# Velocity S-wave (km/s) = 4.06511 4.09048 4.07781
# Velocity P-wave (km/s) = 7.57760 7.68162 7.62978
#
# Compressibility (1/GPa) = 0.01342172
#
# Stress axis : x y z
#
# Youngs Moduli (GPa) = 102.17407 102.17407 80.93683
#
# Poissons Ratio (x) = 0.35771 0.23281
# Poissons Ratio (y) = 0.35771 0.23281
# Poissons Ratio (z) = 0.29390 0.29390
#
# Static dielectric constant tensor:
#      x y z
#    x 3.733250 0.000000 0.000000 
#    y 0.000000 3.733250 0.000000 
#    z 0.000000 0.000000 3.970540 
# 
# 
# High freq. dielectric constant tensor:
#      x y z
#    x 1.834030 0.000000 0.000000 
#    y 0.000000 1.834030 0.000000 
#    z 0.000000 0.000000 1.841060 
# 
# From -- ./inp_files/6067.got.cif
#   From: 2010.03.12/outbox.cif.g09.slc.cpg/sg181_4_cif.got.tgz:6067.got - 2010.04.01 11:42:41.
