data_PCOD8326878
_publ_section_title
;
Structure prediction by ZEFSAII (Michael W. Deem and Ramdas Pophale) SiO2 
 PCOD8326878
Probable space group: P -6 M 2
;
_chemical_formula_sum "Si O2"
_cell_formula_units_Z 96
_cell_length_a 16.960024
_cell_length_b 16.960024
_cell_length_c 22.592201
_cell_angle_alpha 90.000000
_cell_angle_beta 90.000000
_cell_angle_gamma 120.000000
_cell_volume 5627.844639
_symmetry_space_group_name_H-M "P -6 M 2"
_symmetry_group_IT_number 187
_symmetry_cell_setting 'hexagonal'
loop_
_space_group_symop_operation_xyz
x,y,z
-x+y,-x,-z
-y,x-y,z
x,y,-z
-x+y,-x,z
-y,x-y,-z
-y,-x,-z
-x+y,y,-z
x,x-y,-z
-x+y,y,z
x,x-y,z
-y,-x,z
loop_
_atom_site_type_symbol
_atom_site_label
_atom_site_fract_x
_atom_site_fract_y
_atom_site_fract_z
Si Si1 0.520135 0.668293 0.159694
Si Si2 0.997380 0.176766 0.322371
Si Si3 0.555483 0.621308 0.281564
Si Si4 0.238010 0.289213 0.564591
Si Si5 0.484027 0.332053 0.847126
Si Si6 0.734030 0.093839 0.265393
Si Si7 0.590348 0.593601 0.065264
Si Si8 0.153255 0.486960 0.597358
O O1 0.505969 0.752985 0.148502
O O2 0.421665 0.578336 0.161064
O O3 0.572722 0.679569 0.221733
O O4 0.584551 0.666900 0.107613
O O5 0.931279 0.068722 0.331197
O O6 0.962771 0.211616 0.266532
O O7 0.099394 0.198788 0.309778
O O8 0.988830 0.226434 0.381907
O O9 0.481023 0.518978 0.267861
O O10 0.643202 0.613760 0.302783
O O11 0.524407 0.666615 0.331795
O O12 0.245764 0.250913 0.500000
O O13 0.144938 0.289875 0.569652
O O14 0.319424 0.394016 0.568452
O O15 0.513976 0.256988 0.857666
O O16 0.573006 0.426995 0.827375
O O17 0.403570 0.298298 0.799086
O O18 0.441389 0.344773 0.907341
O O19 0.804081 0.195920 0.291633
O O20 0.489607 0.510393 0.058885
O O21 0.627934 0.635607 0.000000
O O22 0.253854 0.507707 0.580126
O O23 0.141131 0.570566 0.574874
#
# Coordination Sequence:
#
# PCOD8326878 Si02
#       8
#    12  12  12  12  12  12  12  12
#     4  10  19  30  46  67  93 125 163 204 244 286
#     4  10  20  34  52  73  97 125 158 198 245 296
#     4  10  18  30  48  70  95 125 159 197 244 292
#     4   9  18  32  48  67  93 124 158 196 237 282
#     4  10  19  33  52  74  99 126 159 197 240 291
#     4  10  19  31  49  72  98 125 153 189 237 294
#     4   9  18  32  47  65  93 126 158 195 238 282
#     4  10  19  30  46  68  96 128 163 201 240 284
#
# _framework density 17.058039999999998
#
# number of rings (size 3 to 8) (size 9 to 14) (size 15 to 20)
#    0.000    2.250    2.500    1.250    0.000    1.500 
#    0.000    1.250    0.000    3.250    0.000    0.000 
#    0.000    0.000    0.000    0.000    0.000   20.125 
#
# Total GULP energy -1189279.180949 kJ/mol
# GULP energy per Si atom -12388.324802 kJ/mol
# Density = 1.701922 g / cm^3
# Si number density = 17.058040 Si / 1000 Ang^3
#
#
#
# Elastic Constant Matrix: (Units=GPa)
#
#
# Indices 1 2 3 4 5 6 
#
# 1 79.7556 26.0582 26.9035 0.0000 0.0000 0.0000
# 2 26.0582 79.7556 26.9035 0.0000 0.0000 0.0000
# 3 26.9035 26.9035 78.2049 0.0000 0.0000 0.0000
# 4 0.0000 0.0000 0.0000 15.0411 0.0000 0.0000
# 5 0.0000 0.0000 0.0000 0.0000 15.0411 0.0000
# 6 0.0000 0.0000 0.0000 0.0000 0.0000 26.8487
#
#
#
# Elastic Compliance Matrix: (Units=1/GPa)
#
#
# Indices 1 2 3 4 5 6 
#
# 1 0.015039 -0.003584 -0.003940 0.000000 0.000000 0.000000
# 2 -0.003584 0.015039 -0.003940 0.000000 0.000000 0.000000
# 3 -0.003940 -0.003940 0.015498 0.000000 0.000000 0.000000
# 4 0.000000 0.000000 0.000000 0.066485 0.000000 0.000000
# 5 0.000000 0.000000 0.000000 0.000000 0.066485 0.000000
# 6 0.000000 0.000000 0.000000 0.000000 0.000000 0.037246
#
#
# Mechanical properties :
#
#
# Convention : Reuss Voigt Hill
#
# Bulk Modulus (GPa) = 44.15999 44.16070 44.16034
# Shear Modulus (GPa) = 20.30302 21.90956 21.10629
#
# Velocity S-wave (km/s) = 3.45372 3.58776 3.52137
# Velocity P-wave (km/s) = 6.46904 6.56562 6.51751
#
# Compressibility (1/GPa) = 0.02264493
#
# Stress axis : x y z
#
# Youngs Moduli (GPa) = 66.49560 66.49560 64.52429
#
# Poissons Ratio (x) = 0.23834 0.25425
# Poissons Ratio (y) = 0.23834 0.25425
# Poissons Ratio (z) = 0.26202 0.26202
#
# Static dielectric constant tensor:
#      x y z
#    x 3.204550 0.000000 0.000000 
#    y 0.000000 3.204550 0.000000 
#    z 0.000000 0.000000 3.308840 
# 
# 
# High freq. dielectric constant tensor:
#      x y z
#    x 1.648240 0.000000 0.000000 
#    y 0.000000 1.648240 0.000000 
#    z 0.000000 0.000000 1.645110 
# 
# From -- ./inp_files/3782.got.cif
#   From: 2010.03.12/outbox.cif.g09.slc.cpg/sg187_2_cif.got.tgz:3782.got - 2010.04.01 11:58:23.
