data_PCOD8326144
_publ_section_title
;
Structure prediction by ZEFSAII (Michael W. Deem and Ramdas Pophale) SiO2 
 PCOD8326144
Probable space group: P 62 2 2
;
_chemical_formula_sum "Si O2"
_cell_formula_units_Z 30
_cell_length_a 13.866747
_cell_length_b 13.866747
_cell_length_c 7.359969
_cell_angle_alpha 90.000000
_cell_angle_beta 90.000000
_cell_angle_gamma 120.000000
_cell_volume 1225.619891
_symmetry_space_group_name_H-M "P 62 2 2"
_symmetry_group_IT_number 180
_symmetry_cell_setting 'hexagonal'
loop_
_space_group_symop_operation_xyz
x,y,z
x-y,x,1/3+z
-y,x-y,2/3+z
-x,-y,z
-x+y,-x,1/3+z
y,-x+y,2/3+z
x-y,-y,-z
-x,-x+y,1/3-z
y,x,2/3-z
-y,-x,2/3-z
-x+y,y,-z
x,x-y,1/3-z
loop_
_atom_site_type_symbol
_atom_site_label
_atom_site_fract_x
_atom_site_fract_y
_atom_site_fract_z
Si Si1 0.714813 0.429625 0.000000
Si Si2 0.923230 0.169866 0.014885
Si Si3 0.388181 0.068423 0.833987
O O1 0.645214 0.354787 0.833334
O O2 0.843754 0.499254 0.933636
O O3 0.905471 0.094530 0.833334
O O4 0.979664 0.301218 0.973919
O O5 0.804848 0.138446 0.091762
O O6 0.000000 0.154084 0.166667
O O7 0.405020 0.000000 0.000000
#
# Coordination Sequence:
#
# PCOD8326144 Si02
#       3
#     6  12  12
#     4  12  28  52  75 110 157 196 268 342 392 466
#     4  10  18  35  68 106 147 196 247 298 376 458
#     4  10  22  44  74 104 144 202 243 305 389 467
#
# _framework density 24.477409999999999
#
# number of rings (size 3 to 8) (size 9 to 14) (size 15 to 20)
#    0.000    1.600    4.000    0.000    0.000    4.800 
#    0.000   13.000    0.000  102.000    0.000    0.000 
#    0.000    0.000    0.000    0.000    0.000    0.000 
#
# Total GULP energy -371723.813977 kJ/mol
# GULP energy per Si atom -12390.793799 kJ/mol
# Density = 2.442170 g / cm^3
# Si number density = 24.477410 Si / 1000 Ang^3
#
#
#
# Elastic Constant Matrix: (Units=GPa)
#
#
# Indices 1 2 3 4 5 6 
#
# 1 95.0876 28.6072 49.8448 0.0000 0.0000 0.0000
# 2 28.6072 95.0876 49.8448 0.0000 0.0000 0.0000
# 3 49.8448 49.8448 181.4349 0.0000 0.0000 0.0000
# 4 0.0000 0.0000 0.0000 15.9765 0.0000 0.0000
# 5 0.0000 0.0000 0.0000 0.0000 15.9765 0.0000
# 6 0.0000 0.0000 0.0000 0.0000 0.0000 33.2402
#
#
#
# Elastic Compliance Matrix: (Units=1/GPa)
#
#
# Indices 1 2 3 4 5 6 
#
# 1 0.012713 -0.002329 -0.002853 0.000000 0.000000 0.000000
# 2 -0.002329 0.012713 -0.002853 0.000000 0.000000 0.000000
# 3 -0.002853 -0.002853 0.007079 0.000000 0.000000 0.000000
# 4 0.000000 0.000000 0.000000 0.062592 0.000000 0.000000
# 5 0.000000 0.000000 0.000000 0.000000 0.062592 0.000000
# 6 0.000000 0.000000 0.000000 0.000000 0.000000 0.030084
#
#
# Mechanical properties :
#
#
# Convention : Reuss Voigt Hill
#
# Bulk Modulus (GPa) = 60.84410 69.80039 65.32225
# Shear Modulus (GPa) = 23.88690 29.25954 26.57322
#
# Velocity S-wave (km/s) = 3.12729 3.46116 3.29845
# Velocity P-wave (km/s) = 6.16045 6.67465 6.42270
#
# Compressibility (1/GPa) = 0.01643545
#
# Stress axis : x y z
#
# Youngs Moduli (GPa) = 78.66141 78.66141 141.26337
#
# Poissons Ratio (x) = 0.18323 0.40297
# Poissons Ratio (y) = 0.18323 0.40297
# Poissons Ratio (z) = 0.22439 0.22439
#
# Static dielectric constant tensor:
#      x y z
#    x 4.328070 0.000000 0.000000 
#    y 0.000000 4.328070 0.000000 
#    z 0.000000 0.000000 5.188620 
# 
# 
# High freq. dielectric constant tensor:
#      x y z
#    x 1.951170 0.000000 0.000000 
#    y 0.000000 1.951170 0.000000 
#    z 0.000000 0.000000 2.005230 
# 
# From -- ./inp_files/2099.got.cif
#   From: 2010.03.12/outbox.cif.g09.slc.cpg/sg180_2_cif.got.tgz:2099.got - 2010.04.01 11:35:50.
