data_PCOD8326251
_publ_section_title
;
Structure prediction by ZEFSAII (Michael W. Deem and Ramdas Pophale) SiO2 
 PCOD8326251
Probable space group: P 62 2 2
;
_chemical_formula_sum "Si O2"
_cell_formula_units_Z 72
_cell_length_a 14.538302
_cell_length_b 14.538302
_cell_length_c 18.287999
_cell_angle_alpha 90.000000
_cell_angle_beta 90.000000
_cell_angle_gamma 120.000000
_cell_volume 3347.527806
_symmetry_space_group_name_H-M "P 62 2 2"
_symmetry_group_IT_number 180
_symmetry_cell_setting 'hexagonal'
loop_
_space_group_symop_operation_xyz
x,y,z
x-y,x,1/3+z
-y,x-y,2/3+z
-x,-y,z
-x+y,-x,1/3+z
y,-x+y,2/3+z
x-y,-y,-z
-x,-x+y,1/3-z
y,x,2/3-z
-y,-x,2/3-z
-x+y,y,-z
x,x-y,1/3-z
loop_
_atom_site_type_symbol
_atom_site_label
_atom_site_fract_x
_atom_site_fract_y
_atom_site_fract_z
Si Si1 0.444118 0.222257 0.332994
Si Si2 0.888758 0.805318 0.892222
Si Si3 0.124843 0.921508 0.685523
Si Si4 0.847298 0.593769 0.823144
Si Si5 0.378032 0.430299 0.433429
Si Si6 0.373844 0.792661 0.787551
O O1 0.328906 0.133180 0.306030
O O2 0.455676 0.220532 0.421160
O O3 0.446181 0.329325 0.307776
O O4 0.541591 0.214288 0.294702
O O5 0.879303 0.879303 0.833334
O O6 0.833874 0.681812 0.866835
O O7 0.015369 0.861404 0.905935
O O8 0.824965 0.810238 0.961386
O O9 0.000000 0.843025 0.666667
O O10 0.832743 0.500038 0.878857
O O11 0.964206 0.654831 0.785858
O O12 0.500000 0.500000 0.419467
O O13 0.344443 0.473448 0.503302
O O14 0.317454 0.682547 0.833334
#
# Coordination Sequence:
#
# PCOD8326251 Si02
#       6
#    12  12  12  12  12  12
#     4  11  21  38  61  96 130 167 215 276 341 416
#     4  11  23  41  60  91 130 187 227 281 323 407
#     4  11  24  42  61  96 136 181 233 272 344 405
#     4  11  21  38  63  89 128 172 221 273 341 397
#     4   9  19  35  57  90 126 161 203 262 342 400
#     4   9  21  38  60  93 125 161 210 277 339 413
#
# _framework density 21.508410000000001
#
# number of rings (size 3 to 8) (size 9 to 14) (size 15 to 20)
#    0.000    1.667    1.667    3.500    0.000    9.333 
#    0.000    3.333    0.000    0.500    0.000    0.000 
#    0.000    0.000    0.000    0.000    0.000    0.000 
#
# Total GULP energy -892187.456230 kJ/mol
# GULP energy per Si atom -12391.492448 kJ/mol
# Density = 2.145946 g / cm^3
# Si number density = 21.508410 Si / 1000 Ang^3
#
#
#
# Elastic Constant Matrix: (Units=GPa)
#
#
# Indices 1 2 3 4 5 6 
#
# 1 86.3627 39.8137 40.7348 0.0000 0.0000 0.0000
# 2 39.8137 86.3627 40.7348 0.0000 0.0000 0.0000
# 3 40.7348 40.7348 87.9268 0.0000 0.0000 0.0000
# 4 0.0000 0.0000 0.0000 26.4674 0.0000 0.0000
# 5 0.0000 0.0000 0.0000 0.0000 26.4674 0.0000
# 6 0.0000 0.0000 0.0000 0.0000 0.0000 23.2745
#
#
#
# Elastic Compliance Matrix: (Units=1/GPa)
#
#
# Indices 1 2 3 4 5 6 
#
# 1 0.016395 -0.005087 -0.005239 0.000000 0.000000 0.000000
# 2 -0.005087 0.016395 -0.005239 0.000000 0.000000 0.000000
# 3 -0.005239 -0.005239 0.016227 0.000000 0.000000 0.000000
# 4 0.000000 0.000000 0.000000 0.037782 0.000000 0.000000
# 5 0.000000 0.000000 0.000000 0.000000 0.037782 0.000000
# 6 0.000000 0.000000 0.000000 0.000000 0.000000 0.042965
#
#
# Mechanical properties :
#
#
# Convention : Reuss Voigt Hill
#
# Bulk Modulus (GPa) = 55.90331 55.91317 55.90824
# Shear Modulus (GPa) = 24.43313 24.53316 24.48314
#
# Velocity S-wave (km/s) = 3.37409 3.38099 3.37754
# Velocity P-wave (km/s) = 6.42083 6.42603 6.42343
#
# Compressibility (1/GPa) = 0.01788803
#
# Stress axis : x y z
#
# Youngs Moduli (GPa) = 60.99293 60.99293 61.62522
#
# Poissons Ratio (x) = 0.31029 0.32284
# Poissons Ratio (y) = 0.31029 0.32284
# Poissons Ratio (z) = 0.31953 0.31953
#
# Static dielectric constant tensor:
#      x y z
#    x 4.201410 0.000000 0.000000 
#    y 0.000000 4.201410 0.000000 
#    z 0.000000 0.000000 3.619660 
# 
# 
# High freq. dielectric constant tensor:
#      x y z
#    x 1.835850 0.000000 0.000000 
#    y 0.000000 1.835850 0.000000 
#    z 0.000000 0.000000 1.840070 
# 
# From -- ./inp_files/7812.got.cif
#   From: 2010.03.12/outbox.cif.g09.slc.cpg/sg180_4_cif.got.tgz:7812.got - 2010.04.01 11:35:50.
