data_PCOD8326179
_publ_section_title
;
Structure prediction by ZEFSAII (Michael W. Deem and Ramdas Pophale) SiO2 
 PCOD8326179
Probable space group: P 62 2 2
;
_chemical_formula_sum "Si O2"
_cell_formula_units_Z 42
_cell_length_a 9.793018
_cell_length_b 9.793018
_cell_length_c 27.560510
_cell_angle_alpha 90.000000
_cell_angle_beta 90.000000
_cell_angle_gamma 120.000000
_cell_volume 2289.027378
_symmetry_space_group_name_H-M "P 62 2 2"
_symmetry_group_IT_number 180
_symmetry_cell_setting 'hexagonal'
loop_
_space_group_symop_operation_xyz
x,y,z
x-y,x,1/3+z
-y,x-y,2/3+z
-x,-y,z
-x+y,-x,1/3+z
y,-x+y,2/3+z
x-y,-y,-z
-x,-x+y,1/3-z
y,x,2/3-z
-y,-x,2/3-z
-x+y,y,-z
x,x-y,1/3-z
loop_
_atom_site_type_symbol
_atom_site_label
_atom_site_fract_x
_atom_site_fract_y
_atom_site_fract_z
Si Si1 0.904804 0.583089 0.440603
Si Si2 0.969763 0.145525 0.720664
Si Si3 0.339689 0.679378 0.500000
Si Si4 0.825352 0.129771 0.149024
O O1 0.904110 0.693279 0.397948
O O2 0.733558 0.436155 0.453707
O O3 0.000000 0.500000 0.421584
O O4 0.980991 0.693008 0.488071
O O5 0.083342 0.277047 0.759119
O O6 0.000000 0.215729 0.666667
O O7 0.000000 0.000000 0.724014
O O8 0.522082 0.796728 0.489865
O O9 0.000000 0.175814 0.166667
#
# Coordination Sequence:
#
# PCOD8326179 Si02
#       4
#    12  12   6  12
#     4  10  20  36  60  85 116 149 190 241 292 338
#     4  11  22  37  60  88 115 156 200 238 292 356
#     4  10  21  34  57  90 114 142 196 240 299 330
#     4  11  20  36  60  84 116 151 197 245 280 345
#
# _framework density 18.348403000000001
#
# number of rings (size 3 to 8) (size 9 to 14) (size 15 to 20)
#    0.000    1.429    5.714    0.429    0.000    0.000 
#    0.000    5.714    0.000    0.000    0.000    0.000 
#    0.000    0.000    0.000    0.000    0.000    0.000 
#
# Total GULP energy -520687.628523 kJ/mol
# GULP energy per Si atom -12397.324489 kJ/mol
# Density = 1.830664 g / cm^3
# Si number density = 18.348403 Si / 1000 Ang^3
#
#
#
# Elastic Constant Matrix: (Units=GPa)
#
#
# Indices 1 2 3 4 5 6 
#
# 1 83.6433 26.4854 43.3514 0.0000 0.0000 0.0000
# 2 26.4854 83.6433 43.3514 0.0000 0.0000 0.0000
# 3 43.3514 43.3514 145.3828 0.0000 0.0000 0.0000
# 4 0.0000 0.0000 0.0000 9.1757 0.0000 0.0000
# 5 0.0000 0.0000 0.0000 0.0000 9.1757 0.0000
# 6 0.0000 0.0000 0.0000 0.0000 0.0000 28.5790
#
#
#
# Elastic Compliance Matrix: (Units=1/GPa)
#
#
# Indices 1 2 3 4 5 6 
#
# 1 0.014681 -0.002815 -0.003538 0.000000 0.000000 0.000000
# 2 -0.002815 0.014681 -0.003538 0.000000 0.000000 0.000000
# 3 -0.003538 -0.003538 0.008989 0.000000 0.000000 0.000000
# 4 0.000000 0.000000 0.000000 0.108984 0.000000 0.000000
# 5 0.000000 0.000000 0.000000 0.000000 0.108984 0.000000
# 6 0.000000 0.000000 0.000000 0.000000 0.000000 0.034991
#
#
# Mechanical properties :
#
#
# Convention : Reuss Voigt Hill
#
# Bulk Modulus (GPa) = 53.85819 59.89396 56.87608
# Shear Modulus (GPa) = 15.75895 22.68482 19.22188
#
# Velocity S-wave (km/s) = 2.93383 3.51997 3.24018
# Velocity P-wave (km/s) = 6.39479 7.01668 6.71294
#
# Compressibility (1/GPa) = 0.01856728
#
# Stress axis : x y z
#
# Youngs Moduli (GPa) = 68.11690 68.11690 111.25290
#
# Poissons Ratio (x) = 0.19173 0.39364
# Poissons Ratio (y) = 0.19173 0.39364
# Poissons Ratio (z) = 0.24102 0.24102
#
# Static dielectric constant tensor:
#      x y z
#    x 3.545990 0.000000 0.000000 
#    y 0.000000 3.545990 0.000000 
#    z 0.000000 0.000000 3.215150 
# 
# 
# High freq. dielectric constant tensor:
#      x y z
#    x 1.721980 0.000000 0.000000 
#    y 0.000000 1.721980 0.000000 
#    z 0.000000 0.000000 1.680670 
# 
# From -- ./inp_files/8544.got.cif
#   From: 2010.03.12/outbox.cif.g09.slc.cpg/sg180_5_cif.got.tgz:8544.got - 2010.04.01 11:35:50.
