data_PCOD8326289
_publ_section_title
;
Structure prediction by ZEFSAII (Michael W. Deem and Ramdas Pophale) SiO2 
 PCOD8326289
Probable space group: P 64 2 2
;
_chemical_formula_sum "Si O2"
_cell_formula_units_Z 84
_cell_length_a 17.673747
_cell_length_b 17.673747
_cell_length_c 20.222456
_cell_angle_alpha 90.000000
_cell_angle_beta 90.000000
_cell_angle_gamma 120.000000
_cell_volume 5470.434198
_symmetry_space_group_name_H-M "P 64 2 2"
_symmetry_group_IT_number 181
_symmetry_cell_setting 'hexagonal'
loop_
_space_group_symop_operation_xyz
x,y,z
x-y,x,2/3+z
-y,x-y,1/3+z
-x,-y,z
-x+y,-x,2/3+z
y,-x+y,1/3+z
x-y,-y,-z
-x,-x+y,2/3-z
y,x,1/3-z
-y,-x,1/3-z
-x+y,y,-z
x,x-y,2/3-z
loop_
_atom_site_type_symbol
_atom_site_label
_atom_site_fract_x
_atom_site_fract_y
_atom_site_fract_z
Si Si1 0.901938 0.326007 0.837401
Si Si2 0.819471 0.399609 0.587644
Si Si3 0.184622 0.465617 0.185717
Si Si4 0.685309 0.536898 0.510301
Si Si5 0.632944 0.365059 0.743055
Si Si6 0.903198 0.449816 0.725163
Si Si7 0.404642 0.416149 0.743501
O O1 0.823021 0.224284 0.837772
O O2 0.889798 0.373715 0.774550
O O3 0.891294 0.368226 0.904422
O O4 0.000000 0.338068 0.833334
O O5 0.847330 0.336946 0.549404
O O6 0.866892 0.498604 0.558415
O O7 0.715609 0.352595 0.575535
O O8 0.835389 0.404446 0.665696
O O9 0.262770 0.550601 0.222374
O O10 0.103692 0.426182 0.235858
O O11 0.789874 0.579748 0.500000
O O12 0.649294 0.455974 0.559652
O O13 0.664414 0.606219 0.544603
O O14 0.622255 0.377746 0.666667
O O15 0.000000 0.500000 0.694085
O O16 0.500000 0.500000 0.757904
O O17 0.391972 0.391972 0.666667
#
# Coordination Sequence:
#
# PCOD8326289 Si02
#       7
#    12  12  12  12  12  12  12
#     4   9  20  37  46  62  87 123 167 208 241 281
#     4  10  20  26  42  66  93 120 162 199 245 284
#     4  11  21  29  49  66  94 123 164 201 247 282
#     4   9  19  33  43  64  95 126 155 200 241 292
#     4  10  18  27  41  65  91 126 163 200 239 281
#     4   9  19  32  49  61  87 126 164 207 248 280
#     4  11  20  33  50  70 100 131 164 201 245 302
#
# _framework density 15.355271
#
# number of rings (size 3 to 8) (size 9 to 14) (size 15 to 20)
#    0.000    2.143    2.857    3.857    8.000    1.143 
#    0.000    0.000    0.000    0.000    0.000    0.000 
#    0.000    0.571    0.000    1.286    0.000    0.000 
#
# Total GULP energy -1041044.275079 kJ/mol
# GULP energy per Si atom -12393.384227 kJ/mol
# Density = 1.532032 g / cm^3
# Si number density = 15.355271 Si / 1000 Ang^3
#
#
#
# Elastic Constant Matrix: (Units=GPa)
#
#
# Indices 1 2 3 4 5 6 
#
# 1 69.5866 37.1206 21.8870 0.0000 0.0000 0.0000
# 2 37.1206 69.5866 21.8870 0.0000 0.0000 0.0000
# 3 21.8870 21.8870 88.1097 0.0000 0.0000 0.0000
# 4 0.0000 0.0000 0.0000 13.8994 0.0000 0.0000
# 5 0.0000 0.0000 0.0000 0.0000 13.8994 0.0000
# 6 0.0000 0.0000 0.0000 0.0000 0.0000 16.2330
#
#
#
# Elastic Compliance Matrix: (Units=1/GPa)
#
#
# Indices 1 2 3 4 5 6 
#
# 1 0.020618 -0.010183 -0.002592 0.000000 0.000000 0.000000
# 2 -0.010183 0.020618 -0.002592 0.000000 0.000000 0.000000
# 3 -0.002592 -0.002592 0.012637 0.000000 0.000000 0.000000
# 4 0.000000 0.000000 0.000000 0.071945 0.000000 0.000000
# 5 0.000000 0.000000 0.000000 0.000000 0.071945 0.000000
# 6 0.000000 0.000000 0.000000 0.000000 0.000000 0.061603
#
#
# Mechanical properties :
#
#
# Convention : Reuss Voigt Hill
#
# Bulk Modulus (GPa) = 43.21796 43.23026 43.22411
# Shear Modulus (GPa) = 16.78894 18.56558 17.67726
#
# Velocity S-wave (km/s) = 3.31020 3.48094 3.39664
# Velocity P-wave (km/s) = 6.54342 6.66111 6.60253
#
# Compressibility (1/GPa) = 0.02313853
#
# Stress axis : x y z
#
# Youngs Moduli (GPa) = 48.50100 48.50100 79.13104
#
# Poissons Ratio (x) = 0.49390 0.20511
# Poissons Ratio (y) = 0.49390 0.20511
# Poissons Ratio (z) = 0.12572 0.12572
#
# Static dielectric constant tensor:
#      x y z
#    x 2.801990 0.000000 0.000000 
#    y 0.000000 2.801990 0.000000 
#    z 0.000000 0.000000 3.148980 
# 
# 
# High freq. dielectric constant tensor:
#      x y z
#    x 1.550400 0.000000 0.000000 
#    y 0.000000 1.550400 0.000000 
#    z 0.000000 0.000000 1.606930 
# 
# From -- ./inp_files/9175.got.cif
#   From: 2010.03.12/outbox.cif.g09.slc.cpg/sg181_5_cif.got.tgz:9175.got - 2010.04.01 11:42:41.
