data_PCOD8326635
_publ_section_title
;
Structure prediction by ZEFSAII (Michael W. Deem and Ramdas Pophale) SiO2 
 PCOD8326635
Probable space group: P 63 C M
;
_chemical_formula_sum "Si O2"
_cell_formula_units_Z 96
_cell_length_a 16.266993
_cell_length_b 16.266993
_cell_length_c 22.736631
_cell_angle_alpha 90.000000
_cell_angle_beta 90.000000
_cell_angle_gamma 120.000000
_cell_volume 5210.402875
_symmetry_space_group_name_H-M "P 63 C M"
_symmetry_group_IT_number 185
_symmetry_cell_setting 'hexagonal'
loop_
_space_group_symop_operation_xyz
x,y,z
x-y,x,1/2+z
-y,x-y,z
-x,-y,1/2+z
-x+y,-x,z
y,-x+y,1/2+z
-x+y,y,1/2+z
x,x-y,1/2+z
-y,-x,1/2+z
y,x,z
x-y,-y,z
-x,-x+y,z
loop_
_atom_site_type_symbol
_atom_site_label
_atom_site_fract_x
_atom_site_fract_y
_atom_site_fract_z
Si Si1 0.609932 0.889479 0.507810
Si Si2 0.422946 0.531552 0.223763
Si Si3 0.107408 0.822108 0.682099
Si Si4 0.211234 0.106135 0.059887
Si Si5 0.886930 0.542161 0.628596
Si Si6 0.743746 0.635474 0.775002
Si Si7 0.794460 0.252391 0.884647
Si Si8 0.470807 0.887571 0.850750
O O1 0.690532 0.868782 0.530464
O O2 0.529268 0.857441 0.559333
O O3 0.568147 0.825083 0.451385
O O4 0.652347 0.000000 0.491997
O O5 0.461265 0.461265 0.207187
O O6 0.443302 0.598505 0.165738
O O7 0.311530 0.466150 0.240005
O O8 0.479989 0.596897 0.280026
O O9 0.114521 0.891997 0.630265
O O10 0.148552 0.755751 0.659863
O O11 0.170519 0.883947 0.736488
O O12 0.000000 0.759980 0.704766
O O13 0.178793 0.178793 0.036683
O O14 0.131032 0.000000 0.042783
O O15 0.000000 0.599777 0.631181
O O16 0.667519 0.667519 0.789233
O O17 0.785841 0.627886 0.837727
O O18 0.830777 0.359941 0.866005
O O19 0.683251 0.175027 0.882916
O O20 0.526491 0.000000 0.870980
#
# Coordination Sequence:
#
# PCOD8326635 Si02
#       8
#    12  12  12  12  12  12  12  12
#     4   9  18  32  50  71  99 138 176 210 257 316
#     4   8  15  29  48  72  99 126 164 213 261 308
#     4   9  17  29  47  72 101 132 165 203 251 306
#     4   9  17  30  49  72  99 132 172 215 254 298
#     4   8  14  28  49  69  92 127 167 204 248 304
#     4  10  19  30  49  76 104 132 164 210 263 315
#     4  11  21  36  55  75 105 139 174 217 267 319
#     4  10  21  36  56  81 105 136 181 226 270 326
#
# _framework density 18.424679999999999
#
# number of rings (size 3 to 8) (size 9 to 14) (size 15 to 20)
#    0.000    2.750    0.000    4.875    0.000    2.000 
#    0.000    2.500    0.000    5.250    0.000    0.000 
#    0.000    0.000    0.000    0.000    0.000    0.000 
#
# Total GULP energy -1189259.754999 kJ/mol
# GULP energy per Si atom -12388.122448 kJ/mol
# Density = 1.838274 g / cm^3
# Si number density = 18.424680 Si / 1000 Ang^3
#
#
#
# Elastic Constant Matrix: (Units=GPa)
#
#
# Indices 1 2 3 4 5 6 
#
# 1 66.6911 26.8911 35.9921 0.0000 0.0000 0.0000
# 2 26.8911 66.6911 35.9921 0.0000 0.0000 0.0000
# 3 35.9921 35.9921 114.9988 0.0000 0.0000 0.0000
# 4 0.0000 0.0000 0.0000 22.1127 0.0000 0.0000
# 5 0.0000 0.0000 0.0000 0.0000 22.1127 0.0000
# 6 0.0000 0.0000 0.0000 0.0000 0.0000 19.9000
#
#
#
# Elastic Compliance Matrix: (Units=1/GPa)
#
#
# Indices 1 2 3 4 5 6 
#
# 1 0.019600 -0.005526 -0.004405 0.000000 0.000000 0.000000
# 2 -0.005526 0.019600 -0.004405 0.000000 0.000000 0.000000
# 3 -0.004405 -0.004405 0.011453 0.000000 0.000000 0.000000
# 4 0.000000 0.000000 0.000000 0.045223 0.000000 0.000000
# 5 0.000000 0.000000 0.000000 0.000000 0.045223 0.000000
# 6 0.000000 0.000000 0.000000 0.000000 0.000000 0.050251
#
#
# Mechanical properties :
#
#
# Convention : Reuss Voigt Hill
#
# Bulk Modulus (GPa) = 45.49254 49.57019 47.53137
# Shear Modulus (GPa) = 21.99272 22.79213 22.39242
#
# Velocity S-wave (km/s) = 3.45868 3.52098 3.48997
# Velocity P-wave (km/s) = 6.37924 6.59487 6.48795
#
# Compressibility (1/GPa) = 0.02198162
#
# Stress axis : x y z
#
# Youngs Moduli (GPa) = 51.02081 51.02081 87.31338
#
# Poissons Ratio (x) = 0.28193 0.38460
# Poissons Ratio (y) = 0.28193 0.38460
# Poissons Ratio (z) = 0.22474 0.22474
#
# Static dielectric constant tensor:
#      x y z
#    x 3.257020 0.000000 0.000000 
#    y 0.000000 3.257020 0.000000 
#    z 0.000000 0.000000 3.510950 
# 
# 
# High freq. dielectric constant tensor:
#      x y z
#    x 1.696610 0.000000 0.000000 
#    y 0.000000 1.696610 0.000000 
#    z 0.000000 0.000000 1.707910 
# 
# From -- ./inp_files/2011.got.cif
#   From: 2010.03.12/outbox.cif.g09.slc.cpg/sg185_cif.got.tgz:2011.got - 2010.04.01 11:55:19.
