data_PCOD8326548
_publ_section_title
;
Structure prediction by ZEFSAII (Michael W. Deem and Ramdas Pophale) SiO2 
 PCOD8326548
Probable space group: P 6 M M
;
_chemical_formula_sum "Si O2"
_cell_formula_units_Z 72
_cell_length_a 20.929540
_cell_length_b 20.929540
_cell_length_c 11.553763
_cell_angle_alpha 90.000000
_cell_angle_beta 90.000000
_cell_angle_gamma 120.000000
_cell_volume 4383.020006
_symmetry_space_group_name_H-M "P 6 M M"
_symmetry_group_IT_number 183
_symmetry_cell_setting 'hexagonal'
loop_
_space_group_symop_operation_xyz
x,y,z
x-y,x,z
-y,x-y,z
-x,-y,z
-x+y,-x,z
y,-x+y,z
-x+y,y,z
x,x-y,z
-y,-x,z
y,x,z
x-y,-y,z
-x,-x+y,z
loop_
_atom_site_type_symbol
_atom_site_label
_atom_site_fract_x
_atom_site_fract_y
_atom_site_fract_z
Si Si1 0.456471 0.543530 0.830170
Si Si2 0.660490 0.086405 0.681880
Si Si3 0.307599 0.224807 0.105801
Si Si4 0.544380 0.088759 0.092216
Si Si5 0.515959 0.184207 0.475379
Si Si6 0.157741 0.697484 0.219512
Si Si7 0.223551 0.305551 0.843466
O O1 0.500000 0.500000 0.829644
O O2 0.503429 0.620475 0.764871
O O3 0.442682 0.557319 0.960452
O O4 0.680983 0.133245 0.565130
O O5 0.733369 0.102003 0.749455
O O6 0.608837 0.000000 0.652117
O O7 0.273889 0.136945 0.120707
O O8 0.243213 0.243213 0.133852
O O9 0.373628 0.268452 0.195923
O O10 0.337500 0.248914 0.973861
O O11 0.501922 0.126794 0.144812
O O12 0.500000 0.000000 0.110480
O O13 0.588311 0.176621 0.489610
O O14 0.538968 0.269484 0.491873
O O15 0.478062 0.153301 0.352467
O O16 0.242212 0.757789 0.185045
O O17 0.136849 0.273697 0.826118
O O18 0.237885 0.237885 0.822453
#
# Coordination Sequence:
#
# PCOD8326548 Si02
#       7
#     6  12  12   6  12  12  12
#     4   9  18  31  49  73 101 124 153 203 255 299
#     4  10  19  32  50  73  99 125 159 206 254 293
#     4   9  17  31  51  75 103 129 161 201 245 296
#     4  11  20  33  55  77  95 126 169 209 255 309
#     4  11  22  37  52  68  92 133 171 206 246 300
#     4  10  21  35  49  72  97 127 168 209 256 296
#     4   9  17  30  50  75 100 131 162 198 245 293
#
# _framework density 16.427029999999998
#
# number of rings (size 3 to 8) (size 9 to 14) (size 15 to 20)
#    0.000    2.167    1.667    2.167    0.000    4.000 
#    0.500    0.833    0.000    0.333    0.000    2.333 
#    0.000    0.000    0.000    0.000    0.000   21.667 
#
# Total GULP energy -892576.778289 kJ/mol
# GULP energy per Si atom -12396.899698 kJ/mol
# Density = 1.638964 g / cm^3
# Si number density = 16.427030 Si / 1000 Ang^3
#
#
#
# Elastic Constant Matrix: (Units=GPa)
#
#
# Indices 1 2 3 4 5 6 
#
# 1 74.9081 65.0841 36.5337 0.0000 0.0000 0.0000
# 2 65.0841 74.9081 36.5337 0.0000 0.0000 0.0000
# 3 36.5337 36.5337 81.6487 0.0000 0.0000 0.0000
# 4 0.0000 0.0000 0.0000 43.0104 0.0000 0.0000
# 5 0.0000 0.0000 0.0000 0.0000 43.0104 0.0000
# 6 0.0000 0.0000 0.0000 0.0000 0.0000 4.9120
#
#
#
# Elastic Compliance Matrix: (Units=1/GPa)
#
#
# Indices 1 2 3 4 5 6 
#
# 1 0.055556 -0.046236 -0.004170 0.000000 0.000000 0.000000
# 2 -0.046236 0.055556 -0.004170 0.000000 0.000000 0.000000
# 3 -0.004170 -0.004170 0.015979 0.000000 0.000000 0.000000
# 4 0.000000 0.000000 0.000000 0.023250 0.000000 0.000000
# 5 0.000000 0.000000 0.000000 0.000000 0.023250 0.000000
# 6 0.000000 0.000000 0.000000 0.000000 0.000000 0.203584
#
#
# Mechanical properties :
#
#
# Convention : Reuss Voigt Hill
#
# Bulk Modulus (GPa) = 55.74603 56.41864 56.08233
# Shear Modulus (GPa) = 10.15623 24.40745 17.28184
#
# Velocity S-wave (km/s) = 2.48919 3.85880 3.24703
# Velocity P-wave (km/s) = 6.50159 7.36705 6.94781
#
# Compressibility (1/GPa) = 0.01793850
#
# Stress axis : x y z
#
# Youngs Moduli (GPa) = 17.99985 17.99985 62.58036
#
# Poissons Ratio (x) = 0.83224 0.26097
# Poissons Ratio (y) = 0.83224 0.26097
# Poissons Ratio (z) = 0.07506 0.07506
#
# Static dielectric constant tensor:
#      x y z
#    x 2.947160 0.000000 0.000000 
#    y 0.000000 2.947160 0.000000 
#    z 0.000000 0.000000 3.210620 
# 
# 
# High freq. dielectric constant tensor:
#      x y z
#    x 1.625260 0.000000 0.000000 
#    y 0.000000 1.625260 0.000000 
#    z 0.000000 0.000000 1.635930 
# 
# From -- ./inp_files/1678.got.cif
#   From: 2010.03.12/outbox.cif.g09.slc.cpg/sg183_1_cif.got.tgz:1678.got - 2010.04.01 11:53:02.
