data_PCOD8326669
_publ_section_title
;
Structure prediction by ZEFSAII (Michael W. Deem and Ramdas Pophale) SiO2 
 PCOD8326669
Probable space group: P 63 C M
;
_chemical_formula_sum "Si O2"
_cell_formula_units_Z 66
_cell_length_a 20.474922
_cell_length_b 20.474922
_cell_length_c 8.918267
_cell_angle_alpha 90.000000
_cell_angle_beta 90.000000
_cell_angle_gamma 120.000000
_cell_volume 3237.841715
_symmetry_space_group_name_H-M "P 63 C M"
_symmetry_group_IT_number 185
_symmetry_cell_setting 'hexagonal'
loop_
_space_group_symop_operation_xyz
x,y,z
x-y,x,1/2+z
-y,x-y,z
-x,-y,1/2+z
-x+y,-x,z
y,-x+y,1/2+z
-x+y,y,1/2+z
x,x-y,1/2+z
-y,-x,1/2+z
y,x,z
x-y,-y,z
-x,-x+y,z
loop_
_atom_site_type_symbol
_atom_site_label
_atom_site_fract_x
_atom_site_fract_y
_atom_site_fract_z
Si Si1 0.746512 0.000000 0.194140
Si Si2 0.192494 0.540644 0.228064
Si Si3 0.131840 0.000000 0.862472
Si Si4 0.871008 0.871008 0.534110
Si Si5 0.363910 0.272208 0.724632
Si Si6 0.676256 0.461684 0.570049
Si Si7 0.364588 0.221042 0.055696
O O1 0.789491 0.000000 0.346400
O O2 0.668372 0.923736 0.177835
O O3 0.793422 0.000000 0.046524
O O4 0.124248 0.454132 0.210672
O O5 0.217801 0.561149 0.398390
O O6 0.167366 0.598878 0.165556
O O7 0.267960 0.565791 0.131703
O O8 0.148249 0.073414 0.949204
O O9 0.096518 0.000000 0.699844
O O10 0.317672 0.317672 0.702778
O O11 0.340952 0.206906 0.597228
O O12 0.344034 0.229105 0.884618
O O13 0.722961 0.549973 0.590588
#
# Coordination Sequence:
#
# PCOD8326669 Si02
#       7
#     6  12   6   6  12  12  12
#     4  10  24  36  60  80 114 146 206 230 304 350
#     4  10  20  36  62  93 123 170 201 261 301 364
#     4  10  22  36  59  83 111 145 182 243 291 367
#     4  10  22  38  57  83 115 143 186 235 303 359
#     4  10  22  43  64  90 128 161 212 253 312 367
#     4  10  20  36  62  90 129 157 212 244 312 356
#     4  10  22  41  64  88 122 166 198 261 301 368
#
# _framework density 20.383948
#
# number of rings (size 3 to 8) (size 9 to 14) (size 15 to 20)
#    0.545    1.455    0.909    2.182    2.545    1.455 
#    4.909    0.000    0.000    0.000    0.000    0.000 
#    0.000    0.000    0.000    0.000    0.000    0.000 
#
# Total GULP energy -817658.136301 kJ/mol
# GULP energy per Si atom -12388.759641 kJ/mol
# Density = 2.033755 g / cm^3
# Si number density = 20.383948 Si / 1000 Ang^3
#
#
#
# Elastic Constant Matrix: (Units=GPa)
#
#
# Indices 1 2 3 4 5 6 
#
# 1 89.8985 36.8819 40.8840 0.0000 0.0000 0.0000
# 2 36.8819 89.8985 40.8840 0.0000 0.0000 0.0000
# 3 40.8840 40.8840 100.7809 0.0000 0.0000 0.0000
# 4 0.0000 0.0000 0.0000 27.2051 0.0000 0.0000
# 5 0.0000 0.0000 0.0000 0.0000 27.2051 0.0000
# 6 0.0000 0.0000 0.0000 0.0000 0.0000 26.5083
#
#
#
# Elastic Compliance Matrix: (Units=1/GPa)
#
#
# Indices 1 2 3 4 5 6 
#
# 1 0.014772 -0.004090 -0.004334 0.000000 0.000000 0.000000
# 2 -0.004090 0.014772 -0.004334 0.000000 0.000000 0.000000
# 3 -0.004334 -0.004334 0.013439 0.000000 0.000000 0.000000
# 4 0.000000 0.000000 0.000000 0.036758 0.000000 0.000000
# 5 0.000000 0.000000 0.000000 0.000000 0.036758 0.000000
# 6 0.000000 0.000000 0.000000 0.000000 0.000000 0.037724
#
#
# Mechanical properties :
#
#
# Convention : Reuss Voigt Hill
#
# Bulk Modulus (GPa) = 57.24321 57.54195 57.39258
# Shear Modulus (GPa) = 26.94544 26.97889 26.96216
#
# Velocity S-wave (km/s) = 3.63973 3.64199 3.64086
# Velocity P-wave (km/s) = 6.76809 6.78054 6.77432
#
# Compressibility (1/GPa) = 0.01746932
#
# Stress axis : x y z
#
# Youngs Moduli (GPa) = 67.69401 67.69401 74.41238
#
# Poissons Ratio (x) = 0.27685 0.32248
# Poissons Ratio (y) = 0.27685 0.32248
# Poissons Ratio (z) = 0.29336 0.29336
#
# Static dielectric constant tensor:
#      x y z
#    x 3.729350 0.000000 0.000000 
#    y 0.000000 3.729350 0.000000 
#    z 0.000000 0.000000 3.869010 
# 
# 
# High freq. dielectric constant tensor:
#      x y z
#    x 1.793780 0.000000 0.000000 
#    y 0.000000 1.793780 0.000000 
#    z 0.000000 0.000000 1.801100 
# 
# From -- ./inp_files/575.got.cif
#   From: 2010.03.12/outbox.cif.g09.slc.cpg/sg185_cif.got.tgz:575.got - 2010.04.01 11:55:19.
