data_PCOD8326776
_publ_section_title
;
Structure prediction by ZEFSAII (Michael W. Deem and Ramdas Pophale) SiO2 
 PCOD8326776
Probable space group: P 63 M C
;
_chemical_formula_sum "Si O2"
_cell_formula_units_Z 48
_cell_length_a 19.210932
_cell_length_b 19.210932
_cell_length_c 9.012716
_cell_angle_alpha 90.000000
_cell_angle_beta 90.000000
_cell_angle_gamma 120.000000
_cell_volume 2880.601533
_symmetry_space_group_name_H-M "P 63 M C"
_symmetry_group_IT_number 186
_symmetry_cell_setting 'hexagonal'
loop_
_space_group_symop_operation_xyz
x,y,z
x-y,x,1/2+z
-y,x-y,z
-x,-y,1/2+z
-x+y,-x,z
y,-x+y,1/2+z
-x+y,y,z
x,x-y,z
-y,-x,z
y,x,1/2+z
x-y,-y,1/2+z
-x,-x+y,1/2+z
loop_
_atom_site_type_symbol
_atom_site_label
_atom_site_fract_x
_atom_site_fract_y
_atom_site_fract_z
Si Si1 0.093391 0.342514 0.562320
Si Si2 0.491409 0.666952 0.066159
Si Si3 0.638729 0.954797 0.247430
Si Si4 0.895825 0.369513 0.250800
O O1 0.155834 0.311668 0.599144
O O2 0.080674 0.337901 0.386434
O O3 0.131404 0.435407 0.618355
O O4 0.008403 0.288678 0.647966
O O5 0.466356 0.733178 0.102125
O O6 0.419779 0.580222 0.118223
O O7 0.505590 0.667948 0.890563
O O8 0.572918 0.690075 0.150562
O O9 0.591846 0.987055 0.801755
O O10 0.894336 0.447168 0.188692
#
# Coordination Sequence:
#
# PCOD8326776 Si02
#       4
#    12  12  12  12
#     4  10  20  34  52  77 102 132 176 220 264 314
#     4  11  21  34  52  75 104 139 180 224 266 312
#     4  10  19  34  52  72 101 139 173 217 261 311
#     4   9  18  32  50  72  99 134 180 221 259 311
#
# _framework density 16.663186
#
# number of rings (size 3 to 8) (size 9 to 14) (size 15 to 20)
#    1.500    0.500    2.500    2.500    0.000    2.000 
#    0.000    0.000    0.000    0.500    0.000    0.000 
#    0.000    0.000    0.000   28.500    0.000    0.000 
#
# Total GULP energy -594804.049981 kJ/mol
# GULP energy per Si atom -12391.751041 kJ/mol
# Density = 1.662526 g / cm^3
# Si number density = 16.663186 Si / 1000 Ang^3
#
#
#
# Elastic Constant Matrix: (Units=GPa)
#
#
# Indices 1 2 3 4 5 6 
#
# 1 69.0865 26.8232 29.5744 0.0000 0.0000 0.0000
# 2 26.8232 69.0865 29.5744 0.0000 0.0000 0.0000
# 3 29.5744 29.5744 77.6476 0.0000 0.0000 0.0000
# 4 0.0000 0.0000 0.0000 15.4713 0.0000 0.0000
# 5 0.0000 0.0000 0.0000 0.0000 15.4713 0.0000
# 6 0.0000 0.0000 0.0000 0.0000 0.0000 21.1317
#
#
#
# Elastic Compliance Matrix: (Units=1/GPa)
#
#
# Indices 1 2 3 4 5 6 
#
# 1 0.018644 -0.005017 -0.005190 0.000000 0.000000 0.000000
# 2 -0.005017 0.018644 -0.005190 0.000000 0.000000 0.000000
# 3 -0.005190 -0.005190 0.016833 0.000000 0.000000 0.000000
# 4 0.000000 0.000000 0.000000 0.064636 0.000000 0.000000
# 5 0.000000 0.000000 0.000000 0.000000 0.064636 0.000000
# 6 0.000000 0.000000 0.000000 0.000000 0.000000 0.047322
#
#
# Mechanical properties :
#
#
# Convention : Reuss Voigt Hill
#
# Bulk Modulus (GPa) = 42.87099 43.08496 42.97797
# Shear Modulus (GPa) = 18.56761 19.07142 18.81951
#
# Velocity S-wave (km/s) = 3.34172 3.38675 3.36431
# Velocity P-wave (km/s) = 6.37756 6.41919 6.39841
#
# Compressibility (1/GPa) = 0.02332580
#
# Stress axis : x y z
#
# Youngs Moduli (GPa) = 53.63560 53.63560 59.40867
#
# Poissons Ratio (x) = 0.26908 0.30836
# Poissons Ratio (y) = 0.26908 0.30836
# Poissons Ratio (z) = 0.27839 0.27839
#
# Static dielectric constant tensor:
#      x y z
#    x 2.917550 0.000000 0.000000 
#    y 0.000000 2.917550 0.000000 
#    z 0.000000 0.000000 2.982170 
# 
# 
# High freq. dielectric constant tensor:
#      x y z
#    x 1.618760 0.000000 0.000000 
#    y 0.000000 1.618760 0.000000 
#    z 0.000000 0.000000 1.641460 
# 
# From -- ./inp_files/856.got.cif
#   From: 2010.03.12/outbox.cif.g09.slc.cpg/sg186_1_cif.got.tgz:856.got - 2010.04.01 11:56:34.
