data_PCOD8326984
_publ_section_title
;
Structure prediction by ZEFSAII (Michael W. Deem and Ramdas Pophale) SiO2 
 PCOD8326984
Probable space group: P -6 M 2
;
_chemical_formula_sum "Si O2"
_cell_formula_units_Z 60
_cell_length_a 21.139468
_cell_length_b 21.139468
_cell_length_c 9.068678
_cell_angle_alpha 90.000000
_cell_angle_beta 90.000000
_cell_angle_gamma 120.000000
_cell_volume 3509.641208
_symmetry_space_group_name_H-M "P -6 M 2"
_symmetry_group_IT_number 187
_symmetry_cell_setting 'hexagonal'
loop_
_space_group_symop_operation_xyz
x,y,z
-x+y,-x,-z
-y,x-y,z
x,y,-z
-x+y,-x,z
-y,x-y,-z
-y,-x,-z
-x+y,y,-z
x,x-y,-z
-x+y,y,z
x,x-y,z
-y,-x,z
loop_
_atom_site_type_symbol
_atom_site_label
_atom_site_fract_x
_atom_site_fract_y
_atom_site_fract_z
Si Si1 0.552710 0.958464 0.328835
Si Si2 0.827860 0.172141 0.666378
Si Si3 0.188586 0.521678 0.831043
Si Si4 0.035502 0.823407 0.829719
Si Si5 0.701767 0.657129 0.825472
Si Si6 0.914466 0.085535 0.664173
O O1 0.573016 0.964448 0.500000
O O2 0.487547 0.975093 0.298796
O O3 0.530301 0.877829 0.273935
O O4 0.621631 0.016824 0.237251
O O5 0.811890 0.188111 0.500000
O O6 0.876106 0.247330 0.753913
O O7 0.871113 0.128888 0.662833
O O8 0.256409 0.512817 0.783097
O O9 0.211652 0.605826 0.809956
O O10 0.165589 0.497012 0.000000
O O11 0.122019 0.877982 0.800308
O O12 0.012497 0.741333 0.779137
O O13 0.991115 0.855853 0.745231
O O14 0.015628 0.821888 0.000000
O O15 0.701664 0.648168 0.000000
O O16 0.930794 0.069207 0.500000
#
# Coordination Sequence:
#
# PCOD8326984 Si02
#       6
#    12   6  12  12  12   6
#     4  10  21  35  49  69 100 134 165 200 247 301
#     4   9  17  31  51  73  97 123 151 187 235 287
#     4   9  17  30  48  68  91 124 169 218 263 305
#     4   9  18  32  48  66  90 123 162 201 244 292
#     4  10  19  32  52  75  98 125 161 204 244 287
#     4   9  17  29  45  65  89 117 151 195 241 281
#
# _framework density 17.095766000000001
#
# number of rings (size 3 to 8) (size 9 to 14) (size 15 to 20)
#    0.000    2.600    0.000    2.000    0.000    6.800 
#    0.600    2.000    0.000    1.200    0.000    0.000 
#    1.000    0.000    1.800    0.000    1.800    0.000 
#
# Total GULP energy -744008.003960 kJ/mol
# GULP energy per Si atom -12400.133399 kJ/mol
# Density = 1.705685 g / cm^3
# Si number density = 17.095766 Si / 1000 Ang^3
#
#
#
# Elastic Constant Matrix: (Units=GPa)
#
#
# Indices 1 2 3 4 5 6 
#
# 1 83.0032 49.8709 48.9330 0.0000 0.0000 0.0000
# 2 49.8709 83.0032 48.9330 0.0000 0.0000 0.0000
# 3 48.9330 48.9330 97.8437 0.0000 0.0000 0.0000
# 4 0.0000 0.0000 0.0000 26.6798 0.0000 0.0000
# 5 0.0000 0.0000 0.0000 0.0000 26.6798 0.0000
# 6 0.0000 0.0000 0.0000 0.0000 0.0000 16.5662
#
#
#
# Elastic Compliance Matrix: (Units=1/GPa)
#
#
# Indices 1 2 3 4 5 6 
#
# 1 0.021048 -0.009134 -0.005959 0.000000 0.000000 0.000000
# 2 -0.009134 0.021048 -0.005959 0.000000 0.000000 0.000000
# 3 -0.005959 -0.005959 0.016180 0.000000 0.000000 0.000000
# 4 0.000000 0.000000 0.000000 0.037482 0.000000 0.000000
# 5 0.000000 0.000000 0.000000 0.000000 0.037482 0.000000
# 6 0.000000 0.000000 0.000000 0.000000 0.000000 0.060364
#
#
# Mechanical properties :
#
#
# Convention : Reuss Voigt Hill
#
# Bulk Modulus (GPa) = 61.82375 62.14712 61.98543
# Shear Modulus (GPa) = 20.73847 21.72604 21.23225
#
# Velocity S-wave (km/s) = 3.48670 3.56876 3.52797
# Velocity P-wave (km/s) = 7.24232 7.30839 7.27543
#
# Compressibility (1/GPa) = 0.01617501
#
# Stress axis : x y z
#
# Youngs Moduli (GPa) = 47.50972 47.50972 61.80299
#
# Poissons Ratio (x) = 0.43394 0.36827
# Poissons Ratio (y) = 0.43394 0.36827
# Poissons Ratio (z) = 0.28310 0.28310
#
# Static dielectric constant tensor:
#      x y z
#    x 3.068920 0.000000 0.000000 
#    y 0.000000 3.068920 0.000000 
#    z 0.000000 0.000000 3.323210 
# 
# 
# High freq. dielectric constant tensor:
#      x y z
#    x 1.639510 0.000000 0.000000 
#    y 0.000000 1.639510 0.000000 
#    z 0.000000 0.000000 1.669260 
# 
# From -- ./inp_files/671.got.cif
#   From: 2010.03.12/outbox.cif.g09.slc.cpg/sg187_1_cif.got.tgz:671.got - 2010.04.01 11:58:23.
