data_PCOD8326321
_publ_section_title
;
Structure prediction by ZEFSAII (Michael W. Deem and Ramdas Pophale) SiO2 
 PCOD8326321
Probable space group: P 64 2 2
;
_chemical_formula_sum "Si O2"
_cell_formula_units_Z 96
_cell_length_a 16.665246
_cell_length_b 16.665246
_cell_length_c 19.369734
_cell_angle_alpha 90.000000
_cell_angle_beta 90.000000
_cell_angle_gamma 120.000000
_cell_volume 4658.839467
_symmetry_space_group_name_H-M "P 64 2 2"
_symmetry_group_IT_number 181
_symmetry_cell_setting 'hexagonal'
loop_
_space_group_symop_operation_xyz
x,y,z
x-y,x,2/3+z
-y,x-y,1/3+z
-x,-y,z
-x+y,-x,2/3+z
y,-x+y,1/3+z
x-y,-y,-z
-x,-x+y,2/3-z
y,x,1/3-z
-y,-x,1/3-z
-x+y,y,-z
x,x-y,2/3-z
loop_
_atom_site_type_symbol
_atom_site_label
_atom_site_fract_x
_atom_site_fract_y
_atom_site_fract_z
Si Si1 0.355473 0.549419 0.456748
Si Si2 0.717609 0.838823 0.617673
Si Si3 0.792112 0.334905 0.968013
Si Si4 0.704927 0.607722 0.200094
Si Si5 0.243629 0.698052 0.783568
Si Si6 0.381491 0.945538 0.104587
Si Si7 0.818812 0.074320 0.099267
Si Si8 0.656119 0.524167 0.706399
O O1 0.268991 0.537981 0.500000
O O2 0.319397 0.511451 0.380345
O O3 0.439511 0.654258 0.452722
O O4 0.397255 0.490903 0.490992
O O5 0.695917 0.903461 0.568273
O O6 0.743585 0.875260 0.697029
O O7 0.798056 0.828636 0.579500
O O8 0.629079 0.738531 0.628537
O O9 0.882023 0.349232 0.926704
O O10 0.777726 0.423685 0.957836
O O11 0.698955 0.240398 0.939349
O O12 0.636238 0.636238 0.166667
O O13 0.734244 0.560488 0.138719
O O14 0.230944 0.615472 0.833334
O O15 0.278779 0.930045 0.109243
O O16 0.534200 0.946806 0.095261
O O17 0.386922 0.885768 0.038455
O O18 0.882050 0.117951 0.166667
#
# Coordination Sequence:
#
# PCOD8326321 Si02
#       8
#    12  12  12  12  12  12  12  12
#     4  11  19  31  56  90 118 154 194 242 300 366
#     4   8  17  32  55  91 120 156 194 236 293 358
#     4  10  19  34  59  85 111 156 206 249 301 362
#     4  10  21  40  66  82 107 150 211 260 294 348
#     4   9  21  36  56  82 108 150 200 254 300 344
#     4   9  16  26  49  85 122 157 189 232 276 354
#     4   9  16  28  57  91 131 158 186 229 291 367
#     4   8  15  29  48  82 120 155 192 229 287 346
#
# _framework density 20.605989999999998
#
# number of rings (size 3 to 8) (size 9 to 14) (size 15 to 20)
#    0.000    2.750    1.250    2.250    3.500    2.250 
#    0.000    0.000    5.500   37.125    3.250    1.750 
#    0.000    0.000    0.000    0.000    0.000    0.000 
#
# Total GULP energy -1189643.338216 kJ/mol
# GULP energy per Si atom -12392.118106 kJ/mol
# Density = 2.055909 g / cm^3
# Si number density = 20.605990 Si / 1000 Ang^3
#
#
#
# Elastic Constant Matrix: (Units=GPa)
#
#
# Indices 1 2 3 4 5 6 
#
# 1 76.1001 35.2801 55.5207 0.0000 0.0000 0.0000
# 2 35.2801 76.1001 55.5207 0.0000 0.0000 0.0000
# 3 55.5207 55.5207 146.5455 0.0000 0.0000 0.0000
# 4 0.0000 0.0000 0.0000 35.4537 0.0000 0.0000
# 5 0.0000 0.0000 0.0000 0.0000 35.4537 0.0000
# 6 0.0000 0.0000 0.0000 0.0000 0.0000 20.4100
#
#
#
# Elastic Compliance Matrix: (Units=1/GPa)
#
#
# Indices 1 2 3 4 5 6 
#
# 1 0.019463 -0.005035 -0.005466 0.000000 0.000000 0.000000
# 2 -0.005035 0.019463 -0.005466 0.000000 0.000000 0.000000
# 3 -0.005466 -0.005466 0.010966 0.000000 0.000000 0.000000
# 4 0.000000 0.000000 0.000000 0.028206 0.000000 0.000000
# 5 0.000000 0.000000 0.000000 0.000000 0.028206 0.000000
# 6 0.000000 0.000000 0.000000 0.000000 0.000000 0.048996
#
#
# Mechanical properties :
#
#
# Convention : Reuss Voigt Hill
#
# Bulk Modulus (GPa) = 55.68979 65.70986 60.69983
# Shear Modulus (GPa) = 25.87741 28.42508 27.15124
#
# Velocity S-wave (km/s) = 3.54760 3.71813 3.63387
# Velocity P-wave (km/s) = 6.62309 7.09864 6.86498
#
# Compressibility (1/GPa) = 0.01795661
#
# Stress axis : x y z
#
# Youngs Moduli (GPa) = 51.38006 51.38006 91.19366
#
# Poissons Ratio (x) = 0.25870 0.49848
# Poissons Ratio (y) = 0.25870 0.49848
# Poissons Ratio (z) = 0.28085 0.28085
#
# Static dielectric constant tensor:
#      x y z
#    x 3.606320 0.000000 0.000000 
#    y 0.000000 3.606320 0.000000 
#    z 0.000000 0.000000 4.019350 
# 
# 
# High freq. dielectric constant tensor:
#      x y z
#    x 1.778330 0.000000 0.000000 
#    y 0.000000 1.778330 0.000000 
#    z 0.000000 0.000000 1.808780 
# 
# From -- ./inp_files/9212.got.cif
#   From: 2010.03.12/outbox.cif.g09.slc.cpg/sg181_5_cif.got.tgz:9212.got - 2010.04.01 11:42:41.
