data_PCOD8326665
_publ_section_title
;
Structure prediction by ZEFSAII (Michael W. Deem and Ramdas Pophale) SiO2 
 PCOD8326665
Probable space group: P 63 C M
;
_chemical_formula_sum "Si O2"
_cell_formula_units_Z 96
_cell_length_a 13.992693
_cell_length_b 13.992693
_cell_length_c 27.448649
_cell_angle_alpha 90.000000
_cell_angle_beta 90.000000
_cell_angle_gamma 120.000000
_cell_volume 4654.298329
_symmetry_space_group_name_H-M "P 63 C M"
_symmetry_group_IT_number 185
_symmetry_cell_setting 'hexagonal'
loop_
_space_group_symop_operation_xyz
x,y,z
x-y,x,1/2+z
-y,x-y,z
-x,-y,1/2+z
-x+y,-x,z
y,-x+y,1/2+z
-x+y,y,1/2+z
x,x-y,1/2+z
-y,-x,1/2+z
y,x,z
x-y,-y,z
-x,-x+y,z
loop_
_atom_site_type_symbol
_atom_site_label
_atom_site_fract_x
_atom_site_fract_y
_atom_site_fract_z
Si Si1 0.474978 0.598469 0.022920
Si Si2 0.130551 0.464352 0.333928
Si Si3 0.120043 0.313874 0.986625
Si Si4 0.458134 0.123586 0.442552
Si Si5 0.815989 0.292203 0.123868
Si Si6 0.615255 0.121798 0.177318
Si Si7 0.243133 0.121508 0.093006
Si Si8 0.540093 0.871414 0.286928
O O1 0.503642 0.503642 0.038002
O O2 0.462846 0.649353 0.073448
O O3 0.573401 0.691175 0.991578
O O4 0.364439 0.545177 0.987936
O O5 0.174392 0.500198 0.389266
O O6 0.148369 0.575621 0.310151
O O7 0.209867 0.424099 0.308477
O O8 0.000000 0.367536 0.330996
O O9 0.220143 0.342713 0.950206
O O10 0.000000 0.220115 0.966197
O O11 0.146621 0.274083 0.036595
O O12 0.436653 0.000000 0.441050
O O13 0.690480 0.206883 0.136358
O O14 0.875021 0.377207 0.168799
O O15 0.876758 0.220896 0.120985
O O16 0.667942 0.157649 0.230381
O O17 0.593703 0.000000 0.166209
O O18 0.209677 0.209677 0.112982
O O19 0.138435 0.000000 0.099501
O O20 0.637126 0.000000 0.294435
#
# Coordination Sequence:
#
# PCOD8326665 Si02
#       8
#    12  12  12  12  12  12  12  12
#     4   9  20  36  52  78 119 158 195 234 280 348
#     4  10  22  40  64  94 125 161 204 255 316 380
#     4   9  19  35  54  77 114 159 202 243 286 335
#     4  10  21  36  56  85 120 156 197 242 296 359
#     4  11  22  37  57  84 120 160 196 243 301 354
#     4  11  23  39  61  88 116 153 199 248 303 368
#     4  10  20  36  57  83 116 160 207 250 292 339
#     4  10  22  41  66  93 121 157 203 257 320 379
#
# _framework density 20.626094999999999
#
# number of rings (size 3 to 8) (size 9 to 14) (size 15 to 20)
#    0.000    2.000    0.000    4.000    5.250    0.500 
#    0.750    1.250    0.000    0.500    0.000    0.000 
#    0.000    0.000    0.000    0.000    0.000    0.000 
#
# Total GULP energy -1189381.493585 kJ/mol
# GULP energy per Si atom -12389.390558 kJ/mol
# Density = 2.057915 g / cm^3
# Si number density = 20.626095 Si / 1000 Ang^3
#
#
#
# Elastic Constant Matrix: (Units=GPa)
#
#
# Indices 1 2 3 4 5 6 
#
# 1 96.6963 44.2820 56.0792 0.0000 0.0000 0.0000
# 2 44.2820 96.6963 56.0792 0.0000 0.0000 0.0000
# 3 56.0792 56.0792 120.8023 0.0000 0.0000 0.0000
# 4 0.0000 0.0000 0.0000 -15.3568 0.0000 0.0000
# 5 0.0000 0.0000 0.0000 0.0000 -15.3568 0.0000
# 6 0.0000 0.0000 0.0000 0.0000 0.0000 26.2071
#
#
#
# Elastic Compliance Matrix: (Units=1/GPa)
#
#
# Indices 1 2 3 4 5 6 
#
# 1 0.015163 -0.003916 -0.005221 0.000000 0.000000 0.000000
# 2 -0.003916 0.015163 -0.005221 0.000000 0.000000 0.000000
# 3 -0.005221 -0.005221 0.013126 0.000000 0.000000 0.000000
# 4 0.000000 0.000000 0.000000 -0.065118 0.000000 0.000000
# 5 0.000000 0.000000 0.000000 0.000000 -0.065118 0.000000
# 6 0.000000 0.000000 0.000000 0.000000 0.000000 0.038158
#
#
# Mechanical properties :
#
#
# Convention : Reuss Voigt Hill
#
# Bulk Modulus (GPa) = 67.86514 69.67509 68.77011
# Shear Modulus (GPa) = -333.37119 9.61565 -161.87777
#
# Velocity S-wave (km/s) = -12.72701 2.16148 -8.86862
# Velocity P-wave (km/s) = 13.52757 6.33109 8.45318
#
# Compressibility (1/GPa) = 0.01473511
#
# Stress axis : x y z
#
# Youngs Moduli (GPa) = 65.95022 65.95022 76.18716
#
# Poissons Ratio (x) = 0.25825 0.39779
# Poissons Ratio (y) = 0.25825 0.39779
# Poissons Ratio (z) = 0.34434 0.34434
#
# Static dielectric constant tensor:
#      x y z
#    x 4.025610 0.000000 0.000000 
#    y 0.000000 4.025610 0.000000 
#    z 0.000000 0.000000 3.646980 
# 
# 
# High freq. dielectric constant tensor:
#      x y z
#    x 1.802840 0.000000 0.000000 
#    y 0.000000 1.802840 0.000000 
#    z 0.000000 0.000000 1.790310 
# 
# From -- ./inp_files/2188.got.cif
#   From: 2010.03.12/outbox.cif.g09.slc.cpg/sg185_cif.got.tgz:2188.got - 2010.04.01 11:55:19.
