data_PCOD8326722
_publ_section_title
;
Structure prediction by ZEFSAII (Michael W. Deem and Ramdas Pophale) SiO2 
 PCOD8326722
Probable space group: P 63 M C
;
_chemical_formula_sum "Si O2"
_cell_formula_units_Z 84
_cell_length_a 21.985527
_cell_length_b 21.985527
_cell_length_c 15.578678
_cell_angle_alpha 90.000000
_cell_angle_beta 90.000000
_cell_angle_gamma 120.000000
_cell_volume 6521.312215
_symmetry_space_group_name_H-M "P 63 M C"
_symmetry_group_IT_number 186
_symmetry_cell_setting 'hexagonal'
loop_
_space_group_symop_operation_xyz
x,y,z
x-y,x,1/2+z
-y,x-y,z
-x,-y,1/2+z
-x+y,-x,z
y,-x+y,1/2+z
-x+y,y,z
x,x-y,z
-y,-x,z
y,x,1/2+z
x-y,-y,1/2+z
-x,-x+y,1/2+z
loop_
_atom_site_type_symbol
_atom_site_label
_atom_site_fract_x
_atom_site_fract_y
_atom_site_fract_z
Si Si1 0.622095 0.738726 0.159340
Si Si2 0.261274 0.377905 0.349975
Si Si3 0.333699 0.802803 0.152123
Si Si4 0.955123 0.188328 0.920387
Si Si5 0.811672 0.766794 0.588924
Si Si6 0.530897 0.197198 0.857195
Si Si7 0.856365 0.000316 0.754654
O O1 0.623885 0.811943 0.166754
O O2 0.632001 0.716020 0.254658
O O3 0.545957 0.681258 0.120453
O O4 0.686412 0.748192 0.100427
O O5 0.188058 0.376115 0.342561
O O6 0.251807 0.313588 0.408887
O O7 0.318742 0.454043 0.388863
O O8 0.408694 0.817388 0.116079
O O9 0.272984 0.727017 0.118131
O O10 0.332878 0.801992 0.254659
O O11 0.884559 0.115442 0.931949
O O12 0.997559 0.185392 0.838144
O O13 0.000003 0.201156 0.004654
O O14 0.884557 0.769114 0.577365
O O15 0.814608 0.812169 0.671164
O O16 0.591306 0.182612 0.893238
O O17 0.545968 0.272984 0.891186
O O18 0.858731 0.929366 0.754656
O O19 0.935450 0.064551 0.754654
#
# Coordination Sequence:
#
# PCOD8326722 Si02
#       7
#    12  12  12  12  12  12  12
#     4   8  13  23  36  50  69  95 122 146 173 206
#     4   8  13  23  36  50  69  95 122 146 173 206
#     4   8  12  17  29  50  75  98 120 145 174 207
#     4  10  18  28  41  55  71  92 119 149 180 214
#     4  10  18  28  41  55  71  92 119 149 180 214
#     4   8  12  17  29  50  75  98 120 145 174 207
#     4  10  19  30  42  56  73  90 110 142 184 226
#
# _framework density 12.880843
#
# number of rings (size 3 to 8) (size 9 to 14) (size 15 to 20)
#    0.000    3.143    1.429    3.000    0.000    1.143 
#    0.000    0.000    0.000    5.429    0.000    0.000 
#    0.000    0.000    0.000    0.000    0.000    0.000 
#
# Total GULP energy -1040779.035254 kJ/mol
# GULP energy per Si atom -12390.226610 kJ/mol
# Density = 1.285153 g / cm^3
# Si number density = 12.880843 Si / 1000 Ang^3
#
#
#
# Elastic Constant Matrix: (Units=GPa)
#
#
# Indices 1 2 3 4 5 6 
#
# 1 69.0978 39.1827 32.5234 0.0000 0.0000 0.0000
# 2 39.1827 69.0978 32.5234 0.0000 0.0000 0.0000
# 3 32.5234 32.5234 64.9018 0.0000 0.0000 0.0000
# 4 0.0000 0.0000 0.0000 9.7714 0.0000 0.0000
# 5 0.0000 0.0000 0.0000 0.0000 9.7714 0.0000
# 6 0.0000 0.0000 0.0000 0.0000 0.0000 14.9576
#
#
#
# Elastic Compliance Matrix: (Units=1/GPa)
#
#
# Indices 1 2 3 4 5 6 
#
# 1 0.023320 -0.010108 -0.006621 0.000000 0.000000 0.000000
# 2 -0.010108 0.023320 -0.006621 0.000000 0.000000 0.000000
# 3 -0.006621 -0.006621 0.022044 0.000000 0.000000 0.000000
# 4 0.000000 0.000000 0.000000 0.102340 0.000000 0.000000
# 5 0.000000 0.000000 0.000000 0.000000 0.102340 0.000000
# 6 0.000000 0.000000 0.000000 0.000000 0.000000 0.066856
#
#
# Mechanical properties :
#
#
# Convention : Reuss Voigt Hill
#
# Bulk Modulus (GPa) = 45.48601 45.72850 45.60726
# Shear Modulus (GPa) = 12.68239 13.49127 13.08683
#
# Velocity S-wave (km/s) = 3.14123 3.23985 3.19092
# Velocity P-wave (km/s) = 6.96749 7.04086 7.00428
#
# Compressibility (1/GPa) = 0.02198478
#
# Stress axis : x y z
#
# Youngs Moduli (GPa) = 42.88108 42.88108 45.36420
#
# Poissons Ratio (x) = 0.43342 0.30036
# Poissons Ratio (y) = 0.43342 0.30036
# Poissons Ratio (z) = 0.28392 0.28392
#
# Static dielectric constant tensor:
#      x y z
#    x 2.708210 0.000000 0.000000 
#    y 0.000000 2.708210 0.000000 
#    z 0.000000 0.000000 2.357990 
# 
# 
# High freq. dielectric constant tensor:
#      x y z
#    x 1.480050 0.000000 0.000000 
#    y 0.000000 1.480050 0.000000 
#    z 0.000000 0.000000 1.449010 
# 
# From -- ./inp_files/1998.got.cif
#   From: 2010.03.12/outbox.cif.g09.slc.cpg/sg186_1_cif.got.tgz:1998.got - 2010.04.01 11:56:34.
