data_PCOD8326955
_publ_section_title
;
Structure prediction by ZEFSAII (Michael W. Deem and Ramdas Pophale) SiO2 
 PCOD8326955
Probable space group: P -6 M 2
;
_chemical_formula_sum "Si O2"
_cell_formula_units_Z 72
_cell_length_a 23.344914
_cell_length_b 23.344914
_cell_length_c 8.421111
_cell_angle_alpha 90.000000
_cell_angle_beta 90.000000
_cell_angle_gamma 120.000000
_cell_volume 3974.519027
_symmetry_space_group_name_H-M "P -6 M 2"
_symmetry_group_IT_number 187
_symmetry_cell_setting 'hexagonal'
loop_
_space_group_symop_operation_xyz
x,y,z
-x+y,-x,-z
-y,x-y,z
x,y,-z
-x+y,-x,z
-y,x-y,-z
-y,-x,-z
-x+y,y,-z
x,x-y,-z
-x+y,y,z
x,x-y,z
-y,-x,z
loop_
_atom_site_type_symbol
_atom_site_label
_atom_site_fract_x
_atom_site_fract_y
_atom_site_fract_z
Si Si1 0.923331 0.330897 0.814087
Si Si2 0.795071 0.461601 0.189078
Si Si3 0.281094 0.076784 0.313019
Si Si4 0.265956 0.858525 0.688066
Si Si5 0.410232 0.458616 0.687616
Si Si6 0.066537 0.258582 0.688941
O O1 0.859901 0.333374 0.750429
O O2 0.923796 0.271466 0.723442
O O3 0.986228 0.401322 0.777500
O O4 0.918976 0.316193 0.000000
O O5 0.731138 0.462275 0.256766
O O6 0.795711 0.397856 0.258842
O O7 0.793416 0.459043 0.000000
O O8 0.274918 0.079943 0.500000
O O9 0.279995 0.139998 0.235225
O O10 0.219231 0.008035 0.246299
O O11 0.262378 0.857955 0.500000
O O12 0.216603 0.783398 0.751360
O O13 0.341749 0.886427 0.741866
O O14 0.239932 0.906798 0.752922
O O15 0.411029 0.447399 0.500000
O O16 0.470470 0.529531 0.740294
O O17 0.065274 0.259780 0.500000
O O18 0.116559 0.233117 0.746932
#
# Coordination Sequence:
#
# PCOD8326955 Si02
#       6
#    12  12  12  12  12  12
#     4  11  21  32  46  67  98 129 156 195 244 294
#     4   9  17  29  44  60  79 108 148 189 228 274
#     4  10  19  31  49  72  97 125 160 200 241 290
#     4   8  13  24  45  69  91 117 151 189 227 274
#     4  10  19  31  49  72  97 125 160 200 241 290
#     4   8  13  24  45  69  91 117 151 189 227 274
#
# _framework density 18.115400000000001
#
# number of rings (size 3 to 8) (size 9 to 14) (size 15 to 20)
#    0.000    2.667    1.667    2.667    0.000    2.667 
#    0.000    0.000    0.000    2.667    0.000    4.667 
#    0.000    8.000    0.000    0.000    0.000    0.000 
#
# Total GULP energy -892257.690289 kJ/mol
# GULP energy per Si atom -12392.467921 kJ/mol
# Density = 1.807417 g / cm^3
# Si number density = 18.115400 Si / 1000 Ang^3
#
#
#
# Elastic Constant Matrix: (Units=GPa)
#
#
# Indices 1 2 3 4 5 6 
#
# 1 151.0961 90.4213 3.5834 0.0000 -0.0003 0.0000
# 2 90.4213 151.0961 3.5834 0.0000 0.0003 0.0000
# 3 3.5834 3.5834 6.9591 0.0000 0.0000 0.0000
# 4 0.0000 0.0000 0.0000 11.8128 0.0000 0.0003
# 5 -0.0003 0.0003 0.0000 0.0000 11.8128 0.0000
# 6 0.0000 0.0000 0.0000 0.0003 0.0000 30.3374
#
#
#
# Elastic Compliance Matrix: (Units=1/GPa)
#
#
# Indices 1 2 3 4 5 6 
#
# 1 0.010343 -0.006138 -0.002165 0.000000 0.000000 0.000000
# 2 -0.006138 0.010343 -0.002165 0.000000 0.000000 0.000000
# 3 -0.002165 -0.002165 0.145927 0.000000 0.000000 0.000000
# 4 0.000000 0.000000 0.000000 0.084654 0.000000 -0.000001
# 5 0.000000 0.000000 0.000000 0.000000 0.084654 0.000000
# 6 0.000000 0.000000 0.000000 -0.000001 0.000000 0.032963
#
#
# Mechanical properties :
#
#
# Convention : Reuss Voigt Hill
#
# Bulk Modulus (GPa) = 6.86455 56.03639 31.45047
# Shear Modulus (GPa) = 11.40564 24.89681 18.15122
#
# Velocity S-wave (km/s) = 2.51193 3.71124 3.16884
# Velocity P-wave (km/s) = 3.49437 7.02599 5.54865
#
# Compressibility (1/GPa) = 0.14567606
#
# Stress axis : x y z
#
# Youngs Moduli (GPa) = 96.68358 96.68358 6.85274
#
# Poissons Ratio (x) = 0.59347 0.01484
# Poissons Ratio (y) = 0.59347 0.01484
# Poissons Ratio (z) = 0.20933 0.20933
#
# Static dielectric constant tensor:
#      x y z
#    x 3.696200 0.000000 0.000000 
#    y 0.000000 3.696200 0.000000 
#    z 0.000000 0.000000 2.828810 
# 
# 
# High freq. dielectric constant tensor:
#      x y z
#    x 1.701850 0.000000 0.000000 
#    y 0.000000 1.701850 0.000000 
#    z 0.000000 0.000000 1.652220 
# 
# From -- ./inp_files/933.got.cif
#   From: 2010.03.12/outbox.cif.g09.slc.cpg/sg187_1_cif.got.tgz:933.got - 2010.04.01 11:58:23.
