data_PCOD8326804
_publ_section_title
;
Structure prediction by ZEFSAII (Michael W. Deem and Ramdas Pophale) SiO2 
 PCOD8326804
Probable space group: P 63 M C
;
_chemical_formula_sum "Si O2"
_cell_formula_units_Z 48
_cell_length_a 16.699351
_cell_length_b 16.699351
_cell_length_c 10.002890
_cell_angle_alpha 90.000000
_cell_angle_beta 90.000000
_cell_angle_gamma 120.000000
_cell_volume 2415.768483
_symmetry_space_group_name_H-M "P 63 M C"
_symmetry_group_IT_number 186
_symmetry_cell_setting 'hexagonal'
loop_
_space_group_symop_operation_xyz
x,y,z
x-y,x,1/2+z
-y,x-y,z
-x,-y,1/2+z
-x+y,-x,z
y,-x+y,1/2+z
-x+y,y,z
x,x-y,z
-y,-x,z
y,x,1/2+z
x-y,-y,1/2+z
-x,-x+y,1/2+z
loop_
_atom_site_type_symbol
_atom_site_label
_atom_site_fract_x
_atom_site_fract_y
_atom_site_fract_z
Si Si1 0.847635 0.333584 0.026790
Si Si2 0.004845 0.297616 0.641736
Si Si3 0.484252 0.150542 0.717915
Si Si4 0.814264 0.001006 0.390987
O O1 0.865207 0.432604 0.077088
O O2 0.739505 0.260496 0.043286
O O3 0.905216 0.301067 0.115783
O O4 0.877534 0.338907 0.872838
O O5 0.914910 0.308939 0.631471
O O6 0.995644 0.220276 0.538898
O O7 0.016336 0.266338 0.788008
O O8 0.568938 0.137875 0.668729
O O9 0.512758 0.256379 0.694168
O O10 0.920474 0.079527 0.376119
O O11 0.805535 0.902768 0.362607
#
# Coordination Sequence:
#
# PCOD8326804 Si02
#       4
#    12  12  12  12
#     4  10  20  37  61  91 124 160 201 246 296 355
#     4  12  23  40  63  90 122 158 200 252 301 354
#     4  10  20  37  61  91 124 160 201 246 296 355
#     4  12  25  42  63  88 120 160 204 252 303 358
#
# _framework density 19.869454000000001
#
# number of rings (size 3 to 8) (size 9 to 14) (size 15 to 20)
#    0.000    1.000    2.500    6.000    0.000    2.000 
#    0.000    2.500    0.000    0.000    0.000    3.500 
#    0.000    0.000    0.000    0.000    0.000    0.000 
#
# Total GULP energy -595524.320309 kJ/mol
# GULP energy per Si atom -12406.756673 kJ/mol
# Density = 1.982423 g / cm^3
# Si number density = 19.869454 Si / 1000 Ang^3
#
#
#
# Elastic Constant Matrix: (Units=GPa)
#
#
# Indices 1 2 3 4 5 6 
#
# 1 119.9514 39.7220 21.7396 0.0000 0.0000 0.0000
# 2 39.7220 119.9514 21.7396 0.0000 0.0000 0.0000
# 3 21.7396 21.7396 41.5047 0.0000 0.0000 0.0000
# 4 0.0000 0.0000 0.0000 23.5704 0.0000 0.0000
# 5 0.0000 0.0000 0.0000 0.0000 23.5704 0.0000
# 6 0.0000 0.0000 0.0000 0.0000 0.0000 40.1147
#
#
#
# Elastic Compliance Matrix: (Units=1/GPa)
#
#
# Indices 1 2 3 4 5 6 
#
# 1 0.009884 -0.002580 -0.003826 0.000000 0.000000 0.000000
# 2 -0.002580 0.009884 -0.003826 0.000000 0.000000 0.000000
# 3 -0.003826 -0.003826 0.028102 0.000000 0.000000 0.000000
# 4 0.000000 0.000000 0.000000 0.042426 0.000000 0.000000
# 5 0.000000 0.000000 0.000000 0.000000 0.042426 0.000000
# 6 0.000000 0.000000 0.000000 0.000000 0.000000 0.024929
#
#
# Mechanical properties :
#
#
# Convention : Reuss Voigt Hill
#
# Bulk Modulus (GPa) = 36.48735 49.75663 43.12199
# Shear Modulus (GPa) = 26.70218 30.66488 28.68353
#
# Velocity S-wave (km/s) = 3.66987 3.93277 3.80359
# Velocity P-wave (km/s) = 6.02998 6.76154 6.40621
#
# Compressibility (1/GPa) = 0.02740676
#
# Stress axis : x y z
#
# Youngs Moduli (GPa) = 101.16913 101.16913 35.58496
#
# Poissons Ratio (x) = 0.26100 0.13615
# Poissons Ratio (y) = 0.26100 0.13615
# Poissons Ratio (z) = 0.38708 0.38708
#
# Static dielectric constant tensor:
#      x y z
#    x 3.694810 0.000000 0.000000 
#    y 0.000000 3.694810 0.000000 
#    z 0.000000 0.000000 3.461990 
# 
# 
# High freq. dielectric constant tensor:
#      x y z
#    x 1.788730 0.000000 0.000000 
#    y 0.000000 1.788730 0.000000 
#    z 0.000000 0.000000 1.753720 
# 
# From -- ./inp_files/735.got.cif
#   From: 2010.03.12/outbox.cif.g09.slc.cpg/sg186_1_cif.got.tgz:735.got - 2010.04.01 11:56:34.
