data_PCOD8326222
_publ_section_title
;
Structure prediction by ZEFSAII (Michael W. Deem and Ramdas Pophale) SiO2 
 PCOD8326222
Probable space group: P 62 2 2
;
_chemical_formula_sum "Si O2"
_cell_formula_units_Z 60
_cell_length_a 19.617628
_cell_length_b 19.617628
_cell_length_c 8.666938
_cell_angle_alpha 90.000000
_cell_angle_beta 90.000000
_cell_angle_gamma 120.000000
_cell_volume 2888.612667
_symmetry_space_group_name_H-M "P 62 2 2"
_symmetry_group_IT_number 180
_symmetry_cell_setting 'hexagonal'
loop_
_space_group_symop_operation_xyz
x,y,z
x-y,x,1/3+z
-y,x-y,2/3+z
-x,-y,z
-x+y,-x,1/3+z
y,-x+y,2/3+z
x-y,-y,-z
-x,-x+y,1/3-z
y,x,2/3-z
-y,-x,2/3-z
-x+y,y,-z
x,x-y,1/3-z
loop_
_atom_site_type_symbol
_atom_site_label
_atom_site_fract_x
_atom_site_fract_y
_atom_site_fract_z
Si Si1 0.893325 0.285289 0.072430
Si Si2 0.325755 0.561077 0.714361
Si Si3 0.376577 0.319923 0.601686
Si Si4 0.149991 0.299981 0.500000
Si Si5 0.831912 0.376250 0.533809
Si Si6 0.742847 0.742847 0.333334
O O1 0.842383 0.326334 0.104238
O O2 0.910410 0.264112 0.245288
O O3 0.851926 0.206833 0.969255
O O4 0.968263 0.353022 0.980805
O O5 0.368000 0.632001 0.833334
O O6 0.374664 0.591147 0.558751
O O7 0.233769 0.534254 0.705299
O O8 0.469225 0.359121 0.567247
O O9 0.328429 0.274782 0.449610
O O10 0.180913 0.243248 0.431072
O O11 0.881771 0.440885 0.666667
#
# Coordination Sequence:
#
# PCOD8326222 Si02
#       6
#    12  12  12   6  12   6
#     4  10  23  43  65  88 124 165 211 272 327 385
#     4  12  24  41  58  83 115 164 216 271 333 390
#     4  10  23  44  63  90 122 165 214 270 329 379
#     4  10  22  40  68  96 132 163 212 252 317 380
#     4  12  26  40  59  84 118 162 218 273 329 396
#     4  10  22  40  67  98 128 169 208 256 314 378
#
# _framework density 20.771218000000001
#
# number of rings (size 3 to 8) (size 9 to 14) (size 15 to 20)
#    0.000    1.200    2.000    3.600    8.400    3.200 
#    0.000    0.000    0.000    0.000    0.000    0.000 
#    0.000   65.600    0.000    0.000    0.000    0.000 
#
# Total GULP energy -743355.879369 kJ/mol
# GULP energy per Si atom -12389.264656 kJ/mol
# Density = 2.072394 g / cm^3
# Si number density = 20.771218 Si / 1000 Ang^3
#
#
#
# Elastic Constant Matrix: (Units=GPa)
#
#
# Indices 1 2 3 4 5 6 
#
# 1 87.2682 44.7724 38.7723 0.0000 0.0000 0.0000
# 2 44.7724 87.2682 38.7723 0.0000 0.0000 0.0000
# 3 38.7723 38.7723 137.9688 0.0000 0.0000 0.0000
# 4 0.0000 0.0000 0.0000 142.2519 0.0000 0.0000
# 5 0.0000 0.0000 0.0000 0.0000 142.2519 0.0000
# 6 0.0000 0.0000 0.0000 0.0000 0.0000 21.2479
#
#
#
# Elastic Compliance Matrix: (Units=1/GPa)
#
#
# Indices 1 2 3 4 5 6 
#
# 1 0.016301 -0.007231 -0.002549 0.000000 0.000000 0.000000
# 2 -0.007231 0.016301 -0.002549 0.000000 0.000000 0.000000
# 3 -0.002549 -0.002549 0.008681 0.000000 0.000000 0.000000
# 4 0.000000 0.000000 0.000000 0.007030 0.000000 0.000000
# 5 0.000000 0.000000 0.000000 0.000000 0.007030 0.000000
# 6 0.000000 0.000000 0.000000 0.000000 0.000000 0.047063
#
#
# Mechanical properties :
#
#
# Convention : Reuss Voigt Hill
#
# Bulk Modulus (GPa) = 60.14854 61.90438 61.02646
# Shear Modulus (GPa) = 37.70597 73.82954 55.76776
#
# Velocity S-wave (km/s) = 4.26525 5.96836 5.18718
# Velocity P-wave (km/s) = 7.29911 8.79561 8.08207
#
# Compressibility (1/GPa) = 0.01662551
#
# Stress axis : x y z
#
# Youngs Moduli (GPa) = 61.34566 61.34566 115.19866
#
# Poissons Ratio (x) = 0.44357 0.29364
# Poissons Ratio (y) = 0.44357 0.29364
# Poissons Ratio (z) = 0.15637 0.15637
#
# Static dielectric constant tensor:
#      x y z
#    x 1.613590 0.000000 0.000000 
#    y 0.000000 1.613590 0.000000 
#    z 0.000000 0.000000 4.204350 
# 
# 
# High freq. dielectric constant tensor:
#      x y z
#    x 1.792680 0.000000 0.000000 
#    y 0.000000 1.792680 0.000000 
#    z 0.000000 0.000000 1.844880 
# 
# From -- ./inp_files/3156.got.cif
#   From: 2010.03.12/outbox.cif.g09.slc.cpg/sg180_2_cif.got.tgz:3156.got - 2010.04.01 11:35:50.
