data_PCOD8326364
_publ_section_title
;
Structure prediction by ZEFSAII (Michael W. Deem and Ramdas Pophale) SiO2 
 PCOD8326364
Probable space group: P 64 2 2
;
_chemical_formula_sum "Si O2"
_cell_formula_units_Z 42
_cell_length_a 14.133186
_cell_length_b 14.133186
_cell_length_c 10.976572
_cell_angle_alpha 90.000000
_cell_angle_beta 90.000000
_cell_angle_gamma 120.000000
_cell_volume 1898.792516
_symmetry_space_group_name_H-M "P 64 2 2"
_symmetry_group_IT_number 181
_symmetry_cell_setting 'hexagonal'
loop_
_space_group_symop_operation_xyz
x,y,z
x-y,x,2/3+z
-y,x-y,1/3+z
-x,-y,z
-x+y,-x,2/3+z
y,-x+y,1/3+z
x-y,-y,-z
-x,-x+y,2/3-z
y,x,1/3-z
-y,-x,1/3-z
-x+y,y,-z
x,x-y,2/3-z
loop_
_atom_site_type_symbol
_atom_site_label
_atom_site_fract_x
_atom_site_fract_y
_atom_site_fract_z
Si Si1 0.749360 0.228712 0.984006
Si Si2 0.578708 0.448274 0.479283
Si Si3 0.899222 0.753317 0.258449
Si Si4 0.090892 0.909109 0.666667
O O1 0.677028 0.196084 0.860476
O O2 0.850113 0.207752 0.964678
O O3 0.807177 0.357058 0.021465
O O4 0.670305 0.147937 0.088927
O O5 0.500000 0.500000 0.458708
O O6 0.892922 0.860236 0.290537
O O7 0.000000 0.759641 0.333334
O O8 0.910826 0.745899 0.112771
#
# Coordination Sequence:
#
# PCOD8326364 Si02
#       4
#    12  12  12   6
#     4  10  22  38  70  93 129 176 228 292 340 395
#     4  10  21  40  66 105 126 168 243 281 340 421
#     4  11  22  40  66  95 136 185 219 280 351 414
#     4  10  25  38  58 102 142 168 230 268 341 434
#
# _framework density 22.119320999999999
#
# number of rings (size 3 to 8) (size 9 to 14) (size 15 to 20)
#    0.000    1.714    0.000    4.714   12.000    2.286 
#    0.000    8.571    0.000    0.000    0.000    0.000 
#    0.000    0.000    0.000    0.000    0.000    0.000 
#
# Total GULP energy -520381.318784 kJ/mol
# GULP energy per Si atom -12390.031400 kJ/mol
# Density = 2.206898 g / cm^3
# Si number density = 22.119321 Si / 1000 Ang^3
#
#
#
# Elastic Constant Matrix: (Units=GPa)
#
#
# Indices 1 2 3 4 5 6 
#
# 1 125.9917 55.1699 50.2766 0.0000 0.0000 0.0000
# 2 55.1699 125.9917 50.2766 0.0000 0.0000 0.0000
# 3 50.2766 50.2766 104.0180 0.0000 0.0000 0.0000
# 4 0.0000 0.0000 0.0000 15.5077 0.0000 0.0000
# 5 0.0000 0.0000 0.0000 0.0000 15.5077 0.0000
# 6 0.0000 0.0000 0.0000 0.0000 0.0000 35.4109
#
#
#
# Elastic Compliance Matrix: (Units=1/GPa)
#
#
# Indices 1 2 3 4 5 6 
#
# 1 0.010832 -0.003288 -0.003646 0.000000 0.000000 0.000000
# 2 -0.003288 0.010832 -0.003646 0.000000 0.000000 0.000000
# 3 -0.003646 -0.003646 0.013138 0.000000 0.000000 0.000000
# 4 0.000000 0.000000 0.000000 0.064484 0.000000 0.000000
# 5 0.000000 0.000000 0.000000 0.000000 0.064484 0.000000
# 6 0.000000 0.000000 0.000000 0.000000 0.000000 0.028240
#
#
# Mechanical properties :
#
#
# Convention : Reuss Voigt Hill
#
# Bulk Modulus (GPa) = 73.30801 74.16083 73.73442
# Shear Modulus (GPa) = 22.96541 26.63714 24.80127
#
# Velocity S-wave (km/s) = 3.22569 3.47399 3.35214
# Velocity P-wave (km/s) = 6.86203 7.04925 6.95627
#
# Compressibility (1/GPa) = 0.01364107
#
# Stress axis : x y z
#
# Youngs Moduli (GPa) = 92.32027 92.32027 76.11219
#
# Poissons Ratio (x) = 0.30356 0.27752
# Poissons Ratio (y) = 0.30356 0.27752
# Poissons Ratio (z) = 0.33662 0.33662
#
# Static dielectric constant tensor:
#      x y z
#    x 3.861850 0.000000 0.000000 
#    y 0.000000 3.861850 0.000000 
#    z 0.000000 0.000000 4.582930 
# 
# 
# High freq. dielectric constant tensor:
#      x y z
#    x 1.860950 0.000000 0.000000 
#    y 0.000000 1.860950 0.000000 
#    z 0.000000 0.000000 1.860180 
# 
# From -- ./inp_files/4161.got.cif
#   From: 2010.03.12/outbox.cif.g09.slc.cpg/sg181_3_cif.got.tgz:4161.got - 2010.04.01 11:42:41.
