data_PCOD8326575
_publ_section_title
;
Structure prediction by ZEFSAII (Michael W. Deem and Ramdas Pophale) SiO2 
 PCOD8326575
Probable space group: P 6 C C
;
_chemical_formula_sum "Si O2"
_cell_formula_units_Z 72
_cell_length_a 22.016043
_cell_length_b 22.016043
_cell_length_c 9.231410
_cell_angle_alpha 90.000000
_cell_angle_beta 90.000000
_cell_angle_gamma 120.000000
_cell_volume 3875.049024
_symmetry_space_group_name_H-M "P 6 C C"
_symmetry_group_IT_number 184
_symmetry_cell_setting 'hexagonal'
loop_
_space_group_symop_operation_xyz
x,y,z
x-y,x,z
-y,x-y,z
-x,-y,z
-x+y,-x,z
y,-x+y,z
-x+y,y,1/2+z
x,x-y,1/2+z
-y,-x,1/2+z
y,x,1/2+z
x-y,-y,1/2+z
-x,-x+y,1/2+z
loop_
_atom_site_type_symbol
_atom_site_label
_atom_site_fract_x
_atom_site_fract_y
_atom_site_fract_z
Si Si1 0.245295 0.871862 0.408410
Si Si2 0.229279 0.230622 0.020946
Si Si3 0.594297 0.522464 0.916912
Si Si4 0.853442 0.861578 0.771529
Si Si5 0.750532 0.127337 0.074017
Si Si6 0.592470 0.518326 0.578554
O O1 0.230034 0.929462 0.475654
O O2 0.322828 0.885784 0.436421
O O3 0.226273 0.865403 0.240108
O O4 0.196860 0.799187 0.486402
O O5 0.200025 0.211257 0.183184
O O6 0.307940 0.245288 0.004756
O O7 0.172697 0.161503 0.934872
O O8 0.572744 0.511759 0.748139
O O9 0.558285 0.447068 0.000329
O O10 0.566456 0.568272 0.996109
O O11 0.926337 0.864120 0.739610
O O12 0.675078 0.120574 0.058026
#
# Coordination Sequence:
#
# PCOD8326575 Si02
#       6
#    12  12  12  12  12  12
#     4  11  24  39  60  88 119 156 199 242 294 356
#     4  12  24  40  56  84 116 150 194 250 314 360
#     4  10  20  36  57  87 119 152 187 230 281 339
#     4  12  25  42  60  78 107 150 202 258 310 368
#     4  11  24  39  60  88 119 156 199 242 294 356
#     4  10  20  36  57  87 119 152 187 230 281 339
#
# _framework density 18.580411000000002
#
# number of rings (size 3 to 8) (size 9 to 14) (size 15 to 20)
#    0.000    1.000    3.333    5.167    2.333    2.667 
#    0.000    1.667    0.000    0.667    0.000    0.000 
#    0.000    0.000    0.000    0.000    0.000    0.000 
#
# Total GULP energy -892832.252966 kJ/mol
# GULP energy per Si atom -12400.447958 kJ/mol
# Density = 1.853812 g / cm^3
# Si number density = 18.580411 Si / 1000 Ang^3
#
#
#
# Elastic Constant Matrix: (Units=GPa)
#
#
# Indices 1 2 3 4 5 6 
#
# 1 101.0715 47.8942 47.9157 0.0000 0.0000 0.0000
# 2 47.8942 101.0715 47.9157 0.0000 0.0000 0.0000
# 3 47.9157 47.9157 90.5556 0.0000 0.0000 0.0000
# 4 0.0000 0.0000 0.0000 33.8332 0.0000 0.0000
# 5 0.0000 0.0000 0.0000 0.0000 33.8332 0.0000
# 6 0.0000 0.0000 0.0000 0.0000 0.0000 26.5886
#
#
#
# Elastic Compliance Matrix: (Units=1/GPa)
#
#
# Indices 1 2 3 4 5 6 
#
# 1 0.014491 -0.004314 -0.005385 0.000000 0.000000 0.000000
# 2 -0.004314 0.014491 -0.005385 0.000000 0.000000 0.000000
# 3 -0.005385 -0.005385 0.016742 0.000000 0.000000 0.000000
# 4 0.000000 0.000000 0.000000 0.029557 0.000000 0.000000
# 5 0.000000 0.000000 0.000000 0.000000 0.029557 0.000000
# 6 0.000000 0.000000 0.000000 0.000000 0.000000 0.037610
#
#
# Mechanical properties :
#
#
# Convention : Reuss Voigt Hill
#
# Bulk Modulus (GPa) = 64.28429 64.46110 64.37269
# Shear Modulus (GPa) = 28.12132 28.78254 28.45193
#
# Velocity S-wave (km/s) = 3.89458 3.94011 3.91741
# Velocity P-wave (km/s) = 7.40923 7.44766 7.42847
#
# Compressibility (1/GPa) = 0.01555590
#
# Stress axis : x y z
#
# Youngs Moduli (GPa) = 69.00771 69.00771 59.73082
#
# Poissons Ratio (x) = 0.29769 0.32166
# Poissons Ratio (y) = 0.29769 0.32166
# Poissons Ratio (z) = 0.37161 0.37161
#
# Static dielectric constant tensor:
#      x y z
#    x 3.429930 0.000000 0.000000 
#    y 0.000000 3.429930 0.000000 
#    z 0.000000 0.000000 3.655460 
# 
# 
# High freq. dielectric constant tensor:
#      x y z
#    x 1.714200 0.000000 0.000000 
#    y 0.000000 1.714200 0.000000 
#    z 0.000000 0.000000 1.741850 
# 
# From -- ./inp_files/365.got.cif
#   From: 2010.03.12/outbox.cif.g09.slc.cpg/sg184_cif.got.tgz:365.got - 2010.04.01 11:54:36.
