data_PCOD8326742
_publ_section_title
;
Structure prediction by ZEFSAII (Michael W. Deem and Ramdas Pophale) SiO2 
 PCOD8326742
Probable space group: P 63 M C
;
_chemical_formula_sum "Si O2"
_cell_formula_units_Z 96
_cell_length_a 22.276400
_cell_length_b 22.276400
_cell_length_c 12.547180
_cell_angle_alpha 90.000000
_cell_angle_beta 90.000000
_cell_angle_gamma 120.000000
_cell_volume 5392.209723
_symmetry_space_group_name_H-M "P 63 M C"
_symmetry_group_IT_number 186
_symmetry_cell_setting 'hexagonal'
loop_
_space_group_symop_operation_xyz
x,y,z
x-y,x,1/2+z
-y,x-y,z
-x,-y,1/2+z
-x+y,-x,z
y,-x+y,1/2+z
-x+y,y,z
x,x-y,z
-y,-x,z
y,x,1/2+z
x-y,-y,1/2+z
-x,-x+y,1/2+z
loop_
_atom_site_type_symbol
_atom_site_label
_atom_site_fract_x
_atom_site_fract_y
_atom_site_fract_z
Si Si1 0.660339 0.046005 0.069700
Si Si2 0.861027 0.859796 0.949532
Si Si3 0.475228 0.088921 0.633793
Si Si4 0.196511 0.263358 0.584666
Si Si5 0.333903 0.919123 0.808818
Si Si6 0.666404 0.193575 0.450962
Si Si7 0.275574 0.071416 0.332992
Si Si8 0.059501 0.598543 0.366492
O O1 0.726840 0.039010 0.038455
O O2 0.672637 0.088557 0.179916
O O3 0.595136 0.969460 0.080739
O O4 0.648618 0.085120 0.969732
O O5 0.871709 0.935855 0.961320
O O6 0.799341 0.809383 0.869764
O O7 0.933469 0.866937 0.910875
O O8 0.834117 0.818324 0.060695
O O9 0.531957 0.063913 0.627950
O O10 0.499576 0.158503 0.566687
O O11 0.463519 0.101218 0.758287
O O12 0.142948 0.285896 0.535477
O O13 0.197612 0.271259 0.708545
O O14 0.319187 0.846513 0.856732
O O15 0.279835 0.939971 0.860351
O O16 0.410083 0.978146 0.843092
O O17 0.597881 0.195762 0.420673
O O18 0.729253 0.270747 0.458892
O O19 0.289469 0.144735 0.382523
O O20 0.071778 0.535889 0.395355
#
# Coordination Sequence:
#
# PCOD8326742 Si02
#       8
#    12  12  12  12  12  12  12  12
#     4  10  18  31  54  78 106 141 173 213 272 326
#     4  10  20  33  50  71  97 130 171 216 262 312
#     4   9  19  33  50  77 109 140 178 222 264 314
#     4   9  19  34  49  69  98 130 165 206 256 314
#     4  10  19  31  52  80 108 137 177 221 275 325
#     4  11  22  37  55  78 110 147 187 228 271 321
#     4   9  18  33  51  70  95 129 168 211 259 311
#     4  10  18  30  50  77 108 138 171 215 265 319
#
# _framework density 17.803463000000001
#
# number of rings (size 3 to 8) (size 9 to 14) (size 15 to 20)
#    0.000    2.250    1.250    2.125    0.000    2.500 
#    0.000    0.625    0.000    6.000    0.000    0.000 
#    0.000    2.000    0.000    0.000    0.000    0.250 
#
# Total GULP energy -1189815.868790 kJ/mol
# GULP energy per Si atom -12393.915300 kJ/mol
# Density = 1.776294 g / cm^3
# Si number density = 17.803463 Si / 1000 Ang^3
#
#
#
# Elastic Constant Matrix: (Units=GPa)
#
#
# Indices 1 2 3 4 5 6 
#
# 1 103.0591 50.2078 37.7365 0.0000 0.0000 0.0000
# 2 50.2078 103.0591 37.7365 0.0000 0.0000 0.0000
# 3 37.7365 37.7365 79.5467 0.0000 0.0000 0.0000
# 4 0.0000 0.0000 0.0000 21.5145 0.0000 0.0000
# 5 0.0000 0.0000 0.0000 0.0000 21.5145 0.0000
# 6 0.0000 0.0000 0.0000 0.0000 0.0000 26.4256
#
#
#
# Elastic Compliance Matrix: (Units=1/GPa)
#
#
# Indices 1 2 3 4 5 6 
#
# 1 0.013717 -0.005204 -0.004039 0.000000 0.000000 0.000000
# 2 -0.005204 0.013717 -0.004039 0.000000 0.000000 0.000000
# 3 -0.004039 -0.004039 0.016403 0.000000 0.000000 0.000000
# 4 0.000000 0.000000 0.000000 0.046480 0.000000 0.000000
# 5 0.000000 0.000000 0.000000 0.000000 0.046480 0.000000
# 6 0.000000 0.000000 0.000000 0.000000 0.000000 0.037842
#
#
# Mechanical properties :
#
#
# Convention : Reuss Voigt Hill
#
# Bulk Modulus (GPa) = 57.88700 59.66962 58.77831
# Shear Modulus (GPa) = 24.15914 24.55651 24.35782
#
# Velocity S-wave (km/s) = 3.68773 3.71794 3.70287
# Velocity P-wave (km/s) = 7.12163 7.21244 7.16717
#
# Compressibility (1/GPa) = 0.01727503
#
# Stress axis : x y z
#
# Youngs Moduli (GPa) = 72.90130 72.90130 60.96413
#
# Poissons Ratio (x) = 0.37937 0.24621
# Poissons Ratio (y) = 0.37937 0.24621
# Poissons Ratio (z) = 0.29442 0.29442
#
# Static dielectric constant tensor:
#      x y z
#    x 3.421900 0.000000 0.000000 
#    y 0.000000 3.421900 0.000000 
#    z 0.000000 0.000000 3.457610 
# 
# 
# High freq. dielectric constant tensor:
#      x y z
#    x 1.679250 0.000000 0.000000 
#    y 0.000000 1.679250 0.000000 
#    z 0.000000 0.000000 1.691330 
# 
# From -- ./inp_files/2074.got.cif
#   From: 2010.03.12/outbox.cif.g09.slc.cpg/sg186_2_cif.got.tgz:2074.got - 2010.04.01 11:56:34.
