data_PCOD8326035
_publ_section_title
;
Structure prediction by ZEFSAII (Michael W. Deem and Ramdas Pophale) SiO2 
 PCOD8326035
Probable space group: P 65 2 2
;
_chemical_formula_sum "Si O2"
_cell_formula_units_Z 72
_cell_length_a 11.672610
_cell_length_b 11.672610
_cell_length_c 31.202999
_cell_angle_alpha 90.000000
_cell_angle_beta 90.000000
_cell_angle_gamma 120.000000
_cell_volume 3681.823111
_symmetry_space_group_name_H-M "P 65 2 2"
_symmetry_group_IT_number 179
_symmetry_cell_setting 'hexagonal'
loop_
_space_group_symop_operation_xyz
x,y,z
x-y,x,5/6+z
-y,x-y,2/3+z
-x,-y,1/2+z
-x+y,-x,1/3+z
y,-x+y,1/6+z
x-y,-y,-z
-x,-x+y,1/3-z
y,x,2/3-z
-y,-x,1/6-z
-x+y,y,1/2-z
x,x-y,5/6-z
loop_
_atom_site_type_symbol
_atom_site_label
_atom_site_fract_x
_atom_site_fract_y
_atom_site_fract_z
Si Si1 0.488183 0.488183 0.833334
Si Si2 0.366291 0.683146 0.916667
Si Si3 0.209722 0.685097 0.802417
Si Si4 0.744297 0.479610 0.835676
Si Si5 0.071884 0.414078 0.754838
Si Si6 0.078541 0.406333 0.408639
Si Si7 0.800338 0.591981 0.438317
O O1 0.635510 0.518978 0.827291
O O2 0.420060 0.398210 0.874347
O O3 0.453562 0.780474 0.878365
O O4 0.274840 0.528600 0.903922
O O5 0.348205 0.685017 0.801276
O O6 0.101344 0.542903 0.783198
O O7 0.223924 0.805363 0.772957
O O8 0.178617 0.711098 0.850472
O O9 0.873940 0.590834 0.859483
O O10 0.196473 0.392945 0.750000
O O11 0.950748 0.283036 0.777389
O O12 0.042458 0.521229 0.416667
O O13 0.947306 0.262402 0.414405
#
# Coordination Sequence:
#
# PCOD8326035 Si02
#       7
#     6   6  12  12  12  12  12
#     4  12  20  36  64  90 120 170 218 266 324 390
#     4  10  20  34  52  94 120 146 208 254 310 384
#     4  10  22  38  60  92 129 157 209 267 335 382
#     4  10  20  35  58  87 121 160 199 262 324 375
#     4  12  24  42  61  98 134 175 220 275 333 402
#     4  10  20  38  58  87 126 162 198 267 330 375
#     4  11  24  34  64  93 126 165 210 263 331 394
#
# _framework density 19.555530000000001
#
# number of rings (size 3 to 8) (size 9 to 14) (size 15 to 20)
#    0.000    1.333    5.833    0.500    7.000    1.333 
#    0.000    0.000    0.000    3.000    2.167    0.000 
#    0.000    0.000    0.000    0.000    0.000    0.000 
#
# Total GULP energy -892293.467642 kJ/mol
# GULP energy per Si atom -12392.964828 kJ/mol
# Density = 1.951102 g / cm^3
# Si number density = 19.555530 Si / 1000 Ang^3
#
#
#
# Elastic Constant Matrix: (Units=GPa)
#
#
# Indices 1 2 3 4 5 6 
#
# 1 108.4233 46.5202 23.0082 0.0000 0.0000 0.0000
# 2 46.5202 108.4233 23.0082 0.0000 0.0000 0.0000
# 3 23.0082 23.0082 83.5941 0.0000 0.0000 0.0000
# 4 0.0000 0.0000 0.0000 19.9792 0.0000 0.0000
# 5 0.0000 0.0000 0.0000 0.0000 19.9792 0.0000
# 6 0.0000 0.0000 0.0000 0.0000 0.0000 30.9515
#
#
#
# Elastic Compliance Matrix: (Units=1/GPa)
#
#
# Indices 1 2 3 4 5 6 
#
# 1 0.011591 -0.004563 -0.001934 0.000000 0.000000 0.000000
# 2 -0.004563 0.011591 -0.001934 0.000000 0.000000 0.000000
# 3 -0.001934 -0.001934 0.013027 0.000000 0.000000 0.000000
# 4 0.000000 0.000000 0.000000 0.050052 0.000000 0.000000
# 5 0.000000 0.000000 0.000000 0.000000 0.050052 0.000000
# 6 0.000000 0.000000 0.000000 0.000000 0.000000 0.032309
#
#
# Mechanical properties :
#
#
# Convention : Reuss Voigt Hill
#
# Bulk Modulus (GPa) = 51.68909 53.94597 52.81753
# Shear Modulus (GPa) = 26.05039 28.04224 27.04632
#
# Velocity S-wave (km/s) = 3.65379 3.79090 3.72298
# Velocity P-wave (km/s) = 6.65504 6.84158 6.74895
#
# Compressibility (1/GPa) = 0.01934644
#
# Stress axis : x y z
#
# Youngs Moduli (GPa) = 86.27093 86.27093 76.76092
#
# Poissons Ratio (x) = 0.39365 0.14849
# Poissons Ratio (y) = 0.39365 0.14849
# Poissons Ratio (z) = 0.16689 0.16689
#
# Static dielectric constant tensor:
#      x y z
#    x 3.474950 0.000000 0.000000 
#    y 0.000000 3.474950 0.000000 
#    z 0.000000 0.000000 3.824500 
# 
# 
# High freq. dielectric constant tensor:
#      x y z
#    x 1.738700 0.000000 0.000000 
#    y 0.000000 1.738700 0.000000 
#    z 0.000000 0.000000 1.772000 
# 
# From -- ./inp_files/9574.got.cif
#   From: 2010.03.12/outbox.cif.g09.slc.cpg/sg179_5_cif.got.tgz:9574.got - 2010.04.02 07:08:42.
