data_PCOD8326713
_publ_section_title
;
Structure prediction by ZEFSAII (Michael W. Deem and Ramdas Pophale) SiO2 
 PCOD8326713
Probable space group: P 63 M C
;
_chemical_formula_sum "Si O2"
_cell_formula_units_Z 96
_cell_length_a 17.393397
_cell_length_b 17.393397
_cell_length_c 22.248597
_cell_angle_alpha 90.000000
_cell_angle_beta 90.000000
_cell_angle_gamma 120.000000
_cell_volume 5829.107715
_symmetry_space_group_name_H-M "P 63 M C"
_symmetry_group_IT_number 186
_symmetry_cell_setting 'hexagonal'
loop_
_space_group_symop_operation_xyz
x,y,z
x-y,x,1/2+z
-y,x-y,z
-x,-y,1/2+z
-x+y,-x,z
y,-x+y,1/2+z
-x+y,y,z
x,x-y,z
-y,-x,z
y,x,1/2+z
x-y,-y,1/2+z
-x,-x+y,1/2+z
loop_
_atom_site_type_symbol
_atom_site_label
_atom_site_fract_x
_atom_site_fract_y
_atom_site_fract_z
Si Si1 0.274375 0.897799 0.667670
Si Si2 0.262245 0.903629 0.439921
Si Si3 0.906703 0.369830 0.534143
Si Si4 0.999479 0.177000 0.505371
Si Si5 0.332067 0.488214 0.783697
Si Si6 0.471829 0.359191 0.049778
Si Si7 0.240142 0.313583 0.111881
Si Si8 0.437354 0.383431 0.401315
O O1 0.167678 0.832323 0.671014
O O2 0.318865 0.896810 0.730083
O O3 0.310672 0.861829 0.614111
O O4 0.302509 0.000750 0.660389
O O5 0.182868 0.817132 0.406612
O O6 0.225111 0.969095 0.457599
O O7 0.287819 0.863099 0.497095
O O8 0.346162 0.959394 0.396952
O O9 0.858977 0.429489 0.546271
O O10 0.876136 0.286037 0.577955
O O11 0.895054 0.339816 0.464069
O O12 0.008840 0.432864 0.547613
O O13 0.077135 0.154269 0.518112
O O14 0.979110 0.212494 0.565981
O O15 0.911592 0.088409 0.481880
O O16 0.259181 0.518362 0.782500
O O17 0.426916 0.573084 0.775412
O O18 0.324871 0.440061 0.846916
O O19 0.579510 0.420491 0.042355
O O20 0.152457 0.304914 0.143643
O O21 0.515480 0.484521 0.397319
#
# Coordination Sequence:
#
# PCOD8326713 Si02
#       8
#    12  12  12  12  12  12  12  12
#     4  10  18  31  47  66  94 126 157 191 233 276
#     4  10  17  28  47  69  93 124 158 194 232 275
#     4   8  14  26  44  66  92 118 147 187 231 276
#     4  10  18  27  40  63  94 125 154 188 229 271
#     4  10  21  34  51  71  94 121 151 189 233 285
#     4   9  15  25  44  67  92 120 150 185 230 280
#     4  10  18  28  46  71  94 122 159 193 227 274
#     4   9  17  31  47  67  93 124 158 191 235 283
#
# _framework density 16.469073999999999
#
# number of rings (size 3 to 8) (size 9 to 14) (size 15 to 20)
#    0.000    2.500    3.750    2.500    0.000    1.500 
#    0.000    0.625    0.000    5.750    0.000    0.000 
#    0.000    2.000    0.000    0.000    0.000    0.000 
#
# Total GULP energy -1189434.408699 kJ/mol
# GULP energy per Si atom -12389.941757 kJ/mol
# Density = 1.643159 g / cm^3
# Si number density = 16.469074 Si / 1000 Ang^3
#
#
#
# Elastic Constant Matrix: (Units=GPa)
#
#
# Indices 1 2 3 4 5 6 
#
# 1 78.0697 42.6219 30.0724 0.0000 0.0000 0.0000
# 2 42.6219 78.0697 30.0724 0.0000 0.0000 0.0000
# 3 30.0724 30.0724 72.8779 0.0000 0.0000 0.0000
# 4 0.0000 0.0000 0.0000 14.5764 0.0000 0.0000
# 5 0.0000 0.0000 0.0000 0.0000 14.5764 0.0000
# 6 0.0000 0.0000 0.0000 0.0000 0.0000 17.7239
#
#
#
# Elastic Compliance Matrix: (Units=1/GPa)
#
#
# Indices 1 2 3 4 5 6 
#
# 1 0.019320 -0.008890 -0.004304 0.000000 0.000000 0.000000
# 2 -0.008890 0.019320 -0.004304 0.000000 0.000000 0.000000
# 3 -0.004304 -0.004304 0.017274 0.000000 0.000000 0.000000
# 4 0.000000 0.000000 0.000000 0.068604 0.000000 0.000000
# 5 0.000000 0.000000 0.000000 0.000000 0.068604 0.000000
# 6 0.000000 0.000000 0.000000 0.000000 0.000000 0.056421
#
#
# Mechanical properties :
#
#
# Convention : Reuss Voigt Hill
#
# Bulk Modulus (GPa) = 47.80482 48.28338 48.04410
# Shear Modulus (GPa) = 17.15190 17.79203 17.47197
#
# Velocity S-wave (km/s) = 3.23067 3.29040 3.26067
# Velocity P-wave (km/s) = 6.55792 6.61944 6.58875
#
# Compressibility (1/GPa) = 0.02091839
#
# Stress axis : x y z
#
# Youngs Moduli (GPa) = 51.75861 51.75861 57.89179
#
# Poissons Ratio (x) = 0.46014 0.24917
# Poissons Ratio (y) = 0.46014 0.24917
# Poissons Ratio (z) = 0.22277 0.22277
#
# Static dielectric constant tensor:
#      x y z
#    x 3.462290 0.000000 0.000000 
#    y 0.000000 3.462290 0.000000 
#    z 0.000000 0.000000 2.912660 
# 
# 
# High freq. dielectric constant tensor:
#      x y z
#    x 1.632880 0.000000 0.000000 
#    y 0.000000 1.632880 0.000000 
#    z 0.000000 0.000000 1.594370 
# 
# From -- ./inp_files/3590.got.cif
#   From: 2010.03.12/outbox.cif.g09.slc.cpg/sg186_2_cif.got.tgz:3590.got - 2010.04.01 11:56:34.
