data_PCOD8326335
_publ_section_title
;
Structure prediction by ZEFSAII (Michael W. Deem and Ramdas Pophale) SiO2 
 PCOD8326335
Probable space group: P 64 2 2
;
_chemical_formula_sum "Si O2"
_cell_formula_units_Z 84
_cell_length_a 14.010237
_cell_length_b 14.010237
_cell_length_c 26.678686
_cell_angle_alpha 90.000000
_cell_angle_beta 90.000000
_cell_angle_gamma 120.000000
_cell_volume 4535.091264
_symmetry_space_group_name_H-M "P 64 2 2"
_symmetry_group_IT_number 181
_symmetry_cell_setting 'hexagonal'
loop_
_space_group_symop_operation_xyz
x,y,z
x-y,x,2/3+z
-y,x-y,1/3+z
-x,-y,z
-x+y,-x,2/3+z
y,-x+y,1/3+z
x-y,-y,-z
-x,-x+y,2/3-z
y,x,1/3-z
-y,-x,1/3-z
-x+y,y,-z
x,x-y,2/3-z
loop_
_atom_site_type_symbol
_atom_site_label
_atom_site_fract_x
_atom_site_fract_y
_atom_site_fract_z
Si Si1 0.919809 0.801809 0.686327
Si Si2 0.043070 0.915066 0.782088
Si Si3 0.417253 0.117003 0.021160
Si Si4 0.540900 0.413712 0.548944
Si Si5 0.262644 0.272181 0.409348
Si Si6 0.507518 0.769608 0.741071
Si Si7 0.887030 0.388256 0.560779
O O1 0.900832 0.900832 0.666667
O O2 0.802593 0.700319 0.701343
O O3 0.983220 0.770543 0.645443
O O4 0.997490 0.835110 0.734528
O O5 0.000000 0.844586 0.833334
O O6 0.175790 0.980950 0.782702
O O7 0.000000 0.000000 0.779380
O O8 0.488606 0.158326 0.071459
O O9 0.483738 0.212390 0.980721
O O10 0.398622 0.000000 0.000000
O O11 0.500000 0.500000 0.552757
O O12 0.673470 0.478027 0.552188
O O13 0.506258 0.348313 0.495947
O O14 0.249820 0.376300 0.424779
O O15 0.390132 0.300873 0.410489
O O16 0.411563 0.802367 0.740805
O O17 0.000000 0.500000 0.554408
#
# Coordination Sequence:
#
# PCOD8326335 Si02
#       7
#    12  12  12  12  12  12  12
#     4  10  20  37  58  79 114 158 195 243 297 347
#     4  11  23  36  54  86 118 154 195 248 296 349
#     4  10  20  33  55  84 114 152 190 237 294 349
#     4  11  20  32  55  83 120 150 184 240 293 351
#     4  10  21  39  60  81 118 158 195 236 289 368
#     4  10  20  37  56  85 120 152 192 233 291 357
#     4   9  21  38  54  81 114 158 193 231 286 344
#
# _framework density 18.52223
#
# number of rings (size 3 to 8) (size 9 to 14) (size 15 to 20)
#    0.000    1.857    2.857    1.286    2.000    0.000 
#   12.857    2.857    0.000    0.000    0.000    0.000 
#    0.000    0.000    0.000    0.000    0.000    0.000 
#
# Total GULP energy -1041465.741927 kJ/mol
# GULP energy per Si atom -12398.401690 kJ/mol
# Density = 1.848007 g / cm^3
# Si number density = 18.522230 Si / 1000 Ang^3
#
#
#
# Elastic Constant Matrix: (Units=GPa)
#
#
# Indices 1 2 3 4 5 6 
#
# 1 105.8476 49.7946 53.0296 0.0000 0.0000 0.0000
# 2 49.7946 105.8476 53.0296 0.0000 0.0000 0.0000
# 3 53.0296 53.0296 122.0081 0.0000 0.0000 0.0000
# 4 0.0000 0.0000 0.0000 79.1745 0.0000 0.0000
# 5 0.0000 0.0000 0.0000 0.0000 79.1745 0.0000
# 6 0.0000 0.0000 0.0000 0.0000 0.0000 28.0265
#
#
#
# Elastic Compliance Matrix: (Units=1/GPa)
#
#
# Indices 1 2 3 4 5 6 
#
# 1 0.013484 -0.004356 -0.003968 0.000000 0.000000 0.000000
# 2 -0.004356 0.013484 -0.003968 0.000000 0.000000 0.000000
# 3 -0.003968 -0.003968 0.011645 0.000000 0.000000 0.000000
# 4 0.000000 0.000000 0.000000 0.012630 0.000000 0.000000
# 5 0.000000 0.000000 0.000000 0.000000 0.012630 0.000000
# 6 0.000000 0.000000 0.000000 0.000000 0.000000 0.035681
#
#
# Mechanical properties :
#
#
# Convention : Reuss Voigt Hill
#
# Bulk Modulus (GPa) = 71.26654 71.71230 71.48942
# Shear Modulus (GPa) = 38.81537 49.13174 43.97355
#
# Velocity S-wave (km/s) = 4.58275 5.15591 4.87776
# Velocity P-wave (km/s) = 8.15855 8.61658 8.39069
#
# Compressibility (1/GPa) = 0.01403183
#
# Stress axis : x y z
#
# Youngs Moduli (GPa) = 74.15933 74.15933 85.87219
#
# Poissons Ratio (x) = 0.32302 0.34071
# Poissons Ratio (y) = 0.32302 0.34071
# Poissons Ratio (z) = 0.29424 0.29424
#
# Static dielectric constant tensor:
#      x y z
#    x 3.495560 0.000000 0.000000 
#    y 0.000000 3.495560 0.000000 
#    z 0.000000 0.000000 3.663960 
# 
# 
# High freq. dielectric constant tensor:
#      x y z
#    x 1.706270 0.000000 0.000000 
#    y 0.000000 1.706270 0.000000 
#    z 0.000000 0.000000 1.718920 
# 
# From -- ./inp_files/10223.got.cif
#   From: 2010.03.12/outbox.cif.g09.slc.cpg/sg181_6_cif.got.tgz:10223.got - 2010.04.01 11:42:41.
