data_PCOD8326497
_publ_section_title
;
Structure prediction by ZEFSAII (Michael W. Deem and Ramdas Pophale) SiO2 
 PCOD8326497
Probable space group: P 63 2 2
;
_chemical_formula_sum "Si O2"
_cell_formula_units_Z 68
_cell_length_a 11.007043
_cell_length_b 11.007043
_cell_length_c 32.316176
_cell_angle_alpha 90.000000
_cell_angle_beta 90.000000
_cell_angle_gamma 120.000000
_cell_volume 3390.719958
_symmetry_space_group_name_H-M "P 63 2 2"
_symmetry_group_IT_number 182
_symmetry_cell_setting 'hexagonal'
loop_
_space_group_symop_operation_xyz
x,y,z
x-y,x,1/2+z
-y,x-y,z
-x,-y,1/2+z
-x+y,-x,z
y,-x+y,1/2+z
x-y,-y,-z
-x,-x+y,-z
y,x,-z
-y,-x,1/2-z
-x+y,y,1/2-z
x,x-y,1/2-z
loop_
_atom_site_type_symbol
_atom_site_label
_atom_site_fract_x
_atom_site_fract_y
_atom_site_fract_z
Si Si1 0.000000 0.000000 0.948027
Si Si2 0.000000 0.000000 0.798695
Si Si3 0.333308 0.942871 0.456394
Si Si4 0.378510 0.041614 0.750305
Si Si5 0.690964 0.838662 0.687147
Si Si6 0.844185 0.688188 0.408299
Si Si7 0.609481 0.943177 0.456408
O O1 0.076715 0.154767 0.927737
O O2 0.000000 0.000000 0.000000
O O3 0.114537 0.147359 0.815408
O O4 0.000000 0.000000 0.750000
O O5 0.445875 0.891946 0.459437
O O6 0.186700 0.812958 0.441851
O O7 0.313647 0.000000 0.500000
O O8 0.385215 0.069571 0.423857
O O9 0.540882 0.081764 0.750000
O O10 0.370560 0.185280 0.750000
O O11 0.309837 0.937352 0.710973
O O12 0.291590 0.951153 0.790236
O O13 0.649573 0.826995 0.639811
O O14 0.929434 0.613857 0.424130
O O15 0.686216 0.000000 0.500000
#
# Coordination Sequence:
#
# PCOD8326497 Si02
#       7
#     4   4  12  12  12  12  12
#     4  12  22  35  67 100 134 157 210 271 329 373
#     4  12  16  38  70  96 112 149 199 247 296 367
#     4  11  23  40  61  87 122 166 213 263 317 376
#     4  11  23  42  68  94 129 167 210 256 324 389
#     4  11  22  40  66  96 125 160 207 265 314 384
#     4  12  23  38  64  95 126 160 209 266 325 362
#     4  11  23  40  61  87 122 166 213 263 317 376
#
# _framework density 20.054738
#
# number of rings (size 3 to 8) (size 9 to 14) (size 15 to 20)
#    0.000    0.706    7.059    2.647    0.000    1.412 
#    5.294    0.000    0.000    4.235    0.000    0.000 
#    0.000    0.000    0.000    0.000    0.000    0.000 
#
# Total GULP energy -842548.947260 kJ/mol
# GULP energy per Si atom -12390.425695 kJ/mol
# Density = 2.000909 g / cm^3
# Si number density = 20.054738 Si / 1000 Ang^3
#
#
#
# Elastic Constant Matrix: (Units=GPa)
#
#
# Indices 1 2 3 4 5 6 
#
# 1 89.5792 32.3002 32.4731 0.0000 0.0000 0.0000
# 2 32.3002 89.5792 32.4731 0.0000 0.0000 0.0000
# 3 32.4731 32.4731 161.4818 0.0000 0.0000 0.0000
# 4 0.0000 0.0000 0.0000 15.5875 0.0000 0.0000
# 5 0.0000 0.0000 0.0000 0.0000 15.5875 0.0000
# 6 0.0000 0.0000 0.0000 0.0000 0.0000 28.6395
#
#
#
# Elastic Compliance Matrix: (Units=1/GPa)
#
#
# Indices 1 2 3 4 5 6 
#
# 1 0.013324 -0.004134 -0.001848 0.000000 0.000000 0.000000
# 2 -0.004134 0.013324 -0.001848 0.000000 0.000000 0.000000
# 3 -0.001848 -0.001848 0.006936 0.000000 0.000000 0.000000
# 4 0.000000 0.000000 0.000000 0.064154 0.000000 0.000000
# 5 0.000000 0.000000 0.000000 0.000000 0.064154 0.000000
# 6 0.000000 0.000000 0.000000 0.000000 0.000000 0.034917
#
#
# Mechanical properties :
#
#
# Convention : Reuss Voigt Hill
#
# Bulk Modulus (GPa) = 55.79381 59.45920 57.62651
# Shear Modulus (GPa) = 22.88916 28.18914 25.53915
#
# Velocity S-wave (km/s) = 3.38203 3.75321 3.57245
# Velocity P-wave (km/s) = 6.56749 6.96383 6.76857
#
# Compressibility (1/GPa) = 0.01792313
#
# Stress axis : x y z
#
# Youngs Moduli (GPa) = 75.05260 75.05260 144.17784
#
# Poissons Ratio (x) = 0.31030 0.26644
# Poissons Ratio (y) = 0.31030 0.26644
# Poissons Ratio (z) = 0.13869 0.13869
#
# Static dielectric constant tensor:
#      x y z
#    x 3.662860 0.000000 0.000000 
#    y 0.000000 3.662860 0.000000 
#    z 0.000000 0.000000 2.801420 
# 
# 
# High freq. dielectric constant tensor:
#      x y z
#    x 1.783140 0.000000 0.000000 
#    y 0.000000 1.783140 0.000000 
#    z 0.000000 0.000000 1.775690 
# 
# From -- ./inp_files/5766.got.cif
#   From: 2010.03.12/outbox.cif.g09.slc.cpg/sg182_3_cif.got.tgz:5766.got - 2010.04.01 11:49:36.
