data_PCOD8326009
_publ_section_title
;
Structure prediction by ZEFSAII (Michael W. Deem and Ramdas Pophale) SiO2 
 PCOD8326009
Probable space group: P 65 2 2
;
_chemical_formula_sum "Si O2"
_cell_formula_units_Z 66
_cell_length_a 20.055049
_cell_length_b 20.055049
_cell_length_c 10.432828
_cell_angle_alpha 90.000000
_cell_angle_beta 90.000000
_cell_angle_gamma 120.000000
_cell_volume 3633.959928
_symmetry_space_group_name_H-M "P 65 2 2"
_symmetry_group_IT_number 179
_symmetry_cell_setting 'hexagonal'
loop_
_space_group_symop_operation_xyz
x,y,z
x-y,x,5/6+z
-y,x-y,2/3+z
-x,-y,1/2+z
-x+y,-x,1/3+z
y,-x+y,1/6+z
x-y,-y,-z
-x,-x+y,1/3-z
y,x,2/3-z
-y,-x,1/6-z
-x+y,y,1/2-z
x,x-y,5/6-z
loop_
_atom_site_type_symbol
_atom_site_label
_atom_site_fract_x
_atom_site_fract_y
_atom_site_fract_z
Si Si1 0.982863 0.259077 0.814919
Si Si2 0.713911 0.438605 0.600870
Si Si3 0.823638 0.411819 0.416667
Si Si4 0.312412 0.423065 0.680698
Si Si5 0.131749 0.114089 0.031893
Si Si6 0.416607 0.167342 0.109440
O O1 0.893424 0.230268 0.843830
O O2 0.000000 0.251305 0.666667
O O3 0.030136 0.348611 0.858169
O O4 0.003558 0.202953 0.894976
O O5 0.627907 0.372094 0.583334
O O6 0.728052 0.456103 0.750000
O O7 0.770270 0.412722 0.532623
O O8 0.718732 0.514161 0.541915
O O9 0.881186 0.382828 0.461330
O O10 0.313054 0.433675 0.833797
O O11 0.232413 0.405730 0.622173
O O12 0.115468 0.061380 0.158365
O O13 0.157768 0.078884 0.916667
#
# Coordination Sequence:
#
# PCOD8326009 Si02
#       6
#    12  12   6  12  12  12
#     4  10  17  30  50  76 103 136 174 219 269 319
#     4  11  20  33  55  77 102 133 172 221 268 314
#     4  10  20  34  50  76 104 130 170 214 274 312
#     4   9  18  30  51  73 106 132 168 219 262 317
#     4  10  18  28  48  79 109 136 173 225 276 312
#     4   9  19  31  49  77 100 133 175 214 261 316
#
# _framework density 18.162006999999999
#
# number of rings (size 3 to 8) (size 9 to 14) (size 15 to 20)
#    0.000    2.182    2.727    2.182    5.091    0.000 
#    1.636    0.000    0.000    8.727    0.000    0.000 
#    0.000    0.000    0.000    0.000    0.000    0.000 
#
# Total GULP energy -818103.987943 kJ/mol
# GULP energy per Si atom -12395.514969 kJ/mol
# Density = 1.812067 g / cm^3
# Si number density = 18.162007 Si / 1000 Ang^3
#
#
#
# Elastic Constant Matrix: (Units=GPa)
#
#
# Indices 1 2 3 4 5 6 
#
# 1 121.4044 66.8758 35.3145 0.0000 0.0000 0.0000
# 2 66.8758 121.4044 35.3145 0.0000 0.0000 0.0000
# 3 35.3145 35.3145 68.6540 0.0000 0.0000 0.0000
# 4 0.0000 0.0000 0.0000 17.1772 0.0000 0.0000
# 5 0.0000 0.0000 0.0000 0.0000 17.1772 0.0000
# 6 0.0000 0.0000 0.0000 0.0000 0.0000 27.2643
#
#
#
# Elastic Compliance Matrix: (Units=1/GPa)
#
#
# Indices 1 2 3 4 5 6 
#
# 1 0.012460 -0.005879 -0.003385 0.000000 0.000000 0.000000
# 2 -0.005879 0.012460 -0.003385 0.000000 0.000000 0.000000
# 3 -0.003385 -0.003385 0.018048 0.000000 0.000000 0.000000
# 4 0.000000 0.000000 0.000000 0.058217 0.000000 0.000000
# 5 0.000000 0.000000 0.000000 0.000000 0.058217 0.000000
# 6 0.000000 0.000000 0.000000 0.000000 0.000000 0.036678
#
#
# Mechanical properties :
#
#
# Convention : Reuss Voigt Hill
#
# Bulk Modulus (GPa) = 56.59387 65.16359 60.87873
# Shear Modulus (GPa) = 22.00040 23.92095 22.96068
#
# Velocity S-wave (km/s) = 3.48421 3.63311 3.55944
# Velocity P-wave (km/s) = 6.88582 7.31821 7.10531
#
# Compressibility (1/GPa) = 0.01766976
#
# Stress axis : x y z
#
# Youngs Moduli (GPa) = 80.25649 80.25649 55.40663
#
# Poissons Ratio (x) = 0.47182 0.18756
# Poissons Ratio (y) = 0.47182 0.18756
# Poissons Ratio (z) = 0.27169 0.27169
#
# Static dielectric constant tensor:
#      x y z
#    x 3.411880 0.000000 0.000000 
#    y 0.000000 3.411880 0.000000 
#    z 0.000000 0.000000 2.377940 
# 
# 
# High freq. dielectric constant tensor:
#      x y z
#    x 1.706790 0.000000 0.000000 
#    y 0.000000 1.706790 0.000000 
#    z 0.000000 0.000000 1.662530 
# 
# From -- ./inp_files/3351.got.cif
#   From: 2010.03.12/outbox.cif.g09.slc.cpg/sg179_2_cif.got.tgz:3351.got - 2010.04.02 07:08:42.
