data_PCOD8326250
_publ_section_title
;
Structure prediction by ZEFSAII (Michael W. Deem and Ramdas Pophale) SiO2 
 PCOD8326250
Probable space group: P 62 2 2
;
_chemical_formula_sum "Si O2"
_cell_formula_units_Z 72
_cell_length_a 13.763151
_cell_length_b 13.763151
_cell_length_c 20.288136
_cell_angle_alpha 90.000000
_cell_angle_beta 90.000000
_cell_angle_gamma 120.000000
_cell_volume 3328.193197
_symmetry_space_group_name_H-M "P 62 2 2"
_symmetry_group_IT_number 180
_symmetry_cell_setting 'hexagonal'
loop_
_space_group_symop_operation_xyz
x,y,z
x-y,x,1/3+z
-y,x-y,2/3+z
-x,-y,z
-x+y,-x,1/3+z
y,-x+y,2/3+z
x-y,-y,-z
-x,-x+y,1/3-z
y,x,2/3-z
-y,-x,2/3-z
-x+y,y,-z
x,x-y,1/3-z
loop_
_atom_site_type_symbol
_atom_site_label
_atom_site_fract_x
_atom_site_fract_y
_atom_site_fract_z
Si Si1 0.915307 0.634973 0.856271
Si Si2 0.788354 0.404247 0.791728
Si Si3 0.291195 0.924834 0.687657
Si Si4 0.792221 0.400305 0.296286
Si Si5 0.372742 0.254791 0.228984
Si Si6 0.375070 0.070362 0.562791
O O1 0.861102 0.504598 0.840910
O O2 0.823100 0.669562 0.874147
O O3 0.988221 0.653659 0.920513
O O4 0.989491 0.705262 0.792159
O O5 0.695462 0.304539 0.833334
O O6 0.726632 0.443892 0.740137
O O7 0.866655 0.362597 0.755841
O O8 0.368882 0.868276 0.679931
O O9 0.162848 0.830100 0.708099
O O10 0.293723 0.989865 0.620907
O O11 0.715737 0.284264 0.333334
O O12 0.868721 0.374285 0.248606
O O13 0.387785 0.193893 0.166667
O O14 0.370725 0.000000 0.500000
#
# Coordination Sequence:
#
# PCOD8326250 Si02
#       6
#    12  12  12  12  12  12
#     4  11  23  43  67  98 134 188 230 285 344 409
#     4  11  21  36  63  98 145 174 220 258 338 419
#     4  11  24  42  66  98 136 183 240 279 340 412
#     4  12  24  40  66 101 148 183 217 264 347 438
#     4   9  21  39  64  94 131 178 231 276 321 404
#     4  12  27  43  63  98 137 182 232 293 349 408
#
# _framework density 21.633358000000001
#
# number of rings (size 3 to 8) (size 9 to 14) (size 15 to 20)
#    0.000    1.000    3.333    3.500    0.000    7.333 
#    0.000    3.333    0.000    4.500    0.000   21.000 
#    0.000    0.000    0.000    0.000    0.000    0.000 
#
# Total GULP energy -892613.798906 kJ/mol
# GULP energy per Si atom -12397.413874 kJ/mol
# Density = 2.158412 g / cm^3
# Si number density = 21.633358 Si / 1000 Ang^3
#
#
#
# Elastic Constant Matrix: (Units=GPa)
#
#
# Indices 1 2 3 4 5 6 
#
# 1 109.2738 73.2876 63.1895 0.0000 0.0000 0.0000
# 2 73.2876 109.2738 63.1895 0.0000 0.0000 0.0000
# 3 63.1895 63.1895 119.6700 0.0000 0.0000 0.0000
# 4 0.0000 0.0000 0.0000 45.0805 0.0000 0.0000
# 5 0.0000 0.0000 0.0000 0.0000 45.0805 0.0000
# 6 0.0000 0.0000 0.0000 0.0000 0.0000 17.9931
#
#
#
# Elastic Compliance Matrix: (Units=1/GPa)
#
#
# Indices 1 2 3 4 5 6 
#
# 1 0.018211 -0.009578 -0.004559 0.000000 0.000000 0.000000
# 2 -0.009578 0.018211 -0.004559 0.000000 0.000000 0.000000
# 3 -0.004559 -0.004559 0.013171 0.000000 0.000000 0.000000
# 4 0.000000 0.000000 0.000000 0.022183 0.000000 0.000000
# 5 0.000000 0.000000 0.000000 0.000000 0.022183 0.000000
# 6 0.000000 0.000000 0.000000 0.000000 0.000000 0.055577
#
#
# Mechanical properties :
#
#
# Convention : Reuss Voigt Hill
#
# Bulk Modulus (GPa) = 81.94998 81.95010 81.95004
# Shear Modulus (GPa) = 26.17913 30.86755 28.52334
#
# Velocity S-wave (km/s) = 3.48246 3.78146 3.63504
# Velocity P-wave (km/s) = 7.35755 7.55179 7.45531
#
# Compressibility (1/GPa) = 0.01220257
#
# Stress axis : x y z
#
# Youngs Moduli (GPa) = 54.91209 54.91209 75.92672
#
# Poissons Ratio (x) = 0.52592 0.34613
# Poissons Ratio (y) = 0.52592 0.34613
# Poissons Ratio (z) = 0.25033 0.25033
#
# Static dielectric constant tensor:
#      x y z
#    x 4.221350 0.000000 0.000000 
#    y 0.000000 4.221350 0.000000 
#    z 0.000000 0.000000 4.132840 
# 
# 
# High freq. dielectric constant tensor:
#      x y z
#    x 1.841320 0.000000 0.000000 
#    y 0.000000 1.841320 0.000000 
#    z 0.000000 0.000000 1.853610 
# 
# From -- ./inp_files/7793.got.cif
#   From: 2010.03.12/outbox.cif.g09.slc.cpg/sg180_4_cif.got.tgz:7793.got - 2010.04.01 11:35:50.
