data_PCOD8326543
_publ_section_title
;
Structure prediction by ZEFSAII (Michael W. Deem and Ramdas Pophale) SiO2 
 PCOD8326543
Probable space group: P 6 M M
;
_chemical_formula_sum "Si O2"
_cell_formula_units_Z 96
_cell_length_a 17.847616
_cell_length_b 17.847616
_cell_length_c 20.254506
_cell_angle_alpha 90.000000
_cell_angle_beta 90.000000
_cell_angle_gamma 120.000000
_cell_volume 5587.437956
_symmetry_space_group_name_H-M "P 6 M M"
_symmetry_group_IT_number 183
_symmetry_cell_setting 'hexagonal'
loop_
_space_group_symop_operation_xyz
x,y,z
x-y,x,z
-y,x-y,z
-x,-y,z
-x+y,-x,z
y,-x+y,z
-x+y,y,z
x,x-y,z
-y,-x,z
y,x,z
x-y,-y,z
-x,-x+y,z
loop_
_atom_site_type_symbol
_atom_site_label
_atom_site_fract_x
_atom_site_fract_y
_atom_site_fract_z
Si Si1 0.899705 0.365751 0.416170
Si Si2 0.835088 0.331159 0.027844
Si Si3 0.363196 0.263533 0.292835
Si Si4 0.331159 0.496071 0.557825
Si Si5 0.097426 0.730956 0.914160
Si Si6 0.899705 0.533955 0.169499
Si Si7 0.160265 0.668550 0.792835
Si Si8 0.366472 0.269046 0.671510
O O1 0.873840 0.436920 0.394636
O O2 0.875696 0.299410 0.356643
O O3 0.849030 0.316226 0.481655
O O4 0.000000 0.411479 0.433534
O O5 0.857371 0.428686 0.014075
O O6 0.734962 0.265039 0.009897
O O7 0.849029 0.316226 0.104014
O O8 0.895828 0.309373 0.983314
O O9 0.318894 0.159447 0.292835
O O10 0.287929 0.287929 0.292835
O O11 0.423714 0.299410 0.229026
O O12 0.265039 0.530078 0.575772
O O13 0.428686 0.571315 0.571594
O O14 0.309373 0.413546 0.602355
O O15 0.165977 0.834024 0.910095
O O16 0.114913 0.680080 0.856874
O O17 0.000000 0.714881 0.907706
O O18 0.873842 0.436921 0.191032
O O19 0.000000 0.588523 0.152134
O O20 0.146517 0.573259 0.792837
O O21 0.262221 0.737780 0.792834
O O22 0.114912 0.680077 0.728795
O O23 0.331956 0.165978 0.675576
O O24 0.285121 0.285121 0.677964
#
# Coordination Sequence:
#
# PCOD8326543 Si02
#       8
#    12  12  12  12  12  12  12  12
#     4   9  17  29  46  67  90 118 152 189 227 268
#     4  10  19  30  45  67  97 130 161 190 221 260
#     4  10  19  31  47  66  89 117 152 192 233 277
#     4  10  19  30  45  67  97 130 161 190 221 260
#     4  10  21  35  51  71  94 122 156 196 240 282
#     4   9  17  29  46  67  90 118 152 189 227 268
#     4  10  20  33  50  73 102 134 165 194 224 261
#     4  10  21  35  51  71  94 122 156 196 240 282
#
# _framework density 17.1814
#
# number of rings (size 3 to 8) (size 9 to 14) (size 15 to 20)
#    0.000    2.250    0.000    3.375    0.000    5.000 
#    0.000    2.500    0.000    3.875    0.000    0.000 
#    0.000    3.000    0.000    8.000    0.000    0.000 
#
# Total GULP energy -1190340.487424 kJ/mol
# GULP energy per Si atom -12399.380077 kJ/mol
# Density = 1.714229 g / cm^3
# Si number density = 17.181400 Si / 1000 Ang^3
#
#
#
# Elastic Constant Matrix: (Units=GPa)
#
#
# Indices 1 2 3 4 5 6 
#
# 1 99.4341 61.6512 39.7381 0.0000 0.0000 0.0000
# 2 61.6512 99.4341 39.7381 0.0000 0.0000 0.0000
# 3 39.7381 39.7381 77.9840 0.0000 0.0000 0.0000
# 4 0.0000 0.0000 0.0000 18.9631 0.0000 0.0000
# 5 0.0000 0.0000 0.0000 0.0000 18.9631 0.0000
# 6 0.0000 0.0000 0.0000 0.0000 0.0000 18.8915
#
#
#
# Elastic Compliance Matrix: (Units=1/GPa)
#
#
# Indices 1 2 3 4 5 6 
#
# 1 0.017380 -0.009087 -0.004226 0.000000 0.000000 0.000000
# 2 -0.009087 0.017380 -0.004226 0.000000 0.000000 0.000000
# 3 -0.004226 -0.004226 0.017130 0.000000 0.000000 0.000000
# 4 0.000000 0.000000 0.000000 0.052734 0.000000 0.000000
# 5 0.000000 0.000000 0.000000 0.000000 0.052734 0.000000
# 6 0.000000 0.000000 0.000000 0.000000 0.000000 0.052934
#
#
# Mechanical properties :
#
#
# Convention : Reuss Voigt Hill
#
# Bulk Modulus (GPa) = 59.48003 62.12303 60.80153
# Shear Modulus (GPa) = 19.92249 20.41186 20.16717
#
# Velocity S-wave (km/s) = 3.40889 3.45051 3.42976
# Velocity P-wave (km/s) = 7.08435 7.21875 7.15187
#
# Compressibility (1/GPa) = 0.01681237
#
# Stress axis : x y z
#
# Youngs Moduli (GPa) = 57.53781 57.53781 58.37797
#
# Poissons Ratio (x) = 0.52285 0.24669
# Poissons Ratio (y) = 0.52285 0.24669
# Poissons Ratio (z) = 0.24314 0.24314
#
# Static dielectric constant tensor:
#      x y z
#    x 3.061100 0.000000 0.000000 
#    y 0.000000 3.061100 0.000000 
#    z 0.000000 0.000000 3.388640 
# 
# 
# High freq. dielectric constant tensor:
#      x y z
#    x 1.643960 0.000000 0.000000 
#    y 0.000000 1.643960 0.000000 
#    z 0.000000 0.000000 1.682580 
# 
# From -- ./inp_files/3125.got.cif
#   From: 2010.03.12/outbox.cif.g09.slc.cpg/sg183_2_cif.got.tgz:3125.got - 2010.04.01 11:53:02.
