data_PCOD8326363
_publ_section_title
;
Structure prediction by ZEFSAII (Michael W. Deem and Ramdas Pophale) SiO2 
 PCOD8326363
Probable space group: P 64 2 2
;
_chemical_formula_sum "Si O2"
_cell_formula_units_Z 42
_cell_length_a 11.693458
_cell_length_b 11.693458
_cell_length_c 17.104746
_cell_angle_alpha 90.000000
_cell_angle_beta 90.000000
_cell_angle_gamma 120.000000
_cell_volume 2025.504355
_symmetry_space_group_name_H-M "P 64 2 2"
_symmetry_group_IT_number 181
_symmetry_cell_setting 'hexagonal'
loop_
_space_group_symop_operation_xyz
x,y,z
x-y,x,2/3+z
-y,x-y,1/3+z
-x,-y,z
-x+y,-x,2/3+z
y,-x+y,1/3+z
x-y,-y,-z
-x,-x+y,2/3-z
y,x,1/3-z
-y,-x,1/3-z
-x+y,y,-z
x,x-y,2/3-z
loop_
_atom_site_type_symbol
_atom_site_label
_atom_site_fract_x
_atom_site_fract_y
_atom_site_fract_z
Si Si1 0.163382 0.666660 0.604589
Si Si2 0.888415 0.111586 0.166667
Si Si3 0.184163 0.856719 0.474362
Si Si4 0.721411 0.615530 0.363017
O O1 0.280273 0.719728 0.666667
O O2 0.193387 0.742548 0.522048
O O3 0.136208 0.519421 0.593355
O O4 0.051651 0.687418 0.647967
O O5 0.848827 0.159226 0.089166
O O6 0.047096 0.188399 0.178785
O O7 0.211917 0.828462 0.385915
O O8 0.301501 0.000000 0.500000
#
# Coordination Sequence:
#
# PCOD8326363 Si02
#       4
#    12   6  12  12
#     4  10  21  39  59  89 123 161 217 263 314 394
#     4  10  23  38  62  94 129 166 214 266 336 406
#     4  11  21  39  65  94 125 169 213 272 338 394
#     4  10  22  39  59  89 129 163 208 269 323 392
#
# _framework density 20.735575000000001
#
# number of rings (size 3 to 8) (size 9 to 14) (size 15 to 20)
#    0.000    1.714    2.857    1.286    0.000    3.429 
#    0.000    2.857    0.000    8.571    0.000    0.000 
#    0.000    0.000    0.000    0.000    0.000    0.000 
#
# Total GULP energy -520338.354320 kJ/mol
# GULP energy per Si atom -12389.008436 kJ/mol
# Density = 2.068838 g / cm^3
# Si number density = 20.735575 Si / 1000 Ang^3
#
#
#
# Elastic Constant Matrix: (Units=GPa)
#
#
# Indices 1 2 3 4 5 6 
#
# 1 66.1502 33.3835 44.9770 0.0000 0.0000 0.0000
# 2 33.3835 66.1502 44.9770 0.0000 0.0000 0.0000
# 3 44.9770 44.9770 167.0314 0.0000 0.0000 0.0000
# 4 0.0000 0.0000 0.0000 34.4715 0.0000 0.0000
# 5 0.0000 0.0000 0.0000 0.0000 34.4715 0.0000
# 6 0.0000 0.0000 0.0000 0.0000 0.0000 16.3834
#
#
#
# Elastic Compliance Matrix: (Units=1/GPa)
#
#
# Indices 1 2 3 4 5 6 
#
# 1 0.021898 -0.008620 -0.003575 0.000000 0.000000 0.000000
# 2 -0.008620 0.021898 -0.003575 0.000000 0.000000 0.000000
# 3 -0.003575 -0.003575 0.007912 0.000000 0.000000 0.000000
# 4 0.000000 0.000000 0.000000 0.029009 0.000000 0.000000
# 5 0.000000 0.000000 0.000000 0.000000 0.029009 0.000000
# 6 0.000000 0.000000 0.000000 0.000000 0.000000 0.061038
#
#
# Mechanical properties :
#
#
# Convention : Reuss Voigt Hill
#
# Bulk Modulus (GPa) = 49.58597 60.66742 55.12669
# Shear Modulus (GPa) = 23.91995 28.79824 26.35909
#
# Velocity S-wave (km/s) = 3.40011 3.73075 3.56926
# Velocity P-wave (km/s) = 6.27533 6.91947 6.60526
#
# Compressibility (1/GPa) = 0.02016700
#
# Stress axis : x y z
#
# Youngs Moduli (GPa) = 45.66528 45.66528 126.38330
#
# Poissons Ratio (x) = 0.39365 0.45188
# Poissons Ratio (y) = 0.39365 0.45188
# Poissons Ratio (z) = 0.16327 0.16327
#
# Static dielectric constant tensor:
#      x y z
#    x 3.692930 0.000000 0.000000 
#    y 0.000000 3.692930 0.000000 
#    z 0.000000 0.000000 3.684620 
# 
# 
# High freq. dielectric constant tensor:
#      x y z
#    x 1.806300 0.000000 0.000000 
#    y 0.000000 1.806300 0.000000 
#    z 0.000000 0.000000 1.815990 
# 
# From -- ./inp_files/7135.got.cif
#   From: 2010.03.12/outbox.cif.g09.slc.cpg/sg181_4_cif.got.tgz:7135.got - 2010.04.01 11:42:41.
