data_PCOD8326127
_publ_section_title
;
Structure prediction by ZEFSAII (Michael W. Deem and Ramdas Pophale) SiO2 
 PCOD8326127
Probable space group: P 62 2 2
;
_chemical_formula_sum "Si O2"
_cell_formula_units_Z 48
_cell_length_a 25.685336
_cell_length_b 25.685336
_cell_length_c 5.257333
_cell_angle_alpha 90.000000
_cell_angle_beta 90.000000
_cell_angle_gamma 120.000000
_cell_volume 3003.769619
_symmetry_space_group_name_H-M "P 62 2 2"
_symmetry_group_IT_number 180
_symmetry_cell_setting 'hexagonal'
loop_
_space_group_symop_operation_xyz
x,y,z
x-y,x,1/3+z
-y,x-y,2/3+z
-x,-y,z
-x+y,-x,1/3+z
y,-x+y,2/3+z
x-y,-y,-z
-x,-x+y,1/3-z
y,x,2/3-z
-y,-x,2/3-z
-x+y,y,-z
x,x-y,1/3-z
loop_
_atom_site_type_symbol
_atom_site_label
_atom_site_fract_x
_atom_site_fract_y
_atom_site_fract_z
Si Si1 0.581893 0.649184 0.393103
Si Si2 0.527010 0.283995 0.914698
Si Si3 0.827674 0.220892 0.585476
Si Si4 0.613076 0.107618 0.559961
O O1 0.633625 0.633625 0.333334
O O2 0.613838 0.720961 0.390992
O O3 0.554633 0.628437 0.674378
O O4 0.531706 0.617031 0.174413
O O5 0.563064 0.281532 0.666667
O O6 0.463177 0.222444 0.916555
O O7 0.521125 0.342503 0.892630
O O8 0.561728 0.280864 0.166667
O O9 0.818965 0.181036 0.333334
O O10 0.819445 0.180556 0.833334
O O11 0.546170 0.092340 0.500000
#
# Coordination Sequence:
#
# PCOD8326127 Si02
#       4
#    12  12  12  12
#     4  12  23  35  50  74  98 120 148 188 230 281
#     4  10  16  32  56  67  79 108 158 181 212 265
#     4  10  16  32  56  69  82 116 155 177 211 265
#     4  12  23  35  50  72  91 126 149 182 231 296
#
# _framework density 15.979922
#
# number of rings (size 3 to 8) (size 9 to 14) (size 15 to 20)
#    0.000    1.000   10.000    1.500    0.000    3.000 
#    0.000    0.000    0.000    1.500    0.000    0.000 
#    0.000    0.000    0.000    0.000    0.000    0.000 
#
# Total GULP energy -594848.330381 kJ/mol
# GULP energy per Si atom -12392.673550 kJ/mol
# Density = 1.594355 g / cm^3
# Si number density = 15.979922 Si / 1000 Ang^3
#
#
#
# Elastic Constant Matrix: (Units=GPa)
#
#
# Indices 1 2 3 4 5 6 
#
# 1 46.2677 36.5591 18.9755 0.0000 0.0000 0.0000
# 2 36.5591 46.2677 18.9755 0.0000 0.0000 0.0000
# 3 18.9755 18.9755 148.1218 0.0000 0.0000 0.0000
# 4 0.0000 0.0000 0.0000 12.3990 0.0000 0.0000
# 5 0.0000 0.0000 0.0000 0.0000 12.3990 0.0000
# 6 0.0000 0.0000 0.0000 0.0000 0.0000 4.8543
#
#
#
# Elastic Compliance Matrix: (Units=1/GPa)
#
#
# Indices 1 2 3 4 5 6 
#
# 1 0.057914 -0.045088 -0.001643 0.000000 0.000000 0.000000
# 2 -0.045088 0.057914 -0.001643 0.000000 0.000000 0.000000
# 3 -0.001643 -0.001643 0.007172 0.000000 0.000000 0.000000
# 4 0.000000 0.000000 0.000000 0.080651 0.000000 0.000000
# 5 0.000000 0.000000 0.000000 0.000000 0.080651 0.000000
# 6 0.000000 0.000000 0.000000 0.000000 0.000000 0.206003
#
#
# Mechanical properties :
#
#
# Convention : Reuss Voigt Hill
#
# Bulk Modulus (GPa) = 38.09209 43.29751 40.69480
# Shear Modulus (GPa) = 8.39203 17.00695 12.69949
#
# Velocity S-wave (km/s) = 2.29412 3.26585 2.82213
# Velocity P-wave (km/s) = 5.55937 6.43233 6.01171
#
# Compressibility (1/GPa) = 0.02625217
#
# Stress axis : x y z
#
# Youngs Moduli (GPa) = 17.26705 17.26705 139.42727
#
# Poissons Ratio (x) = 0.77853 0.22910
# Poissons Ratio (y) = 0.77853 0.22910
# Poissons Ratio (z) = 0.02837 0.02837
#
# Static dielectric constant tensor:
#      x y z
#    x 2.810250 0.000000 0.000000 
#    y 0.000000 2.810250 0.000000 
#    z 0.000000 0.000000 11.964860 
# 
# 
# High freq. dielectric constant tensor:
#      x y z
#    x 1.568200 0.000000 0.000000 
#    y 0.000000 1.568200 0.000000 
#    z 0.000000 0.000000 1.659640 
# 
# From -- ./inp_files/1113.got.cif
#   From: 2010.03.12/outbox.cif.g09.slc.cpg/sg180_1_cif.got.tgz:1113.got - 2010.04.01 11:35:50.
