data_PCOD8326198
_publ_section_title
;
Structure prediction by ZEFSAII (Michael W. Deem and Ramdas Pophale) SiO2 
 PCOD8326198
Probable space group: P 62 2 2
;
_chemical_formula_sum "Si O2"
_cell_formula_units_Z 72
_cell_length_a 15.565666
_cell_length_b 15.565666
_cell_length_c 17.669146
_cell_angle_alpha 90.000000
_cell_angle_beta 90.000000
_cell_angle_gamma 120.000000
_cell_volume 3707.503808
_symmetry_space_group_name_H-M "P 62 2 2"
_symmetry_group_IT_number 180
_symmetry_cell_setting 'hexagonal'
loop_
_space_group_symop_operation_xyz
x,y,z
x-y,x,1/3+z
-y,x-y,2/3+z
-x,-y,z
-x+y,-x,1/3+z
y,-x+y,2/3+z
x-y,-y,-z
-x,-x+y,1/3-z
y,x,2/3-z
-y,-x,2/3-z
-x+y,y,-z
x,x-y,1/3-z
loop_
_atom_site_type_symbol
_atom_site_label
_atom_site_fract_x
_atom_site_fract_y
_atom_site_fract_z
Si Si1 0.406537 0.621870 0.475015
Si Si2 0.250395 0.891846 0.500807
Si Si3 0.212232 0.495836 0.300124
Si Si4 0.398167 0.296162 0.572408
Si Si5 0.872486 0.288948 0.870080
Si Si6 0.097974 0.602780 0.280132
O O1 0.326929 0.653858 0.500000
O O2 0.454141 0.672200 0.393159
O O3 0.495794 0.661626 0.534126
O O4 0.357022 0.502848 0.476409
O O5 0.247773 0.853675 0.586075
O O6 0.153798 0.819384 0.451125
O O7 0.352789 0.902986 0.467887
O O8 0.259382 0.000000 0.500000
O O9 0.191124 0.468281 0.387677
O O10 0.188961 0.583661 0.283969
O O11 0.334980 0.346714 0.546850
O O12 0.419774 0.313320 0.661291
O O13 0.821794 0.178207 0.833334
O O14 0.000000 0.500000 0.299551
#
# Coordination Sequence:
#
# PCOD8326198 Si02
#       6
#    12  12  12  12  12  12
#     4  10  21  35  54  84 117 155 196 243 292 363
#     4  11  22  33  54  88 121 159 199 251 304 368
#     4  11  21  35  53  86 121 153 199 246 297 369
#     4  11  21  39  57  83 121 166 202 245 307 371
#     4  11  23  40  60  78 109 164 214 258 299 356
#     4  12  19  33  59  86 129 158 189 237 316 377
#
# _framework density 19.420074
#
# number of rings (size 3 to 8) (size 9 to 14) (size 15 to 20)
#    0.000    1.000    5.000    3.500    0.000    2.667 
#    0.000    3.333    0.000    8.500    0.000    0.000 
#    0.000    8.000    0.000    0.000    0.000    0.333 
#
# Total GULP energy -892186.603410 kJ/mol
# GULP energy per Si atom -12391.480603 kJ/mol
# Density = 1.937587 g / cm^3
# Si number density = 19.420074 Si / 1000 Ang^3
#
#
#
# Elastic Constant Matrix: (Units=GPa)
#
#
# Indices 1 2 3 4 5 6 
#
# 1 73.8899 21.5951 29.6415 0.0000 0.0000 0.0000
# 2 21.5951 73.8899 29.6415 0.0000 0.0000 0.0000
# 3 29.6415 29.6415 54.1656 0.0000 0.0000 0.0000
# 4 0.0000 0.0000 0.0000 23.4712 0.0000 0.0000
# 5 0.0000 0.0000 0.0000 0.0000 23.4712 0.0000
# 6 0.0000 0.0000 0.0000 0.0000 0.0000 26.1474
#
#
#
# Elastic Compliance Matrix: (Units=1/GPa)
#
#
# Indices 1 2 3 4 5 6 
#
# 1 0.017492 -0.001630 -0.008680 0.000000 0.000000 0.000000
# 2 -0.001630 0.017492 -0.008680 0.000000 0.000000 0.000000
# 3 -0.008680 -0.008680 0.027962 0.000000 0.000000 0.000000
# 4 0.000000 0.000000 0.000000 0.042605 0.000000 0.000000
# 5 0.000000 0.000000 0.000000 0.000000 0.042605 0.000000
# 6 0.000000 0.000000 0.000000 0.000000 0.000000 0.038245
#
#
# Mechanical properties :
#
#
# Convention : Reuss Voigt Hill
#
# Bulk Modulus (GPa) = 40.05582 40.41131 40.23357
# Shear Modulus (GPa) = 21.48633 22.68909 22.08771
#
# Velocity S-wave (km/s) = 3.32986 3.42179 3.37614
# Velocity P-wave (km/s) = 5.95439 6.03869 5.99669
#
# Compressibility (1/GPa) = 0.02496516
#
# Stress axis : x y z
#
# Youngs Moduli (GPa) = 57.16811 57.16811 35.76237
#
# Poissons Ratio (x) = 0.09319 0.31043
# Poissons Ratio (y) = 0.09319 0.31043
# Poissons Ratio (z) = 0.49624 0.49624
#
# Static dielectric constant tensor:
#      x y z
#    x 3.582310 0.000000 0.000000 
#    y 0.000000 3.582310 0.000000 
#    z 0.000000 0.000000 3.707290 
# 
# 
# High freq. dielectric constant tensor:
#      x y z
#    x 1.729980 0.000000 0.000000 
#    y 0.000000 1.729980 0.000000 
#    z 0.000000 0.000000 1.764110 
# 
# From -- ./inp_files/7778.got.cif
#   From: 2010.03.12/outbox.cif.g09.slc.cpg/sg180_4_cif.got.tgz:7778.got - 2010.04.01 11:35:50.
