data_PCOD8326420
_publ_section_title
;
Structure prediction by ZEFSAII (Michael W. Deem and Ramdas Pophale) SiO2 
 PCOD8326420
Probable space group: P 64 2 2
;
_chemical_formula_sum "Si O2"
_cell_formula_units_Z 42
_cell_length_a 13.939959
_cell_length_b 13.939959
_cell_length_c 12.228151
_cell_angle_alpha 90.000000
_cell_angle_beta 90.000000
_cell_angle_gamma 120.000000
_cell_volume 2057.853328
_symmetry_space_group_name_H-M "P 64 2 2"
_symmetry_group_IT_number 181
_symmetry_cell_setting 'hexagonal'
loop_
_space_group_symop_operation_xyz
x,y,z
x-y,x,2/3+z
-y,x-y,1/3+z
-x,-y,z
-x+y,-x,2/3+z
y,-x+y,1/3+z
x-y,-y,-z
-x,-x+y,2/3-z
y,x,1/3-z
-y,-x,1/3-z
-x+y,y,-z
x,x-y,2/3-z
loop_
_atom_site_type_symbol
_atom_site_label
_atom_site_fract_x
_atom_site_fract_y
_atom_site_fract_z
Si Si1 0.578016 0.396070 0.293550
Si Si2 0.018552 0.654901 0.019598
Si Si3 0.796792 0.000000 0.500000
Si Si4 0.776855 0.994768 0.870360
O O1 0.597606 0.402395 0.166667
O O2 0.608409 0.304205 0.333334
O O3 0.452243 0.361719 0.312065
O O4 0.650547 0.517642 0.348544
O O5 0.993540 0.672894 0.144615
O O6 0.030080 0.751514 0.940677
O O7 0.811212 0.893961 0.484362
O O8 0.752499 0.876250 0.833334
O O9 0.766161 0.000000 0.000000
#
# Coordination Sequence:
#
# PCOD8326420 Si02
#       4
#    12  12   6  12
#     4  11  23  43  68 100 128 175 237 290 344 419
#     4  11  23  43  68  95 134 179 228 283 353 421
#     4  12  21  41  68  92 132 178 222 281 347 416
#     4  12  26  40  63  99 138 178 228 283 350 421
#
# _framework density 20.409617999999998
#
# number of rings (size 3 to 8) (size 9 to 14) (size 15 to 20)
#    0.000    0.571    5.714    3.857    0.000    2.286 
#    0.000    2.857    0.000    0.000    0.000    0.000 
#    0.000    0.000    0.000    0.000    0.000    0.000 
#
# Total GULP energy -520658.803391 kJ/mol
# GULP energy per Si atom -12396.638176 kJ/mol
# Density = 2.036316 g / cm^3
# Si number density = 20.409618 Si / 1000 Ang^3
#
#
#
# Elastic Constant Matrix: (Units=GPa)
#
#
# Indices 1 2 3 4 5 6 
#
# 1 117.8561 14.2671 61.4109 0.0000 0.0000 0.0000
# 2 14.2671 117.8561 61.4109 0.0000 0.0000 0.0000
# 3 61.4109 61.4109 158.2915 0.0000 0.0000 0.0000
# 4 0.0000 0.0000 0.0000 36.8440 0.0000 0.0000
# 5 0.0000 0.0000 0.0000 0.0000 36.8440 0.0000
# 6 0.0000 0.0000 0.0000 0.0000 0.0000 51.7945
#
#
#
# Elastic Compliance Matrix: (Units=1/GPa)
#
#
# Indices 1 2 3 4 5 6 
#
# 1 0.010746 0.001092 -0.004593 0.000000 0.000000 0.000000
# 2 0.001092 0.010746 -0.004593 0.000000 0.000000 0.000000
# 3 -0.004593 -0.004593 0.009881 0.000000 0.000000 0.000000
# 4 0.000000 0.000000 0.000000 0.027141 0.000000 0.000000
# 5 0.000000 0.000000 0.000000 0.000000 0.027141 0.000000
# 6 0.000000 0.000000 0.000000 0.000000 0.000000 0.019307
#
#
# Mechanical properties :
#
#
# Convention : Reuss Voigt Hill
#
# Bulk Modulus (GPa) = 65.84859 74.24242 70.04551
# Shear Modulus (GPa) = 39.61619 42.22416 40.92017
#
# Velocity S-wave (km/s) = 4.41052 4.55338 4.48252
# Velocity P-wave (km/s) = 7.63351 8.00622 7.82208
#
# Compressibility (1/GPa) = 0.01518635
#
# Stress axis : x y z
#
# Youngs Moduli (GPa) = 93.05955 93.05955 101.20385
#
# Poissons Ratio (x) = -0.10165 0.46480
# Poissons Ratio (y) = -0.10165 0.46480
# Poissons Ratio (z) = 0.42740 0.42740
#
# Static dielectric constant tensor:
#      x y z
#    x 3.879620 0.000000 0.000000 
#    y 0.000000 3.879620 0.000000 
#    z 0.000000 0.000000 3.478440 
# 
# 
# High freq. dielectric constant tensor:
#      x y z
#    x 1.801220 0.000000 0.000000 
#    y 0.000000 1.801220 0.000000 
#    z 0.000000 0.000000 1.804170 
# 
# From -- ./inp_files/4153.got.cif
#   From: 2010.03.12/outbox.cif.g09.slc.cpg/sg181_3_cif.got.tgz:4153.got - 2010.04.01 11:42:41.
