data_PCOD8326345
_publ_section_title
;
Structure prediction by ZEFSAII (Michael W. Deem and Ramdas Pophale) SiO2 
 PCOD8326345
Probable space group: P 64 2 2
;
_chemical_formula_sum "Si O2"
_cell_formula_units_Z 69
_cell_length_a 11.029346
_cell_length_b 11.029346
_cell_length_c 33.154748
_cell_angle_alpha 90.000000
_cell_angle_beta 90.000000
_cell_angle_gamma 120.000000
_cell_volume 3492.817427
_symmetry_space_group_name_H-M "P 64 2 2"
_symmetry_group_IT_number 181
_symmetry_cell_setting 'hexagonal'
loop_
_space_group_symop_operation_xyz
x,y,z
x-y,x,2/3+z
-y,x-y,1/3+z
-x,-y,z
-x+y,-x,2/3+z
y,-x+y,1/3+z
x-y,-y,-z
-x,-x+y,2/3-z
y,x,1/3-z
-y,-x,1/3-z
-x+y,y,-z
x,x-y,2/3-z
loop_
_atom_site_type_symbol
_atom_site_label
_atom_site_fract_x
_atom_site_fract_y
_atom_site_fract_z
Si Si1 0.478833 0.624420 0.752821
Si Si2 0.196973 0.245528 0.540988
Si Si3 0.195413 0.757303 0.887150
Si Si4 0.342172 0.922626 0.363372
Si Si5 0.113938 0.227876 0.000000
Si Si6 0.619320 0.380681 0.666667
Si Si7 0.500000 0.000000 0.500000
Si Si8 0.000000 0.000000 0.734269
O O1 0.500000 0.500000 0.768635
O O2 0.609280 0.767993 0.769601
O O3 0.330953 0.593236 0.772009
O O4 0.467009 0.611485 0.704534
O O5 0.115265 0.230530 0.500000
O O6 0.336279 0.238395 0.530901
O O7 0.110420 0.119574 0.570818
O O8 0.127522 0.757887 0.930651
O O9 0.090644 0.631808 0.860380
O O10 0.326939 0.786933 0.339865
O O11 0.500000 0.000000 0.379180
O O12 0.315423 0.030616 0.336089
O O13 0.066355 0.137231 0.040263
#
# Coordination Sequence:
#
# PCOD8326345 Si02
#       8
#    12  12  12  12   6   6   3   6
#     4   9  20  39  62  94 120 159 209 260 316 382
#     4  11  23  40  64  91 131 165 214 270 324 394
#     4  10  23  40  63  88 119 166 217 257 317 380
#     4  11  21  40  59  92 123 165 206 266 317 396
#     4  11  23  38  65  91 134 156 214 276 332 403
#     4  10  20  36  65  87 126 164 206 252 328 396
#     4  12  24  40  62  80 120 170 216 254 308 388
#     4  11  23  38  60  94 123 169 208 264 336 389
#
# _framework density 19.754828
#
# number of rings (size 3 to 8) (size 9 to 14) (size 15 to 20)
#    0.000    1.565    2.609    2.087    3.652    0.000 
#    0.000    0.000    0.000    1.043    0.000    0.000 
#    0.000    0.000    0.000    0.000    0.000    0.000 
#
# Total GULP energy -854896.373776 kJ/mol
# GULP energy per Si atom -12389.802518 kJ/mol
# Density = 1.970986 g / cm^3
# Si number density = 19.754828 Si / 1000 Ang^3
#
#
#
# Elastic Constant Matrix: (Units=GPa)
#
#
# Indices 1 2 3 4 5 6 
#
# 1 119.9844 43.9618 52.7415 0.0000 0.0000 0.0000
# 2 43.9618 119.9844 52.7415 0.0000 0.0000 0.0000
# 3 52.7415 52.7415 115.6483 0.0000 0.0000 0.0000
# 4 0.0000 0.0000 0.0000 43.9214 0.0000 0.0000
# 5 0.0000 0.0000 0.0000 0.0000 43.9214 0.0000
# 6 0.0000 0.0000 0.0000 0.0000 0.0000 38.0113
#
#
#
# Elastic Compliance Matrix: (Units=1/GPa)
#
#
# Indices 1 2 3 4 5 6 
#
# 1 0.010893 -0.002261 -0.003937 0.000000 0.000000 0.000000
# 2 -0.002261 0.010893 -0.003937 0.000000 0.000000 0.000000
# 3 -0.003937 -0.003937 0.012238 0.000000 0.000000 0.000000
# 4 0.000000 0.000000 0.000000 0.022768 0.000000 0.000000
# 5 0.000000 0.000000 0.000000 0.000000 0.022768 0.000000
# 6 0.000000 0.000000 0.000000 0.000000 0.000000 0.026308
#
#
# Mechanical properties :
#
#
# Convention : Reuss Voigt Hill
#
# Bulk Modulus (GPa) = 72.69917 72.72298 72.71108
# Shear Modulus (GPa) = 38.24903 38.91562 38.58233
#
# Velocity S-wave (km/s) = 4.40499 4.44320 4.42414
# Velocity P-wave (km/s) = 7.92165 7.95081 7.93624
#
# Compressibility (1/GPa) = 0.01375531
#
# Stress axis : x y z
#
# Youngs Moduli (GPa) = 91.79981 91.79981 81.71435
#
# Poissons Ratio (x) = 0.20753 0.32170
# Poissons Ratio (y) = 0.20753 0.32170
# Poissons Ratio (z) = 0.36141 0.36141
#
# Static dielectric constant tensor:
#      x y z
#    x 3.744020 0.000000 0.000000 
#    y 0.000000 3.744020 0.000000 
#    z 0.000000 0.000000 3.492540 
# 
# 
# High freq. dielectric constant tensor:
#      x y z
#    x 1.772640 0.000000 0.000000 
#    y 0.000000 1.772640 0.000000 
#    z 0.000000 0.000000 1.763560 
# 
# From -- ./inp_files/12341.got.cif
#   From: 2010.03.12/outbox.cif.g09.slc.cpg/sg181_7_cif.got.tgz:12341.got - 2010.04.01 11:42:41.
