data_PCOD8326507
_publ_section_title
;
Structure prediction by ZEFSAII (Michael W. Deem and Ramdas Pophale) SiO2 
 PCOD8326507
Probable space group: P 6 M M
;
_chemical_formula_sum "Si O2"
_cell_formula_units_Z 96
_cell_length_a 22.574153
_cell_length_b 22.574153
_cell_length_c 12.413825
_cell_angle_alpha 90.000000
_cell_angle_beta 90.000000
_cell_angle_gamma 120.000000
_cell_volume 5478.468626
_symmetry_space_group_name_H-M "P 6 M M"
_symmetry_group_IT_number 183
_symmetry_cell_setting 'hexagonal'
loop_
_space_group_symop_operation_xyz
x,y,z
x-y,x,z
-y,x-y,z
-x,-y,z
-x+y,-x,z
y,-x+y,z
-x+y,y,z
x,x-y,z
-y,-x,z
y,x,z
x-y,-y,z
-x,-x+y,z
loop_
_atom_site_type_symbol
_atom_site_label
_atom_site_fract_x
_atom_site_fract_y
_atom_site_fract_z
Si Si1 0.922555 0.706123 0.636240
Si Si2 0.342547 0.074325 0.217798
Si Si3 0.261525 0.875285 0.440143
Si Si4 0.527054 0.605934 0.942121
Si Si5 0.197151 0.664876 0.364489
Si Si6 0.690157 0.513163 0.131707
Si Si7 0.258354 0.384154 0.842486
Si Si8 0.073987 0.274413 0.014936
O O1 0.864189 0.728377 0.620159
O O2 0.915467 0.649445 0.549333
O O3 0.915070 0.671336 0.751480
O O4 0.000000 0.771630 0.628694
O O5 0.332912 0.085090 0.343343
O O6 0.411741 0.137497 0.179522
O O7 0.283545 0.073902 0.143874
O O8 0.337086 0.000000 0.204038
O O9 0.200088 0.799913 0.451643
O O10 0.327027 0.865344 0.415804
O O11 0.459078 0.540923 0.896131
O O12 0.582533 0.582533 0.974311
O O13 0.556110 0.662574 0.846465
O O14 0.504178 0.634564 0.043508
O O15 0.191857 0.595929 0.412838
O O16 0.270490 0.729511 0.394771
O O17 0.190663 0.655476 0.234708
O O18 0.750363 0.500725 0.082940
O O19 0.207430 0.414859 0.827057
O O20 0.246314 0.348168 0.959127
O O21 0.121572 0.243144 0.983235
O O22 0.000000 0.221035 0.969675
#
# Coordination Sequence:
#
# PCOD8326507 Si02
#       8
#    12  12  12  12  12  12  12  12
#     4  10  20  35  56  79 103 131 165 201 237 282
#     4  10  17  26  44  68  95 124 157 197 242 289
#     4   9  18  31  47  69  96 129 165 201 244 291
#     4  11  21  31  45  68  97 127 161 200 247 301
#     4   9  17  29  46  67  93 126 167 211 254 298
#     4  10  18  29  44  64  93 129 164 199 244 298
#     4  10  20  35  54  73  95 127 165 204 243 283
#     4  10  18  28  46  71  96 122 156 196 236 279
#
# _framework density 17.523143999999998
#
# number of rings (size 3 to 8) (size 9 to 14) (size 15 to 20)
#    0.000    2.125    1.250    4.625    0.000    0.000 
#    0.000    0.625    0.000   11.250    0.000    0.000 
#    0.000    3.000    0.000    4.000    0.000    0.000 
#
# Total GULP energy -1189348.304533 kJ/mol
# GULP energy per Si atom -12389.044839 kJ/mol
# Density = 1.748326 g / cm^3
# Si number density = 17.523144 Si / 1000 Ang^3
#
#
#
# Elastic Constant Matrix: (Units=GPa)
#
#
# Indices 1 2 3 4 5 6 
#
# 1 104.4438 34.8750 23.6884 0.0000 0.0000 0.0000
# 2 34.8750 104.4438 23.6884 0.0000 0.0000 0.0000
# 3 23.6884 23.6884 65.9353 0.0000 0.0000 0.0000
# 4 0.0000 0.0000 0.0000 15.6206 0.0000 0.0000
# 5 0.0000 0.0000 0.0000 0.0000 15.6206 0.0000
# 6 0.0000 0.0000 0.0000 0.0000 0.0000 34.7844
#
#
#
# Elastic Compliance Matrix: (Units=1/GPa)
#
#
# Indices 1 2 3 4 5 6 
#
# 1 0.011276 -0.003099 -0.002938 0.000000 0.000000 0.000000
# 2 -0.003099 0.011276 -0.002938 0.000000 0.000000 0.000000
# 3 -0.002938 -0.002938 0.017277 0.000000 0.000000 0.000000
# 4 0.000000 0.000000 0.000000 0.064018 0.000000 0.000000
# 5 0.000000 0.000000 0.000000 0.000000 0.064018 0.000000
# 6 0.000000 0.000000 0.000000 0.000000 0.000000 0.028749
#
#
# Mechanical properties :
#
#
# Convention : Reuss Voigt Hill
#
# Bulk Modulus (GPa) = 45.70359 48.81407 47.25883
# Shear Modulus (GPa) = 22.53728 26.04317 24.29023
#
# Velocity S-wave (km/s) = 3.59018 3.85933 3.72718
# Velocity P-wave (km/s) = 6.58212 6.91206 6.74911
#
# Compressibility (1/GPa) = 0.02188012
#
# Stress axis : x y z
#
# Youngs Moduli (GPa) = 88.68778 88.68778 57.87985
#
# Poissons Ratio (x) = 0.27482 0.17003
# Poissons Ratio (y) = 0.27482 0.17003
# Poissons Ratio (z) = 0.26053 0.26053
#
# Static dielectric constant tensor:
#      x y z
#    x 3.285430 0.000000 0.000000 
#    y 0.000000 3.285430 0.000000 
#    z 0.000000 0.000000 3.338100 
# 
# 
# High freq. dielectric constant tensor:
#      x y z
#    x 1.663240 0.000000 0.000000 
#    y 0.000000 1.663240 0.000000 
#    z 0.000000 0.000000 1.663380 
# 
# From -- ./inp_files/2049.got.cif
#   From: 2010.03.12/outbox.cif.g09.slc.cpg/sg183_2_cif.got.tgz:2049.got - 2010.04.01 11:53:02.
