data_PCOD8326828
_publ_section_title
;
Structure prediction by ZEFSAII (Michael W. Deem and Ramdas Pophale) SiO2 
 PCOD8326828
Probable space group: P -6 M 2
;
_chemical_formula_sum "Si O2"
_cell_formula_units_Z 96
_cell_length_a 17.932306
_cell_length_b 17.932306
_cell_length_c 25.092627
_cell_angle_alpha 90.000000
_cell_angle_beta 90.000000
_cell_angle_gamma 120.000000
_cell_volume 6987.938029
_symmetry_space_group_name_H-M "P -6 M 2"
_symmetry_group_IT_number 187
_symmetry_cell_setting 'hexagonal'
loop_
_space_group_symop_operation_xyz
x,y,z
-x+y,-x,-z
-y,x-y,z
x,y,-z
-x+y,-x,z
-y,x-y,-z
-y,-x,-z
-x+y,y,-z
x,x-y,-z
-x+y,y,z
x,x-y,z
-y,-x,z
loop_
_atom_site_type_symbol
_atom_site_label
_atom_site_fract_x
_atom_site_fract_y
_atom_site_fract_z
Si Si1 0.860333 0.302368 0.720024
Si Si2 0.401105 0.424304 0.855659
Si Si3 0.158942 0.666650 0.640530
Si Si4 0.404516 0.986208 0.440010
Si Si5 0.333017 0.840153 0.938973
Si Si6 0.833988 0.333166 0.396162
Si Si7 0.834407 0.333089 0.836821
Si Si8 0.391752 0.434565 0.262766
O O1 0.803337 0.196664 0.720304
O O2 0.835335 0.336580 0.667896
O O3 0.836289 0.337248 0.772616
O O4 0.963430 0.341284 0.719747
O O5 0.492511 0.507490 0.864519
O O6 0.337579 0.421059 0.902154
O O7 0.418790 0.343985 0.858125
O O8 0.361953 0.429256 0.798430
O O9 0.177323 0.588662 0.632332
O O10 0.246086 0.753914 0.630989
O O11 0.090131 0.662925 0.597736
O O12 0.124447 0.665846 0.700104
O O13 0.367798 0.969354 0.500000
O O14 0.494386 0.988771 0.436708
O O15 0.419702 0.077712 0.418983
O O16 0.412104 0.824207 0.927350
O O17 0.247034 0.752967 0.924378
O O18 0.333101 0.867125 0.000000
O O19 0.820364 0.410182 0.417397
O O20 0.756446 0.243554 0.417945
O O21 0.819427 0.409714 0.857527
O O22 0.757564 0.242437 0.858527
O O23 0.493001 0.507000 0.269494
#
# Coordination Sequence:
#
# PCOD8326828 Si02
#       8
#    12  12  12  12  12  12  12  12
#     4   9  15  22  36  56  77 103 132 159 186 219
#     4   8  15  25  37  54  77 104 130 156 190 229
#     4  10  19  30  44  58  72  92 123 163 202 237
#     4   9  18  31  43  53  70  98 126 154 194 234
#     4   9  16  26  40  57  76  99 129 164 198 231
#     4  10  17  25  38  57  80 105 133 159 182 213
#     4   9  15  22  34  53  78 106 137 168 194 217
#     4   9  15  26  40  54  78 106 126 151 192 234
#
# _framework density 13.737958000000001
#
# number of rings (size 3 to 8) (size 9 to 14) (size 15 to 20)
#    0.000    2.875    1.250    2.375    0.000    1.500 
#    0.000    1.250    0.000    3.625    0.000    0.000 
#    0.000    1.000    0.000    3.375    0.000   18.750 
#
# Total GULP energy -1189654.603759 kJ/mol
# GULP energy per Si atom -12392.235456 kJ/mol
# Density = 1.370669 g / cm^3
# Si number density = 13.737958 Si / 1000 Ang^3
#
#
#
# Elastic Constant Matrix: (Units=GPa)
#
#
# Indices 1 2 3 4 5 6 
#
# 1 77.4780 37.6011 39.3500 0.0000 0.0001 0.0000
# 2 37.6011 77.4780 39.3500 0.0000 -0.0001 0.0000
# 3 39.3500 39.3500 75.0792 0.0000 0.0000 0.0000
# 4 0.0000 0.0000 0.0000 15.0154 0.0000 -0.0001
# 5 0.0001 -0.0001 0.0000 0.0000 15.0154 0.0000
# 6 0.0000 0.0000 0.0000 -0.0001 0.0000 19.9384
#
#
#
# Elastic Compliance Matrix: (Units=1/GPa)
#
#
# Indices 1 2 3 4 5 6 
#
# 1 0.019311 -0.005766 -0.007099 0.000000 0.000000 0.000000
# 2 -0.005766 0.019311 -0.007099 0.000000 0.000000 0.000000
# 3 -0.007099 -0.007099 0.020760 0.000000 0.000000 0.000000
# 4 0.000000 0.000000 0.000000 0.066598 0.000000 0.000000
# 5 0.000000 0.000000 0.000000 0.000000 0.066598 0.000000
# 6 0.000000 0.000000 0.000000 0.000000 0.000000 0.050154
#
#
# Mechanical properties :
#
#
# Convention : Reuss Voigt Hill
#
# Bulk Modulus (GPa) = 51.40325 51.40412 51.40369
# Shear Modulus (GPa) = 17.29232 17.57611 17.43421
#
# Velocity S-wave (km/s) = 3.55170 3.58073 3.56624
# Velocity P-wave (km/s) = 7.37005 7.38879 7.37943
#
# Compressibility (1/GPa) = 0.01945402
#
# Stress axis : x y z
#
# Youngs Moduli (GPa) = 51.78455 51.78455 48.16868
#
# Poissons Ratio (x) = 0.29861 0.34194
# Poissons Ratio (y) = 0.29861 0.34194
# Poissons Ratio (z) = 0.36761 0.36761
#
# Static dielectric constant tensor:
#      x y z
#    x 2.602160 0.000000 0.000000 
#    y 0.000000 2.602160 0.000000 
#    z 0.000000 0.000000 2.796100 
# 
# 
# High freq. dielectric constant tensor:
#      x y z
#    x 1.493830 0.000000 0.000000 
#    y 0.000000 1.493830 0.000000 
#    z 0.000000 0.000000 1.522730 
# 
# From -- ./inp_files/4065.got.cif
#   From: 2010.03.12/outbox.cif.g09.slc.cpg/sg187_3_cif.got.tgz:4065.got - 2010.04.01 11:58:23.
