data_PCOD8326584
_publ_section_title
;
Structure prediction by ZEFSAII (Michael W. Deem and Ramdas Pophale) SiO2 
 PCOD8326584
Probable space group: P 6 C C
;
_chemical_formula_sum "Si O2"
_cell_formula_units_Z 72
_cell_length_a 14.326629
_cell_length_b 14.326629
_cell_length_c 18.616462
_cell_angle_alpha 90.000000
_cell_angle_beta 90.000000
_cell_angle_gamma 120.000000
_cell_volume 3309.145089
_symmetry_space_group_name_H-M "P 6 C C"
_symmetry_group_IT_number 184
_symmetry_cell_setting 'hexagonal'
loop_
_space_group_symop_operation_xyz
x,y,z
x-y,x,z
-y,x-y,z
-x,-y,z
-x+y,-x,z
y,-x+y,z
-x+y,y,1/2+z
x,x-y,1/2+z
-y,-x,1/2+z
y,x,1/2+z
x-y,-y,1/2+z
-x,-x+y,1/2+z
loop_
_atom_site_type_symbol
_atom_site_label
_atom_site_fract_x
_atom_site_fract_y
_atom_site_fract_z
Si Si1 0.834748 0.064245 0.953270
Si Si2 0.622501 0.083063 0.755353
Si Si3 0.222506 0.196214 0.786262
Si Si4 0.445637 0.570294 0.401408
Si Si5 0.538640 0.764375 0.975598
Si Si6 0.227260 0.688866 0.123638
O O1 0.832340 0.039771 0.869680
O O2 0.755752 0.109753 0.971564
O O3 0.948898 0.151302 0.988664
O O4 0.691439 0.026168 0.775777
O O5 0.611009 0.148159 0.823102
O O6 0.693557 0.162820 0.691996
O O7 0.500000 0.000000 0.729953
O O8 0.128023 0.215333 0.752713
O O9 0.500000 0.500000 0.419051
O O10 0.536141 0.696644 0.410060
O O11 0.357942 0.556013 0.461766
O O12 0.528940 0.816409 0.050197
O O13 0.217845 0.571227 0.126370
#
# Coordination Sequence:
#
# PCOD8326584 Si02
#       6
#    12  12  12  12  12  12
#     4  10  21  38  64  96 129 169 218 280 345 403
#     4  11  26  40  66 102 139 180 231 285 355 420
#     4  10  22  41  68  99 137 176 231 287 348 416
#     4  11  24  38  64  98 129 166 227 277 339 401
#     4  12  21  42  64  94 130 178 218 280 334 415
#     4  10  24  43  60  90 135 179 224 266 345 422
#
# _framework density 21.757885999999999
#
# number of rings (size 3 to 8) (size 9 to 14) (size 15 to 20)
#    0.333    1.000    3.333    1.667   11.667    2.000 
#    3.000    0.000    0.000    0.000    0.000    2.333 
#    0.000    0.000    0.000    0.000    0.000    0.000 
#
# Total GULP energy -892031.518762 kJ/mol
# GULP energy per Si atom -12389.326649 kJ/mol
# Density = 2.170836 g / cm^3
# Si number density = 21.757886 Si / 1000 Ang^3
#
#
#
# Elastic Constant Matrix: (Units=GPa)
#
#
# Indices 1 2 3 4 5 6 
#
# 1 88.2183 16.8035 25.1371 0.0000 0.0000 0.0000
# 2 16.8035 88.2183 25.1371 0.0000 0.0000 0.0000
# 3 25.1371 25.1371 92.5689 0.0000 0.0000 0.0000
# 4 0.0000 0.0000 0.0000 19.3927 0.0000 0.0000
# 5 0.0000 0.0000 0.0000 0.0000 19.3927 0.0000
# 6 0.0000 0.0000 0.0000 0.0000 0.0000 35.7074
#
#
#
# Elastic Compliance Matrix: (Units=1/GPa)
#
#
# Indices 1 2 3 4 5 6 
#
# 1 0.012474 -0.001529 -0.002972 0.000000 0.000000 0.000000
# 2 -0.001529 0.012474 -0.002972 0.000000 0.000000 0.000000
# 3 -0.002972 -0.002972 0.012417 0.000000 0.000000 0.000000
# 4 0.000000 0.000000 0.000000 0.051566 0.000000 0.000000
# 5 0.000000 0.000000 0.000000 0.000000 0.051566 0.000000
# 6 0.000000 0.000000 0.000000 0.000000 0.000000 0.028005
#
#
# Mechanical properties :
#
#
# Convention : Reuss Voigt Hill
#
# Bulk Modulus (GPa) = 44.60709 44.79565 44.70137
# Shear Modulus (GPa) = 26.18902 28.36042 27.27472
#
# Velocity S-wave (km/s) = 3.47314 3.61426 3.54440
# Velocity P-wave (km/s) = 6.05225 6.16847 6.11064
#
# Compressibility (1/GPa) = 0.02241796
#
# Stress axis : x y z
#
# Youngs Moduli (GPa) = 80.16919 80.16919 80.53566
#
# Poissons Ratio (x) = 0.12259 0.23935
# Poissons Ratio (y) = 0.12259 0.23935
# Poissons Ratio (z) = 0.23826 0.23826
#
# Static dielectric constant tensor:
#      x y z
#    x 3.980330 0.000000 0.000000 
#    y 0.000000 3.980330 0.000000 
#    z 0.000000 0.000000 3.500630 
# 
# 
# High freq. dielectric constant tensor:
#      x y z
#    x 1.859100 0.000000 0.000000 
#    y 0.000000 1.859100 0.000000 
#    z 0.000000 0.000000 1.813110 
# 
# From -- ./inp_files/1085.got.cif
#   From: 2010.03.12/outbox.cif.g09.slc.cpg/sg184_cif.got.tgz:1085.got - 2010.04.01 11:54:36.
