data_PCOD8326542
_publ_section_title
;
Structure prediction by ZEFSAII (Michael W. Deem and Ramdas Pophale) SiO2 
 PCOD8326542
Probable space group: P 6 M M
;
_chemical_formula_sum "Si O2"
_cell_formula_units_Z 60
_cell_length_a 17.809693
_cell_length_b 17.809693
_cell_length_c 12.693283
_cell_angle_alpha 90.000000
_cell_angle_beta 90.000000
_cell_angle_gamma 120.000000
_cell_volume 3486.723116
_symmetry_space_group_name_H-M "P 6 M M"
_symmetry_group_IT_number 183
_symmetry_cell_setting 'hexagonal'
loop_
_space_group_symop_operation_xyz
x,y,z
x-y,x,z
-y,x-y,z
-x,-y,z
-x+y,-x,z
y,-x+y,z
-x+y,y,z
x,x-y,z
-y,-x,z
y,x,z
x-y,-y,z
-x,-x+y,z
loop_
_atom_site_type_symbol
_atom_site_label
_atom_site_fract_x
_atom_site_fract_y
_atom_site_fract_z
Si Si1 0.100273 0.466141 0.534250
Si Si2 0.495504 0.164186 0.760448
Si Si3 0.367616 0.100692 0.332804
Si Si4 0.101951 0.634333 0.134394
Si Si5 0.098543 0.733062 0.939903
O O1 0.127740 0.563870 0.498540
O O2 0.151004 0.467100 0.638720
O O3 0.121604 0.419594 0.441493
O O4 0.000000 0.414334 0.563438
O O5 0.571344 0.142688 0.781945
O O6 0.527407 0.263704 0.790168
O O7 0.413777 0.100857 0.831992
O O8 0.324734 0.162367 0.326317
O O9 0.437957 0.128321 0.240476
O O10 0.292148 0.000000 0.324085
O O11 0.144836 0.572418 0.133270
O O12 0.000000 0.573852 0.130015
O O13 0.132853 0.696881 0.033585
O O14 0.162816 0.837184 0.934074
O O15 0.000000 0.712375 0.958856
#
# Coordination Sequence:
#
# PCOD8326542 Si02
#       5
#    12  12  12  12  12
#     4   9  17  29  46  67  90 119 155 192 230 275
#     4  10  19  30  45  67  96 127 157 189 227 272
#     4  10  19  31  48  69  93 122 158 198 237 277
#     4   9  17  30  49  71  93 118 148 181 219 266
#     4  10  20  33  50  71  94 122 157 196 235 275
#
# _framework density 17.208136
#
# number of rings (size 3 to 8) (size 9 to 14) (size 15 to 20)
#    0.000    2.400    0.000    3.200    0.000    4.400 
#    0.000    0.000    0.000   10.000    0.000    0.000 
#    0.000    4.800    0.000    6.400    0.000    0.000 
#
# Total GULP energy -743839.757885 kJ/mol
# GULP energy per Si atom -12397.329298 kJ/mol
# Density = 1.716897 g / cm^3
# Si number density = 17.208136 Si / 1000 Ang^3
#
#
#
# Elastic Constant Matrix: (Units=GPa)
#
#
# Indices 1 2 3 4 5 6 
#
# 1 85.2106 52.0503 34.7264 0.0000 0.0000 0.0000
# 2 52.0503 85.2106 34.7264 0.0000 0.0000 0.0000
# 3 34.7264 34.7264 79.6536 0.0000 0.0000 0.0000
# 4 0.0000 0.0000 0.0000 14.2534 0.0000 0.0000
# 5 0.0000 0.0000 0.0000 0.0000 14.2534 0.0000
# 6 0.0000 0.0000 0.0000 0.0000 0.0000 16.5801
#
#
#
# Elastic Compliance Matrix: (Units=1/GPa)
#
#
# Indices 1 2 3 4 5 6 
#
# 1 0.019752 -0.010405 -0.004075 0.000000 0.000000 0.000000
# 2 -0.010405 0.019752 -0.004075 0.000000 0.000000 0.000000
# 3 -0.004075 -0.004075 0.016108 0.000000 0.000000 0.000000
# 4 0.000000 0.000000 0.000000 0.070159 0.000000 0.000000
# 5 0.000000 0.000000 0.000000 0.000000 0.070159 0.000000
# 6 0.000000 0.000000 0.000000 0.000000 0.000000 0.060313
#
#
# Mechanical properties :
#
#
# Convention : Reuss Voigt Hill
#
# Bulk Modulus (GPa) = 54.04886 54.78678 54.41782
# Shear Modulus (GPa) = 16.69339 17.58881 17.14110
#
# Velocity S-wave (km/s) = 3.11800 3.20053 3.15954
# Velocity P-wave (km/s) = 6.66631 6.75016 6.70837
#
# Compressibility (1/GPa) = 0.01850178
#
# Stress axis : x y z
#
# Youngs Moduli (GPa) = 50.62782 50.62782 62.08238
#
# Poissons Ratio (x) = 0.52676 0.25300
# Poissons Ratio (y) = 0.52676 0.25300
# Poissons Ratio (z) = 0.20632 0.20632
#
# Static dielectric constant tensor:
#      x y z
#    x 3.068810 0.000000 0.000000 
#    y 0.000000 3.068810 0.000000 
#    z 0.000000 0.000000 3.358430 
# 
# 
# High freq. dielectric constant tensor:
#      x y z
#    x 1.642360 0.000000 0.000000 
#    y 0.000000 1.642360 0.000000 
#    z 0.000000 0.000000 1.682230 
# 
# From -- ./inp_files/1585.got.cif
#   From: 2010.03.12/outbox.cif.g09.slc.cpg/sg183_1_cif.got.tgz:1585.got - 2010.04.01 11:53:02.
