data_PCOD8326909
_publ_section_title
;
Structure prediction by ZEFSAII (Michael W. Deem and Ramdas Pophale) SiO2 
 PCOD8326909
Probable space group: P -6 M 2
;
_chemical_formula_sum "Si O2"
_cell_formula_units_Z 90
_cell_length_a 18.600631
_cell_length_b 18.600631
_cell_length_c 17.069366
_cell_angle_alpha 90.000000
_cell_angle_beta 90.000000
_cell_angle_gamma 120.000000
_cell_volume 5114.502284
_symmetry_space_group_name_H-M "P -6 M 2"
_symmetry_group_IT_number 187
_symmetry_cell_setting 'hexagonal'
loop_
_space_group_symop_operation_xyz
x,y,z
-x+y,-x,-z
-y,x-y,z
x,y,-z
-x+y,-x,z
-y,x-y,-z
-y,-x,-z
-x+y,y,-z
x,x-y,-z
-x+y,y,z
x,x-y,z
-y,-x,z
loop_
_atom_site_type_symbol
_atom_site_label
_atom_site_fract_x
_atom_site_fract_y
_atom_site_fract_z
Si Si1 0.512004 0.178239 0.091733
Si Si2 0.996303 0.634528 0.090203
Si Si3 0.166504 0.999747 0.324965
Si Si4 0.164251 0.164305 0.000000
Si Si5 0.497017 0.666376 0.854699
Si Si6 0.959377 0.754882 0.161878
Si Si7 0.499544 0.832700 0.671140
Si Si8 0.667494 0.919058 0.411057
O O1 0.602342 0.204683 0.127433
O O2 0.481502 0.240751 0.126971
O O3 0.455819 0.080451 0.107993
O O4 0.519036 0.192171 0.000000
O O5 0.085334 0.641485 0.098721
O O6 0.981456 0.682317 0.162623
O O7 0.989800 0.661025 0.000000
O O8 0.074420 0.925581 0.345581
O O9 0.237842 0.989463 0.369057
O O10 0.173745 0.086873 0.350517
O O11 0.180382 0.997402 0.232044
O O12 0.208582 0.209179 0.921109
O O13 0.079352 0.158704 0.000000
O O14 0.144885 0.072443 0.000000
O O15 0.512142 0.756071 0.882787
O O16 0.401991 0.598010 0.873005
O O17 0.515268 0.668422 0.763076
O O18 0.860617 0.721234 0.161239
O O19 0.420335 0.840669 0.644528
O O20 0.482082 0.741041 0.647388
O O21 0.582804 0.904700 0.629406
O O22 0.668726 0.947535 0.500000
O O23 0.668586 0.834293 0.405903
#
# Coordination Sequence:
#
# PCOD8326909 Si02
#       8
#    12  12  12   6  12  12  12  12
#     4   9  17  29  47  68  91 117 148 190 242 301
#     4  11  21  33  48  69  93 126 164 209 253 312
#     4  10  20  34  52  72  96 130 173 217 258 303
#     4  10  19  30  44  62  87 118 154 198 250 304
#     4  10  21  36  52  69  92 125 167 212 256 298
#     4  10  20  33  48  68  95 126 160 205 260 308
#     4   9  17  31  52  76 102 132 165 200 240 293
#     4   9  18  32  49  72 103 133 160 197 245 292
#
# _framework density 17.597020000000001
#
# number of rings (size 3 to 8) (size 9 to 14) (size 15 to 20)
#    0.000    2.267    0.667    2.600    0.000    5.867 
#    0.000    1.333    0.000    2.400    0.000    0.000 
#    0.000    0.000    0.000    0.400    0.000    1.733 
#
# Total GULP energy -1114960.258995 kJ/mol
# GULP energy per Si atom -12388.447322 kJ/mol
# Density = 1.755697 g / cm^3
# Si number density = 17.597020 Si / 1000 Ang^3
#
#
#
# Elastic Constant Matrix: (Units=GPa)
#
#
# Indices 1 2 3 4 5 6 
#
# 1 112.5171 56.9095 28.6459 0.0000 0.0001 0.0000
# 2 56.9095 112.5171 28.6459 0.0000 -0.0001 0.0000
# 3 28.6459 28.6459 55.1840 0.0000 0.0000 0.0000
# 4 0.0000 0.0000 0.0000 20.5533 0.0000 -0.0001
# 5 0.0001 -0.0001 0.0000 0.0000 20.5533 0.0000
# 6 0.0000 0.0000 0.0000 -0.0001 0.0000 27.8038
#
#
#
# Elastic Compliance Matrix: (Units=1/GPa)
#
#
# Indices 1 2 3 4 5 6 
#
# 1 0.012571 -0.005412 -0.003716 0.000000 0.000000 0.000000
# 2 -0.005412 0.012571 -0.003716 0.000000 0.000000 0.000000
# 3 -0.003716 -0.003716 0.021979 0.000000 0.000000 0.000000
# 4 0.000000 0.000000 0.000000 0.048654 0.000000 0.000000
# 5 0.000000 0.000000 0.000000 0.000000 0.048654 0.000000
# 6 0.000000 0.000000 0.000000 0.000000 0.000000 0.035966
#
#
# Mechanical properties :
#
#
# Convention : Reuss Voigt Hill
#
# Bulk Modulus (GPa) = 46.65828 56.51341 51.58585
# Shear Modulus (GPa) = 23.44900 24.84988 24.14944
#
# Velocity S-wave (km/s) = 3.65438 3.76195 3.70856
# Velocity P-wave (km/s) = 6.66171 7.14526 6.90772
#
# Compressibility (1/GPa) = 0.02143242
#
# Stress axis : x y z
#
# Youngs Moduli (GPa) = 79.54811 79.54811 45.49736
#
# Poissons Ratio (x) = 0.43052 0.16908
# Poissons Ratio (y) = 0.43052 0.16908
# Poissons Ratio (z) = 0.29561 0.29561
#
# Static dielectric constant tensor:
#      x y z
#    x 3.334750 0.000000 0.000000 
#    y 0.000000 3.334750 0.000000 
#    z 0.000000 0.000000 3.086470 
# 
# 
# High freq. dielectric constant tensor:
#      x y z
#    x 1.678750 0.000000 0.000000 
#    y 0.000000 1.678750 0.000000 
#    z 0.000000 0.000000 1.648350 
# 
# From -- ./inp_files/3249.got.cif
#   From: 2010.03.12/outbox.cif.g09.slc.cpg/sg187_2_cif.got.tgz:3249.got - 2010.04.01 11:58:23.
