data_PCOD8326832
_publ_section_title
;
Structure prediction by ZEFSAII (Michael W. Deem and Ramdas Pophale) SiO2 
 PCOD8326832
Probable space group: P -6 M 2
;
_chemical_formula_sum "Si O2"
_cell_formula_units_Z 84
_cell_length_a 23.038401
_cell_length_b 23.038401
_cell_length_c 12.084691
_cell_angle_alpha 90.000000
_cell_angle_beta 90.000000
_cell_angle_gamma 120.000000
_cell_volume 5554.830972
_symmetry_space_group_name_H-M "P -6 M 2"
_symmetry_group_IT_number 187
_symmetry_cell_setting 'hexagonal'
loop_
_space_group_symop_operation_xyz
x,y,z
-x+y,-x,-z
-y,x-y,z
x,y,-z
-x+y,-x,z
-y,x-y,-z
-y,-x,-z
-x+y,y,-z
x,x-y,-z
-x+y,y,z
x,x-y,z
-y,-x,z
loop_
_atom_site_type_symbol
_atom_site_label
_atom_site_fract_x
_atom_site_fract_y
_atom_site_fract_z
Si Si1 0.158502 0.514022 0.500000
Si Si2 0.535905 0.935735 0.127035
Si Si3 0.460640 0.057275 0.724816
Si Si4 0.153188 0.716375 0.711746
Si Si5 0.856163 0.274658 0.373357
Si Si6 0.931860 0.737460 0.370237
Si Si7 0.001753 0.564552 0.500000
Si Si8 0.710834 0.921188 0.630876
O O1 0.190861 0.595431 0.500000
O O2 0.178849 0.488695 0.390774
O O3 0.080037 0.481784 0.500000
O O4 0.461390 0.922779 0.143779
O O5 0.538829 0.877013 0.191845
O O6 0.588904 0.009856 0.172181
O O7 0.553645 0.933092 0.000000
O O8 0.536578 0.073155 0.723631
O O9 0.459258 0.126531 0.718880
O O10 0.416659 0.020166 0.614451
O O11 0.218352 0.781649 0.759561
O O12 0.097459 0.735678 0.677022
O O13 0.869710 0.302528 0.500000
O O14 0.778000 0.222000 0.358840
O O15 0.900249 0.240765 0.345033
O O16 0.936768 0.750429 0.500000
O O17 0.880932 0.761863 0.321422
O O18 0.007372 0.776518 0.319897
O O19 0.968660 0.484330 0.500000
O O20 0.705494 0.925872 0.500000
O O21 0.730012 0.865006 0.663895
#
# Coordination Sequence:
#
# PCOD8326832 Si02
#       8
#     6  12  12  12  12  12   6  12
#     4  11  19  29  45  68  93 114 138 178 232 281
#     4  10  21  35  49  65  84 110 148 192 232 267
#     4  10  17  27  45  67  88 113 146 186 227 265
#     4  11  20  30  46  67  89 115 144 176 226 284
#     4   9  16  24  37  62  93 119 141 166 202 255
#     4   8  14  22  33  51  78 113 142 163 194 238
#     4   9  16  23  40  68  88 106 134 174 228 273
#     4   9  16  25  39  62  89 112 137 175 218 262
#
# _framework density 15.121973000000001
#
# number of rings (size 3 to 8) (size 9 to 14) (size 15 to 20)
#    0.000    2.429    2.857    2.357    0.000    0.286 
#    0.000    0.000    0.000    5.000    0.000    2.000 
#    0.000    0.000    0.000    0.000    0.000    0.000 
#
# Total GULP energy -1040793.887138 kJ/mol
# GULP energy per Si atom -12390.403418 kJ/mol
# Density = 1.508755 g / cm^3
# Si number density = 15.121973 Si / 1000 Ang^3
#
#
#
# Elastic Constant Matrix: (Units=GPa)
#
#
# Indices 1 2 3 4 5 6 
#
# 1 85.0386 43.2807 34.2656 0.0000 -0.0001 0.0000
# 2 43.2807 85.0386 34.2656 0.0000 0.0001 0.0000
# 3 34.2656 34.2656 68.1994 0.0000 0.0000 0.0000
# 4 0.0000 0.0000 0.0000 12.0926 0.0000 0.0001
# 5 -0.0001 0.0001 0.0000 0.0000 12.0926 0.0000
# 6 0.0000 0.0000 0.0000 0.0001 0.0000 20.8789
#
#
#
# Elastic Compliance Matrix: (Units=1/GPa)
#
#
# Indices 1 2 3 4 5 6 
#
# 1 0.017299 -0.006648 -0.005351 0.000000 0.000000 0.000000
# 2 -0.006648 0.017299 -0.005351 0.000000 0.000000 0.000000
# 3 -0.005351 -0.005351 0.020040 0.000000 0.000000 0.000000
# 4 0.000000 0.000000 0.000000 0.082695 0.000000 0.000000
# 5 0.000000 0.000000 0.000000 0.000000 0.082695 0.000000
# 6 0.000000 0.000000 0.000000 0.000000 0.000000 0.047895
#
#
# Mechanical properties :
#
#
# Convention : Reuss Voigt Hill
#
# Bulk Modulus (GPa) = 50.15861 51.32224 50.74042
# Shear Modulus (GPa) = 16.16698 17.44381 16.80540
#
# Velocity S-wave (km/s) = 3.27326 3.40007 3.33727
# Velocity P-wave (km/s) = 6.89399 7.03040 6.96252
#
# Compressibility (1/GPa) = 0.01993676
#
# Stress axis : x y z
#
# Youngs Moduli (GPa) = 57.80569 57.80569 49.89926
#
# Poissons Ratio (x) = 0.38431 0.26703
# Poissons Ratio (y) = 0.38431 0.26703
# Poissons Ratio (z) = 0.30934 0.30934
#
# Static dielectric constant tensor:
#      x y z
#    x 3.074130 0.000000 0.000000 
#    y 0.000000 3.074130 0.000000 
#    z 0.000000 0.000000 2.617130 
# 
# 
# High freq. dielectric constant tensor:
#      x y z
#    x 1.573930 0.000000 0.000000 
#    y 0.000000 1.573930 0.000000 
#    z 0.000000 0.000000 1.532350 
# 
# From -- ./inp_files/2045.got.cif
#   From: 2010.03.12/outbox.cif.g09.slc.cpg/sg187_2_cif.got.tgz:2045.got - 2010.04.01 11:58:23.
