data_PCOD8326967
_publ_section_title
;
Structure prediction by ZEFSAII (Michael W. Deem and Ramdas Pophale) SiO2 
 PCOD8326967
Probable space group: P -6 M 2
;
_chemical_formula_sum "Si O2"
_cell_formula_units_Z 96
_cell_length_a 17.031994
_cell_length_b 17.031994
_cell_length_c 24.022910
_cell_angle_alpha 90.000000
_cell_angle_beta 90.000000
_cell_angle_gamma 120.000000
_cell_volume 6035.138440
_symmetry_space_group_name_H-M "P -6 M 2"
_symmetry_group_IT_number 187
_symmetry_cell_setting 'hexagonal'
loop_
_space_group_symop_operation_xyz
x,y,z
-x+y,-x,-z
-y,x-y,z
x,y,-z
-x+y,-x,z
-y,x-y,-z
-y,-x,-z
-x+y,y,-z
x,x-y,-z
-x+y,y,z
x,x-y,z
-y,-x,z
loop_
_atom_site_type_symbol
_atom_site_label
_atom_site_fract_x
_atom_site_fract_y
_atom_site_fract_z
Si Si1 0.178634 0.178205 0.198916
Si Si2 0.518267 0.665012 0.725783
Si Si3 0.516527 0.667030 0.937549
Si Si4 0.486280 0.151860 0.436604
Si Si5 0.822244 0.822301 0.669239
Si Si6 0.162212 0.494999 0.564869
Si Si7 0.013691 0.656587 0.370034
Si Si8 0.628178 0.906690 0.833909
O O1 0.189126 0.094563 0.177457
O O2 0.186447 0.187509 0.264916
O O3 0.262092 0.270443 0.173891
O O4 0.080701 0.161401 0.179446
O O5 0.526338 0.763169 0.715485
O O6 0.413304 0.586697 0.724306
O O7 0.575927 0.644215 0.680934
O O8 0.559728 0.661127 0.785374
O O9 0.495221 0.747610 0.927596
O O10 0.424543 0.575458 0.926602
O O11 0.590898 0.673718 0.893565
O O12 0.553558 0.670588 0.000000
O O13 0.452597 0.115928 0.500000
O O14 0.591828 0.183655 0.431326
O O15 0.473365 0.236683 0.423378
O O16 0.433879 0.076443 0.389151
O O17 0.813178 0.906589 0.647842
O O18 0.745222 0.731449 0.641697
O O19 0.918697 0.837394 0.649546
O O20 0.175302 0.507953 0.500000
O O21 0.254931 0.509861 0.592571
O O22 0.141493 0.570747 0.590550
O O23 0.081564 0.394651 0.577652
O O24 0.638611 0.819306 0.831850
#
# Coordination Sequence:
#
# PCOD8326967 Si02
#       8
#    12  12  12  12  12  12  12  12
#     4   9  16  28  46  67  90 118 154 195 237 281
#     4  11  21  32  45  64  95 135 170 198 230 277
#     4   9  16  26  42  64  91 126 168 210 245 277
#     4  10  21  38  58  77  95 117 149 191 239 290
#     4  10  19  32  49  69  92 119 151 188 229 274
#     4  10  20  33  48  65  87 118 155 192 226 263
#     4  12  21  32  48  71  98 120 147 187 233 277
#     4   9  17  29  43  63  92 123 159 202 242 279
#
# _framework density 15.906841999999999
#
# number of rings (size 3 to 8) (size 9 to 14) (size 15 to 20)
#    0.000    2.000    1.250    4.125    0.000    3.500 
#    0.000    2.500    0.000    0.375    0.000    0.000 
#    0.000    7.000    0.000    0.500    0.000    1.750 
#
# Total GULP energy -1189929.410557 kJ/mol
# GULP energy per Si atom -12395.098027 kJ/mol
# Density = 1.587064 g / cm^3
# Si number density = 15.906842 Si / 1000 Ang^3
#
#
#
# Elastic Constant Matrix: (Units=GPa)
#
#
# Indices 1 2 3 4 5 6 
#
# 1 89.0355 32.5751 43.8678 0.0000 -0.0001 0.0000
# 2 32.5751 89.0355 43.8678 0.0000 0.0001 0.0000
# 3 43.8678 43.8678 66.8824 0.0000 0.0000 0.0000
# 4 0.0000 0.0000 0.0000 22.2114 0.0000 0.0001
# 5 -0.0001 0.0001 0.0000 0.0000 22.2114 0.0000
# 6 0.0000 0.0000 0.0000 0.0001 0.0000 28.2302
#
#
#
# Elastic Compliance Matrix: (Units=1/GPa)
#
#
# Indices 1 2 3 4 5 6 
#
# 1 0.016660 -0.001051 -0.010238 0.000000 0.000000 0.000000
# 2 -0.001051 0.016660 -0.010238 0.000000 0.000000 0.000000
# 3 -0.010238 -0.010238 0.028382 0.000000 0.000000 0.000000
# 4 0.000000 0.000000 0.000000 0.045022 0.000000 0.000000
# 5 0.000000 0.000000 0.000000 0.000000 0.045022 0.000000
# 6 0.000000 0.000000 0.000000 0.000000 0.000000 0.035423
#
#
# Mechanical properties :
#
#
# Convention : Reuss Voigt Hill
#
# Bulk Modulus (GPa) = 53.62475 53.95278 53.78877
# Shear Modulus (GPa) = 21.14706 22.84010 21.99358
#
# Velocity S-wave (km/s) = 3.65009 3.79339 3.72243
# Velocity P-wave (km/s) = 7.17978 7.29233 7.23627
#
# Compressibility (1/GPa) = 0.01864811
#
# Stress axis : x y z
#
# Youngs Moduli (GPa) = 60.02289 60.02289 35.23404
#
# Poissons Ratio (x) = 0.06310 0.36072
# Poissons Ratio (y) = 0.06310 0.36072
# Poissons Ratio (z) = 0.61451 0.61451
#
# Static dielectric constant tensor:
#      x y z
#    x 3.098930 0.000000 0.000000 
#    y 0.000000 3.098930 0.000000 
#    z 0.000000 0.000000 3.027680 
# 
# 
# High freq. dielectric constant tensor:
#      x y z
#    x 1.604880 0.000000 0.000000 
#    y 0.000000 1.604880 0.000000 
#    z 0.000000 0.000000 1.595700 
# 
# From -- ./inp_files/4074.got.cif
#   From: 2010.03.12/outbox.cif.g09.slc.cpg/sg187_3_cif.got.tgz:4074.got - 2010.04.01 11:58:23.
