data_PCOD8326334
_publ_section_title
;
Structure prediction by ZEFSAII (Michael W. Deem and Ramdas Pophale) SiO2 
 PCOD8326334
Probable space group: P 64 2 2
;
_chemical_formula_sum "Si O2"
_cell_formula_units_Z 60
_cell_length_a 27.536159
_cell_length_b 27.536159
_cell_length_c 6.108999
_cell_angle_alpha 90.000000
_cell_angle_beta 90.000000
_cell_angle_gamma 120.000000
_cell_volume 4011.505640
_symmetry_space_group_name_H-M "P 64 2 2"
_symmetry_group_IT_number 181
_symmetry_cell_setting 'hexagonal'
loop_
_space_group_symop_operation_xyz
x,y,z
x-y,x,2/3+z
-y,x-y,1/3+z
-x,-y,z
-x+y,-x,2/3+z
y,-x+y,1/3+z
x-y,-y,-z
-x,-x+y,2/3-z
y,x,1/3-z
-y,-x,1/3-z
-x+y,y,-z
x,x-y,2/3-z
loop_
_atom_site_type_symbol
_atom_site_label
_atom_site_fract_x
_atom_site_fract_y
_atom_site_fract_z
Si Si1 0.052404 0.657581 0.459734
Si Si2 0.726655 0.173359 0.787685
Si Si3 0.749016 0.498031 0.500000
Si Si4 0.430342 0.430342 0.166667
Si Si5 0.349450 0.542265 0.209349
Si Si6 0.586109 0.500634 0.497090
O O1 0.109313 0.716012 0.524933
O O2 0.071682 0.628724 0.281570
O O3 0.000000 0.659517 0.333334
O O4 0.035297 0.623387 0.682252
O O5 0.785949 0.214052 0.666667
O O6 0.673499 0.173115 0.665401
O O7 0.729947 0.193392 0.037018
O O8 0.703756 0.459057 0.321203
O O9 0.445720 0.485516 0.307611
O O10 0.392529 0.607472 0.166667
O O11 0.380275 0.525275 0.386755
O O12 0.541386 0.458615 0.666667
#
# Coordination Sequence:
#
# PCOD8326334 Si02
#       6
#    12  12   6   6  12  12
#     4  10  20  33  49  70  94 118 143 177 218 262
#     4  10  20  36  55  72  86 118 148 179 219 272
#     4  10  22  38  56  66  84 106 150 178 226 267
#     4  10  22  35  44  68 102 118 144 168 214 260
#     4  11  22  36  56  66  86 110 143 181 226 269
#     4  11  22  33  48  68  93 121 142 170 215 272
#
# _framework density 14.956979
#
# number of rings (size 3 to 8) (size 9 to 14) (size 15 to 20)
#    0.000    1.600    4.000    1.200    0.000    4.400 
#    0.000    0.000   22.000    0.000    0.000    0.000 
#    0.000    0.000    0.000    0.000    0.000    0.000 
#
# Total GULP energy -743285.432690 kJ/mol
# GULP energy per Si atom -12388.090545 kJ/mol
# Density = 1.492294 g / cm^3
# Si number density = 14.956979 Si / 1000 Ang^3
#
#
#
# Elastic Constant Matrix: (Units=GPa)
#
#
# Indices 1 2 3 4 5 6 
#
# 1 65.5937 33.5108 25.0150 0.0000 0.0000 0.0000
# 2 33.5108 65.5937 25.0150 0.0000 0.0000 0.0000
# 3 25.0150 25.0150 80.9602 0.0000 0.0000 0.0000
# 4 0.0000 0.0000 0.0000 23.5347 0.0000 0.0000
# 5 0.0000 0.0000 0.0000 0.0000 23.5347 0.0000
# 6 0.0000 0.0000 0.0000 0.0000 0.0000 16.0415
#
#
#
# Elastic Compliance Matrix: (Units=1/GPa)
#
#
# Indices 1 2 3 4 5 6 
#
# 1 0.021562 -0.009607 -0.003694 0.000000 0.000000 0.000000
# 2 -0.009607 0.021562 -0.003694 0.000000 0.000000 0.000000
# 3 -0.003694 -0.003694 0.014634 0.000000 0.000000 0.000000
# 4 0.000000 0.000000 0.000000 0.042490 0.000000 0.000000
# 5 0.000000 0.000000 0.000000 0.000000 0.042490 0.000000
# 6 0.000000 0.000000 0.000000 0.000000 0.000000 0.062338
#
#
# Mechanical properties :
#
#
# Convention : Reuss Voigt Hill
#
# Bulk Modulus (GPa) = 42.07140 42.13658 42.10399
# Shear Modulus (GPa) = 20.24368 21.19596 20.71982
#
# Velocity S-wave (km/s) = 3.68293 3.76856 3.72599
# Velocity P-wave (km/s) = 6.80255 6.86797 6.83534
#
# Compressibility (1/GPa) = 0.02376911
#
# Stress axis : x y z
#
# Youngs Moduli (GPa) = 46.37756 46.37756 68.33215
#
# Poissons Ratio (x) = 0.44555 0.25241
# Poissons Ratio (y) = 0.44555 0.25241
# Poissons Ratio (z) = 0.17131 0.17131
#
# Static dielectric constant tensor:
#      x y z
#    x 2.945780 0.000000 0.000000 
#    y 0.000000 2.945780 0.000000 
#    z 0.000000 0.000000 3.305890 
# 
# 
# High freq. dielectric constant tensor:
#      x y z
#    x 1.537570 0.000000 0.000000 
#    y 0.000000 1.537570 0.000000 
#    z 0.000000 0.000000 1.606190 
# 
# From -- ./inp_files/1472.got.cif
#   From: 2010.03.12/outbox.cif.g09.slc.cpg/sg181_1_cif.got.tgz:1472.got - 2010.04.01 11:42:41.
