data_PCOD8326038
_publ_section_title
;
Structure prediction by ZEFSAII (Michael W. Deem and Ramdas Pophale) SiO2 
 PCOD8326038
Probable space group: P 65 2 2
;
_chemical_formula_sum "Si O2"
_cell_formula_units_Z 84
_cell_length_a 22.976829
_cell_length_b 22.976829
_cell_length_c 11.142169
_cell_angle_alpha 90.000000
_cell_angle_beta 90.000000
_cell_angle_gamma 120.000000
_cell_volume 5094.253556
_symmetry_space_group_name_H-M "P 65 2 2"
_symmetry_group_IT_number 179
_symmetry_cell_setting 'hexagonal'
loop_
_space_group_symop_operation_xyz
x,y,z
x-y,x,5/6+z
-y,x-y,2/3+z
-x,-y,1/2+z
-x+y,-x,1/3+z
y,-x+y,1/6+z
x-y,-y,-z
-x,-x+y,1/3-z
y,x,2/3-z
-y,-x,1/6-z
-x+y,y,1/2-z
x,x-y,5/6-z
loop_
_atom_site_type_symbol
_atom_site_label
_atom_site_fract_x
_atom_site_fract_y
_atom_site_fract_z
Si Si1 0.581158 0.490097 0.748450
Si Si2 0.200416 0.688235 0.417408
Si Si3 0.521273 0.170595 0.988196
Si Si4 0.798021 0.201980 0.083334
Si Si5 0.621748 0.696967 0.798685
Si Si6 0.534526 0.661628 0.586439
Si Si7 0.345264 0.594587 0.465673
Si Si8 0.024837 0.512419 0.916667
O O1 0.618057 0.470011 0.645552
O O2 0.534197 0.426317 0.830494
O O3 0.637111 0.550330 0.825418
O O4 0.532175 0.513125 0.693748
O O5 0.183193 0.690713 0.277335
O O6 0.199451 0.751035 0.475671
O O7 0.274851 0.697691 0.428834
O O8 0.469230 0.159941 0.878987
O O9 0.595288 0.233688 0.960953
O O10 0.873446 0.232375 0.136488
O O11 0.680617 0.680617 0.833334
O O12 0.607236 0.701247 0.655487
O O13 0.475735 0.657590 0.670665
O O14 0.519891 0.588971 0.546234
O O15 0.359996 0.640005 0.583334
#
# Coordination Sequence:
#
# PCOD8326038 Si02
#       8
#    12  12  12   6  12  12  12   6
#     4  11  21  31  47  71  94 124 154 200 258 299
#     4  11  21  37  49  62  93 123 158 201 260 306
#     4  11  21  35  49  71  91 121 157 204 258 297
#     4  10  22  38  56  68  99 124 154 206 236 310
#     4  11  20  35  57  75  93 128 159 195 252 298
#     4  11  20  32  52  71  94 115 152 206 247 295
#     4  10  20  36  48  63  85 119 157 201 244 300
#     4  12  18  32  48  74  97 114 156 206 254 298
#
# _framework density 16.489167999999999
#
# number of rings (size 3 to 8) (size 9 to 14) (size 15 to 20)
#    0.000    1.143    7.857    0.857    0.000    2.286 
#    5.143    0.000    0.000    0.000    0.000    0.000 
#    0.000    0.000    0.000    0.000    0.000    0.000 
#
# Total GULP energy -1040867.354517 kJ/mol
# GULP energy per Si atom -12391.278030 kJ/mol
# Density = 1.645164 g / cm^3
# Si number density = 16.489168 Si / 1000 Ang^3
#
#
#
# Elastic Constant Matrix: (Units=GPa)
#
#
# Indices 1 2 3 4 5 6 
#
# 1 56.0996 24.7118 21.8197 0.0000 0.0000 0.0000
# 2 24.7118 56.0996 21.8197 0.0000 0.0000 0.0000
# 3 21.8197 21.8197 89.6164 0.0000 0.0000 0.0000
# 4 0.0000 0.0000 0.0000 13.7618 0.0000 0.0000
# 5 0.0000 0.0000 0.0000 0.0000 13.7618 0.0000
# 6 0.0000 0.0000 0.0000 0.0000 0.0000 15.6939
#
#
#
# Elastic Compliance Matrix: (Units=1/GPa)
#
#
# Indices 1 2 3 4 5 6 
#
# 1 0.023054 -0.008806 -0.003469 0.000000 0.000000 0.000000
# 2 -0.008806 0.023054 -0.003469 0.000000 0.000000 0.000000
# 3 -0.003469 -0.003469 0.012848 0.000000 0.000000 0.000000
# 4 0.000000 0.000000 0.000000 0.072665 0.000000 0.000000
# 5 0.000000 0.000000 0.000000 0.000000 0.072665 0.000000
# 6 0.000000 0.000000 0.000000 0.000000 0.000000 0.063719
#
#
# Mechanical properties :
#
#
# Convention : Reuss Voigt Hill
#
# Bulk Modulus (GPa) = 36.40675 37.61310 37.00993
# Shear Modulus (GPa) = 16.19970 17.54113 16.87041
#
# Velocity S-wave (km/s) = 3.13780 3.26513 3.20210
# Velocity P-wave (km/s) = 5.93758 6.08893 6.01373
#
# Compressibility (1/GPa) = 0.02746743
#
# Stress axis : x y z
#
# Youngs Moduli (GPa) = 43.37701 43.37701 77.83338
#
# Poissons Ratio (x) = 0.38197 0.27001
# Poissons Ratio (y) = 0.38197 0.27001
# Poissons Ratio (z) = 0.15048 0.15048
#
# Static dielectric constant tensor:
#      x y z
#    x 2.995720 0.000000 0.000000 
#    y 0.000000 2.995720 0.000000 
#    z 0.000000 0.000000 0.406200 
# 
# 
# High freq. dielectric constant tensor:
#      x y z
#    x 1.591600 0.000000 0.000000 
#    y 0.000000 1.591600 0.000000 
#    z 0.000000 0.000000 1.661630 
# 
# From -- ./inp_files/5055.got.cif
#   From: 2010.03.12/outbox.cif.g09.slc.cpg/sg179_3_cif.got.tgz:5055.got - 2010.04.02 07:08:42.
