data_PCOD8326098
_publ_section_title
;
Structure prediction by ZEFSAII (Michael W. Deem and Ramdas Pophale) SiO2 
 PCOD8326098
Probable space group: P 65 2 2
;
_chemical_formula_sum "Si O2"
_cell_formula_units_Z 60
_cell_length_a 10.928446
_cell_length_b 10.928446
_cell_length_c 30.290676
_cell_angle_alpha 90.000000
_cell_angle_beta 90.000000
_cell_angle_gamma 120.000000
_cell_volume 3132.971316
_symmetry_space_group_name_H-M "P 65 2 2"
_symmetry_group_IT_number 179
_symmetry_cell_setting 'hexagonal'
loop_
_space_group_symop_operation_xyz
x,y,z
x-y,x,5/6+z
-y,x-y,2/3+z
-x,-y,1/2+z
-x+y,-x,1/3+z
y,-x+y,1/6+z
x-y,-y,-z
-x,-x+y,1/3-z
y,x,2/3-z
-y,-x,1/6-z
-x+y,y,1/2-z
x,x-y,5/6-z
loop_
_atom_site_type_symbol
_atom_site_label
_atom_site_fract_x
_atom_site_fract_y
_atom_site_fract_z
Si Si1 0.562083 0.721700 0.590078
Si Si2 0.587339 0.546401 0.464894
Si Si3 0.528676 0.431697 0.291172
Si Si4 0.353578 0.192874 0.836751
Si Si5 0.464769 0.342704 0.546428
O O1 0.432913 0.567088 0.583334
O O2 0.520423 0.801812 0.625809
O O3 0.597726 0.814510 0.546779
O O4 0.687806 0.691052 0.604479
O O5 0.483190 0.500049 0.422502
O O6 0.668278 0.713831 0.477900
O O7 0.497022 0.443237 0.503969
O O8 0.461256 0.461256 0.333334
O O9 0.696608 0.520431 0.298627
O O10 0.460109 0.263719 0.294670
O O11 0.217244 0.217244 0.833334
O O12 0.583318 0.416683 0.583334
#
# Coordination Sequence:
#
# PCOD8326098 Si02
#       5
#    12  12  12  12  12
#     4  11  22  40  61  96 127 161 210 267 316 382
#     4  12  23  39  69  89 133 172 209 269 327 376
#     4  11  24  41  64  97 127 166 219 268 325 385
#     4  11  21  40  61  94 125 162 217 260 314 384
#     4  11  24  39  63  94 130 162 216 265 323 384
#
# _framework density 19.151149
#
# number of rings (size 3 to 8) (size 9 to 14) (size 15 to 20)
#    0.000    0.800    8.000    3.000    2.800    0.000 
#    0.000    1.000    0.000    2.400    0.000    0.000 
#    0.000    0.000    0.000    0.000    0.000    0.000 
#
# Total GULP energy -743329.088281 kJ/mol
# GULP energy per Si atom -12388.818138 kJ/mol
# Density = 1.910756 g / cm^3
# Si number density = 19.151149 Si / 1000 Ang^3
#
#
#
# Elastic Constant Matrix: (Units=GPa)
#
#
# Indices 1 2 3 4 5 6 
#
# 1 71.3283 31.4406 22.5399 0.0000 0.0000 0.0000
# 2 31.4406 71.3283 22.5399 0.0000 0.0000 0.0000
# 3 22.5399 22.5399 109.8221 0.0000 0.0000 0.0000
# 4 0.0000 0.0000 0.0000 88.6576 0.0000 0.0000
# 5 0.0000 0.0000 0.0000 0.0000 88.6576 0.0000
# 6 0.0000 0.0000 0.0000 0.0000 0.0000 19.9438
#
#
#
# Elastic Compliance Matrix: (Units=1/GPa)
#
#
# Indices 1 2 3 4 5 6 
#
# 1 0.017882 -0.007189 -0.002195 0.000000 0.000000 0.000000
# 2 -0.007189 0.017882 -0.002195 0.000000 0.000000 0.000000
# 3 -0.002195 -0.002195 0.010007 0.000000 0.000000 0.000000
# 4 0.000000 0.000000 0.000000 0.011279 0.000000 0.000000
# 5 0.000000 0.000000 0.000000 0.000000 0.011279 0.000000
# 6 0.000000 0.000000 0.000000 0.000000 0.000000 0.050141
#
#
# Mechanical properties :
#
#
# Convention : Reuss Voigt Hill
#
# Bulk Modulus (GPa) = 44.21978 45.05771 44.63874
# Shear Modulus (GPa) = 33.52022 51.18237 42.35130
#
# Velocity S-wave (km/s) = 4.18820 5.17528 4.70768
# Velocity P-wave (km/s) = 6.82114 7.69999 7.27385
#
# Compressibility (1/GPa) = 0.02261431
#
# Stress axis : x y z
#
# Youngs Moduli (GPa) = 55.92265 55.92265 99.93501
#
# Poissons Ratio (x) = 0.40200 0.21933
# Poissons Ratio (y) = 0.40200 0.21933
# Poissons Ratio (z) = 0.12273 0.12273
#
# Static dielectric constant tensor:
#      x y z
#    x 3.374260 0.000000 0.000000 
#    y 0.000000 3.374260 0.000000 
#    z 0.000000 0.000000 3.736500 
# 
# 
# High freq. dielectric constant tensor:
#      x y z
#    x 1.732890 0.000000 0.000000 
#    y 0.000000 1.732890 0.000000 
#    z 0.000000 0.000000 1.770020 
# 
# From -- ./inp_files/8847.got.cif
#   From: 2010.03.12/outbox.cif.g09.slc.cpg/sg179_5_cif.got.tgz:8847.got - 2010.04.02 07:08:42.
