data_PCOD8326536
_publ_section_title
;
Structure prediction by ZEFSAII (Michael W. Deem and Ramdas Pophale) SiO2 
 PCOD8326536
Probable space group: P 6 M M
;
_chemical_formula_sum "Si O2"
_cell_formula_units_Z 96
_cell_length_a 18.261835
_cell_length_b 18.261835
_cell_length_c 20.064584
_cell_angle_alpha 90.000000
_cell_angle_beta 90.000000
_cell_angle_gamma 120.000000
_cell_volume 5794.949033
_symmetry_space_group_name_H-M "P 6 M M"
_symmetry_group_IT_number 183
_symmetry_cell_setting 'hexagonal'
loop_
_space_group_symop_operation_xyz
x,y,z
x-y,x,z
-y,x-y,z
-x,-y,z
-x+y,-x,z
y,-x+y,z
-x+y,y,z
x,x-y,z
-y,-x,z
y,x,z
x-y,-y,z
-x,-x+y,z
loop_
_atom_site_type_symbol
_atom_site_label
_atom_site_fract_x
_atom_site_fract_y
_atom_site_fract_z
Si Si1 0.904302 0.260501 0.149130
Si Si2 0.095698 0.739502 0.363872
Si Si3 0.094402 0.634111 0.756500
Si Si4 0.331356 0.833584 0.617117
Si Si5 0.742043 0.648230 0.516779
Si Si6 0.504753 0.836417 0.256502
Si Si7 0.502229 0.833585 0.895883
Si Si8 0.351772 0.257958 0.996223
O O1 0.838371 0.161630 0.166539
O O2 0.881372 0.320843 0.191316
O O3 0.895596 0.279042 0.072184
O O4 0.000000 0.281825 0.165593
O O5 0.161628 0.838373 0.346462
O O6 0.104404 0.720962 0.440818
O O7 0.118629 0.679160 0.321687
O O8 0.000000 0.718177 0.347409
O O9 0.092021 0.546011 0.756500
O O10 0.142241 0.685642 0.690593
O O11 0.142239 0.685642 0.822407
O O12 0.000000 0.619505 0.756499
O O13 0.424991 0.849981 0.609123
O O14 0.264566 0.735435 0.604257
O O15 0.321116 0.891899 0.562885
O O16 0.839497 0.678993 0.534446
O O17 0.726914 0.726914 0.529227
O O18 0.424671 0.849341 0.256503
O O19 0.473868 0.736934 0.256501
O O20 0.424991 0.849981 0.903876
O O21 0.470869 0.735435 0.908742
O O22 0.570782 0.891897 0.950116
O O23 0.321008 0.160504 0.978559
O O24 0.273088 0.273088 0.983775
#
# Coordination Sequence:
#
# PCOD8326536 Si02
#       8
#    12  12  12  12  12  12  12  12
#     4   9  18  32  49  69  92 118 148 182 223 269
#     4   9  18  32  49  69  92 118 148 182 223 269
#     4   9  17  28  42  60  82 111 149 191 229 262
#     4  10  19  30  44  63  89 121 155 188 222 262
#     4   9  18  32  49  68  90 117 148 183 224 269
#     4  10  20  33  48  67  92 122 155 190 226 261
#     4  10  19  30  44  63  89 121 155 188 222 262
#     4   9  18  32  49  68  90 117 148 183 224 269
#
# _framework density 16.56615
#
# number of rings (size 3 to 8) (size 9 to 14) (size 15 to 20)
#    0.000    2.625    0.000    1.875    0.000    3.500 
#    0.000    3.750    0.000    3.500    0.000    3.500 
#    0.000    3.000    0.000    0.250    0.000   26.000 
#
# Total GULP energy -1190157.882126 kJ/mol
# GULP energy per Si atom -12397.477939 kJ/mol
# Density = 1.652844 g / cm^3
# Si number density = 16.566150 Si / 1000 Ang^3
#
#
#
# Elastic Constant Matrix: (Units=GPa)
#
#
# Indices 1 2 3 4 5 6 
#
# 1 100.6411 70.7606 49.1572 0.0000 0.0000 0.0000
# 2 70.7606 100.6411 49.1572 0.0000 0.0000 0.0000
# 3 49.1572 49.1572 92.6253 0.0000 0.0000 0.0000
# 4 0.0000 0.0000 0.0000 23.5893 0.0000 0.0000
# 5 0.0000 0.0000 0.0000 0.0000 23.5893 0.0000
# 6 0.0000 0.0000 0.0000 0.0000 0.0000 14.9403
#
#
#
# Elastic Compliance Matrix: (Units=1/GPa)
#
#
# Indices 1 2 3 4 5 6 
#
# 1 0.020927 -0.012540 -0.004451 0.000000 0.000000 0.000000
# 2 -0.012540 0.020927 -0.004451 0.000000 0.000000 0.000000
# 3 -0.004451 -0.004451 0.015521 0.000000 0.000000 0.000000
# 4 0.000000 0.000000 0.000000 0.042392 0.000000 0.000000
# 5 0.000000 0.000000 0.000000 0.000000 0.042392 0.000000
# 6 0.000000 0.000000 0.000000 0.000000 0.000000 0.066933
#
#
# Mechanical properties :
#
#
# Convention : Reuss Voigt Hill
#
# Bulk Modulus (GPa) = 69.01030 70.22860 69.61945
# Shear Modulus (GPa) = 19.46989 20.74596 20.10793
#
# Velocity S-wave (km/s) = 3.43196 3.54264 3.48774
# Velocity P-wave (km/s) = 7.57973 7.69536 7.63776
#
# Compressibility (1/GPa) = 0.01449059
#
# Stress axis : x y z
#
# Youngs Moduli (GPa) = 47.78513 47.78513 64.42922
#
# Poissons Ratio (x) = 0.59920 0.28680
# Poissons Ratio (y) = 0.59920 0.28680
# Poissons Ratio (z) = 0.21271 0.21271
#
# Static dielectric constant tensor:
#      x y z
#    x 3.057480 0.000000 0.000000 
#    y 0.000000 3.057480 0.000000 
#    z 0.000000 0.000000 3.342150 
# 
# 
# High freq. dielectric constant tensor:
#      x y z
#    x 1.623770 0.000000 0.000000 
#    y 0.000000 1.623770 0.000000 
#    z 0.000000 0.000000 1.653790 
# 
# From -- ./inp_files/3029.got.cif
#   From: 2010.03.12/outbox.cif.g09.slc.cpg/sg183_2_cif.got.tgz:3029.got - 2010.04.01 11:53:02.
