data_PCOD8326861
_publ_section_title
;
Structure prediction by ZEFSAII (Michael W. Deem and Ramdas Pophale) SiO2 
 PCOD8326861
Probable space group: P -6 M 2
;
_chemical_formula_sum "Si O2"
_cell_formula_units_Z 90
_cell_length_a 17.155538
_cell_length_b 17.155538
_cell_length_c 20.993191
_cell_angle_alpha 90.000000
_cell_angle_beta 90.000000
_cell_angle_gamma 120.000000
_cell_volume 5350.788353
_symmetry_space_group_name_H-M "P -6 M 2"
_symmetry_group_IT_number 187
_symmetry_cell_setting 'hexagonal'
loop_
_space_group_symop_operation_xyz
x,y,z
-x+y,-x,-z
-y,x-y,z
x,y,-z
-x+y,-x,z
-y,x-y,-z
-y,-x,-z
-x+y,y,-z
x,x-y,-z
-x+y,y,z
x,x-y,z
-y,-x,z
loop_
_atom_site_type_symbol
_atom_site_label
_atom_site_fract_x
_atom_site_fract_y
_atom_site_fract_z
Si Si1 0.087055 0.737053 0.197047
Si Si2 0.039991 0.431430 0.428515
Si Si3 0.178787 0.999960 0.276309
Si Si4 0.482834 0.334148 0.000000
Si Si5 0.489330 0.155091 0.748752
Si Si6 0.610821 0.567042 0.873768
Si Si7 0.739203 0.085706 0.641673
Si Si8 0.511588 0.666713 0.307892
O O1 0.185286 0.814715 0.173370
O O2 0.026417 0.780955 0.215997
O O3 0.096130 0.688326 0.259913
O O4 0.041251 0.665479 0.140311
O O5 0.075986 0.434510 0.500000
O O6 0.004571 0.502286 0.421130
O O7 0.120633 0.455459 0.379411
O O8 0.957948 0.331479 0.415357
O O9 0.082408 0.917593 0.296668
O O10 0.169621 0.084811 0.254564
O O11 0.242464 0.024097 0.338227
O O12 0.429454 0.339998 0.060786
O O13 0.586242 0.413759 0.000000
O O14 0.481402 0.240701 0.000000
O O15 0.572970 0.145939 0.724350
O O16 0.518354 0.259177 0.747918
O O17 0.461191 0.118918 0.819810
O O18 0.405475 0.095200 0.703697
O O19 0.504343 0.495658 0.877881
O O20 0.817104 0.182897 0.617556
O O21 0.480863 0.740432 0.305350
O O22 0.428308 0.571693 0.287186
#
# Coordination Sequence:
#
# PCOD8326861 Si02
#       8
#    12  12  12   6  12  12  12  12
#     4  10  19  32  53  76  99 128 163 205 253 299
#     4  10  20  33  48  67  95 130 165 200 241 292
#     4  10  19  31  48  71  97 123 153 195 247 300
#     4  10  21  34  51  74 106 144 178 206 239 286
#     4  10  18  28  45  69  98 128 159 200 248 299
#     4  10  19  32  49  72 102 135 169 205 245 290
#     4  10  19  31  49  70  92 121 162 208 251 297
#     4  10  19  32  50  74 102 130 160 196 241 292
#
# _framework density 16.819951
#
# number of rings (size 3 to 8) (size 9 to 14) (size 15 to 20)
#    0.000    2.000    2.667    1.667    0.000    3.200 
#    0.000    1.667    0.000    1.333    0.000    0.000 
#    0.000    1.067    0.000    0.000    0.000    0.000 
#
# Total GULP energy -1116145.876804 kJ/mol
# GULP energy per Si atom -12401.620853 kJ/mol
# Density = 1.678167 g / cm^3
# Si number density = 16.819951 Si / 1000 Ang^3
#
#
#
# Elastic Constant Matrix: (Units=GPa)
#
#
# Indices 1 2 3 4 5 6 
#
# 1 108.3507 53.7533 39.1860 0.0000 0.0003 0.0000
# 2 53.7533 108.3507 39.1860 0.0000 -0.0003 0.0000
# 3 39.1860 39.1860 83.4915 0.0000 0.0000 0.0000
# 4 0.0000 0.0000 0.0000 21.8033 0.0000 -0.0003
# 5 0.0003 -0.0003 0.0000 0.0000 21.8033 0.0000
# 6 0.0000 0.0000 0.0000 -0.0003 0.0000 27.2987
#
#
#
# Elastic Compliance Matrix: (Units=1/GPa)
#
#
# Indices 1 2 3 4 5 6 
#
# 1 0.013148 -0.005168 -0.003745 0.000000 0.000000 0.000000
# 2 -0.005168 0.013148 -0.003745 0.000000 0.000000 0.000000
# 3 -0.003745 -0.003745 0.015493 0.000000 0.000000 0.000000
# 4 0.000000 0.000000 0.000000 0.045865 0.000000 0.000001
# 5 0.000000 0.000000 0.000000 0.000000 0.045865 0.000000
# 6 0.000000 0.000000 0.000000 0.000001 0.000000 0.036632
#
#
# Mechanical properties :
#
#
# Convention : Reuss Voigt Hill
#
# Bulk Modulus (GPa) = 60.71163 62.71596 61.71379
# Shear Modulus (GPa) = 24.88102 25.38557 25.13329
#
# Velocity S-wave (km/s) = 3.85028 3.88913 3.86975
# Velocity P-wave (km/s) = 7.47928 7.58516 7.53241
#
# Compressibility (1/GPa) = 0.01647131
#
# Stress axis : x y z
#
# Youngs Moduli (GPa) = 76.05888 76.05888 64.54630
#
# Poissons Ratio (x) = 0.39309 0.24173
# Poissons Ratio (y) = 0.39309 0.24173
# Poissons Ratio (z) = 0.28485 0.28485
#
# Static dielectric constant tensor:
#      x y z
#    x 3.235040 0.000000 0.000000 
#    y 0.000000 3.235040 0.000000 
#    z 0.000000 0.000000 2.945820 
# 
# 
# High freq. dielectric constant tensor:
#      x y z
#    x 1.654790 0.000000 0.000000 
#    y 0.000000 1.654790 0.000000 
#    z 0.000000 0.000000 1.616400 
# 
# From -- ./inp_files/3244.got.cif
#   From: 2010.03.12/outbox.cif.g09.slc.cpg/sg187_2_cif.got.tgz:3244.got - 2010.04.01 11:58:23.
