data_PCOD8326863
_publ_section_title
;
Structure prediction by ZEFSAII (Michael W. Deem and Ramdas Pophale) SiO2 
 PCOD8326863
Probable space group: P -6 M 2
;
_chemical_formula_sum "Si O2"
_cell_formula_units_Z 72
_cell_length_a 23.661436
_cell_length_b 23.661436
_cell_length_c 9.037584
_cell_angle_alpha 90.000000
_cell_angle_beta 90.000000
_cell_angle_gamma 120.000000
_cell_volume 4381.927371
_symmetry_space_group_name_H-M "P -6 M 2"
_symmetry_group_IT_number 187
_symmetry_cell_setting 'hexagonal'
loop_
_space_group_symop_operation_xyz
x,y,z
-x+y,-x,-z
-y,x-y,z
x,y,-z
-x+y,-x,z
-y,x-y,-z
-y,-x,-z
-x+y,y,-z
x,x-y,-z
-x+y,y,z
x,x-y,z
-y,-x,z
loop_
_atom_site_type_symbol
_atom_site_label
_atom_site_fract_x
_atom_site_fract_y
_atom_site_fract_z
Si Si1 0.742476 0.708919 0.327221
Si Si2 0.299761 0.823807 0.175751
Si Si3 0.109135 0.554568 0.823099
Si Si4 0.655247 0.557247 0.331783
Si Si5 0.785093 0.570185 0.331875
Si Si6 0.672104 0.771346 0.169482
Si Si7 0.851282 0.148719 0.173545
Si Si8 0.519741 0.480260 0.174830
O O1 0.756439 0.717501 0.500000
O O2 0.691251 0.633510 0.287635
O O3 0.716075 0.755756 0.275153
O O4 0.811082 0.734173 0.243999
O O5 0.250170 0.749831 0.233075
O O6 0.372056 0.852353 0.241734
O O7 0.272633 0.870740 0.225774
O O8 0.301941 0.822554 0.000000
O O9 0.034780 0.517390 0.764175
O O10 0.109409 0.554705 0.000000
O O11 0.629909 0.547135 0.500000
O O12 0.706400 0.529955 0.311941
O O13 0.594206 0.516867 0.226764
O O14 0.800316 0.600632 0.500000
O O15 0.813051 0.626101 0.209878
O O16 0.694895 0.847448 0.184336
O O17 0.678566 0.753982 0.000000
O O18 0.857393 0.142608 0.000000
O O19 0.519581 0.480420 0.000000
#
# Coordination Sequence:
#
# PCOD8326863 Si02
#       8
#    12  12   6  12   6  12   6   6
#     4  10  19  31  47  68  95 124 154 190 231 274
#     4   8  14  25  39  56  81 115 154 197 244 290
#     4   9  16  25  37  57  86 116 151 197 244 290
#     4   9  18  32  48  66  91 121 151 187 231 281
#     4   8  16  32  50  67  89 118 148 181 225 271
#     4   9  17  29  45  64  90 125 160 193 235 287
#     4  10  18  28  46  70  95 121 148 178 216 266
#     4  11  21  29  43  68  94 121 155 194 239 289
#
# _framework density 16.431125000000002
#
# number of rings (size 3 to 8) (size 9 to 14) (size 15 to 20)
#    0.000    2.833    0.000    4.500    0.000    5.000 
#    0.500    0.000    0.000    0.333    0.000    1.167 
#    0.833    0.000    1.500    0.000    2.333    0.000 
#
# Total GULP energy -892407.277691 kJ/mol
# GULP energy per Si atom -12394.545523 kJ/mol
# Density = 1.639373 g / cm^3
# Si number density = 16.431125 Si / 1000 Ang^3
#
#
#
# Elastic Constant Matrix: (Units=GPa)
#
#
# Indices 1 2 3 4 5 6 
#
# 1 108.1583 61.0143 37.7736 0.0000 0.0000 0.0000
# 2 61.0143 108.1583 37.7736 0.0000 0.0000 0.0000
# 3 37.7736 37.7736 62.5362 0.0000 0.0000 0.0000
# 4 0.0000 0.0000 0.0000 21.4925 0.0000 0.0000
# 5 0.0000 0.0000 0.0000 0.0000 21.4925 0.0000
# 6 0.0000 0.0000 0.0000 0.0000 0.0000 23.5720
#
#
#
# Elastic Compliance Matrix: (Units=1/GPa)
#
#
# Indices 1 2 3 4 5 6 
#
# 1 0.014653 -0.006559 -0.004889 0.000000 0.000000 0.000000
# 2 -0.006559 0.014653 -0.004889 0.000000 0.000000 0.000000
# 3 -0.004889 -0.004889 0.021897 0.000000 0.000000 0.000000
# 4 0.000000 0.000000 0.000000 0.046528 0.000000 0.000000
# 5 0.000000 0.000000 0.000000 0.000000 0.046528 0.000000
# 6 0.000000 0.000000 0.000000 0.000000 0.000000 0.042423
#
#
# Mechanical properties :
#
#
# Convention : Reuss Voigt Hill
#
# Bulk Modulus (GPa) = 53.96921 61.33066 57.64993
# Shear Modulus (GPa) = 22.16971 22.79750 22.48361
#
# Velocity S-wave (km/s) = 3.67720 3.72890 3.70314
# Velocity P-wave (km/s) = 7.13765 7.47974 7.31070
#
# Compressibility (1/GPa) = 0.01852908
#
# Stress axis : x y z
#
# Youngs Moduli (GPa) = 68.24503 68.24503 45.66774
#
# Poissons Ratio (x) = 0.44759 0.22328
# Poissons Ratio (y) = 0.44759 0.22328
# Poissons Ratio (z) = 0.33367 0.33367
#
# Static dielectric constant tensor:
#      x y z
#    x 3.166630 0.000000 0.000000 
#    y 0.000000 3.166630 0.000000 
#    z 0.000000 0.000000 2.840660 
# 
# 
# High freq. dielectric constant tensor:
#      x y z
#    x 1.620670 0.000000 0.000000 
#    y 0.000000 1.620670 0.000000 
#    z 0.000000 0.000000 1.613300 
# 
# From -- ./inp_files/1105.got.cif
#   From: 2010.03.12/outbox.cif.g09.slc.cpg/sg187_1_cif.got.tgz:1105.got - 2010.04.01 11:58:23.
