data_PCOD8326734
_publ_section_title
;
Structure prediction by ZEFSAII (Michael W. Deem and Ramdas Pophale) SiO2 
 PCOD8326734
Probable space group: P 63 M C
;
_chemical_formula_sum "Si O2"
_cell_formula_units_Z 60
_cell_length_a 22.876874
_cell_length_b 22.876874
_cell_length_c 7.977695
_cell_angle_alpha 90.000000
_cell_angle_beta 90.000000
_cell_angle_gamma 120.000000
_cell_volume 3615.775191
_symmetry_space_group_name_H-M "P 63 M C"
_symmetry_group_IT_number 186
_symmetry_cell_setting 'hexagonal'
loop_
_space_group_symop_operation_xyz
x,y,z
x-y,x,1/2+z
-y,x-y,z
-x,-y,1/2+z
-x+y,-x,z
y,-x+y,1/2+z
-x+y,y,z
x,x-y,z
-y,-x,z
y,x,1/2+z
x-y,-y,1/2+z
-x,-x+y,1/2+z
loop_
_atom_site_type_symbol
_atom_site_label
_atom_site_fract_x
_atom_site_fract_y
_atom_site_fract_z
Si Si1 0.903030 0.225539 0.879010
Si Si2 0.448123 0.551878 0.399765
Si Si3 0.528230 0.698535 0.266268
Si Si4 0.480463 0.960925 0.770617
Si Si5 0.024630 0.699046 0.685177
Si Si6 0.420966 0.070965 0.474491
O O1 0.854110 0.145891 0.848015
O O2 0.862196 0.265192 0.868792
O O3 0.962695 0.253881 0.744194
O O4 0.932074 0.237929 0.066176
O O5 0.479319 0.631333 0.369428
O O6 0.478436 0.521565 0.261331
O O7 0.464109 0.535892 0.585864
O O8 0.496976 0.748488 0.254872
O O9 0.542330 0.682862 0.077498
O O10 0.523288 0.937123 0.877650
O O11 0.071941 0.703058 0.839112
O O12 0.993694 0.624885 0.595554
#
# Coordination Sequence:
#
# PCOD8326734 Si02
#       6
#    12   6  12   6  12  12
#     4   9  17  30  47  67  97 128 157 189 227 280
#     4  12  22  34  52  74  98 122 156 206 256 294
#     4  10  21  35  49  68  92 125 164 194 238 297
#     4  12  20  30  54  80  96 112 148 208 262 292
#     4   9  17  29  45  69  98 127 150 185 230 278
#     4  10  18  29  46  71  98 117 150 196 245 287
#
# _framework density 16.593952000000002
#
# number of rings (size 3 to 8) (size 9 to 14) (size 15 to 20)
#    0.000    2.000    0.000    7.800    0.000    0.800 
#    0.600    4.000    0.000    0.000    0.000    0.000 
#    0.000    0.000    0.000    6.000    0.000    0.000 
#
# Total GULP energy -743789.093431 kJ/mol
# GULP energy per Si atom -12396.484891 kJ/mol
# Density = 1.655618 g / cm^3
# Si number density = 16.593952 Si / 1000 Ang^3
#
#
#
# Elastic Constant Matrix: (Units=GPa)
#
#
# Indices 1 2 3 4 5 6 
#
# 1 81.8796 54.9350 45.7166 0.0000 0.0000 0.0000
# 2 54.9350 81.8796 45.7166 0.0000 0.0000 0.0000
# 3 45.7166 45.7166 111.2984 0.0000 0.0000 0.0000
# 4 0.0000 0.0000 0.0000 16.6994 0.0000 0.0000
# 5 0.0000 0.0000 0.0000 0.0000 16.6994 0.0000
# 6 0.0000 0.0000 0.0000 0.0000 0.0000 13.4723
#
#
#
# Elastic Compliance Matrix: (Units=1/GPa)
#
#
# Indices 1 2 3 4 5 6 
#
# 1 0.023594 -0.013519 -0.004138 0.000000 0.000000 0.000000
# 2 -0.013519 0.023594 -0.004138 0.000000 0.000000 0.000000
# 3 -0.004138 -0.004138 0.012385 0.000000 0.000000 0.000000
# 4 0.000000 0.000000 0.000000 0.059882 0.000000 0.000000
# 5 0.000000 0.000000 0.000000 0.000000 0.059882 0.000000
# 6 0.000000 0.000000 0.000000 0.000000 0.000000 0.074226
#
#
# Mechanical properties :
#
#
# Convention : Reuss Voigt Hill
#
# Bulk Modulus (GPa) = 62.57461 63.08824 62.83142
# Shear Modulus (GPa) = 16.52990 17.95351 17.24170
#
# Velocity S-wave (km/s) = 3.15959 3.29284 3.22690
# Velocity P-wave (km/s) = 7.14856 7.24972 7.19931
#
# Compressibility (1/GPa) = 0.01598092
#
# Stress axis : x y z
#
# Youngs Moduli (GPa) = 42.38365 42.38365 80.74595
#
# Poissons Ratio (x) = 0.57299 0.33415
# Poissons Ratio (y) = 0.57299 0.33415
# Poissons Ratio (z) = 0.17540 0.17540
#
# Static dielectric constant tensor:
#      x y z
#    x 3.045880 0.000000 0.000000 
#    y 0.000000 3.045880 0.000000 
#    z 0.000000 0.000000 3.358450 
# 
# 
# High freq. dielectric constant tensor:
#      x y z
#    x 1.609490 0.000000 0.000000 
#    y 0.000000 1.609490 0.000000 
#    z 0.000000 0.000000 1.656240 
# 
# From -- ./inp_files/995.got.cif
#   From: 2010.03.12/outbox.cif.g09.slc.cpg/sg186_1_cif.got.tgz:995.got - 2010.04.01 11:56:34.
