data_PCOD8326242
_publ_section_title
;
Structure prediction by ZEFSAII (Michael W. Deem and Ramdas Pophale) SiO2 
 PCOD8326242
Probable space group: P 62 2 2
;
_chemical_formula_sum "Si O2"
_cell_formula_units_Z 57
_cell_length_a 15.209560
_cell_length_b 15.209560
_cell_length_c 16.930882
_cell_angle_alpha 90.000000
_cell_angle_beta 90.000000
_cell_angle_gamma 120.000000
_cell_volume 3391.903715
_symmetry_space_group_name_H-M "P 62 2 2"
_symmetry_group_IT_number 180
_symmetry_cell_setting 'hexagonal'
loop_
_space_group_symop_operation_xyz
x,y,z
x-y,x,1/3+z
-y,x-y,2/3+z
-x,-y,z
-x+y,-x,1/3+z
y,-x+y,2/3+z
x-y,-y,-z
-x,-x+y,1/3-z
y,x,2/3-z
-y,-x,2/3-z
-x+y,y,-z
x,x-y,1/3-z
loop_
_atom_site_type_symbol
_atom_site_label
_atom_site_fract_x
_atom_site_fract_y
_atom_site_fract_z
Si Si1 0.081891 0.758020 0.057115
Si Si2 0.318580 0.172270 0.776827
Si Si3 0.801171 0.947992 0.247591
Si Si4 0.460949 0.577050 0.925899
Si Si5 0.000000 0.000000 0.666667
Si Si6 0.502904 0.751452 0.666667
O O1 0.140953 0.831455 0.129441
O O2 0.128394 0.684524 0.051847
O O3 0.960818 0.702713 0.073072
O O4 0.113814 0.827394 0.978837
O O5 0.428181 0.197496 0.744419
O O6 0.243026 0.058983 0.752069
O O7 0.767920 0.883960 0.166667
O O8 0.908563 0.965705 0.273775
O O9 0.500000 0.500000 0.947373
O O10 0.431205 0.568796 0.833334
O O11 0.368677 0.564147 0.981450
#
# Coordination Sequence:
#
# PCOD8326242 Si02
#       6
#    12  12  12  12   3   6
#     4  11  20  35  52  78 118 147 178 243 298 341
#     4  11  19  35  54  79 113 144 186 235 292 342
#     4  12  23  33  52  80 118 162 194 227 281 355
#     4  11  19  34  58  85 112 140 184 248 305 354
#     4  12  20  36  48  82 116 156 208 234 262 336
#     4  12  19  34  60  87 104 139 194 236 307 356
#
# _framework density 16.804722000000002
#
# number of rings (size 3 to 8) (size 9 to 14) (size 15 to 20)
#    0.000    0.632    8.421    2.842    2.947    0.000 
#    0.000    1.053    0.000    0.000    0.000    0.000 
#    0.000    0.000    0.000    0.000    0.000    0.000 
#
# Total GULP energy -706381.519387 kJ/mol
# GULP energy per Si atom -12392.658235 kJ/mol
# Density = 1.676647 g / cm^3
# Si number density = 16.804722 Si / 1000 Ang^3
#
#
#
# Elastic Constant Matrix: (Units=GPa)
#
#
# Indices 1 2 3 4 5 6 
#
# 1 68.7041 33.3077 48.3834 0.0000 0.0000 0.0000
# 2 33.3077 68.7041 48.3834 0.0000 0.0000 0.0000
# 3 48.3834 48.3834 138.6788 0.0000 0.0000 0.0000
# 4 0.0000 0.0000 0.0000 27.5144 0.0000 0.0000
# 5 0.0000 0.0000 0.0000 0.0000 27.5144 0.0000
# 6 0.0000 0.0000 0.0000 0.0000 0.0000 17.6982
#
#
#
# Elastic Compliance Matrix: (Units=1/GPa)
#
#
# Indices 1 2 3 4 5 6 
#
# 1 0.021452 -0.006800 -0.005112 0.000000 0.000000 0.000000
# 2 -0.006800 0.021452 -0.005112 0.000000 0.000000 0.000000
# 3 -0.005112 -0.005112 0.010778 0.000000 0.000000 0.000000
# 4 0.000000 0.000000 0.000000 0.036345 0.000000 0.000000
# 5 0.000000 0.000000 0.000000 0.000000 0.036345 0.000000
# 6 0.000000 0.000000 0.000000 0.000000 0.000000 0.056503
#
#
# Mechanical properties :
#
#
# Convention : Reuss Voigt Hill
#
# Bulk Modulus (GPa) = 50.93189 59.58179 55.25684
# Shear Modulus (GPa) = 22.37485 24.27954 23.32720
#
# Velocity S-wave (km/s) = 3.65288 3.80518 3.72981
# Velocity P-wave (km/s) = 6.94012 7.40528 7.17647
#
# Compressibility (1/GPa) = 0.01963407
#
# Stress axis : x y z
#
# Youngs Moduli (GPa) = 46.61648 46.61648 92.78297
#
# Poissons Ratio (x) = 0.31698 0.47429
# Poissons Ratio (y) = 0.31698 0.47429
# Poissons Ratio (z) = 0.23830 0.23830
#
# Static dielectric constant tensor:
#      x y z
#    x 3.085210 0.000000 0.000000 
#    y 0.000000 3.085210 0.000000 
#    z 0.000000 0.000000 3.338930 
# 
# 
# High freq. dielectric constant tensor:
#      x y z
#    x 1.630730 0.000000 0.000000 
#    y 0.000000 1.630730 0.000000 
#    z 0.000000 0.000000 1.652550 
# 
# From -- ./inp_files/7636.got.cif
#   From: 2010.03.12/outbox.cif.g09.slc.cpg/sg180_4_cif.got.tgz:7636.got - 2010.04.01 11:35:50.
