data_PCOD8326805
_publ_section_title
;
Structure prediction by ZEFSAII (Michael W. Deem and Ramdas Pophale) SiO2 
 PCOD8326805
Probable space group: P 63 M C
;
_chemical_formula_sum "Si O2"
_cell_formula_units_Z 84
_cell_length_a 17.251602
_cell_length_b 17.251602
_cell_length_c 15.298007
_cell_angle_alpha 90.000000
_cell_angle_beta 90.000000
_cell_angle_gamma 120.000000
_cell_volume 3942.977942
_symmetry_space_group_name_H-M "P 63 M C"
_symmetry_group_IT_number 186
_symmetry_cell_setting 'hexagonal'
loop_
_space_group_symop_operation_xyz
x,y,z
x-y,x,1/2+z
-y,x-y,z
-x,-y,1/2+z
-x+y,-x,z
y,-x+y,1/2+z
-x+y,y,z
x,x-y,z
-y,-x,z
y,x,1/2+z
x-y,-y,1/2+z
-x,-x+y,1/2+z
loop_
_atom_site_type_symbol
_atom_site_label
_atom_site_fract_x
_atom_site_fract_y
_atom_site_fract_z
Si Si1 0.493627 0.334071 0.839970
Si Si2 0.020543 0.304189 0.100903
Si Si3 0.306494 0.064813 0.285126
Si Si4 0.818498 0.820953 0.946379
Si Si5 0.576981 0.594565 0.478322
Si Si6 0.162314 0.667309 0.138745
Si Si7 0.845613 0.511375 0.373652
O O1 0.471906 0.235953 0.867523
O O2 0.596433 0.403568 0.864396
O O3 0.425873 0.356739 0.889975
O O4 0.476267 0.342407 0.739375
O O5 0.113260 0.398052 0.094084
O O6 0.998063 0.272564 0.200257
O O7 0.951964 0.330932 0.054870
O O8 0.022979 0.228544 0.041658
O O9 0.282174 0.141087 0.265494
O O10 0.413236 0.109272 0.298452
O O11 0.251761 0.010354 0.371580
O O12 0.904014 0.808027 0.943448
O O13 0.849484 0.924742 0.930547
O O14 0.477774 0.522227 0.509726
O O15 0.635009 0.545746 0.457933
O O16 0.136614 0.568307 0.101989
O O17 0.268908 0.731093 0.128318
O O18 0.748984 0.497969 0.401424
O O19 0.834638 0.417319 0.339409
#
# Coordination Sequence:
#
# PCOD8326805 Si02
#       7
#    12  12  12  12  12  12  12
#     4   9  18  34  57  87 122 165 213 262 314 369
#     4  12  23  39  64  97 126 165 205 258 311 369
#     4  10  23  43  65  93 127 163 207 259 313 372
#     4  11  25  46  70  95 125 160 203 253 312 378
#     4  10  21  36  56  85 125 167 208 257 314 371
#     4  10  21  36  58  88 127 170 213 258 309 365
#     4  10  20  38  62  89 123 166 215 265 314 368
#
# _framework density 21.303694
#
# number of rings (size 3 to 8) (size 9 to 14) (size 15 to 20)
#    0.000    1.714    1.429    2.714    0.000    6.286 
#    0.000    0.000    0.000    3.429    0.000    5.000 
#    0.000    0.000    0.000    0.000    0.000    0.000 
#
# Total GULP energy -1041023.566234 kJ/mol
# GULP energy per Si atom -12393.137693 kJ/mol
# Density = 2.125521 g / cm^3
# Si number density = 21.303694 Si / 1000 Ang^3
#
#
#
# Elastic Constant Matrix: (Units=GPa)
#
#
# Indices 1 2 3 4 5 6 
#
# 1 117.7398 51.1274 34.2237 0.0000 0.0000 0.0000
# 2 51.1274 117.7398 34.2237 0.0000 0.0000 0.0000
# 3 34.2237 34.2237 97.9260 0.0000 0.0000 0.0000
# 4 0.0000 0.0000 0.0000 22.5618 0.0000 0.0000
# 5 0.0000 0.0000 0.0000 0.0000 22.5618 0.0000
# 6 0.0000 0.0000 0.0000 0.0000 0.0000 33.3062
#
#
#
# Elastic Compliance Matrix: (Units=1/GPa)
#
#
# Indices 1 2 3 4 5 6 
#
# 1 0.010956 -0.004057 -0.002411 0.000000 0.000000 0.000000
# 2 -0.004057 0.010956 -0.002411 0.000000 0.000000 0.000000
# 3 -0.002411 -0.002411 0.011897 0.000000 0.000000 0.000000
# 4 0.000000 0.000000 0.000000 0.044323 0.000000 0.000000
# 5 0.000000 0.000000 0.000000 0.000000 0.044323 0.000000
# 6 0.000000 0.000000 0.000000 0.000000 0.000000 0.030024
#
#
# Mechanical properties :
#
#
# Convention : Reuss Voigt Hill
#
# Bulk Modulus (GPa) = 62.30222 63.61724 62.95973
# Shear Modulus (GPa) = 28.47602 29.94134 29.20868
#
# Velocity S-wave (km/s) = 3.66002 3.75300 3.70680
# Velocity P-wave (km/s) = 6.86799 6.97904 6.92373
#
# Compressibility (1/GPa) = 0.01605079
#
# Stress axis : x y z
#
# Youngs Moduli (GPa) = 91.27695 91.27695 84.05403
#
# Poissons Ratio (x) = 0.37027 0.20267
# Poissons Ratio (y) = 0.37027 0.20267
# Poissons Ratio (z) = 0.22008 0.22008
#
# Static dielectric constant tensor:
#      x y z
#    x 3.849960 0.000000 0.000000 
#    y 0.000000 3.849960 0.000000 
#    z 0.000000 0.000000 3.771180 
# 
# 
# High freq. dielectric constant tensor:
#      x y z
#    x 1.835420 0.000000 0.000000 
#    y 0.000000 1.835420 0.000000 
#    z 0.000000 0.000000 1.826250 
# 
# From -- ./inp_files/2557.got.cif
#   From: 2010.03.12/outbox.cif.g09.slc.cpg/sg186_2_cif.got.tgz:2557.got - 2010.04.01 11:56:34.
