data_PCOD8326457
_publ_section_title
;
Structure prediction by ZEFSAII (Michael W. Deem and Ramdas Pophale) SiO2 
 PCOD8326457
Probable space group: P 63 2 2
;
_chemical_formula_sum "Si O2"
_cell_formula_units_Z 72
_cell_length_a 22.910169
_cell_length_b 22.910169
_cell_length_c 8.935573
_cell_angle_alpha 90.000000
_cell_angle_beta 90.000000
_cell_angle_gamma 120.000000
_cell_volume 4061.716662
_symmetry_space_group_name_H-M "P 63 2 2"
_symmetry_group_IT_number 182
_symmetry_cell_setting 'hexagonal'
loop_
_space_group_symop_operation_xyz
x,y,z
x-y,x,1/2+z
-y,x-y,z
-x,-y,1/2+z
-x+y,-x,z
y,-x+y,1/2+z
x-y,-y,-z
-x,-x+y,-z
y,x,-z
-y,-x,1/2-z
-x+y,y,1/2-z
x,x-y,1/2-z
loop_
_atom_site_type_symbol
_atom_site_label
_atom_site_fract_x
_atom_site_fract_y
_atom_site_fract_z
Si Si1 0.130489 0.745055 0.173323
Si Si2 0.129918 0.383502 0.677614
Si Si3 0.597489 0.518342 0.675375
Si Si4 0.000856 0.755004 0.175264
Si Si5 0.478844 0.403891 0.177553
Si Si6 0.876800 0.876179 0.178456
O O1 0.193429 0.806572 0.250000
O O2 0.123864 0.674853 0.228212
O O3 0.061016 0.741621 0.214947
O O4 0.141132 0.753098 0.997877
O O5 0.198564 0.397127 0.750000
O O6 0.114976 0.441769 0.733771
O O7 0.068845 0.310229 0.723081
O O8 0.555211 0.444790 0.750000
O O9 0.567946 0.565637 0.729191
O O10 0.592251 0.511277 0.498576
O O11 0.015039 0.817875 0.277608
O O12 0.000000 0.771889 0.000000
O O13 0.553029 0.446972 0.250000
O O14 0.892883 0.946442 0.250000
O O15 0.927518 0.855035 0.250000
O O16 0.883855 0.883855 0.000000
#
# Coordination Sequence:
#
# PCOD8326457 Si02
#       6
#    12  12  12  12  12  12
#     4  10  20  34  53  78 111 146 178 217 266 314
#     4  10  20  34  53  78 111 146 178 217 266 314
#     4   9  17  32  53  77 105 137 170 212 263 310
#     4  10  20  37  56  77 109 144 176 218 269 320
#     4   9  17  32  53  77 105 137 170 212 263 310
#     4  12  25  41  58  77 100 132 176 226 275 324
#
# _framework density 17.726495
#
# number of rings (size 3 to 8) (size 9 to 14) (size 15 to 20)
#    0.000    2.000    1.667    2.667    0.000    5.333 
#    0.000    0.000    0.000    0.667    0.000    0.000 
#    0.000    0.000    0.000    0.000    0.000    0.000 
#
# Total GULP energy -892864.183270 kJ/mol
# GULP energy per Si atom -12400.891434 kJ/mol
# Density = 1.768615 g / cm^3
# Si number density = 17.726495 Si / 1000 Ang^3
#
#
#
# Elastic Constant Matrix: (Units=GPa)
#
#
# Indices 1 2 3 4 5 6 
#
# 1 107.3101 47.6451 37.8986 0.0000 0.0000 0.0000
# 2 47.6451 107.3101 37.8986 0.0000 0.0000 0.0000
# 3 37.8986 37.8986 57.7085 0.0000 0.0000 0.0000
# 4 0.0000 0.0000 0.0000 27.2797 0.0000 0.0000
# 5 0.0000 0.0000 0.0000 0.0000 27.2797 0.0000
# 6 0.0000 0.0000 0.0000 0.0000 0.0000 29.8325
#
#
#
# Elastic Compliance Matrix: (Units=1/GPa)
#
#
# Indices 1 2 3 4 5 6 
#
# 1 0.013134 -0.003626 -0.006244 0.000000 0.000000 0.000000
# 2 -0.003626 0.013134 -0.006244 0.000000 0.000000 0.000000
# 3 -0.006244 -0.006244 0.025530 0.000000 0.000000 0.000000
# 4 0.000000 0.000000 0.000000 0.036657 0.000000 0.000000
# 5 0.000000 0.000000 0.000000 0.000000 0.036657 0.000000
# 6 0.000000 0.000000 0.000000 0.000000 0.000000 0.033520
#
#
# Mechanical properties :
#
#
# Convention : Reuss Voigt Hill
#
# Bulk Modulus (GPa) = 51.10062 57.69033 54.39548
# Shear Modulus (GPa) = 25.33133 26.80416 26.06774
#
# Velocity S-wave (km/s) = 3.78433 3.89279 3.83894
# Velocity P-wave (km/s) = 6.92710 7.26776 7.09947
#
# Compressibility (1/GPa) = 0.01956923
#
# Stress axis : x y z
#
# Youngs Moduli (GPa) = 76.13827 76.13827 39.17019
#
# Poissons Ratio (x) = 0.27610 0.24458
# Poissons Ratio (y) = 0.27610 0.24458
# Poissons Ratio (z) = 0.47541 0.47541
#
# Static dielectric constant tensor:
#      x y z
#    x 3.364890 0.000000 0.000000 
#    y 0.000000 3.364890 0.000000 
#    z 0.000000 0.000000 3.040970 
# 
# 
# High freq. dielectric constant tensor:
#      x y z
#    x 1.683390 0.000000 0.000000 
#    y 0.000000 1.683390 0.000000 
#    z 0.000000 0.000000 1.678180 
# 
# From -- ./inp_files/1919.got.cif
#   From: 2010.03.12/outbox.cif.g09.slc.cpg/sg182_1_cif.got.tgz:1919.got - 2010.04.01 11:49:36.
