data_PCOD8326209
_publ_section_title
;
Structure prediction by ZEFSAII (Michael W. Deem and Ramdas Pophale) SiO2 
 PCOD8326209
Probable space group: P 62 2 2
;
_chemical_formula_sum "Si O2"
_cell_formula_units_Z 60
_cell_length_a 19.186983
_cell_length_b 19.186983
_cell_length_c 9.711569
_cell_angle_alpha 90.000000
_cell_angle_beta 90.000000
_cell_angle_gamma 120.000000
_cell_volume 3096.231419
_symmetry_space_group_name_H-M "P 62 2 2"
_symmetry_group_IT_number 180
_symmetry_cell_setting 'hexagonal'
loop_
_space_group_symop_operation_xyz
x,y,z
x-y,x,1/3+z
-y,x-y,2/3+z
-x,-y,z
-x+y,-x,1/3+z
y,-x+y,2/3+z
x-y,-y,-z
-x,-x+y,1/3-z
y,x,2/3-z
-y,-x,2/3-z
-x+y,y,-z
x,x-y,1/3-z
loop_
_atom_site_type_symbol
_atom_site_label
_atom_site_fract_x
_atom_site_fract_y
_atom_site_fract_z
Si Si1 0.170530 0.725817 0.953332
Si Si2 0.090770 0.274991 0.865419
Si Si3 0.455789 0.548770 0.169545
Si Si4 0.055261 0.269180 0.298244
Si Si5 0.815411 0.271625 0.470822
O O1 0.209415 0.790586 0.833334
O O2 0.137419 0.637094 0.895201
O O3 0.096711 0.732529 0.014147
O O4 0.238270 0.749499 0.072227
O O5 0.120356 0.241230 0.737480
O O6 0.113049 0.365616 0.828113
O O7 0.138685 0.277369 0.000000
O O8 0.995671 0.218908 0.897994
O O9 0.500000 0.500000 0.121149
O O10 0.450832 0.549169 0.333334
O O11 0.366044 0.508137 0.112692
O O12 0.000000 0.253638 0.166667
O O13 0.769962 0.230038 0.333334
#
# Coordination Sequence:
#
# PCOD8326209 Si02
#       5
#    12  12  12  12  12
#     4  11  22  39  59  86 120 154 203 253 301 364
#     4   8  15  29  53  79 113 146 184 235 289 345
#     4  11  23  40  61  86 119 164 210 256 313 368
#     4   9  17  32  55  84 116 154 188 244 300 353
#     4  10  21  40  58  83 115 156 205 252 308 360
#
# _framework density 19.378397
#
# number of rings (size 3 to 8) (size 9 to 14) (size 15 to 20)
#    0.000    2.200    2.000    2.400    0.000    0.800 
#    3.600    1.000    0.000    0.000    0.000    0.000 
#    0.000   68.000    0.000    0.000    0.000    0.000 
#
# Total GULP energy -743606.672476 kJ/mol
# GULP energy per Si atom -12393.444541 kJ/mol
# Density = 1.933429 g / cm^3
# Si number density = 19.378397 Si / 1000 Ang^3
#
#
#
# Elastic Constant Matrix: (Units=GPa)
#
#
# Indices 1 2 3 4 5 6 
#
# 1 120.4334 78.4838 44.0102 0.0000 0.0000 0.0000
# 2 78.4838 120.4334 44.0102 0.0000 0.0000 0.0000
# 3 44.0102 44.0102 82.5093 0.0000 0.0000 0.0000
# 4 0.0000 0.0000 0.0000 34.0203 0.0000 0.0000
# 5 0.0000 0.0000 0.0000 0.0000 34.0203 0.0000
# 6 0.0000 0.0000 0.0000 0.0000 0.0000 20.9748
#
#
#
# Elastic Compliance Matrix: (Units=1/GPa)
#
#
# Indices 1 2 3 4 5 6 
#
# 1 0.015209 -0.008629 -0.003510 0.000000 0.000000 0.000000
# 2 -0.008629 0.015209 -0.003510 0.000000 0.000000 0.000000
# 3 -0.003510 -0.003510 0.015864 0.000000 0.000000 0.000000
# 4 0.000000 0.000000 0.000000 0.029394 0.000000 0.000000
# 5 0.000000 0.000000 0.000000 0.000000 0.029394 0.000000
# 6 0.000000 0.000000 0.000000 0.000000 0.000000 0.047676
#
#
# Mechanical properties :
#
#
# Convention : Reuss Voigt Hill
#
# Bulk Modulus (GPa) = 66.73260 72.93162 69.83211
# Shear Modulus (GPa) = 26.44944 28.26123 27.35533
#
# Velocity S-wave (km/s) = 3.69845 3.82303 3.76126
# Velocity P-wave (km/s) = 7.26288 7.56337 7.41465
#
# Compressibility (1/GPa) = 0.01498518
#
# Stress axis : x y z
#
# Youngs Moduli (GPa) = 65.74949 65.74949 63.03490
#
# Poissons Ratio (x) = 0.56735 0.22125
# Poissons Ratio (y) = 0.56735 0.22125
# Poissons Ratio (z) = 0.23078 0.23078
#
# Static dielectric constant tensor:
#      x y z
#    x 3.692100 0.000000 0.000000 
#    y 0.000000 3.692100 0.000000 
#    z 0.000000 0.000000 3.799620 
# 
# 
# High freq. dielectric constant tensor:
#      x y z
#    x 1.746280 0.000000 0.000000 
#    y 0.000000 1.746280 0.000000 
#    z 0.000000 0.000000 1.758480 
# 
# From -- ./inp_files/4809.got.cif
#   From: 2010.03.12/outbox.cif.g09.slc.cpg/sg180_3_cif.got.tgz:4809.got - 2010.04.01 11:35:50.
