data_PCOD8326719
_publ_section_title
;
Structure prediction by ZEFSAII (Michael W. Deem and Ramdas Pophale) SiO2 
 PCOD8326719
Probable space group: P 63 M C
;
_chemical_formula_sum "Si O2"
_cell_formula_units_Z 60
_cell_length_a 28.147001
_cell_length_b 28.147001
_cell_length_c 5.213233
_cell_angle_alpha 90.000000
_cell_angle_beta 90.000000
_cell_angle_gamma 120.000000
_cell_volume 3576.860679
_symmetry_space_group_name_H-M "P 63 M C"
_symmetry_group_IT_number 186
_symmetry_cell_setting 'hexagonal'
loop_
_space_group_symop_operation_xyz
x,y,z
x-y,x,1/2+z
-y,x-y,z
-x,-y,1/2+z
-x+y,-x,z
y,-x+y,1/2+z
-x+y,y,z
x,x-y,z
-y,-x,z
y,x,1/2+z
x-y,-y,1/2+z
-x,-x+y,1/2+z
loop_
_atom_site_type_symbol
_atom_site_label
_atom_site_fract_x
_atom_site_fract_y
_atom_site_fract_z
Si Si1 0.698207 0.188906 0.779040
Si Si2 0.694921 0.903936 0.779735
Si Si3 0.033975 0.179836 0.768282
Si Si4 0.333817 0.554678 0.779037
Si Si5 0.632992 0.873243 0.280150
O O1 0.755656 0.244345 0.779120
O O2 0.664017 0.186041 0.527528
O O3 0.663962 0.186087 0.030278
O O4 0.708859 0.137789 0.779255
O O5 0.692430 0.846215 0.776404
O O6 0.664485 0.908735 0.030981
O O7 0.757512 0.952415 0.780705
O O8 0.664190 0.908847 0.529579
O O9 0.087646 0.175291 0.806980
O O10 0.007930 0.154067 0.494699
O O11 0.280115 0.560229 0.779074
O O12 0.384880 0.615121 0.779335
O O13 0.632943 0.816472 0.280130
#
# Coordination Sequence:
#
# PCOD8326719 Si02
#       5
#    12  12  12  12  12
#     4   9  17  26  38  54  74 103 142 188 235 283
#     4   9  17  28  46  69  91 116 146 180 218 267
#     4  11  22  37  56  78 104 134 168 200 229 258
#     4  10  18  27  36  49  71 106 154 202 242 274
#     4   9  15  26  42  62  86 109 140 182 225 276
#
# _framework density 16.774484999999999
#
# number of rings (size 3 to 8) (size 9 to 14) (size 15 to 20)
#    0.000    2.400    0.000    3.800    0.000    8.000 
#    0.000    2.000    0.000    4.000    0.000    0.000 
#    0.000    0.000    0.000    0.000    0.000  252.000 
#
# Total GULP energy -744017.896417 kJ/mol
# GULP energy per Si atom -12400.298274 kJ/mol
# Density = 1.673631 g / cm^3
# Si number density = 16.774485 Si / 1000 Ang^3
#
#
#
# Elastic Constant Matrix: (Units=GPa)
#
#
# Indices 1 2 3 4 5 6 
#
# 1 47.6878 30.8045 29.8908 0.0000 0.0000 0.0000
# 2 30.8045 47.6878 29.8908 0.0000 0.0000 0.0000
# 3 29.8908 29.8908 150.0238 0.0000 0.0000 0.0000
# 4 0.0000 0.0000 0.0000 23.9649 0.0000 0.0000
# 5 0.0000 0.0000 0.0000 0.0000 23.9649 0.0000
# 6 0.0000 0.0000 0.0000 0.0000 0.0000 8.4417
#
#
#
# Elastic Compliance Matrix: (Units=1/GPa)
#
#
# Indices 1 2 3 4 5 6 
#
# 1 0.037125 -0.022105 -0.002992 0.000000 0.000000 0.000000
# 2 -0.022105 0.037125 -0.002992 0.000000 0.000000 0.000000
# 3 -0.002992 -0.002992 0.007858 0.000000 0.000000 0.000000
# 4 0.000000 0.000000 0.000000 0.041728 0.000000 0.000000
# 5 0.000000 0.000000 0.000000 0.000000 0.041728 0.000000
# 6 0.000000 0.000000 0.000000 0.000000 0.000000 0.118460
#
#
# Mechanical properties :
#
#
# Convention : Reuss Voigt Hill
#
# Bulk Modulus (GPa) = 38.57027 47.39688 42.98357
# Shear Modulus (GPa) = 14.33299 21.59517 17.96408
#
# Velocity S-wave (km/s) = 2.92627 3.59190 3.27604
# Velocity P-wave (km/s) = 5.87033 6.74678 6.32376
#
# Compressibility (1/GPa) = 0.02592670
#
# Stress axis : x y z
#
# Youngs Moduli (GPa) = 26.93631 26.93631 127.25817
#
# Poissons Ratio (x) = 0.59544 0.38081
# Poissons Ratio (y) = 0.59544 0.38081
# Poissons Ratio (z) = 0.08061 0.08061
#
# Static dielectric constant tensor:
#      x y z
#    x 2.892250 0.000000 0.000000 
#    y 0.000000 2.892250 0.000000 
#    z 0.000000 0.000000 3.482290 
# 
# 
# High freq. dielectric constant tensor:
#      x y z
#    x 1.611680 0.000000 0.000000 
#    y 0.000000 1.611680 0.000000 
#    z 0.000000 0.000000 1.672780 
# 
# From -- ./inp_files/350.got.cif
#   From: 2010.03.12/outbox.cif.g09.slc.cpg/sg186_1_cif.got.tgz:350.got - 2010.04.01 11:56:34.
