data_PCOD8326401
_publ_section_title
;
Structure prediction by ZEFSAII (Michael W. Deem and Ramdas Pophale) SiO2 
 PCOD8326401
Probable space group: P 64 2 2
;
_chemical_formula_sum "Si O2"
_cell_formula_units_Z 48
_cell_length_a 12.230992
_cell_length_b 12.230992
_cell_length_c 17.071258
_cell_angle_alpha 90.000000
_cell_angle_beta 90.000000
_cell_angle_gamma 120.000000
_cell_volume 2211.665900
_symmetry_space_group_name_H-M "P 64 2 2"
_symmetry_group_IT_number 181
_symmetry_cell_setting 'hexagonal'
loop_
_space_group_symop_operation_xyz
x,y,z
x-y,x,2/3+z
-y,x-y,1/3+z
-x,-y,z
-x+y,-x,2/3+z
y,-x+y,1/3+z
x-y,-y,-z
-x,-x+y,2/3-z
y,x,1/3-z
-y,-x,1/3-z
-x+y,y,-z
x,x-y,2/3-z
loop_
_atom_site_type_symbol
_atom_site_label
_atom_site_fract_x
_atom_site_fract_y
_atom_site_fract_z
Si Si1 0.287922 0.712079 0.666667
Si Si2 0.767513 0.781295 0.936756
Si Si3 0.000000 0.500000 0.333334
Si Si4 0.902786 0.646639 0.902322
Si Si5 0.000000 0.000000 0.000000
Si Si6 0.738308 0.516014 0.583683
O O1 0.301945 0.805128 0.595110
O O2 0.233033 0.566669 0.643655
O O3 0.812359 0.704550 0.879272
O O4 0.650544 0.788174 0.903725
O O5 0.734311 0.720021 0.022860
O O6 0.883214 0.921837 0.942578
O O7 0.088681 0.619237 0.277552
O O8 0.000000 0.660494 0.833334
O O9 0.724003 0.448005 0.500000
#
# Coordination Sequence:
#
# PCOD8326401 Si02
#       6
#     6  12   3  12   3  12
#     4   9  23  43  60  95 129 165 228 270 318 413
#     4   9  20  35  57  91 122 155 206 254 306 390
#     4  10  26  44  62  98 128 162 228 270 324 416
#     4   9  20  38  63  91 124 161 204 265 322 377
#     4   8  16  36  56  82 122 150 190 250 298 358
#     4  11  24  42  65  89 127 172 211 272 336 392
#
# _framework density 21.703097
#
# number of rings (size 3 to 8) (size 9 to 14) (size 15 to 20)
#    0.000    3.000    0.000    0.750    0.000   18.000 
#    0.000    6.875    0.000    0.000    0.000    1.750 
#    0.000    0.000    0.000    0.000    0.000    0.000 
#
# Total GULP energy -594646.085994 kJ/mol
# GULP energy per Si atom -12388.460125 kJ/mol
# Density = 2.165370 g / cm^3
# Si number density = 21.703097 Si / 1000 Ang^3
#
#
#
# Elastic Constant Matrix: (Units=GPa)
#
#
# Indices 1 2 3 4 5 6 
#
# 1 137.7085 74.9094 40.9526 0.0000 0.0000 0.0000
# 2 74.9094 137.7085 40.9526 0.0000 0.0000 0.0000
# 3 40.9526 40.9526 75.5090 0.0000 0.0000 0.0000
# 4 0.0000 0.0000 0.0000 28.8523 0.0000 0.0000
# 5 0.0000 0.0000 0.0000 0.0000 28.8523 0.0000
# 6 0.0000 0.0000 0.0000 0.0000 0.0000 31.3996
#
#
#
# Elastic Compliance Matrix: (Units=1/GPa)
#
#
# Indices 1 2 3 4 5 6 
#
# 1 0.010935 -0.004989 -0.003225 0.000000 0.000000 0.000000
# 2 -0.004989 0.010935 -0.003225 0.000000 0.000000 0.000000
# 3 -0.003225 -0.003225 0.016741 0.000000 0.000000 0.000000
# 4 0.000000 0.000000 0.000000 0.034659 0.000000 0.000000
# 5 0.000000 0.000000 0.000000 0.000000 0.034659 0.000000
# 6 0.000000 0.000000 0.000000 0.000000 0.000000 0.031848
#
#
# Mechanical properties :
#
#
# Convention : Reuss Voigt Hill
#
# Bulk Modulus (GPa) = 63.55715 73.83949 68.69832
# Shear Modulus (GPa) = 29.78007 30.76160 30.27084
#
# Velocity S-wave (km/s) = 3.70828 3.76890 3.73871
# Velocity P-wave (km/s) = 6.90533 7.28257 7.09646
#
# Compressibility (1/GPa) = 0.01573387
#
# Stress axis : x y z
#
# Youngs Moduli (GPa) = 91.45271 91.45271 59.73317
#
# Poissons Ratio (x) = 0.45627 0.19261
# Poissons Ratio (y) = 0.45627 0.19261
# Poissons Ratio (z) = 0.29489 0.29489
#
# Static dielectric constant tensor:
#      x y z
#    x 3.993820 0.000000 0.000000 
#    y 0.000000 3.993820 0.000000 
#    z 0.000000 0.000000 3.747980 
# 
# 
# High freq. dielectric constant tensor:
#      x y z
#    x 1.858190 0.000000 0.000000 
#    y 0.000000 1.858190 0.000000 
#    z 0.000000 0.000000 1.832870 
# 
# From -- ./inp_files/8733.got.cif
#   From: 2010.03.12/outbox.cif.g09.slc.cpg/sg181_5_cif.got.tgz:8733.got - 2010.04.01 11:42:41.
