data_PCOD8326761
_publ_section_title
;
Structure prediction by ZEFSAII (Michael W. Deem and Ramdas Pophale) SiO2 
 PCOD8326761
Probable space group: P 63 M C
;
_chemical_formula_sum "Si O2"
_cell_formula_units_Z 96
_cell_length_a 17.339101
_cell_length_b 17.339101
_cell_length_c 20.626853
_cell_angle_alpha 90.000000
_cell_angle_beta 90.000000
_cell_angle_gamma 120.000000
_cell_volume 5370.525190
_symmetry_space_group_name_H-M "P 63 M C"
_symmetry_group_IT_number 186
_symmetry_cell_setting 'hexagonal'
loop_
_space_group_symop_operation_xyz
x,y,z
x-y,x,1/2+z
-y,x-y,z
-x,-y,1/2+z
-x+y,-x,z
y,-x+y,1/2+z
-x+y,y,z
x,x-y,z
-y,-x,z
y,x,1/2+z
x-y,-y,1/2+z
-x,-x+y,1/2+z
loop_
_atom_site_type_symbol
_atom_site_label
_atom_site_fract_x
_atom_site_fract_y
_atom_site_fract_z
Si Si1 0.666792 0.508815 0.526340
Si Si2 0.299015 0.061201 0.328632
Si Si3 0.937965 0.241277 0.091325
Si Si4 0.596270 0.575792 0.254497
Si Si5 0.696431 0.936110 0.974368
Si Si6 0.155002 0.488091 0.174931
Si Si7 0.999261 0.179707 0.207192
Si Si8 0.154491 0.490383 0.640047
O O1 0.737524 0.475047 0.518656
O O2 0.570610 0.429391 0.506179
O O3 0.689626 0.591175 0.479305
O O4 0.668886 0.540772 0.600266
O O5 0.333722 0.166861 0.322608
O O6 0.377933 0.041096 0.313588
O O7 0.268401 0.028708 0.402068
O O8 0.217494 0.006568 0.279689
O O9 0.855902 0.144099 0.094022
O O10 0.995501 0.248540 0.155499
O O11 0.904903 0.313401 0.091942
O O12 0.986086 0.248215 0.024389
O O13 0.503894 0.496107 0.282500
O O14 0.576749 0.646353 0.217559
O O15 0.642027 0.535101 0.209162
O O16 0.714159 0.857080 0.993789
O O17 0.238624 0.477247 0.196421
O O18 0.182246 0.591123 0.183368
O O19 0.920885 0.079116 0.195470
O O20 0.091984 0.183967 0.197792
O O21 0.253785 0.507569 0.648207
O O22 0.158100 0.579050 0.611843
#
# Coordination Sequence:
#
# PCOD8326761 Si02
#       8
#    12  12  12  12  12  12  12  12
#     4   9  17  29  47  72 103 137 172 210 252 305
#     4  10  21  37  52  72 105 140 171 212 260 307
#     4  10  20  35  55  79 106 133 166 216 263 302
#     4  10  19  31  49  73 101 135 178 223 262 308
#     4  10  21  35  52  75 105 139 173 206 255 316
#     4   9  17  29  47  74 107 140 174 215 266 319
#     4  10  20  35  57  80 103 131 166 208 257 312
#     4  10  19  33  53  77 106 139 176 218 263 309
#
# _framework density 17.875347000000001
#
# number of rings (size 3 to 8) (size 9 to 14) (size 15 to 20)
#    0.000    2.250    1.250    2.000    0.000    4.000 
#    0.000    0.000    0.000    0.500    0.000    0.000 
#    0.000    5.000    0.000    0.000    0.000    0.000 
#
# Total GULP energy -1190295.976377 kJ/mol
# GULP energy per Si atom -12398.916421 kJ/mol
# Density = 1.783466 g / cm^3
# Si number density = 17.875347 Si / 1000 Ang^3
#
#
#
# Elastic Constant Matrix: (Units=GPa)
#
#
# Indices 1 2 3 4 5 6 
#
# 1 83.2226 47.7560 41.8745 0.0000 0.0000 0.0000
# 2 47.7560 83.2226 41.8745 0.0000 0.0000 0.0000
# 3 41.8745 41.8745 93.2172 0.0000 0.0000 0.0000
# 4 0.0000 0.0000 0.0000 23.6490 0.0000 0.0000
# 5 0.0000 0.0000 0.0000 0.0000 23.6490 0.0000
# 6 0.0000 0.0000 0.0000 0.0000 0.0000 17.7333
#
#
#
# Elastic Compliance Matrix: (Units=1/GPa)
#
#
# Indices 1 2 3 4 5 6 
#
# 1 0.019454 -0.008742 -0.004812 0.000000 0.000000 0.000000
# 2 -0.008742 0.019454 -0.004812 0.000000 0.000000 0.000000
# 3 -0.004812 -0.004812 0.015051 0.000000 0.000000 0.000000
# 4 0.000000 0.000000 0.000000 0.042285 0.000000 0.000000
# 5 0.000000 0.000000 0.000000 0.000000 0.042285 0.000000
# 6 0.000000 0.000000 0.000000 0.000000 0.000000 0.056391
#
#
# Mechanical properties :
#
#
# Convention : Reuss Voigt Hill
#
# Bulk Modulus (GPa) = 58.04965 58.07473 58.06219
# Shear Modulus (GPa) = 21.06217 21.55008 21.30612
#
# Velocity S-wave (km/s) = 3.43633 3.47591 3.45618
# Velocity P-wave (km/s) = 6.94908 6.97628 6.96269
#
# Compressibility (1/GPa) = 0.01722663
#
# Stress axis : x y z
#
# Youngs Moduli (GPa) = 51.40446 51.40446 66.44217
#
# Poissons Ratio (x) = 0.44938 0.31971
# Poissons Ratio (y) = 0.44938 0.31971
# Poissons Ratio (z) = 0.24735 0.24735
#
# Static dielectric constant tensor:
#      x y z
#    x 3.333620 0.000000 0.000000 
#    y 0.000000 3.333620 0.000000 
#    z 0.000000 0.000000 3.119380 
# 
# 
# High freq. dielectric constant tensor:
#      x y z
#    x 1.696480 0.000000 0.000000 
#    y 0.000000 1.696480 0.000000 
#    z 0.000000 0.000000 1.662250 
# 
# From -- ./inp_files/3542.got.cif
#   From: 2010.03.12/outbox.cif.g09.slc.cpg/sg186_2_cif.got.tgz:3542.got - 2010.04.01 11:56:34.
