data_PCOD8326905
_publ_section_title
;
Structure prediction by ZEFSAII (Michael W. Deem and Ramdas Pophale) SiO2 
 PCOD8326905
Probable space group: P -6 M 2
;
_chemical_formula_sum "Si O2"
_cell_formula_units_Z 78
_cell_length_a 17.206571
_cell_length_b 17.206571
_cell_length_c 20.167188
_cell_angle_alpha 90.000000
_cell_angle_beta 90.000000
_cell_angle_gamma 120.000000
_cell_volume 5170.882155
_symmetry_space_group_name_H-M "P -6 M 2"
_symmetry_group_IT_number 187
_symmetry_cell_setting 'hexagonal'
loop_
_space_group_symop_operation_xyz
x,y,z
-x+y,-x,-z
-y,x-y,z
x,y,-z
-x+y,-x,z
-y,x-y,-z
-y,-x,-z
-x+y,y,-z
x,x-y,-z
-x+y,y,z
x,x-y,z
-y,-x,z
loop_
_atom_site_type_symbol
_atom_site_label
_atom_site_fract_x
_atom_site_fract_y
_atom_site_fract_z
Si Si1 0.999904 0.821326 0.425258
Si Si2 0.666353 0.520092 0.000000
Si Si3 0.490648 0.334335 0.260809
Si Si4 0.680051 0.928024 0.183622
Si Si5 0.762070 0.703324 0.697237
Si Si6 0.827867 0.999888 0.074008
Si Si7 0.435015 0.045247 0.867880
O O1 0.002098 0.788734 0.500000
O O2 0.925675 0.851349 0.418851
O O3 0.978763 0.740117 0.375802
O O4 0.094116 0.905885 0.405214
O O5 0.663285 0.576153 0.936433
O O6 0.582058 0.417943 0.000000
O O7 0.758322 0.516643 0.000000
O O8 0.521548 0.260774 0.264714
O O9 0.571424 0.428577 0.287523
O O10 0.403260 0.306810 0.305805
O O11 0.467321 0.341796 0.184860
O O12 0.640673 0.820337 0.192076
O O13 0.730368 0.977654 0.250923
O O14 0.746759 0.964784 0.123077
O O15 0.607129 0.955393 0.160745
O O16 0.861143 0.722286 0.717810
O O17 0.902568 0.097433 0.098131
O O18 0.870107 0.935054 0.074940
O O19 0.794274 0.003938 0.000000
O O20 0.506552 0.013103 0.878100
#
# Coordination Sequence:
#
# PCOD8326905 Si02
#       7
#    12   6  12  12  12  12  12
#     4   9  16  26  41  61  85 113 143 174 208 247
#     4  10  19  30  45  64  86 110 136 168 211 260
#     4   9  16  27  43  62  84 111 143 175 208 249
#     4  10  19  30  44  61  80 106 140 173 206 246
#     4   9  17  28  42  62  88 113 139 173 210 247
#     4   9  17  27  38  53  76 106 138 167 193 223
#     4   9  19  32  43  59  82 106 133 171 219 261
#
# _framework density 15.084466000000001
#
# number of rings (size 3 to 8) (size 9 to 14) (size 15 to 20)
#    0.000    2.769    0.000    1.923    1.077    3.077 
#    0.000    1.538    0.000    5.692    0.000    0.000 
#    0.000    1.231    0.000    0.000    0.000    4.769 
#
# Total GULP energy -966699.398121 kJ/mol
# GULP energy per Si atom -12393.582027 kJ/mol
# Density = 1.505013 g / cm^3
# Si number density = 15.084466 Si / 1000 Ang^3
#
#
#
# Elastic Constant Matrix: (Units=GPa)
#
#
# Indices 1 2 3 4 5 6 
#
# 1 78.6761 40.8936 40.2817 0.0000 0.0000 0.0000
# 2 40.8936 78.6761 40.2817 0.0000 0.0000 0.0000
# 3 40.2817 40.2817 82.9431 0.0000 0.0000 0.0000
# 4 0.0000 0.0000 0.0000 19.4960 0.0000 0.0000
# 5 0.0000 0.0000 0.0000 0.0000 19.4960 0.0000
# 6 0.0000 0.0000 0.0000 0.0000 0.0000 18.8913
#
#
#
# Elastic Compliance Matrix: (Units=1/GPa)
#
#
# Indices 1 2 3 4 5 6 
#
# 1 0.019449 -0.007018 -0.006037 0.000000 0.000000 0.000000
# 2 -0.007018 0.019449 -0.006037 0.000000 0.000000 0.000000
# 3 -0.006037 -0.006037 0.017920 0.000000 0.000000 0.000000
# 4 0.000000 0.000000 0.000000 0.051293 0.000000 0.000000
# 5 0.000000 0.000000 0.000000 0.000000 0.051293 0.000000
# 6 0.000000 0.000000 0.000000 0.000000 0.000000 0.052935
#
#
# Mechanical properties :
#
#
# Convention : Reuss Voigt Hill
#
# Bulk Modulus (GPa) = 53.66602 53.68990 53.67796
# Shear Modulus (GPa) = 19.47533 19.49918 19.48726
#
# Velocity S-wave (km/s) = 3.59707 3.59927 3.59817
# Velocity P-wave (km/s) = 7.27366 7.27620 7.27493
#
# Compressibility (1/GPa) = 0.01863376
#
# Stress axis : x y z
#
# Youngs Moduli (GPa) = 51.41609 51.41609 55.80215
#
# Poissons Ratio (x) = 0.36084 0.33689
# Poissons Ratio (y) = 0.36084 0.33689
# Poissons Ratio (z) = 0.31041 0.31041
#
# Static dielectric constant tensor:
#      x y z
#    x 2.964710 0.000000 0.000000 
#    y 0.000000 2.964710 0.000000 
#    z 0.000000 0.000000 2.887880 
# 
# 
# High freq. dielectric constant tensor:
#      x y z
#    x 1.563960 0.000000 0.000000 
#    y 0.000000 1.563960 0.000000 
#    z 0.000000 0.000000 1.570790 
# 
# From -- ./inp_files/3134.got.cif
#   From: 2010.03.12/outbox.cif.g09.slc.cpg/sg187_2_cif.got.tgz:3134.got - 2010.04.01 11:58:23.
