data_PCOD8326940
_publ_section_title
;
Structure prediction by ZEFSAII (Michael W. Deem and Ramdas Pophale) SiO2 
 PCOD8326940
Probable space group: P -6 M 2
;
_chemical_formula_sum "Si O2"
_cell_formula_units_Z 96
_cell_length_a 17.590963
_cell_length_b 17.590963
_cell_length_c 20.683163
_cell_angle_alpha 90.000000
_cell_angle_beta 90.000000
_cell_angle_gamma 120.000000
_cell_volume 5542.769474
_symmetry_space_group_name_H-M "P -6 M 2"
_symmetry_group_IT_number 187
_symmetry_cell_setting 'hexagonal'
loop_
_space_group_symop_operation_xyz
x,y,z
-x+y,-x,-z
-y,x-y,z
x,y,-z
-x+y,-x,z
-y,x-y,-z
-y,-x,-z
-x+y,y,-z
x,x-y,-z
-x+y,y,z
x,x-y,z
-y,-x,z
loop_
_atom_site_type_symbol
_atom_site_label
_atom_site_fract_x
_atom_site_fract_y
_atom_site_fract_z
Si Si1 0.000446 0.173037 0.365585
Si Si2 0.623683 0.900249 0.192371
Si Si3 0.158813 0.669113 0.317303
Si Si4 0.509091 0.667466 0.072484
Si Si5 0.888873 0.528315 0.430094
Si Si6 0.761824 0.067313 0.247518
Si Si7 0.833530 0.501944 0.707032
Si Si8 0.058855 0.709149 0.572609
O O1 0.913378 0.086623 0.393072
O O2 0.974146 0.209697 0.304237
O O3 0.073000 0.146000 0.346553
O O4 0.045288 0.252788 0.416537
O O5 0.647185 0.823592 0.196066
O O6 0.560633 0.891620 0.252087
O O7 0.581733 0.902094 0.124074
O O8 0.714514 0.992585 0.193719
O O9 0.143574 0.571787 0.329181
O O10 0.262522 0.737479 0.309228
O O11 0.124702 0.702313 0.377318
O O12 0.481128 0.740564 0.082883
O O13 0.424855 0.575146 0.085836
O O14 0.546071 0.672819 0.000000
O O15 0.842069 0.519322 0.500000
O O16 0.932390 0.466195 0.429597
O O17 0.821690 0.501193 0.370836
O O18 0.963878 0.626373 0.418941
O O19 0.847108 0.152893 0.218572
O O20 0.689152 0.091515 0.271311
O O21 0.739412 0.478823 0.736610
O O22 0.858231 0.429116 0.730095
O O23 0.096144 0.715866 0.500000
#
# Coordination Sequence:
#
# PCOD8326940 Si02
#       8
#    12  12  12  12  12  12  12  12
#     4  11  22  38  56  75  96 120 155 204 266 330
#     4  10  19  33  54  78 105 137 172 214 259 303
#     4  11  22  35  51  73 102 137 176 214 252 295
#     4   9  17  29  48  78 117 156 187 212 243 288
#     4   9  17  29  46  67  88 113 150 194 239 291
#     4  10  20  34  53  75  99 128 166 210 257 307
#     4  10  19  31  46  67  93 122 154 193 242 295
#     4  11  22  36  54  71  93 125 164 210 260 310
#
# _framework density 17.319861
#
# number of rings (size 3 to 8) (size 9 to 14) (size 15 to 20)
#    0.000    1.875    2.500    2.000    0.000    4.750 
#    0.000    2.500    0.000    2.875    0.000    0.000 
#    0.000    0.000    0.000    0.000    0.000    0.000 
#
# Total GULP energy -1189778.587508 kJ/mol
# GULP energy per Si atom -12393.526953 kJ/mol
# Density = 1.728044 g / cm^3
# Si number density = 17.319861 Si / 1000 Ang^3
#
#
#
# Elastic Constant Matrix: (Units=GPa)
#
#
# Indices 1 2 3 4 5 6 
#
# 1 98.4370 48.2284 39.4956 0.0000 -0.0001 0.0000
# 2 48.2284 98.4370 39.4956 0.0000 0.0001 0.0000
# 3 39.4956 39.4956 90.9319 0.0000 0.0000 0.0000
# 4 0.0000 0.0000 0.0000 17.9645 0.0000 0.0001
# 5 -0.0001 0.0001 0.0000 0.0000 17.9645 0.0000
# 6 0.0000 0.0000 0.0000 0.0001 0.0000 25.1043
#
#
#
# Elastic Compliance Matrix: (Units=1/GPa)
#
#
# Indices 1 2 3 4 5 6 
#
# 1 0.014409 -0.005508 -0.003866 0.000000 0.000000 0.000000
# 2 -0.005508 0.014409 -0.003866 0.000000 0.000000 0.000000
# 3 -0.003866 -0.003866 0.014355 0.000000 0.000000 0.000000
# 4 0.000000 0.000000 0.000000 0.055665 0.000000 0.000000
# 5 0.000000 0.000000 0.000000 0.000000 0.055665 0.000000
# 6 0.000000 0.000000 0.000000 0.000000 0.000000 0.039834
#
#
# Mechanical properties :
#
#
# Convention : Reuss Voigt Hill
#
# Bulk Modulus (GPa) = 59.90590 60.24946 60.07768
# Shear Modulus (GPa) = 22.08669 22.91244 22.49957
#
# Velocity S-wave (km/s) = 3.57490 3.64111 3.60816
# Velocity P-wave (km/s) = 7.19048 7.24837 7.21948
#
# Compressibility (1/GPa) = 0.01669285
#
# Stress axis : x y z
#
# Youngs Moduli (GPa) = 69.40309 69.40309 69.66035
#
# Poissons Ratio (x) = 0.38229 0.26929
# Poissons Ratio (y) = 0.38229 0.26929
# Poissons Ratio (z) = 0.26830 0.26830
#
# Static dielectric constant tensor:
#      x y z
#    x 3.267210 0.000000 0.000000 
#    y 0.000000 3.267210 0.000000 
#    z 0.000000 0.000000 3.069550 
# 
# 
# High freq. dielectric constant tensor:
#      x y z
#    x 1.670580 0.000000 0.000000 
#    y 0.000000 1.670580 0.000000 
#    z 0.000000 0.000000 1.629890 
# 
# From -- ./inp_files/3775.got.cif
#   From: 2010.03.12/outbox.cif.g09.slc.cpg/sg187_2_cif.got.tgz:3775.got - 2010.04.01 11:58:23.
