data_PCOD8326937
_publ_section_title
;
Structure prediction by ZEFSAII (Michael W. Deem and Ramdas Pophale) SiO2 
 PCOD8326937
Probable space group: P -6 M 2
;
_chemical_formula_sum "Si O2"
_cell_formula_units_Z 78
_cell_length_a 23.579593
_cell_length_b 23.579593
_cell_length_c 8.399716
_cell_angle_alpha 90.000000
_cell_angle_beta 90.000000
_cell_angle_gamma 120.000000
_cell_volume 4044.527973
_symmetry_space_group_name_H-M "P -6 M 2"
_symmetry_group_IT_number 187
_symmetry_cell_setting 'hexagonal'
loop_
_space_group_symop_operation_xyz
x,y,z
-x+y,-x,-z
-y,x-y,z
x,y,-z
-x+y,-x,z
-y,x-y,-z
-y,-x,-z
-x+y,y,-z
x,x-y,-z
-x+y,y,z
x,x-y,z
-y,-x,z
loop_
_atom_site_type_symbol
_atom_site_label
_atom_site_fract_x
_atom_site_fract_y
_atom_site_fract_z
Si Si1 0.664486 0.206955 0.500000
Si Si2 0.133864 0.401083 0.681896
Si Si3 0.822194 0.511401 0.172962
Si Si4 0.126515 0.999821 0.187793
Si Si5 0.737527 0.975836 0.682345
Si Si6 0.333498 0.795048 0.812138
Si Si7 0.337063 0.104468 0.821555
O O1 0.741046 0.258955 0.500000
O O2 0.620982 0.241964 0.500000
O O3 0.646584 0.164916 0.665278
O O4 0.115878 0.404568 0.500000
O O5 0.199783 0.399567 0.702773
O O6 0.076949 0.332900 0.758857
O O7 0.143436 0.467344 0.764867
O O8 0.748020 0.496040 0.175631
O O9 0.873168 0.587485 0.178914
O O10 0.832312 0.484514 0.000000
O O11 0.055813 0.944188 0.252867
O O12 0.179355 0.978834 0.232944
O O13 0.142180 0.071090 0.256925
O O14 0.124785 0.002829 0.000000
O O15 0.738708 0.956929 0.500000
O O16 0.743553 0.046227 0.696917
O O17 0.402334 0.804668 0.743723
O O18 0.273171 0.726830 0.744204
O O19 0.334267 0.791315 0.000000
O O20 0.325189 0.162595 0.763953
O O21 0.308166 0.082034 0.000000
#
# Coordination Sequence:
#
# PCOD8326937 Si02
#       7
#     6  12  12  12  12  12  12
#     4  10  19  30  48  74 104 136 169 206 250 308
#     4   9  19  35  50  68 101 141 174 206 247 298
#     4   8  16  31  49  70  98 132 167 207 259 313
#     4  10  21  37  55  74 100 137 179 220 264 317
#     4  11  22  33  50  77 105 133 169 216 266 313
#     4   9  17  30  51  79 107 132 162 204 253 303
#     4   9  18  33  52  74  99 126 162 212 263 310
#
# _framework density 19.285316999999999
#
# number of rings (size 3 to 8) (size 9 to 14) (size 15 to 20)
#    0.000    2.615    0.000    2.692    1.077    6.462 
#    0.000    1.538    0.000    3.692    0.000    0.000 
#    0.000    0.000    0.000    0.000    0.000    0.000 
#
# Total GULP energy -966309.779410 kJ/mol
# GULP energy per Si atom -12388.586916 kJ/mol
# Density = 1.924142 g / cm^3
# Si number density = 19.285317 Si / 1000 Ang^3
#
#
#
# Elastic Constant Matrix: (Units=GPa)
#
#
# Indices 1 2 3 4 5 6 
#
# 1 95.8825 68.3518 26.0814 0.0000 0.0009 0.0000
# 2 68.3518 95.8825 26.0814 0.0000 -0.0009 0.0000
# 3 26.0814 26.0814 79.0408 0.0000 0.0000 0.0000
# 4 0.0000 0.0000 0.0000 16.1868 0.0000 -0.0009
# 5 0.0009 -0.0009 0.0000 0.0000 16.1868 0.0000
# 6 0.0000 0.0000 0.0000 -0.0009 0.0000 13.7653
#
#
#
# Elastic Compliance Matrix: (Units=1/GPa)
#
#
# Indices 1 2 3 4 5 6 
#
# 1 0.021562 -0.014761 -0.002244 0.000000 -0.000002 0.000000
# 2 -0.014761 0.021562 -0.002244 0.000000 0.000002 0.000000
# 3 -0.002244 -0.002244 0.014133 0.000000 0.000000 0.000000
# 4 0.000000 0.000000 0.000000 0.061779 0.000000 0.000004
# 5 -0.000002 0.000002 0.000000 0.000000 0.061779 0.000000
# 6 0.000000 0.000000 0.000000 0.000004 0.000000 0.072646
#
#
# Mechanical properties :
#
#
# Convention : Reuss Voigt Hill
#
# Bulk Modulus (GPa) = 53.30847 56.87056 55.08952
# Shear Modulus (GPa) = 16.76654 19.24722 18.00688
#
# Velocity S-wave (km/s) = 2.95175 3.16258 3.05898
# Velocity P-wave (km/s) = 6.27049 6.54897 6.41124
#
# Compressibility (1/GPa) = 0.01875874
#
# Stress axis : x y z
#
# Youngs Moduli (GPa) = 46.37701 46.37701 70.75708
#
# Poissons Ratio (x) = 0.68456 0.15881
# Poissons Ratio (y) = 0.68456 0.15881
# Poissons Ratio (z) = 0.10409 0.10409
#
# Static dielectric constant tensor:
#      x y z
#    x 3.557520 0.000000 0.000000 
#    y 0.000000 3.557520 0.000000 
#    z 0.000000 0.000000 3.670310 
# 
# 
# High freq. dielectric constant tensor:
#      x y z
#    x 1.735100 0.000000 0.000000 
#    y 0.000000 1.735100 0.000000 
#    z 0.000000 0.000000 1.745360 
# 
# From -- ./inp_files/1163.got.cif
#   From: 2010.03.12/outbox.cif.g09.slc.cpg/sg187_1_cif.got.tgz:1163.got - 2010.04.01 11:58:23.
