data_PCOD8326815
_publ_section_title
;
Structure prediction by ZEFSAII (Michael W. Deem and Ramdas Pophale) SiO2 
 PCOD8326815
Probable space group: P 63 M C
;
_chemical_formula_sum "Si O2"
_cell_formula_units_Z 46
_cell_length_a 11.125672
_cell_length_b 11.125672
_cell_length_c 23.530429
_cell_angle_alpha 90.000000
_cell_angle_beta 90.000000
_cell_angle_gamma 120.000000
_cell_volume 2522.394329
_symmetry_space_group_name_H-M "P 63 M C"
_symmetry_group_IT_number 186
_symmetry_cell_setting 'hexagonal'
loop_
_space_group_symop_operation_xyz
x,y,z
x-y,x,1/2+z
-y,x-y,z
-x,-y,1/2+z
-x+y,-x,z
y,-x+y,1/2+z
-x+y,y,z
x,x-y,z
-y,-x,z
y,x,1/2+z
x-y,-y,1/2+z
-x,-x+y,1/2+z
loop_
_atom_site_type_symbol
_atom_site_label
_atom_site_fract_x
_atom_site_fract_y
_atom_site_fract_z
Si Si1 0.682944 0.841472 0.482690
Si Si2 0.000000 0.000000 0.008430
Si Si3 0.944119 0.610740 0.406720
Si Si4 0.000000 0.000000 0.143193
Si Si5 0.703047 0.851524 0.699187
Si Si6 0.244990 0.755011 0.594041
Si Si7 0.054091 0.667872 0.282697
O O1 0.847638 0.923819 0.482751
O O2 0.627691 0.696145 0.450613
O O3 0.627460 0.813730 0.546526
O O4 0.000000 0.000000 0.075748
O O5 0.811533 0.623065 0.423878
O O6 0.901581 0.450791 0.409783
O O7 0.994078 0.671314 0.344097
O O8 0.922055 0.844109 0.164556
O O9 0.575897 0.787949 0.656023
O O10 0.695138 0.728998 0.736688
O O11 0.175223 0.587612 0.588039
O O12 0.043603 0.521802 0.270105
O O13 0.213820 0.786181 0.278863
#
# Coordination Sequence:
#
# PCOD8326815 Si02
#       7
#     6   2  12   2   6   6  12
#     4  12  22  41  66  90 123 163 212 256 321 375
#     4  12  24  39  67  92 121 159 198 274 314 364
#     4  11  23  39  60  90 128 169 208 257 314 377
#     4  12  24  39  67  92 121 159 198 274 314 364
#     4  12  22  41  66  90 123 163 212 256 321 375
#     4  10  24  42  62  92 118 162 208 254 304 374
#     4  11  23  39  60  90 128 169 208 257 314 377
#
# _framework density 18.236643000000001
#
# number of rings (size 3 to 8) (size 9 to 14) (size 15 to 20)
#    0.261    0.522    6.522    2.087    0.000    0.000 
#    1.565    2.609    0.000    0.000    0.000    0.000 
#    0.000    0.000    0.000    0.000    0.000    0.000 
#
# Total GULP energy -570592.870319 kJ/mol
# GULP energy per Si atom -12404.192833 kJ/mol
# Density = 1.819514 g / cm^3
# Si number density = 18.236643 Si / 1000 Ang^3
#
#
#
# Elastic Constant Matrix: (Units=GPa)
#
#
# Indices 1 2 3 4 5 6 
#
# 1 73.9194 23.6008 13.4201 0.0000 0.0000 0.0000
# 2 23.6008 73.9194 13.4201 0.0000 0.0000 0.0000
# 3 13.4201 13.4201 78.8042 0.0000 0.0000 0.0000
# 4 0.0000 0.0000 0.0000 34.7050 0.0000 0.0000
# 5 0.0000 0.0000 0.0000 0.0000 34.7050 0.0000
# 6 0.0000 0.0000 0.0000 0.0000 0.0000 25.1593
#
#
#
# Elastic Compliance Matrix: (Units=1/GPa)
#
#
# Indices 1 2 3 4 5 6 
#
# 1 0.015316 -0.004557 -0.001832 0.000000 0.000000 0.000000
# 2 -0.004557 0.015316 -0.001832 0.000000 0.000000 0.000000
# 3 -0.001832 -0.001832 0.013314 0.000000 0.000000 0.000000
# 4 0.000000 0.000000 0.000000 0.028814 0.000000 0.000000
# 5 0.000000 0.000000 0.000000 0.000000 0.028814 0.000000
# 6 0.000000 0.000000 0.000000 0.000000 0.000000 0.039747
#
#
# Mechanical properties :
#
#
# Convention : Reuss Voigt Hill
#
# Bulk Modulus (GPa) = 36.36073 36.39167 36.37620
# Shear Modulus (GPa) = 29.95234 30.66063 30.30648
#
# Velocity S-wave (km/s) = 4.05708 4.10477 4.08100
# Velocity P-wave (km/s) = 6.47519 6.51645 6.49585
#
# Compressibility (1/GPa) = 0.02750220
#
# Stress axis : x y z
#
# Youngs Moduli (GPa) = 65.29136 65.29136 75.11058
#
# Poissons Ratio (x) = 0.29756 0.13761
# Poissons Ratio (y) = 0.29756 0.13761
# Poissons Ratio (z) = 0.11962 0.11962
#
# Static dielectric constant tensor:
#      x y z
#    x 3.374880 0.000000 0.000000 
#    y 0.000000 3.374880 0.000000 
#    z 0.000000 0.000000 3.318110 
# 
# 
# High freq. dielectric constant tensor:
#      x y z
#    x 1.716300 0.000000 0.000000 
#    y 0.000000 1.716300 0.000000 
#    z 0.000000 0.000000 1.712920 
# 
# From -- ./inp_files/3640.got.cif
#   From: 2010.03.12/outbox.cif.g09.slc.cpg/sg186_2_cif.got.tgz:3640.got - 2010.04.01 11:56:34.
