data_PCOD8326278
_publ_section_title
;
Structure prediction by ZEFSAII (Michael W. Deem and Ramdas Pophale) SiO2 
 PCOD8326278
Probable space group: P 62 2 2
;
_chemical_formula_sum "Si O2"
_cell_formula_units_Z 24
_cell_length_a 15.278019
_cell_length_b 15.278019
_cell_length_c 4.665967
_cell_angle_alpha 90.000000
_cell_angle_beta 90.000000
_cell_angle_gamma 120.000000
_cell_volume 943.205634
_symmetry_space_group_name_H-M "P 62 2 2"
_symmetry_group_IT_number 180
_symmetry_cell_setting 'hexagonal'
loop_
_space_group_symop_operation_xyz
x,y,z
x-y,x,1/3+z
-y,x-y,2/3+z
-x,-y,z
-x+y,-x,1/3+z
y,-x+y,2/3+z
x-y,-y,-z
-x,-x+y,1/3-z
y,x,2/3-z
-y,-x,2/3-z
-x+y,y,-z
x,x-y,1/3-z
loop_
_atom_site_type_symbol
_atom_site_label
_atom_site_fract_x
_atom_site_fract_y
_atom_site_fract_z
Si Si1 0.696079 0.696079 0.333334
Si Si2 0.516688 0.158782 0.748238
Si Si3 0.817218 0.817218 0.833334
O O1 0.675877 0.595542 0.176938
O O2 0.781342 0.731670 0.584436
O O3 0.556704 0.113408 0.500000
O O4 0.517801 0.258901 0.666667
O O5 0.595182 0.190363 0.000000
O O6 0.835323 0.917662 0.666667
#
# Coordination Sequence:
#
# PCOD8326278 Si02
#       3
#     6  12   6
#     4  12  27  50  79 114 154 206 264 324 397 480
#     4  12  26  48  76 112 155 202 254 315 384 461
#     4  12  28  54  82 112 152 204 262 332 405 482
#
# _framework density 25.445143999999999
#
# number of rings (size 3 to 8) (size 9 to 14) (size 15 to 20)
#    0.000    0.000    0.000    9.750    0.000    6.000 
#    0.000   13.750    0.000    0.000    0.000    0.000 
#    0.000    0.000    0.000    0.000    0.000    0.000 
#
# Total GULP energy -297492.447662 kJ/mol
# GULP energy per Si atom -12395.518653 kJ/mol
# Density = 2.538723 g / cm^3
# Si number density = 25.445144 Si / 1000 Ang^3
#
#
#
# Elastic Constant Matrix: (Units=GPa)
#
#
# Indices 1 2 3 4 5 6 
#
# 1 196.2193 76.8516 106.5155 0.0000 0.0000 0.0000
# 2 76.8516 196.2193 106.5155 0.0000 0.0000 0.0000
# 3 106.5155 106.5155 225.6264 0.0000 0.0000 0.0000
# 4 0.0000 0.0000 0.0000 67.6601 0.0000 0.0000
# 5 0.0000 0.0000 0.0000 0.0000 67.6601 0.0000
# 6 0.0000 0.0000 0.0000 0.0000 0.0000 59.6839
#
#
#
# Elastic Compliance Matrix: (Units=1/GPa)
#
#
# Indices 1 2 3 4 5 6 
#
# 1 0.007087 -0.001290 -0.002737 0.000000 0.000000 0.000000
# 2 -0.001290 0.007087 -0.002737 0.000000 0.000000 0.000000
# 3 -0.002737 -0.002737 0.007016 0.000000 0.000000 0.000000
# 4 0.000000 0.000000 0.000000 0.014780 0.000000 0.000000
# 5 0.000000 0.000000 0.000000 0.000000 0.014780 0.000000
# 6 0.000000 0.000000 0.000000 0.000000 0.000000 0.016755
#
#
# Mechanical properties :
#
#
# Convention : Reuss Voigt Hill
#
# Bulk Modulus (GPa) = 130.49247 133.09226 131.79237
# Shear Modulus (GPa) = 59.81809 60.87964 60.34887
#
# Velocity S-wave (km/s) = 4.85383 4.89671 4.87532
# Velocity P-wave (km/s) = 9.09989 9.18638 9.14324
#
# Compressibility (1/GPa) = 0.00766328
#
# Stress axis : x y z
#
# Youngs Moduli (GPa) = 141.09823 141.09823 142.53037
#
# Poissons Ratio (x) = 0.18205 0.39007
# Poissons Ratio (y) = 0.18205 0.39007
# Poissons Ratio (z) = 0.38615 0.38615
#
# Static dielectric constant tensor:
#      x y z
#    x 5.061510 0.000000 0.000000 
#    y 0.000000 5.061510 0.000000 
#    z 0.000000 0.000000 5.445520 
# 
# 
# High freq. dielectric constant tensor:
#      x y z
#    x 2.025660 0.000000 0.000000 
#    y 0.000000 2.025660 0.000000 
#    z 0.000000 0.000000 2.053200 
# 
# From -- ./inp_files/185.got.cif
#   From: 2010.03.12/outbox.cif.g09.slc.cpg/sg180_1_cif.got.tgz:185.got - 2010.04.01 11:35:50.
