data_PCOD8326919
_publ_section_title
;
Structure prediction by ZEFSAII (Michael W. Deem and Ramdas Pophale) SiO2 
 PCOD8326919
Probable space group: P -6 M 2
;
_chemical_formula_sum "Si O2"
_cell_formula_units_Z 72
_cell_length_a 16.418022
_cell_length_b 16.418022
_cell_length_c 18.087020
_cell_angle_alpha 90.000000
_cell_angle_beta 90.000000
_cell_angle_gamma 120.000000
_cell_volume 4222.205013
_symmetry_space_group_name_H-M "P -6 M 2"
_symmetry_group_IT_number 187
_symmetry_cell_setting 'hexagonal'
loop_
_space_group_symop_operation_xyz
x,y,z
-x+y,-x,-z
-y,x-y,z
x,y,-z
-x+y,-x,z
-y,x-y,-z
-y,-x,-z
-x+y,y,-z
x,x-y,-z
-x+y,y,z
x,x-y,z
-y,-x,z
loop_
_atom_site_type_symbol
_atom_site_label
_atom_site_fract_x
_atom_site_fract_y
_atom_site_fract_z
Si Si1 0.352035 0.081620 0.581005
Si Si2 0.188949 0.999240 0.313804
Si Si3 0.332626 0.855313 0.083712
Si Si4 0.000415 0.819933 0.916611
Si Si5 0.000457 0.316099 0.812346
Si Si6 0.475823 0.334889 0.284651
O O1 0.362799 0.044860 0.500000
O O2 0.374734 0.187367 0.572599
O O3 0.427297 0.083670 0.639842
O O4 0.245351 0.016104 0.609496
O O5 0.082008 0.917993 0.325555
O O6 0.191520 0.095760 0.288792
O O7 0.240766 0.967524 0.254464
O O8 0.431059 0.862117 0.099286
O O9 0.252278 0.747722 0.091384
O O10 0.317370 0.913183 0.148343
O O11 0.330718 0.891872 0.000000
O O12 0.930703 0.861405 0.912032
O O13 0.955925 0.721872 0.873392
O O14 0.015872 0.799063 0.000000
O O15 0.100835 0.899166 0.882766
O O16 0.923392 0.342606 0.785289
O O17 0.472539 0.236270 0.280265
O O18 0.582451 0.417550 0.281232
#
# Coordination Sequence:
#
# PCOD8326919 Si02
#       6
#    12  12  12  12  12  12
#     4   8  16  31  48  68  95 122 149 188 236 279
#     4  10  19  30  46  68  97 134 172 206 237 275
#     4  10  20  34  52  73  96 122 155 198 247 298
#     4  10  19  30  45  66  93 125 161 201 242 283
#     4  11  20  32  47  68  96 126 159 196 240 288
#     4  10  20  34  52  72  94 121 154 193 237 287
#
# _framework density 17.052700999999999
#
# number of rings (size 3 to 8) (size 9 to 14) (size 15 to 20)
#    0.000    2.167    0.000    5.667    0.000    3.333 
#    0.000    1.667    0.000    2.000    0.000    0.000 
#    0.000    8.000    0.000    0.000    0.000   56.000 
#
# Total GULP energy -892248.052644 kJ/mol
# GULP energy per Si atom -12392.334064 kJ/mol
# Density = 1.701389 g / cm^3
# Si number density = 17.052701 Si / 1000 Ang^3
#
#
#
# Elastic Constant Matrix: (Units=GPa)
#
#
# Indices 1 2 3 4 5 6 
#
# 1 76.8695 22.1176 37.8337 0.0000 -0.0001 0.0000
# 2 22.1176 76.8695 37.8337 0.0000 0.0001 0.0000
# 3 37.8337 37.8337 98.3449 0.0000 0.0000 0.0000
# 4 0.0000 0.0000 0.0000 18.7296 0.0000 0.0001
# 5 -0.0001 0.0001 0.0000 0.0000 18.7296 0.0000
# 6 0.0000 0.0000 0.0000 0.0001 0.0000 27.3759
#
#
#
# Elastic Compliance Matrix: (Units=1/GPa)
#
#
# Indices 1 2 3 4 5 6 
#
# 1 0.016287 -0.001977 -0.005505 0.000000 0.000000 0.000000
# 2 -0.001977 0.016287 -0.005505 0.000000 0.000000 0.000000
# 3 -0.005505 -0.005505 0.014404 0.000000 0.000000 0.000000
# 4 0.000000 0.000000 0.000000 0.053391 0.000000 0.000000
# 5 0.000000 0.000000 0.000000 0.000000 0.053391 0.000000
# 6 0.000000 0.000000 0.000000 0.000000 0.000000 0.036528
#
#
# Mechanical properties :
#
#
# Convention : Reuss Voigt Hill
#
# Bulk Modulus (GPa) = 47.60984 49.73935 48.67459
# Shear Modulus (GPa) = 22.39474 23.25364 22.82419
#
# Velocity S-wave (km/s) = 3.62783 3.69675 3.66245
# Velocity P-wave (km/s) = 6.74745 6.88858 6.81838
#
# Compressibility (1/GPa) = 0.02100406
#
# Stress axis : x y z
#
# Youngs Moduli (GPa) = 61.39687 61.39687 69.42422
#
# Poissons Ratio (x) = 0.12137 0.38221
# Poissons Ratio (y) = 0.12137 0.38221
# Poissons Ratio (z) = 0.33801 0.33801
#
# Static dielectric constant tensor:
#      x y z
#    x 3.094920 0.000000 0.000000 
#    y 0.000000 3.094920 0.000000 
#    z 0.000000 0.000000 3.456780 
# 
# 
# High freq. dielectric constant tensor:
#      x y z
#    x 1.645890 0.000000 0.000000 
#    y 0.000000 1.645890 0.000000 
#    z 0.000000 0.000000 1.662000 
# 
# From -- ./inp_files/3040.got.cif
#   From: 2010.03.12/outbox.cif.g09.slc.cpg/sg187_2_cif.got.tgz:3040.got - 2010.04.01 11:58:23.
