data_PCOD8326336
_publ_section_title
;
Structure prediction by ZEFSAII (Michael W. Deem and Ramdas Pophale) SiO2 
 PCOD8326336
Probable space group: P 64 2 2
;
_chemical_formula_sum "Si O2"
_cell_formula_units_Z 36
_cell_length_a 7.756403
_cell_length_b 7.756403
_cell_length_c 28.417857
_cell_angle_alpha 90.000000
_cell_angle_beta 90.000000
_cell_angle_gamma 120.000000
_cell_volume 1480.616850
_symmetry_space_group_name_H-M "P 64 2 2"
_symmetry_group_IT_number 181
_symmetry_cell_setting 'hexagonal'
loop_
_space_group_symop_operation_xyz
x,y,z
x-y,x,2/3+z
-y,x-y,1/3+z
-x,-y,z
-x+y,-x,2/3+z
y,-x+y,1/3+z
x-y,-y,-z
-x,-x+y,2/3-z
y,x,1/3-z
-y,-x,1/3-z
-x+y,y,-z
x,x-y,2/3-z
loop_
_atom_site_type_symbol
_atom_site_label
_atom_site_fract_x
_atom_site_fract_y
_atom_site_fract_z
Si Si1 0.309582 0.574063 0.717445
Si Si2 0.118749 0.380532 0.550776
Si Si3 0.809787 0.073667 0.615896
O O1 0.408549 0.591452 0.666667
O O2 0.485620 0.671540 0.755630
O O3 0.191856 0.692153 0.716558
O O4 0.157440 0.342819 0.730218
O O5 0.162936 0.325872 0.500000
O O6 0.000000 0.500000 0.547097
O O7 0.986777 0.171615 0.577937
O O8 0.908822 0.091179 0.666667
#
# Coordination Sequence:
#
# PCOD8326336 Si02
#       3
#    12  12  12
#     4   9  15  27  52  88 126 166 225 283 337 410
#     4  10  20  34  55  89 138 177 222 282 352 420
#     4   9  15  27  52  90 128 169 221 284 342 405
#
# _framework density 24.31419
#
# number of rings (size 3 to 8) (size 9 to 14) (size 15 to 20)
#    0.000    2.667    3.333    0.000    0.000    0.000 
#    0.000   13.333    0.000    5.000    0.000    2.333 
#   10.000    0.000    0.000    0.000    0.000    0.000 
#
# Total GULP energy -446350.274837 kJ/mol
# GULP energy per Si atom -12398.618745 kJ/mol
# Density = 2.425885 g / cm^3
# Si number density = 24.314190 Si / 1000 Ang^3
#
#
#
# Elastic Constant Matrix: (Units=GPa)
#
#
# Indices 1 2 3 4 5 6 
#
# 1 136.4002 70.3853 74.8443 0.0000 0.0000 0.0000
# 2 70.3853 136.4002 74.8443 0.0000 0.0000 0.0000
# 3 74.8443 74.8443 229.7441 0.0000 0.0000 0.0000
# 4 0.0000 0.0000 0.0000 -23.9869 0.0000 0.0000
# 5 0.0000 0.0000 0.0000 0.0000 -23.9869 0.0000
# 6 0.0000 0.0000 0.0000 0.0000 0.0000 33.0074
#
#
#
# Elastic Compliance Matrix: (Units=1/GPa)
#
#
# Indices 1 2 3 4 5 6 
#
# 1 0.010738 -0.004410 -0.002062 0.000000 0.000000 0.000000
# 2 -0.004410 0.010738 -0.002062 0.000000 0.000000 0.000000
# 3 -0.002062 -0.002062 0.005696 0.000000 0.000000 0.000000
# 4 0.000000 0.000000 0.000000 -0.041689 0.000000 0.000000
# 5 0.000000 0.000000 0.000000 0.000000 -0.041689 0.000000
# 6 0.000000 0.000000 0.000000 0.000000 0.000000 0.030296
#
#
# Mechanical properties :
#
#
# Convention : Reuss Voigt Hill
#
# Bulk Modulus (GPa) = 98.95000 104.74359 101.84680
# Shear Modulus (GPa) = -913.13217 15.83811 -448.64703
#
# Velocity S-wave (km/s) = -19.40027 2.55501 -13.59857
# Velocity P-wave (km/s) = 21.47190 7.20256 14.30325
#
# Compressibility (1/GPa) = 0.01010611
#
# Stress axis : x y z
#
# Youngs Moduli (GPa) = 93.12556 93.12556 175.56559
#
# Poissons Ratio (x) = 0.41068 0.36194
# Poissons Ratio (y) = 0.41068 0.36194
# Poissons Ratio (z) = 0.19199 0.19199
#
# Static dielectric constant tensor:
#      x y z
#    x 4.573980 0.000000 0.000000 
#    y 0.000000 4.573980 0.000000 
#    z 0.000000 0.000000 4.206530 
# 
# 
# High freq. dielectric constant tensor:
#      x y z
#    x 1.981180 0.000000 0.000000 
#    y 0.000000 1.981180 0.000000 
#    z 0.000000 0.000000 1.941610 
# 
# From -- ./inp_files/10754.got.cif
#   From: 2010.03.12/outbox.cif.g09.slc.cpg/sg181_6_cif.got.tgz:10754.got - 2010.04.01 11:42:41.
