data_PCOD8326436
_publ_section_title
;
Structure prediction by ZEFSAII (Michael W. Deem and Ramdas Pophale) SiO2 
 PCOD8326436
Probable space group: P 63 2 2
;
_chemical_formula_sum "Si O2"
_cell_formula_units_Z 42
_cell_length_a 19.190584
_cell_length_b 19.190584
_cell_length_c 7.359047
_cell_angle_alpha 90.000000
_cell_angle_beta 90.000000
_cell_angle_gamma 120.000000
_cell_volume 2347.083772
_symmetry_space_group_name_H-M "P 63 2 2"
_symmetry_group_IT_number 182
_symmetry_cell_setting 'hexagonal'
loop_
_space_group_symop_operation_xyz
x,y,z
x-y,x,1/2+z
-y,x-y,z
-x,-y,1/2+z
-x+y,-x,z
y,-x+y,1/2+z
x-y,-y,-z
-x,-x+y,-z
y,x,-z
-y,-x,1/2-z
-x+y,y,1/2-z
x,x-y,1/2-z
loop_
_atom_site_type_symbol
_atom_site_label
_atom_site_fract_x
_atom_site_fract_y
_atom_site_fract_z
Si Si1 0.255660 0.413864 0.404572
Si Si2 0.835533 0.164468 0.250000
Si Si3 0.406341 0.481251 0.608530
Si Si4 0.309243 0.304477 0.212143
O O1 0.226170 0.452339 0.250000
O O2 0.192798 0.384908 0.570257
O O3 0.344328 0.485643 0.465837
O O4 0.256790 0.336139 0.316283
O O5 0.933329 0.208804 0.250237
O O6 0.478552 0.478552 0.500000
O O7 0.444514 0.555487 0.750000
O O8 0.351898 0.398830 0.712308
O O9 0.317168 0.317168 0.000000
#
# Coordination Sequence:
#
# PCOD8326436 Si02
#       4
#    12   6  12  12
#     4  10  19  32  50  74 107 144 172 212 274 323
#     4  10  18  30  48  70 106 136 174 210 258 318
#     4   9  18  30  47  73 107 140 172 215 264 320
#     4  10  18  30  50  73 106 141 169 216 263 322
#
# _framework density 17.894546999999999
#
# number of rings (size 3 to 8) (size 9 to 14) (size 15 to 20)
#    0.000    2.286    2.857    3.429    0.000    0.000 
#    0.000    0.000    0.000    0.000    0.000    0.000 
#   92.857  151.429    0.000    0.000    0.000    0.000 
#
# Total GULP energy -520313.520085 kJ/mol
# GULP energy per Si atom -12388.417145 kJ/mol
# Density = 1.785382 g / cm^3
# Si number density = 17.894547 Si / 1000 Ang^3
#
#
#
# Elastic Constant Matrix: (Units=GPa)
#
#
# Indices 1 2 3 4 5 6 
#
# 1 60.0935 37.0599 33.1966 0.0000 0.0000 0.0000
# 2 37.0599 60.0935 33.1966 0.0000 0.0000 0.0000
# 3 33.1966 33.1966 129.9572 0.0000 0.0000 0.0000
# 4 0.0000 0.0000 0.0000 34.8534 0.0000 0.0000
# 5 0.0000 0.0000 0.0000 0.0000 34.8534 0.0000
# 6 0.0000 0.0000 0.0000 0.0000 0.0000 11.5168
#
#
#
# Elastic Compliance Matrix: (Units=1/GPa)
#
#
# Indices 1 2 3 4 5 6 
#
# 1 0.027942 -0.015472 -0.003185 0.000000 0.000000 0.000000
# 2 -0.015472 0.027942 -0.003185 0.000000 0.000000 0.000000
# 3 -0.003185 -0.003185 0.009322 0.000000 0.000000 0.000000
# 4 0.000000 0.000000 0.000000 0.028692 0.000000 0.000000
# 5 0.000000 0.000000 0.000000 0.000000 0.028692 0.000000
# 6 0.000000 0.000000 0.000000 0.000000 0.000000 0.086829
#
#
# Mechanical properties :
#
#
# Convention : Reuss Voigt Hill
#
# Bulk Modulus (GPa) = 46.46731 50.78337 48.62534
# Shear Modulus (GPa) = 19.21017 26.02416 22.61716
#
# Velocity S-wave (km/s) = 3.28002 3.81767 3.55901
# Velocity P-wave (km/s) = 6.35361 6.91908 6.64237
#
# Compressibility (1/GPa) = 0.02152050
#
# Stress axis : x y z
#
# Youngs Moduli (GPa) = 35.78811 35.78811 107.27114
#
# Poissons Ratio (x) = 0.55373 0.34169
# Poissons Ratio (y) = 0.55373 0.34169
# Poissons Ratio (z) = 0.11400 0.11400
#
# Static dielectric constant tensor:
#      x y z
#    x 3.308720 0.000000 0.000000 
#    y 0.000000 3.308720 0.000000 
#    z 0.000000 0.000000 3.980490 
# 
# 
# High freq. dielectric constant tensor:
#      x y z
#    x 1.653790 0.000000 0.000000 
#    y 0.000000 1.653790 0.000000 
#    z 0.000000 0.000000 1.729900 
# 
# From -- ./inp_files/1318.got.cif
#   From: 2010.03.12/outbox.cif.g09.slc.cpg/sg182_1_cif.got.tgz:1318.got - 2010.04.01 11:49:36.
