data_PCOD8326424
_publ_section_title
;
Structure prediction by ZEFSAII (Michael W. Deem and Ramdas Pophale) SiO2 
 PCOD8326424
Probable space group: P 64 2 2
;
_chemical_formula_sum "Si O2"
_cell_formula_units_Z 51
_cell_length_a 13.835710
_cell_length_b 13.835710
_cell_length_c 14.058511
_cell_angle_alpha 90.000000
_cell_angle_beta 90.000000
_cell_angle_gamma 120.000000
_cell_volume 2330.627453
_symmetry_space_group_name_H-M "P 64 2 2"
_symmetry_group_IT_number 181
_symmetry_cell_setting 'hexagonal'
loop_
_space_group_symop_operation_xyz
x,y,z
x-y,x,2/3+z
-y,x-y,1/3+z
-x,-y,z
-x+y,-x,2/3+z
y,-x+y,1/3+z
x-y,-y,-z
-x,-x+y,2/3-z
y,x,1/3-z
-y,-x,1/3-z
-x+y,y,-z
x,x-y,2/3-z
loop_
_atom_site_type_symbol
_atom_site_label
_atom_site_fract_x
_atom_site_fract_y
_atom_site_fract_z
Si Si1 0.835195 0.835195 0.666667
Si Si2 0.889038 0.554328 0.503235
Si Si3 0.227175 0.320645 0.844734
Si Si4 0.000000 0.500000 0.333334
Si Si5 0.086566 0.173132 0.000000
Si Si6 0.753333 0.312339 0.558795
O O1 0.784794 0.744475 0.748328
O O2 0.956328 0.853950 0.641683
O O3 0.794305 0.588610 0.500000
O O4 0.922019 0.530028 0.398348
O O5 0.845900 0.442669 0.564748
O O6 0.994802 0.656659 0.556336
O O7 0.243408 0.443504 0.833229
O O8 0.116121 0.251235 0.907898
O O9 0.728271 0.271730 0.666667
O O10 0.646594 0.293187 0.500000
#
# Coordination Sequence:
#
# PCOD8326424 Si02
#       6
#     6  12  12   3   6  12
#     4  11  25  42  72 104 134 188 237 305 370 428
#     4  11  25  40  71 106 142 188 246 309 368 438
#     4  12  23  44  69 102 141 182 249 294 367 447
#     4  12  22  44  68 108 148 194 268 306 364 480
#     4  11  24  44  67 100 145 182 231 302 374 442
#     4  11  26  44  69 102 148 192 242 301 377 454
#
# _framework density 21.882518999999998
#
# number of rings (size 3 to 8) (size 9 to 14) (size 15 to 20)
#    0.000    0.706    3.529    3.529    6.588    3.765 
#    0.000    0.000    0.000    0.000    0.000    0.000 
#    0.000    0.000    0.000    0.000    0.000    0.000 
#
# Total GULP energy -632095.524744 kJ/mol
# GULP energy per Si atom -12394.029897 kJ/mol
# Density = 2.183271 g / cm^3
# Si number density = 21.882519 Si / 1000 Ang^3
#
#
#
# Elastic Constant Matrix: (Units=GPa)
#
#
# Indices 1 2 3 4 5 6 
#
# 1 131.5182 55.3393 50.7486 0.0000 0.0000 0.0000
# 2 55.3393 131.5182 50.7486 0.0000 0.0000 0.0000
# 3 50.7486 50.7486 114.8995 0.0000 0.0000 0.0000
# 4 0.0000 0.0000 0.0000 42.4884 0.0000 0.0000
# 5 0.0000 0.0000 0.0000 0.0000 42.4884 0.0000
# 6 0.0000 0.0000 0.0000 0.0000 0.0000 38.0894
#
#
#
# Elastic Compliance Matrix: (Units=1/GPa)
#
#
# Indices 1 2 3 4 5 6 
#
# 1 0.010084 -0.003043 -0.003110 0.000000 0.000000 0.000000
# 2 -0.003043 0.010084 -0.003110 0.000000 0.000000 0.000000
# 3 -0.003110 -0.003110 0.011450 0.000000 0.000000 0.000000
# 4 0.000000 0.000000 0.000000 0.023536 0.000000 0.000000
# 5 0.000000 0.000000 0.000000 0.000000 0.023536 0.000000
# 6 0.000000 0.000000 0.000000 0.000000 0.000000 0.026254
#
#
# Mechanical properties :
#
#
# Convention : Reuss Voigt Hill
#
# Bulk Modulus (GPa) = 76.37759 76.84545 76.61152
# Shear Modulus (GPa) = 39.11340 39.35320 39.23330
#
# Velocity S-wave (km/s) = 4.23238 4.24534 4.23887
# Velocity P-wave (km/s) = 7.67224 7.69572 7.68399
#
# Compressibility (1/GPa) = 0.01309285
#
# Stress axis : x y z
#
# Youngs Moduli (GPa) = 99.16777 99.16777 87.33390
#
# Poissons Ratio (x) = 0.30178 0.27159
# Poissons Ratio (y) = 0.30178 0.27159
# Poissons Ratio (z) = 0.30839 0.30839
#
# Static dielectric constant tensor:
#      x y z
#    x 4.545710 0.000000 0.000000 
#    y 0.000000 4.545710 0.000000 
#    z 0.000000 0.000000 3.745910 
# 
# 
# High freq. dielectric constant tensor:
#      x y z
#    x 1.878580 0.000000 0.000000 
#    y 0.000000 1.878580 0.000000 
#    z 0.000000 0.000000 1.833380 
# 
# From -- ./inp_files/6061.got.cif
#   From: 2010.03.12/outbox.cif.g09.slc.cpg/sg181_4_cif.got.tgz:6061.got - 2010.04.01 11:42:41.
