data_PCOD8326528
_publ_section_title
;
Structure prediction by ZEFSAII (Michael W. Deem and Ramdas Pophale) SiO2 
 PCOD8326528
Probable space group: P 6 M M
;
_chemical_formula_sum "Si O2"
_cell_formula_units_Z 96
_cell_length_a 21.628856
_cell_length_b 21.628856
_cell_length_c 16.771803
_cell_angle_alpha 90.000000
_cell_angle_beta 90.000000
_cell_angle_gamma 120.000000
_cell_volume 6794.812588
_symmetry_space_group_name_H-M "P 6 M M"
_symmetry_group_IT_number 183
_symmetry_cell_setting 'hexagonal'
loop_
_space_group_symop_operation_xyz
x,y,z
x-y,x,z
-y,x-y,z
-x,-y,z
-x+y,-x,z
y,-x+y,z
-x+y,y,z
x,x-y,z
-y,-x,z
y,x,z
x-y,-y,z
-x,-x+y,z
loop_
_atom_site_type_symbol
_atom_site_label
_atom_site_fract_x
_atom_site_fract_y
_atom_site_fract_z
Si Si1 0.388983 0.470568 0.055200
Si Si2 0.223875 0.305223 0.781823
Si Si3 0.667120 0.472502 0.780078
Si Si4 0.191435 0.666935 0.190563
Si Si5 0.720856 0.140645 0.916591
Si Si6 0.663794 0.582273 0.672029
Si Si7 0.809099 0.476230 0.371374
Si Si8 0.081567 0.611843 0.505114
O O1 0.450269 0.549732 0.026344
O O2 0.424947 0.424947 0.081488
O O3 0.348374 0.475043 0.132793
O O4 0.331840 0.426900 0.986858
O O5 0.138920 0.277840 0.780201
O O6 0.238191 0.238191 0.781575
O O7 0.260845 0.352075 0.860606
O O8 0.259673 0.354795 0.703790
O O9 0.740273 0.480546 0.745715
O O10 0.610046 0.389955 0.789351
O O11 0.680077 0.507789 0.866521
O O12 0.638770 0.509478 0.719225
O O13 0.213923 0.606962 0.182673
O O14 0.258949 0.741052 0.164435
O O15 0.167443 0.670058 0.280824
O O16 0.794379 0.205622 0.951677
O O17 0.603339 0.603339 0.687707
O O18 0.666697 0.566762 0.578566
O O19 0.739709 0.479417 0.396335
O O20 0.790525 0.395263 0.381705
O O21 0.872557 0.528600 0.429458
O O22 0.097746 0.548873 0.529805
O O23 0.000000 0.578601 0.478825
#
# Coordination Sequence:
#
# PCOD8326528 Si02
#       8
#    12  12  12  12  12  12  12  12
#     4  10  19  28  39  57  79  99 122 156 195 231
#     4   9  17  29  45  63  82 104 129 157 188 222
#     4  10  19  29  40  55  77 103 130 160 195 233
#     4   9  17  29  43  57  73  96 126 157 189 226
#     4   9  17  29  43  57  75 101 131 160 188 221
#     4   9  17  29  43  58  76 100 132 164 191 223
#     4   9  17  28  42  58  75  96 123 156 192 229
#     4   9  17  28  41  57  77 100 126 157 193 231
#
# _framework density 14.128425
#
# number of rings (size 3 to 8) (size 9 to 14) (size 15 to 20)
#    0.000    2.750    0.000    3.000    0.000    3.750 
#    0.000    2.500    0.000    5.625    0.000    0.000 
#    0.000    0.000    0.000    0.000    0.000    0.000 
#
# Total GULP energy -1190147.387156 kJ/mol
# GULP energy per Si atom -12397.368616 kJ/mol
# Density = 1.409627 g / cm^3
# Si number density = 14.128425 Si / 1000 Ang^3
#
#
#
# Elastic Constant Matrix: (Units=GPa)
#
#
# Indices 1 2 3 4 5 6 
#
# 1 77.6856 39.7980 45.3668 0.0000 0.0000 0.0000
# 2 39.7980 77.6856 45.3668 0.0000 0.0000 0.0000
# 3 45.3668 45.3668 81.1320 0.0000 0.0000 0.0000
# 4 0.0000 0.0000 0.0000 21.1127 0.0000 0.0000
# 5 0.0000 0.0000 0.0000 0.0000 21.1127 0.0000
# 6 0.0000 0.0000 0.0000 0.0000 0.0000 18.9438
#
#
#
# Elastic Compliance Matrix: (Units=1/GPa)
#
#
# Indices 1 2 3 4 5 6 
#
# 1 0.020688 -0.005706 -0.008377 0.000000 0.000000 0.000000
# 2 -0.005706 0.020688 -0.008377 0.000000 0.000000 0.000000
# 3 -0.008377 -0.008377 0.021694 0.000000 0.000000 0.000000
# 4 0.000000 0.000000 0.000000 0.047365 0.000000 0.000000
# 5 0.000000 0.000000 0.000000 0.000000 0.047365 0.000000
# 6 0.000000 0.000000 0.000000 0.000000 0.000000 0.052788
#
#
# Mechanical properties :
#
#
# Convention : Reuss Voigt Hill
#
# Bulk Modulus (GPa) = 55.10139 55.28516 55.19328
# Shear Modulus (GPa) = 19.11617 19.29861 19.20739
#
# Velocity S-wave (km/s) = 3.68234 3.69987 3.69112
# Velocity P-wave (km/s) = 7.56073 7.58073 7.57074
#
# Compressibility (1/GPa) = 0.01814836
#
# Stress axis : x y z
#
# Youngs Moduli (GPa) = 48.33758 48.33758 46.09480
#
# Poissons Ratio (x) = 0.27582 0.38615
# Poissons Ratio (y) = 0.27582 0.38615
# Poissons Ratio (z) = 0.40494 0.40494
#
# Static dielectric constant tensor:
#      x y z
#    x 2.678160 0.000000 0.000000 
#    y 0.000000 2.678160 0.000000 
#    z 0.000000 0.000000 2.765360 
# 
# 
# High freq. dielectric constant tensor:
#      x y z
#    x 1.524640 0.000000 0.000000 
#    y 0.000000 1.524640 0.000000 
#    z 0.000000 0.000000 1.535380 
# 
# From -- ./inp_files/2786.got.cif
#   From: 2010.03.12/outbox.cif.g09.slc.cpg/sg183_2_cif.got.tgz:2786.got - 2010.04.01 11:53:02.
