data_PCOD8326503
_publ_section_title
;
Structure prediction by ZEFSAII (Michael W. Deem and Ramdas Pophale) SiO2 
 PCOD8326503
Probable space group: P 63 2 2
;
_chemical_formula_sum "Si O2"
_cell_formula_units_Z 34
_cell_length_a 11.767316
_cell_length_b 11.767316
_cell_length_c 12.258589
_cell_angle_alpha 90.000000
_cell_angle_beta 90.000000
_cell_angle_gamma 120.000000
_cell_volume 1470.029156
_symmetry_space_group_name_H-M "P 63 2 2"
_symmetry_group_IT_number 182
_symmetry_cell_setting 'hexagonal'
loop_
_space_group_symop_operation_xyz
x,y,z
x-y,x,1/2+z
-y,x-y,z
-x,-y,1/2+z
-x+y,-x,z
y,-x+y,1/2+z
x-y,-y,-z
-x,-x+y,-z
y,x,-z
-y,-x,1/2-z
-x+y,y,1/2-z
x,x-y,1/2-z
loop_
_atom_site_type_symbol
_atom_site_label
_atom_site_fract_x
_atom_site_fract_y
_atom_site_fract_z
Si Si1 0.925948 0.591132 0.225852
Si Si2 0.666667 0.333334 0.620241
Si Si3 0.729583 0.620077 0.917461
Si Si4 0.000000 0.288717 0.500000
O O1 0.808373 0.616746 0.250000
O O2 0.885171 0.442586 0.250000
O O3 0.052168 0.697051 0.294716
O O4 0.959732 0.610002 0.099056
O O5 0.666668 0.333334 0.750000
O O6 0.523036 0.286755 0.573777
O O7 0.877422 0.726585 0.957496
O O8 0.627756 0.627756 0.000000
#
# Coordination Sequence:
#
# PCOD8326503 Si02
#       4
#    12   4  12   6
#     4  12  27  47  76 117 157 201 262 319 388 461
#     4  12  27  48  81 106 152 196 252 321 382 452
#     4  12  27  48  78 115 151 201 254 315 385 460
#     4  12  26  50  78 104 162 200 254 318 380 460
#
# _framework density 23.128793000000002
#
# number of rings (size 3 to 8) (size 9 to 14) (size 15 to 20)
#    0.000    0.000    3.529    6.706    9.882    0.000 
#    1.059    0.000    0.000    0.000    0.000    0.000 
#    0.000    0.000    0.000    0.000    0.000    0.000 
#
# Total GULP energy -421756.250295 kJ/mol
# GULP energy per Si atom -12404.595597 kJ/mol
# Density = 2.307615 g / cm^3
# Si number density = 23.128793 Si / 1000 Ang^3
#
#
#
# Elastic Constant Matrix: (Units=GPa)
#
#
# Indices 1 2 3 4 5 6 
#
# 1 120.4055 73.3745 43.2849 0.0001 0.0000 -0.0001
# 2 73.3745 120.4048 43.2848 0.0000 -0.0001 0.0000
# 3 43.2849 43.2848 163.7592 0.0000 -0.0001 0.0001
# 4 0.0001 0.0000 0.0000 33.3344 -0.0001 0.0000
# 5 0.0000 -0.0001 -0.0001 -0.0001 33.3344 -0.0001
# 6 -0.0001 0.0000 0.0001 0.0000 -0.0001 23.5153
#
#
#
# Elastic Compliance Matrix: (Units=1/GPa)
#
#
# Indices 1 2 3 4 5 6 
#
# 1 0.013557 -0.007706 -0.001547 0.000000 0.000000 0.000000
# 2 -0.007706 0.013557 -0.001547 0.000000 0.000000 0.000000
# 3 -0.001547 -0.001547 0.006924 0.000000 0.000000 0.000000
# 4 0.000000 0.000000 0.000000 0.029999 0.000000 0.000000
# 5 0.000000 0.000000 0.000000 0.000000 0.029999 0.000000
# 6 0.000000 0.000000 0.000000 0.000000 0.000000 0.042526
#
#
# Mechanical properties :
#
#
# Convention : Reuss Voigt Hill
#
# Bulk Modulus (GPa) = 80.38302 80.49532 80.43917
# Shear Modulus (GPa) = 30.80587 34.34516 32.57552
#
# Velocity S-wave (km/s) = 3.65352 3.85769 3.75699
# Velocity P-wave (km/s) = 7.25449 7.39736 7.32627
#
# Compressibility (1/GPa) = 0.01244044
#
# Stress axis : x y z
#
# Youngs Moduli (GPa) = 73.76229 73.76180 144.42201
#
# Poissons Ratio (x) = 0.56838 0.22337
# Poissons Ratio (y) = 0.56839 0.22337
# Poissons Ratio (z) = 0.11408 0.11408
#
# Static dielectric constant tensor:
#      x y z
#    x 4.295700 0.000000 0.000000 
#    y 0.000000 4.295690 0.000000 
#    z 0.000000 0.000000 4.541260 
# 
# 
# High freq. dielectric constant tensor:
#      x y z
#    x 1.912740 0.000000 0.000000 
#    y 0.000000 1.912740 0.000000 
#    z 0.000000 0.000000 1.938560 
# 
# From -- ./inp_files/3040.got.cif
#   From: 2010.03.12/outbox.cif.g09.slc.cpg/sg182_2_cif.got.tgz:3040.got - 2010.04.01 11:49:36.
