data_PCOD8326462
_publ_section_title
;
Structure prediction by ZEFSAII (Michael W. Deem and Ramdas Pophale) SiO2 
 PCOD8326462
Probable space group: P 63 2 2
;
_chemical_formula_sum "Si O2"
_cell_formula_units_Z 52
_cell_length_a 20.124183
_cell_length_b 20.124183
_cell_length_c 8.779644
_cell_angle_alpha 90.000000
_cell_angle_beta 90.000000
_cell_angle_gamma 120.000000
_cell_volume 3079.243646
_symmetry_space_group_name_H-M "P 63 2 2"
_symmetry_group_IT_number 182
_symmetry_cell_setting 'hexagonal'
loop_
_space_group_symop_operation_xyz
x,y,z
x-y,x,1/2+z
-y,x-y,z
-x,-y,1/2+z
-x+y,-x,z
y,-x+y,1/2+z
x-y,-y,-z
-x,-x+y,-z
y,x,-z
-y,-x,1/2-z
-x+y,y,1/2-z
x,x-y,1/2-z
loop_
_atom_site_type_symbol
_atom_site_label
_atom_site_fract_x
_atom_site_fract_y
_atom_site_fract_z
Si Si1 0.685347 0.486912 0.499886
Si Si2 0.088539 0.368287 0.007036
Si Si3 0.519479 0.080203 0.926325
Si Si4 0.795709 0.591419 0.750000
Si Si5 0.666667 0.333334 0.431642
Si Si6 0.205741 0.794260 0.750000
O O1 0.594568 0.450414 0.489463
O O2 0.721111 0.537408 0.649764
O O3 0.705172 0.418975 0.497701
O O4 0.720090 0.538208 0.351428
O O5 0.130246 0.362492 0.854206
O O6 0.099296 0.452269 0.037504
O O7 0.130228 0.353102 0.148635
O O8 0.000000 0.302918 0.000000
O O9 0.539398 0.078795 0.750000
O O10 0.499491 0.000000 0.000000
O O11 0.666668 0.333334 0.250000
#
# Coordination Sequence:
#
# PCOD8326462 Si02
#       6
#    12  12  12   6   4   6
#     4  11  22  34  49  70  99 131 180 222 279 320
#     4  10  22  38  56  78 108 138 181 224 270 323
#     4  11  24  37  54  73 101 139 185 236 270 315
#     4  10  20  38  54  76 102 136 174 226 272 318
#     4  12  24  31  47  67  96 133 170 229 279 322
#     4  10  22  36  56  74 102 142 174 222 272 324
#
# _framework density 16.887263000000001
#
# number of rings (size 3 to 8) (size 9 to 14) (size 15 to 20)
#    0.000    1.385    3.462    2.769    6.462    0.000 
#    0.000    3.462    0.000    0.000    0.000    0.000 
#    0.000    0.000    0.000    6.923    0.000    0.000 
#
# Total GULP energy -644716.270840 kJ/mol
# GULP energy per Si atom -12398.389824 kJ/mol
# Density = 1.684883 g / cm^3
# Si number density = 16.887263 Si / 1000 Ang^3
#
#
#
# Elastic Constant Matrix: (Units=GPa)
#
#
# Indices 1 2 3 4 5 6 
#
# 1 86.7751 40.0613 43.1864 -0.0023 -0.0029 0.0001
# 2 40.0613 86.7755 43.1866 -0.0010 0.0016 -0.0003
# 3 43.1864 43.1866 113.6720 0.0005 0.0000 0.0001
# 4 -0.0023 -0.0010 0.0005 71.1617 -0.0055 -0.0023
# 5 -0.0029 0.0016 0.0000 -0.0055 71.1849 0.0007
# 6 0.0001 -0.0003 0.0001 -0.0023 0.0007 23.3568
#
#
#
# Elastic Compliance Matrix: (Units=1/GPa)
#
#
# Indices 1 2 3 4 5 6 
#
# 1 0.016021 -0.005386 -0.004041 0.000000 0.000001 0.000000
# 2 -0.005386 0.016021 -0.004041 0.000000 -0.000001 0.000000
# 3 -0.004041 -0.004041 0.011868 0.000000 0.000000 0.000000
# 4 0.000000 0.000000 0.000000 0.014052 0.000001 0.000001
# 5 0.000001 -0.000001 0.000000 0.000001 0.014048 0.000000
# 6 0.000000 0.000000 0.000000 0.000001 0.000000 0.042814
#
#
# Mechanical properties :
#
#
# Convention : Reuss Voigt Hill
#
# Bulk Modulus (GPa) = 58.90621 60.01015 59.45818
# Shear Modulus (GPa) = 33.91721 43.85990 38.88856
#
# Velocity S-wave (km/s) = 4.48643 5.10182 4.80399
# Velocity P-wave (km/s) = 7.86099 8.38556 8.12751
#
# Compressibility (1/GPa) = 0.01697614
#
# Stress axis : x y z
#
# Youngs Moduli (GPa) = 62.41649 62.41681 84.26295
#
# Poissons Ratio (x) = 0.33615 0.34049
# Poissons Ratio (y) = 0.33614 0.34049
# Poissons Ratio (z) = 0.25221 0.25221
#
# Static dielectric constant tensor:
#      x y z
#    x 2.932860 -0.000030 -0.000030 
#    y -0.000030 2.932800 0.000020 
#    z -0.000030 0.000020 3.231470 
# 
# 
# High freq. dielectric constant tensor:
#      x y z
#    x 1.625480 0.000000 0.000000 
#    y 0.000000 1.625480 0.000000 
#    z 0.000000 0.000000 1.671520 
# 
# From -- ./inp_files/1773.got.cif
#   From: 2010.03.12/outbox.cif.g09.slc.cpg/sg182_1_cif.got.tgz:1773.got - 2010.04.01 11:49:36.
