data_PCOD8326525
_publ_section_title
;
Structure prediction by ZEFSAII (Michael W. Deem and Ramdas Pophale) SiO2 
 PCOD8326525
Probable space group: P 6 M M
;
_chemical_formula_sum "Si O2"
_cell_formula_units_Z 96
_cell_length_a 22.601945
_cell_length_b 22.601945
_cell_length_c 12.374452
_cell_angle_alpha 90.000000
_cell_angle_beta 90.000000
_cell_angle_gamma 120.000000
_cell_volume 5474.547580
_symmetry_space_group_name_H-M "P 6 M M"
_symmetry_group_IT_number 183
_symmetry_cell_setting 'hexagonal'
loop_
_space_group_symop_operation_xyz
x,y,z
x-y,x,z
-y,x-y,z
-x,-y,z
-x+y,-x,z
y,-x+y,z
-x+y,y,z
x,x-y,z
-y,-x,z
y,x,z
x-y,-y,z
-x,-x+y,z
loop_
_atom_site_type_symbol
_atom_site_label
_atom_site_fract_x
_atom_site_fract_y
_atom_site_fract_z
Si Si1 0.149531 0.711155 0.262580
Si Si2 0.078148 0.416508 0.678022
Si Si3 0.663705 0.467459 0.816449
Si Si4 0.925330 0.676886 0.975852
Si Si5 0.303110 0.829971 0.032174
Si Si6 0.078054 0.607444 0.447327
Si Si7 0.283256 0.206418 0.212191
Si Si8 0.717966 0.793892 0.741374
O O1 0.227099 0.772902 0.277636
O O2 0.137750 0.667812 0.150275
O O3 0.130144 0.657342 0.357827
O O4 0.098120 0.741008 0.261272
O O5 0.130324 0.479047 0.750821
O O6 0.091518 0.439833 0.554457
O O7 0.091631 0.353841 0.691144
O O8 0.000000 0.393387 0.711876
O O9 0.740300 0.480600 0.799182
O O10 0.608787 0.391214 0.778116
O O11 0.647277 0.472618 0.943688
O O12 0.917325 0.713661 0.871038
O O13 0.000000 0.683563 0.975231
O O14 0.869060 0.598484 0.969784
O O15 0.916982 0.712274 0.082493
O O16 0.245418 0.754583 0.061911
O O17 0.094812 0.547406 0.470459
O O18 0.000000 0.576025 0.407621
O O19 0.258903 0.129452 0.253606
O O20 0.229330 0.229330 0.250352
O O21 0.736450 0.868225 0.695759
O O22 0.777107 0.777107 0.707033
#
# Coordination Sequence:
#
# PCOD8326525 Si02
#       8
#    12  12  12  12  12  12  12  12
#     4   9  18  32  52  76  98 125 164 207 248 292
#     4  10  21  36  54  75  97 128 168 212 259 297
#     4  11  22  35  52  73 101 134 167 204 248 302
#     4   9  15  24  42  68  97 126 159 201 250 298
#     4   9  17  30  47  68  97 128 161 203 247 289
#     4  10  21  37  54  72  99 131 161 196 243 303
#     4   9  16  26  43  68  98 130 165 207 253 298
#     4  10  18  29  48  74 102 131 166 206 250 298
#
# _framework density 17.535696000000002
#
# number of rings (size 3 to 8) (size 9 to 14) (size 15 to 20)
#    0.000    2.375    1.250    3.125    0.000    2.750 
#    0.000    0.000    0.000    0.500    0.000    0.000 
#    0.000    3.000    0.000    0.000    0.000   16.250 
#
# Total GULP energy -1189623.406284 kJ/mol
# GULP energy per Si atom -12391.910482 kJ/mol
# Density = 1.749578 g / cm^3
# Si number density = 17.535696 Si / 1000 Ang^3
#
#
#
# Elastic Constant Matrix: (Units=GPa)
#
#
# Indices 1 2 3 4 5 6 
#
# 1 82.1106 40.8596 33.5901 0.0000 0.0000 0.0000
# 2 40.8596 82.1106 33.5901 0.0000 0.0000 0.0000
# 3 33.5901 33.5901 70.2353 0.0000 0.0000 0.0000
# 4 0.0000 0.0000 0.0000 13.2660 0.0000 0.0000
# 5 0.0000 0.0000 0.0000 0.0000 13.2660 0.0000
# 6 0.0000 0.0000 0.0000 0.0000 0.0000 20.6255
#
#
#
# Elastic Compliance Matrix: (Units=1/GPa)
#
#
# Indices 1 2 3 4 5 6 
#
# 1 0.017625 -0.006617 -0.005265 0.000000 0.000000 0.000000
# 2 -0.006617 0.017625 -0.005265 0.000000 0.000000 0.000000
# 3 -0.005265 -0.005265 0.019274 0.000000 0.000000 0.000000
# 4 0.000000 0.000000 0.000000 0.075381 0.000000 0.000000
# 5 0.000000 0.000000 0.000000 0.000000 0.075381 0.000000
# 6 0.000000 0.000000 0.000000 0.000000 0.000000 0.048484
#
#
# Mechanical properties :
#
#
# Convention : Reuss Voigt Hill
#
# Bulk Modulus (GPa) = 49.42857 50.05956 49.74407
# Shear Modulus (GPa) = 16.96038 17.85928 17.40983
#
# Velocity S-wave (km/s) = 3.11334 3.19478 3.15433
# Velocity P-wave (km/s) = 6.41658 6.49754 6.45719
#
# Compressibility (1/GPa) = 0.02023121
#
# Stress axis : x y z
#
# Youngs Moduli (GPa) = 56.73750 56.73750 51.88463
#
# Poissons Ratio (x) = 0.37542 0.27316
# Poissons Ratio (y) = 0.37542 0.27316
# Poissons Ratio (z) = 0.29871 0.29871
#
# Static dielectric constant tensor:
#      x y z
#    x 3.214130 0.000000 0.000000 
#    y 0.000000 3.214130 0.000000 
#    z 0.000000 0.000000 3.213790 
# 
# 
# High freq. dielectric constant tensor:
#      x y z
#    x 1.663330 0.000000 0.000000 
#    y 0.000000 1.663330 0.000000 
#    z 0.000000 0.000000 1.668540 
# 
# From -- ./inp_files/2075.got.cif
#   From: 2010.03.12/outbox.cif.g09.slc.cpg/sg183_2_cif.got.tgz:2075.got - 2010.04.01 11:53:02.
