data_PCOD8326961
_publ_section_title
;
Structure prediction by ZEFSAII (Michael W. Deem and Ramdas Pophale) SiO2 
 PCOD8326961
Probable space group: P -6 M 2
;
_chemical_formula_sum "Si O2"
_cell_formula_units_Z 90
_cell_length_a 17.823147
_cell_length_b 17.823147
_cell_length_c 17.604260
_cell_angle_alpha 90.000000
_cell_angle_beta 90.000000
_cell_angle_gamma 120.000000
_cell_volume 4843.030274
_symmetry_space_group_name_H-M "P -6 M 2"
_symmetry_group_IT_number 187
_symmetry_cell_setting 'hexagonal'
loop_
_space_group_symop_operation_xyz
x,y,z
-x+y,-x,-z
-y,x-y,z
x,y,-z
-x+y,-x,z
-y,x-y,-z
-y,-x,-z
-x+y,y,-z
x,x-y,-z
-x+y,y,z
x,x-y,z
-y,-x,z
loop_
_atom_site_type_symbol
_atom_site_label
_atom_site_fract_x
_atom_site_fract_y
_atom_site_fract_z
Si Si1 0.334736 0.498796 0.836765
Si Si2 0.034535 0.800853 0.333862
Si Si3 0.846145 0.332499 0.287891
Si Si4 0.760797 0.686496 0.206082
Si Si5 0.298037 0.866502 0.673086
Si Si6 0.678677 0.925205 0.913235
Si Si7 0.598828 0.573740 0.581821
Si Si8 0.000776 0.176557 0.500000
O O1 0.265091 0.530182 0.836799
O O2 0.424881 0.575120 0.866979
O O3 0.346731 0.475665 0.750773
O O4 0.308791 0.421730 0.895364
O O5 0.093694 0.906307 0.323294
O O6 0.093390 0.761791 0.307543
O O7 0.952222 0.751986 0.278825
O O8 0.006673 0.777551 0.422684
O O9 0.847191 0.423596 0.272537
O O10 0.746776 0.253224 0.293214
O O11 0.901599 0.314534 0.224715
O O12 0.898125 0.334123 0.363765
O O13 0.839742 0.679483 0.172084
O O14 0.734228 0.729081 0.140467
O O15 0.233705 0.766296 0.645334
O O16 0.367849 0.926316 0.611091
O O17 0.705734 0.852867 0.897483
O O18 0.696127 0.956451 0.000000
O O19 0.644091 0.610730 0.500000
O O20 0.521055 0.478945 0.570038
O O21 0.912069 0.087932 0.500000
O O22 0.077405 0.154810 0.500000
#
# Coordination Sequence:
#
# PCOD8326961 Si02
#       8
#    12  12  12  12  12  12  12   6
#     4  10  19  33  54  81 111 144 180 217 257 310
#     4  10  19  33  51  76 107 140 179 221 268 324
#     4  10  21  37  56  78 105 140 180 227 282 339
#     4  11  21  35  57  83 108 139 184 230 272 317
#     4  10  19  31  51  74 102 140 177 216 265 319
#     4  10  21  38  59  83 114 149 179 213 264 321
#     4  10  20  33  49  72 103 137 179 231 278 321
#     4  10  21  34  50  72 103 140 178 224 278 332
#
# _framework density 18.583406
#
# number of rings (size 3 to 8) (size 9 to 14) (size 15 to 20)
#    0.000    1.867    2.667    1.533    0.933    2.667 
#    0.000    0.000    0.000    4.800    0.000    0.000 
#    0.000    1.067    0.000    0.000    0.000    0.000 
#
# Total GULP energy -1115012.759769 kJ/mol
# GULP energy per Si atom -12389.030664 kJ/mol
# Density = 1.854111 g / cm^3
# Si number density = 18.583406 Si / 1000 Ang^3
#
#
#
# Elastic Constant Matrix: (Units=GPa)
#
#
# Indices 1 2 3 4 5 6 
#
# 1 88.4351 37.4131 57.0357 0.0000 0.0000 0.0000
# 2 37.4131 88.4351 57.0357 0.0000 0.0000 0.0000
# 3 57.0357 57.0357 114.2953 0.0000 0.0000 0.0000
# 4 0.0000 0.0000 0.0000 15.6116 0.0000 0.0000
# 5 0.0000 0.0000 0.0000 0.0000 15.6116 0.0000
# 6 0.0000 0.0000 0.0000 0.0000 0.0000 25.5110
#
#
#
# Elastic Compliance Matrix: (Units=1/GPa)
#
#
# Indices 1 2 3 4 5 6 
#
# 1 0.017054 -0.002545 -0.007240 0.000000 0.000000 0.000000
# 2 -0.002545 0.017054 -0.007240 0.000000 0.000000 0.000000
# 3 -0.007240 -0.007240 0.015975 0.000000 0.000000 0.000000
# 4 0.000000 0.000000 0.000000 0.064055 0.000000 0.000000
# 5 0.000000 0.000000 0.000000 0.000000 0.064055 0.000000
# 6 0.000000 0.000000 0.000000 0.000000 0.000000 0.039199
#
#
# Mechanical properties :
#
#
# Convention : Reuss Voigt Hill
#
# Bulk Modulus (GPa) = 62.37503 66.01494 64.19498
# Shear Modulus (GPa) = 19.47138 20.65891 20.06514
#
# Velocity S-wave (km/s) = 3.24046 3.33781 3.28950
# Velocity P-wave (km/s) = 6.90207 7.10319 7.00335
#
# Compressibility (1/GPa) = 0.01603206
#
# Stress axis : x y z
#
# Youngs Moduli (GPa) = 58.63721 58.63721 62.59710
#
# Poissons Ratio (x) = 0.14925 0.45321
# Poissons Ratio (y) = 0.14925 0.45321
# Poissons Ratio (z) = 0.42454 0.42454
#
# Static dielectric constant tensor:
#      x y z
#    x 3.506140 0.000000 0.000000 
#    y 0.000000 3.506140 0.000000 
#    z 0.000000 0.000000 3.481130 
# 
# 
# High freq. dielectric constant tensor:
#      x y z
#    x 1.719650 0.000000 0.000000 
#    y 0.000000 1.719650 0.000000 
#    z 0.000000 0.000000 1.704970 
# 
# From -- ./inp_files/3253.got.cif
#   From: 2010.03.12/outbox.cif.g09.slc.cpg/sg187_2_cif.got.tgz:3253.got - 2010.04.01 11:58:23.
