data_PCOD8326214
_publ_section_title
;
Structure prediction by ZEFSAII (Michael W. Deem and Ramdas Pophale) SiO2 
 PCOD8326214
Probable space group: P 62 2 2
;
_chemical_formula_sum "Si O2"
_cell_formula_units_Z 30
_cell_length_a 14.540823
_cell_length_b 14.540823
_cell_length_c 7.217427
_cell_angle_alpha 90.000000
_cell_angle_beta 90.000000
_cell_angle_gamma 120.000000
_cell_volume 1321.572544
_symmetry_space_group_name_H-M "P 62 2 2"
_symmetry_group_IT_number 180
_symmetry_cell_setting 'hexagonal'
loop_
_space_group_symop_operation_xyz
x,y,z
x-y,x,1/3+z
-y,x-y,2/3+z
-x,-y,z
-x+y,-x,1/3+z
y,-x+y,2/3+z
x-y,-y,-z
-x,-x+y,1/3-z
y,x,2/3-z
-y,-x,2/3-z
-x+y,y,-z
x,x-y,1/3-z
loop_
_atom_site_type_symbol
_atom_site_label
_atom_site_fract_x
_atom_site_fract_y
_atom_site_fract_z
Si Si1 0.238565 0.044384 0.302735
Si Si2 0.155510 0.398448 0.814481
Si Si3 0.381175 0.618826 0.333334
O O1 0.180962 0.090481 0.166667
O O2 0.355901 0.140318 0.349157
O O3 0.174656 0.000000 0.500000
O O4 0.258441 0.960266 0.192722
O O5 0.154935 0.496748 0.718388
O O6 0.222611 0.445222 0.000000
O O7 0.313321 0.626642 0.500000
#
# Coordination Sequence:
#
# PCOD8326214 Si02
#       3
#    12  12   6
#     4  10  21  41  71  99 141 191 246 293 364 428
#     4  10  22  43  72 102 142 195 234 303 357 431
#     4  12  24  44  73 104 152 184 245 294 360 436
#
# _framework density 22.700232
#
# number of rings (size 3 to 8) (size 9 to 14) (size 15 to 20)
#    0.000    1.600    2.000    2.400    0.000    0.000 
#    0.000   16.000    0.000  102.000    0.000    0.000 
#    0.000    0.000    0.000    0.000    0.000    0.000 
#
# Total GULP energy -371686.855692 kJ/mol
# GULP energy per Si atom -12389.561856 kJ/mol
# Density = 2.264856 g / cm^3
# Si number density = 22.700232 Si / 1000 Ang^3
#
#
#
# Elastic Constant Matrix: (Units=GPa)
#
#
# Indices 1 2 3 4 5 6 
#
# 1 141.0252 84.9337 73.0960 0.0000 0.0000 0.0000
# 2 84.9337 141.0252 73.0960 0.0000 0.0000 0.0000
# 3 73.0960 73.0960 160.3100 0.0000 0.0000 0.0000
# 4 0.0000 0.0000 0.0000 32.8776 0.0000 0.0000
# 5 0.0000 0.0000 0.0000 0.0000 32.8776 0.0000
# 6 0.0000 0.0000 0.0000 0.0000 0.0000 28.0458
#
#
#
# Elastic Compliance Matrix: (Units=1/GPa)
#
#
# Indices 1 2 3 4 5 6 
#
# 1 0.012053 -0.005775 -0.002862 0.000000 0.000000 0.000000
# 2 -0.005775 0.012053 -0.002862 0.000000 0.000000 0.000000
# 3 -0.002862 -0.002862 0.008848 0.000000 0.000000 0.000000
# 4 0.000000 0.000000 0.000000 0.030416 0.000000 0.000000
# 5 0.000000 0.000000 0.000000 0.000000 0.030416 0.000000
# 6 0.000000 0.000000 0.000000 0.000000 0.000000 0.035656
#
#
# Mechanical properties :
#
#
# Convention : Reuss Voigt Hill
#
# Bulk Modulus (GPa) = 100.46394 100.51243 100.48818
# Shear Modulus (GPa) = 32.10085 32.84249 32.47167
#
# Velocity S-wave (km/s) = 3.76456 3.80780 3.78624
# Velocity P-wave (km/s) = 7.95291 7.98165 7.96729
#
# Compressibility (1/GPa) = 0.00995382
#
# Stress axis : x y z
#
# Youngs Moduli (GPa) = 82.96872 82.96872 113.01797
#
# Poissons Ratio (x) = 0.47917 0.32349
# Poissons Ratio (y) = 0.47917 0.32349
# Poissons Ratio (z) = 0.23748 0.23748
#
# Static dielectric constant tensor:
#      x y z
#    x 4.019250 0.000000 0.000000 
#    y 0.000000 4.019250 0.000000 
#    z 0.000000 0.000000 6.637110 
# 
# 
# High freq. dielectric constant tensor:
#      x y z
#    x 1.876020 0.000000 0.000000 
#    y 0.000000 1.876020 0.000000 
#    z 0.000000 0.000000 1.938390 
# 
# From -- ./inp_files/2226.got.cif
#   From: 2010.03.12/outbox.cif.g09.slc.cpg/sg180_2_cif.got.tgz:2226.got - 2010.04.01 11:35:50.
