data_PCOD8326506
_publ_section_title
;
Structure prediction by ZEFSAII (Michael W. Deem and Ramdas Pophale) SiO2 
 PCOD8326506
Probable space group: P 6 M M
;
_chemical_formula_sum "Si O2"
_cell_formula_units_Z 96
_cell_length_a 22.208670
_cell_length_b 22.208670
_cell_length_c 15.724468
_cell_angle_alpha 90.000000
_cell_angle_beta 90.000000
_cell_angle_gamma 120.000000
_cell_volume 6716.634171
_symmetry_space_group_name_H-M "P 6 M M"
_symmetry_group_IT_number 183
_symmetry_cell_setting 'hexagonal'
loop_
_space_group_symop_operation_xyz
x,y,z
x-y,x,z
-y,x-y,z
-x,-y,z
-x+y,-x,z
y,-x+y,z
-x+y,y,z
x,x-y,z
-y,-x,z
y,x,z
x-y,-y,z
-x,-x+y,z
loop_
_atom_site_type_symbol
_atom_site_label
_atom_site_fract_x
_atom_site_fract_y
_atom_site_fract_z
Si Si1 0.665107 0.190977 0.116780
Si Si2 0.787564 0.710255 0.531875
Si Si3 0.562436 0.852380 0.591107
Si Si4 0.147620 0.437565 0.274171
Si Si5 0.212437 0.922691 0.333404
Si Si6 0.665641 0.468998 0.932639
Si Si7 0.665107 0.474131 0.748498
Si Si8 0.665671 0.190710 0.432640
O O1 0.598818 0.197635 0.143108
O O2 0.731748 0.268253 0.118060
O O3 0.673264 0.140504 0.183395
O O4 0.654326 0.155582 0.022184
O O5 0.866217 0.732434 0.560298
O O6 0.773865 0.773865 0.551768
O O7 0.729773 0.642497 0.582190
O O8 0.777652 0.690837 0.432640
O O9 0.560112 0.780056 0.583860
O O10 0.532759 0.859497 0.681883
O O11 0.515159 0.854926 0.515279
O O12 0.219944 0.439887 0.281420
O O13 0.087276 0.357504 0.283090
O O14 0.145076 0.484843 0.349999
O O15 0.133784 0.866217 0.304981
O O16 0.226136 0.000000 0.313511
O O17 0.743694 0.487387 0.932640
O O18 0.614162 0.385839 0.932638
O O19 0.654327 0.498745 0.843094
O O20 0.731748 0.463496 0.747217
O O21 0.598818 0.401183 0.722172
O O22 0.602645 0.205289 0.432641
O O23 0.735556 0.264445 0.432641
#
# Coordination Sequence:
#
# PCOD8326506 Si02
#       8
#    12  12  12  12  12  12  12  12
#     4   9  15  22  33  49  71  99 134 175 217 252
#     4   9  16  28  46  64  81 101 125 150 178 217
#     4   9  16  25  36  52  74 101 130 161 194 230
#     4   9  16  25  36  52  74 101 130 161 194 230
#     4   9  16  28  46  64  81 101 125 150 178 217
#     4   8  13  20  30  46  67  93 126 169 218 260
#     4   9  15  22  33  49  71  99 134 175 217 252
#     4  10  17  24  33  47  70  99 134 172 209 241
#
# _framework density 14.292873
#
# number of rings (size 3 to 8) (size 9 to 14) (size 15 to 20)
#    0.000    3.000    1.250    1.250    0.000    2.000 
#    0.000    2.500    0.000    4.000    0.000    2.625 
#    0.000    3.000    0.000    0.000    0.000    0.000 
#
# Total GULP energy -1189268.850304 kJ/mol
# GULP energy per Si atom -12388.217191 kJ/mol
# Density = 1.426034 g / cm^3
# Si number density = 14.292873 Si / 1000 Ang^3
#
#
#
# Elastic Constant Matrix: (Units=GPa)
#
#
# Indices 1 2 3 4 5 6 
#
# 1 61.2370 32.3600 33.5157 0.0000 0.0000 0.0000
# 2 32.3600 61.2370 33.5157 0.0000 0.0000 0.0000
# 3 33.5157 33.5157 96.7421 0.0000 0.0000 0.0000
# 4 0.0000 0.0000 0.0000 9.8162 0.0000 0.0000
# 5 0.0000 0.0000 0.0000 0.0000 9.8162 0.0000
# 6 0.0000 0.0000 0.0000 0.0000 0.0000 14.4385
#
#
#
# Elastic Compliance Matrix: (Units=1/GPa)
#
#
# Indices 1 2 3 4 5 6 
#
# 1 0.024420 -0.010210 -0.004923 0.000000 0.000000 0.000000
# 2 -0.010210 0.024420 -0.004923 0.000000 0.000000 0.000000
# 3 -0.004923 -0.004923 0.013748 0.000000 0.000000 0.000000
# 4 0.000000 0.000000 0.000000 0.101873 0.000000 0.000000
# 5 0.000000 0.000000 0.000000 0.000000 0.101873 0.000000
# 6 0.000000 0.000000 0.000000 0.000000 0.000000 0.069259
#
#
# Mechanical properties :
#
#
# Convention : Reuss Voigt Hill
#
# Bulk Modulus (GPa) = 44.49245 46.44431 45.46838
# Shear Modulus (GPa) = 13.04817 14.80247 13.92532
#
# Velocity S-wave (km/s) = 3.02473 3.22165 3.12474
# Velocity P-wave (km/s) = 6.58751 6.81205 6.70072
#
# Compressibility (1/GPa) = 0.02247572
#
# Stress axis : x y z
#
# Youngs Moduli (GPa) = 40.95057 40.95057 72.73906
#
# Poissons Ratio (x) = 0.41810 0.35809
# Poissons Ratio (y) = 0.41810 0.35809
# Poissons Ratio (z) = 0.20159 0.20159
#
# Static dielectric constant tensor:
#      x y z
#    x 2.552050 0.000000 0.000000 
#    y 0.000000 2.552050 0.000000 
#    z 0.000000 0.000000 3.197420 
# 
# 
# High freq. dielectric constant tensor:
#      x y z
#    x 1.510600 0.000000 0.000000 
#    y 0.000000 1.510600 0.000000 
#    z 0.000000 0.000000 1.547500 
# 
# From -- ./inp_files/2819.got.cif
#   From: 2010.03.12/outbox.cif.g09.slc.cpg/sg183_2_cif.got.tgz:2819.got - 2010.04.01 11:53:02.
