data_PCOD8326186
_publ_section_title
;
Structure prediction by ZEFSAII (Michael W. Deem and Ramdas Pophale) SiO2 
 PCOD8326186
Probable space group: P 62 2 2
;
_chemical_formula_sum "Si O2"
_cell_formula_units_Z 60
_cell_length_a 19.830861
_cell_length_b 19.830861
_cell_length_c 8.737475
_cell_angle_alpha 90.000000
_cell_angle_beta 90.000000
_cell_angle_gamma 120.000000
_cell_volume 2975.772450
_symmetry_space_group_name_H-M "P 62 2 2"
_symmetry_group_IT_number 180
_symmetry_cell_setting 'hexagonal'
loop_
_space_group_symop_operation_xyz
x,y,z
x-y,x,1/3+z
-y,x-y,2/3+z
-x,-y,z
-x+y,-x,1/3+z
y,-x+y,2/3+z
x-y,-y,-z
-x,-x+y,1/3-z
y,x,2/3-z
-y,-x,2/3-z
-x+y,y,-z
x,x-y,1/3-z
loop_
_atom_site_type_symbol
_atom_site_label
_atom_site_fract_x
_atom_site_fract_y
_atom_site_fract_z
Si Si1 0.894316 0.276802 0.068124
Si Si2 0.301073 0.542965 0.662185
Si Si3 0.371782 0.316111 0.603872
Si Si4 0.143528 0.287056 0.500000
Si Si5 0.798657 0.330316 0.416877
Si Si6 0.746328 0.746328 0.333334
O O1 0.913027 0.262064 0.242611
O O2 0.830068 0.301839 0.079001
O O3 0.860456 0.198282 0.971424
O O4 0.967436 0.348235 0.980476
O O5 0.259485 0.518969 0.500000
O O6 0.391321 0.608412 0.672298
O O7 0.244115 0.564871 0.754051
O O8 0.464357 0.354000 0.567757
O O9 0.324432 0.272335 0.450783
O O10 0.176739 0.234273 0.429688
O O11 0.753376 0.246625 0.333334
#
# Coordination Sequence:
#
# PCOD8326186 Si02
#       6
#    12  12  12   6  12   6
#     4  10  21  40  64  87 121 162 206 265 318 375
#     4  12  24  40  59  84 118 163 209 261 320 375
#     4  10  23  39  61  90 118 161 211 261 320 371
#     4  10  20  38  62  94 128 165 202 250 311 366
#     4  12  24  39  59  86 117 160 210 262 309 380
#     4  10  22  38  64  93 130 163 202 254 314 370
#
# _framework density 20.162832999999999
#
# number of rings (size 3 to 8) (size 9 to 14) (size 15 to 20)
#    0.000    1.200    3.000    3.600    2.800    0.800 
#    0.000    2.000    0.000    0.000    0.000    0.000 
#    0.000   65.600    0.000    0.000    0.000    0.000 
#
# Total GULP energy -743369.001434 kJ/mol
# GULP energy per Si atom -12389.483357 kJ/mol
# Density = 2.011694 g / cm^3
# Si number density = 20.162833 Si / 1000 Ang^3
#
#
#
# Elastic Constant Matrix: (Units=GPa)
#
#
# Indices 1 2 3 4 5 6 
#
# 1 95.1764 51.4608 36.2749 0.0000 0.0000 0.0000
# 2 51.4608 95.1764 36.2749 0.0000 0.0000 0.0000
# 3 36.2749 36.2749 129.8029 0.0000 0.0000 0.0000
# 4 0.0000 0.0000 0.0000 30.8232 0.0000 0.0000
# 5 0.0000 0.0000 0.0000 0.0000 30.8232 0.0000
# 6 0.0000 0.0000 0.0000 0.0000 0.0000 21.8578
#
#
#
# Elastic Compliance Matrix: (Units=1/GPa)
#
#
# Indices 1 2 3 4 5 6 
#
# 1 0.015394 -0.007481 -0.002212 0.000000 0.000000 0.000000
# 2 -0.007481 0.015394 -0.002212 0.000000 0.000000 0.000000
# 3 -0.002212 -0.002212 0.008940 0.000000 0.000000 0.000000
# 4 0.000000 0.000000 0.000000 0.032443 0.000000 0.000000
# 5 0.000000 0.000000 0.000000 0.000000 0.032443 0.000000
# 6 0.000000 0.000000 0.000000 0.000000 0.000000 0.045750
#
#
# Mechanical properties :
#
#
# Convention : Reuss Voigt Hill
#
# Bulk Modulus (GPa) = 62.80917 63.13078 62.96998
# Shear Modulus (GPa) = 27.85823 29.77719 28.81771
#
# Velocity S-wave (km/s) = 3.72110 3.84713 3.78464
# Velocity P-wave (km/s) = 7.04846 7.14929 7.09905
#
# Compressibility (1/GPa) = 0.01592124
#
# Stress axis : x y z
#
# Youngs Moduli (GPa) = 64.95852 64.95852 111.85566
#
# Poissons Ratio (x) = 0.48593 0.24738
# Poissons Ratio (y) = 0.48593 0.24738
# Poissons Ratio (z) = 0.14366 0.14366
#
# Static dielectric constant tensor:
#      x y z
#    x 3.561000 0.000000 0.000000 
#    y 0.000000 3.561000 0.000000 
#    z 0.000000 0.000000 4.180090 
# 
# 
# High freq. dielectric constant tensor:
#      x y z
#    x 1.765890 0.000000 0.000000 
#    y 0.000000 1.765890 0.000000 
#    z 0.000000 0.000000 1.824000 
# 
# From -- ./inp_files/3155.got.cif
#   From: 2010.03.12/outbox.cif.g09.slc.cpg/sg180_2_cif.got.tgz:3155.got - 2010.04.01 11:35:50.
