data_PCOD8326890
_publ_section_title
;
Structure prediction by ZEFSAII (Michael W. Deem and Ramdas Pophale) SiO2 
 PCOD8326890
Probable space group: P -6 M 2
;
_chemical_formula_sum "Si O2"
_cell_formula_units_Z 66
_cell_length_a 21.103691
_cell_length_b 21.103691
_cell_length_c 8.101129
_cell_angle_alpha 90.000000
_cell_angle_beta 90.000000
_cell_angle_gamma 120.000000
_cell_volume 3124.589853
_symmetry_space_group_name_H-M "P -6 M 2"
_symmetry_group_IT_number 187
_symmetry_cell_setting 'hexagonal'
loop_
_space_group_symop_operation_xyz
x,y,z
-x+y,-x,-z
-y,x-y,z
x,y,-z
-x+y,-x,z
-y,x-y,-z
-y,-x,-z
-x+y,y,-z
x,x-y,-z
-x+y,y,z
x,x-y,z
-y,-x,z
loop_
_atom_site_type_symbol
_atom_site_label
_atom_site_fract_x
_atom_site_fract_y
_atom_site_fract_z
Si Si1 0.770912 0.780991 0.686242
Si Si2 0.621142 0.101955 0.306470
Si Si3 0.839669 0.160332 0.680623
Si Si4 0.138674 0.142020 0.000000
Si Si5 0.333380 0.808613 0.192931
Si Si6 0.468760 0.234380 0.183092
Si Si7 0.612801 0.955260 0.691258
O O1 0.787158 0.816684 0.500000
O O2 0.801170 0.726249 0.697829
O O3 0.684309 0.736599 0.718933
O O4 0.809090 0.838039 0.833832
O O5 0.613666 0.092625 0.500000
O O6 0.548692 0.097384 0.228847
O O7 0.688662 0.182488 0.270392
O O8 0.627714 0.033486 0.234461
O O9 0.820121 0.179880 0.500000
O O10 0.809629 0.190372 0.822615
O O11 0.050469 0.100938 0.000000
O O12 0.165907 0.082954 0.000000
O O13 0.403393 0.806786 0.270667
O O14 0.257768 0.742233 0.269826
O O15 0.341395 0.887300 0.221426
O O16 0.332365 0.796103 0.000000
O O17 0.500763 0.250382 0.000000
O O18 0.593382 0.951292 0.500000
#
# Coordination Sequence:
#
# PCOD8326890 Si02
#       7
#    12  12   6   6  12   6  12
#     4  10  22  40  66  96 128 163 203 262 324 378
#     4  10  21  39  61  84 116 159 205 248 301 372
#     4  10  18  36  64  90 118 154 202 255 307 374
#     4  12  27  44  66  92 129 170 216 260 308 376
#     4  10  22  40  61  85 119 164 209 249 297 367
#     4  12  24  34  58  90 122 158 200 254 310 367
#     4  10  21  38  63  94 123 151 193 258 322 370
#
# _framework density 21.122774
#
# number of rings (size 3 to 8) (size 9 to 14) (size 15 to 20)
#    0.000    1.636    2.727    1.636    2.545    4.364 
#    0.545    1.818    0.000    2.182    0.000    0.000 
#    0.000    0.000    0.000    0.000    0.000    0.000 
#
# Total GULP energy -817916.072230 kJ/mol
# GULP energy per Si atom -12392.667761 kJ/mol
# Density = 2.107470 g / cm^3
# Si number density = 21.122774 Si / 1000 Ang^3
#
#
#
# Elastic Constant Matrix: (Units=GPa)
#
#
# Indices 1 2 3 4 5 6 
#
# 1 112.5865 58.5416 29.7740 0.0000 0.0018 0.0000
# 2 58.5416 112.5865 29.7740 0.0000 -0.0018 0.0000
# 3 29.7740 29.7740 72.4521 0.0000 0.0000 0.0000
# 4 0.0000 0.0000 0.0000 -27.9055 0.0000 -0.0018
# 5 0.0018 -0.0018 0.0000 0.0000 -27.9055 0.0000
# 6 0.0000 0.0000 0.0000 -0.0018 0.0000 27.0224
#
#
#
# Elastic Compliance Matrix: (Units=1/GPa)
#
#
# Indices 1 2 3 4 5 6 
#
# 1 0.012661 -0.005842 -0.002802 0.000000 0.000001 0.000000
# 2 -0.005842 0.012661 -0.002802 0.000000 -0.000001 0.000000
# 3 -0.002802 -0.002802 0.016105 0.000000 0.000000 0.000000
# 4 0.000000 0.000000 0.000000 -0.035835 0.000000 -0.000002
# 5 0.000001 -0.000001 0.000000 0.000000 -0.035835 0.000000
# 6 0.000000 0.000000 0.000000 -0.000002 0.000000 0.037006
#
#
# Mechanical properties :
#
#
# Convention : Reuss Voigt Hill
#
# Bulk Modulus (GPa) = 53.95455 59.31159 56.63307
# Shear Modulus (GPa) = 139.53274 6.21130 72.87202
#
# Velocity S-wave (km/s) = 8.13642 1.71667 5.87998
# Velocity P-wave (km/s) = 10.67086 5.66301 8.54216
#
# Compressibility (1/GPa) = 0.01853412
#
# Stress axis : x y z
#
# Youngs Moduli (GPa) = 78.98339 78.98339 62.09160
#
# Poissons Ratio (x) = 0.46144 0.17399
# Poissons Ratio (y) = 0.46144 0.17399
# Poissons Ratio (z) = 0.22132 0.22132
#
# Static dielectric constant tensor:
#      x y z
#    x 3.893940 0.000000 0.000000 
#    y 0.000000 3.893940 0.000000 
#    z 0.000000 0.000000 3.829590 
# 
# 
# High freq. dielectric constant tensor:
#      x y z
#    x 1.830140 0.000000 0.000000 
#    y 0.000000 1.830140 0.000000 
#    z 0.000000 0.000000 1.812890 
# 
# From -- ./inp_files/796.got.cif
#   From: 2010.03.12/outbox.cif.g09.slc.cpg/sg187_1_cif.got.tgz:796.got - 2010.04.01 11:58:23.
