data_PCOD8326667
_publ_section_title
;
Structure prediction by ZEFSAII (Michael W. Deem and Ramdas Pophale) SiO2 
 PCOD8326667
Probable space group: P 63 C M
;
_chemical_formula_sum "Si O2"
_cell_formula_units_Z 96
_cell_length_a 14.071713
_cell_length_b 14.071713
_cell_length_c 26.885363
_cell_angle_alpha 90.000000
_cell_angle_beta 90.000000
_cell_angle_gamma 120.000000
_cell_volume 4610.419825
_symmetry_space_group_name_H-M "P 63 C M"
_symmetry_group_IT_number 185
_symmetry_cell_setting 'hexagonal'
loop_
_space_group_symop_operation_xyz
x,y,z
x-y,x,1/2+z
-y,x-y,z
-x,-y,1/2+z
-x+y,-x,z
y,-x+y,1/2+z
-x+y,y,1/2+z
x,x-y,1/2+z
-y,-x,1/2+z
y,x,z
x-y,-y,z
-x,-x+y,z
loop_
_atom_site_type_symbol
_atom_site_label
_atom_site_fract_x
_atom_site_fract_y
_atom_site_fract_z
Si Si1 0.878529 0.125326 0.488000
Si Si2 0.658043 0.528367 0.759990
Si Si3 0.324909 0.203811 0.594063
Si Si4 0.411920 0.877351 0.069540
Si Si5 0.877028 0.396626 0.961565
Si Si6 0.264601 0.435778 0.916744
Si Si7 0.550609 0.875821 0.148801
Si Si8 0.874062 0.321301 0.302772
O O1 0.843206 0.161079 0.538675
O O2 0.875556 0.191812 0.440357
O O3 0.000000 0.145243 0.495270
O O4 0.795859 0.000000 0.476459
O O5 0.621003 0.621003 0.764335
O O6 0.671515 0.500881 0.702851
O O7 0.570395 0.417504 0.788399
O O8 0.781507 0.576809 0.780782
O O9 0.219576 0.219576 0.604808
O O10 0.435099 0.319282 0.600911
O O11 0.338706 0.128783 0.635721
O O12 0.460273 0.816141 0.104324
O O13 0.510253 0.000000 0.056189
O O14 0.363279 0.820214 0.016268
O O15 0.884753 0.509169 0.947366
O O16 0.801702 0.303228 0.921939
O O17 0.000000 0.412918 0.961879
O O18 0.299957 0.432555 0.861060
O O19 0.577204 0.000000 0.149558
O O20 0.000000 0.360348 0.285066
#
# Coordination Sequence:
#
# PCOD8326667 Si02
#       8
#    12  12  12  12  12  12  12  12
#     4  11  22  38  59  89 128 171 213 254 301 363
#     4  10  24  44  66  92 123 162 211 266 329 391
#     4  10  20  36  58  86 121 161 202 242 293 359
#     4   9  19  35  53  82 120 154 190 232 284 355
#     4  11  22  38  58  86 123 159 193 240 295 355
#     4  12  23  38  61  88 116 157 207 252 310 371
#     4  10  21  38  60  87 119 156 198 248 307 370
#     4  11  24  43  66  94 123 162 213 272 334 386
#
# _framework density 20.822399000000001
#
# number of rings (size 3 to 8) (size 9 to 14) (size 15 to 20)
#    0.000    1.500    1.250    4.000    1.750    3.500 
#    0.750    0.000    0.000    0.500    0.000    0.000 
#    0.000    0.000    0.000    0.000    0.000    0.000 
#
# Total GULP energy -1189709.677456 kJ/mol
# GULP energy per Si atom -12392.809140 kJ/mol
# Density = 2.077501 g / cm^3
# Si number density = 20.822399 Si / 1000 Ang^3
#
#
#
# Elastic Constant Matrix: (Units=GPa)
#
#
# Indices 1 2 3 4 5 6 
#
# 1 94.0415 32.1815 37.0442 0.0000 0.0000 0.0000
# 2 32.1815 94.0415 37.0442 0.0000 0.0000 0.0000
# 3 37.0442 37.0442 108.4778 0.0000 0.0000 0.0000
# 4 0.0000 0.0000 0.0000 19.6056 0.0000 0.0000
# 5 0.0000 0.0000 0.0000 0.0000 19.6056 0.0000
# 6 0.0000 0.0000 0.0000 0.0000 0.0000 30.9300
#
#
#
# Elastic Compliance Matrix: (Units=1/GPa)
#
#
# Indices 1 2 3 4 5 6 
#
# 1 0.013037 -0.003128 -0.003384 0.000000 0.000000 0.000000
# 2 -0.003128 0.013037 -0.003384 0.000000 0.000000 0.000000
# 3 -0.003384 -0.003384 0.011529 0.000000 0.000000 0.000000
# 4 0.000000 0.000000 0.000000 0.051006 0.000000 0.000000
# 5 0.000000 0.000000 0.000000 0.000000 0.051006 0.000000
# 6 0.000000 0.000000 0.000000 0.000000 0.000000 0.032331
#
#
# Mechanical properties :
#
#
# Convention : Reuss Voigt Hill
#
# Bulk Modulus (GPa) = 56.14229 56.56673 56.35451
# Shear Modulus (GPa) = 25.29400 26.71430 26.00415
#
# Velocity S-wave (km/s) = 3.48911 3.58573 3.53775
# Velocity P-wave (km/s) = 6.57669 6.66097 6.61896
#
# Compressibility (1/GPa) = 0.01781189
#
# Stress axis : x y z
#
# Youngs Moduli (GPa) = 76.70438 76.70438 86.73423
#
# Poissons Ratio (x) = 0.23997 0.29348
# Poissons Ratio (y) = 0.23997 0.29348
# Poissons Ratio (z) = 0.25954 0.25954
#
# Static dielectric constant tensor:
#      x y z
#    x 3.830290 0.000000 0.000000 
#    y 0.000000 3.830290 0.000000 
#    z 0.000000 0.000000 3.880250 
# 
# 
# High freq. dielectric constant tensor:
#      x y z
#    x 1.810920 0.000000 0.000000 
#    y 0.000000 1.810920 0.000000 
#    z 0.000000 0.000000 1.806320 
# 
# From -- ./inp_files/2165.got.cif
#   From: 2010.03.12/outbox.cif.g09.slc.cpg/sg185_cif.got.tgz:2165.got - 2010.04.01 11:55:19.
