data_PCOD8326738
_publ_section_title
;
Structure prediction by ZEFSAII (Michael W. Deem and Ramdas Pophale) SiO2 
 PCOD8326738
Probable space group: P 63 M C
;
_chemical_formula_sum "Si O2"
_cell_formula_units_Z 96
_cell_length_a 17.117259
_cell_length_b 17.117259
_cell_length_c 22.851626
_cell_angle_alpha 90.000000
_cell_angle_beta 90.000000
_cell_angle_gamma 120.000000
_cell_volume 5798.506967
_symmetry_space_group_name_H-M "P 63 M C"
_symmetry_group_IT_number 186
_symmetry_cell_setting 'hexagonal'
loop_
_space_group_symop_operation_xyz
x,y,z
x-y,x,1/2+z
-y,x-y,z
-x,-y,1/2+z
-x+y,-x,z
y,-x+y,1/2+z
-x+y,y,z
x,x-y,z
-y,-x,z
y,x,1/2+z
x-y,-y,1/2+z
-x,-x+y,1/2+z
loop_
_atom_site_type_symbol
_atom_site_label
_atom_site_fract_x
_atom_site_fract_y
_atom_site_fract_z
Si Si1 0.094924 0.728092 0.290320
Si Si2 0.922671 0.664356 0.359102
Si Si3 0.843639 0.511339 0.901326
Si Si4 0.964612 0.571960 0.450960
Si Si5 0.152312 0.667055 0.180744
Si Si6 0.721990 0.626755 0.568171
Si Si7 0.830470 0.829832 0.937711
Si Si8 0.824721 0.999640 0.576311
O O1 0.162975 0.837025 0.290195
O O2 0.128936 0.681816 0.336835
O O3 0.094237 0.687002 0.227269
O O4 0.990913 0.700345 0.303863
O O5 0.826180 0.652359 0.340190
O O6 0.913124 0.575821 0.391379
O O7 0.971571 0.733990 0.411889
O O8 0.760169 0.520337 0.926067
O O9 0.813147 0.406574 0.896503
O O10 0.927478 0.563526 0.945058
O O11 0.936525 0.468263 0.457199
O O12 0.935643 0.601660 0.509101
O O13 0.142185 0.571093 0.193911
O O14 0.257080 0.742920 0.184966
O O15 0.113214 0.665475 0.116662
O O16 0.815537 0.631074 0.552934
O O17 0.745599 0.724958 0.594145
O O18 0.901121 0.802242 0.912773
O O19 0.862391 0.931196 0.916736
O O20 0.826383 0.824893 0.006756
O O21 0.922111 0.077890 0.599765
O O22 0.806073 0.903037 0.601375
#
# Coordination Sequence:
#
# PCOD8326738 Si02
#       8
#    12  12  12  12  12  12  12  12
#     4   9  18  31  47  71  97 122 152 188 233 280
#     4  10  18  30  48  68  92 125 157 186 225 273
#     4   9  17  28  45  68  96 125 154 187 229 282
#     4  10  19  30  44  65  92 122 154 190 234 281
#     4  10  20  34  53  73  94 119 152 194 239 286
#     4  10  19  32  48  68  93 123 156 192 236 280
#     4   9  15  23  39  65  96 126 154 183 215 254
#     4   9  16  26  42  66  96 128 159 188 219 258
#
# _framework density 16.555986000000001
#
# number of rings (size 3 to 8) (size 9 to 14) (size 15 to 20)
#    0.000    2.500    1.250    2.000    0.000    2.500 
#    0.000    1.875    0.000    3.000    0.000    0.000 
#    0.000    0.000    0.000    0.500    0.000    0.000 
#
# Total GULP energy -1189890.404013 kJ/mol
# GULP energy per Si atom -12394.691708 kJ/mol
# Density = 1.651830 g / cm^3
# Si number density = 16.555986 Si / 1000 Ang^3
#
#
#
# Elastic Constant Matrix: (Units=GPa)
#
#
# Indices 1 2 3 4 5 6 
#
# 1 89.4065 41.7860 24.5415 0.0000 0.0000 0.0000
# 2 41.7860 89.4065 24.5415 0.0000 0.0000 0.0000
# 3 24.5415 24.5415 56.2062 0.0000 0.0000 0.0000
# 4 0.0000 0.0000 0.0000 18.2121 0.0000 0.0000
# 5 0.0000 0.0000 0.0000 0.0000 18.2121 0.0000
# 6 0.0000 0.0000 0.0000 0.0000 0.0000 23.8102
#
#
#
# Elastic Compliance Matrix: (Units=1/GPa)
#
#
# Indices 1 2 3 4 5 6 
#
# 1 0.015055 -0.005944 -0.003978 0.000000 0.000000 0.000000
# 2 -0.005944 0.015055 -0.003978 0.000000 0.000000 0.000000
# 3 -0.003978 -0.003978 0.021266 0.000000 0.000000 0.000000
# 4 0.000000 0.000000 0.000000 0.054908 0.000000 0.000000
# 5 0.000000 0.000000 0.000000 0.000000 0.054908 0.000000
# 6 0.000000 0.000000 0.000000 0.000000 0.000000 0.041999
#
#
# Mechanical properties :
#
#
# Convention : Reuss Voigt Hill
#
# Bulk Modulus (GPa) = 42.41822 46.30635 44.36229
# Shear Modulus (GPa) = 20.93363 21.65692 21.29528
#
# Velocity S-wave (km/s) = 3.55972 3.62069 3.59034
# Velocity P-wave (km/s) = 6.52473 6.74607 6.63633
#
# Compressibility (1/GPa) = 0.02357478
#
# Stress axis : x y z
#
# Youngs Moduli (GPa) = 66.42304 66.42304 47.02451
#
# Poissons Ratio (x) = 0.39484 0.18706
# Poissons Ratio (y) = 0.39484 0.18706
# Poissons Ratio (z) = 0.26423 0.26423
#
# Static dielectric constant tensor:
#      x y z
#    x 3.245040 0.000000 0.000000 
#    y 0.000000 3.245040 0.000000 
#    z 0.000000 0.000000 2.855730 
# 
# 
# High freq. dielectric constant tensor:
#      x y z
#    x 1.635800 0.000000 0.000000 
#    y 0.000000 1.635800 0.000000 
#    z 0.000000 0.000000 1.607360 
# 
# From -- ./inp_files/3532.got.cif
#   From: 2010.03.12/outbox.cif.g09.slc.cpg/sg186_2_cif.got.tgz:3532.got - 2010.04.01 11:56:34.
