data_PCOD8326484
_publ_section_title
;
Structure prediction by ZEFSAII (Michael W. Deem and Ramdas Pophale) SiO2 
 PCOD8326484
Probable space group: P 63 2 2
;
_chemical_formula_sum "Si O2"
_cell_formula_units_Z 84
_cell_length_a 18.224393
_cell_length_b 18.224393
_cell_length_c 14.448068
_cell_angle_alpha 90.000000
_cell_angle_beta 90.000000
_cell_angle_gamma 120.000000
_cell_volume 4155.722628
_symmetry_space_group_name_H-M "P 63 2 2"
_symmetry_group_IT_number 182
_symmetry_cell_setting 'hexagonal'
loop_
_space_group_symop_operation_xyz
x,y,z
x-y,x,1/2+z
-y,x-y,z
-x,-y,1/2+z
-x+y,-x,z
y,-x+y,1/2+z
x-y,-y,-z
-x,-x+y,-z
y,x,-z
-y,-x,1/2-z
-x+y,y,1/2-z
x,x-y,1/2-z
loop_
_atom_site_type_symbol
_atom_site_label
_atom_site_fract_x
_atom_site_fract_y
_atom_site_fract_z
Si Si1 0.526765 0.750421 0.534104
Si Si2 0.181470 0.837711 0.384505
Si Si3 0.953109 0.665606 0.738959
Si Si4 0.525406 0.549379 0.151415
Si Si5 0.317989 0.201826 0.162180
Si Si6 0.416162 0.864137 0.972522
Si Si7 0.094118 0.192487 0.514718
O O1 0.572678 0.798602 0.440291
O O2 0.598713 0.752554 0.599547
O O3 0.482377 0.803526 0.566249
O O4 0.458546 0.652606 0.520762
O O5 0.263579 0.880930 0.316973
O O6 0.090147 0.788307 0.334503
O O7 0.167414 0.902162 0.447561
O O8 0.988108 0.615617 0.679841
O O9 0.023154 0.736972 0.801994
O O10 0.477251 0.522750 0.250000
O O11 0.537469 0.475817 0.104066
O O12 0.480175 0.578957 0.075806
O O13 0.350424 0.175212 0.250000
O O14 0.236343 0.122025 0.115640
O O15 0.162291 0.162291 0.500000
O O16 0.000000 0.112649 0.500000
#
# Coordination Sequence:
#
# PCOD8326484 Si02
#       7
#    12  12  12  12  12  12  12
#     4  11  23  42  63  93 132 171 215 266 331 403
#     4  10  22  38  64  92 121 168 213 273 324 383
#     4  11  20  39  64  89 129 157 219 270 319 388
#     4  11  23  41  65  97 129 171 219 278 330 396
#     4  11  23  39  64  94 125 171 224 271 323 384
#     4  11  24  42  65  96 134 174 220 270 340 404
#     4  11  22  40  60  90 130 171 217 264 331 392
#
# _framework density 20.213090999999999
#
# number of rings (size 3 to 8) (size 9 to 14) (size 15 to 20)
#    0.000    1.143    2.857    3.857    0.000    2.286 
#    0.000    0.000    0.000    1.714    0.000    0.000 
#    0.000    0.000    0.000    0.000    0.000    0.000 
#
# Total GULP energy -1040613.832326 kJ/mol
# GULP energy per Si atom -12388.259909 kJ/mol
# Density = 2.016709 g / cm^3
# Si number density = 20.213091 Si / 1000 Ang^3
#
#
#
# Elastic Constant Matrix: (Units=GPa)
#
#
# Indices 1 2 3 4 5 6 
#
# 1 104.6381 29.4915 28.1861 0.0000 0.0000 0.0000
# 2 29.4915 104.6381 28.1861 0.0000 0.0000 0.0000
# 3 28.1861 28.1861 99.0270 0.0000 0.0000 0.0000
# 4 0.0000 0.0000 0.0000 35.2139 0.0000 0.0000
# 5 0.0000 0.0000 0.0000 0.0000 35.2139 0.0000
# 6 0.0000 0.0000 0.0000 0.0000 0.0000 37.5733
#
#
#
# Elastic Compliance Matrix: (Units=1/GPa)
#
#
# Indices 1 2 3 4 5 6 
#
# 1 0.010888 -0.002419 -0.002410 0.000000 0.000000 0.000000
# 2 -0.002419 0.010888 -0.002410 0.000000 0.000000 0.000000
# 3 -0.002410 -0.002410 0.011470 0.000000 0.000000 0.000000
# 4 0.000000 0.000000 0.000000 0.028398 0.000000 0.000000
# 5 0.000000 0.000000 0.000000 0.000000 0.028398 0.000000
# 6 0.000000 0.000000 0.000000 0.000000 0.000000 0.026615
#
#
# Mechanical properties :
#
#
# Convention : Reuss Voigt Hill
#
# Bulk Modulus (GPa) = 53.28828 53.33673 53.31250
# Shear Modulus (GPa) = 36.39215 36.42953 36.41084
#
# Velocity S-wave (km/s) = 4.24774 4.24993 4.24884
# Velocity P-wave (km/s) = 7.10481 7.10823 7.10652
#
# Compressibility (1/GPa) = 0.01876585
#
# Stress axis : x y z
#
# Youngs Moduli (GPa) = 91.84493 91.84493 87.18087
#
# Poissons Ratio (x) = 0.22221 0.21014
# Poissons Ratio (y) = 0.22221 0.21014
# Poissons Ratio (z) = 0.22138 0.22138
#
# Static dielectric constant tensor:
#      x y z
#    x 3.389350 0.000000 0.000000 
#    y 0.000000 3.389350 0.000000 
#    z 0.000000 0.000000 3.967630 
# 
# 
# High freq. dielectric constant tensor:
#      x y z
#    x 1.787240 0.000000 0.000000 
#    y 0.000000 1.787240 0.000000 
#    z 0.000000 0.000000 1.803290 
# 
# From -- ./inp_files/3717.got.cif
#   From: 2010.03.12/outbox.cif.g09.slc.cpg/sg182_2_cif.got.tgz:3717.got - 2010.04.01 11:49:36.
