data_PCOD8326291
_publ_section_title
;
Structure prediction by ZEFSAII (Michael W. Deem and Ramdas Pophale) SiO2 
 PCOD8326291
Probable space group: P 64 2 2
;
_chemical_formula_sum "Si O2"
_cell_formula_units_Z 84
_cell_length_a 35.720095
_cell_length_b 35.720095
_cell_length_c 5.179312
_cell_angle_alpha 90.000000
_cell_angle_beta 90.000000
_cell_angle_gamma 120.000000
_cell_volume 5723.054949
_symmetry_space_group_name_H-M "P 64 2 2"
_symmetry_group_IT_number 181
_symmetry_cell_setting 'hexagonal'
loop_
_space_group_symop_operation_xyz
x,y,z
x-y,x,2/3+z
-y,x-y,1/3+z
-x,-y,z
-x+y,-x,2/3+z
y,-x+y,1/3+z
x-y,-y,-z
-x,-x+y,2/3-z
y,x,1/3-z
-y,-x,1/3-z
-x+y,y,-z
x,x-y,2/3-z
loop_
_atom_site_type_symbol
_atom_site_label
_atom_site_fract_x
_atom_site_fract_y
_atom_site_fract_z
Si Si1 0.259798 0.605670 0.576936
Si Si2 0.024853 0.666920 0.584925
Si Si3 0.552616 0.974886 0.248634
Si Si4 0.878042 0.594201 0.065734
Si Si5 0.495241 0.372589 0.403830
Si Si6 0.826883 0.346425 0.092271
Si Si7 0.569865 0.827993 0.771537
O O1 0.302217 0.604434 0.500000
O O2 0.245246 0.622623 0.333334
O O3 0.221211 0.557746 0.628078
O O4 0.269342 0.634671 0.833334
O O5 0.025646 0.622652 0.578841
O O6 0.073218 0.707313 0.608597
O O7 0.000000 0.669960 0.333334
O O8 0.000000 0.669720 0.833334
O O9 0.512766 0.925850 0.242157
O O10 0.550133 0.000000 0.500000
O O11 0.549429 0.000000 0.000000
O O12 0.858611 0.599149 0.332559
O O13 0.878811 0.550019 0.061849
O O14 0.849067 0.595169 0.828456
O O15 0.523946 0.372127 0.643110
O O16 0.520504 0.376898 0.139582
O O17 0.824131 0.300602 0.095108
O O18 0.562280 0.781140 0.833334
#
# Coordination Sequence:
#
# PCOD8326291 Si02
#       7
#    12  12  12  12  12  12  12
#     4  12  25  42  61  79  97 114 135 162 199 242
#     4   9  15  23  35  51  74 105 135 162 195 229
#     4   9  15  23  38  62  93 123 145 166 195 225
#     4   9  17  26  38  57  80 107 137 165 192 225
#     4   9  17  29  45  67  95 120 142 171 195 220
#     4  10  20  34  51  70  92 115 140 166 195 230
#     4  10  18  29  43  60  83 110 136 160 189 224
#
# _framework density 14.677477
#
# number of rings (size 3 to 8) (size 9 to 14) (size 15 to 20)
#    0.000    2.286    0.000    4.286    0.000    6.857 
#    0.000    4.286    0.000    0.000    0.000    0.000 
#    0.000   40.000    0.000    0.000    0.000    0.000 
#
# Total GULP energy -1041488.732766 kJ/mol
# GULP energy per Si atom -12398.675390 kJ/mol
# Density = 1.464407 g / cm^3
# Si number density = 14.677477 Si / 1000 Ang^3
#
#
#
# Elastic Constant Matrix: (Units=GPa)
#
#
# Indices 1 2 3 4 5 6 
#
# 1 40.2444 46.9803 40.0507 0.0000 0.0000 0.0000
# 2 46.9803 40.2444 40.0507 0.0000 0.0000 0.0000
# 3 40.0507 40.0507 140.8417 0.0000 0.0000 0.0000
# 4 0.0000 0.0000 0.0000 20.4226 0.0000 0.0000
# 5 0.0000 0.0000 0.0000 0.0000 20.4226 0.0000
# 6 0.0000 0.0000 0.0000 0.0000 0.0000 -3.3680
#
#
#
# Elastic Compliance Matrix: (Units=1/GPa)
#
#
# Indices 1 2 3 4 5 6 
#
# 1 -0.066470 0.081987 -0.004412 0.000000 0.000000 0.000000
# 2 0.081987 -0.066470 -0.004412 0.000000 0.000000 0.000000
# 3 -0.004412 -0.004412 0.009610 0.000000 0.000000 0.000000
# 4 0.000000 0.000000 0.000000 0.048965 0.000000 0.000000
# 5 0.000000 0.000000 0.000000 0.000000 0.048965 0.000000
# 6 0.000000 0.000000 0.000000 0.000000 0.000000 -0.296913
#
#
# Mechanical properties :
#
#
# Convention : Reuss Voigt Hill
#
# Bulk Modulus (GPa) = 43.49079 52.83266 48.16172
# Shear Modulus (GPa) = -10.84668 13.77869 1.46601
#
# Velocity S-wave (km/s) = -2.72141 3.06725 1.00049
# Velocity P-wave (km/s) = 4.45203 6.97265 5.84972
#
# Compressibility (1/GPa) = 0.02299337
#
# Stress axis : x y z
#
# Youngs Moduli (GPa) = -15.04443 -15.04443 104.06184
#
# Poissons Ratio (x) = 1.23344 0.45917
# Poissons Ratio (y) = 1.23344 0.45917
# Poissons Ratio (z) = -0.06638 -0.06638
#
# Static dielectric constant tensor:
#      x y z
#    x 2.655790 0.000000 0.000000 
#    y 0.000000 2.655790 0.000000 
#    z 0.000000 0.000000 3.181120 
# 
# 
# High freq. dielectric constant tensor:
#      x y z
#    x 1.523370 0.000000 0.000000 
#    y 0.000000 1.523370 0.000000 
#    z 0.000000 0.000000 1.588880 
# 
# From -- ./inp_files/1696.got.cif
#   From: 2010.03.12/outbox.cif.g09.slc.cpg/sg181_1_cif.got.tgz:1696.got - 2010.04.01 11:42:41.
