data_PCOD8326477
_publ_section_title
;
Structure prediction by ZEFSAII (Michael W. Deem and Ramdas Pophale) SiO2 
 PCOD8326477
Probable space group: P 63 2 2
;
_chemical_formula_sum "Si O2"
_cell_formula_units_Z 48
_cell_length_a 17.428399
_cell_length_b 17.428399
_cell_length_c 8.866068
_cell_angle_alpha 90.000000
_cell_angle_beta 90.000000
_cell_angle_gamma 120.000000
_cell_volume 2332.258462
_symmetry_space_group_name_H-M "P 63 2 2"
_symmetry_group_IT_number 182
_symmetry_cell_setting 'hexagonal'
loop_
_space_group_symop_operation_xyz
x,y,z
x-y,x,1/2+z
-y,x-y,z
-x,-y,1/2+z
-x+y,-x,z
y,-x+y,1/2+z
x-y,-y,-z
-x,-x+y,-z
y,x,-z
-y,-x,1/2-z
-x+y,y,1/2-z
x,x-y,1/2-z
loop_
_atom_site_type_symbol
_atom_site_label
_atom_site_fract_x
_atom_site_fract_y
_atom_site_fract_z
Si Si1 0.489951 0.094163 0.058740
Si Si2 0.907993 0.816814 0.572777
Si Si3 0.173760 0.384230 0.076817
Si Si4 0.506364 0.826614 0.848823
O O1 0.452317 0.091192 0.228756
O O2 0.595332 0.167558 0.063106
O O3 0.438529 0.123089 0.944375
O O4 0.474413 0.000000 0.000000
O O5 0.831379 0.831379 0.500000
O O6 0.916833 0.833666 0.750000
O O7 0.887499 0.718198 0.533932
O O8 0.000000 0.887242 0.500000
O O9 0.198419 0.396837 0.250000
O O10 0.259714 0.421008 0.970366
O O11 0.472283 0.736142 0.750000
#
# Coordination Sequence:
#
# PCOD8326477 Si02
#       4
#    12  12  12  12
#     4  10  21  39  64  90 120 166 217 269 326 396
#     4  11  24  41  63  90 124 165 208 261 322 395
#     4  10  23  40  60  93 125 164 209 270 332 388
#     4   9  21  41  61  90 126 171 213 267 330 400
#
# _framework density 20.580911
#
# number of rings (size 3 to 8) (size 9 to 14) (size 15 to 20)
#    0.000    2.000    0.000    1.750    0.000   16.000 
#   39.000    0.000    0.000    0.000    0.000    0.000 
#    0.000    0.000    0.000    0.000    0.000    0.000 
#
# Total GULP energy -594926.774007 kJ/mol
# GULP energy per Si atom -12394.307792 kJ/mol
# Density = 2.053407 g / cm^3
# Si number density = 20.580911 Si / 1000 Ang^3
#
#
#
# Elastic Constant Matrix: (Units=GPa)
#
#
# Indices 1 2 3 4 5 6 
#
# 1 113.4358 57.4395 51.4432 0.0000 0.0000 0.0000
# 2 57.4395 113.4358 51.4432 0.0000 0.0000 0.0000
# 3 51.4432 51.4432 100.5419 0.0000 0.0000 0.0000
# 4 0.0000 0.0000 0.0000 35.5532 0.0000 0.0000
# 5 0.0000 0.0000 0.0000 0.0000 35.5532 0.0000
# 6 0.0000 0.0000 0.0000 0.0000 0.0000 27.9981
#
#
#
# Elastic Compliance Matrix: (Units=1/GPa)
#
#
# Indices 1 2 3 4 5 6 
#
# 1 0.013158 -0.004700 -0.004328 0.000000 0.000000 0.000000
# 2 -0.004700 0.013158 -0.004328 0.000000 0.000000 0.000000
# 3 -0.004328 -0.004328 0.014375 0.000000 0.000000 0.000000
# 4 0.000000 0.000000 0.000000 0.028127 0.000000 0.000000
# 5 0.000000 0.000000 0.000000 0.000000 0.028127 0.000000
# 6 0.000000 0.000000 0.000000 0.000000 0.000000 0.035717
#
#
# Mechanical properties :
#
#
# Convention : Reuss Voigt Hill
#
# Bulk Modulus (GPa) = 71.53012 72.00728 71.76870
# Shear Modulus (GPa) = 30.48187 30.96008 30.72098
#
# Velocity S-wave (km/s) = 3.85265 3.88275 3.86773
# Velocity P-wave (km/s) = 7.39064 7.42727 7.40898
#
# Compressibility (1/GPa) = 0.01398012
#
# Stress axis : x y z
#
# Youngs Moduli (GPa) = 75.99873 75.99873 69.56722
#
# Poissons Ratio (x) = 0.35721 0.30106
# Poissons Ratio (y) = 0.35721 0.30106
# Poissons Ratio (z) = 0.32889 0.32889
#
# Static dielectric constant tensor:
#      x y z
#    x 3.797930 0.000000 0.000000 
#    y 0.000000 3.797930 0.000000 
#    z 0.000000 0.000000 3.875620 
# 
# 
# High freq. dielectric constant tensor:
#      x y z
#    x 1.801290 0.000000 0.000000 
#    y 0.000000 1.801290 0.000000 
#    z 0.000000 0.000000 1.814610 
# 
# From -- ./inp_files/1441.got.cif
#   From: 2010.03.12/outbox.cif.g09.slc.cpg/sg182_1_cif.got.tgz:1441.got - 2010.04.01 11:49:36.
