data_PCOD8326512
_publ_section_title
;
Structure prediction by ZEFSAII (Michael W. Deem and Ramdas Pophale) SiO2 
 PCOD8326512
Probable space group: P 6 M M
;
_chemical_formula_sum "Si O2"
_cell_formula_units_Z 96
_cell_length_a 17.939265
_cell_length_b 17.939265
_cell_length_c 20.780215
_cell_angle_alpha 90.000000
_cell_angle_beta 90.000000
_cell_angle_gamma 120.000000
_cell_volume 5791.485309
_symmetry_space_group_name_H-M "P 6 M M"
_symmetry_group_IT_number 183
_symmetry_cell_setting 'hexagonal'
loop_
_space_group_symop_operation_xyz
x,y,z
x-y,x,z
-y,x-y,z
-x,-y,z
-x+y,-x,z
y,-x+y,z
-x+y,y,z
x,x-y,z
-y,-x,z
y,x,z
x-y,-y,z
-x,-x+y,z
loop_
_atom_site_type_symbol
_atom_site_label
_atom_site_fract_x
_atom_site_fract_y
_atom_site_fract_z
Si Si1 0.540530 0.904501 0.589210
Si Si2 0.102273 0.468255 0.988719
Si Si3 0.099319 0.732618 0.107488
Si Si4 0.636498 0.541127 0.849475
Si Si5 0.159929 0.668488 0.223830
Si Si6 0.730116 0.098178 0.343084
Si Si7 0.496454 0.330647 0.454356
Si Si8 0.169810 0.500270 0.719428
O O1 0.450582 0.901163 0.596597
O O2 0.535263 0.847396 0.528206
O O3 0.560093 0.872012 0.656604
O O4 0.617584 0.000000 0.576033
O O5 0.138903 0.569452 0.005226
O O6 0.129828 0.423515 0.042772
O O7 0.000000 0.422709 0.984144
O O8 0.137624 0.458034 0.918681
O O9 0.164569 0.835432 0.117937
O O10 0.107417 0.677687 0.164922
O O11 0.000000 0.711291 0.103812
O O12 0.547419 0.452581 0.846217
O O13 0.621875 0.621875 0.845586
O O14 0.694727 0.551350 0.787124
O O15 0.148665 0.574333 0.222812
O O16 0.260695 0.739305 0.219100
O O17 0.118829 0.680191 0.288502
O O18 0.833308 0.166693 0.339468
O O19 0.689813 0.104847 0.410421
O O20 0.711525 0.000000 0.335662
O O21 0.531054 0.265527 0.436503
O O22 0.571704 0.428297 0.442922
O O23 0.272490 0.544979 0.712757
O O24 0.140076 0.570038 0.721106
#
# Coordination Sequence:
#
# PCOD8326512 Si02
#       8
#    12  12  12  12  12  12  12  12
#     4   9  17  28  41  55  72 100 140 182 219 255
#     4   8  14  26  44  64  84 107 137 172 211 258
#     4  10  20  32  47  67  90 117 149 187 228 268
#     4   8  14  25  40  56  75 101 133 167 201 243
#     4  10  20  33  50  73 101 130 157 184 216 256
#     4  10  21  35  51  71  94 122 155 192 231 268
#     4  10  19  30  45  66  93 122 150 180 216 261
#     4  10  18  26  36  51  73 100 131 169 213 257
#
# _framework density 16.576058
#
# number of rings (size 3 to 8) (size 9 to 14) (size 15 to 20)
#    0.000    2.625    0.000    3.375    0.000    4.750 
#    0.000    2.500    0.000    0.500    0.000    0.000 
#    0.000    3.000    0.000    0.000    0.000    0.000 
#
# Total GULP energy -1189456.474900 kJ/mol
# GULP energy per Si atom -12390.171614 kJ/mol
# Density = 1.653833 g / cm^3
# Si number density = 16.576058 Si / 1000 Ang^3
#
#
#
# Elastic Constant Matrix: (Units=GPa)
#
#
# Indices 1 2 3 4 5 6 
#
# 1 66.1290 38.8962 26.9369 0.0000 0.0000 0.0000
# 2 38.8962 66.1290 26.9369 0.0000 0.0000 0.0000
# 3 26.9369 26.9369 116.6562 0.0000 0.0000 0.0000
# 4 0.0000 0.0000 0.0000 15.6332 0.0000 0.0000
# 5 0.0000 0.0000 0.0000 0.0000 15.6332 0.0000
# 6 0.0000 0.0000 0.0000 0.0000 0.0000 13.6164
#
#
#
# Elastic Compliance Matrix: (Units=1/GPa)
#
#
# Indices 1 2 3 4 5 6 
#
# 1 0.023761 -0.012960 -0.002494 0.000000 0.000000 0.000000
# 2 -0.012960 0.023761 -0.002494 0.000000 0.000000 0.000000
# 3 -0.002494 -0.002494 0.009724 0.000000 0.000000 0.000000
# 4 0.000000 0.000000 0.000000 0.063966 0.000000 0.000000
# 5 0.000000 0.000000 0.000000 0.000000 0.063966 0.000000
# 6 0.000000 0.000000 0.000000 0.000000 0.000000 0.073441
#
#
# Mechanical properties :
#
#
# Convention : Reuss Voigt Hill
#
# Bulk Modulus (GPa) = 46.83921 48.27271 47.55596
# Shear Modulus (GPa) = 16.57655 19.38618 17.98137
#
# Velocity S-wave (km/s) = 3.16576 3.42355 3.29717
# Velocity P-wave (km/s) = 6.45610 6.69423 6.57624
#
# Compressibility (1/GPa) = 0.02134964
#
# Stress axis : x y z
#
# Youngs Moduli (GPa) = 42.08639 42.08639 102.83856
#
# Poissons Ratio (x) = 0.54543 0.25648
# Poissons Ratio (y) = 0.54543 0.25648
# Poissons Ratio (z) = 0.10496 0.10496
#
# Static dielectric constant tensor:
#      x y z
#    x 2.855600 0.000000 0.000000 
#    y 0.000000 2.855600 0.000000 
#    z 0.000000 0.000000 3.640910 
# 
# 
# High freq. dielectric constant tensor:
#      x y z
#    x 1.600470 0.000000 0.000000 
#    y 0.000000 1.600470 0.000000 
#    z 0.000000 0.000000 1.669540 
# 
# From -- ./inp_files/3121.got.cif
#   From: 2010.03.12/outbox.cif.g09.slc.cpg/sg183_2_cif.got.tgz:3121.got - 2010.04.01 11:53:02.
