data_PCOD8326526
_publ_section_title
;
Structure prediction by ZEFSAII (Michael W. Deem and Ramdas Pophale) SiO2 
 PCOD8326526
Probable space group: P 6 M M
;
_chemical_formula_sum "Si O2"
_cell_formula_units_Z 72
_cell_length_a 20.999201
_cell_length_b 20.999201
_cell_length_c 11.725653
_cell_angle_alpha 90.000000
_cell_angle_beta 90.000000
_cell_angle_gamma 120.000000
_cell_volume 4477.887833
_symmetry_space_group_name_H-M "P 6 M M"
_symmetry_group_IT_number 183
_symmetry_cell_setting 'hexagonal'
loop_
_space_group_symop_operation_xyz
x,y,z
x-y,x,z
-y,x-y,z
-x,-y,z
-x+y,-x,z
y,-x+y,z
-x+y,y,z
x,x-y,z
-y,-x,z
y,x,z
x-y,-y,z
-x,-x+y,z
loop_
_atom_site_type_symbol
_atom_site_label
_atom_site_fract_x
_atom_site_fract_y
_atom_site_fract_z
Si Si1 0.381946 0.913484 0.282200
Si Si2 0.548061 0.700200 0.505623
Si Si3 0.694842 0.918125 0.642868
Si Si4 0.342668 0.912894 0.032979
Si Si5 0.456564 0.913127 0.884894
Si Si6 0.304427 0.222062 0.902313
Si Si7 0.455670 0.911339 0.621663
O O1 0.447983 0.895966 0.294369
O O2 0.318328 0.867770 0.373250
O O3 0.342120 0.884980 0.160497
O O4 0.413004 0.000000 0.299407
O O5 0.522145 0.761073 0.518394
O O6 0.628437 0.731098 0.557576
O O7 0.495577 0.625145 0.570009
O O8 0.727476 0.863738 0.625960
O O9 0.666673 0.913655 0.772942
O O10 0.759897 0.000000 0.614413
O O11 0.391847 0.000000 0.029954
O O12 0.377790 0.878966 0.946934
O O13 0.261509 0.888579 0.988450
O O14 0.445969 0.891937 0.753750
O O15 0.500000 0.000000 0.899619
O O16 0.269401 0.134701 0.917222
O O17 0.241174 0.241174 0.932786
O O18 0.500000 0.000000 0.596491
#
# Coordination Sequence:
#
# PCOD8326526 Si02
#       7
#    12  12  12  12   6  12   6
#     4  10  18  31  50  69  94 126 163 202 237 282
#     4  11  22  33  46  71  99 126 164 202 246 289
#     4   9  17  30  48  70  99 127 158 199 243 292
#     4   9  16  27  45  71  98 121 150 194 244 282
#     4   9  16  27  47  75  99 118 151 201 241 281
#     4   9  17  29  46  69  96 127 158 196 246 292
#     4  11  20  33  55  75  93 124 167 205 243 293
#
# _framework density 16.079008000000002
#
# number of rings (size 3 to 8) (size 9 to 14) (size 15 to 20)
#    0.000    2.333    1.667    2.500    0.000    3.333 
#    0.500    0.000    0.000    0.333    0.000    2.333 
#    0.833    0.000    0.000    0.000    0.000   21.667 
#
# Total GULP energy -892465.819582 kJ/mol
# GULP energy per Si atom -12395.358605 kJ/mol
# Density = 1.604241 g / cm^3
# Si number density = 16.079008 Si / 1000 Ang^3
#
#
#
# Elastic Constant Matrix: (Units=GPa)
#
#
# Indices 1 2 3 4 5 6 
#
# 1 88.6417 67.0707 50.6136 0.0000 0.0000 0.0000
# 2 67.0707 88.6417 50.6136 0.0000 0.0000 0.0000
# 3 50.6136 50.6136 108.4649 0.0000 0.0000 0.0000
# 4 0.0000 0.0000 0.0000 14.9660 0.0000 0.0000
# 5 0.0000 0.0000 0.0000 0.0000 14.9660 0.0000
# 6 0.0000 0.0000 0.0000 0.0000 0.0000 10.7855
#
#
#
# Elastic Compliance Matrix: (Units=1/GPa)
#
#
# Indices 1 2 3 4 5 6 
#
# 1 0.027789 -0.018570 -0.004302 0.000000 0.000000 0.000000
# 2 -0.018570 0.027789 -0.004302 0.000000 0.000000 0.000000
# 3 -0.004302 -0.004302 0.013234 0.000000 0.000000 0.000000
# 4 0.000000 0.000000 0.000000 0.066818 0.000000 0.000000
# 5 0.000000 0.000000 0.000000 0.000000 0.066818 0.000000
# 6 0.000000 0.000000 0.000000 0.000000 0.000000 0.092717
#
#
# Mechanical properties :
#
#
# Convention : Reuss Voigt Hill
#
# Bulk Modulus (GPa) = 69.13457 69.14936 69.14196
# Shear Modulus (GPa) = 14.11102 15.97352 15.04227
#
# Velocity S-wave (km/s) = 2.96565 3.15531 3.06195
# Velocity P-wave (km/s) = 7.40385 7.50826 7.45624
#
# Compressibility (1/GPa) = 0.01446454
#
# Stress axis : x y z
#
# Youngs Moduli (GPa) = 35.98602 35.98602 75.56143
#
# Poissons Ratio (x) = 0.66826 0.32505
# Poissons Ratio (y) = 0.66826 0.32505
# Poissons Ratio (z) = 0.15480 0.15480
#
# Static dielectric constant tensor:
#      x y z
#    x 3.083510 0.000000 0.000000 
#    y 0.000000 3.083510 0.000000 
#    z 0.000000 0.000000 3.284140 
# 
# 
# High freq. dielectric constant tensor:
#      x y z
#    x 1.597230 0.000000 0.000000 
#    y 0.000000 1.597230 0.000000 
#    z 0.000000 0.000000 1.629750 
# 
# From -- ./inp_files/1677.got.cif
#   From: 2010.03.12/outbox.cif.g09.slc.cpg/sg183_1_cif.got.tgz:1677.got - 2010.04.01 11:53:02.
