data_PCOD8326062
_publ_section_title
;
Structure prediction by ZEFSAII (Michael W. Deem and Ramdas Pophale) SiO2 
 PCOD8326062
Probable space group: P 65 2 2
;
_chemical_formula_sum "Si O2"
_cell_formula_units_Z 54
_cell_length_a 19.833851
_cell_length_b 19.833851
_cell_length_c 8.139525
_cell_angle_alpha 90.000000
_cell_angle_beta 90.000000
_cell_angle_gamma 120.000000
_cell_volume 2772.961155
_symmetry_space_group_name_H-M "P 65 2 2"
_symmetry_group_IT_number 179
_symmetry_cell_setting 'hexagonal'
loop_
_space_group_symop_operation_xyz
x,y,z
x-y,x,5/6+z
-y,x-y,2/3+z
-x,-y,1/2+z
-x+y,-x,1/3+z
y,-x+y,1/6+z
x-y,-y,-z
-x,-x+y,1/3-z
y,x,2/3-z
-y,-x,1/6-z
-x+y,y,1/2-z
x,x-y,5/6-z
loop_
_atom_site_type_symbol
_atom_site_label
_atom_site_fract_x
_atom_site_fract_y
_atom_site_fract_z
Si Si1 0.562617 0.840155 0.031355
Si Si2 0.856480 0.143521 0.083334
Si Si3 0.914819 0.460713 0.725986
Si Si4 0.528703 0.332140 0.990780
Si Si5 0.037156 0.156298 0.497992
O O1 0.544092 0.820015 0.224896
O O2 0.523963 0.761982 0.916667
O O3 0.656483 0.885160 0.000319
O O4 0.525259 0.892975 0.991844
O O5 0.847936 0.083835 0.227462
O O6 0.865719 0.373549 0.653559
O O7 0.000000 0.487554 0.666667
O O8 0.906416 0.453208 0.916667
O O9 0.562837 0.281419 0.916667
O O10 0.598335 0.401666 0.083334
O O11 0.093834 0.123291 0.546072
O O12 0.000000 0.168902 0.666667
#
# Coordination Sequence:
#
# PCOD8326062 Si02
#       5
#    12   6  12  12  12
#     4   9  21  40  59  85 121 166 202 252 316 376
#     4  10  22  40  62  88 126 166 202 260 318 384
#     4  11  22  39  62  90 123 160 208 258 315 385
#     4  10  21  38  63  92 122 159 206 261 315 377
#     4  10  22  40  63  94 125 164 216 265 321 381
#
# _framework density 19.473766999999999
#
# number of rings (size 3 to 8) (size 9 to 14) (size 15 to 20)
#    0.667    1.333    0.000    4.000    0.000   11.556 
#    4.000    1.111    0.000    0.000    0.000    0.000 
#    0.000    0.000    0.000    0.000    0.000    0.000 
#
# Total GULP energy -669081.648982 kJ/mol
# GULP energy per Si atom -12390.400907 kJ/mol
# Density = 1.942944 g / cm^3
# Si number density = 19.473767 Si / 1000 Ang^3
#
#
#
# Elastic Constant Matrix: (Units=GPa)
#
#
# Indices 1 2 3 4 5 6 
#
# 1 108.3311 33.0454 49.5204 0.0000 0.0000 0.0000
# 2 33.0454 108.3311 49.5204 0.0000 0.0000 0.0000
# 3 49.5204 49.5204 144.2804 0.0000 0.0000 0.0000
# 4 0.0000 0.0000 0.0000 8.0911 0.0000 0.0000
# 5 0.0000 0.0000 0.0000 0.0000 8.0911 0.0000
# 6 0.0000 0.0000 0.0000 0.0000 0.0000 37.6429
#
#
#
# Elastic Compliance Matrix: (Units=1/GPa)
#
#
# Indices 1 2 3 4 5 6 
#
# 1 0.011298 -0.001985 -0.003196 0.000000 0.000000 0.000000
# 2 -0.001985 0.011298 -0.003196 0.000000 0.000000 0.000000
# 3 -0.003196 -0.003196 0.009125 0.000000 0.000000 0.000000
# 4 0.000000 0.000000 0.000000 0.123593 0.000000 0.000000
# 5 0.000000 0.000000 0.000000 0.000000 0.123593 0.000000
# 6 0.000000 0.000000 0.000000 0.000000 0.000000 0.026565
#
#
# Mechanical properties :
#
#
# Convention : Reuss Voigt Hill
#
# Bulk Modulus (GPa) = 66.82310 69.45721 68.14015
# Shear Modulus (GPa) = 15.28044 26.02209 20.65127
#
# Velocity S-wave (km/s) = 2.80423 3.65946 3.26001
# Velocity P-wave (km/s) = 6.69880 7.32120 7.01690
#
# Compressibility (1/GPa) = 0.01496489
#
# Stress axis : x y z
#
# Youngs Moduli (GPa) = 88.51455 88.51455 109.58914
#
# Poissons Ratio (x) = 0.17572 0.35027
# Poissons Ratio (y) = 0.17572 0.35027
# Poissons Ratio (z) = 0.28291 0.28291
#
# Static dielectric constant tensor:
#      x y z
#    x 3.700500 0.000000 0.000000 
#    y 0.000000 3.700500 0.000000 
#    z 0.000000 0.000000 3.517840 
# 
# 
# High freq. dielectric constant tensor:
#      x y z
#    x 1.748400 0.000000 0.000000 
#    y 0.000000 1.748400 0.000000 
#    z 0.000000 0.000000 1.778800 
# 
# From -- ./inp_files/3107.got.cif
#   From: 2010.03.12/outbox.cif.g09.slc.cpg/sg179_2_cif.got.tgz:3107.got - 2010.04.02 07:08:42.
