data_PCOD8326297
_publ_section_title
;
Structure prediction by ZEFSAII (Michael W. Deem and Ramdas Pophale) SiO2 
 PCOD8326297
Probable space group: P 64 2 2
;
_chemical_formula_sum "Si O2"
_cell_formula_units_Z 60
_cell_length_a 28.123287
_cell_length_b 28.123287
_cell_length_c 5.094474
_cell_angle_alpha 90.000000
_cell_angle_beta 90.000000
_cell_angle_gamma 120.000000
_cell_volume 3489.491458
_symmetry_space_group_name_H-M "P 64 2 2"
_symmetry_group_IT_number 181
_symmetry_cell_setting 'hexagonal'
loop_
_space_group_symop_operation_xyz
x,y,z
x-y,x,2/3+z
-y,x-y,1/3+z
-x,-y,z
-x+y,-x,2/3+z
y,-x+y,1/3+z
x-y,-y,-z
-x,-x+y,2/3-z
y,x,1/3-z
-y,-x,1/3-z
-x+y,y,-z
x,x-y,2/3-z
loop_
_atom_site_type_symbol
_atom_site_label
_atom_site_fract_x
_atom_site_fract_y
_atom_site_fract_z
Si Si1 0.751632 0.715509 0.406651
Si Si2 0.743440 0.143198 0.179012
Si Si3 0.412259 0.650966 0.406097
Si Si4 0.463858 0.287997 0.348687
Si Si5 0.964663 0.142291 0.078404
O O1 0.730795 0.730795 0.666667
O O2 0.748179 0.657813 0.432607
O O3 0.815355 0.759206 0.335425
O O4 0.713549 0.713549 0.166667
O O5 0.803830 0.196171 0.166667
O O6 0.704076 0.147450 0.399056
O O7 0.713146 0.135625 0.902397
O O8 0.377476 0.622525 0.666667
O O9 0.406858 0.703429 0.333334
O O10 0.475158 0.665766 0.433942
O O11 0.390616 0.609385 0.166667
O O12 0.462242 0.231121 0.333334
O O13 0.916492 0.083509 0.166667
O O14 0.000000 0.166352 0.333334
O O15 0.000000 0.138581 0.833334
#
# Coordination Sequence:
#
# PCOD8326297 Si02
#       5
#    12  12  12  12  12
#     4  10  20  32  49  75 102 125 156 196 237 293
#     4  10  18  32  50  68  97 132 159 188 237 290
#     4  11  20  31  46  68  99 132 167 201 238 277
#     4   9  19  31  46  68  94 128 165 199 231 280
#     4  10  20  34  52  74 100 130 163 199 240 284
#
# _framework density 17.194483000000002
#
# number of rings (size 3 to 8) (size 9 to 14) (size 15 to 20)
#    0.000    2.000    0.000    4.800    0.000    3.200 
#    0.000    6.000    0.000    3.000    0.000    0.000 
#    0.000   56.000    0.000    0.000    0.000    0.000 
#
# Total GULP energy -743734.176840 kJ/mol
# GULP energy per Si atom -12395.569614 kJ/mol
# Density = 1.715535 g / cm^3
# Si number density = 17.194483 Si / 1000 Ang^3
#
#
#
# Elastic Constant Matrix: (Units=GPa)
#
#
# Indices 1 2 3 4 5 6 
#
# 1 91.5633 44.5306 42.8247 0.0000 0.0000 0.0000
# 2 44.5306 91.5633 42.8247 0.0000 0.0000 0.0000
# 3 42.8247 42.8247 136.6845 0.0000 0.0000 0.0000
# 4 0.0000 0.0000 0.0000 34.0401 0.0000 0.0000
# 5 0.0000 0.0000 0.0000 0.0000 34.0401 0.0000
# 6 0.0000 0.0000 0.0000 0.0000 0.0000 23.5164
#
#
#
# Elastic Compliance Matrix: (Units=1/GPa)
#
#
# Indices 1 2 3 4 5 6 
#
# 1 0.015207 -0.006055 -0.002868 0.000000 0.000000 0.000000
# 2 -0.006055 0.015207 -0.002868 0.000000 0.000000 0.000000
# 3 -0.002868 -0.002868 0.009113 0.000000 0.000000 0.000000
# 4 0.000000 0.000000 0.000000 0.029377 0.000000 0.000000
# 5 0.000000 0.000000 0.000000 0.000000 0.029377 0.000000
# 6 0.000000 0.000000 0.000000 0.000000 0.000000 0.042524
#
#
# Mechanical properties :
#
#
# Convention : Reuss Voigt Hill
#
# Bulk Modulus (GPa) = 62.70477 64.46349 63.58413
# Shear Modulus (GPa) = 29.46362 30.96137 30.21250
#
# Velocity S-wave (km/s) = 4.14400 4.24802 4.19633
# Velocity P-wave (km/s) = 7.71000 7.85067 7.78065
#
# Compressibility (1/GPa) = 0.01594775
#
# Stress axis : x y z
#
# Youngs Moduli (GPa) = 65.75843 65.75843 109.73309
#
# Poissons Ratio (x) = 0.39814 0.31467
# Poissons Ratio (y) = 0.39814 0.31467
# Poissons Ratio (z) = 0.18857 0.18857
#
# Static dielectric constant tensor:
#      x y z
#    x 3.036160 0.000000 0.000000 
#    y 0.000000 3.036160 0.000000 
#    z 0.000000 0.000000 3.526790 
# 
# 
# High freq. dielectric constant tensor:
#      x y z
#    x 1.642000 0.000000 0.000000 
#    y 0.000000 1.642000 0.000000 
#    z 0.000000 0.000000 1.690780 
# 
# From -- ./inp_files/1467.got.cif
#   From: 2010.03.12/outbox.cif.g09.slc.cpg/sg181_1_cif.got.tgz:1467.got - 2010.04.01 11:42:41.
