data_PCOD8327672
_publ_section_title
;
Structure prediction by ZEFSAII (Michael W. Deem and Ramdas Pophale) SiO2 
 PCOD8327672
Probable space group: P -6 2 M
;
_chemical_formula_sum "Si O2"
_cell_formula_units_Z 66
_cell_length_a 16.590955
_cell_length_b 16.590955
_cell_length_c 16.802544
_cell_angle_alpha 90.000000
_cell_angle_beta 90.000000
_cell_angle_gamma 120.000000
_cell_volume 4005.423521
_symmetry_space_group_name_H-M "P -6 2 M"
_symmetry_group_IT_number 189
_symmetry_cell_setting 'hexagonal'
loop_
_space_group_symop_operation_xyz
x,y,z
-x+y,-x,-z
-y,x-y,z
x,y,-z
-x+y,-x,z
-y,x-y,-z
x-y,-y,-z
-x,-x+y,-z
y,x,-z
y,x,z
x-y,-y,z
-x,-x+y,z
loop_
_atom_site_type_symbol
_atom_site_label
_atom_site_fract_x
_atom_site_fract_y
_atom_site_fract_z
Si Si1 0.445437 0.554562 0.163962
Si Si2 0.610234 0.895962 0.251966
Si Si3 0.714272 0.610234 0.251966
Si Si4 0.332047 0.849025 0.588561
Si Si5 0.785293 0.392647 0.000000
Si Si6 0.150975 0.667953 0.411439
O O1 0.500001 0.500001 0.153601
O O2 0.349706 0.490177 0.210987
O O3 0.509823 0.650294 0.210987
O O4 0.424099 0.575901 0.077132
O O5 0.644481 0.822240 0.231447
O O6 0.598207 0.901355 0.346911
O O7 0.687262 0.000000 0.222835
O O8 0.687262 0.687262 0.222835
O O9 0.696851 0.598207 0.346911
O O10 0.328497 0.885982 0.500000
O O11 0.435054 0.870109 0.608109
O O12 0.261650 0.738350 0.593810
O O13 0.719790 0.439579 0.000000
O O14 0.114018 0.671503 0.500000
#
# Coordination Sequence:
#
# PCOD8327672 Si02
#       6
#    12  12  12  12   6  12
#     4  10  19  34  51  72  97 125 158 197 238 278
#     4  10  20  33  49  69  95 126 163 202 246 288
#     4  10  20  33  49  69  95 126 163 202 246 288
#     4   9  16  26  41  64  94 127 162 196 232 277
#     4  10  21  32  48  70  98 128 164 186 215 270
#     4   9  16  26  41  64  94 127 162 196 232 277
#
# _framework density 16.477658999999999
#
# number of rings (size 3 to 8) (size 9 to 14) (size 15 to 20)
#    0.182    2.182    1.818    1.727    0.000    2.182 
#    1.091    1.818    0.000    0.364    0.000    0.000 
#    0.000    0.000    0.000    9.091    0.000   37.818 
#
# Total GULP energy -817985.842871 kJ/mol
# GULP energy per Si atom -12393.724892 kJ/mol
# Density = 1.644015 g / cm^3
# Si number density = 16.477659 Si / 1000 Ang^3
#
#
#
# Elastic Constant Matrix: (Units=GPa)
#
#
# Indices 1 2 3 4 5 6 
#
# 1 67.8831 42.7815 18.8471 0.0000 0.0000 0.0000
# 2 42.7815 67.8831 18.8471 0.0000 0.0000 0.0000
# 3 18.8471 18.8471 84.1176 0.0000 0.0000 0.0000
# 4 0.0000 0.0000 0.0000 17.5237 0.0000 0.0000
# 5 0.0000 0.0000 0.0000 0.0000 17.5237 0.0000
# 6 0.0000 0.0000 0.0000 0.0000 0.0000 12.5508
#
#
#
# Elastic Compliance Matrix: (Units=1/GPa)
#
#
# Indices 1 2 3 4 5 6 
#
# 1 0.024811 -0.015028 -0.002192 0.000000 0.000000 0.000000
# 2 -0.015028 0.024811 -0.002192 0.000000 0.000000 0.000000
# 3 -0.002192 -0.002192 0.012870 0.000000 0.000000 0.000000
# 4 0.000000 0.000000 0.000000 0.057065 0.000000 0.000000
# 5 0.000000 0.000000 0.000000 0.000000 0.057065 0.000000
# 6 0.000000 0.000000 0.000000 0.000000 0.000000 0.079676
#
#
# Mechanical properties :
#
#
# Convention : Reuss Voigt Hill
#
# Bulk Modulus (GPa) = 42.25030 42.31504 42.28267
# Shear Modulus (GPa) = 16.50104 18.81351 17.65728
#
# Velocity S-wave (km/s) = 3.16795 3.38266 3.27706
# Velocity P-wave (km/s) = 6.25123 6.40254 6.32734
#
# Compressibility (1/GPa) = 0.02366847
#
# Stress axis : x y z
#
# Youngs Moduli (GPa) = 40.30544 40.30544 77.69798
#
# Poissons Ratio (x) = 0.60569 0.17031
# Poissons Ratio (y) = 0.60569 0.17031
# Poissons Ratio (z) = 0.08835 0.08835
#
# Static dielectric constant tensor:
#      x y z
#    x 2.946130 0.000000 0.000000 
#    y 0.000000 2.946130 0.000000 
#    z 0.000000 0.000000 3.118020 
# 
# 
# High freq. dielectric constant tensor:
#      x y z
#    x 1.609390 0.000000 0.000000 
#    y 0.000000 1.609390 0.000000 
#    z 0.000000 0.000000 1.637110 
# 
# From -- ./inp_files/2671.got.cif
#   From: 2010.03.12/outbox.cif.g09.slc.cpg/sg189_2_cif.got.tgz:2671.got - 2010.04.01 12:03:36.
