data_PCOD8327624
_publ_section_title
;
Structure prediction by ZEFSAII (Michael W. Deem and Ramdas Pophale) SiO2 
 PCOD8327624
Probable space group: P -6 2 M
;
_chemical_formula_sum "Si O2"
_cell_formula_units_Z 40
_cell_length_a 13.039641
_cell_length_b 13.039641
_cell_length_c 15.457331
_cell_angle_alpha 90.000000
_cell_angle_beta 90.000000
_cell_angle_gamma 120.000000
_cell_volume 2276.126569
_symmetry_space_group_name_H-M "P -6 2 M"
_symmetry_group_IT_number 189
_symmetry_cell_setting 'hexagonal'
loop_
_space_group_symop_operation_xyz
x,y,z
-x+y,-x,-z
-y,x-y,z
x,y,-z
-x+y,-x,z
-y,x-y,-z
x-y,-y,-z
-x,-x+y,-z
y,x,-z
y,x,z
x-y,-y,z
-x,-x+y,z
loop_
_atom_site_type_symbol
_atom_site_label
_atom_site_fract_x
_atom_site_fract_y
_atom_site_fract_z
Si Si1 0.135049 0.273169 0.500000
Si Si2 0.131557 0.865622 0.000000
Si Si3 0.863346 0.722619 0.812290
Si Si4 0.333335 0.666668 0.396418
Si Si5 0.579218 0.715765 0.341784
O O1 0.220191 0.220191 0.500000
O O2 0.164187 0.353252 0.584056
O O3 0.000000 0.167631 0.500000
O O4 0.147828 0.813262 0.908864
O O5 0.000000 0.848745 0.000000
O O6 0.229684 0.000000 0.000000
O O7 0.816294 0.816294 0.811655
O O8 0.785557 0.613561 0.749012
O O9 0.000000 0.792526 0.781763
O O10 0.333334 0.666668 0.500000
O O11 0.439874 0.651951 0.358754
O O12 0.613197 0.613197 0.342770
#
# Coordination Sequence:
#
# PCOD8327624 Si02
#       5
#     6   6  12   4  12
#     4  10  19  32  50  76 107 138 168 204 252 306
#     4   8  13  22  42  72 108 144 177 210 250 300
#     4   9  16  28  48  78 112 145 177 213 256 305
#     4  12  24  42  60  76  95 133 171 222 267 304
#     4  10  22  37  53  76 103 132 172 214 259 311
#
# _framework density 17.573713999999999
#
# number of rings (size 3 to 8) (size 9 to 14) (size 15 to 20)
#    0.000    2.400    1.500    1.500    0.000    4.800 
#    0.000    3.000    0.000    1.800    0.000    6.300 
#    0.000    0.000    0.000    0.000    0.000    0.000 
#
# Total GULP energy -495726.536773 kJ/mol
# GULP energy per Si atom -12393.163419 kJ/mol
# Density = 1.753372 g / cm^3
# Si number density = 17.573714 Si / 1000 Ang^3
#
#
#
# Elastic Constant Matrix: (Units=GPa)
#
#
# Indices 1 2 3 4 5 6 
#
# 1 75.2394 43.1325 42.2085 0.0000 0.0004 -0.0001
# 2 43.1325 75.2386 42.2087 -0.0003 0.0003 -0.0004
# 3 42.2085 42.2087 141.5411 -0.0002 0.0001 -0.0001
# 4 0.0000 -0.0003 -0.0002 -10.2436 -0.0006 0.0001
# 5 0.0004 0.0003 0.0001 -0.0006 -10.2429 -0.0001
# 6 -0.0001 -0.0004 -0.0001 0.0001 -0.0001 16.0531
#
#
#
# Elastic Compliance Matrix: (Units=1/GPa)
#
#
# Indices 1 2 3 4 5 6 
#
# 1 0.020938 -0.010208 -0.003200 0.000000 0.000001 0.000000
# 2 -0.010208 0.020938 -0.003200 0.000000 0.000000 0.000000
# 3 -0.003200 -0.003200 0.008973 0.000000 0.000000 0.000000
# 4 0.000000 0.000000 0.000000 -0.097622 0.000005 0.000000
# 5 0.000001 0.000000 0.000000 0.000005 -0.097629 -0.000001
# 6 0.000000 0.000000 0.000000 0.000000 -0.000001 0.062293
#
#
# Mechanical properties :
#
#
# Convention : Reuss Voigt Hill
#
# Bulk Modulus (GPa) = 56.70768 60.79095 58.74932
# Shear Modulus (GPa) = -116.24054 10.07795 -53.08130
#
# Velocity S-wave (km/s) = -8.14175 2.39732 -5.50186
# Velocity P-wave (km/s) = 7.48637 6.50614 2.61876
#
# Compressibility (1/GPa) = 0.01763430
#
# Stress axis : x y z
#
# Youngs Moduli (GPa) = 47.76018 47.75950 111.43977
#
# Poissons Ratio (x) = 0.48754 0.35657
# Poissons Ratio (y) = 0.48755 0.35659
# Poissons Ratio (z) = 0.15282 0.15282
#
# Static dielectric constant tensor:
#      x y z
#    x 2.970590 0.000000 0.000000 
#    y 0.000000 2.970600 0.000010 
#    z 0.000000 0.000010 3.252280 
# 
# 
# High freq. dielectric constant tensor:
#      x y z
#    x 1.651040 0.000000 0.000000 
#    y 0.000000 1.651040 0.000000 
#    z 0.000000 0.000000 1.702520 
# 
# From -- ./inp_files/2943.got.cif
#   From: 2010.03.12/outbox.cif.g09.slc.cpg/sg189_2_cif.got.tgz:2943.got - 2010.04.01 12:03:36.
