data_PCOD8327270
_publ_section_title
;
Structure prediction by ZEFSAII (Michael W. Deem and Ramdas Pophale) SiO2 
 PCOD8327270
Probable space group: P -6 M 2
;
_chemical_formula_sum "Si O2"
_cell_formula_units_Z 32
_cell_length_a 11.571074
_cell_length_b 11.571074
_cell_length_c 14.168787
_cell_angle_alpha 90.000000
_cell_angle_beta 90.000000
_cell_angle_gamma 120.000000
_cell_volume 1642.898168
_symmetry_space_group_name_H-M "P -6 M 2"
_symmetry_group_IT_number 187
_symmetry_cell_setting 'hexagonal'
loop_
_space_group_symop_operation_xyz
x,y,z
-x+y,-x,-z
-y,x-y,z
x,y,-z
-x+y,-x,z
-y,x-y,-z
-y,-x,-z
-x+y,y,-z
x,x-y,-z
-x+y,y,z
x,x-y,z
-y,-x,z
loop_
_atom_site_type_symbol
_atom_site_label
_atom_site_fract_x
_atom_site_fract_y
_atom_site_fract_z
Si Si1 0.333335 0.666668 0.612090
Si Si2 0.483515 0.967030 0.388122
Si Si3 0.735647 0.734309 0.293499
Si Si4 0.597463 0.667859 0.105078
O O1 0.333334 0.666667 0.500000
O O2 0.408072 0.591929 0.651136
O O3 0.488663 0.977325 0.500000
O O4 0.400306 0.034061 0.349226
O O5 0.884489 0.768978 0.318606
O O6 0.714371 0.708477 0.181107
O O7 0.718032 0.859016 0.325426
O O8 0.543874 0.771937 0.108464
O O9 0.475990 0.524011 0.132490
O O10 0.652472 0.666306 0.000000
#
# Coordination Sequence:
#
# PCOD8327270 Si02
#       4
#     2   6  12  12
#     4   9  18  36  66  93 109 134 190 252 297 345
#     4  11  22  40  65  91 115 146 195 252 300 347
#     4  11  23  39  60  88 122 159 196 238 291 353
#     4   9  17  31  55  87 119 150 190 241 293 343
#
# _framework density 19.477775000000001
#
# number of rings (size 3 to 8) (size 9 to 14) (size 15 to 20)
#    0.000    1.875    3.750    0.750    0.000    3.000 
#    1.125    0.000    0.000    4.500    0.000    0.000 
#    0.000    0.000    0.000    0.000    0.000    0.000 
#
# Total GULP energy -396778.786692 kJ/mol
# GULP energy per Si atom -12399.337084 kJ/mol
# Density = 1.943344 g / cm^3
# Si number density = 19.477775 Si / 1000 Ang^3
#
#
#
# Elastic Constant Matrix: (Units=GPa)
#
#
# Indices 1 2 3 4 5 6 
#
# 1 91.1676 28.6112 30.7653 0.0000 0.0000 0.0000
# 2 28.6112 91.1675 30.7653 0.0000 0.0000 0.0000
# 3 30.7653 30.7653 88.1920 0.0000 0.0000 0.0000
# 4 0.0000 0.0000 0.0000 20.4930 0.0000 0.0000
# 5 0.0000 0.0000 0.0000 0.0000 20.4930 0.0000
# 6 0.0000 0.0000 0.0000 0.0000 0.0000 31.2782
#
#
#
# Elastic Compliance Matrix: (Units=1/GPa)
#
#
# Indices 1 2 3 4 5 6 
#
# 1 0.013079 -0.002907 -0.003548 0.000000 0.000000 0.000000
# 2 -0.002907 0.013079 -0.003548 0.000000 0.000000 0.000000
# 3 -0.003548 -0.003548 0.013814 0.000000 0.000000 0.000000
# 4 0.000000 0.000000 0.000000 0.048797 0.000000 0.000000
# 5 0.000000 0.000000 0.000000 0.000000 0.048797 0.000000
# 6 0.000000 0.000000 0.000000 0.000000 0.000000 0.031971
#
#
# Mechanical properties :
#
#
# Convention : Reuss Voigt Hill
#
# Bulk Modulus (GPa) = 50.08923 50.09010 50.08966
# Shear Modulus (GPa) = 25.48431 26.47850 25.98141
#
# Velocity S-wave (km/s) = 3.62108 3.69103 3.65622
# Velocity P-wave (km/s) = 6.57684 6.62852 6.60273
#
# Compressibility (1/GPa) = 0.01996437
#
# Stress axis : x y z
#
# Youngs Moduli (GPa) = 76.46117 76.46114 72.38783
#
# Poissons Ratio (x) = 0.22228 0.25685
# Poissons Ratio (y) = 0.22228 0.25685
# Poissons Ratio (z) = 0.27130 0.27130
#
# Static dielectric constant tensor:
#      x y z
#    x 3.287400 0.000000 0.000000 
#    y 0.000000 3.287400 0.000000 
#    z 0.000000 0.000000 3.622910 
# 
# 
# High freq. dielectric constant tensor:
#      x y z
#    x 1.736910 0.000000 0.000000 
#    y 0.000000 1.736910 0.000000 
#    z 0.000000 0.000000 1.767720 
# 
# From -- ./inp_files/2151.got.cif
#   From: 2010.03.12/outbox.cif.g09.slc.cpg/sg187_2_cif.got.tgz:2151.got - 2010.04.01 11:58:23.
