data_PCOD8327033
_publ_section_title
;
Structure prediction by ZEFSAII (Michael W. Deem and Ramdas Pophale) SiO2 
 PCOD8327033
Probable space group: P -6 M 2
;
_chemical_formula_sum "Si O2"
_cell_formula_units_Z 72
_cell_length_a 12.555393
_cell_length_b 12.555393
_cell_length_c 30.640103
_cell_angle_alpha 90.000000
_cell_angle_beta 90.000000
_cell_angle_gamma 120.000000
_cell_volume 4182.938458
_symmetry_space_group_name_H-M "P -6 M 2"
_symmetry_group_IT_number 187
_symmetry_cell_setting 'hexagonal'
loop_
_space_group_symop_operation_xyz
x,y,z
-x+y,-x,-z
-y,x-y,z
x,y,-z
-x+y,-x,z
-y,x-y,-z
-y,-x,-z
-x+y,y,-z
x,x-y,-z
-x+y,y,z
x,x-y,z
-y,-x,z
loop_
_atom_site_type_symbol
_atom_site_label
_atom_site_fract_x
_atom_site_fract_y
_atom_site_fract_z
Si Si1 0.332740 0.915007 0.500000
Si Si2 0.666489 0.579320 0.422585
Si Si3 0.331613 0.915589 0.000000
Si Si4 0.247322 0.247499 0.245829
Si Si5 0.911691 0.578081 0.324167
Si Si6 0.085365 0.416909 0.164580
Si Si7 0.749405 0.751005 0.082637
O O1 0.215174 0.784827 0.500000
O O2 0.447578 0.895156 0.500000
O O3 0.330318 0.984398 0.456279
O O4 0.793336 0.586672 0.433161
O O5 0.560600 0.439401 0.429948
O O6 0.661265 0.621907 0.373257
O O7 0.321506 0.984500 0.957758
O O8 0.227062 0.772939 0.000000
O O9 0.461949 0.923897 0.000000
O O10 0.252038 0.126019 0.233393
O O11 0.308103 0.301125 0.292612
O O12 0.323178 0.351340 0.210227
O O13 0.106137 0.212274 0.247452
O O14 0.767954 0.535907 0.321128
O O15 0.926131 0.463066 0.309992
O O16 0.228433 0.456865 0.161036
O O17 0.073034 0.536517 0.160232
O O18 0.007954 0.322517 0.126515
O O19 0.871375 0.742750 0.079839
O O20 0.787333 0.893666 0.081840
#
# Coordination Sequence:
#
# PCOD8327033 Si02
#       7
#     6  12   6  12  12  12  12
#     4  10  20  32  46  64  90 124 158 192 230 278
#     4   9  17  30  50  74  96 119 151 195 243 286
#     4  10  20  34  54  78 104 134 168 208 250 292
#     4  10  20  33  50  71  97 130 166 203 239 280
#     4   9  17  30  49  73  99 125 154 191 238 289
#     4  10  20  34  53  75  99 127 160 202 249 295
#     4  10  20  34  54  78 104 134 167 205 246 291
#
# _framework density 17.212781
#
# number of rings (size 3 to 8) (size 9 to 14) (size 15 to 20)
#    0.000    2.333    0.000    3.000    0.000    2.000 
#    0.000    5.000    0.000   10.667    0.000    0.000 
#    0.000    0.000    0.000    0.000    0.000    0.000 
#
# Total GULP energy -892953.653938 kJ/mol
# GULP energy per Si atom -12402.134082 kJ/mol
# Density = 1.717360 g / cm^3
# Si number density = 17.212781 Si / 1000 Ang^3
#
#
#
# Elastic Constant Matrix: (Units=GPa)
#
#
# Indices 1 2 3 4 5 6 
#
# 1 94.2091 47.7583 47.4358 0.0000 0.0002 0.0000
# 2 47.7583 94.2091 47.4358 0.0000 -0.0002 0.0000
# 3 47.4358 47.4358 117.1242 0.0000 0.0000 0.0000
# 4 0.0000 0.0000 0.0000 22.9843 0.0000 -0.0002
# 5 0.0002 -0.0002 0.0000 0.0000 22.9843 0.0000
# 6 0.0000 0.0000 0.0000 -0.0002 0.0000 23.2254
#
#
#
# Elastic Compliance Matrix: (Units=1/GPa)
#
#
# Indices 1 2 3 4 5 6 
#
# 1 0.015593 -0.005935 -0.003911 0.000000 0.000000 0.000000
# 2 -0.005935 0.015593 -0.003911 0.000000 0.000000 0.000000
# 3 -0.003911 -0.003911 0.011706 0.000000 0.000000 0.000000
# 4 0.000000 0.000000 0.000000 0.043508 0.000000 0.000000
# 5 0.000000 0.000000 0.000000 0.000000 0.043508 0.000000
# 6 0.000000 0.000000 0.000000 0.000000 0.000000 0.043056
#
#
# Mechanical properties :
#
#
# Convention : Reuss Voigt Hill
#
# Bulk Modulus (GPa) = 65.03640 65.64469 65.34055
# Shear Modulus (GPa) = 24.31840 24.69965 24.50903
#
# Velocity S-wave (km/s) = 3.76282 3.79220 3.77753
# Velocity P-wave (km/s) = 7.53287 7.57590 7.55442
#
# Compressibility (1/GPa) = 0.01537600
#
# Stress axis : x y z
#
# Youngs Moduli (GPa) = 64.13158 64.13158 85.42460
#
# Poissons Ratio (x) = 0.38063 0.33413
# Poissons Ratio (y) = 0.38063 0.33413
# Poissons Ratio (z) = 0.25085 0.25085
#
# Static dielectric constant tensor:
#      x y z
#    x 3.064600 0.000000 0.000000 
#    y 0.000000 3.064600 0.000000 
#    z 0.000000 0.000000 3.486690 
# 
# 
# High freq. dielectric constant tensor:
#      x y z
#    x 1.657400 0.000000 0.000000 
#    y 0.000000 1.657400 0.000000 
#    z 0.000000 0.000000 1.683740 
# 
# From -- ./inp_files/4566.got.cif
#   From: 2010.03.12/outbox.cif.g09.slc.cpg/sg187_3_cif.got.tgz:4566.got - 2010.04.01 11:58:23.
