data_PCOD8327525
_publ_section_title
;
Structure prediction by ZEFSAII (Michael W. Deem and Ramdas Pophale) SiO2 
 PCOD8327525
Probable space group: P -6 2 M
;
_chemical_formula_sum "Si O2"
_cell_formula_units_Z 66
_cell_length_a 13.758905
_cell_length_b 13.758905
_cell_length_c 21.196156
_cell_angle_alpha 90.000000
_cell_angle_beta 90.000000
_cell_angle_gamma 120.000000
_cell_volume 3475.005393
_symmetry_space_group_name_H-M "P -6 2 M"
_symmetry_group_IT_number 189
_symmetry_cell_setting 'hexagonal'
loop_
_space_group_symop_operation_xyz
x,y,z
-x+y,-x,-z
-y,x-y,z
x,y,-z
-x+y,-x,z
-y,x-y,-z
x-y,-y,-z
-x,-x+y,-z
y,x,-z
y,x,z
x-y,-y,z
-x,-x+y,z
loop_
_atom_site_type_symbol
_atom_site_label
_atom_site_fract_x
_atom_site_fract_y
_atom_site_fract_z
Si Si1 0.422039 0.546905 0.805530
Si Si2 0.253281 0.124878 0.500000
Si Si3 0.129272 0.868952 0.130351
Si Si4 0.779684 0.589211 0.245354
Si Si5 0.328940 0.461810 0.931242
Si Si6 0.263202 0.128996 0.637216
O O1 0.442021 0.442021 0.808290
O O2 0.319195 0.510420 0.757761
O O3 0.533745 0.653009 0.780012
O O4 0.383043 0.558807 0.876877
O O5 0.212451 0.212451 0.500000
O O6 0.318244 0.143378 0.566688
O O7 0.146618 0.000000 0.500000
O O8 0.143375 0.841059 0.202626
O O9 0.168584 0.799342 0.086230
O O10 0.000000 0.833181 0.119211
O O11 0.206148 0.000000 0.114466
O O12 0.795538 0.631915 0.316723
O O13 0.400670 0.400670 0.936001
O O14 0.329251 0.514391 0.000000
O O15 0.206221 0.206221 0.646562
O O16 0.168384 0.000000 0.649468
#
# Coordination Sequence:
#
# PCOD8327525 Si02
#       6
#    12   6  12  12  12  12
#     4  10  20  35  52  71  96 125 165 217 264 304
#     4   8  15  26  44  72 108 146 176 204 241 300
#     4  10  19  31  49  77 110 138 163 195 246 318
#     4  11  21  34  52  73  96 132 176 220 267 312
#     4   8  16  32  51  68  91 127 167 205 245 290
#     4  10  18  30  50  79 113 144 173 205 252 317
#
# _framework density 18.992775000000002
#
# number of rings (size 3 to 8) (size 9 to 14) (size 15 to 20)
#    0.000    2.364    0.000    5.182    0.000    1.818 
#    0.000    5.455    0.000    6.545    0.000    5.091 
#    0.000    0.000    0.000    0.000    0.000    0.000 
#
# Total GULP energy -817706.482196 kJ/mol
# GULP energy per Si atom -12389.492154 kJ/mol
# Density = 1.894955 g / cm^3
# Si number density = 18.992775 Si / 1000 Ang^3
#
#
#
# Elastic Constant Matrix: (Units=GPa)
#
#
# Indices 1 2 3 4 5 6 
#
# 1 72.2545 17.6342 47.7488 0.0000 0.0000 0.0000
# 2 17.6342 72.2545 47.7488 0.0000 0.0000 0.0000
# 3 47.7488 47.7488 177.5477 0.0000 0.0000 0.0000
# 4 0.0000 0.0000 0.0000 19.8058 0.0000 0.0000
# 5 0.0000 0.0000 0.0000 0.0000 19.8058 0.0000
# 6 0.0000 0.0000 0.0000 0.0000 0.0000 27.3102
#
#
#
# Elastic Compliance Matrix: (Units=1/GPa)
#
#
# Indices 1 2 3 4 5 6 
#
# 1 0.016942 -0.001367 -0.004189 0.000000 0.000000 0.000000
# 2 -0.001367 0.016942 -0.004189 0.000000 0.000000 0.000000
# 3 -0.004189 -0.004189 0.007885 0.000000 0.000000 0.000000
# 4 0.000000 0.000000 0.000000 0.050490 0.000000 0.000000
# 5 0.000000 0.000000 0.000000 0.000000 0.050490 0.000000
# 6 0.000000 0.000000 0.000000 0.000000 0.000000 0.036616
#
#
# Mechanical properties :
#
#
# Convention : Reuss Voigt Hill
#
# Bulk Modulus (GPa) = 44.88241 60.92448 52.90344
# Shear Modulus (GPa) = 24.23892 27.31269 25.77580
#
# Velocity S-wave (km/s) = 3.57630 3.79629 3.68793
# Velocity P-wave (km/s) = 6.38246 7.16680 6.78597
#
# Compressibility (1/GPa) = 0.02228045
#
# Stress axis : x y z
#
# Youngs Moduli (GPa) = 59.02653 59.02653 126.81942
#
# Poissons Ratio (x) = 0.08067 0.53120
# Poissons Ratio (y) = 0.08067 0.53120
# Poissons Ratio (z) = 0.24724 0.24724
#
# Static dielectric constant tensor:
#      x y z
#    x 3.247100 0.000000 0.000000 
#    y 0.000000 3.247100 0.000000 
#    z 0.000000 0.000000 3.876660 
# 
# 
# High freq. dielectric constant tensor:
#      x y z
#    x 1.720760 0.000000 0.000000 
#    y 0.000000 1.720760 0.000000 
#    z 0.000000 0.000000 1.734570 
# 
# From -- ./inp_files/3407.got.cif
#   From: 2010.03.12/outbox.cif.g09.slc.cpg/sg189_2_cif.got.tgz:3407.got - 2010.04.01 12:03:36.
