data_PCOD8327378
_publ_section_title
;
Structure prediction by ZEFSAII (Michael W. Deem and Ramdas Pophale) SiO2 
 PCOD8327378
Probable space group: P -6 C 2
;
_chemical_formula_sum "Si O2"
_cell_formula_units_Z 72
_cell_length_a 23.813579
_cell_length_b 23.813579
_cell_length_c 8.913868
_cell_angle_alpha 90.000000
_cell_angle_beta 90.000000
_cell_angle_gamma 120.000000
_cell_volume 4377.701782
_symmetry_space_group_name_H-M "P -6 C 2"
_symmetry_group_IT_number 188
_symmetry_cell_setting 'hexagonal'
loop_
_space_group_symop_operation_xyz
x,y,z
-x+y,-x,1/2-z
-y,x-y,z
x,y,1/2-z
-x+y,-x,z
-y,x-y,1/2-z
-y,-x,-z
-x+y,y,-z
x,x-y,-z
-x+y,y,1/2+z
x,x-y,1/2+z
-y,-x,1/2+z
loop_
_atom_site_type_symbol
_atom_site_label
_atom_site_fract_x
_atom_site_fract_y
_atom_site_fract_z
Si Si1 0.596973 0.739935 0.925702
Si Si2 0.447853 0.665317 0.574285
Si Si3 0.929924 0.521533 0.926363
Si Si4 0.814529 0.519008 0.081489
Si Si5 0.891673 0.218619 0.581174
Si Si6 0.004954 0.671066 0.926694
O O1 0.610150 0.750626 0.750000
O O2 0.522290 0.688145 0.960861
O O3 0.616990 0.808495 0.000000
O O4 0.641121 0.714375 0.995931
O O5 0.433934 0.661945 0.750000
O O6 0.405227 0.594773 0.500000
O O7 0.427497 0.713749 0.500000
O O8 0.924244 0.510898 0.750000
O O9 0.978294 0.596127 0.969259
O O10 0.958482 0.479241 0.000000
O O11 0.858290 0.496815 0.991115
O O12 0.803778 0.491125 0.250000
O O13 0.849160 0.596054 0.084819
O O14 0.745072 0.490143 0.000000
O O15 0.909039 0.208228 0.750000
O O16 0.850968 0.149033 0.500000
O O17 0.957124 0.262042 0.488321
O O18 0.011709 0.681826 0.750000
#
# Coordination Sequence:
#
# PCOD8327378 Si02
#       6
#    12  12  12  12  12  12
#     4  10  21  36  52  69  91 122 159 197 239 291
#     4  10  20  33  49  67  87 112 147 195 250 304
#     4  10  20  32  46  66  92 121 154 194 240 287
#     4   9  16  27  44  64  86 113 145 180 219 266
#     4   9  16  27  45  69  95 120 147 179 216 259
#     4  10  20  33  49  69  94 124 157 193 234 281
#
# _framework density 16.446985000000002
#
# number of rings (size 3 to 8) (size 9 to 14) (size 15 to 20)
#    0.000    2.333    0.000    3.167    0.000    8.667 
#    0.000    3.333    0.000    0.333    0.000    2.333 
#    0.000    0.000    0.000    0.500    0.000    7.000 
#
# Total GULP energy -892941.698996 kJ/mol
# GULP energy per Si atom -12401.968042 kJ/mol
# Density = 1.640955 g / cm^3
# Si number density = 16.446985 Si / 1000 Ang^3
#
#
#
# Elastic Constant Matrix: (Units=GPa)
#
#
# Indices 1 2 3 4 5 6 
#
# 1 90.1887 55.1870 53.3367 0.0003 0.0000 0.0000
# 2 55.1870 90.1887 53.3367 -0.0003 0.0000 0.0000
# 3 53.3367 53.3367 113.7143 0.0000 0.0000 0.0000
# 4 0.0003 -0.0003 0.0000 27.6869 0.0000 0.0000
# 5 0.0000 0.0000 0.0000 0.0000 27.6869 0.0003
# 6 0.0000 0.0000 0.0000 0.0000 0.0003 17.5008
#
#
#
# Elastic Compliance Matrix: (Units=1/GPa)
#
#
# Indices 1 2 3 4 5 6 
#
# 1 0.019529 -0.009041 -0.004920 0.000000 0.000000 0.000000
# 2 -0.009041 0.019529 -0.004920 0.000000 0.000000 0.000000
# 3 -0.004920 -0.004920 0.013409 0.000000 0.000000 0.000000
# 4 0.000000 0.000000 0.000000 0.036118 0.000000 0.000000
# 5 0.000000 0.000000 0.000000 0.000000 0.036118 -0.000001
# 6 0.000000 0.000000 0.000000 0.000000 -0.000001 0.057140
#
#
# Mechanical properties :
#
#
# Convention : Reuss Voigt Hill
#
# Bulk Modulus (GPa) = 67.99107 68.64581 68.31844
# Shear Modulus (GPa) = 22.27105 23.39033 22.83069
#
# Velocity S-wave (km/s) = 3.68382 3.77525 3.72981
# Velocity P-wave (km/s) = 7.71513 7.79946 7.75741
#
# Compressibility (1/GPa) = 0.01470781
#
# Stress axis : x y z
#
# Youngs Moduli (GPa) = 51.20500 51.20500 74.57712
#
# Poissons Ratio (x) = 0.46293 0.36689
# Poissons Ratio (y) = 0.46293 0.36689
# Poissons Ratio (z) = 0.25191 0.25191
#
# Static dielectric constant tensor:
#      x y z
#    x 2.909100 0.000000 0.000000 
#    y 0.000000 2.909100 0.000000 
#    z 0.000000 0.000000 3.307990 
# 
# 
# High freq. dielectric constant tensor:
#      x y z
#    x 1.604980 0.000000 0.000000 
#    y 0.000000 1.604980 0.000000 
#    z 0.000000 0.000000 1.656840 
# 
# From -- ./inp_files/991.got.cif
#   From: 2010.03.12/outbox.cif.g09.slc.cpg/sg188_1_cif.got.tgz:991.got - 2010.04.01 12:01:06.
