data_PCOD8327000
_publ_section_title
;
Structure prediction by ZEFSAII (Michael W. Deem and Ramdas Pophale) SiO2 
 PCOD8327000
Probable space group: P -6 M 2
;
_chemical_formula_sum "Si O2"
_cell_formula_units_Z 54
_cell_length_a 17.163445
_cell_length_b 17.163445
_cell_length_c 11.780511
_cell_angle_alpha 90.000000
_cell_angle_beta 90.000000
_cell_angle_gamma 120.000000
_cell_volume 3005.409717
_symmetry_space_group_name_H-M "P -6 M 2"
_symmetry_group_IT_number 187
_symmetry_cell_setting 'hexagonal'
loop_
_space_group_symop_operation_xyz
x,y,z
-x+y,-x,-z
-y,x-y,z
x,y,-z
-x+y,-x,z
-y,x-y,-z
-y,-x,-z
-x+y,y,-z
x,x-y,-z
-x+y,y,z
x,x-y,z
-y,-x,z
loop_
_atom_site_type_symbol
_atom_site_label
_atom_site_fract_x
_atom_site_fract_y
_atom_site_fract_z
Si Si1 0.377749 0.441738 0.000000
Si Si2 0.815993 0.999787 0.500000
Si Si3 0.332772 0.335406 0.625252
Si Si4 0.699564 0.569589 0.000000
Si Si5 0.491470 0.158082 0.247359
Si Si6 0.512816 0.845310 0.763685
O O1 0.363266 0.340807 0.000000
O O2 0.329316 0.453106 0.108884
O O3 0.484523 0.515478 0.000000
O O4 0.912357 0.087644 0.500000
O O5 0.829702 0.914851 0.500000
O O6 0.759536 0.998724 0.611813
O O7 0.377434 0.367710 0.500000
O O8 0.398802 0.322591 0.708231
O O9 0.310076 0.408147 0.675491
O O10 0.663669 0.507286 0.888920
O O11 0.810092 0.620183 0.000000
O O12 0.574451 0.148901 0.293853
O O13 0.501545 0.250773 0.293491
O O14 0.429331 0.858661 0.733815
O O15 0.482316 0.741158 0.751300
#
# Coordination Sequence:
#
# PCOD8327000 Si02
#       6
#     6   6  12   6  12  12
#     4  10  19  35  56  80 109 146 186 228 284 337
#     4  10  21  40  63  86 108 136 182 234 285 330
#     4  10  23  38  57  78 113 150 186 224 277 342
#     4  10  20  33  54  82 111 144 188 234 280 337
#     4  11  21  35  55  81 113 148 189 233 280 334
#     4  11  22  37  58  83 113 148 190 238 284 336
#
# _framework density 17.967600000000001
#
# number of rings (size 3 to 8) (size 9 to 14) (size 15 to 20)
#    0.667    0.889    2.222    3.889    0.000    1.778 
#    0.000    2.222    0.000    2.889    0.000    0.000 
#    0.000    0.000    0.000    4.444    0.000    0.000 
#
# Total GULP energy -669448.161486 kJ/mol
# GULP energy per Si atom -12397.188176 kJ/mol
# Density = 1.792670 g / cm^3
# Si number density = 17.967600 Si / 1000 Ang^3
#
#
#
# Elastic Constant Matrix: (Units=GPa)
#
#
# Indices 1 2 3 4 5 6 
#
# 1 125.1338 56.1834 30.6460 0.0000 0.0001 0.0000
# 2 56.1834 125.1338 30.6460 0.0000 -0.0001 0.0000
# 3 30.6460 30.6460 77.2696 0.0000 0.0000 0.0000
# 4 0.0000 0.0000 0.0000 21.7172 0.0000 -0.0001
# 5 0.0001 -0.0001 0.0000 0.0000 21.7172 0.0000
# 6 0.0000 0.0000 0.0000 -0.0001 0.0000 34.4752
#
#
#
# Elastic Compliance Matrix: (Units=1/GPa)
#
#
# Indices 1 2 3 4 5 6 
#
# 1 0.010436 -0.004067 -0.002526 0.000000 0.000000 0.000000
# 2 -0.004067 0.010436 -0.002526 0.000000 0.000000 0.000000
# 3 -0.002526 -0.002526 0.014945 0.000000 0.000000 0.000000
# 4 0.000000 0.000000 0.000000 0.046046 0.000000 0.000000
# 5 0.000000 0.000000 0.000000 0.000000 0.046046 0.000000
# 6 0.000000 0.000000 0.000000 0.000000 0.000000 0.029006
#
#
# Mechanical properties :
#
#
# Convention : Reuss Voigt Hill
#
# Bulk Modulus (GPa) = 56.88480 62.49867 59.69174
# Shear Modulus (GPa) = 27.62203 29.58605 28.60404
#
# Velocity S-wave (km/s) = 3.92513 4.06228 3.99429
# Velocity P-wave (km/s) = 7.22984 7.54071 7.38691
#
# Compressibility (1/GPa) = 0.01757939
#
# Stress axis : x y z
#
# Youngs Moduli (GPa) = 95.82086 95.82086 66.91009
#
# Poissons Ratio (x) = 0.38971 0.16902
# Poissons Ratio (y) = 0.38971 0.16902
# Poissons Ratio (z) = 0.24205 0.24205
#
# Static dielectric constant tensor:
#      x y z
#    x 3.238590 0.000000 0.000000 
#    y 0.000000 3.238590 0.000000 
#    z 0.000000 0.000000 3.299380 
# 
# 
# High freq. dielectric constant tensor:
#      x y z
#    x 1.690630 0.000000 0.000000 
#    y 0.000000 1.690630 0.000000 
#    z 0.000000 0.000000 1.693120 
# 
# From -- ./inp_files/1602.got.cif
#   From: 2010.03.12/outbox.cif.g09.slc.cpg/sg187_1_cif.got.tgz:1602.got - 2010.04.01 11:58:23.
