data_PCOD8327612
_publ_section_title
;
Structure prediction by ZEFSAII (Michael W. Deem and Ramdas Pophale) SiO2 
 PCOD8327612
Probable space group: P -6 2 M
;
_chemical_formula_sum "Si O2"
_cell_formula_units_Z 84
_cell_length_a 14.135455
_cell_length_b 14.135455
_cell_length_c 24.136000
_cell_angle_alpha 90.000000
_cell_angle_beta 90.000000
_cell_angle_gamma 120.000000
_cell_volume 4176.529118
_symmetry_space_group_name_H-M "P -6 2 M"
_symmetry_group_IT_number 189
_symmetry_cell_setting 'hexagonal'
loop_
_space_group_symop_operation_xyz
x,y,z
-x+y,-x,-z
-y,x-y,z
x,y,-z
-x+y,-x,z
-y,x-y,-z
x-y,-y,-z
-x,-x+y,-z
y,x,-z
y,x,z
x-y,-y,z
-x,-x+y,z
loop_
_atom_site_type_symbol
_atom_site_label
_atom_site_fract_x
_atom_site_fract_y
_atom_site_fract_z
Si Si1 0.125362 0.780198 0.500000
Si Si2 0.125884 0.662245 0.238494
Si Si3 0.704328 0.576449 0.589806
Si Si4 0.120752 0.240498 0.937641
Si Si5 0.122296 0.511627 0.937887
Si Si6 0.124953 0.558527 0.500000
Si Si7 0.674774 0.544959 0.285847
Si Si8 0.455019 0.280673 0.885067
O O1 0.183260 0.843097 0.442979
O O2 0.137195 0.674473 0.500000
O O3 0.000000 0.752277 0.500000
O O4 0.151382 0.575013 0.268801
O O5 0.213768 0.788549 0.253235
O O6 0.139767 0.656235 0.173019
O O7 0.000000 0.629771 0.252457
O O8 0.634309 0.634309 0.595641
O O9 0.640650 0.463451 0.554664
O O10 0.716345 0.544031 0.651747
O O11 0.135147 0.135147 0.937724
O O12 0.205691 0.326524 0.894441
O O13 0.000000 0.204405 0.916730
O O14 0.138632 0.289964 0.000000
O O15 0.204124 0.508617 0.892560
O O16 0.126394 0.626279 0.931719
O O17 0.000000 0.412481 0.927001
O O18 0.158850 0.502676 0.000000
O O19 0.000000 0.463327 0.500000
O O20 0.634720 0.634720 0.276410
#
# Coordination Sequence:
#
# PCOD8327612 Si02
#       8
#     6  12  12  12  12   6  12  12
#     4  10  19  31  57  91 121 155 193 230 278 346
#     4  11  24  41  62  89 117 155 209 259 308 365
#     4   9  19  37  55  78 119 157 187 232 289 341
#     4  10  20  35  56  82 111 143 180 227 290 365
#     4  11  23  38  59  86 114 148 187 228 285 363
#     4   8  16  31  50  79 116 149 180 220 273 334
#     4  10  23  42  63  86 120 163 207 262 315 358
#     4  12  23  38  57  80 114 149 185 239 295 347
#
# _framework density 20.112394999999999
#
# number of rings (size 3 to 8) (size 9 to 14) (size 15 to 20)
#    0.000    1.714    0.000    5.214    2.000    5.714 
#    3.429    0.000    0.000    1.429    0.000    0.000 
#    0.000    0.000    0.000    0.000    0.000    0.000 
#
# Total GULP energy -1040788.960555 kJ/mol
# GULP energy per Si atom -12390.344769 kJ/mol
# Density = 2.006662 g / cm^3
# Si number density = 20.112395 Si / 1000 Ang^3
#
#
#
# Elastic Constant Matrix: (Units=GPa)
#
#
# Indices 1 2 3 4 5 6 
#
# 1 85.6580 26.3764 32.8651 0.0000 0.0000 0.0000
# 2 26.3764 85.6580 32.8651 0.0000 0.0000 0.0000
# 3 32.8651 32.8651 93.8504 0.0000 0.0000 0.0000
# 4 0.0000 0.0000 0.0000 177.7559 -0.0001 0.0000
# 5 0.0000 0.0000 0.0000 -0.0001 177.7560 0.0000
# 6 0.0000 0.0000 0.0000 0.0000 0.0000 29.6408
#
#
#
# Elastic Compliance Matrix: (Units=1/GPa)
#
#
# Indices 1 2 3 4 5 6 
#
# 1 0.014051 -0.002817 -0.003934 0.000000 0.000000 0.000000
# 2 -0.002817 0.014051 -0.003934 0.000000 0.000000 0.000000
# 3 -0.003934 -0.003934 0.013410 0.000000 0.000000 0.000000
# 4 0.000000 0.000000 0.000000 0.005626 0.000000 0.000000
# 5 0.000000 0.000000 0.000000 0.000000 0.005626 0.000000
# 6 0.000000 0.000000 0.000000 0.000000 0.000000 0.033737
#
#
# Mechanical properties :
#
#
# Convention : Reuss Voigt Hill
#
# Bulk Modulus (GPa) = 49.64643 49.93106 49.78874
# Shear Modulus (GPa) = 43.63521 88.56787 66.10154
#
# Velocity S-wave (km/s) = 4.66292 6.64320 5.73911
# Velocity P-wave (km/s) = 7.32997 9.15001 8.29009
#
# Compressibility (1/GPa) = 0.02014244
#
# Stress axis : x y z
#
# Youngs Moduli (GPa) = 71.16801 71.16801 74.56856
#
# Poissons Ratio (x) = 0.20051 0.29335
# Poissons Ratio (y) = 0.20051 0.29335
# Poissons Ratio (z) = 0.27997 0.27997
#
# Static dielectric constant tensor:
#      x y z
#    x 3.677570 0.000000 0.000000 
#    y 0.000000 3.677570 0.000000 
#    z 0.000000 0.000000 3.880150 
# 
# 
# High freq. dielectric constant tensor:
#      x y z
#    x 1.783920 0.000000 0.000000 
#    y 0.000000 1.783920 0.000000 
#    z 0.000000 0.000000 1.776690 
# 
# From -- ./inp_files/3643.got.cif
#   From: 2010.03.12/outbox.cif.g09.slc.cpg/sg189_2_cif.got.tgz:3643.got - 2010.04.01 12:03:36.
