data_PCOD8327929
_publ_section_title
;
Structure prediction by ZEFSAII (Michael W. Deem and Ramdas Pophale) SiO2 
 PCOD8327929
Probable space group: P -6 2 C
;
_chemical_formula_sum "Si O2"
_cell_formula_units_Z 54
_cell_length_a 13.110844
_cell_length_b 13.110844
_cell_length_c 19.340143
_cell_angle_alpha 90.000000
_cell_angle_beta 90.000000
_cell_angle_gamma 120.000000
_cell_volume 2879.065945
_symmetry_space_group_name_H-M "P -6 2 C"
_symmetry_group_IT_number 190
_symmetry_cell_setting 'hexagonal'
loop_
_space_group_symop_operation_xyz
x,y,z
-x+y,-x,1/2-z
-y,x-y,z
x,y,1/2-z
-x+y,-x,z
-y,x-y,1/2-z
x-y,-y,-z
-x,-x+y,-z
y,x,-z
y,x,1/2+z
x-y,-y,1/2+z
-x,-x+y,1/2+z
loop_
_atom_site_type_symbol
_atom_site_label
_atom_site_fract_x
_atom_site_fract_y
_atom_site_fract_z
Si Si1 0.716383 0.236800 0.250000
Si Si2 0.349798 0.909978 0.563382
Si Si3 0.690299 0.136006 0.395835
Si Si4 0.097594 0.435446 0.328372
Si Si5 0.572520 0.898660 0.169774
O O1 0.577729 0.199709 0.250000
O O2 0.737930 0.187720 0.319976
O O3 0.433932 0.854699 0.576913
O O4 0.215588 0.800542 0.552955
O O5 0.396598 0.000000 0.500000
O O6 0.347369 0.983279 0.628852
O O7 0.654724 0.000583 0.613843
O O8 0.066144 0.394437 0.250000
O O9 0.207090 0.422467 0.353046
O O10 0.131189 0.569957 0.339115
O O11 0.612303 0.935836 0.250000
#
# Coordination Sequence:
#
# PCOD8327929 Si02
#       5
#     6  12  12  12  12
#     4  10  16  28  58  84 114 142 194 262 290 336
#     4  11  24  37  54  85 121 152 190 244 299 359
#     4  11  20  34  57  84 113 154 198 237 301 345
#     4   9  19  33  53  80 114 151 196 245 295 347
#     4   9  17  30  54  83 112 148 192 238 291 350
#
# _framework density 18.756083
#
# number of rings (size 3 to 8) (size 9 to 14) (size 15 to 20)
#    0.222    1.778    3.333    0.889    3.111    5.333 
#    0.000    0.000    0.000    0.889    0.000    1.556 
#    0.000    0.000    0.000    0.000    0.000    0.000 
#
# Total GULP energy -669139.238327 kJ/mol
# GULP energy per Si atom -12391.467376 kJ/mol
# Density = 1.871339 g / cm^3
# Si number density = 18.756083 Si / 1000 Ang^3
#
#
#
# Elastic Constant Matrix: (Units=GPa)
#
#
# Indices 1 2 3 4 5 6 
#
# 1 113.4178 53.8244 34.9824 0.0000 0.0000 0.0000
# 2 53.8244 113.4178 34.9824 0.0000 0.0000 0.0000
# 3 34.9824 34.9824 60.6498 0.0000 0.0000 0.0000
# 4 0.0000 0.0000 0.0000 19.6149 0.0000 0.0000
# 5 0.0000 0.0000 0.0000 0.0000 19.6149 0.0000
# 6 0.0000 0.0000 0.0000 0.0000 0.0000 29.7967
#
#
#
# Elastic Compliance Matrix: (Units=1/GPa)
#
#
# Indices 1 2 3 4 5 6 
#
# 1 0.012331 -0.004450 -0.004546 0.000000 0.000000 0.000000
# 2 -0.004450 0.012331 -0.004546 0.000000 0.000000 0.000000
# 3 -0.004546 -0.004546 0.021732 0.000000 0.000000 0.000000
# 4 0.000000 0.000000 0.000000 0.050982 0.000000 0.000000
# 5 0.000000 0.000000 0.000000 0.000000 0.050982 0.000000
# 6 0.000000 0.000000 0.000000 0.000000 0.000000 0.033561
#
#
# Mechanical properties :
#
#
# Convention : Reuss Voigt Hill
#
# Bulk Modulus (GPa) = 51.78358 59.45154 55.61756
# Shear Modulus (GPa) = 23.20865 24.71837 23.96351
#
# Velocity S-wave (km/s) = 3.52148 3.63421 3.57829
# Velocity P-wave (km/s) = 6.64855 7.02680 6.84029
#
# Compressibility (1/GPa) = 0.01931114
#
# Stress axis : x y z
#
# Youngs Moduli (GPa) = 81.09838 81.09838 46.01512
#
# Poissons Ratio (x) = 0.36086 0.20917
# Poissons Ratio (y) = 0.36086 0.20917
# Poissons Ratio (z) = 0.36865 0.36865
#
# Static dielectric constant tensor:
#      x y z
#    x 3.411520 0.000000 0.000000 
#    y 0.000000 3.411520 0.000000 
#    z 0.000000 0.000000 3.434770 
# 
# 
# High freq. dielectric constant tensor:
#      x y z
#    x 1.710420 0.000000 0.000000 
#    y 0.000000 1.710420 0.000000 
#    z 0.000000 0.000000 1.720950 
# 
# From -- ./inp_files/3597.got.cif
#   From: 2010.06.25/outbox.cif.g09.slc.cpg/sg190_2_cif.got.tgz:3597.got - 2010.06.28 13:08:06.
