data_PCOD8327637
_publ_section_title
;
Structure prediction by ZEFSAII (Michael W. Deem and Ramdas Pophale) SiO2 
 PCOD8327637
Probable space group: P -6 2 M
;
_chemical_formula_sum "Si O2"
_cell_formula_units_Z 84
_cell_length_a 19.789059
_cell_length_b 19.789059
_cell_length_c 13.730546
_cell_angle_alpha 90.000000
_cell_angle_beta 90.000000
_cell_angle_gamma 120.000000
_cell_volume 4656.597770
_symmetry_space_group_name_H-M "P -6 2 M"
_symmetry_group_IT_number 189
_symmetry_cell_setting 'hexagonal'
loop_
_space_group_symop_operation_xyz
x,y,z
-x+y,-x,-z
-y,x-y,z
x,y,-z
-x+y,-x,z
-y,x-y,-z
x-y,-y,-z
-x,-x+y,-z
y,x,-z
y,x,z
x-y,-y,z
-x,-x+y,z
loop_
_atom_site_type_symbol
_atom_site_label
_atom_site_fract_x
_atom_site_fract_y
_atom_site_fract_z
Si Si1 0.787326 0.312368 0.389181
Si Si2 0.389720 0.389720 0.385146
Si Si3 0.235982 0.235982 0.615459
Si Si4 0.237331 0.085375 0.387873
Si Si5 0.088605 0.589803 0.108979
Si Si6 0.358106 0.521802 0.304857
Si Si7 0.911207 0.341457 0.103735
Si Si8 0.294933 0.912980 0.303609
O O1 0.764143 0.319486 0.500000
O O2 0.800107 0.386315 0.326636
O O3 0.725468 0.229294 0.342903
O O4 0.867515 0.310846 0.388906
O O5 0.385801 0.385801 0.500000
O O6 0.312557 0.312557 0.342525
O O7 0.389416 0.468471 0.354801
O O8 0.238868 0.238868 0.500000
O O9 0.227685 0.155481 0.653415
O O10 0.264918 0.100010 0.500000
O O11 0.302710 0.085837 0.321305
O O12 0.158738 0.000000 0.377597
O O13 0.149821 0.647666 0.189383
O O14 0.091525 0.511337 0.115745
O O15 0.000000 0.570239 0.132440
O O16 0.112796 0.626268 0.000000
O O17 0.871421 0.287373 0.198233
O O18 0.000000 0.360526 0.099386
O O19 0.870699 0.300636 0.000000
O O20 0.369263 0.000000 0.303440
#
# Coordination Sequence:
#
# PCOD8327637 Si02
#       8
#    12   6   6  12  12  12  12  12
#     4  12  25  38  53  75 114 153 187 237 292 335
#     4  11  22  36  59  81 105 148 213 254 276 357
#     4   9  18  34  52  73 107 144 186 236 275 317
#     4   9  17  30  48  74 108 143 178 220 276 334
#     4   9  17  35  62  87 110 140 184 244 300 347
#     4  12  24  41  57  82 112 154 201 239 300 360
#     4   8  14  27  50  80 107 131 166 218 276 326
#     4  10  19  32  53  80 106 135 176 223 275 324
#
# _framework density 18.038920999999998
#
# number of rings (size 3 to 8) (size 9 to 14) (size 15 to 20)
#    0.000    2.000    2.143    3.714    1.000    2.000 
#    0.429    1.429    0.000    0.000    0.000    0.500 
#    0.000    0.000    0.000    0.000    0.143    0.000 
#
# Total GULP energy -1040738.412461 kJ/mol
# GULP energy per Si atom -12389.743005 kJ/mol
# Density = 1.799786 g / cm^3
# Si number density = 18.038921 Si / 1000 Ang^3
#
#
#
# Elastic Constant Matrix: (Units=GPa)
#
#
# Indices 1 2 3 4 5 6 
#
# 1 73.8650 24.8968 26.9126 0.0000 0.0000 0.0000
# 2 24.8968 73.8650 26.9126 0.0000 0.0000 0.0000
# 3 26.9126 26.9126 103.1760 0.0000 0.0000 0.0000
# 4 0.0000 0.0000 0.0000 20.2126 0.0000 0.0000
# 5 0.0000 0.0000 0.0000 0.0000 20.2126 0.0000
# 6 0.0000 0.0000 0.0000 0.0000 0.0000 24.4841
#
#
#
# Elastic Compliance Matrix: (Units=1/GPa)
#
#
# Indices 1 2 3 4 5 6 
#
# 1 0.016112 -0.004309 -0.003079 0.000000 0.000000 0.000000
# 2 -0.004309 0.016112 -0.003079 0.000000 0.000000 0.000000
# 3 -0.003079 -0.003079 0.011298 0.000000 0.000000 0.000000
# 4 0.000000 0.000000 0.000000 0.049474 0.000000 0.000000
# 5 0.000000 0.000000 0.000000 0.000000 0.049474 0.000000
# 6 0.000000 0.000000 0.000000 0.000000 0.000000 0.040843
#
#
# Mechanical properties :
#
#
# Convention : Reuss Voigt Hill
#
# Bulk Modulus (GPa) = 44.26779 45.37220 44.81999
# Shear Modulus (GPa) = 23.60974 24.46082 24.03528
#
# Velocity S-wave (km/s) = 3.62169 3.68639 3.65418
# Velocity P-wave (km/s) = 6.48709 6.58227 6.53485
#
# Compressibility (1/GPa) = 0.02258979
#
# Stress axis : x y z
#
# Youngs Moduli (GPa) = 62.06419 62.06419 88.50862
#
# Poissons Ratio (x) = 0.26744 0.27250
# Poissons Ratio (y) = 0.26744 0.27250
# Poissons Ratio (z) = 0.19108 0.19108
#
# Static dielectric constant tensor:
#      x y z
#    x 3.354650 0.000000 0.000000 
#    y 0.000000 3.354650 0.000000 
#    z 0.000000 0.000000 3.587060 
# 
# 
# High freq. dielectric constant tensor:
#      x y z
#    x 1.682960 0.000000 0.000000 
#    y 0.000000 1.682960 0.000000 
#    z 0.000000 0.000000 1.695180 
# 
# From -- ./inp_files/2841.got.cif
#   From: 2010.03.12/outbox.cif.g09.slc.cpg/sg189_2_cif.got.tgz:2841.got - 2010.04.01 12:03:36.
