data_PCOD8327789
_publ_section_title
;
Structure prediction by ZEFSAII (Michael W. Deem and Ramdas Pophale) SiO2 
 PCOD8327789
Probable space group: P -6 2 M
;
_chemical_formula_sum "Si O2"
_cell_formula_units_Z 72
_cell_length_a 23.244973
_cell_length_b 23.244973
_cell_length_c 9.064103
_cell_angle_alpha 90.000000
_cell_angle_beta 90.000000
_cell_angle_gamma 120.000000
_cell_volume 4241.442227
_symmetry_space_group_name_H-M "P -6 2 M"
_symmetry_group_IT_number 189
_symmetry_cell_setting 'hexagonal'
loop_
_space_group_symop_operation_xyz
x,y,z
-x+y,-x,-z
-y,x-y,z
x,y,-z
-x+y,-x,z
-y,x-y,-z
x-y,-y,-z
-x,-x+y,-z
y,x,-z
y,x,z
x-y,-y,z
-x,-x+y,z
loop_
_atom_site_type_symbol
_atom_site_label
_atom_site_fract_x
_atom_site_fract_y
_atom_site_fract_z
Si Si1 0.734906 0.215557 0.832164
Si Si2 0.543174 0.414684 0.169278
Si Si3 0.340144 0.075092 0.827717
Si Si4 0.000000 0.594440 0.170368
Si Si5 0.801796 0.130247 0.169304
Si Si6 0.715363 0.000000 0.325876
Si Si7 0.522937 0.670411 0.673737
O O1 0.658192 0.191432 0.802163
O O2 0.748849 0.155001 0.804942
O O3 0.778366 0.276381 0.724444
O O4 0.754844 0.240828 0.000000
O O5 0.475368 0.412308 0.208569
O O6 0.598141 0.466375 0.278002
O O7 0.563896 0.436550 0.000000
O O8 0.313470 0.124841 0.781855
O O9 0.407238 0.092958 0.742342
O O10 0.283931 0.000000 0.789080
O O11 0.358267 0.084080 0.000000
O O12 0.000000 0.650201 0.271231
O O13 0.000000 0.614806 0.000000
O O14 0.781127 0.065567 0.268010
O O15 0.801680 0.110230 0.000000
O O16 0.717105 0.000000 0.500000
O O17 0.529985 0.672790 0.500000
#
# Coordination Sequence:
#
# PCOD8327789 Si02
#       7
#    12  12  12   6  12   6  12
#     4   9  18  36  58  73  90 126 174 218 259 305
#     4  10  20  36  57  76  96 129 176 221 260 308
#     4   9  19  37  59  78  99 135 179 215 248 292
#     4  10  20  36  56  76  98 130 172 217 260 303
#     4   9  17  33  55  77 102 132 169 207 247 294
#     4  12  22  30  48  80 114 142 164 195 248 311
#     4  11  23  35  50  75 107 135 164 209 266 321
#
# _framework density 16.975359000000001
#
# number of rings (size 3 to 8) (size 9 to 14) (size 15 to 20)
#    0.000    2.167    1.667    3.250    1.167    4.333 
#    1.000    0.000    0.000    0.000    0.000    0.000 
#    0.833    0.000    1.500    0.000    0.500    0.000 
#
# Total GULP energy -892906.934449 kJ/mol
# GULP energy per Si atom -12401.485201 kJ/mol
# Density = 1.693672 g / cm^3
# Si number density = 16.975359 Si / 1000 Ang^3
#
#
#
# Elastic Constant Matrix: (Units=GPa)
#
#
# Indices 1 2 3 4 5 6 
#
# 1 94.6469 66.3118 52.9391 0.0000 0.0000 0.0000
# 2 66.3118 94.6469 52.9391 0.0000 0.0000 0.0000
# 3 52.9391 52.9391 94.5424 0.0000 0.0000 0.0000
# 4 0.0000 0.0000 0.0000 11.1793 0.0000 0.0000
# 5 0.0000 0.0000 0.0000 0.0000 11.1793 0.0000
# 6 0.0000 0.0000 0.0000 0.0000 0.0000 14.1675
#
#
#
# Elastic Compliance Matrix: (Units=1/GPa)
#
#
# Indices 1 2 3 4 5 6 
#
# 1 0.022564 -0.012728 -0.005507 0.000000 0.000000 0.000000
# 2 -0.012728 0.022564 -0.005507 0.000000 0.000000 0.000000
# 3 -0.005507 -0.005507 0.016745 0.000000 0.000000 0.000000
# 4 0.000000 0.000000 0.000000 0.089451 0.000000 0.000000
# 5 0.000000 0.000000 0.000000 0.000000 0.089451 0.000000
# 6 0.000000 0.000000 0.000000 0.000000 0.000000 0.070584
#
#
# Mechanical properties :
#
#
# Convention : Reuss Voigt Hill
#
# Bulk Modulus (GPa) = 69.50990 69.80178 69.65584
# Shear Modulus (GPa) = 13.74985 14.74830 14.24908
#
# Velocity S-wave (km/s) = 2.84912 2.95075 2.90038
# Velocity P-wave (km/s) = 7.20137 7.26760 7.23456
#
# Compressibility (1/GPa) = 0.01438644
#
# Stress axis : x y z
#
# Youngs Moduli (GPa) = 44.31885 44.31885 59.71923
#
# Poissons Ratio (x) = 0.56410 0.32890
# Poissons Ratio (y) = 0.56410 0.32890
# Poissons Ratio (z) = 0.24408 0.24408
#
# Static dielectric constant tensor:
#      x y z
#    x 3.187810 0.000000 0.000000 
#    y 0.000000 3.187810 0.000000 
#    z 0.000000 0.000000 3.046200 
# 
# 
# High freq. dielectric constant tensor:
#      x y z
#    x 1.644780 0.000000 0.000000 
#    y 0.000000 1.644780 0.000000 
#    z 0.000000 0.000000 1.645390 
# 
# From -- ./inp_files/1305.got.cif
#   From: 2010.03.12/outbox.cif.g09.slc.cpg/sg189_1_cif.got.tgz:1305.got - 2010.04.01 12:03:36.
