data_PCOD8327190
_publ_section_title
;
Structure prediction by ZEFSAII (Michael W. Deem and Ramdas Pophale) SiO2 
 PCOD8327190
Probable space group: P -6 M 2
;
_chemical_formula_sum "Si O2"
_cell_formula_units_Z 84
_cell_length_a 17.891203
_cell_length_b 17.891203
_cell_length_c 18.241259
_cell_angle_alpha 90.000000
_cell_angle_beta 90.000000
_cell_angle_gamma 120.000000
_cell_volume 5056.669021
_symmetry_space_group_name_H-M "P -6 M 2"
_symmetry_group_IT_number 187
_symmetry_cell_setting 'hexagonal'
loop_
_space_group_symop_operation_xyz
x,y,z
-x+y,-x,-z
-y,x-y,z
x,y,-z
-x+y,-x,z
-y,x-y,-z
-y,-x,-z
-x+y,y,-z
x,x-y,-z
-x+y,y,z
x,x-y,z
-y,-x,z
loop_
_atom_site_type_symbol
_atom_site_label
_atom_site_fract_x
_atom_site_fract_y
_atom_site_fract_z
Si Si1 0.492730 0.333199 0.146767
Si Si2 0.164251 0.666446 0.087276
Si Si3 0.327610 0.325340 0.085279
Si Si4 0.918232 0.259650 0.417455
Si Si5 0.839532 0.505880 0.684206
Si Si6 0.170906 0.999305 0.660326
Si Si7 0.172111 0.172280 0.168525
O O1 0.499195 0.249598 0.126678
O O2 0.584137 0.415864 0.128261
O O3 0.420644 0.335152 0.096825
O O4 0.467429 0.332250 0.231551
O O5 0.160545 0.580273 0.118658
O O6 0.250429 0.749571 0.117184
O O7 0.081550 0.670869 0.116015
O O8 0.164680 0.664446 0.000000
O O9 0.255706 0.241969 0.126349
O O10 0.304436 0.313202 0.000000
O O11 0.942156 0.295692 0.500000
O O12 0.829423 0.170578 0.414790
O O13 0.910059 0.328627 0.366843
O O14 0.992916 0.244332 0.384996
O O15 0.743939 0.487877 0.668074
O O16 0.840939 0.420470 0.663071
O O17 0.152956 0.076478 0.641549
O O18 0.190340 0.998814 0.745837
O O19 0.088293 0.911708 0.634809
O O20 0.088731 0.177461 0.143327
O O21 0.155138 0.077569 0.148945
#
# Coordination Sequence:
#
# PCOD8327190 Si02
#       7
#    12  12  12  12  12  12  12
#     4  10  20  34  51  69  90 119 157 199 240 283
#     4   9  17  30  48  68  89 113 142 178 222 274
#     4  11  22  34  48  68  94 122 152 190 240 297
#     4   9  17  28  42  64  95 125 150 180 220 264
#     4   9  17  30  48  68  90 119 156 194 230 270
#     4   9  17  30  48  68  90 119 156 194 230 270
#     4  10  20  34  51  69  90 119 157 199 240 283
#
# _framework density 16.611725
#
# number of rings (size 3 to 8) (size 9 to 14) (size 15 to 20)
#    0.000    2.429    0.000    2.857    0.000    8.571 
#    0.000    0.000    0.000    3.429    0.000    0.000 
#    0.000    0.000    0.000    0.429    0.000    1.857 
#
# Total GULP energy -1041763.347086 kJ/mol
# GULP energy per Si atom -12401.944608 kJ/mol
# Density = 1.657392 g / cm^3
# Si number density = 16.611725 Si / 1000 Ang^3
#
#
#
# Elastic Constant Matrix: (Units=GPa)
#
#
# Indices 1 2 3 4 5 6 
#
# 1 89.4774 23.9336 16.5332 0.0000 0.0000 0.0000
# 2 23.9336 89.4774 16.5332 0.0000 0.0000 0.0000
# 3 16.5332 16.5332 28.3554 0.0000 0.0000 0.0000
# 4 0.0000 0.0000 0.0000 19.7957 0.0000 0.0000
# 5 0.0000 0.0000 0.0000 0.0000 19.7957 0.0000
# 6 0.0000 0.0000 0.0000 0.0000 0.0000 32.7719
#
#
#
# Elastic Compliance Matrix: (Units=1/GPa)
#
#
# Indices 1 2 3 4 5 6 
#
# 1 0.012940 -0.002317 -0.006194 0.000000 0.000000 0.000000
# 2 -0.002317 0.012940 -0.006194 0.000000 0.000000 0.000000
# 3 -0.006194 -0.006194 0.042490 0.000000 0.000000 0.000000
# 4 0.000000 0.000000 0.000000 0.050516 0.000000 0.000000
# 5 0.000000 0.000000 0.000000 0.000000 0.050516 0.000000
# 6 0.000000 0.000000 0.000000 0.000000 0.000000 0.030514
#
#
# Mechanical properties :
#
#
# Convention : Reuss Voigt Hill
#
# Bulk Modulus (GPa) = 25.66732 35.70113 30.68422
# Shear Modulus (GPa) = 20.63443 24.49335 22.56389
#
# Velocity S-wave (km/s) = 3.52825 3.84404 3.68953
# Velocity P-wave (km/s) = 5.66418 6.42186 6.05489
#
# Compressibility (1/GPa) = 0.03896005
#
# Stress axis : x y z
#
# Youngs Moduli (GPa) = 77.27837 77.27837 23.53494
#
# Poissons Ratio (x) = 0.17903 0.14578
# Poissons Ratio (y) = 0.17903 0.14578
# Poissons Ratio (z) = 0.47868 0.47868
#
# Static dielectric constant tensor:
#      x y z
#    x 3.165740 0.000000 0.000000 
#    y 0.000000 3.165740 0.000000 
#    z 0.000000 0.000000 2.989940 
# 
# 
# High freq. dielectric constant tensor:
#      x y z
#    x 1.639200 0.000000 0.000000 
#    y 0.000000 1.639200 0.000000 
#    z 0.000000 0.000000 1.617390 
# 
# From -- ./inp_files/2588.got.cif
#   From: 2010.03.12/outbox.cif.g09.slc.cpg/sg187_2_cif.got.tgz:2588.got - 2010.04.01 11:58:23.
