data_PCOD8327731
_publ_section_title
;
Structure prediction by ZEFSAII (Michael W. Deem and Ramdas Pophale) SiO2 
 PCOD8327731
Probable space group: P -6 2 M
;
_chemical_formula_sum "Si O2"
_cell_formula_units_Z 48
_cell_length_a 12.867314
_cell_length_b 12.867314
_cell_length_c 18.266083
_cell_angle_alpha 90.000000
_cell_angle_beta 90.000000
_cell_angle_gamma 120.000000
_cell_volume 2619.098650
_symmetry_space_group_name_H-M "P -6 2 M"
_symmetry_group_IT_number 189
_symmetry_cell_setting 'hexagonal'
loop_
_space_group_symop_operation_xyz
x,y,z
-x+y,-x,-z
-y,x-y,z
x,y,-z
-x+y,-x,z
-y,x-y,-z
x-y,-y,-z
-x,-x+y,-z
y,x,-z
y,x,z
x-y,-y,z
-x,-x+y,z
loop_
_atom_site_type_symbol
_atom_site_label
_atom_site_fract_x
_atom_site_fract_y
_atom_site_fract_z
Si Si1 0.864633 0.334947 0.917795
Si Si2 0.727698 0.242299 0.675988
Si Si3 0.138706 0.680783 0.832946
Si Si4 0.862319 0.725160 0.586404
O O1 0.783449 0.196428 0.894874
O O2 0.839895 0.413853 0.859541
O O3 0.000000 0.363682 0.913555
O O4 0.833331 0.357334 0.000000
O O5 0.802458 0.387714 0.664379
O O6 0.740411 0.205635 0.757637
O O7 0.777084 0.182691 0.619760
O O8 0.000000 0.639518 0.825385
O O9 0.850236 0.708303 0.500000
O O10 0.783142 0.783142 0.614907
O O11 0.000000 0.813715 0.609307
#
# Coordination Sequence:
#
# PCOD8327731 Si02
#       4
#    12  12  12  12
#     4  10  20  33  51  77 108 142 184 234 286 340
#     4  10  21  38  57  84 118 155 187 233 296 353
#     4  11  20  35  56  80 110 148 187 229 284 344
#     4  10  22  40  62  87 116 154 199 246 293 347
#
# _framework density 18.326916000000001
#
# number of rings (size 3 to 8) (size 9 to 14) (size 15 to 20)
#    0.500    1.250    2.500    2.250    0.000    6.500 
#    0.000    2.500    0.000    0.500    0.000    0.000 
#    0.000    0.000    0.000    0.000    0.000    0.000 
#
# Total GULP energy -594945.429299 kJ/mol
# GULP energy per Si atom -12394.696444 kJ/mol
# Density = 1.828520 g / cm^3
# Si number density = 18.326916 Si / 1000 Ang^3
#
#
#
# Elastic Constant Matrix: (Units=GPa)
#
#
# Indices 1 2 3 4 5 6 
#
# 1 116.1676 52.6666 44.4325 0.0000 0.0000 0.0000
# 2 52.6666 116.1676 44.4325 0.0000 0.0000 0.0000
# 3 44.4325 44.4325 57.6658 0.0000 0.0000 0.0000
# 4 0.0000 0.0000 0.0000 23.8232 0.0000 0.0000
# 5 0.0000 0.0000 0.0000 0.0000 23.8232 0.0000
# 6 0.0000 0.0000 0.0000 0.0000 0.0000 31.7505
#
#
#
# Elastic Compliance Matrix: (Units=1/GPa)
#
#
# Indices 1 2 3 4 5 6 
#
# 1 0.012856 -0.002892 -0.007677 0.000000 0.000000 0.000000
# 2 -0.002892 0.012856 -0.007677 0.000000 0.000000 0.000000
# 3 -0.007677 -0.007677 0.029172 0.000000 0.000000 0.000000
# 4 0.000000 0.000000 0.000000 0.041976 0.000000 0.000000
# 5 0.000000 0.000000 0.000000 0.000000 0.041976 0.000000
# 6 0.000000 0.000000 0.000000 0.000000 0.000000 0.031496
#
#
# Mechanical properties :
#
#
# Convention : Reuss Voigt Hill
#
# Bulk Modulus (GPa) = 54.37516 63.67380 59.02448
# Shear Modulus (GPa) = 23.47915 25.77735 24.62825
#
# Velocity S-wave (km/s) = 3.58317 3.75444 3.66980
# Velocity P-wave (km/s) = 6.84491 7.32210 7.08752
#
# Compressibility (1/GPa) = 0.01839075
#
# Stress axis : x y z
#
# Youngs Moduli (GPa) = 77.78558 77.78558 34.27897
#
# Poissons Ratio (x) = 0.22495 0.26317
# Poissons Ratio (y) = 0.22495 0.26317
# Poissons Ratio (z) = 0.59719 0.59719
#
# Static dielectric constant tensor:
#      x y z
#    x 3.332020 0.000000 0.000000 
#    y 0.000000 3.332020 0.000000 
#    z 0.000000 0.000000 3.324140 
# 
# 
# High freq. dielectric constant tensor:
#      x y z
#    x 1.701730 0.000000 0.000000 
#    y 0.000000 1.701730 0.000000 
#    z 0.000000 0.000000 1.713070 
# 
# From -- ./inp_files/3329.got.cif
#   From: 2010.03.12/outbox.cif.g09.slc.cpg/sg189_2_cif.got.tgz:3329.got - 2010.04.01 12:03:36.
