data_PCOD8327439
_publ_section_title
;
Structure prediction by ZEFSAII (Michael W. Deem and Ramdas Pophale) SiO2 
 PCOD8327439
Probable space group: P -6 C 2
;
_chemical_formula_sum "Si O2"
_cell_formula_units_Z 48
_cell_length_a 13.027898
_cell_length_b 13.027898
_cell_length_c 17.550532
_cell_angle_alpha 90.000000
_cell_angle_beta 90.000000
_cell_angle_gamma 120.000000
_cell_volume 2579.702453
_symmetry_space_group_name_H-M "P -6 C 2"
_symmetry_group_IT_number 188
_symmetry_cell_setting 'hexagonal'
loop_
_space_group_symop_operation_xyz
x,y,z
-x+y,-x,1/2-z
-y,x-y,z
x,y,1/2-z
-x+y,-x,z
-y,x-y,1/2-z
-y,-x,-z
-x+y,y,-z
x,x-y,-z
-x+y,y,1/2+z
x,x-y,1/2+z
-y,-x,1/2+z
loop_
_atom_site_type_symbol
_atom_site_label
_atom_site_fract_x
_atom_site_fract_y
_atom_site_fract_z
Si Si1 0.639165 0.868258 0.422694
Si Si2 0.307406 1.000000 0.160409
Si Si3 0.360837 0.131744 0.922694
Si Si4 0.542194 1.000000 0.159277
O O1 0.585379 0.792690 0.500000
O O2 0.692282 0.808070 0.368729
O O3 0.746237 0.000001 0.444885
O O4 0.538918 0.882572 0.376122
O O5 0.302429 0.999999 0.250000
O O6 0.307721 0.115790 0.131272
O O7 0.425180 0.999999 0.131915
O O8 0.461083 0.117428 0.876122
O O9 0.414623 0.207312 0.000000
O O10 0.553605 0.000000 0.250000
#
# Coordination Sequence:
#
# PCOD8327439 Si02
#       4
#    12  12  12  12
#     4  10  21  38  60  88 121 154 201 245 293 358
#     4  11  21  39  63  85 120 163 194 250 306 342
#     4  10  21  38  60  88 121 154 201 245 293 358
#     4   9  21  39  60  88 118 151 205 251 291 357
#
# _framework density 18.606795999999999
#
# number of rings (size 3 to 8) (size 9 to 14) (size 15 to 20)
#    1.500    0.500    2.500    1.500    0.000    4.000 
#    4.500    1.250    0.000    0.000    0.000    0.000 
#    0.000    0.000    0.000    0.000    0.000    0.000 
#
# Total GULP energy -594845.798688 kJ/mol
# GULP energy per Si atom -12392.620806 kJ/mol
# Density = 1.856445 g / cm^3
# Si number density = 18.606796 Si / 1000 Ang^3
#
#
#
# Elastic Constant Matrix: (Units=GPa)
#
#
# Indices 1 2 3 4 5 6 
#
# 1 76.4920 27.6981 31.3847 0.0001 0.0000 0.0000
# 2 27.6981 76.4920 31.3847 -0.0001 0.0000 0.0000
# 3 31.3847 31.3847 93.2831 0.0000 0.0000 0.0000
# 4 0.0001 -0.0001 0.0000 31.9863 0.0000 0.0000
# 5 0.0000 0.0000 0.0000 0.0000 31.9863 0.0001
# 6 0.0000 0.0000 0.0000 0.0000 0.0001 24.3970
#
#
#
# Elastic Compliance Matrix: (Units=1/GPa)
#
#
# Indices 1 2 3 4 5 6 
#
# 1 0.016266 -0.004228 -0.004050 0.000000 0.000000 0.000000
# 2 -0.004228 0.016266 -0.004050 0.000000 0.000000 0.000000
# 3 -0.004050 -0.004050 0.013445 0.000000 0.000000 0.000000
# 4 0.000000 0.000000 0.000000 0.031263 0.000000 0.000000
# 5 0.000000 0.000000 0.000000 0.000000 0.031263 0.000000
# 6 0.000000 0.000000 0.000000 0.000000 0.000000 0.040989
#
#
# Mechanical properties :
#
#
# Convention : Reuss Voigt Hill
#
# Bulk Modulus (GPa) = 46.90287 47.46688 47.18488
# Shear Modulus (GPa) = 27.58519 28.06055 27.82287
#
# Velocity S-wave (km/s) = 3.85454 3.88761 3.87111
# Velocity P-wave (km/s) = 6.71358 6.76146 6.73756
#
# Compressibility (1/GPa) = 0.02132066
#
# Stress axis : x y z
#
# Youngs Moduli (GPa) = 61.47766 61.47766 74.37541
#
# Poissons Ratio (x) = 0.25994 0.30122
# Poissons Ratio (y) = 0.25994 0.30122
# Poissons Ratio (z) = 0.24899 0.24899
#
# Static dielectric constant tensor:
#      x y z
#    x 3.223980 0.000000 0.000000 
#    y 0.000000 3.223980 0.000000 
#    z 0.000000 0.000000 3.471820 
# 
# 
# High freq. dielectric constant tensor:
#      x y z
#    x 1.707020 0.000000 0.000000 
#    y 0.000000 1.707020 0.000000 
#    z 0.000000 0.000000 1.743180 
# 
# From -- ./inp_files/2084.got.cif
#   From: 2010.03.12/outbox.cif.g09.slc.cpg/sg188_2_cif.got.tgz:2084.got - 2010.04.01 12:01:06.
