data_PCOD8327570
_publ_section_title
;
Structure prediction by ZEFSAII (Michael W. Deem and Ramdas Pophale) SiO2 
 PCOD8327570
Probable space group: P -6 2 M
;
_chemical_formula_sum "Si O2"
_cell_formula_units_Z 72
_cell_length_a 23.975289
_cell_length_b 23.975289
_cell_length_c 9.249931
_cell_angle_alpha 90.000000
_cell_angle_beta 90.000000
_cell_angle_gamma 120.000000
_cell_volume 4604.652137
_symmetry_space_group_name_H-M "P -6 2 M"
_symmetry_group_IT_number 189
_symmetry_cell_setting 'hexagonal'
loop_
_space_group_symop_operation_xyz
x,y,z
-x+y,-x,-z
-y,x-y,z
x,y,-z
-x+y,-x,z
-y,x-y,-z
x-y,-y,-z
-x,-x+y,-z
y,x,-z
y,x,z
x-y,-y,z
-x,-x+y,z
loop_
_atom_site_type_symbol
_atom_site_label
_atom_site_fract_x
_atom_site_fract_y
_atom_site_fract_z
Si Si1 0.175991 0.810156 0.340482
Si Si2 0.927587 0.628677 0.830159
Si Si3 0.376159 0.073343 0.669270
Si Si4 0.847004 0.482137 0.834609
Si Si5 0.740348 0.258867 0.338142
Si Si6 0.493936 0.639228 0.832658
O O1 0.150093 0.812479 0.500000
O O2 0.114776 0.772746 0.236096
O O3 0.227373 0.882514 0.285488
O O4 0.215428 0.773111 0.344335
O O5 0.899886 0.554220 0.785793
O O6 0.000000 0.668933 0.768887
O O7 0.926696 0.636738 0.000000
O O8 0.395080 0.084425 0.500000
O O9 0.440632 0.091971 0.758030
O O10 0.323515 0.000000 0.703769
O O11 0.782562 0.453754 0.738030
O O12 0.877951 0.436387 0.816658
O O13 0.826563 0.483045 0.000000
O O14 0.731254 0.278647 0.500000
O O15 0.785234 0.321719 0.243761
O O16 0.507997 0.660131 0.000000
#
# Coordination Sequence:
#
# PCOD8327570 Si02
#       6
#    12  12  12  12  12  12
#     4   8  15  28  45  63  83 108 137 171 208 249
#     4   9  17  29  45  64  86 113 143 173 210 257
#     4   9  18  32  48  66  89 117 148 181 219 263
#     4   9  18  31  45  61  83 111 142 182 227 270
#     4   9  17  30  46  60  77 105 141 178 220 271
#     4  10  19  30  45  64  86 111 142 185 232 276
#
# _framework density 15.63636
#
# number of rings (size 3 to 8) (size 9 to 14) (size 15 to 20)
#    0.000    3.000    0.000    2.000    0.000    6.667 
#    1.000    1.667    0.000    0.000    0.000    0.000 
#    0.000    0.000    0.000    0.500    0.000    7.667 
#
# Total GULP energy -892460.325992 kJ/mol
# GULP energy per Si atom -12395.282305 kJ/mol
# Density = 1.560077 g / cm^3
# Si number density = 15.636360 Si / 1000 Ang^3
#
#
#
# Elastic Constant Matrix: (Units=GPa)
#
#
# Indices 1 2 3 4 5 6 
#
# 1 84.0269 52.9548 39.2355 0.0000 0.0000 0.0000
# 2 52.9548 84.0269 39.2355 0.0000 0.0000 0.0000
# 3 39.2355 39.2355 72.1377 0.0000 0.0000 0.0000
# 4 0.0000 0.0000 0.0000 21.4425 0.0000 0.0000
# 5 0.0000 0.0000 0.0000 0.0000 21.4425 0.0000
# 6 0.0000 0.0000 0.0000 0.0000 0.0000 15.5361
#
#
#
# Elastic Compliance Matrix: (Units=1/GPa)
#
#
# Indices 1 2 3 4 5 6 
#
# 1 0.021394 -0.010789 -0.005768 0.000000 0.000000 0.000000
# 2 -0.010789 0.021394 -0.005768 0.000000 0.000000 0.000000
# 3 -0.005768 -0.005768 0.020136 0.000000 0.000000 0.000000
# 4 0.000000 0.000000 0.000000 0.046636 0.000000 0.000000
# 5 0.000000 0.000000 0.000000 0.000000 0.046636 0.000000
# 6 0.000000 0.000000 0.000000 0.000000 0.000000 0.064366
#
#
# Mechanical properties :
#
#
# Convention : Reuss Voigt Hill
#
# Bulk Modulus (GPa) = 54.72142 55.89370 55.30756
# Shear Modulus (GPa) = 18.42950 18.93524 18.68237
#
# Velocity S-wave (km/s) = 3.43684 3.48368 3.46034
# Velocity P-wave (km/s) = 7.12892 7.21145 7.17030
#
# Compressibility (1/GPa) = 0.01827438
#
# Stress axis : x y z
#
# Youngs Moduli (GPa) = 46.74263 46.74263 49.66131
#
# Poissons Ratio (x) = 0.50433 0.28643
# Poissons Ratio (y) = 0.50433 0.28643
# Poissons Ratio (z) = 0.26960 0.26960
#
# Static dielectric constant tensor:
#      x y z
#    x 2.928940 0.000000 0.000000 
#    y 0.000000 2.928940 0.000000 
#    z 0.000000 0.000000 3.141180 
# 
# 
# High freq. dielectric constant tensor:
#      x y z
#    x 1.572340 0.000000 0.000000 
#    y 0.000000 1.572340 0.000000 
#    z 0.000000 0.000000 1.607320 
# 
# From -- ./inp_files/1237.got.cif
#   From: 2010.03.12/outbox.cif.g09.slc.cpg/sg189_1_cif.got.tgz:1237.got - 2010.04.01 12:03:36.
