data_PCOD8327850
_publ_section_title
;
Structure prediction by ZEFSAII (Michael W. Deem and Ramdas Pophale) SiO2 
 PCOD8327850
Probable space group: P -6 2 M
;
_chemical_formula_sum "Si O2"
_cell_formula_units_Z 46
_cell_length_a 14.509571
_cell_length_b 14.509571
_cell_length_c 12.797293
_cell_angle_alpha 90.000000
_cell_angle_beta 90.000000
_cell_angle_gamma 120.000000
_cell_volume 2333.231812
_symmetry_space_group_name_H-M "P -6 2 M"
_symmetry_group_IT_number 189
_symmetry_cell_setting 'hexagonal'
loop_
_space_group_symop_operation_xyz
x,y,z
-x+y,-x,-z
-y,x-y,z
x,y,-z
-x+y,-x,z
-y,x-y,-z
x-y,-y,-z
-x,-x+y,-z
y,x,-z
y,x,z
x-y,-y,z
-x,-x+y,z
loop_
_atom_site_type_symbol
_atom_site_label
_atom_site_fract_x
_atom_site_fract_y
_atom_site_fract_z
Si Si1 0.588106 0.709534 0.386093
Si Si2 0.333334 0.666668 0.880121
Si Si3 0.117475 0.553534 0.219517
Si Si4 0.127191 0.253040 0.000000
Si Si5 0.118822 0.772287 0.214749
O O1 0.560735 0.740703 0.500000
O O2 0.669699 0.669699 0.406508
O O3 0.479136 0.615547 0.334959
O O4 0.650694 0.808650 0.309094
O O5 0.349482 0.781474 0.846149
O O6 0.333334 0.666668 0.000000
O O7 0.119565 0.663208 0.217850
O O8 0.000000 0.461431 0.177263
O O9 0.169626 0.328737 0.897494
O O10 0.170607 0.170607 0.000000
O O11 0.000000 0.187711 0.000000
O O12 0.000000 0.750179 0.235335
#
# Coordination Sequence:
#
# PCOD8327850 Si02
#       5
#    12   4  12   6  12
#     4  10  21  38  59  83 115 156 201 249 303 364
#     4  12  24  39  61  89 118 156 204 241 296 364
#     4  10  22  40  57  82 118 152 195 245 297 356
#     4  10  21  38  62  90 124 162 203 250 306 372
#     4  10  21  37  59  89 119 154 199 248 303 360
#
# _framework density 19.715143999999999
#
# number of rings (size 3 to 8) (size 9 to 14) (size 15 to 20)
#    0.000    1.826    2.609    0.913    1.826    2.087 
#    0.000    2.609    0.000    0.522    0.000    0.000 
#    0.000    0.000    0.000    0.000    0.000    0.000 
#
# Total GULP energy -569882.728601 kJ/mol
# GULP energy per Si atom -12388.754970 kJ/mol
# Density = 1.967027 g / cm^3
# Si number density = 19.715144 Si / 1000 Ang^3
#
#
#
# Elastic Constant Matrix: (Units=GPa)
#
#
# Indices 1 2 3 4 5 6 
#
# 1 106.1925 24.3682 72.4069 -0.0004 0.0003 -0.0004
# 2 24.3682 106.1922 72.4068 0.0003 -0.0003 0.0003
# 3 72.4069 72.4068 197.7984 -0.0006 -0.0003 -0.0003
# 4 -0.0004 0.0003 -0.0006 8.4316 0.0001 0.0003
# 5 0.0003 -0.0003 -0.0003 0.0001 8.4333 0.0003
# 6 -0.0004 0.0003 -0.0003 0.0003 0.0003 40.9132
#
#
#
# Elastic Compliance Matrix: (Units=1/GPa)
#
#
# Indices 1 2 3 4 5 6 
#
# 1 0.012558 0.000337 -0.004720 0.000000 -0.000001 0.000000
# 2 0.000337 0.012558 -0.004720 -0.000001 0.000000 0.000000
# 3 -0.004720 -0.004720 0.008512 0.000001 0.000000 0.000000
# 4 0.000000 -0.000001 0.000001 0.118601 -0.000002 -0.000001
# 5 -0.000001 0.000000 0.000000 -0.000002 0.118577 -0.000001
# 6 0.000000 0.000000 0.000000 -0.000001 -0.000001 0.024442
#
#
# Mechanical properties :
#
#
# Convention : Reuss Voigt Hill
#
# Bulk Modulus (GPa) = 64.85083 83.17187 74.01135
# Shear Modulus (GPa) = 15.69387 27.62238 21.65813
#
# Velocity S-wave (km/s) = 2.82446 3.74715 3.31804
# Velocity P-wave (km/s) = 6.60319 7.81024 7.23194
#
# Compressibility (1/GPa) = 0.01542000
#
# Stress axis : x y z
#
# Youngs Moduli (GPa) = 79.62957 79.62933 117.48695
#
# Poissons Ratio (x) = -0.02682 0.55458
# Poissons Ratio (y) = -0.02682 0.55459
# Poissons Ratio (z) = 0.37588 0.37588
#
# Static dielectric constant tensor:
#      x y z
#    x 3.904610 0.000010 0.000020 
#    y 0.000010 3.904620 0.000000 
#    z 0.000020 0.000000 5.389850 
# 
# 
# High freq. dielectric constant tensor:
#      x y z
#    x 1.772330 0.000000 0.000000 
#    y 0.000000 1.772330 0.000000 
#    z 0.000000 0.000000 1.762380 
# 
# From -- ./inp_files/1696.got.cif
#   From: 2010.03.12/outbox.cif.g09.slc.cpg/sg189_1_cif.got.tgz:1696.got - 2010.04.01 12:03:36.
