data_PCOD8327546
_publ_section_title
;
Structure prediction by ZEFSAII (Michael W. Deem and Ramdas Pophale) SiO2 
 PCOD8327546
Probable space group: P -6 2 M
;
_chemical_formula_sum "Si O2"
_cell_formula_units_Z 96
_cell_length_a 17.846682
_cell_length_b 17.846682
_cell_length_c 19.795801
_cell_angle_alpha 90.000000
_cell_angle_beta 90.000000
_cell_angle_gamma 120.000000
_cell_volume 5460.327374
_symmetry_space_group_name_H-M "P -6 2 M"
_symmetry_group_IT_number 189
_symmetry_cell_setting 'hexagonal'
loop_
_space_group_symop_operation_xyz
x,y,z
-x+y,-x,-z
-y,x-y,z
x,y,-z
-x+y,-x,z
-y,x-y,-z
x-y,-y,-z
-x,-x+y,-z
y,x,-z
y,x,z
x-y,-y,z
-x,-x+y,z
loop_
_atom_site_type_symbol
_atom_site_label
_atom_site_fract_x
_atom_site_fract_y
_atom_site_fract_z
Si Si1 0.898288 0.286089 0.423892
Si Si2 0.898987 0.097341 0.788047
Si Si3 0.558138 0.102705 0.573182
Si Si4 0.838239 0.735731 0.926415
Si Si5 0.102463 0.487106 0.213953
Si Si6 0.432541 0.102822 0.073367
Si Si7 0.794785 0.625805 0.711907
Si Si8 0.102526 0.632661 0.707227
O O1 0.878331 0.246871 0.500000
O O2 0.864849 0.354537 0.415995
O O3 0.847516 0.210960 0.368827
O O4 0.000000 0.331521 0.408706
O O5 0.865543 0.094306 0.864920
O O6 0.884178 0.163705 0.743886
O O7 0.000000 0.127500 0.786414
O O8 0.845203 0.000000 0.759027
O O9 0.604552 0.135139 0.500000
O O10 0.629075 0.137197 0.632260
O O11 0.504720 0.000000 0.574913
O O12 0.782531 0.782531 0.923929
O O13 0.772567 0.633329 0.916768
O O14 0.885123 0.752491 0.000000
O O15 0.136001 0.498968 0.136263
O O16 0.139241 0.438465 0.258733
O O17 0.133517 0.582479 0.242313
O O18 0.000000 0.428946 0.218707
O O19 0.379172 0.000000 0.074130
O O20 0.480115 0.134452 0.000000
O O21 0.855782 0.586673 0.729826
O O22 0.000000 0.591054 0.709063
#
# Coordination Sequence:
#
# PCOD8327546 Si02
#       8
#    12  12  12  12  12  12  12  12
#     4   9  17  31  54  81 104 129 170 219 263 316
#     4  11  22  35  52  75 107 146 188 232 278 328
#     4   8  14  28  50  72  96 128 160 191 239 305
#     4   8  14  26  46  74 104 131 165 213 268 327
#     4  10  18  33  55  76  99 134 174 212 259 316
#     4   8  13  24  48  79 101 121 164 219 261 304
#     4  12  21  33  53  79 106 140 178 223 268 320
#     4  10  21  34  48  72 106 138 170 211 259 310
#
# _framework density 17.581364000000001
#
# number of rings (size 3 to 8) (size 9 to 14) (size 15 to 20)
#    0.000    2.500    2.500    3.125    0.000    0.750 
#    0.750    0.000    0.000    3.375    0.000    1.750 
#    0.000    1.000    0.000    0.000    0.000    0.000 
#
# Total GULP energy -1189697.234055 kJ/mol
# GULP energy per Si atom -12392.679521 kJ/mol
# Density = 1.754135 g / cm^3
# Si number density = 17.581364 Si / 1000 Ang^3
#
#
#
# Elastic Constant Matrix: (Units=GPa)
#
#
# Indices 1 2 3 4 5 6 
#
# 1 52.5962 19.0865 27.8580 0.0000 0.0000 0.0000
# 2 19.0865 52.5962 27.8580 0.0000 0.0000 0.0000
# 3 27.8580 27.8580 114.5656 0.0000 0.0000 0.0000
# 4 0.0000 0.0000 0.0000 15.9687 0.0000 0.0000
# 5 0.0000 0.0000 0.0000 0.0000 15.9687 0.0000
# 6 0.0000 0.0000 0.0000 0.0000 0.0000 16.7548
#
#
#
# Elastic Compliance Matrix: (Units=1/GPa)
#
#
# Indices 1 2 3 4 5 6 
#
# 1 0.023522 -0.006320 -0.004183 0.000000 0.000000 0.000000
# 2 -0.006320 0.023522 -0.004183 0.000000 0.000000 0.000000
# 3 -0.004183 -0.004183 0.010763 0.000000 0.000000 0.000000
# 4 0.000000 0.000000 0.000000 0.062622 0.000000 0.000000
# 5 0.000000 0.000000 0.000000 0.000000 0.062622 0.000000
# 6 0.000000 0.000000 0.000000 0.000000 0.000000 0.059684
#
#
# Mechanical properties :
#
#
# Convention : Reuss Voigt Hill
#
# Bulk Modulus (GPa) = 35.16828 41.04034 38.10431
# Shear Modulus (GPa) = 17.75660 19.40215 18.57937
#
# Velocity S-wave (km/s) = 3.18145 3.32560 3.25432
# Velocity P-wave (km/s) = 5.79155 6.17575 5.98673
#
# Compressibility (1/GPa) = 0.02843471
#
# Stress axis : x y z
#
# Youngs Moduli (GPa) = 42.51377 42.51377 92.91266
#
# Poissons Ratio (x) = 0.26870 0.38863
# Poissons Ratio (y) = 0.26870 0.38863
# Poissons Ratio (z) = 0.17782 0.17782
#
# Static dielectric constant tensor:
#      x y z
#    x 2.929900 0.000000 0.000000 
#    y 0.000000 2.929900 0.000000 
#    z 0.000000 0.000000 3.871800 
# 
# 
# High freq. dielectric constant tensor:
#      x y z
#    x 1.644350 0.000000 0.000000 
#    y 0.000000 1.644350 0.000000 
#    z 0.000000 0.000000 1.698460 
# 
# From -- ./inp_files/3504.got.cif
#   From: 2010.03.12/outbox.cif.g09.slc.cpg/sg189_2_cif.got.tgz:3504.got - 2010.04.01 12:03:36.
