data_PCOD8327494
_publ_section_title
;
Structure prediction by ZEFSAII (Michael W. Deem and Ramdas Pophale) SiO2 
 PCOD8327494
Probable space group: P -6 2 M
;
_chemical_formula_sum "Si O2"
_cell_formula_units_Z 72
_cell_length_a 23.397019
_cell_length_b 23.397019
_cell_length_c 9.867706
_cell_angle_alpha 90.000000
_cell_angle_beta 90.000000
_cell_angle_gamma 120.000000
_cell_volume 4678.082632
_symmetry_space_group_name_H-M "P -6 2 M"
_symmetry_group_IT_number 189
_symmetry_cell_setting 'hexagonal'
loop_
_space_group_symop_operation_xyz
x,y,z
-x+y,-x,-z
-y,x-y,z
x,y,-z
-x+y,-x,z
-y,x-y,-z
x-y,-y,-z
-x,-x+y,-z
y,x,-z
y,x,z
x-y,-y,z
-x,-x+y,z
loop_
_atom_site_type_symbol
_atom_site_label
_atom_site_fract_x
_atom_site_fract_y
_atom_site_fract_z
Si Si1 0.149173 0.074509 0.839030
Si Si2 0.077974 0.717844 0.346604
Si Si3 0.584434 0.505635 0.849009
Si Si4 0.633940 0.706973 0.160890
Si Si5 0.589928 0.078466 0.650503
Si Si6 0.156551 0.300644 0.161202
O O1 0.112027 0.112027 0.781704
O O2 0.224909 0.113058 0.791491
O O3 0.113362 0.000000 0.780707
O O4 0.145648 0.072131 0.000000
O O5 0.100554 0.744742 0.500000
O O6 0.101399 0.665239 0.309755
O O7 0.108071 0.774169 0.235407
O O8 0.000000 0.683525 0.336273
O O9 0.543222 0.543222 0.851043
O O10 0.658275 0.557653 0.795372
O O11 0.550468 0.441393 0.752969
O O12 0.587158 0.480779 0.000000
O O13 0.680860 0.680860 0.222426
O O14 0.659981 0.780632 0.212673
O O15 0.638451 0.706278 0.000000
O O16 0.587453 0.103746 0.500000
O O17 0.547832 0.000000 0.654618
O O18 0.168343 0.305797 0.000000
#
# Coordination Sequence:
#
# PCOD8327494 Si02
#       6
#    12  12  12  12  12  12
#     4   9  16  25  38  57  80 106 141 189 239 276
#     4   9  18  31  43  56  81 115 141 166 211 263
#     4   8  13  22  38  59  81 105 131 156 186 229
#     4   8  14  25  40  59  86 116 139 164 207 257
#     4   8  14  25  40  57  78 104 131 157 189 232
#     4  10  18  27  42  63  84 108 143 182 216 259
#
# _framework density 15.390919999999999
#
# number of rings (size 3 to 8) (size 9 to 14) (size 15 to 20)
#    0.000    3.333    0.000    3.167    0.000    4.333 
#    0.000    2.500    0.000    3.000    0.000    0.000 
#    1.667    1.333    1.000    0.000    1.333    0.000 
#
# Total GULP energy -892275.296404 kJ/mol
# GULP energy per Si atom -12392.712450 kJ/mol
# Density = 1.535589 g / cm^3
# Si number density = 15.390920 Si / 1000 Ang^3
#
#
#
# Elastic Constant Matrix: (Units=GPa)
#
#
# Indices 1 2 3 4 5 6 
#
# 1 96.3890 51.9022 41.6421 0.0000 0.0000 0.0000
# 2 51.9022 96.3890 41.6421 0.0000 0.0000 0.0000
# 3 41.6421 41.6421 50.5468 0.0000 0.0000 0.0000
# 4 0.0000 0.0000 0.0000 12.6074 0.0000 0.0000
# 5 0.0000 0.0000 0.0000 0.0000 12.6074 0.0000
# 6 0.0000 0.0000 0.0000 0.0000 0.0000 22.2434
#
#
#
# Elastic Compliance Matrix: (Units=1/GPa)
#
#
# Indices 1 2 3 4 5 6 
#
# 1 0.017514 -0.004964 -0.010339 0.000000 0.000000 0.000000
# 2 -0.004964 0.017514 -0.010339 0.000000 0.000000 0.000000
# 3 -0.010339 -0.010339 0.036820 0.000000 0.000000 0.000000
# 4 0.000000 0.000000 0.000000 0.079318 0.000000 0.000000
# 5 0.000000 0.000000 0.000000 0.000000 0.079318 0.000000
# 6 0.000000 0.000000 0.000000 0.000000 0.000000 0.044957
#
#
# Mechanical properties :
#
#
# Convention : Reuss Voigt Hill
#
# Bulk Modulus (GPa) = 48.63188 57.07754 52.85471
# Shear Modulus (GPa) = 14.98879 16.70087 15.84483
#
# Velocity S-wave (km/s) = 3.12408 3.29768 3.21205
# Velocity P-wave (km/s) = 6.68427 7.18786 6.94063
#
# Compressibility (1/GPa) = 0.02056264
#
# Stress axis : x y z
#
# Youngs Moduli (GPa) = 57.09559 57.09559 27.15944
#
# Poissons Ratio (x) = 0.28343 0.28081
# Poissons Ratio (y) = 0.28343 0.28081
# Poissons Ratio (z) = 0.59034 0.59034
#
# Static dielectric constant tensor:
#      x y z
#    x 3.024260 0.000000 0.000000 
#    y 0.000000 3.024260 0.000000 
#    z 0.000000 0.000000 2.799620 
# 
# 
# High freq. dielectric constant tensor:
#      x y z
#    x 1.575380 0.000000 0.000000 
#    y 0.000000 1.575380 0.000000 
#    z 0.000000 0.000000 1.559090 
# 
# From -- ./inp_files/1270.got.cif
#   From: 2010.03.12/outbox.cif.g09.slc.cpg/sg189_1_cif.got.tgz:1270.got - 2010.04.01 12:03:36.
