data_PCOD8327813
_publ_section_title
;
Structure prediction by ZEFSAII (Michael W. Deem and Ramdas Pophale) SiO2 
 PCOD8327813
Probable space group: P -6 2 M
;
_chemical_formula_sum "Si O2"
_cell_formula_units_Z 30
_cell_length_a 15.732733
_cell_length_b 15.732733
_cell_length_c 7.655902
_cell_angle_alpha 90.000000
_cell_angle_beta 90.000000
_cell_angle_gamma 120.000000
_cell_volume 1641.101120
_symmetry_space_group_name_H-M "P -6 2 M"
_symmetry_group_IT_number 189
_symmetry_cell_setting 'hexagonal'
loop_
_space_group_symop_operation_xyz
x,y,z
-x+y,-x,-z
-y,x-y,z
x,y,-z
-x+y,-x,z
-y,x-y,-z
x-y,-y,-z
-x,-x+y,-z
y,x,-z
y,x,z
x-y,-y,z
-x,-x+y,z
loop_
_atom_site_type_symbol
_atom_site_label
_atom_site_fract_x
_atom_site_fract_y
_atom_site_fract_z
Si Si1 0.889719 0.111172 0.293150
Si Si2 0.113787 0.705394 0.197313
Si Si3 0.771364 0.445472 0.500000
O O1 0.884894 0.117104 0.500000
O O2 0.820742 0.149269 0.211404
O O3 0.000000 0.179970 0.223359
O O4 0.853370 0.000000 0.233062
O O5 0.174370 0.676052 0.325452
O O6 0.000000 0.643226 0.251920
O O7 0.130781 0.681655 0.000000
O O8 0.766884 0.340074 0.500000
#
# Coordination Sequence:
#
# PCOD8327813 Si02
#       3
#    12  12   6
#     4   9  16  28  50  80 116 155 192 229 271 329
#     4  10  20  37  61  86 115 150 185 226 279 337
#     4  10  23  40  62  84 105 144 186 236 282 328
#
# _framework density 18.280408999999999
#
# number of rings (size 3 to 8) (size 9 to 14) (size 15 to 20)
#    0.400    2.000    2.000    1.000    0.000    4.000 
#    0.000    4.000    0.000    2.400    0.000    0.000 
#    0.000    0.000    0.000    0.000    0.000    0.000 
#
# Total GULP energy -371954.206405 kJ/mol
# GULP energy per Si atom -12398.473547 kJ/mol
# Density = 1.823880 g / cm^3
# Si number density = 18.280409 Si / 1000 Ang^3
#
#
#
# Elastic Constant Matrix: (Units=GPa)
#
#
# Indices 1 2 3 4 5 6 
#
# 1 95.7006 48.6140 50.9102 0.0000 0.0000 0.0000
# 2 48.6140 95.7006 50.9102 0.0000 0.0000 0.0000
# 3 50.9102 50.9102 94.9533 0.0000 0.0000 0.0000
# 4 0.0000 0.0000 0.0000 13.7384 0.0000 0.0000
# 5 0.0000 0.0000 0.0000 0.0000 13.7384 0.0000
# 6 0.0000 0.0000 0.0000 0.0000 0.0000 23.5433
#
#
#
# Elastic Compliance Matrix: (Units=1/GPa)
#
#
# Indices 1 2 3 4 5 6 
#
# 1 0.016191 -0.005046 -0.005976 0.000000 0.000000 0.000000
# 2 -0.005046 0.016191 -0.005976 0.000000 0.000000 0.000000
# 3 -0.005976 -0.005976 0.016939 0.000000 0.000000 0.000000
# 4 0.000000 0.000000 0.000000 0.072788 0.000000 0.000000
# 5 0.000000 0.000000 0.000000 0.000000 0.072788 0.000000
# 6 0.000000 0.000000 0.000000 0.000000 0.000000 0.042475
#
#
# Mechanical properties :
#
#
# Convention : Reuss Voigt Hill
#
# Bulk Modulus (GPa) = 65.24296 65.24704 65.24500
# Shear Modulus (GPa) = 18.08458 19.26536 18.67497
#
# Velocity S-wave (km/s) = 3.14871 3.24987 3.19969
# Velocity P-wave (km/s) = 6.99905 7.06060 7.02989
#
# Compressibility (1/GPa) = 0.01532732
#
# Stress axis : x y z
#
# Youngs Moduli (GPa) = 61.76085 61.76085 59.03389
#
# Poissons Ratio (x) = 0.31165 0.35277
# Poissons Ratio (y) = 0.31165 0.35277
# Poissons Ratio (z) = 0.36907 0.36907
#
# Static dielectric constant tensor:
#      x y z
#    x 3.250870 0.000000 0.000000 
#    y 0.000000 3.250870 0.000000 
#    z 0.000000 0.000000 3.313610 
# 
# 
# High freq. dielectric constant tensor:
#      x y z
#    x 1.691650 0.000000 0.000000 
#    y 0.000000 1.691650 0.000000 
#    z 0.000000 0.000000 1.715280 
# 
# From -- ./inp_files/289.got.cif
#   From: 2010.03.12/outbox.cif.g09.slc.cpg/sg189_1_cif.got.tgz:289.got - 2010.04.01 12:03:36.
