data_PCOD8327889
_publ_section_title
;
Structure prediction by ZEFSAII (Michael W. Deem and Ramdas Pophale) SiO2 
 PCOD8327889
Probable space group: P -6 2 M
;
_chemical_formula_sum "Si O2"
_cell_formula_units_Z 76
_cell_length_a 19.190664
_cell_length_b 19.190664
_cell_length_c 13.820395
_cell_angle_alpha 90.000000
_cell_angle_beta 90.000000
_cell_angle_gamma 120.000000
_cell_volume 4407.893478
_symmetry_space_group_name_H-M "P -6 2 M"
_symmetry_group_IT_number 189
_symmetry_cell_setting 'hexagonal'
loop_
_space_group_symop_operation_xyz
x,y,z
-x+y,-x,-z
-y,x-y,z
x,y,-z
-x+y,-x,z
-y,x-y,-z
x-y,-y,-z
-x,-x+y,-z
y,x,-z
y,x,z
x-y,-y,z
-x,-x+y,z
loop_
_atom_site_type_symbol
_atom_site_label
_atom_site_fract_x
_atom_site_fract_y
_atom_site_fract_z
Si Si1 0.256476 0.406321 0.702286
Si Si2 0.912627 0.000000 0.386413
Si Si3 0.808808 0.309682 0.387507
Si Si4 0.000000 0.753341 0.617630
Si Si5 0.561365 0.153434 0.107762
Si Si6 0.223211 0.742718 0.892346
Si Si7 0.333334 0.666667 0.615823
Si Si8 0.475194 0.911396 0.696546
O O1 0.187604 0.421777 0.657766
O O2 0.243335 0.321675 0.664562
O O3 0.250848 0.411052 0.819298
O O4 0.342133 0.481515 0.668690
O O5 0.902131 0.000000 0.500000
O O6 0.921005 0.921005 0.357288
O O7 0.834036 0.000000 0.344382
O O8 0.800315 0.294939 0.500000
O O9 0.732971 0.313560 0.342837
O O10 0.886277 0.394590 0.363600
O O11 0.000000 0.746116 0.500000
O O12 0.509503 0.194892 0.137118
O O13 0.656167 0.217450 0.109865
O O14 0.545222 0.087367 0.188990
O O15 0.536611 0.114511 0.000000
O O16 0.203252 0.760993 0.000000
O O17 0.333334 0.666668 0.500000
O O18 0.539002 0.000000 0.663755
#
# Coordination Sequence:
#
# PCOD8327889 Si02
#       8
#    12   6  12   6  12  12   4  12
#     4  11  21  35  52  78 111 146 184 226 271 330
#     4   7  14  34  64  91 108 128 165 217 270 327
#     4  11  21  34  50  71  98 138 190 230 261 302
#     4  11  22  36  57  85 116 148 178 215 277 343
#     4   9  17  30  51  75 100 132 177 230 277 316
#     4   9  17  30  51  77 103 135 183 238 284 320
#     4   9  18  30  48  66  82 125 190 234 252 285
#     4  11  22  35  49  73 107 144 181 223 270 314
#
# _framework density 17.241796000000001
#
# number of rings (size 3 to 8) (size 9 to 14) (size 15 to 20)
#    0.158    1.895    3.947    0.789    0.000    2.526 
#    0.000    1.184    0.000    1.895    0.000    0.000 
#    0.000    1.895    0.000    0.000    0.000    0.000 
#
# Total GULP energy -941593.872012 kJ/mol
# GULP energy per Si atom -12389.393053 kJ/mol
# Density = 1.720255 g / cm^3
# Si number density = 17.241796 Si / 1000 Ang^3
#
#
#
# Elastic Constant Matrix: (Units=GPa)
#
#
# Indices 1 2 3 4 5 6 
#
# 1 74.2202 24.9085 26.4533 0.0000 -0.0001 -0.0001
# 2 24.9085 74.2199 26.4535 0.0000 -0.0001 -0.0001
# 3 26.4533 26.4535 68.1299 0.0000 0.0000 0.0000
# 4 0.0000 0.0000 0.0000 19.6633 0.0000 0.0000
# 5 -0.0001 -0.0001 0.0000 0.0000 19.6635 0.0000
# 6 -0.0001 -0.0001 0.0000 0.0000 0.0000 24.6557
#
#
#
# Elastic Compliance Matrix: (Units=1/GPa)
#
#
# Indices 1 2 3 4 5 6 
#
# 1 0.016502 -0.003777 -0.004941 0.000000 0.000000 0.000000
# 2 -0.003777 0.016502 -0.004941 0.000000 0.000000 0.000000
# 3 -0.004941 -0.004941 0.018515 0.000000 0.000000 0.000000
# 4 0.000000 0.000000 0.000000 0.050856 0.000000 0.000000
# 5 0.000000 0.000000 0.000000 0.000000 0.050856 0.000000
# 6 0.000000 0.000000 0.000000 0.000000 0.000000 0.040559
#
#
# Mechanical properties :
#
#
# Convention : Reuss Voigt Hill
#
# Bulk Modulus (GPa) = 41.32017 41.35560 41.33788
# Shear Modulus (GPa) = 21.81750 22.04682 21.93216
#
# Velocity S-wave (km/s) = 3.56108 3.57975 3.57043
# Velocity P-wave (km/s) = 6.39731 6.41279 6.40505
#
# Compressibility (1/GPa) = 0.02420126
#
# Stress axis : x y z
#
# Youngs Moduli (GPa) = 60.59866 60.59827 54.01118
#
# Poissons Ratio (x) = 0.22889 0.26686
# Poissons Ratio (y) = 0.22889 0.26686
# Poissons Ratio (z) = 0.29940 0.29941
#
# Static dielectric constant tensor:
#      x y z
#    x 3.060060 0.000000 0.000000 
#    y 0.000000 3.060060 0.000000 
#    z 0.000000 0.000000 3.328650 
# 
# 
# High freq. dielectric constant tensor:
#      x y z
#    x 1.639270 0.000000 0.000000 
#    y 0.000000 1.639270 0.000000 
#    z 0.000000 0.000000 1.669680 
# 
# From -- ./inp_files/2770.got.cif
#   From: 2010.03.12/outbox.cif.g09.slc.cpg/sg189_2_cif.got.tgz:2770.got - 2010.04.01 12:03:36.
