data_PCOD8327727
_publ_section_title
;
Structure prediction by ZEFSAII (Michael W. Deem and Ramdas Pophale) SiO2 
 PCOD8327727
Probable space group: P -6 2 M
;
_chemical_formula_sum "Si O2"
_cell_formula_units_Z 72
_cell_length_a 22.847718
_cell_length_b 22.847718
_cell_length_c 9.214752
_cell_angle_alpha 90.000000
_cell_angle_beta 90.000000
_cell_angle_gamma 120.000000
_cell_volume 4165.814648
_symmetry_space_group_name_H-M "P -6 2 M"
_symmetry_group_IT_number 189
_symmetry_cell_setting 'hexagonal'
loop_
_space_group_symop_operation_xyz
x,y,z
-x+y,-x,-z
-y,x-y,z
x,y,-z
-x+y,-x,z
-y,x-y,-z
x-y,-y,-z
-x,-x+y,-z
y,x,-z
y,x,z
x-y,-y,z
-x,-x+y,z
loop_
_atom_site_type_symbol
_atom_site_label
_atom_site_fract_x
_atom_site_fract_y
_atom_site_fract_z
Si Si1 0.425357 0.346642 0.328373
Si Si2 0.521004 0.231563 0.166034
Si Si3 0.441537 0.821355 0.164842
Si Si4 0.392481 0.200487 0.669600
Si Si5 0.853426 0.927333 0.172587
Si Si6 0.201024 0.923362 0.170563
O O1 0.435352 0.354202 0.500000
O O2 0.381804 0.381804 0.275447
O O3 0.500283 0.382402 0.259357
O O4 0.386850 0.266650 0.284040
O O5 0.561774 0.194170 0.212943
O O6 0.563907 0.312479 0.179279
O O7 0.463167 0.208908 0.284184
O O8 0.494082 0.211708 0.000000
O O9 0.457441 0.847382 0.000000
O O10 0.382062 0.189161 0.500000
O O11 0.342003 0.131562 0.747376
O O12 0.911364 0.911364 0.223706
O O13 0.781708 0.870283 0.230860
O O14 0.870788 0.000000 0.236217
O O15 0.851090 0.927197 0.000000
O O16 0.260022 0.000000 0.206408
O O17 0.198892 0.910303 0.000000
#
# Coordination Sequence:
#
# PCOD8327727 Si02
#       6
#    12  12  12  12  12  12
#     4   9  19  35  51  69  99 135 165 199 244 287
#     4   9  17  31  51  75 102 127 152 189 236 282
#     4   9  17  30  51  77 101 126 157 192 234 286
#     4  10  20  33  50  71  94 125 166 203 236 282
#     4   8  13  22  39  64  91 116 143 180 229 282
#     4   9  18  32  48  67  93 123 155 195 241 282
#
# _framework density 17.283532999999998
#
# number of rings (size 3 to 8) (size 9 to 14) (size 15 to 20)
#    0.000    3.000    0.000    2.000    0.000    4.667 
#    0.000    0.833    0.000    3.000    0.000    0.000 
#    0.000    1.333    0.000    0.000    0.000    0.000 
#
# Total GULP energy -892041.510234 kJ/mol
# GULP energy per Si atom -12389.465420 kJ/mol
# Density = 1.724420 g / cm^3
# Si number density = 17.283533 Si / 1000 Ang^3
#
#
#
# Elastic Constant Matrix: (Units=GPa)
#
#
# Indices 1 2 3 4 5 6 
#
# 1 100.6693 63.0392 33.7520 0.0000 0.0000 0.0000
# 2 63.0392 100.6693 33.7520 0.0000 0.0000 0.0000
# 3 33.7520 33.7520 34.6623 0.0000 0.0000 0.0000
# 4 0.0000 0.0000 0.0000 18.6607 0.0000 0.0000
# 5 0.0000 0.0000 0.0000 0.0000 18.6607 0.0000
# 6 0.0000 0.0000 0.0000 0.0000 0.0000 18.8150
#
#
#
# Elastic Compliance Matrix: (Units=1/GPa)
#
#
# Indices 1 2 3 4 5 6 
#
# 1 0.018390 -0.008184 -0.009938 0.000000 0.000000 0.000000
# 2 -0.008184 0.018390 -0.009938 0.000000 0.000000 0.000000
# 3 -0.009938 -0.009938 0.048205 0.000000 0.000000 0.000000
# 4 0.000000 0.000000 0.000000 0.053588 0.000000 0.000000
# 5 0.000000 0.000000 0.000000 0.000000 0.053588 0.000000
# 6 0.000000 0.000000 0.000000 0.000000 0.000000 0.053149
#
#
# Mechanical properties :
#
#
# Convention : Reuss Voigt Hill
#
# Bulk Modulus (GPa) = 34.64535 55.23192 44.93864
# Shear Modulus (GPa) = 16.07435 18.25781 17.16608
#
# Velocity S-wave (km/s) = 3.05296 3.25371 3.15493
# Velocity P-wave (km/s) = 5.70230 6.79274 6.27126
#
# Compressibility (1/GPa) = 0.02886390
#
# Stress axis : x y z
#
# Youngs Moduli (GPa) = 54.37594 54.37594 20.74487
#
# Poissons Ratio (x) = 0.44501 0.20617
# Poissons Ratio (y) = 0.44501 0.20617
# Poissons Ratio (z) = 0.54041 0.54041
#
# Static dielectric constant tensor:
#      x y z
#    x 3.314630 0.000000 0.000000 
#    y 0.000000 3.314630 0.000000 
#    z 0.000000 0.000000 3.000480 
# 
# 
# High freq. dielectric constant tensor:
#      x y z
#    x 1.665160 0.000000 0.000000 
#    y 0.000000 1.665160 0.000000 
#    z 0.000000 0.000000 1.645040 
# 
# From -- ./inp_files/1281.got.cif
#   From: 2010.03.12/outbox.cif.g09.slc.cpg/sg189_1_cif.got.tgz:1281.got - 2010.04.01 12:03:36.
