data_PCOD8327210
_publ_section_title
;
Structure prediction by ZEFSAII (Michael W. Deem and Ramdas Pophale) SiO2 
 PCOD8327210
Probable space group: P -6 M 2
;
_chemical_formula_sum "Si O2"
_cell_formula_units_Z 84
_cell_length_a 18.856927
_cell_length_b 18.856927
_cell_length_c 14.170097
_cell_angle_alpha 90.000000
_cell_angle_beta 90.000000
_cell_angle_gamma 120.000000
_cell_volume 4363.603631
_symmetry_space_group_name_H-M "P -6 M 2"
_symmetry_group_IT_number 187
_symmetry_cell_setting 'hexagonal'
loop_
_space_group_symop_operation_xyz
x,y,z
-x+y,-x,-z
-y,x-y,z
x,y,-z
-x+y,-x,z
-y,x-y,-z
-y,-x,-z
-x+y,y,-z
x,x-y,-z
-x+y,y,z
x,x-y,z
-y,-x,z
loop_
_atom_site_type_symbol
_atom_site_label
_atom_site_fract_x
_atom_site_fract_y
_atom_site_fract_z
Si Si1 0.821017 0.333920 0.108128
Si Si2 0.249235 0.912380 0.389276
Si Si3 0.562928 0.862026 0.896617
Si Si4 0.335094 0.506976 0.702738
Si Si5 0.957457 0.296445 0.894613
Si Si6 0.756391 0.671238 0.695116
Si Si7 0.830444 0.332999 0.608650
O O1 0.818241 0.409121 0.159560
O O2 0.752819 0.247182 0.155163
O O3 0.911969 0.348861 0.115727
O O4 0.797444 0.332256 0.000000
O O5 0.260109 0.912178 0.500000
O O6 0.157708 0.842293 0.358559
O O7 0.317001 0.895142 0.342787
O O8 0.265932 0.000751 0.356162
O O9 0.593724 0.796862 0.890625
O O10 0.496256 0.842530 0.815737
O O11 0.643874 0.947467 0.879175
O O12 0.524422 0.859726 0.000000
O O13 0.262684 0.525368 0.677979
O O14 0.419322 0.580679 0.661486
O O15 0.924927 0.233197 0.807585
O O16 0.939295 0.254633 0.000000
O O17 0.844053 0.688105 0.656397
O O18 0.687560 0.576413 0.673611
O O19 0.856765 0.334573 0.500000
O O20 0.842061 0.421031 0.638084
O O21 0.735664 0.264336 0.622692
#
# Coordination Sequence:
#
# PCOD8327210 Si02
#       7
#    12  12  12  12  12  12  12
#     4   9  17  29  44  62  90 134 186 232 270 308
#     4  10  22  41  62  83 110 144 180 221 277 342
#     4   9  18  34  56  80 107 143 187 231 273 324
#     4  10  20  35  56  83 114 148 187 232 280 332
#     4  10  20  34  52  76 108 144 182 227 272 319
#     4  11  22  36  57  85 113 142 181 229 274 322
#     4   9  18  33  53  77 107 143 183 227 275 324
#
# _framework density 19.250145
#
# number of rings (size 3 to 8) (size 9 to 14) (size 15 to 20)
#    0.000    2.286    1.429    1.286    0.000    5.143 
#    0.000    1.429    0.000    3.714    0.000    0.000 
#    0.000    0.000    0.000    0.000    0.000    0.000 
#
# Total GULP energy -1041015.552562 kJ/mol
# GULP energy per Si atom -12393.042292 kJ/mol
# Density = 1.920633 g / cm^3
# Si number density = 19.250145 Si / 1000 Ang^3
#
#
#
# Elastic Constant Matrix: (Units=GPa)
#
#
# Indices 1 2 3 4 5 6 
#
# 1 91.6197 59.2735 25.7451 0.0000 0.0000 0.0000
# 2 59.2735 91.6197 25.7451 0.0000 0.0000 0.0000
# 3 25.7451 25.7451 90.7922 0.0000 0.0000 0.0000
# 4 0.0000 0.0000 0.0000 15.5449 0.0000 0.0000
# 5 0.0000 0.0000 0.0000 0.0000 15.5449 0.0000
# 6 0.0000 0.0000 0.0000 0.0000 0.0000 16.1731
#
#
#
# Elastic Compliance Matrix: (Units=1/GPa)
#
#
# Indices 1 2 3 4 5 6 
#
# 1 0.019126 -0.011789 -0.002081 0.000000 0.000000 0.000000
# 2 -0.011789 0.019126 -0.002081 0.000000 0.000000 0.000000
# 3 -0.002081 -0.002081 0.012194 0.000000 0.000000 0.000000
# 4 0.000000 0.000000 0.000000 0.064330 0.000000 0.000000
# 5 0.000000 0.000000 0.000000 0.000000 0.064330 0.000000
# 6 0.000000 0.000000 0.000000 0.000000 0.000000 0.061831
#
#
# Mechanical properties :
#
#
# Convention : Reuss Voigt Hill
#
# Bulk Modulus (GPa) = 53.91919 55.06210 54.49064
# Shear Modulus (GPa) = 17.91985 20.33710 19.12848
#
# Velocity S-wave (km/s) = 3.05437 3.25386 3.15569
# Velocity P-wave (km/s) = 6.36470 6.54082 6.45336
#
# Compressibility (1/GPa) = 0.01854627
#
# Stress axis : x y z
#
# Youngs Moduli (GPa) = 52.28382 52.28382 82.00712
#
# Poissons Ratio (x) = 0.61639 0.17062
# Poissons Ratio (y) = 0.61639 0.17062
# Poissons Ratio (z) = 0.10878 0.10878
#
# Static dielectric constant tensor:
#      x y z
#    x 3.376810 0.000000 0.000000 
#    y 0.000000 3.376810 0.000000 
#    z 0.000000 0.000000 3.787290 
# 
# 
# High freq. dielectric constant tensor:
#      x y z
#    x 1.726660 0.000000 0.000000 
#    y 0.000000 1.726660 0.000000 
#    z 0.000000 0.000000 1.764170 
# 
# From -- ./inp_files/2599.got.cif
#   From: 2010.03.12/outbox.cif.g09.slc.cpg/sg187_2_cif.got.tgz:2599.got - 2010.04.01 11:58:23.
