data_PCOD8327536
_publ_section_title
;
Structure prediction by ZEFSAII (Michael W. Deem and Ramdas Pophale) SiO2 
 PCOD8327536
Probable space group: P -6 2 M
;
_chemical_formula_sum "Si O2"
_cell_formula_units_Z 72
_cell_length_a 23.255841
_cell_length_b 23.255841
_cell_length_c 9.424592
_cell_angle_alpha 90.000000
_cell_angle_beta 90.000000
_cell_angle_gamma 120.000000
_cell_volume 4414.253692
_symmetry_space_group_name_H-M "P -6 2 M"
_symmetry_group_IT_number 189
_symmetry_cell_setting 'hexagonal'
loop_
_space_group_symop_operation_xyz
x,y,z
-x+y,-x,-z
-y,x-y,z
x,y,-z
-x+y,-x,z
-y,x-y,-z
x-y,-y,-z
-x,-x+y,-z
y,x,-z
y,x,z
x-y,-y,z
-x,-x+y,z
loop_
_atom_site_type_symbol
_atom_site_label
_atom_site_fract_x
_atom_site_fract_y
_atom_site_fract_z
Si Si1 0.269865 0.483989 0.666189
Si Si2 0.841307 0.325228 0.837185
Si Si3 0.713082 0.000000 0.336142
Si Si4 0.597123 0.000000 0.835594
Si Si5 0.133792 0.602094 0.163618
Si Si6 0.924596 0.256703 0.165393
Si Si7 0.855404 0.669153 0.663188
O O1 0.276097 0.498983 0.500000
O O2 0.220779 0.505996 0.734116
O O3 0.340942 0.529501 0.737772
O O4 0.242484 0.406354 0.699586
O O5 0.869757 0.402340 0.807367
O O6 0.898944 0.308150 0.801477
O O7 0.817829 0.306351 0.000000
O O8 0.694265 0.000000 0.500000
O O9 0.655908 0.000000 0.246998
O O10 0.783110 0.066351 0.301900
O O11 0.590863 0.062808 0.792171
O O12 0.613035 0.000000 0.000000
O O13 0.151105 0.624090 0.000000
O O14 0.879515 0.186830 0.244113
O O15 0.000000 0.289598 0.220899
O O16 0.920431 0.240607 0.000000
O O17 0.839519 0.674686 0.500000
#
# Coordination Sequence:
#
# PCOD8327536 Si02
#       7
#    12  12   6   6  12  12  12
#     4  10  19  33  51  68  91 123 160 203 248 292
#     4   9  19  34  51  69  93 125 162 203 246 294
#     4  10  18  32  50  72 102 134 160 189 240 289
#     4  10  20  30  48  76 100 124 160 201 244 297
#     4  10  20  33  50  72  97 125 159 203 251 298
#     4   9  18  32  51  73  98 128 160 196 237 280
#     4   9  18  31  49  71  98 129 158 190 233 285
#
# _framework density 16.310797999999998
#
# number of rings (size 3 to 8) (size 9 to 14) (size 15 to 20)
#    0.000    2.500    1.667    0.500    1.167    2.333 
#    1.000    0.000    0.000    0.000    0.000    0.000 
#    0.833    0.000    0.500    0.000    0.667    0.000 
#
# Total GULP energy -892873.205723 kJ/mol
# GULP energy per Si atom -12401.016746 kJ/mol
# Density = 1.627367 g / cm^3
# Si number density = 16.310798 Si / 1000 Ang^3
#
#
#
# Elastic Constant Matrix: (Units=GPa)
#
#
# Indices 1 2 3 4 5 6 
#
# 1 95.1264 57.6000 43.8492 0.0000 0.0000 0.0000
# 2 57.6000 95.1264 43.8492 0.0000 0.0000 0.0000
# 3 43.8492 43.8492 59.0706 0.0000 0.0000 0.0000
# 4 0.0000 0.0000 0.0000 21.9140 0.0000 0.0000
# 5 0.0000 0.0000 0.0000 0.0000 21.9140 0.0000
# 6 0.0000 0.0000 0.0000 0.0000 0.0000 18.7632
#
#
#
# Elastic Compliance Matrix: (Units=1/GPa)
#
#
# Indices 1 2 3 4 5 6 
#
# 1 0.019030 -0.007618 -0.008471 0.000000 0.000000 0.000000
# 2 -0.007618 0.019030 -0.008471 0.000000 0.000000 0.000000
# 3 -0.008471 -0.008471 0.029506 0.000000 0.000000 0.000000
# 4 0.000000 0.000000 0.000000 0.045633 0.000000 0.000000
# 5 0.000000 0.000000 0.000000 0.000000 0.045633 0.000000
# 6 0.000000 0.000000 0.000000 0.000000 0.000000 0.053296
#
#
# Mechanical properties :
#
#
# Convention : Reuss Voigt Hill
#
# Bulk Modulus (GPa) = 54.21694 59.99112 57.10403
# Shear Modulus (GPa) = 18.69879 19.45325 19.07602
#
# Velocity S-wave (km/s) = 3.38953 3.45724 3.42355
# Velocity P-wave (km/s) = 6.97357 7.26612 7.12135
#
# Compressibility (1/GPa) = 0.01844442
#
# Stress axis : x y z
#
# Youngs Moduli (GPa) = 52.54863 52.54863 33.89165
#
# Poissons Ratio (x) = 0.40031 0.28711
# Poissons Ratio (y) = 0.40031 0.28711
# Poissons Ratio (z) = 0.44516 0.44516
#
# Static dielectric constant tensor:
#      x y z
#    x 3.057880 0.000000 0.000000 
#    y 0.000000 3.057880 0.000000 
#    z 0.000000 0.000000 3.091720 
# 
# 
# High freq. dielectric constant tensor:
#      x y z
#    x 1.614410 0.000000 0.000000 
#    y 0.000000 1.614410 0.000000 
#    z 0.000000 0.000000 1.629780 
# 
# From -- ./inp_files/1309.got.cif
#   From: 2010.03.12/outbox.cif.g09.slc.cpg/sg189_1_cif.got.tgz:1309.got - 2010.04.01 12:03:36.
