data_PCOD8327942
_publ_section_title
;
Structure prediction by ZEFSAII (Michael W. Deem and Ramdas Pophale) SiO2 
 PCOD8327942
Probable space group: P -6 2 C
;
_chemical_formula_sum "Si O2"
_cell_formula_units_Z 72
_cell_length_a 23.881714
_cell_length_b 23.881714
_cell_length_c 8.765404
_cell_angle_alpha 90.000000
_cell_angle_beta 90.000000
_cell_angle_gamma 120.000000
_cell_volume 4329.458245
_symmetry_space_group_name_H-M "P -6 2 C"
_symmetry_group_IT_number 190
_symmetry_cell_setting 'hexagonal'
loop_
_space_group_symop_operation_xyz
x,y,z
-x+y,-x,1/2-z
-y,x-y,z
x,y,1/2-z
-x+y,-x,z
-y,x-y,1/2-z
x-y,-y,-z
-x,-x+y,-z
y,x,-z
y,x,1/2+z
x-y,-y,1/2+z
-x,-x+y,1/2+z
loop_
_atom_site_type_symbol
_atom_site_label
_atom_site_fract_x
_atom_site_fract_y
_atom_site_fract_z
Si Si1 0.140514 0.731419 0.070033
Si Si2 0.930713 0.525952 0.069470
Si Si3 0.738926 0.806945 0.430357
Si Si4 0.931962 0.738439 0.571374
Si Si5 0.522087 0.591295 0.431765
Si Si6 0.141344 0.404794 0.069732
O O1 0.136798 0.716869 0.250000
O O2 0.091425 0.756315 0.022757
O O3 0.213082 0.785305 0.018420
O O4 0.122271 0.667507 0.975198
O O5 0.937593 0.524622 0.250000
O O6 0.906447 0.454895 0.001410
O O7 0.000000 0.577394 0.000000
O O8 0.740508 0.801847 0.250000
O O9 0.790532 0.790532 0.500000
O O10 0.758134 0.879377 0.481209
O O11 0.666725 0.758018 0.494469
O O12 0.940141 0.744216 0.750000
O O13 0.000000 0.788183 0.500000
O O14 0.519878 0.583686 0.250000
O O15 0.573205 0.573205 0.500000
O O16 0.544071 0.664289 0.484054
O O17 0.138928 0.398303 0.250000
#
# Coordination Sequence:
#
# PCOD8327942 Si02
#       6
#    12  12  12  12  12  12
#     4   9  17  32  50  69  93 121 151 188 228 273
#     4  11  21  32  46  68  95 124 155 191 231 272
#     4   9  17  30  46  68  94 120 147 182 223 265
#     4   9  18  30  46  67  93 120 149 184 225 267
#     4  10  18  30  48  70  94 124 156 188 226 272
#     4   8  16  30  49  70  94 121 150 183 225 271
#
# _framework density 16.630257
#
# number of rings (size 3 to 8) (size 9 to 14) (size 15 to 20)
#    0.000    2.667    0.000    6.000    0.000    2.667 
#    0.000    5.000    0.000    1.000    0.000    2.333 
#    0.000    0.000    0.000    0.000    0.000    0.000 
#
# Total GULP energy -892572.191667 kJ/mol
# GULP energy per Si atom -12396.835995 kJ/mol
# Density = 1.659241 g / cm^3
# Si number density = 16.630257 Si / 1000 Ang^3
#
#
#
# Elastic Constant Matrix: (Units=GPa)
#
#
# Indices 1 2 3 4 5 6 
#
# 1 134.6986 79.7107 41.1931 0.0000 0.0000 0.0000
# 2 79.7107 134.6986 41.1931 0.0000 0.0000 0.0000
# 3 41.1931 41.1931 61.4199 0.0000 0.0000 0.0000
# 4 0.0000 0.0000 0.0000 23.7098 0.0000 0.0000
# 5 0.0000 0.0000 0.0000 0.0000 23.7098 0.0000
# 6 0.0000 0.0000 0.0000 0.0000 0.0000 27.4940
#
#
#
# Elastic Compliance Matrix: (Units=1/GPa)
#
#
# Indices 1 2 3 4 5 6 
#
# 1 0.012235 -0.005951 -0.004214 0.000000 0.000000 0.000000
# 2 -0.005951 0.012235 -0.004214 0.000000 0.000000 0.000000
# 3 -0.004214 -0.004214 0.021934 0.000000 0.000000 0.000000
# 4 0.000000 0.000000 0.000000 0.042177 0.000000 0.000000
# 5 0.000000 0.000000 0.000000 0.000000 0.042177 0.000000
# 6 0.000000 0.000000 0.000000 0.000000 0.000000 0.036372
#
#
# Mechanical properties :
#
#
# Convention : Reuss Voigt Hill
#
# Bulk Modulus (GPa) = 56.67583 72.77901 64.72742
# Shear Modulus (GPa) = 24.78096 26.23074 25.50585
#
# Velocity S-wave (km/s) = 3.86439 3.97582 3.92050
# Velocity P-wave (km/s) = 7.35291 8.05818 7.71361
#
# Compressibility (1/GPa) = 0.01764420
#
# Stress axis : x y z
#
# Youngs Moduli (GPa) = 81.73606 81.73606 45.59158
#
# Poissons Ratio (x) = 0.48644 0.19212
# Poissons Ratio (y) = 0.48644 0.19212
# Poissons Ratio (z) = 0.34444 0.34444
#
# Static dielectric constant tensor:
#      x y z
#    x 2.606610 0.000000 0.000000 
#    y 0.000000 2.606610 0.000000 
#    z 0.000000 0.000000 2.941550 
# 
# 
# High freq. dielectric constant tensor:
#      x y z
#    x 1.633550 0.000000 0.000000 
#    y 0.000000 1.633550 0.000000 
#    z 0.000000 0.000000 1.629880 
# 
# From -- ./inp_files/1236.got.cif
#   From: 2010.06.25/outbox.cif.g09.slc.cpg/sg190_1_cif.got.tgz:1236.got - 2010.06.28 13:08:06.
