data_PCOD8327047
_publ_section_title
;
Structure prediction by ZEFSAII (Michael W. Deem and Ramdas Pophale) SiO2 
 PCOD8327047
Probable space group: P -6 M 2
;
_chemical_formula_sum "Si O2"
_cell_formula_units_Z 66
_cell_length_a 12.774902
_cell_length_b 12.774902
_cell_length_c 27.819071
_cell_angle_alpha 90.000000
_cell_angle_beta 90.000000
_cell_angle_gamma 120.000000
_cell_volume 3931.772756
_symmetry_space_group_name_H-M "P -6 M 2"
_symmetry_group_IT_number 187
_symmetry_cell_setting 'hexagonal'
loop_
_space_group_symop_operation_xyz
x,y,z
-x+y,-x,-z
-y,x-y,z
x,y,-z
-x+y,-x,z
-y,x-y,-z
-y,-x,-z
-x+y,y,-z
x,x-y,-z
-x+y,y,z
x,x-y,z
-y,-x,z
loop_
_atom_site_type_symbol
_atom_site_label
_atom_site_fract_x
_atom_site_fract_y
_atom_site_fract_z
Si Si1 0.755076 0.999597 0.863016
Si Si2 0.422307 0.087338 0.587918
Si Si3 0.333234 0.425525 0.670924
Si Si4 0.424743 0.333130 0.945442
Si Si5 0.335292 0.913822 0.500000
Si Si6 0.333240 0.426438 0.780398
O O1 0.773988 0.886994 0.868758
O O2 0.682688 0.993118 0.814983
O O3 0.684066 0.002588 0.910152
O O4 0.883973 0.116028 0.858305
O O5 0.563038 0.126076 0.584862
O O6 0.410936 0.205468 0.582230
O O7 0.364090 0.023327 0.638454
O O8 0.346647 0.992887 0.546395
O O9 0.205441 0.410882 0.655377
O O10 0.434046 0.565955 0.664104
O O11 0.330836 0.384101 0.725711
O O12 0.458746 0.229373 0.937395
O O13 0.541520 0.458481 0.932599
O O14 0.381340 0.331443 0.000000
O O15 0.205889 0.794112 0.500000
O O16 0.437917 0.875834 0.500000
O O17 0.232785 0.465569 0.787855
O O18 0.460964 0.539037 0.794348
#
# Coordination Sequence:
#
# PCOD8327047 Si02
#       6
#    12  12  12  12   6  12
#     4  10  20  32  46  65  92 127 163 195 226 266
#     4  10  20  33  50  71  97 129 161 192 226 271
#     4   9  17  30  50  74  97 121 152 195 244 288
#     4   9  17  30  49  71  92 114 143 184 234 283
#     4  10  20  34  54  78 100 122 152 196 246 288
#     4   9  17  30  49  72  95 120 153 195 243 289
#
# _framework density 16.786321000000001
#
# number of rings (size 3 to 8) (size 9 to 14) (size 15 to 20)
#    0.000    2.545    0.000    2.364    0.000    3.273 
#    0.000    2.727    0.000    6.909    0.000    0.000 
#    0.000    0.000    0.000    0.000    0.000    0.000 
#
# Total GULP energy -818499.053172 kJ/mol
# GULP energy per Si atom -12401.500806 kJ/mol
# Density = 1.674811 g / cm^3
# Si number density = 16.786321 Si / 1000 Ang^3
#
#
#
# Elastic Constant Matrix: (Units=GPa)
#
#
# Indices 1 2 3 4 5 6 
#
# 1 106.3585 65.1216 67.3546 0.0000 0.0005 0.0000
# 2 65.1216 106.3585 67.3546 0.0000 -0.0005 0.0000
# 3 67.3546 67.3546 119.9357 0.0000 0.0000 0.0000
# 4 0.0000 0.0000 0.0000 23.7052 0.0000 -0.0005
# 5 0.0005 -0.0005 0.0000 0.0000 23.7052 0.0000
# 6 0.0000 0.0000 0.0000 -0.0005 0.0000 20.6184
#
#
#
# Elastic Compliance Matrix: (Units=1/GPa)
#
#
# Indices 1 2 3 4 5 6 
#
# 1 0.017343 -0.006907 -0.005860 0.000000 0.000000 0.000000
# 2 -0.006907 0.017343 -0.005860 0.000000 0.000000 0.000000
# 3 -0.005860 -0.005860 0.014920 0.000000 0.000000 0.000000
# 4 0.000000 0.000000 0.000000 0.042185 0.000000 0.000001
# 5 0.000000 0.000000 0.000000 0.000000 0.042185 0.000000
# 6 0.000000 0.000000 0.000000 0.000001 0.000000 0.048500
#
#
# Mechanical properties :
#
#
# Convention : Reuss Voigt Hill
#
# Bulk Modulus (GPa) = 80.97690 81.36826 81.17258
# Shear Modulus (GPa) = 22.33659 22.46057 22.39858
#
# Velocity S-wave (km/s) = 3.65175 3.66187 3.65682
# Velocity P-wave (km/s) = 8.13173 8.15213 8.14194
#
# Compressibility (1/GPa) = 0.01234920
#
# Stress axis : x y z
#
# Youngs Moduli (GPa) = 57.66110 57.66110 67.02413
#
# Poissons Ratio (x) = 0.39829 0.39278
# Poissons Ratio (y) = 0.39829 0.39278
# Poissons Ratio (z) = 0.33791 0.33791
#
# Static dielectric constant tensor:
#      x y z
#    x 3.018640 0.000000 0.000000 
#    y 0.000000 3.018640 0.000000 
#    z 0.000000 0.000000 3.393200 
# 
# 
# High freq. dielectric constant tensor:
#      x y z
#    x 1.639110 0.000000 0.000000 
#    y 0.000000 1.639110 0.000000 
#    z 0.000000 0.000000 1.661700 
# 
# From -- ./inp_files/4396.got.cif
#   From: 2010.03.12/outbox.cif.g09.slc.cpg/sg187_3_cif.got.tgz:4396.got - 2010.04.01 11:58:23.
