data_PCOD8327749
_publ_section_title
;
Structure prediction by ZEFSAII (Michael W. Deem and Ramdas Pophale) SiO2 
 PCOD8327749
Probable space group: P -6 2 M
;
_chemical_formula_sum "Si O2"
_cell_formula_units_Z 60
_cell_length_a 14.932961
_cell_length_b 14.932961
_cell_length_c 14.880667
_cell_angle_alpha 90.000000
_cell_angle_beta 90.000000
_cell_angle_gamma 120.000000
_cell_volume 2873.722918
_symmetry_space_group_name_H-M "P -6 2 M"
_symmetry_group_IT_number 189
_symmetry_cell_setting 'hexagonal'
loop_
_space_group_symop_operation_xyz
x,y,z
-x+y,-x,-z
-y,x-y,z
x,y,-z
-x+y,-x,z
-y,x-y,-z
x-y,-y,-z
-x,-x+y,-z
y,x,-z
y,x,z
x-y,-y,z
-x,-x+y,z
loop_
_atom_site_type_symbol
_atom_site_label
_atom_site_fract_x
_atom_site_fract_y
_atom_site_fract_z
Si Si1 0.542740 0.118112 0.261074
Si Si2 0.119267 0.879988 0.103471
Si Si3 0.122085 0.745640 0.257912
Si Si4 0.397051 0.119877 0.398807
Si Si5 0.452663 0.676791 0.904797
O O1 0.666864 0.167708 0.259854
O O2 0.504625 0.136618 0.356750
O O3 0.493981 0.161480 0.185890
O O4 0.495931 0.000000 0.236533
O O5 0.150719 0.809149 0.163316
O O6 0.000000 0.846802 0.120133
O O7 0.188753 0.000000 0.130765
O O8 0.137708 0.862051 0.000000
O O9 0.172299 0.822712 0.341573
O O10 0.000000 0.686169 0.274153
O O11 0.420971 0.163785 0.500000
O O12 0.311344 0.000000 0.397871
O O13 0.431195 0.772171 0.903475
O O14 0.509156 0.679138 0.000000
#
# Coordination Sequence:
#
# PCOD8327749 Si02
#       5
#    12  12  12  12  12
#     4  10  20  34  53  77 107 142 181 229 279 332
#     4   9  17  31  54  86 124 164 203 241 284 340
#     4  10  21  36  58  87 116 147 188 240 290 340
#     4  10  22  40  59  79 108 145 185 234 294 357
#     4   8  16  30  49  70  96 134 174 213 257 308
#
# _framework density 20.878837999999998
#
# number of rings (size 3 to 8) (size 9 to 14) (size 15 to 20)
#    0.400    2.200    0.000    2.000    0.000    3.200 
#    1.200    5.000    0.000    1.600    0.000    0.000 
#    0.000    0.000    0.000    0.000    0.000    0.000 
#
# Total GULP energy -743452.936172 kJ/mol
# GULP energy per Si atom -12390.882270 kJ/mol
# Density = 2.083132 g / cm^3
# Si number density = 20.878838 Si / 1000 Ang^3
#
#
#
# Elastic Constant Matrix: (Units=GPa)
#
#
# Indices 1 2 3 4 5 6 
#
# 1 60.5864 16.5390 29.1273 0.0000 0.0000 0.0000
# 2 16.5390 60.5864 29.1273 0.0000 0.0000 0.0000
# 3 29.1273 29.1273 158.8340 0.0000 0.0000 0.0000
# 4 0.0000 0.0000 0.0000 29.3437 0.0000 0.0000
# 5 0.0000 0.0000 0.0000 0.0000 29.3437 0.0000
# 6 0.0000 0.0000 0.0000 0.0000 0.0000 22.0237
#
#
#
# Elastic Compliance Matrix: (Units=1/GPa)
#
#
# Indices 1 2 3 4 5 6 
#
# 1 0.018877 -0.003826 -0.002760 0.000000 0.000000 0.000000
# 2 -0.003826 0.018877 -0.002760 0.000000 0.000000 0.000000
# 3 -0.002760 -0.002760 0.007308 0.000000 0.000000 0.000000
# 4 0.000000 0.000000 0.000000 0.034079 0.000000 0.000000
# 5 0.000000 0.000000 0.000000 0.000000 0.034079 0.000000
# 6 0.000000 0.000000 0.000000 0.000000 0.000000 0.045406
#
#
# Mechanical properties :
#
#
# Convention : Reuss Voigt Hill
#
# Bulk Modulus (GPa) = 37.92286 47.73266 42.82776
# Shear Modulus (GPa) = 26.86630 29.82313 28.34472
#
# Velocity S-wave (km/s) = 3.59105 3.78351 3.68853
# Velocity P-wave (km/s) = 5.94953 6.48058 6.22073
#
# Compressibility (1/GPa) = 0.02636932
#
# Stress axis : x y z
#
# Youngs Moduli (GPa) = 52.97537 52.97537 136.83350
#
# Poissons Ratio (x) = 0.20269 0.37766
# Poissons Ratio (y) = 0.20269 0.37766
# Poissons Ratio (z) = 0.14621 0.14621
#
# Static dielectric constant tensor:
#      x y z
#    x 3.715340 0.000000 0.000000 
#    y 0.000000 3.715340 0.000000 
#    z 0.000000 0.000000 3.876970 
# 
# 
# High freq. dielectric constant tensor:
#      x y z
#    x 1.809470 0.000000 0.000000 
#    y 0.000000 1.809470 0.000000 
#    z 0.000000 0.000000 1.816850 
# 
# From -- ./inp_files/2535.got.cif
#   From: 2010.03.12/outbox.cif.g09.slc.cpg/sg189_2_cif.got.tgz:2535.got - 2010.04.01 12:03:36.
