data_PCOD8327925
_publ_section_title
;
Structure prediction by ZEFSAII (Michael W. Deem and Ramdas Pophale) SiO2 
 PCOD8327925
Probable space group: P -6 2 M
;
_chemical_formula_sum "Si O2"
_cell_formula_units_Z 72
_cell_length_a 24.000000
_cell_length_b 24.000000
_cell_length_c 9.000000
_cell_angle_alpha 90.000000
_cell_angle_beta 90.000000
_cell_angle_gamma 120.000000
_cell_volume 4489.475693
_symmetry_space_group_name_H-M "P -6 2 M"
_symmetry_group_IT_number 189
_symmetry_cell_setting 'hexagonal'
loop_
_space_group_symop_operation_xyz
x,y,z
-x+y,-x,-z
-y,x-y,z
x,y,-z
-x+y,-x,z
-y,x-y,-z
x-y,-y,-z
-x,-x+y,-z
y,x,-z
y,x,z
x-y,-y,z
-x,-x+y,z
loop_
_atom_site_type_symbol
_atom_site_label
_atom_site_fract_x
_atom_site_fract_y
_atom_site_fract_z
Si Si1 0.259758 0.185780 0.175026
Si Si2 0.406579 0.265533 0.827846
Si Si3 0.600080 0.072539 0.324459
Si Si4 0.399763 0.925332 0.673461
Si Si5 0.863943 0.265674 0.174869
Si Si6 0.733853 0.808237 0.325650
O O1 0.212212 0.212212 0.222179
O O2 0.332516 0.238776 0.220081
O O3 0.239020 0.118785 0.258558
O O4 0.256270 0.172155 0.000000
O O5 0.453852 0.330849 0.741937
O O6 0.425438 0.210980 0.790708
O O7 0.415644 0.283173 0.000000
O O8 0.606574 0.074380 0.500000
O O9 0.546544 0.091930 0.279224
O O10 0.576506 0.000000 0.266939
O O11 0.383729 0.911582 0.500000
O O12 0.335345 0.880347 0.765694
O O13 0.424870 0.000000 0.708975
O O14 0.909531 0.243076 0.252412
O O15 0.877207 0.269259 0.000000
O O16 0.722340 0.810271 0.500000
O O17 0.785927 0.785927 0.293296
#
# Coordination Sequence:
#
# PCOD8327925 Si02
#       6
#    12  12  12  12  12  12
#     4   9  18  32  49  70  96 124 154 191 233 275
#     4   9  18  31  46  67  95 122 149 185 226 267
#     4   9  18  31  47  69  95 121 150 185 225 270
#     4   9  18  32  48  68  95 122 149 187 232 274
#     4  10  20  32  47  69  95 123 156 192 230 273
#     4  10  20  32  47  69  96 125 156 191 232 276
#
# _framework density 16.037507000000002
#
# number of rings (size 3 to 8) (size 9 to 14) (size 15 to 20)
#    0.000    2.667    0.000    4.000    0.000    9.000 
#    0.000    1.667    0.000    1.000    0.000    0.000 
#    0.000    0.000    0.000    0.000    0.000    0.000 
#
# Total GULP energy -892752.782160 kJ/mol
# GULP energy per Si atom -12399.344197 kJ/mol
# Density = 1.600101 g / cm^3
# Si number density = 16.037507 Si / 1000 Ang^3
#
#
#
# Elastic Constant Matrix: (Units=GPa)
#
#
# Indices 1 2 3 4 5 6 
#
# 1 129.3822 68.9326 52.7130 0.0000 0.0000 0.0000
# 2 68.9326 129.3822 52.7130 0.0000 0.0000 0.0000
# 3 52.7130 52.7130 70.6978 0.0000 0.0000 0.0000
# 4 0.0000 0.0000 0.0000 31.3097 0.0000 0.0000
# 5 0.0000 0.0000 0.0000 0.0000 31.3097 0.0000
# 6 0.0000 0.0000 0.0000 0.0000 0.0000 30.2248
#
#
#
# Elastic Compliance Matrix: (Units=1/GPa)
#
#
# Indices 1 2 3 4 5 6 
#
# 1 0.012448 -0.004095 -0.006229 0.000000 0.000000 0.000000
# 2 -0.004095 0.012448 -0.006229 0.000000 0.000000 0.000000
# 3 -0.006229 -0.006229 0.023433 0.000000 0.000000 0.000000
# 4 0.000000 0.000000 0.000000 0.031939 0.000000 0.000000
# 5 0.000000 0.000000 0.000000 0.000000 0.031939 0.000000
# 6 0.000000 0.000000 0.000000 0.000000 0.000000 0.033085
#
#
# Mechanical properties :
#
#
# Convention : Reuss Voigt Hill
#
# Bulk Modulus (GPa) = 65.67750 75.35325 70.51538
# Shear Modulus (GPa) = 27.25223 28.90909 28.08066
#
# Velocity S-wave (km/s) = 4.12671 4.25030 4.18896
# Velocity P-wave (km/s) = 7.98421 8.43649 8.21346
#
# Compressibility (1/GPa) = 0.01522591
#
# Stress axis : x y z
#
# Youngs Moduli (GPa) = 80.33299 80.33299 42.67505
#
# Poissons Ratio (x) = 0.32893 0.26580
# Poissons Ratio (y) = 0.32893 0.26580
# Poissons Ratio (z) = 0.50036 0.50036
#
# Static dielectric constant tensor:
#      x y z
#    x 3.093810 0.000000 0.000000 
#    y 0.000000 3.093810 0.000000 
#    z 0.000000 0.000000 3.019860 
# 
# 
# High freq. dielectric constant tensor:
#      x y z
#    x 1.614560 0.000000 0.000000 
#    y 0.000000 1.614560 0.000000 
#    z 0.000000 0.000000 1.621800 
# 
# From -- ./inp_files/1207.got.cif
#   From: 2010.03.12/outbox.ucp.g09.slc.cvg/sg189_1_cif.got.tgz:1207.got - 2010.05.04 20:46:55.
