data_PCOD8327308
_publ_section_title
;
Structure prediction by ZEFSAII (Michael W. Deem and Ramdas Pophale) SiO2 
 PCOD8327308
Probable space group: P -6 C 2
;
_chemical_formula_sum "Si O2"
_cell_formula_units_Z 72
_cell_length_a 24.310842
_cell_length_b 24.310842
_cell_length_c 8.568222
_cell_angle_alpha 90.000000
_cell_angle_beta 90.000000
_cell_angle_gamma 120.000000
_cell_volume 4385.522502
_symmetry_space_group_name_H-M "P -6 C 2"
_symmetry_group_IT_number 188
_symmetry_cell_setting 'hexagonal'
loop_
_space_group_symop_operation_xyz
x,y,z
-x+y,-x,1/2-z
-y,x-y,z
x,y,1/2-z
-x+y,-x,z
-y,x-y,1/2-z
-y,-x,-z
-x+y,y,-z
x,x-y,-z
-x+y,y,1/2+z
x,x-y,1/2+z
-y,-x,1/2+z
loop_
_atom_site_type_symbol
_atom_site_label
_atom_site_fract_x
_atom_site_fract_y
_atom_site_fract_z
Si Si1 0.477125 0.407890 0.565556
Si Si2 0.333596 0.549877 0.435446
Si Si3 0.006281 0.666039 0.567451
Si Si4 0.817533 0.523950 0.067519
Si Si5 0.263833 0.852478 0.435782
Si Si6 0.336931 0.115233 0.433187
O O1 0.477370 0.409553 0.750000
O O2 0.521398 0.478603 0.500000
O O3 0.405530 0.380944 0.498739
O O4 0.504945 0.362938 0.509951
O O5 0.332660 0.550127 0.250000
O O6 0.403768 0.596233 0.500000
O O7 0.286600 0.573200 0.500000
O O8 0.312600 0.480174 0.497327
O O9 0.013212 0.660242 0.750000
O O10 0.076412 0.712716 0.500249
O O11 0.960519 0.696133 0.533126
O O12 0.814330 0.512015 0.250000
O O13 0.745511 0.491022 0.000000
O O14 0.852549 0.598136 0.028363
O O15 0.262666 0.847622 0.250000
O O16 0.193051 0.806950 0.500000
O O17 0.350703 0.128736 0.250000
O O18 0.297409 0.148705 0.500000
#
# Coordination Sequence:
#
# PCOD8327308 Si02
#       6
#    12  12  12  12  12  12
#     4  10  19  32  46  65  89 116 147 186 230 276
#     4  11  21  34  49  67  86 109 142 189 242 293
#     4   8  17  31  47  64  90 121 150 181 222 267
#     4  10  17  27  43  63  84 111 141 174 210 254
#     4  10  19  34  50  67  89 119 154 190 227 275
#     4   9  15  26  43  66  90 114 139 170 206 247
#
# _framework density 16.417656000000001
#
# number of rings (size 3 to 8) (size 9 to 14) (size 15 to 20)
#    0.000    2.333    0.000    7.667    0.000    0.667 
#    0.000   11.667    0.000    0.333    0.000    2.333 
#    0.000    0.000    0.000    0.500    0.000    6.000 
#
# Total GULP energy -892217.746102 kJ/mol
# GULP energy per Si atom -12391.913140 kJ/mol
# Density = 1.638029 g / cm^3
# Si number density = 16.417656 Si / 1000 Ang^3
#
#
#
# Elastic Constant Matrix: (Units=GPa)
#
#
# Indices 1 2 3 4 5 6 
#
# 1 98.4679 65.9200 30.6541 -0.0001 0.0000 0.0000
# 2 65.9200 98.4679 30.6541 0.0001 0.0000 0.0000
# 3 30.6541 30.6541 90.6274 0.0000 0.0000 0.0000
# 4 -0.0001 0.0001 0.0000 18.5627 0.0000 0.0000
# 5 0.0000 0.0000 0.0000 0.0000 18.5627 -0.0001
# 6 0.0000 0.0000 0.0000 0.0000 -0.0001 16.2739
#
#
#
# Elastic Compliance Matrix: (Units=1/GPa)
#
#
# Indices 1 2 3 4 5 6 
#
# 1 0.018843 -0.011881 -0.002355 0.000000 0.000000 0.000000
# 2 -0.011881 0.018843 -0.002355 0.000000 0.000000 0.000000
# 3 -0.002355 -0.002355 0.012627 0.000000 0.000000 0.000000
# 4 0.000000 0.000000 0.000000 0.053871 0.000000 0.000000
# 5 0.000000 0.000000 0.000000 0.000000 0.053871 0.000000
# 6 0.000000 0.000000 0.000000 0.000000 0.000000 0.061448
#
#
# Mechanical properties :
#
#
# Convention : Reuss Voigt Hill
#
# Bulk Modulus (GPa) = 58.37294 60.22440 59.29867
# Shear Modulus (GPa) = 19.35024 21.36887 20.35955
#
# Velocity S-wave (km/s) = 3.43683 3.61165 3.52533
# Velocity P-wave (km/s) = 7.16807 7.35897 7.26415
#
# Compressibility (1/GPa) = 0.01713122
#
# Stress axis : x y z
#
# Youngs Moduli (GPa) = 53.07105 53.07105 79.19501
#
# Poissons Ratio (x) = 0.63056 0.18647
# Poissons Ratio (y) = 0.63056 0.18647
# Poissons Ratio (z) = 0.12496 0.12496
#
# Static dielectric constant tensor:
#      x y z
#    x 3.346730 0.000000 0.000000 
#    y 0.000000 3.346730 0.000000 
#    z 0.000000 0.000000 3.093630 
# 
# 
# High freq. dielectric constant tensor:
#      x y z
#    x 1.606170 0.000000 0.000000 
#    y 0.000000 1.606170 0.000000 
#    z 0.000000 0.000000 1.639520 
# 
# From -- ./inp_files/1061.got.cif
#   From: 2010.03.12/outbox.cif.g09.slc.cpg/sg188_1_cif.got.tgz:1061.got - 2010.04.01 12:01:06.
