data_PCOD8327139
_publ_section_title
;
Structure prediction by ZEFSAII (Michael W. Deem and Ramdas Pophale) SiO2 
 PCOD8327139
Probable space group: P -6 M 2
;
_chemical_formula_sum "Si O2"
_cell_formula_units_Z 66
_cell_length_a 12.505877
_cell_length_b 12.505877
_cell_length_c 27.948388
_cell_angle_alpha 90.000000
_cell_angle_beta 90.000000
_cell_angle_gamma 120.000000
_cell_volume 3785.434199
_symmetry_space_group_name_H-M "P -6 M 2"
_symmetry_group_IT_number 187
_symmetry_cell_setting 'hexagonal'
loop_
_space_group_symop_operation_xyz
x,y,z
-x+y,-x,-z
-y,x-y,z
x,y,-z
-x+y,-x,z
-y,x-y,-z
-y,-x,-z
-x+y,y,-z
x,x-y,-z
-x+y,y,z
x,x-y,z
-y,-x,z
loop_
_atom_site_type_symbol
_atom_site_label
_atom_site_fract_x
_atom_site_fract_y
_atom_site_fract_z
Si Si1 0.999535 0.753498 0.445496
Si Si2 0.998527 0.749629 0.000000
Si Si3 0.666623 0.083185 0.090444
Si Si4 0.667652 0.581219 0.639592
Si Si5 0.083780 0.416907 0.180677
Si Si6 0.751400 0.000310 0.729314
O O1 0.997726 0.711013 0.500000
O O2 0.896385 0.792769 0.437137
O O3 0.973152 0.639260 0.411688
O O4 0.130112 0.869889 0.432016
O O5 0.989338 0.671815 0.046617
O O6 0.129314 0.870687 0.000000
O O7 0.893905 0.787810 0.000000
O O8 0.545817 0.091634 0.080736
O O9 0.779518 0.220483 0.095112
O O10 0.657963 0.011094 0.138727
O O11 0.769074 0.538147 0.640538
O O12 0.535459 0.464541 0.649503
O O13 0.695779 0.683299 0.679523
O O14 0.210832 0.421663 0.168981
O O15 0.110491 0.555246 0.184977
O O16 0.024589 0.347804 0.229917
O O17 0.780860 0.890430 0.724639
O O18 0.876841 0.123160 0.742799
#
# Coordination Sequence:
#
# PCOD8327139 Si02
#       6
#    12   6  12  12  12  12
#     4   9  17  30  50  75 100 126 158 199 246 292
#     4  10  20  34  52  74 100 130 164 202 246 296
#     4  10  20  34  53  76 102 132 167 208 252 296
#     4  10  20  33  49  70  97 129 163 198 238 286
#     4  10  20  34  52  74 102 136 171 205 242 289
#     4  10  20  34  53  76 100 126 159 202 251 298
#
# _framework density 17.435251000000001
#
# number of rings (size 3 to 8) (size 9 to 14) (size 15 to 20)
#    0.000    2.182    0.000    3.455    0.000    1.091 
#    0.000    2.727    0.000   19.273    0.000    0.000 
#    0.000    0.000    0.000    0.000    0.000    0.000 
#
# Total GULP energy -818642.048166 kJ/mol
# GULP energy per Si atom -12403.667396 kJ/mol
# Density = 1.739557 g / cm^3
# Si number density = 17.435251 Si / 1000 Ang^3
#
#
#
# Elastic Constant Matrix: (Units=GPa)
#
#
# Indices 1 2 3 4 5 6 
#
# 1 89.7456 47.4033 44.6535 0.0000 -0.0020 0.0000
# 2 47.4033 89.7456 44.6535 0.0000 0.0020 0.0000
# 3 44.6535 44.6535 96.1570 0.0000 0.0000 0.0000
# 4 0.0000 0.0000 0.0000 22.6406 0.0000 0.0020
# 5 -0.0020 0.0020 0.0000 0.0000 22.6406 0.0000
# 6 0.0000 0.0000 0.0000 0.0020 0.0000 21.1711
#
#
#
# Elastic Compliance Matrix: (Units=1/GPa)
#
#
# Indices 1 2 3 4 5 6 
#
# 1 0.017034 -0.006583 -0.004854 0.000000 0.000002 0.000000
# 2 -0.006583 0.017034 -0.004854 0.000000 -0.000002 0.000000
# 3 -0.004854 -0.004854 0.014908 0.000000 0.000000 0.000000
# 4 0.000000 0.000000 0.000000 0.044168 0.000000 -0.000004
# 5 0.000002 -0.000002 0.000000 0.000000 0.044168 0.000000
# 6 0.000000 0.000000 0.000000 -0.000004 0.000000 0.047234
#
#
# Mechanical properties :
#
#
# Convention : Reuss Voigt Hill
#
# Bulk Modulus (GPa) = 60.98789 61.00764 60.99776
# Shear Modulus (GPa) = 22.46252 22.55299 22.50775
#
# Velocity S-wave (km/s) = 3.59324 3.60047 3.59685
# Velocity P-wave (km/s) = 7.22985 7.23543 7.23264
#
# Compressibility (1/GPa) = 0.01639670
#
# Stress axis : x y z
#
# Youngs Moduli (GPa) = 58.70442 58.70442 67.08015
#
# Poissons Ratio (x) = 0.38643 0.32558
# Poissons Ratio (y) = 0.38643 0.32558
# Poissons Ratio (z) = 0.28493 0.28493
#
# Static dielectric constant tensor:
#      x y z
#    x 3.184200 0.000000 0.000000 
#    y 0.000000 3.184200 0.000000 
#    z 0.000000 0.000000 3.515260 
# 
# 
# High freq. dielectric constant tensor:
#      x y z
#    x 1.674720 0.000000 0.000000 
#    y 0.000000 1.674720 0.000000 
#    z 0.000000 0.000000 1.689670 
# 
# From -- ./inp_files/4416.got.cif
#   From: 2010.03.12/outbox.cif.g09.slc.cpg/sg187_3_cif.got.tgz:4416.got - 2010.04.01 11:58:23.
