data_PCOD8327986
_publ_section_title
;
Structure prediction by ZEFSAII (Michael W. Deem and Ramdas Pophale) SiO2 
 PCOD8327986
Probable space group: P -6 2 C
;
_chemical_formula_sum "Si O2"
_cell_formula_units_Z 72
_cell_length_a 22.923283
_cell_length_b 22.923283
_cell_length_c 8.813400
_cell_angle_alpha 90.000000
_cell_angle_beta 90.000000
_cell_angle_gamma 120.000000
_cell_volume 4010.769881
_symmetry_space_group_name_H-M "P -6 2 C"
_symmetry_group_IT_number 190
_symmetry_cell_setting 'hexagonal'
loop_
_space_group_symop_operation_xyz
x,y,z
-x+y,-x,1/2-z
-y,x-y,z
x,y,1/2-z
-x+y,-x,z
-y,x-y,1/2-z
x-y,-y,-z
-x,-x+y,-z
y,x,-z
y,x,1/2+z
x-y,-y,1/2+z
-x,-x+y,1/2+z
loop_
_atom_site_type_symbol
_atom_site_label
_atom_site_fract_x
_atom_site_fract_y
_atom_site_fract_z
Si Si1 0.207933 0.819814 0.429016
Si Si2 0.199110 0.266951 0.072384
Si Si3 0.934002 0.067849 0.928053
Si Si4 0.419169 0.074715 0.431445
Si Si5 0.184023 0.564661 0.574250
Si Si6 0.711323 0.231751 0.428089
O O1 0.217380 0.833751 0.250000
O O2 0.135606 0.805148 0.488272
O O3 0.266995 0.885665 0.512766
O O4 0.206058 0.751257 0.470744
O O5 0.210923 0.271472 0.250000
O O6 0.128659 0.204145 0.022373
O O7 0.260549 0.260549 0.000000
O O8 0.941896 0.066795 0.750000
O O9 0.000000 0.130700 0.000000
O O10 0.926255 0.000000 0.000000
O O11 0.415189 0.070220 0.250000
O O12 0.497080 0.118819 0.490914
O O13 0.384982 0.000000 0.500000
O O14 0.170648 0.565542 0.750000
O O15 0.253587 0.565344 0.545471
O O16 0.194222 0.634756 0.507230
O O17 0.715062 0.216889 0.250000
#
# Coordination Sequence:
#
# PCOD8327986 Si02
#       6
#    12  12  12  12  12  12
#     4  10  20  35  52  75 104 133 168 214 258 303
#     4   9  20  36  53  71  95 126 163 204 247 290
#     4  10  19  32  48  68  91 118 149 186 231 282
#     4  10  20  35  54  77 104 140 178 216 261 311
#     4   8  15  28  50  76 101 129 168 209 248 297
#     4   9  16  30  52  77 102 134 170 205 246 299
#
# _framework density 17.951664999999998
#
# number of rings (size 3 to 8) (size 9 to 14) (size 15 to 20)
#    0.000    2.667    0.000    3.000    0.000    4.000 
#    0.000    6.667    0.000    4.000    0.000    0.000 
#    0.000    0.000    0.000    0.000    0.000    0.000 
#
# Total GULP energy -892358.178096 kJ/mol
# GULP energy per Si atom -12393.863585 kJ/mol
# Density = 1.791081 g / cm^3
# Si number density = 17.951665 Si / 1000 Ang^3
#
#
#
# Elastic Constant Matrix: (Units=GPa)
#
#
# Indices 1 2 3 4 5 6 
#
# 1 112.9498 74.2010 31.8746 0.0000 0.0000 0.0000
# 2 74.2010 112.9498 31.8746 0.0000 0.0000 0.0000
# 3 31.8746 31.8746 48.0914 0.0000 0.0000 0.0000
# 4 0.0000 0.0000 0.0000 27.3954 0.0000 0.0000
# 5 0.0000 0.0000 0.0000 0.0000 27.3954 0.0000
# 6 0.0000 0.0000 0.0000 0.0000 0.0000 19.3744
#
#
#
# Elastic Compliance Matrix: (Units=1/GPa)
#
#
# Indices 1 2 3 4 5 6 
#
# 1 0.016354 -0.009453 -0.004574 0.000000 0.000000 0.000000
# 2 -0.009453 0.016354 -0.004574 0.000000 0.000000 0.000000
# 3 -0.004574 -0.004574 0.026857 0.000000 0.000000 0.000000
# 4 0.000000 0.000000 0.000000 0.036502 0.000000 0.000000
# 5 0.000000 0.000000 0.000000 0.000000 0.036502 0.000000
# 6 0.000000 0.000000 0.000000 0.000000 0.000000 0.051614
#
#
# Mechanical properties :
#
#
# Convention : Reuss Voigt Hill
#
# Bulk Modulus (GPa) = 44.71625 61.09906 52.90765
# Shear Modulus (GPa) = 21.84913 23.90245 22.87579
#
# Velocity S-wave (km/s) = 3.49249 3.65292 3.57361
# Velocity P-wave (km/s) = 6.42080 7.20423 6.82377
#
# Compressibility (1/GPa) = 0.02236324
#
# Stress axis : x y z
#
# Youngs Moduli (GPa) = 61.14602 61.14602 37.23395
#
# Poissons Ratio (x) = 0.57801 0.17032
# Poissons Ratio (y) = 0.57801 0.17032
# Poissons Ratio (z) = 0.27969 0.27969
#
# Static dielectric constant tensor:
#      x y z
#    x 3.520070 0.000000 0.000000 
#    y 0.000000 3.520070 0.000000 
#    z 0.000000 0.000000 3.143280 
# 
# 
# High freq. dielectric constant tensor:
#      x y z
#    x 1.692490 0.000000 0.000000 
#    y 0.000000 1.692490 0.000000 
#    z 0.000000 0.000000 1.682460 
# 
# From -- ./inp_files/1191.got.cif
#   From: 2010.06.25/outbox.cif.g09.slc.cpg/sg190_1_cif.got.tgz:1191.got - 2010.06.28 13:08:06.
