data_PCOD8327911
_publ_section_title
;
Structure prediction by ZEFSAII (Michael W. Deem and Ramdas Pophale) SiO2 
 PCOD8327911
Probable space group: P -6 2 M
;
_chemical_formula_sum "Si O2"
_cell_formula_units_Z 72
_cell_length_a 23.826142
_cell_length_b 23.826142
_cell_length_c 9.512787
_cell_angle_alpha 90.000000
_cell_angle_beta 90.000000
_cell_angle_gamma 120.000000
_cell_volume 4676.768317
_symmetry_space_group_name_H-M "P -6 2 M"
_symmetry_group_IT_number 189
_symmetry_cell_setting 'hexagonal'
loop_
_space_group_symop_operation_xyz
x,y,z
-x+y,-x,-z
-y,x-y,z
x,y,-z
-x+y,-x,z
-y,x-y,-z
x-y,-y,-z
-x,-x+y,-z
y,x,-z
y,x,z
x-y,-y,z
-x,-x+y,z
loop_
_atom_site_type_symbol
_atom_site_label
_atom_site_fract_x
_atom_site_fract_y
_atom_site_fract_z
Si Si1 0.071448 0.144354 0.332828
Si Si2 0.588947 0.074526 0.663354
Si Si3 0.267745 0.195388 0.667042
Si Si4 0.407504 0.816766 0.163341
Si Si5 0.151214 0.739131 0.335900
Si Si6 0.740172 0.258973 0.163345
O O1 0.068442 0.141265 0.500000
O O2 0.096904 0.096904 0.277776
O O3 0.121370 0.218169 0.284595
O O4 0.000000 0.120683 0.269633
O O5 0.577585 0.081577 0.500000
O O6 0.565479 0.116974 0.750051
O O7 0.664177 0.099868 0.694601
O O8 0.547815 0.000000 0.712354
O O9 0.270428 0.200534 0.500000
O O10 0.242134 0.242134 0.726210
O O11 0.339333 0.218792 0.724571
O O12 0.333134 0.783208 0.210787
O O13 0.430692 0.765356 0.196996
O O14 0.416082 0.835257 0.000000
O O15 0.167925 0.751350 0.500000
O O16 0.217793 0.763811 0.252763
O O17 0.749951 0.250243 0.000000
#
# Coordination Sequence:
#
# PCOD8327911 Si02
#       6
#    12  12  12  12  12  12
#     4   8  12  17  27  46  73 103 132 162 196 232
#     4   9  17  28  42  61  84 107 132 167 208 244
#     4   8  13  21  34  52  74 103 137 166 193 232
#     4   9  17  29  45  63  83 108 136 165 200 244
#     4   9  16  26  41  60  81 107 137 166 198 239
#     4   9  17  29  44  62  83 106 132 164 201 239
#
# _framework density 15.395246999999999
#
# number of rings (size 3 to 8) (size 9 to 14) (size 15 to 20)
#    0.000    3.333    0.000    2.000    0.000    5.000 
#    0.000    0.000    0.000    4.500    0.000    2.333 
#    0.000    0.000    0.000    0.500    0.000    4.500 
#
# Total GULP energy -892484.228326 kJ/mol
# GULP energy per Si atom -12395.614282 kJ/mol
# Density = 1.536021 g / cm^3
# Si number density = 15.395247 Si / 1000 Ang^3
#
#
#
# Elastic Constant Matrix: (Units=GPa)
#
#
# Indices 1 2 3 4 5 6 
#
# 1 132.2921 75.8965 37.8325 0.0000 0.0000 0.0000
# 2 75.8965 132.2921 37.8325 0.0000 0.0000 0.0000
# 3 37.8325 37.8325 29.3797 0.0000 0.0000 0.0000
# 4 0.0000 0.0000 0.0000 16.7754 0.0000 0.0000
# 5 0.0000 0.0000 0.0000 0.0000 16.7754 0.0000
# 6 0.0000 0.0000 0.0000 0.0000 0.0000 28.1978
#
#
#
# Elastic Compliance Matrix: (Units=1/GPa)
#
#
# Indices 1 2 3 4 5 6 
#
# 1 0.013380 -0.004351 -0.011627 0.000000 0.000000 0.000000
# 2 -0.004351 0.013380 -0.011627 0.000000 0.000000 0.000000
# 3 -0.011627 -0.011627 0.063981 0.000000 0.000000 0.000000
# 4 0.000000 0.000000 0.000000 0.059611 0.000000 0.000000
# 5 0.000000 0.000000 0.000000 0.000000 0.059611 0.000000
# 6 0.000000 0.000000 0.000000 0.000000 0.000000 0.035464
#
#
# Mechanical properties :
#
#
# Convention : Reuss Voigt Hill
#
# Bulk Modulus (GPa) = 28.14369 66.34300 47.24334
# Shear Modulus (GPa) = 16.00091 21.84318 18.92205
#
# Velocity S-wave (km/s) = 3.22738 3.77082 3.50963
# Velocity P-wave (km/s) = 5.67525 7.88324 6.86855
#
# Compressibility (1/GPa) = 0.03553194
#
# Stress axis : x y z
#
# Youngs Moduli (GPa) = 74.73582 74.73582 15.62963
#
# Poissons Ratio (x) = 0.32521 0.18172
# Poissons Ratio (y) = 0.32521 0.18172
# Poissons Ratio (z) = 0.86894 0.86894
#
# Static dielectric constant tensor:
#      x y z
#    x 3.051080 0.000000 0.000000 
#    y 0.000000 3.051080 0.000000 
#    z 0.000000 0.000000 2.631380 
# 
# 
# High freq. dielectric constant tensor:
#      x y z
#    x 1.584710 0.000000 0.000000 
#    y 0.000000 1.584710 0.000000 
#    z 0.000000 0.000000 1.553870 
# 
# From -- ./inp_files/1271.got.cif
#   From: 2010.03.12/outbox.cif.g09.slc.cpg/sg189_1_cif.got.tgz:1271.got - 2010.04.01 12:03:36.
