data_PCOD8327836
_publ_section_title
;
Structure prediction by ZEFSAII (Michael W. Deem and Ramdas Pophale) SiO2 
 PCOD8327836
Probable space group: P -6 2 M
;
_chemical_formula_sum "Si O2"
_cell_formula_units_Z 66
_cell_length_a 22.705698
_cell_length_b 22.705698
_cell_length_c 7.981674
_cell_angle_alpha 90.000000
_cell_angle_beta 90.000000
_cell_angle_gamma 120.000000
_cell_volume 3563.644158
_symmetry_space_group_name_H-M "P -6 2 M"
_symmetry_group_IT_number 189
_symmetry_cell_setting 'hexagonal'
loop_
_space_group_symop_operation_xyz
x,y,z
-x+y,-x,-z
-y,x-y,z
x,y,-z
-x+y,-x,z
-y,x-y,-z
x-y,-y,-z
-x,-x+y,-z
y,x,-z
y,x,z
x-y,-y,z
-x,-x+y,z
loop_
_atom_site_type_symbol
_atom_site_label
_atom_site_fract_x
_atom_site_fract_y
_atom_site_fract_z
Si Si1 0.844430 0.921500 0.000000
Si Si2 0.162015 0.922681 0.690687
Si Si3 0.817840 0.442468 0.199396
Si Si4 0.769679 0.294906 0.807023
Si Si5 0.339551 0.415507 0.695773
Si Si6 0.195582 0.386757 0.695044
O O1 0.802675 0.894669 0.171849
O O2 0.905612 0.905612 0.000000
O O3 0.872078 0.000000 0.000000
O O4 0.131730 0.909496 0.500000
O O5 0.189933 0.872570 0.734478
O O6 0.223763 0.000000 0.707462
O O7 0.806202 0.370689 0.272018
O O8 0.755241 0.450454 0.270639
O O9 0.889165 0.503990 0.266687
O O10 0.820763 0.446213 0.000000
O O11 0.815761 0.260222 0.780666
O O12 0.759954 0.304653 0.000000
O O13 0.334867 0.402549 0.500000
O O14 0.374705 0.374705 0.777484
O O15 0.262783 0.386998 0.768483
O O16 0.206723 0.402915 0.500000
#
# Coordination Sequence:
#
# PCOD8327836 Si02
#       6
#     6  12  12  12  12  12
#     4  10  21  36  56  82 110 138 170 208 254 306
#     4   9  19  36  56  78 107 141 175 214 259 307
#     4   9  17  30  47  69  95 125 160 201 249 299
#     4   9  17  29  48  70  96 127 164 208 255 305
#     4   9  18  32  48  67  95 130 162 199 250 299
#     4   9  18  32  51  73  98 129 169 211 252 301
#
# _framework density 18.520367
#
# number of rings (size 3 to 8) (size 9 to 14) (size 15 to 20)
#    0.000    2.909    0.000    0.455    1.273    3.636 
#    0.000    2.727    0.000    6.545    0.000    0.000 
#    0.000    0.000    0.000    0.000    0.000    0.000 
#
# Total GULP energy -817974.195711 kJ/mol
# GULP energy per Si atom -12393.548420 kJ/mol
# Density = 1.847821 g / cm^3
# Si number density = 18.520367 Si / 1000 Ang^3
#
#
#
# Elastic Constant Matrix: (Units=GPa)
#
#
# Indices 1 2 3 4 5 6 
#
# 1 132.0947 85.2996 30.9839 0.0000 0.0000 0.0000
# 2 85.2996 132.0947 30.9839 0.0000 0.0000 0.0000
# 3 30.9839 30.9839 42.4640 0.0000 0.0000 0.0000
# 4 0.0000 0.0000 0.0000 21.5476 0.0000 0.0000
# 5 0.0000 0.0000 0.0000 0.0000 21.5476 0.0000
# 6 0.0000 0.0000 0.0000 0.0000 0.0000 23.3976
#
#
#
# Elastic Compliance Matrix: (Units=1/GPa)
#
#
# Indices 1 2 3 4 5 6 
#
# 1 0.013589 -0.007781 -0.004238 0.000000 0.000000 0.000000
# 2 -0.007781 0.013589 -0.004238 0.000000 0.000000 0.000000
# 3 -0.004238 -0.004238 0.029734 0.000000 0.000000 0.000000
# 4 0.000000 0.000000 0.000000 0.046409 0.000000 0.000000
# 5 0.000000 0.000000 0.000000 0.000000 0.046409 0.000000
# 6 0.000000 0.000000 0.000000 0.000000 0.000000 0.042739
#
#
# Mechanical properties :
#
#
# Convention : Reuss Voigt Hill
#
# Bulk Modulus (GPa) = 40.98637 66.79871 53.89254
# Shear Modulus (GPa) = 21.44874 23.92430 22.68652
#
# Velocity S-wave (km/s) = 3.40680 3.59804 3.50373
# Velocity P-wave (km/s) = 6.13625 7.30802 6.74762
#
# Compressibility (1/GPa) = 0.02439836
#
# Stress axis : x y z
#
# Youngs Moduli (GPa) = 73.58989 73.58989 33.63204
#
# Poissons Ratio (x) = 0.57260 0.14252
# Poissons Ratio (y) = 0.57260 0.14252
# Poissons Ratio (z) = 0.31186 0.31186
#
# Static dielectric constant tensor:
#      x y z
#    x 3.478320 0.000000 0.000000 
#    y 0.000000 3.478320 0.000000 
#    z 0.000000 0.000000 3.340630 
# 
# 
# High freq. dielectric constant tensor:
#      x y z
#    x 1.710660 0.000000 0.000000 
#    y 0.000000 1.710660 0.000000 
#    z 0.000000 0.000000 1.710300 
# 
# From -- ./inp_files/1041.got.cif
#   From: 2010.03.12/outbox.cif.g09.slc.cpg/sg189_1_cif.got.tgz:1041.got - 2010.04.01 12:03:36.
