data_PCOD8327689
_publ_section_title
;
Structure prediction by ZEFSAII (Michael W. Deem and Ramdas Pophale) SiO2 
 PCOD8327689
Probable space group: P -6 2 M
;
_chemical_formula_sum "Si O2"
_cell_formula_units_Z 60
_cell_length_a 17.854125
_cell_length_b 17.854125
_cell_length_c 11.792486
_cell_angle_alpha 90.000000
_cell_angle_beta 90.000000
_cell_angle_gamma 120.000000
_cell_volume 3255.465843
_symmetry_space_group_name_H-M "P -6 2 M"
_symmetry_group_IT_number 189
_symmetry_cell_setting 'hexagonal'
loop_
_space_group_symop_operation_xyz
x,y,z
-x+y,-x,-z
-y,x-y,z
x,y,-z
-x+y,-x,z
-y,x-y,-z
x-y,-y,-z
-x,-x+y,-z
y,x,-z
y,x,z
x-y,-y,z
-x,-x+y,z
loop_
_atom_site_type_symbol
_atom_site_label
_atom_site_fract_x
_atom_site_fract_y
_atom_site_fract_z
Si Si1 0.173006 0.797601 0.633733
Si Si2 0.472041 0.100974 0.369411
Si Si3 0.799556 0.898531 0.237296
Si Si4 0.102326 0.836276 0.000000
Si Si5 0.102519 0.618536 0.241766
Si Si6 0.331370 0.434269 0.000000
O O1 0.161700 0.789819 0.500000
O O2 0.272558 0.852956 0.670659
O O3 0.120772 0.842816 0.678404
O O4 0.134794 0.703317 0.684329
O O5 0.500928 0.121252 0.500000
O O6 0.558825 0.137893 0.294191
O O7 0.409214 0.000000 0.348957
O O8 0.847324 0.847324 0.278292
O O9 0.762196 0.866355 0.111161
O O10 0.868230 0.000000 0.238915
O O11 0.141690 0.772119 0.000000
O O12 0.000000 0.778139 0.000000
O O13 0.000000 0.568398 0.247407
O O14 0.135786 0.641839 0.112122
O O15 0.378746 0.378746 0.000000
#
# Coordination Sequence:
#
# PCOD8327689 Si02
#       6
#    12  12  12   6  12   6
#     4  11  22  36  56  82 111 148 190 234 283 340
#     4   9  19  36  55  77 107 140 175 220 273 329
#     4  11  22  36  55  81 115 156 202 248 292 338
#     4   9  17  33  54  78 108 145 187 236 289 338
#     4  10  19  35  59  83 108 139 178 225 279 337
#     4   9  16  31  56  84 109 135 172 224 279 330
#
# _framework density 18.430541999999999
#
# number of rings (size 3 to 8) (size 9 to 14) (size 15 to 20)
#    0.000    2.000    2.000    2.300    0.000    3.600 
#    1.200    3.000    0.000    3.600    0.000    0.000 
#    0.000    0.000    0.000    0.000    0.000    0.000 
#
# Total GULP energy -744077.034268 kJ/mol
# GULP energy per Si atom -12401.283904 kJ/mol
# Density = 1.838859 g / cm^3
# Si number density = 18.430542 Si / 1000 Ang^3
#
#
#
# Elastic Constant Matrix: (Units=GPa)
#
#
# Indices 1 2 3 4 5 6 
#
# 1 49.4213 23.5725 29.0482 0.0000 0.0000 0.0000
# 2 23.5725 49.4213 29.0482 0.0000 0.0000 0.0000
# 3 29.0482 29.0482 95.9802 0.0000 0.0000 0.0000
# 4 0.0000 0.0000 0.0000 181.7954 0.0000 0.0000
# 5 0.0000 0.0000 0.0000 0.0000 181.7954 0.0000
# 6 0.0000 0.0000 0.0000 0.0000 0.0000 12.9244
#
#
#
# Elastic Compliance Matrix: (Units=1/GPa)
#
#
# Indices 1 2 3 4 5 6 
#
# 1 0.028367 -0.010320 -0.005462 0.000000 0.000000 0.000000
# 2 -0.010320 0.028367 -0.005462 0.000000 0.000000 0.000000
# 3 -0.005462 -0.005462 0.013725 0.000000 0.000000 0.000000
# 4 0.000000 0.000000 0.000000 0.005501 0.000000 0.000000
# 5 0.000000 0.000000 0.000000 0.000000 0.005501 0.000000
# 6 0.000000 0.000000 0.000000 0.000000 0.000000 0.077373
#
#
# Mechanical properties :
#
#
# Convention : Reuss Voigt Hill
#
# Bulk Modulus (GPa) = 35.75097 39.79564 37.77331
# Shear Modulus (GPa) = 23.73684 82.84664 53.29174
#
# Velocity S-wave (km/s) = 3.59264 6.71180 5.38309
# Velocity P-wave (km/s) = 6.05386 9.03900 7.69262
#
# Compressibility (1/GPa) = 0.02797127
#
# Stress axis : x y z
#
# Youngs Moduli (GPa) = 35.25264 35.25264 72.86048
#
# Poissons Ratio (x) = 0.36380 0.39795
# Poissons Ratio (y) = 0.36380 0.39795
# Poissons Ratio (z) = 0.19255 0.19255
#
# Static dielectric constant tensor:
#      x y z
#    x 3.333150 0.000000 0.000000 
#    y 0.000000 3.333150 0.000000 
#    z 0.000000 0.000000 3.634850 
# 
# 
# High freq. dielectric constant tensor:
#      x y z
#    x 1.705150 0.000000 0.000000 
#    y 0.000000 1.705150 0.000000 
#    z 0.000000 0.000000 1.723020 
# 
# From -- ./inp_files/1946.got.cif
#   From: 2010.03.12/outbox.cif.g09.slc.cpg/sg189_1_cif.got.tgz:1946.got - 2010.04.01 12:03:36.
