data_PCOD8327663
_publ_section_title
;
Structure prediction by ZEFSAII (Michael W. Deem and Ramdas Pophale) SiO2 
 PCOD8327663
Probable space group: P -6 2 M
;
_chemical_formula_sum "Si O2"
_cell_formula_units_Z 96
_cell_length_a 17.801219
_cell_length_b 17.801219
_cell_length_c 20.124399
_cell_angle_alpha 90.000000
_cell_angle_beta 90.000000
_cell_angle_gamma 120.000000
_cell_volume 5522.720154
_symmetry_space_group_name_H-M "P -6 2 M"
_symmetry_group_IT_number 189
_symmetry_cell_setting 'hexagonal'
loop_
_space_group_symop_operation_xyz
x,y,z
-x+y,-x,-z
-y,x-y,z
x,y,-z
-x+y,-x,z
-y,x-y,-z
x-y,-y,-z
-x,-x+y,-z
y,x,-z
y,x,z
x-y,-y,z
-x,-x+y,z
loop_
_atom_site_type_symbol
_atom_site_label
_atom_site_fract_x
_atom_site_fract_y
_atom_site_fract_z
Si Si1 0.755364 0.904494 0.256710
Si Si2 0.902568 0.805491 0.888561
Si Si3 0.196242 0.388220 0.925041
Si Si4 0.605212 0.101699 0.076526
Si Si5 0.898945 0.362683 0.157084
Si Si6 0.807097 0.903823 0.399549
Si Si7 0.102647 0.361131 0.429010
Si Si8 0.102684 0.383119 0.714861
O O1 0.800497 0.895996 0.190954
O O2 0.809469 0.902546 0.319635
O O3 0.658529 0.820095 0.261349
O O4 0.760653 0.000000 0.255686
O O5 0.839932 0.839932 0.915469
O O6 0.876464 0.713134 0.920201
O O7 0.000000 0.871967 0.911769
O O8 0.295465 0.442409 0.901529
O O9 0.138796 0.410578 0.878569
O O10 0.187637 0.413103 0.000000
O O11 0.559753 0.139495 0.126102
O O12 0.565783 0.000000 0.086587
O O13 0.594102 0.122756 0.000000
O O14 0.879869 0.342774 0.236266
O O15 0.000000 0.412747 0.141834
O O16 0.868939 0.868939 0.426699
O O17 0.708695 0.843791 0.424599
O O18 0.841442 0.000000 0.427871
O O19 0.138087 0.412941 0.500000
O O20 0.130838 0.419187 0.361282
O O21 0.000000 0.310042 0.431296
O O22 0.000000 0.309428 0.717343
#
# Coordination Sequence:
#
# PCOD8327663 Si02
#       8
#    12  12  12  12  12  12  12  12
#     4   9  16  25  38  57  84 120 162 210 256 292
#     4  11  21  32  46  66  96 134 177 218 253 289
#     4  11  22  35  52  73  96 126 160 200 250 304
#     4   9  19  36  53  70  94 122 153 191 239 294
#     4  10  19  33  55  77  97 123 158 200 243 291
#     4   9  15  21  30  44  68 107 159 212 256 292
#     4   8  14  23  34  51  80 116 149 189 245 297
#     4   9  15  26  44  65  89 119 160 208 250 289
#
# _framework density 17.382739999999998
#
# number of rings (size 3 to 8) (size 9 to 14) (size 15 to 20)
#    0.000    2.500    1.250    3.250    0.000    2.500 
#    0.750    1.250    0.000    1.750    0.000    0.000 
#    0.000    1.000    0.000    0.375    0.000    0.250 
#
# Total GULP energy -1189292.353161 kJ/mol
# GULP energy per Si atom -12388.462012 kJ/mol
# Density = 1.734318 g / cm^3
# Si number density = 17.382740 Si / 1000 Ang^3
#
#
#
# Elastic Constant Matrix: (Units=GPa)
#
#
# Indices 1 2 3 4 5 6 
#
# 1 57.2841 25.1104 32.8629 0.0000 0.0000 0.0000
# 2 25.1104 57.2841 32.8629 0.0000 0.0000 0.0000
# 3 32.8629 32.8629 103.1982 0.0000 0.0000 0.0000
# 4 0.0000 0.0000 0.0000 11.5747 0.0000 0.0000
# 5 0.0000 0.0000 0.0000 0.0000 11.5747 0.0000
# 6 0.0000 0.0000 0.0000 0.0000 0.0000 16.0869
#
#
#
# Elastic Compliance Matrix: (Units=1/GPa)
#
#
# Indices 1 2 3 4 5 6 
#
# 1 0.023675 -0.007406 -0.005181 0.000000 0.000000 0.000000
# 2 -0.007406 0.023675 -0.005181 0.000000 0.000000 0.000000
# 3 -0.005181 -0.005181 0.012990 0.000000 0.000000 0.000000
# 4 0.000000 0.000000 0.000000 0.086395 0.000000 0.000000
# 5 0.000000 0.000000 0.000000 0.000000 0.086395 0.000000
# 6 0.000000 0.000000 0.000000 0.000000 0.000000 0.062162
#
#
# Mechanical properties :
#
#
# Convention : Reuss Voigt Hill
#
# Bulk Modulus (GPa) = 40.31431 44.38209 42.34820
# Shear Modulus (GPa) = 14.74505 16.30929 15.52717
#
# Velocity S-wave (km/s) = 2.91565 3.06640 2.99197
# Velocity P-wave (km/s) = 5.88023 6.17453 6.02918
#
# Compressibility (1/GPa) = 0.02480509
#
# Stress axis : x y z
#
# Youngs Moduli (GPa) = 42.23794 42.23794 76.98358
#
# Poissons Ratio (x) = 0.31281 0.39885
# Poissons Ratio (y) = 0.31281 0.39885
# Poissons Ratio (z) = 0.21883 0.21883
#
# Static dielectric constant tensor:
#      x y z
#    x 2.990690 0.000000 0.000000 
#    y 0.000000 2.990690 0.000000 
#    z 0.000000 0.000000 3.722740 
# 
# 
# High freq. dielectric constant tensor:
#      x y z
#    x 1.631150 0.000000 0.000000 
#    y 0.000000 1.631150 0.000000 
#    z 0.000000 0.000000 1.685770 
# 
# From -- ./inp_files/3500.got.cif
#   From: 2010.03.12/outbox.cif.g09.slc.cpg/sg189_2_cif.got.tgz:3500.got - 2010.04.01 12:03:36.
