data_PCOD8327518
_publ_section_title
;
Structure prediction by ZEFSAII (Michael W. Deem and Ramdas Pophale) SiO2 
 PCOD8327518
Probable space group: P -6 2 M
;
_chemical_formula_sum "Si O2"
_cell_formula_units_Z 60
_cell_length_a 15.073926
_cell_length_b 15.073926
_cell_length_c 19.005230
_cell_angle_alpha 90.000000
_cell_angle_beta 90.000000
_cell_angle_gamma 120.000000
_cell_volume 3739.870114
_symmetry_space_group_name_H-M "P -6 2 M"
_symmetry_group_IT_number 189
_symmetry_cell_setting 'hexagonal'
loop_
_space_group_symop_operation_xyz
x,y,z
-x+y,-x,-z
-y,x-y,z
x,y,-z
-x+y,-x,z
-y,x-y,-z
x-y,-y,-z
-x,-x+y,-z
y,x,-z
y,x,z
x-y,-y,z
-x,-x+y,z
loop_
_atom_site_type_symbol
_atom_site_label
_atom_site_fract_x
_atom_site_fract_y
_atom_site_fract_z
Si Si1 0.538538 0.246209 0.079578
Si Si2 0.282763 0.881634 0.798088
Si Si3 0.120272 0.366707 0.420825
Si Si4 0.880651 0.763271 0.702440
Si Si5 0.775505 0.324988 0.672685
O O1 0.630490 0.219939 0.091784
O O2 0.442689 0.181922 0.130226
O O3 0.496943 0.217963 0.000000
O O4 0.176952 0.869777 0.769536
O O5 0.329112 0.837691 0.741524
O O6 0.364948 0.000000 0.812087
O O7 0.154352 0.359657 0.500000
O O8 0.154482 0.305081 0.368541
O O9 0.170952 0.484782 0.397274
O O10 0.000000 0.321158 0.415002
O O11 0.852516 0.852516 0.693972
O O12 0.000000 0.812162 0.715408
O O13 0.771707 0.430363 0.672774
#
# Coordination Sequence:
#
# PCOD8327518 Si02
#       5
#    12  12  12  12  12
#     4   8  16  31  51  70  97 132 160 188 227 272
#     4  10  18  30  49  72  99 126 157 194 237 278
#     4   9  18  33  49  67  94 122 151 195 247 289
#     4   9  18  32  50  70  92 123 159 196 239 286
#     4   9  18  30  48  65  88 125 162 193 227 279
#
# _framework density 16.043337999999999
#
# number of rings (size 3 to 8) (size 9 to 14) (size 15 to 20)
#    0.800    2.200    0.000    3.200    0.000    1.600 
#    0.000   13.000    0.000    3.000    0.000    0.000 
#    0.000    1.600    0.000    0.000    0.000    0.000 
#
# Total GULP energy -743543.713272 kJ/mol
# GULP energy per Si atom -12392.395221 kJ/mol
# Density = 1.600682 g / cm^3
# Si number density = 16.043338 Si / 1000 Ang^3
#
#
#
# Elastic Constant Matrix: (Units=GPa)
#
#
# Indices 1 2 3 4 5 6 
#
# 1 58.7566 16.3591 44.5160 0.0000 0.0000 0.0000
# 2 16.3591 58.7566 44.5160 0.0000 0.0000 0.0000
# 3 44.5160 44.5160 117.2097 0.0000 0.0000 0.0000
# 4 0.0000 0.0000 0.0000 22.0385 0.0000 0.0000
# 5 0.0000 0.0000 0.0000 0.0000 22.0385 0.0000
# 6 0.0000 0.0000 0.0000 0.0000 0.0000 21.1987
#
#
#
# Elastic Compliance Matrix: (Units=1/GPa)
#
#
# Indices 1 2 3 4 5 6 
#
# 1 0.023899 0.000313 -0.009196 0.000000 0.000000 0.000000
# 2 0.000313 0.023899 -0.009196 0.000000 0.000000 0.000000
# 3 -0.009196 -0.009196 0.015517 0.000000 0.000000 0.000000
# 4 0.000000 0.000000 0.000000 0.045375 0.000000 0.000000
# 5 0.000000 0.000000 0.000000 0.000000 0.045375 0.000000
# 6 0.000000 0.000000 0.000000 0.000000 0.000000 0.047173
#
#
# Mechanical properties :
#
#
# Convention : Reuss Voigt Hill
#
# Bulk Modulus (GPa) = 36.82131 49.50056 43.16093
# Shear Modulus (GPa) = 20.28826 21.67727 20.98276
#
# Velocity S-wave (km/s) = 3.55997 3.67981 3.62039
# Velocity P-wave (km/s) = 6.31655 6.99828 6.66614
#
# Compressibility (1/GPa) = 0.02715819
#
# Stress axis : x y z
#
# Youngs Moduli (GPa) = 41.84233 41.84233 64.44647
#
# Poissons Ratio (x) = -0.01309 0.59263
# Poissons Ratio (y) = -0.01309 0.59263
# Poissons Ratio (z) = 0.38477 0.38477
#
# Static dielectric constant tensor:
#      x y z
#    x 2.892110 0.000000 0.000000 
#    y 0.000000 2.892110 0.000000 
#    z 0.000000 0.000000 3.110350 
# 
# 
# High freq. dielectric constant tensor:
#      x y z
#    x 1.601330 0.000000 0.000000 
#    y 0.000000 1.601330 0.000000 
#    z 0.000000 0.000000 1.616990 
# 
# From -- ./inp_files/3389.got.cif
#   From: 2010.03.12/outbox.cif.g09.slc.cpg/sg189_2_cif.got.tgz:3389.got - 2010.04.01 12:03:36.
