data_PCOD8327104
_publ_section_title
;
Structure prediction by ZEFSAII (Michael W. Deem and Ramdas Pophale) SiO2 
 PCOD8327104
Probable space group: P -6 M 2
;
_chemical_formula_sum "Si O2"
_cell_formula_units_Z 60
_cell_length_a 12.469778
_cell_length_b 12.469778
_cell_length_c 25.941960
_cell_angle_alpha 90.000000
_cell_angle_beta 90.000000
_cell_angle_gamma 120.000000
_cell_volume 3493.420469
_symmetry_space_group_name_H-M "P -6 M 2"
_symmetry_group_IT_number 187
_symmetry_cell_setting 'hexagonal'
loop_
_space_group_symop_operation_xyz
x,y,z
-x+y,-x,-z
-y,x-y,z
x,y,-z
-x+y,-x,z
-y,x-y,-z
-y,-x,-z
-x+y,y,-z
x,x-y,-z
-x+y,y,z
x,x-y,z
-y,-x,z
loop_
_atom_site_type_symbol
_atom_site_label
_atom_site_fract_x
_atom_site_fract_y
_atom_site_fract_z
Si Si1 0.251733 0.250573 0.000000
Si Si2 0.750119 0.999699 0.804668
Si Si3 0.000458 0.746985 0.611516
Si Si4 0.916184 0.584354 0.902366
Si Si5 0.248443 0.248871 0.500000
Si Si6 0.084136 0.416760 0.706722
O O1 0.328778 0.320674 0.050314
O O2 0.216432 0.108216 0.000000
O O3 0.127650 0.255299 0.000000
O O4 0.889541 0.110460 0.799659
O O5 0.676567 0.022751 0.849545
O O6 0.754488 0.877244 0.818373
O O7 0.680995 0.988074 0.751461
O O8 0.872820 0.745639 0.621325
O O9 0.001591 0.688298 0.554703
O O10 0.016432 0.661235 0.653092
O O11 0.111787 0.888214 0.616911
O O12 0.772972 0.545944 0.905644
O O13 0.926026 0.463013 0.905334
O O14 0.230428 0.115214 0.500000
O O15 0.112916 0.225831 0.500000
O O16 0.227660 0.455320 0.705044
O O17 0.074831 0.537416 0.717055
#
# Coordination Sequence:
#
# PCOD8327104 Si02
#       6
#     6  12  12  12   6  12
#     4  10  20  34  54  78 104 134 168 210 256 298
#     4  10  20  34  54  78 102 126 154 195 245 294
#     4   9  16  27  46  71  97 122 150 190 239 289
#     4  10  20  34  53  76 103 135 169 203 238 281
#     4   8  13  22  39  66  96 122 148 182 232 288
#     4  10  20  33  48  66  92 127 164 198 232 276
#
# _framework density 17.175144
#
# number of rings (size 3 to 8) (size 9 to 14) (size 15 to 20)
#    0.000    2.400    0.000    3.100    0.000    1.600 
#    0.000    5.500    0.000   11.200    0.000    1.400 
#    0.000    0.000    0.000    0.000    0.000    0.000 
#
# Total GULP energy -743773.694595 kJ/mol
# GULP energy per Si atom -12396.228243 kJ/mol
# Density = 1.713605 g / cm^3
# Si number density = 17.175144 Si / 1000 Ang^3
#
#
#
# Elastic Constant Matrix: (Units=GPa)
#
#
# Indices 1 2 3 4 5 6 
#
# 1 91.0707 55.2272 46.0844 0.0000 0.0000 0.0000
# 2 55.2272 91.0707 46.0844 0.0000 0.0000 0.0000
# 3 46.0844 46.0844 125.9573 0.0000 0.0000 0.0000
# 4 0.0000 0.0000 0.0000 14.9003 0.0000 0.0000
# 5 0.0000 0.0000 0.0000 0.0000 14.9003 0.0000
# 6 0.0000 0.0000 0.0000 0.0000 0.0000 17.9217
#
#
#
# Elastic Compliance Matrix: (Units=1/GPa)
#
#
# Indices 1 2 3 4 5 6 
#
# 1 0.018391 -0.009508 -0.003250 0.000000 0.000000 0.000000
# 2 -0.009508 0.018391 -0.003250 0.000000 0.000000 0.000000
# 3 -0.003250 -0.003250 0.010317 0.000000 0.000000 0.000000
# 4 0.000000 0.000000 0.000000 0.067113 0.000000 0.000000
# 5 0.000000 0.000000 0.000000 0.000000 0.067113 0.000000
# 6 0.000000 0.000000 0.000000 0.000000 0.000000 0.055798
#
#
# Mechanical properties :
#
#
# Convention : Reuss Voigt Hill
#
# Bulk Modulus (GPa) = 66.29924 66.98785 66.64355
# Shear Modulus (GPa) = 18.23706 20.25798 19.24752
#
# Velocity S-wave (km/s) = 3.26211 3.43810 3.35126
# Velocity P-wave (km/s) = 7.27146 7.40596 7.33902
#
# Compressibility (1/GPa) = 0.01508313
#
# Stress axis : x y z
#
# Youngs Moduli (GPa) = 54.37440 54.37440 96.92384
#
# Poissons Ratio (x) = 0.51700 0.31500
# Poissons Ratio (y) = 0.51700 0.31500
# Poissons Ratio (z) = 0.17672 0.17672
#
# Static dielectric constant tensor:
#      x y z
#    x 3.006700 0.000000 0.000000 
#    y 0.000000 3.006700 0.000000 
#    z 0.000000 0.000000 3.711940 
# 
# 
# High freq. dielectric constant tensor:
#      x y z
#    x 1.648360 0.000000 0.000000 
#    y 0.000000 1.648360 0.000000 
#    z 0.000000 0.000000 1.690660 
# 
# From -- ./inp_files/4165.got.cif
#   From: 2010.03.12/outbox.cif.g09.slc.cpg/sg187_3_cif.got.tgz:4165.got - 2010.04.01 11:58:23.
