data_PCOD8327482
_publ_section_title
;
Structure prediction by ZEFSAII (Michael W. Deem and Ramdas Pophale) SiO2 
 PCOD8327482
Probable space group: P -6 2 M
;
_chemical_formula_sum "Si O2"
_cell_formula_units_Z 96
_cell_length_a 18.050956
_cell_length_b 18.050956
_cell_length_c 19.312273
_cell_angle_alpha 90.000000
_cell_angle_beta 90.000000
_cell_angle_gamma 120.000000
_cell_volume 5449.597649
_symmetry_space_group_name_H-M "P -6 2 M"
_symmetry_group_IT_number 189
_symmetry_cell_setting 'hexagonal'
loop_
_space_group_symop_operation_xyz
x,y,z
-x+y,-x,-z
-y,x-y,z
x,y,-z
-x+y,-x,z
-y,x-y,-z
x-y,-y,-z
-x,-x+y,-z
y,x,-z
y,x,z
x-y,-y,z
-x,-x+y,z
loop_
_atom_site_type_symbol
_atom_site_label
_atom_site_fract_x
_atom_site_fract_y
_atom_site_fract_z
Si Si1 0.351980 0.449265 0.809267
Si Si2 0.839406 0.501915 0.653847
Si Si3 0.678873 0.776631 0.321403
Si Si4 0.839232 0.205642 0.835090
Si Si5 0.770115 0.098852 0.577617
Si Si6 0.334184 0.827106 0.331984
Si Si7 0.901936 0.388032 0.812600
Si Si8 0.097339 0.901794 0.080578
O O1 0.373518 0.373518 0.817846
O O2 0.347777 0.465206 0.728206
O O3 0.262512 0.419720 0.846742
O O4 0.426721 0.536086 0.846905
O O5 0.885946 0.578689 0.599772
O O6 0.738622 0.468540 0.655370
O O7 0.849317 0.421689 0.628175
O O8 0.752945 0.752945 0.319069
O O9 0.659773 0.798343 0.245128
O O10 0.708424 0.857860 0.370620
O O11 0.591168 0.699285 0.354014
O O12 0.877718 0.304728 0.860273
O O13 0.879779 0.161534 0.880242
O O14 0.798726 0.135086 0.500000
O O15 0.739565 0.000000 0.579958
O O16 0.353253 0.836163 0.250579
O O17 0.000000 0.427698 0.786789
O O18 0.000000 0.843396 0.107451
O O19 0.125141 0.000000 0.094802
O O20 0.103208 0.885311 0.000000
#
# Coordination Sequence:
#
# PCOD8327482 Si02
#       8
#    12  12  12  12  12  12  12  12
#     4  10  18  28  46  74 103 133 170 216 261 299
#     4  10  17  29  47  69  99 131 166 205 247 298
#     4  10  20  34  52  76 101 130 168 216 265 311
#     4  11  18  33  53  80 107 142 177 221 262 316
#     4  10  21  36  52  70  94 127 168 212 262 319
#     4   9  16  27  44  71  97 129 160 201 246 291
#     4   9  17  28  43  69 104 133 165 210 257 298
#     4  10  21  36  56  82 113 147 181 220 270 332
#
# _framework density 17.615978999999999
#
# number of rings (size 3 to 8) (size 9 to 14) (size 15 to 20)
#    0.000    2.125    3.750    3.375    0.000    2.750 
#    0.750    2.500    0.000    1.000    0.000    3.500 
#    0.000    0.000    0.000    0.000    0.000    0.000 
#
# Total GULP energy -1189771.802681 kJ/mol
# GULP energy per Si atom -12393.456278 kJ/mol
# Density = 1.757588 g / cm^3
# Si number density = 17.615979 Si / 1000 Ang^3
#
#
#
# Elastic Constant Matrix: (Units=GPa)
#
#
# Indices 1 2 3 4 5 6 
#
# 1 103.5208 45.5922 29.7149 0.0000 0.0000 0.0000
# 2 45.5922 103.5208 29.7149 0.0000 0.0000 0.0000
# 3 29.7149 29.7149 37.7914 0.0000 0.0000 0.0000
# 4 0.0000 0.0000 0.0000 15.2993 0.0000 0.0000
# 5 0.0000 0.0000 0.0000 0.0000 15.2993 0.0000
# 6 0.0000 0.0000 0.0000 0.0000 0.0000 28.9643
#
#
#
# Elastic Compliance Matrix: (Units=1/GPa)
#
#
# Indices 1 2 3 4 5 6 
#
# 1 0.013515 -0.003748 -0.007680 0.000000 0.000000 0.000000
# 2 -0.003748 0.013515 -0.007680 0.000000 0.000000 0.000000
# 3 -0.007680 -0.007680 0.038538 0.000000 0.000000 0.000000
# 4 0.000000 0.000000 0.000000 0.065362 0.000000 0.000000
# 5 0.000000 0.000000 0.000000 0.000000 0.065362 0.000000
# 6 0.000000 0.000000 0.000000 0.000000 0.000000 0.034525
#
#
# Mechanical properties :
#
#
# Convention : Reuss Voigt Hill
#
# Bulk Modulus (GPa) = 36.55874 50.54186 43.55030
# Shear Modulus (GPa) = 17.97590 21.23333 19.60462
#
# Velocity S-wave (km/s) = 3.19789 3.47557 3.33962
# Velocity P-wave (km/s) = 5.86801 6.69771 6.29654
#
# Compressibility (1/GPa) = 0.02735324
#
# Stress axis : x y z
#
# Youngs Moduli (GPa) = 73.99255 73.99255 25.94841
#
# Poissons Ratio (x) = 0.27731 0.19928
# Poissons Ratio (y) = 0.27731 0.19928
# Poissons Ratio (z) = 0.56824 0.56824
#
# Static dielectric constant tensor:
#      x y z
#    x 3.527200 0.000000 0.000000 
#    y 0.000000 3.527200 0.000000 
#    z 0.000000 0.000000 2.841160 
# 
# 
# High freq. dielectric constant tensor:
#      x y z
#    x 1.692190 0.000000 0.000000 
#    y 0.000000 1.692190 0.000000 
#    z 0.000000 0.000000 1.622870 
# 
# From -- ./inp_files/3530.got.cif
#   From: 2010.03.12/outbox.cif.g09.slc.cpg/sg189_2_cif.got.tgz:3530.got - 2010.04.01 12:03:36.
