data_PCOD8327841
_publ_section_title
;
Structure prediction by ZEFSAII (Michael W. Deem and Ramdas Pophale) SiO2 
 PCOD8327841
Probable space group: P -6 2 M
;
_chemical_formula_sum "Si O2"
_cell_formula_units_Z 72
_cell_length_a 22.851462
_cell_length_b 22.851462
_cell_length_c 8.796882
_cell_angle_alpha 90.000000
_cell_angle_beta 90.000000
_cell_angle_gamma 120.000000
_cell_volume 3978.207022
_symmetry_space_group_name_H-M "P -6 2 M"
_symmetry_group_IT_number 189
_symmetry_cell_setting 'hexagonal'
loop_
_space_group_symop_operation_xyz
x,y,z
-x+y,-x,-z
-y,x-y,z
x,y,-z
-x+y,-x,z
-y,x-y,-z
x-y,-y,-z
-x,-x+y,-z
y,x,-z
y,x,z
x-y,-y,z
-x,-x+y,z
loop_
_atom_site_type_symbol
_atom_site_label
_atom_site_fract_x
_atom_site_fract_y
_atom_site_fract_z
Si Si1 0.076642 0.806184 0.674234
Si Si2 0.151390 0.076044 0.170905
Si Si3 0.479034 0.771187 0.678656
Si Si4 0.662714 0.584862 0.318862
Si Si5 0.387301 0.185094 0.176889
Si Si6 0.622660 0.438437 0.677037
O O1 0.095520 0.802368 0.500000
O O2 0.083808 0.878442 0.703945
O O3 0.127820 0.800297 0.786557
O O4 0.000000 0.747013 0.710335
O O5 0.087615 0.087615 0.176430
O O6 0.127670 0.000000 0.216447
O O7 0.182741 0.092303 0.000000
O O8 0.494971 0.785375 0.500000
O O9 0.547680 0.801116 0.770442
O O10 0.436893 0.691076 0.709654
O O11 0.438299 0.807079 0.744540
O O12 0.665795 0.586275 0.500000
O O13 0.622313 0.622313 0.259898
O O14 0.739826 0.622377 0.259607
O O15 0.625925 0.506786 0.257677
O O16 0.390821 0.173507 0.000000
O O17 0.609685 0.437369 0.500000
#
# Coordination Sequence:
#
# PCOD8327841 Si02
#       6
#    12  12  12  12  12  12
#     4  10  21  37  55  73  94 124 165 212 257 297
#     4   9  17  30  49  73 100 128 156 189 235 293
#     4   9  16  30  52  78 107 135 167 206 247 294
#     4   9  18  34  55  78 105 137 174 216 258 301
#     4  11  22  35  52  74 102 136 172 209 253 306
#     4   8  14  26  49  77 102 132 168 207 250 294
#
# _framework density 18.098607000000001
#
# number of rings (size 3 to 8) (size 9 to 14) (size 15 to 20)
#    0.000    2.667    0.000    3.500    0.000    4.333 
#    0.000    4.167    0.000    4.000    0.000    0.000 
#    0.000    0.000    0.000    0.000    0.000    0.000 
#
# Total GULP energy -892352.081792 kJ/mol
# GULP energy per Si atom -12393.778914 kJ/mol
# Density = 1.805741 g / cm^3
# Si number density = 18.098607 Si / 1000 Ang^3
#
#
#
# Elastic Constant Matrix: (Units=GPa)
#
#
# Indices 1 2 3 4 5 6 
#
# 1 113.2827 54.3936 28.1829 0.0000 0.0000 0.0000
# 2 54.3936 113.2827 28.1829 0.0000 0.0000 0.0000
# 3 28.1829 28.1829 40.3266 0.0000 0.0000 0.0000
# 4 0.0000 0.0000 0.0000 12.7016 0.0000 0.0000
# 5 0.0000 0.0000 0.0000 0.0000 12.7016 0.0000
# 6 0.0000 0.0000 0.0000 0.0000 0.0000 29.4446
#
#
#
# Elastic Compliance Matrix: (Units=1/GPa)
#
#
# Indices 1 2 3 4 5 6 
#
# 1 0.012388 -0.004593 -0.005448 0.000000 0.000000 0.000000
# 2 -0.004593 0.012388 -0.005448 0.000000 0.000000 0.000000
# 3 -0.005448 -0.005448 0.032412 0.000000 0.000000 0.000000
# 4 0.000000 0.000000 0.000000 0.078730 0.000000 0.000000
# 5 0.000000 0.000000 0.000000 0.000000 0.078730 0.000000
# 6 0.000000 0.000000 0.000000 0.000000 0.000000 0.033962
#
#
# Mechanical properties :
#
#
# Convention : Reuss Voigt Hill
#
# Bulk Modulus (GPa) = 38.15154 54.26789 46.20971
# Shear Modulus (GPa) = 17.34154 21.37840 19.35997
#
# Velocity S-wave (km/s) = 3.09879 3.44061 3.27417
# Velocity P-wave (km/s) = 5.82485 6.77004 6.31515
#
# Compressibility (1/GPa) = 0.02621126
#
# Stress axis : x y z
#
# Youngs Moduli (GPa) = 80.72243 80.72243 30.85271
#
# Poissons Ratio (x) = 0.37075 0.16808
# Poissons Ratio (y) = 0.37075 0.16808
# Poissons Ratio (z) = 0.43976 0.43976
#
# Static dielectric constant tensor:
#      x y z
#    x 3.099070 0.000000 0.000000 
#    y 0.000000 3.099070 0.000000 
#    z 0.000000 0.000000 3.096380 
# 
# 
# High freq. dielectric constant tensor:
#      x y z
#    x 1.697310 0.000000 0.000000 
#    y 0.000000 1.697310 0.000000 
#    z 0.000000 0.000000 1.677990 
# 
# From -- ./inp_files/1242.got.cif
#   From: 2010.03.12/outbox.cif.g09.slc.cpg/sg189_1_cif.got.tgz:1242.got - 2010.04.01 12:03:36.
