data_PCOD8327040
_publ_section_title
;
Structure prediction by ZEFSAII (Michael W. Deem and Ramdas Pophale) SiO2 
 PCOD8327040
Probable space group: P -6 M 2
;
_chemical_formula_sum "Si O2"
_cell_formula_units_Z 72
_cell_length_a 12.608288
_cell_length_b 12.608288
_cell_length_c 30.491176
_cell_angle_alpha 90.000000
_cell_angle_beta 90.000000
_cell_angle_gamma 120.000000
_cell_volume 4197.754612
_symmetry_space_group_name_H-M "P -6 M 2"
_symmetry_group_IT_number 187
_symmetry_cell_setting 'hexagonal'
loop_
_space_group_symop_operation_xyz
x,y,z
-x+y,-x,-z
-y,x-y,z
x,y,-z
-x+y,-x,z
-y,x-y,-z
-y,-x,-z
-x+y,y,-z
x,x-y,-z
-x+y,y,z
x,x-y,z
-y,-x,z
loop_
_atom_site_type_symbol
_atom_site_label
_atom_site_fract_x
_atom_site_fract_y
_atom_site_fract_z
Si Si1 0.089081 0.666688 0.077341
Si Si2 0.668633 0.582071 0.500000
Si Si3 0.752733 0.752791 0.000000
Si Si4 0.088586 0.421647 0.176652
Si Si5 0.085745 0.666439 0.664206
Si Si6 0.665253 0.578709 0.745880
Si Si7 0.751569 0.999716 0.582123
O O1 0.079225 0.539613 0.065710
O O2 0.229329 0.770672 0.070526
O O3 0.046439 0.669844 0.126964
O O4 0.001110 0.683213 0.043902
O O5 0.536837 0.463164 0.500000
O O6 0.770689 0.541378 0.500000
O O7 0.680683 0.661343 0.457541
O O8 0.877923 0.755845 0.000000
O O9 0.780123 0.890062 0.000000
O O10 0.204508 0.409016 0.190277
O O11 0.127450 0.563725 0.182034
O O12 0.974602 0.336368 0.207627
O O13 0.092315 0.546158 0.652484
O O14 0.222526 0.777475 0.670223
O O15 0.012794 0.651442 0.708672
O O16 0.014358 0.690622 0.625861
O O17 0.797272 0.594543 0.738151
O O18 0.564768 0.435233 0.744844
O O19 0.887143 0.112858 0.587976
O O20 0.761721 0.880861 0.571892
#
# Coordination Sequence:
#
# PCOD8327040 Si02
#       7
#    12   6   6  12  12  12  12
#     4   9  17  30  50  75  98 120 150 193 244 290
#     4  10  20  34  52  74 100 130 166 208 252 294
#     4  10  20  32  46  64  90 126 164 198 232 276
#     4   9  17  30  50  75 100 124 152 191 240 291
#     4  10  20  34  53  76 101 129 162 203 250 297
#     4  10  20  33  49  69  95 128 165 202 238 280
#     4  10  20  34  53  76 103 135 169 204 243 291
#
# _framework density 17.152025999999999
#
# number of rings (size 3 to 8) (size 9 to 14) (size 15 to 20)
#    0.000    2.333    0.000    3.000    0.000    2.000 
#    0.000    3.333    0.000   12.667    0.000    0.000 
#    0.000    0.000    0.000    0.000    0.000    0.000 
#
# Total GULP energy -892973.532408 kJ/mol
# GULP energy per Si atom -12402.410172 kJ/mol
# Density = 1.711299 g / cm^3
# Si number density = 17.152026 Si / 1000 Ang^3
#
#
#
# Elastic Constant Matrix: (Units=GPa)
#
#
# Indices 1 2 3 4 5 6 
#
# 1 91.4014 47.2244 51.9280 0.0000 -0.0006 0.0000
# 2 47.2244 91.4014 51.9280 0.0000 0.0006 0.0000
# 3 51.9280 51.9280 110.7114 0.0000 0.0000 0.0000
# 4 0.0000 0.0000 0.0000 23.3030 0.0000 0.0006
# 5 -0.0006 0.0006 0.0000 0.0000 23.3030 0.0000
# 6 0.0000 0.0000 0.0000 0.0006 0.0000 22.0885
#
#
#
# Elastic Compliance Matrix: (Units=1/GPa)
#
#
# Indices 1 2 3 4 5 6 
#
# 1 0.016879 -0.005757 -0.005217 0.000000 0.000001 0.000000
# 2 -0.005757 0.016879 -0.005217 0.000000 -0.000001 0.000000
# 3 -0.005217 -0.005217 0.013926 0.000000 0.000000 0.000000
# 4 0.000000 0.000000 0.000000 0.042913 0.000000 -0.000001
# 5 0.000001 -0.000001 0.000000 0.000000 0.042913 0.000000
# 6 0.000000 0.000000 0.000000 -0.000001 0.000000 0.045272
#
#
# Mechanical properties :
#
#
# Convention : Reuss Voigt Hill
#
# Bulk Modulus (GPa) = 65.34491 66.18611 65.76551
# Shear Modulus (GPa) = 23.11985 23.23447 23.17716
#
# Velocity S-wave (km/s) = 3.67541 3.68451 3.67996
# Velocity P-wave (km/s) = 7.49611 7.53475 7.51546
#
# Compressibility (1/GPa) = 0.01530341
#
# Stress axis : x y z
#
# Youngs Moduli (GPa) = 59.24506 59.24506 71.80777
#
# Poissons Ratio (x) = 0.34109 0.37459
# Poissons Ratio (y) = 0.34109 0.37459
# Poissons Ratio (z) = 0.30906 0.30906
#
# Static dielectric constant tensor:
#      x y z
#    x 3.092870 0.000000 0.000000 
#    y 0.000000 3.092870 0.000000 
#    z 0.000000 0.000000 3.476190 
# 
# 
# High freq. dielectric constant tensor:
#      x y z
#    x 1.657780 0.000000 0.000000 
#    y 0.000000 1.657780 0.000000 
#    z 0.000000 0.000000 1.679490 
# 
# From -- ./inp_files/4604.got.cif
#   From: 2010.03.12/outbox.cif.g09.slc.cpg/sg187_3_cif.got.tgz:4604.got - 2010.04.01 11:58:23.
