data_PCOD8327396
_publ_section_title
;
Structure prediction by ZEFSAII (Michael W. Deem and Ramdas Pophale) SiO2 
 PCOD8327396
Probable space group: P -6 C 2
;
_chemical_formula_sum "Si O2"
_cell_formula_units_Z 76
_cell_length_a 16.992027
_cell_length_b 16.992027
_cell_length_c 16.972124
_cell_angle_alpha 90.000000
_cell_angle_beta 90.000000
_cell_angle_gamma 120.000000
_cell_volume 4243.822458
_symmetry_space_group_name_H-M "P -6 C 2"
_symmetry_group_IT_number 188
_symmetry_cell_setting 'hexagonal'
loop_
_space_group_symop_operation_xyz
x,y,z
-x+y,-x,1/2-z
-y,x-y,z
x,y,1/2-z
-x+y,-x,z
-y,x-y,1/2-z
-y,-x,-z
-x+y,y,-z
x,x-y,-z
-x+y,y,1/2+z
x,x-y,1/2+z
-y,-x,1/2+z
loop_
_atom_site_type_symbol
_atom_site_label
_atom_site_fract_x
_atom_site_fract_y
_atom_site_fract_z
Si Si1 0.032050 0.482553 0.660372
Si Si2 0.148354 0.147783 0.446697
Si Si3 0.745813 0.222004 0.160509
Si Si4 0.309163 0.280055 0.159263
Si Si5 0.855311 0.409207 0.410446
Si Si6 0.392165 0.610050 0.589097
Si Si7 0.000000 0.000000 0.657039
O O1 0.002802 0.482850 0.750000
O O2 0.133831 0.564648 0.648114
O O3 0.026904 0.387391 0.641060
O O4 0.963094 0.497473 0.606138
O O5 0.181655 0.090828 0.500000
O O6 0.231091 0.235339 0.406410
O O7 0.089009 0.178018 0.500000
O O8 0.090277 0.086566 0.374092
O O9 0.767517 0.254514 0.250000
O O10 0.758419 0.135781 0.145331
O O11 0.643050 0.197126 0.143195
O O12 0.817994 0.303509 0.106483
O O13 0.273032 0.261084 0.250000
O O14 0.834465 0.417233 0.500000
O O15 0.436265 0.719299 0.602984
O O16 0.409834 0.590167 0.500000
O O17 0.000000 0.000000 0.750000
#
# Coordination Sequence:
#
# PCOD8327396 Si02
#       7
#    12  12  12  12  12  12   4
#     4  10  20  34  53  77 104 141 178 216 261 313
#     4   9  18  32  49  76 101 124 167 213 257 312
#     4  10  20  35  53  75 105 145 181 222 263 310
#     4   9  19  34  52  73 104 140 174 210 261 318
#     4  11  21  33  52  78 108 142 186 222 263 311
#     4   8  17  35  56  78 101 129 168 214 264 318
#     4   9  16  29  55  72  91 131 166 204 250 302
#
# _framework density 17.908383000000001
#
# number of rings (size 3 to 8) (size 9 to 14) (size 15 to 20)
#    0.316    2.211    0.000    4.737    0.000    3.158 
#    2.842    0.000    3.474    0.000    0.000    0.000 
#    0.000    0.000    0.000    0.000    0.000    0.000 
#
# Total GULP energy -942180.771904 kJ/mol
# GULP energy per Si atom -12397.115420 kJ/mol
# Density = 1.786762 g / cm^3
# Si number density = 17.908383 Si / 1000 Ang^3
#
#
#
# Elastic Constant Matrix: (Units=GPa)
#
#
# Indices 1 2 3 4 5 6 
#
# 1 74.0264 36.4249 31.5011 0.0000 0.0000 0.0000
# 2 36.4249 74.0264 31.5011 0.0000 0.0000 0.0000
# 3 31.5011 31.5011 91.8939 0.0000 0.0000 0.0000
# 4 0.0000 0.0000 0.0000 28.2972 0.0000 0.0000
# 5 0.0000 0.0000 0.0000 0.0000 28.2972 0.0000
# 6 0.0000 0.0000 0.0000 0.0000 0.0000 18.8008
#
#
#
# Elastic Compliance Matrix: (Units=1/GPa)
#
#
# Indices 1 2 3 4 5 6 
#
# 1 0.018925 -0.007670 -0.003858 0.000000 0.000000 0.000000
# 2 -0.007670 0.018925 -0.003858 0.000000 0.000000 0.000000
# 3 -0.003858 -0.003858 0.013527 0.000000 0.000000 0.000000
# 4 0.000000 0.000000 0.000000 0.035339 0.000000 0.000000
# 5 0.000000 0.000000 0.000000 0.000000 0.035339 0.000000
# 6 0.000000 0.000000 0.000000 0.000000 0.000000 0.053189
#
#
# Mechanical properties :
#
#
# Convention : Reuss Voigt Hill
#
# Bulk Modulus (GPa) = 48.53436 48.75567 48.64501
# Shear Modulus (GPa) = 23.48696 24.44701 23.96698
#
# Velocity S-wave (km/s) = 3.62540 3.69876 3.66226
# Velocity P-wave (km/s) = 6.68469 6.74724 6.71603
#
# Compressibility (1/GPa) = 0.02060396
#
# Stress axis : x y z
#
# Youngs Moduli (GPa) = 52.84147 52.84147 73.92543
#
# Poissons Ratio (x) = 0.40530 0.28520
# Poissons Ratio (y) = 0.40530 0.28520
# Poissons Ratio (z) = 0.20386 0.20386
#
# Static dielectric constant tensor:
#      x y z
#    x 3.140690 0.000000 0.000000 
#    y 0.000000 3.140690 0.000000 
#    z 0.000000 0.000000 3.297870 
# 
# 
# High freq. dielectric constant tensor:
#      x y z
#    x 1.678360 0.000000 0.000000 
#    y 0.000000 1.678360 0.000000 
#    z 0.000000 0.000000 1.702720 
# 
# From -- ./inp_files/2544.got.cif
#   From: 2010.03.12/outbox.cif.g09.slc.cpg/sg188_2_cif.got.tgz:2544.got - 2010.04.01 12:01:06.
