data_PCOD8327401
_publ_section_title
;
Structure prediction by ZEFSAII (Michael W. Deem and Ramdas Pophale) SiO2 
 PCOD8327401
Probable space group: P -6 C 2
;
_chemical_formula_sum "Si O2"
_cell_formula_units_Z 64
_cell_length_a 15.573122
_cell_length_b 15.573122
_cell_length_c 16.380004
_cell_angle_alpha 90.000000
_cell_angle_beta 90.000000
_cell_angle_gamma 120.000000
_cell_volume 3440.297556
_symmetry_space_group_name_H-M "P -6 C 2"
_symmetry_group_IT_number 188
_symmetry_cell_setting 'hexagonal'
loop_
_space_group_symop_operation_xyz
x,y,z
-x+y,-x,1/2-z
-y,x-y,z
x,y,1/2-z
-x+y,-x,z
-y,x-y,1/2-z
-y,-x,-z
-x+y,y,-z
x,x-y,-z
-x+y,y,1/2+z
x,x-y,1/2+z
-y,-x,1/2+z
loop_
_atom_site_type_symbol
_atom_site_label
_atom_site_fract_x
_atom_site_fract_y
_atom_site_fract_z
Si Si1 0.501018 0.449008 0.156590
Si Si2 0.384095 0.242332 0.422372
Si Si3 0.055853 0.298222 0.003012
Si Si4 0.357700 0.299870 0.843092
Si Si5 0.361879 0.507227 0.073649
Si Si6 0.333335 0.666667 0.653203
O O1 0.491808 0.417109 0.250000
O O2 0.469215 0.351282 0.103327
O O3 0.612608 0.531998 0.133964
O O4 0.429322 0.493026 0.139941
O O5 0.428067 0.214034 0.500000
O O6 0.282286 0.239368 0.448438
O O7 0.357026 0.160902 0.351691
O O8 0.026279 0.305617 0.096360
O O9 0.121805 0.243610 0.000000
O O10 0.126305 0.404329 0.962359
O O11 0.329856 0.310636 0.750000
O O12 0.308804 0.559699 0.119274
O O13 0.428289 0.571712 0.000000
O O14 0.333334 0.666668 0.750000
#
# Coordination Sequence:
#
# PCOD8327401 Si02
#       6
#    12  12  12  12  12   4
#     4  10  20  35  56  82 117 150 186 235 281 329
#     4   9  20  35  58  83 112 148 191 233 282 345
#     4  10  20  36  57  83 108 149 190 230 282 342
#     4  10  20  37  60  85 116 150 189 237 287 342
#     4  11  20  35  53  75 110 151 190 227 276 328
#     4  12  25  35  49  78 115 152 196 237 274 326
#
# _framework density 18.603043
#
# number of rings (size 3 to 8) (size 9 to 14) (size 15 to 20)
#    0.000    1.875    1.875    2.812    0.000    0.000 
#    1.125    4.688    0.000   10.125    0.000    0.000 
#    0.000    0.000    0.000    0.000    0.000    0.000 
#
# Total GULP energy -793564.415346 kJ/mol
# GULP energy per Si atom -12399.443990 kJ/mol
# Density = 1.856070 g / cm^3
# Si number density = 18.603043 Si / 1000 Ang^3
#
#
#
# Elastic Constant Matrix: (Units=GPa)
#
#
# Indices 1 2 3 4 5 6 
#
# 1 96.9117 55.3698 49.7737 -0.0006 0.0000 -0.0001
# 2 55.3698 96.9119 49.7738 0.0007 0.0000 0.0003
# 3 49.7737 49.7738 91.3567 0.0001 0.0000 0.0000
# 4 -0.0006 0.0007 0.0001 20.2338 -0.0001 0.0000
# 5 0.0000 0.0000 0.0000 -0.0001 20.2344 -0.0009
# 6 -0.0001 0.0003 0.0000 0.0000 -0.0009 20.7714
#
#
#
# Elastic Compliance Matrix: (Units=1/GPa)
#
#
# Indices 1 2 3 4 5 6 
#
# 1 0.017136 -0.006936 -0.005557 0.000001 0.000000 0.000000
# 2 -0.006936 0.017136 -0.005557 -0.000001 0.000000 0.000000
# 3 -0.005557 -0.005557 0.017001 0.000000 0.000000 0.000000
# 4 0.000001 -0.000001 0.000000 0.049422 0.000000 0.000000
# 5 0.000000 0.000000 0.000000 0.000000 0.049421 0.000002
# 6 0.000000 0.000000 0.000000 0.000000 0.000002 0.048143
#
#
# Mechanical properties :
#
#
# Convention : Reuss Voigt Hill
#
# Bulk Modulus (GPa) = 65.90943 66.11277 66.01110
# Shear Modulus (GPa) = 20.88410 20.93212 20.90811
#
# Velocity S-wave (km/s) = 3.35418 3.35804 3.35611
# Velocity P-wave (km/s) = 7.10683 7.11696 7.11189
#
# Compressibility (1/GPa) = 0.01517234
#
# Stress axis : x y z
#
# Youngs Moduli (GPa) = 58.35769 58.35776 58.81929
#
# Poissons Ratio (x) = 0.40479 0.32685
# Poissons Ratio (y) = 0.40479 0.32685
# Poissons Ratio (z) = 0.32429 0.32429
#
# Static dielectric constant tensor:
#      x y z
#    x 3.832640 -0.000030 0.000000 
#    y -0.000030 3.832370 -0.000010 
#    z 0.000000 -0.000010 3.130090 
# 
# 
# High freq. dielectric constant tensor:
#      x y z
#    x 1.711810 0.000000 0.000000 
#    y 0.000000 1.711810 0.000000 
#    z 0.000000 0.000000 1.730870 
# 
# From -- ./inp_files/3058.got.cif
#   From: 2010.03.12/outbox.cif.g09.slc.cpg/sg188_2_cif.got.tgz:3058.got - 2010.04.01 12:01:06.
