data_PCOD8327662
_publ_section_title
;
Structure prediction by ZEFSAII (Michael W. Deem and Ramdas Pophale) SiO2 
 PCOD8327662
Probable space group: P -6 2 M
;
_chemical_formula_sum "Si O2"
_cell_formula_units_Z 84
_cell_length_a 13.946937
_cell_length_b 13.946937
_cell_length_c 22.864534
_cell_angle_alpha 90.000000
_cell_angle_beta 90.000000
_cell_angle_gamma 120.000000
_cell_volume 3851.684133
_symmetry_space_group_name_H-M "P -6 2 M"
_symmetry_group_IT_number 189
_symmetry_cell_setting 'hexagonal'
loop_
_space_group_symop_operation_xyz
x,y,z
-x+y,-x,-z
-y,x-y,z
x,y,-z
-x+y,-x,z
-y,x-y,-z
x-y,-y,-z
-x,-x+y,-z
y,x,-z
y,x,z
x-y,-y,z
-x,-x+y,z
loop_
_atom_site_type_symbol
_atom_site_label
_atom_site_fract_x
_atom_site_fract_y
_atom_site_fract_z
Si Si1 0.670963 0.131504 0.563689
Si Si2 0.125859 0.574951 0.318947
Si Si3 0.323103 0.449177 0.069037
Si Si4 0.131636 0.472490 0.123404
Si Si5 0.124391 0.875008 0.597312
Si Si6 0.121880 0.242705 0.735911
Si Si7 0.217798 0.479594 0.753930
O O1 0.654584 0.173550 0.500000
O O2 0.621502 0.172469 0.616056
O O3 0.800981 0.175122 0.573173
O O4 0.607318 0.000000 0.565185
O O5 0.207739 0.656076 0.268065
O O6 0.137103 0.468806 0.301617
O O7 0.000000 0.549955 0.313049
O O8 0.356859 0.356859 0.088254
O O9 0.203902 0.422081 0.094977
O O10 0.419576 0.570220 0.088806
O O11 0.314008 0.450894 0.000000
O O12 0.182249 0.518041 0.187795
O O13 0.000000 0.379321 0.125034
O O14 0.120493 0.867274 0.666605
O O15 0.000000 0.829908 0.573232
O O16 0.202111 0.000000 0.574813
O O17 0.155846 0.155846 0.758935
O O18 0.201394 0.359157 0.765870
O O19 0.000000 0.203302 0.758447
#
# Coordination Sequence:
#
# PCOD8327662 Si02
#       7
#    12  12  12  12  12  12  12
#     4   9  18  35  57  77 102 143 192 242 301 360
#     4  11  23  41  61  83 116 155 196 254 312 363
#     4  10  22  41  66  96 130 170 212 254 308 367
#     4  11  23  39  62  96 132 166 207 262 312 361
#     4   9  16  28  49  79 112 146 184 230 288 354
#     4  10  19  33  54  83 118 156 195 237 289 356
#     4  12  23  38  60  89 119 158 205 243 299 364
#
# _framework density 21.80864
#
# number of rings (size 3 to 8) (size 9 to 14) (size 15 to 20)
#    0.000    1.714    1.429    3.857    0.000    4.571 
#    0.000    0.714    0.000    1.143    0.000    0.000 
#    0.000    0.000    0.000    0.000    0.000    0.000 
#
# Total GULP energy -1040862.656824 kJ/mol
# GULP energy per Si atom -12391.222105 kJ/mol
# Density = 2.175900 g / cm^3
# Si number density = 21.808640 Si / 1000 Ang^3
#
#
#
# Elastic Constant Matrix: (Units=GPa)
#
#
# Indices 1 2 3 4 5 6 
#
# 1 83.5781 21.3418 36.8176 0.0000 0.0000 0.0000
# 2 21.3418 83.5781 36.8176 0.0000 0.0000 0.0000
# 3 36.8176 36.8176 105.3587 0.0000 0.0000 0.0000
# 4 0.0000 0.0000 0.0000 23.2042 0.0000 0.0000
# 5 0.0000 0.0000 0.0000 0.0000 23.2042 0.0000
# 6 0.0000 0.0000 0.0000 0.0000 0.0000 31.1181
#
#
#
# Elastic Compliance Matrix: (Units=1/GPa)
#
#
# Indices 1 2 3 4 5 6 
#
# 1 0.014348 -0.001720 -0.004413 0.000000 0.000000 0.000000
# 2 -0.001720 0.014348 -0.004413 0.000000 0.000000 0.000000
# 3 -0.004413 -0.004413 0.012576 0.000000 0.000000 0.000000
# 4 0.000000 0.000000 0.000000 0.043096 0.000000 0.000000
# 5 0.000000 0.000000 0.000000 0.000000 0.043096 0.000000
# 6 0.000000 0.000000 0.000000 0.000000 0.000000 0.032136
#
#
# Mechanical properties :
#
#
# Convention : Reuss Voigt Hill
#
# Bulk Modulus (GPa) = 49.55341 51.38544 50.46942
# Shear Modulus (GPa) = 26.67854 27.34116 27.00985
#
# Velocity S-wave (km/s) = 3.50137 3.54458 3.52304
# Velocity P-wave (km/s) = 6.25439 6.35336 6.30407
#
# Compressibility (1/GPa) = 0.02018024
#
# Stress axis : x y z
#
# Youngs Moduli (GPa) = 69.69625 69.69626 79.51930
#
# Poissons Ratio (x) = 0.11987 0.35091
# Poissons Ratio (y) = 0.11987 0.35091
# Poissons Ratio (z) = 0.30756 0.30756
#
# Static dielectric constant tensor:
#      x y z
#    x 3.933340 0.000000 0.000000 
#    y 0.000000 3.933340 0.000000 
#    z 0.000000 0.000000 4.007110 
# 
# 
# High freq. dielectric constant tensor:
#      x y z
#    x 1.851990 0.000000 0.000000 
#    y 0.000000 1.851990 0.000000 
#    z 0.000000 0.000000 1.845390 
# 
# From -- ./inp_files/3606.got.cif
#   From: 2010.03.12/outbox.cif.g09.slc.cpg/sg189_2_cif.got.tgz:3606.got - 2010.04.01 12:03:36.
