data_PCOD8327533
_publ_section_title
;
Structure prediction by ZEFSAII (Michael W. Deem and Ramdas Pophale) SiO2 
 PCOD8327533
Probable space group: P -6 2 M
;
_chemical_formula_sum "Si O2"
_cell_formula_units_Z 60
_cell_length_a 20.207831
_cell_length_b 20.207831
_cell_length_c 9.252315
_cell_angle_alpha 90.000000
_cell_angle_beta 90.000000
_cell_angle_gamma 120.000000
_cell_volume 3272.053863
_symmetry_space_group_name_H-M "P -6 2 M"
_symmetry_group_IT_number 189
_symmetry_cell_setting 'hexagonal'
loop_
_space_group_symop_operation_xyz
x,y,z
-x+y,-x,-z
-y,x-y,z
x,y,-z
-x+y,-x,z
-y,x-y,-z
x-y,-y,-z
-x,-x+y,-z
y,x,-z
y,x,z
x-y,-y,z
-x,-x+y,z
loop_
_atom_site_type_symbol
_atom_site_label
_atom_site_fract_x
_atom_site_fract_y
_atom_site_fract_z
Si Si1 0.164710 0.413167 0.831913
Si Si2 0.910582 0.152050 0.832876
Si Si3 0.866151 0.534553 0.832983
Si Si4 0.000000 0.823839 0.665351
Si Si5 0.582750 0.496584 0.171251
Si Si6 0.000000 0.667697 0.336419
O O1 0.133821 0.328096 0.767844
O O2 0.255203 0.470013 0.806932
O O3 0.122950 0.455608 0.759381
O O4 0.144111 0.400944 0.000000
O O5 0.000000 0.210395 0.815114
O O6 0.888835 0.075652 0.743928
O O7 0.888096 0.128910 0.000000
O O8 0.863930 0.456666 0.783454
O O9 0.925692 0.604354 0.740473
O O10 0.891321 0.551746 0.000000
O O11 0.000000 0.848862 0.500000
O O12 0.000000 0.745660 0.675051
O O13 0.530754 0.530754 0.230130
O O14 0.589687 0.503796 0.000000
O O15 0.000000 0.642485 0.500000
#
# Coordination Sequence:
#
# PCOD8327533 Si02
#       6
#    12  12  12   6  12   6
#     4   9  17  29  48  77 109 136 169 214 260 306
#     4  10  20  35  57  81 105 137 178 222 263 314
#     4  10  18  31  53  78 104 138 174 213 262 312
#     4  11  23  37  55  79 107 140 173 220 273 317
#     4   9  16  27  46  74 105 133 165 209 260 307
#     4  11  21  33  53  79 105 132 173 224 265 305
#
# _framework density 18.337105000000001
#
# number of rings (size 3 to 8) (size 9 to 14) (size 15 to 20)
#    0.000    2.200    3.000    1.200    0.000    3.600 
#    1.800    0.000    0.000    2.400    0.000    0.000 
#    0.000    0.000    0.000    0.000    0.000    0.000 
#
# Total GULP energy -743802.174828 kJ/mol
# GULP energy per Si atom -12396.702914 kJ/mol
# Density = 1.829537 g / cm^3
# Si number density = 18.337105 Si / 1000 Ang^3
#
#
#
# Elastic Constant Matrix: (Units=GPa)
#
#
# Indices 1 2 3 4 5 6 
#
# 1 130.4258 31.9500 23.0942 0.0000 0.0000 0.0000
# 2 31.9500 130.4258 23.0942 0.0000 0.0000 0.0000
# 3 23.0942 23.0942 47.5173 0.0000 0.0000 0.0000
# 4 0.0000 0.0000 0.0000 3.0094 0.0000 0.0000
# 5 0.0000 0.0000 0.0000 0.0000 3.0094 0.0000
# 6 0.0000 0.0000 0.0000 0.0000 0.0000 49.2379
#
#
#
# Elastic Compliance Matrix: (Units=1/GPa)
#
#
# Indices 1 2 3 4 5 6 
#
# 1 0.008651 -0.001504 -0.003473 0.000000 0.000000 0.000000
# 2 -0.001504 0.008651 -0.003473 0.000000 0.000000 0.000000
# 3 -0.003473 -0.003473 0.024421 0.000000 0.000000 0.000000
# 4 0.000000 0.000000 0.000000 0.332295 0.000000 0.000000
# 5 0.000000 0.000000 0.000000 0.000000 0.332295 0.000000
# 6 0.000000 0.000000 0.000000 0.000000 0.000000 0.020310
#
#
# Mechanical properties :
#
#
# Convention : Reuss Voigt Hill
#
# Bulk Modulus (GPa) = 40.28859 51.62729 45.95794
# Shear Modulus (GPa) = 6.65074 26.40004 16.52539
#
# Velocity S-wave (km/s) = 1.90652 3.79846 3.00525
# Velocity P-wave (km/s) = 5.18316 6.88864 6.09584
#
# Compressibility (1/GPa) = 0.02482093
#
# Stress axis : x y z
#
# Youngs Moduli (GPa) = 115.59803 115.59803 40.94806
#
# Poissons Ratio (x) = 0.17387 0.14223
# Poissons Ratio (y) = 0.17387 0.14223
# Poissons Ratio (z) = 0.40151 0.40151
#
# Static dielectric constant tensor:
#      x y z
#    x 3.148160 0.000000 0.000000 
#    y 0.000000 3.148160 0.000000 
#    z 0.000000 0.000000 3.028590 
# 
# 
# High freq. dielectric constant tensor:
#      x y z
#    x 1.715610 0.000000 0.000000 
#    y 0.000000 1.715610 0.000000 
#    z 0.000000 0.000000 1.657840 
# 
# From -- ./inp_files/911.got.cif
#   From: 2010.03.12/outbox.cif.g09.slc.cpg/sg189_1_cif.got.tgz:911.got - 2010.04.01 12:03:36.
