data_PCOD8327442
_publ_section_title
;
Structure prediction by ZEFSAII (Michael W. Deem and Ramdas Pophale) SiO2 
 PCOD8327442
Probable space group: P -6 C 2
;
_chemical_formula_sum "Si O2"
_cell_formula_units_Z 44
_cell_length_a 12.827927
_cell_length_b 12.827927
_cell_length_c 15.167054
_cell_angle_alpha 90.000000
_cell_angle_beta 90.000000
_cell_angle_gamma 120.000000
_cell_volume 2161.448162
_symmetry_space_group_name_H-M "P -6 C 2"
_symmetry_group_IT_number 188
_symmetry_cell_setting 'hexagonal'
loop_
_space_group_symop_operation_xyz
x,y,z
-x+y,-x,1/2-z
-y,x-y,z
x,y,1/2-z
-x+y,-x,z
-y,x-y,1/2-z
-y,-x,-z
-x+y,y,-z
x,x-y,-z
-x+y,y,1/2+z
x,x-y,1/2+z
-y,-x,1/2+z
loop_
_atom_site_type_symbol
_atom_site_label
_atom_site_fract_x
_atom_site_fract_y
_atom_site_fract_z
Si Si1 0.666667 0.333333 0.355221
Si Si2 0.607511 0.801556 0.250000
Si Si3 0.193927 0.245584 0.916734
Si Si4 0.000000 0.000000 0.855221
Si Si5 0.472741 0.384991 0.583266
Si Si6 0.472621 0.940845 0.750000
O O1 0.666667 0.333334 0.250000
O O2 0.689591 0.460174 0.393847
O O3 0.687716 0.824720 0.164766
O O4 0.562741 0.896075 0.250000
O O5 0.494521 0.666666 0.250000
O O6 0.126841 0.103917 0.893847
O O7 0.333334 0.288667 0.933952
O O8 0.137891 0.275782 0.000000
O O9 0.000000 0.000000 0.750000
O O10 0.528776 0.471225 0.500000
O O11 0.491388 0.470338 0.664766
#
# Coordination Sequence:
#
# PCOD8327442 Si02
#       6
#     4   6  12   4  12   6
#     4  12  25  44  64  94 131 169 214 266 319 382
#     4  10  21  38  62  92 127 166 212 262 318 380
#     4  11  24  43  66  95 129 169 215 265 323 383
#     4  12  25  44  64  94 131 169 214 266 319 382
#     4  11  24  43  66  95 129 169 215 265 323 383
#     4  10  21  38  62  92 127 166 212 262 318 380
#
# _framework density 20.356722000000001
#
# number of rings (size 3 to 8) (size 9 to 14) (size 15 to 20)
#    0.000    1.091    2.727    3.545    0.000    6.545 
#    0.000    0.000    0.000    8.727    0.000    0.000 
#    0.000    0.000    0.000    0.000    0.000    0.000 
#
# Total GULP energy -545841.632484 kJ/mol
# GULP energy per Si atom -12405.491647 kJ/mol
# Density = 2.031039 g / cm^3
# Si number density = 20.356722 Si / 1000 Ang^3
#
#
#
# Elastic Constant Matrix: (Units=GPa)
#
#
# Indices 1 2 3 4 5 6 
#
# 1 134.8744 78.2898 52.2349 0.0000 -0.0001 0.0000
# 2 78.2898 134.8740 52.2349 0.0000 0.0000 -0.0001
# 3 52.2349 52.2349 159.3252 0.0000 -0.0001 0.0000
# 4 0.0000 0.0000 0.0000 28.6365 0.0001 0.0000
# 5 -0.0001 0.0000 -0.0001 0.0001 28.6364 0.0000
# 6 0.0000 -0.0001 0.0000 0.0000 0.0000 28.2920
#
#
#
# Elastic Compliance Matrix: (Units=1/GPa)
#
#
# Indices 1 2 3 4 5 6 
#
# 1 0.011631 -0.006042 -0.001832 0.000000 0.000000 0.000000
# 2 -0.006042 0.011631 -0.001832 0.000000 0.000000 0.000000
# 3 -0.001832 -0.001832 0.007478 0.000000 0.000000 0.000000
# 4 0.000000 0.000000 0.000000 0.034920 0.000000 0.000000
# 5 0.000000 0.000000 0.000000 0.000000 0.034921 0.000000
# 6 0.000000 0.000000 0.000000 0.000000 0.000000 0.035346
#
#
# Mechanical properties :
#
#
# Convention : Reuss Voigt Hill
#
# Bulk Modulus (GPa) = 88.28629 88.28807 88.28718
# Shear Modulus (GPa) = 31.42369 33.53391 32.47880
#
# Velocity S-wave (km/s) = 3.93320 4.06311 3.99868
# Velocity P-wave (km/s) = 8.00565 8.09175 8.04882
#
# Compressibility (1/GPa) = 0.01132679
#
# Stress axis : x y z
#
# Youngs Moduli (GPa) = 85.97722 85.97692 133.72533
#
# Poissons Ratio (x) = 0.51945 0.24504
# Poissons Ratio (y) = 0.51945 0.24505
# Poissons Ratio (z) = 0.15755 0.15755
#
# Static dielectric constant tensor:
#      x y z
#    x 3.692950 0.000000 0.000000 
#    y 0.000000 3.692950 0.000000 
#    z 0.000000 0.000000 3.928800 
# 
# 
# High freq. dielectric constant tensor:
#      x y z
#    x 1.798550 0.000000 0.000000 
#    y 0.000000 1.798550 0.000000 
#    z 0.000000 0.000000 1.823780 
# 
# From -- ./inp_files/2955.got.cif
#   From: 2010.03.12/outbox.cif.g09.slc.cpg/sg188_2_cif.got.tgz:2955.got - 2010.04.01 12:01:06.
