data_PCOD8327541
_publ_section_title
;
Structure prediction by ZEFSAII (Michael W. Deem and Ramdas Pophale) SiO2 
 PCOD8327541
Probable space group: P -6 2 M
;
_chemical_formula_sum "Si O2"
_cell_formula_units_Z 60
_cell_length_a 20.306523
_cell_length_b 20.306523
_cell_length_c 9.121041
_cell_angle_alpha 90.000000
_cell_angle_beta 90.000000
_cell_angle_gamma 120.000000
_cell_volume 3257.213112
_symmetry_space_group_name_H-M "P -6 2 M"
_symmetry_group_IT_number 189
_symmetry_cell_setting 'hexagonal'
loop_
_space_group_symop_operation_xyz
x,y,z
-x+y,-x,-z
-y,x-y,z
x,y,-z
-x+y,-x,z
-y,x-y,-z
x-y,-y,-z
-x,-x+y,-z
y,x,-z
y,x,z
x-y,-y,z
-x,-x+y,z
loop_
_atom_site_type_symbol
_atom_site_label
_atom_site_fract_x
_atom_site_fract_y
_atom_site_fract_z
Si Si1 0.000000 0.332046 0.336664
Si Si2 0.749244 0.249914 0.828937
Si Si3 0.664056 0.800203 0.829297
Si Si4 0.512815 0.512815 0.666140
Si Si5 0.421902 0.578290 0.175478
Si Si6 0.829326 0.915326 0.826095
O O1 0.000000 0.302723 0.500000
O O2 0.073899 0.345694 0.254389
O O3 0.000000 0.409506 0.337625
O O4 0.783277 0.194183 0.794800
O O5 0.803878 0.334741 0.765356
O O6 0.664171 0.210272 0.766537
O O7 0.744682 0.261153 0.000000
O O8 0.740894 0.875761 0.778178
O O9 0.669749 0.785471 0.000000
O O10 0.484577 0.484577 0.500000
O O11 0.451168 0.525800 0.751607
O O12 0.426887 0.572655 0.000000
O O13 0.866708 0.866708 0.764368
O O14 0.873318 0.000000 0.758140
O O15 0.836797 0.920225 0.000000
#
# Coordination Sequence:
#
# PCOD8327541 Si02
#       6
#     6  12  12   6  12  12
#     4  11  21  33  53  79 105 134 175 222 260 304
#     4   9  18  31  53  81 105 132 171 215 264 319
#     4  10  18  32  53  79 105 132 169 215 264 312
#     4  11  23  37  53  79 109 142 185 224 262 318
#     4  10  19  35  57  81 109 140 174 221 275 324
#     4   9  16  26  44  72 104 132 163 206 254 302
#
# _framework density 18.420656000000001
#
# number of rings (size 3 to 8) (size 9 to 14) (size 15 to 20)
#    0.000    2.200    3.000    1.200    0.000    3.200 
#    1.800    2.000    0.000    0.600    0.000    0.000 
#    0.000    0.000    0.000    0.000    0.000    0.000 
#
# Total GULP energy -743744.211950 kJ/mol
# GULP energy per Si atom -12395.736866 kJ/mol
# Density = 1.837873 g / cm^3
# Si number density = 18.420656 Si / 1000 Ang^3
#
#
#
# Elastic Constant Matrix: (Units=GPa)
#
#
# Indices 1 2 3 4 5 6 
#
# 1 135.0127 65.3435 24.9720 0.0000 0.0000 0.0000
# 2 65.3435 135.0127 24.9720 0.0000 0.0000 0.0000
# 3 24.9720 24.9720 36.4571 0.0000 0.0000 0.0000
# 4 0.0000 0.0000 0.0000 7.4068 0.0000 0.0000
# 5 0.0000 0.0000 0.0000 0.0000 7.4068 0.0000
# 6 0.0000 0.0000 0.0000 0.0000 0.0000 34.8346
#
#
#
# Elastic Compliance Matrix: (Units=1/GPa)
#
#
# Indices 1 2 3 4 5 6 
#
# 1 0.010186 -0.004167 -0.004123 0.000000 0.000000 0.000000
# 2 -0.004167 0.010186 -0.004123 0.000000 0.000000 0.000000
# 3 -0.004123 -0.004123 0.033077 0.000000 0.000000 0.000000
# 4 0.000000 0.000000 0.000000 0.135012 0.000000 0.000000
# 5 0.000000 0.000000 0.000000 0.000000 0.135012 0.000000
# 6 0.000000 0.000000 0.000000 0.000000 0.000000 0.028707
#
#
# Mechanical properties :
#
#
# Convention : Reuss Voigt Hill
#
# Bulk Modulus (GPa) = 34.93548 59.67303 47.30425
# Shear Modulus (GPa) = 12.93502 22.67597 17.80549
#
# Velocity S-wave (km/s) = 2.65278 3.51238 3.11240
# Velocity P-wave (km/s) = 5.32819 6.99386 6.21706
#
# Compressibility (1/GPa) = 0.02862420
#
# Stress axis : x y z
#
# Youngs Moduli (GPa) = 98.17238 98.17238 30.23216
#
# Poissons Ratio (x) = 0.40912 0.12464
# Poissons Ratio (y) = 0.40912 0.12464
# Poissons Ratio (z) = 0.40473 0.40473
#
# Static dielectric constant tensor:
#      x y z
#    x 3.485810 0.000000 0.000000 
#    y 0.000000 3.485810 0.000000 
#    z 0.000000 0.000000 3.074100 
# 
# 
# High freq. dielectric constant tensor:
#      x y z
#    x 1.719580 0.000000 0.000000 
#    y 0.000000 1.719580 0.000000 
#    z 0.000000 0.000000 1.663840 
# 
# From -- ./inp_files/952.got.cif
#   From: 2010.03.12/outbox.cif.g09.slc.cpg/sg189_1_cif.got.tgz:952.got - 2010.04.01 12:03:36.
