data_PCOD8327610
_publ_section_title
;
Structure prediction by ZEFSAII (Michael W. Deem and Ramdas Pophale) SiO2 
 PCOD8327610
Probable space group: P -6 2 M
;
_chemical_formula_sum "Si O2"
_cell_formula_units_Z 72
_cell_length_a 23.498900
_cell_length_b 23.498900
_cell_length_c 8.790364
_cell_angle_alpha 90.000000
_cell_angle_beta 90.000000
_cell_angle_gamma 120.000000
_cell_volume 4203.708153
_symmetry_space_group_name_H-M "P -6 2 M"
_symmetry_group_IT_number 189
_symmetry_cell_setting 'hexagonal'
loop_
_space_group_symop_operation_xyz
x,y,z
-x+y,-x,-z
-y,x-y,z
x,y,-z
-x+y,-x,z
-y,x-y,-z
x-y,-y,-z
-x,-x+y,-z
y,x,-z
y,x,z
x-y,-y,z
-x,-x+y,z
loop_
_atom_site_type_symbol
_atom_site_label
_atom_site_fract_x
_atom_site_fract_y
_atom_site_fract_z
Si Si1 0.792671 0.264093 0.324518
Si Si2 0.279079 0.000000 0.319530
Si Si3 0.336144 0.263606 0.179749
Si Si4 0.407480 0.000000 0.319998
Si Si5 0.332422 0.134437 0.180100
Si Si6 0.484306 0.329696 0.821697
Si Si7 0.412019 0.873626 0.324570
O O1 0.798421 0.248795 0.500000
O O2 0.842567 0.249072 0.231694
O O3 0.718458 0.221693 0.265923
O O4 0.811398 0.339519 0.303400
O O5 0.275637 0.000000 0.500000
O O6 0.215434 0.934702 0.256499
O O7 0.343549 0.000000 0.254543
O O8 0.289497 0.289497 0.252221
O O9 0.313913 0.189509 0.233823
O O10 0.411446 0.312909 0.229491
O O11 0.331249 0.264314 0.000000
O O12 0.401930 0.000000 0.500000
O O13 0.472987 0.063379 0.263098
O O14 0.328382 0.126434 0.000000
O O15 0.536316 0.403533 0.779845
O O16 0.486320 0.317969 0.000000
O O17 0.434850 0.881918 0.500000
#
# Coordination Sequence:
#
# PCOD8327610 Si02
#       7
#    12   6  12   6  12  12  12
#     4  10  19  35  55  70  93 132 170 208 261 317
#     4  11  19  33  53  75 107 143 169 198 251 312
#     4   8  16  32  51  71 101 136 164 197 248 298
#     4   9  18  33  51  73  99 129 165 204 247 304
#     4  10  19  31  51  79 106 131 167 210 249 296
#     4  10  21  34  51  74  99 127 167 217 261 306
#     4  10  20  35  53  72  97 130 169 210 255 313
#
# _framework density 17.127734
#
# number of rings (size 3 to 8) (size 9 to 14) (size 15 to 20)
#    0.000    2.333    1.667    2.750    1.167    1.333 
#    1.000    0.000    0.000   10.000    0.000    0.000 
#    0.833    0.000    1.500    0.000    0.500    0.000 
#
# Total GULP energy -892706.157223 kJ/mol
# GULP energy per Si atom -12398.696628 kJ/mol
# Density = 1.708875 g / cm^3
# Si number density = 17.127734 Si / 1000 Ang^3
#
#
#
# Elastic Constant Matrix: (Units=GPa)
#
#
# Indices 1 2 3 4 5 6 
#
# 1 109.0619 66.5756 33.0610 0.0000 0.0000 0.0000
# 2 66.5756 109.0619 33.0610 0.0000 0.0000 0.0000
# 3 33.0610 33.0610 57.1901 0.0000 0.0000 0.0000
# 4 0.0000 0.0000 0.0000 23.7948 0.0000 0.0000
# 5 0.0000 0.0000 0.0000 0.0000 23.7948 0.0000
# 6 0.0000 0.0000 0.0000 0.0000 0.0000 21.2432
#
#
#
# Elastic Compliance Matrix: (Units=1/GPa)
#
#
# Indices 1 2 3 4 5 6 
#
# 1 0.015407 -0.008130 -0.004207 0.000000 0.000000 0.000000
# 2 -0.008130 0.015407 -0.004207 0.000000 0.000000 0.000000
# 3 -0.004207 -0.004207 0.022350 0.000000 0.000000 0.000000
# 4 0.000000 0.000000 0.000000 0.042026 0.000000 0.000000
# 5 0.000000 0.000000 0.000000 0.000000 0.042026 0.000000
# 6 0.000000 0.000000 0.000000 0.000000 0.000000 0.047074
#
#
# Mechanical properties :
#
#
# Convention : Reuss Voigt Hill
#
# Bulk Modulus (GPa) = 49.80972 60.07877 54.94425
# Shear Modulus (GPa) = 22.31454 23.27433 22.79443
#
# Velocity S-wave (km/s) = 3.61339 3.69028 3.65204
# Velocity P-wave (km/s) = 6.82299 7.30141 7.06625
#
# Compressibility (1/GPa) = 0.02007640
#
# Stress axis : x y z
#
# Youngs Moduli (GPa) = 64.90496 64.90496 44.74372
#
# Poissons Ratio (x) = 0.52767 0.18823
# Poissons Ratio (y) = 0.52767 0.18823
# Poissons Ratio (z) = 0.27305 0.27305
#
# Static dielectric constant tensor:
#      x y z
#    x 3.291720 0.000000 0.000000 
#    y 0.000000 3.291720 0.000000 
#    z 0.000000 0.000000 3.060270 
# 
# 
# High freq. dielectric constant tensor:
#      x y z
#    x 1.649980 0.000000 0.000000 
#    y 0.000000 1.649980 0.000000 
#    z 0.000000 0.000000 1.651430 
# 
# From -- ./inp_files/1316.got.cif
#   From: 2010.03.12/outbox.cif.g09.slc.cpg/sg189_1_cif.got.tgz:1316.got - 2010.04.01 12:03:36.
