data_PCOD8327071
_publ_section_title
;
Structure prediction by ZEFSAII (Michael W. Deem and Ramdas Pophale) SiO2 
 PCOD8327071
Probable space group: P -6 M 2
;
_chemical_formula_sum "Si O2"
_cell_formula_units_Z 60
_cell_length_a 12.598495
_cell_length_b 12.598495
_cell_length_c 25.510341
_cell_angle_alpha 90.000000
_cell_angle_beta 90.000000
_cell_angle_gamma 120.000000
_cell_volume 3506.583876
_symmetry_space_group_name_H-M "P -6 M 2"
_symmetry_group_IT_number 187
_symmetry_cell_setting 'hexagonal'
loop_
_space_group_symop_operation_xyz
x,y,z
-x+y,-x,-z
-y,x-y,z
x,y,-z
-x+y,-x,z
-y,x-y,-z
-y,-x,-z
-x+y,y,-z
x,x-y,-z
-x+y,y,z
x,x-y,z
-y,-x,z
loop_
_atom_site_type_symbol
_atom_site_label
_atom_site_fract_x
_atom_site_fract_y
_atom_site_fract_z
Si Si1 0.001610 0.751546 0.000000
Si Si2 0.582765 0.668452 0.901697
Si Si3 0.752151 0.751439 0.500000
Si Si4 0.578765 0.911990 0.592020
Si Si5 0.578744 0.667253 0.710984
Si Si6 0.752129 0.998815 0.195960
O O1 0.010868 0.682422 0.949196
O O2 0.872245 0.744489 0.000000
O O3 0.106573 0.893428 0.000000
O O4 0.543816 0.771908 0.904598
O O5 0.462317 0.537684 0.905194
O O6 0.652409 0.677148 0.848076
O O7 0.882654 0.765308 0.500000
O O8 0.682668 0.678828 0.447612
O O9 0.770907 0.885454 0.500000
O O10 0.457823 0.915645 0.578755
O O11 0.548036 0.774018 0.582337
O O12 0.622762 0.954029 0.651540
O O13 0.539099 0.769550 0.719231
O O14 0.462579 0.537422 0.725676
O O15 0.692439 0.694923 0.748084
O O16 0.792391 0.896196 0.193261
O O17 0.870397 0.129604 0.186963
#
# Coordination Sequence:
#
# PCOD8327071 Si02
#       6
#     6  12   6  12  12  12
#     4  10  20  34  54  78 104 134 166 200 238 284
#     4  10  20  34  54  78 102 128 160 203 252 296
#     4  10  20  32  46  66  94 128 162 194 232 280
#     4   9  17  30  50  75  98 120 150 193 245 292
#     4   9  17  30  50  75 100 124 152 192 242 292
#     4  10  20  33  50  72  99 131 165 201 239 282
#
# _framework density 17.110669000000001
#
# number of rings (size 3 to 8) (size 9 to 14) (size 15 to 20)
#    0.000    2.400    0.000    2.800    0.000    2.400 
#    0.000    6.000    0.000   13.600    0.000    0.000 
#    0.000    0.000    0.000    0.000    0.000    0.000 
#
# Total GULP energy -744102.467645 kJ/mol
# GULP energy per Si atom -12401.707794 kJ/mol
# Density = 1.707172 g / cm^3
# Si number density = 17.110669 Si / 1000 Ang^3
#
#
#
# Elastic Constant Matrix: (Units=GPa)
#
#
# Indices 1 2 3 4 5 6 
#
# 1 97.9463 51.0678 51.7755 0.0000 0.0000 0.0000
# 2 51.0678 97.9463 51.7755 0.0000 0.0000 0.0000
# 3 51.7755 51.7755 116.8511 0.0000 0.0000 0.0000
# 4 0.0000 0.0000 0.0000 19.4849 0.0000 0.0000
# 5 0.0000 0.0000 0.0000 0.0000 19.4849 0.0000
# 6 0.0000 0.0000 0.0000 0.0000 0.0000 23.4393
#
#
#
# Elastic Compliance Matrix: (Units=1/GPa)
#
#
# Indices 1 2 3 4 5 6 
#
# 1 0.015514 -0.005818 -0.004296 0.000000 0.000000 0.000000
# 2 -0.005818 0.015514 -0.004296 0.000000 0.000000 0.000000
# 3 -0.004296 -0.004296 0.012365 0.000000 0.000000 0.000000
# 4 0.000000 0.000000 0.000000 0.051322 0.000000 0.000000
# 5 0.000000 0.000000 0.000000 0.000000 0.051322 0.000000
# 6 0.000000 0.000000 0.000000 0.000000 0.000000 0.042663
#
#
# Mechanical properties :
#
#
# Convention : Reuss Voigt Hill
#
# Bulk Modulus (GPa) = 68.62230 69.10904 68.86567
# Shear Modulus (GPa) = 22.48419 23.02348 22.75384
#
# Velocity S-wave (km/s) = 3.62891 3.67217 3.65060
# Velocity P-wave (km/s) = 7.59939 7.64571 7.62258
#
# Compressibility (1/GPa) = 0.01457252
#
# Stress axis : x y z
#
# Youngs Moduli (GPa) = 64.45778 64.45778 80.87181
#
# Poissons Ratio (x) = 0.37499 0.34745
# Poissons Ratio (y) = 0.37499 0.34745
# Poissons Ratio (z) = 0.27693 0.27693
#
# Static dielectric constant tensor:
#      x y z
#    x 3.012220 0.000000 0.000000 
#    y 0.000000 3.012220 0.000000 
#    z 0.000000 0.000000 3.536970 
# 
# 
# High freq. dielectric constant tensor:
#      x y z
#    x 1.646440 0.000000 0.000000 
#    y 0.000000 1.646440 0.000000 
#    z 0.000000 0.000000 1.682480 
# 
# From -- ./inp_files/4197.got.cif
#   From: 2010.03.12/outbox.cif.g09.slc.cpg/sg187_3_cif.got.tgz:4197.got - 2010.04.01 11:58:23.
