data_PCOD8327121
_publ_section_title
;
Structure prediction by ZEFSAII (Michael W. Deem and Ramdas Pophale) SiO2 
 PCOD8327121
Probable space group: P -6 M 2
;
_chemical_formula_sum "Si O2"
_cell_formula_units_Z 72
_cell_length_a 12.594775
_cell_length_b 12.594775
_cell_length_c 31.203068
_cell_angle_alpha 90.000000
_cell_angle_beta 90.000000
_cell_angle_gamma 120.000000
_cell_volume 4286.558510
_symmetry_space_group_name_H-M "P -6 M 2"
_symmetry_group_IT_number 187
_symmetry_cell_setting 'hexagonal'
loop_
_space_group_symop_operation_xyz
x,y,z
-x+y,-x,-z
-y,x-y,z
x,y,-z
-x+y,-x,z
-y,x-y,-z
-y,-x,-z
-x+y,y,-z
x,x-y,-z
-x+y,y,z
x,x-y,z
-y,-x,z
loop_
_atom_site_type_symbol
_atom_site_label
_atom_site_fract_x
_atom_site_fract_y
_atom_site_fract_z
Si Si1 0.419466 0.084544 0.250000
Si Si2 0.417380 0.086456 0.407143
Si Si3 0.913544 0.330924 0.092857
Si Si4 0.904846 0.331691 0.500000
Si Si5 0.904846 0.573156 0.000000
Si Si6 0.334292 0.419346 0.329843
Si Si7 0.580655 0.665708 0.829843
O O1 0.561710 0.123419 0.250000
O O2 0.409201 0.204601 0.250000
O O3 0.351875 0.006927 0.291801
O O4 0.351873 0.006927 0.208199
O O5 0.557121 0.114242 0.407466
O O6 0.420231 0.210116 0.392267
O O7 0.354605 0.043880 0.454821
O O8 0.335062 0.977996 0.374694
O O9 0.885758 0.442879 0.092535
O O10 0.789886 0.210115 0.107733
O O11 0.956121 0.310726 0.045179
O O12 0.022005 0.357067 0.125306
O O13 0.757788 0.242213 0.500000
O O14 0.940922 0.470461 0.500000
O O15 0.757789 0.515577 0.000000
O O16 0.940921 0.470461 0.000000
O O17 0.205439 0.410878 0.323890
O O18 0.438949 0.561052 0.328623
O O19 0.589122 0.794561 0.823890
O O20 0.438950 0.561051 0.828622
#
# Coordination Sequence:
#
# PCOD8327121 Si02
#       7
#    12  12  12   6   6  12  12
#     4  10  20  34  54  78 100 118 140 180 234 286
#     4   9  16  27  46  71  97 122 150 190 239 287
#     4   9  16  27  46  71  97 122 150 190 239 287
#     4   8  13  22  39  66  96 122 148 182 232 288
#     4   8  13  22  39  66  96 122 148 182 232 288
#     4  10  20  33  49  68  93 126 161 193 222 261
#     4  10  20  33  49  68  93 126 161 193 222 261
#
# _framework density 16.796692
#
# number of rings (size 3 to 8) (size 9 to 14) (size 15 to 20)
#    0.000    2.667    0.000    2.500    0.000    2.667 
#    0.000    5.833    0.000    9.333    0.000    2.333 
#    0.000    0.000    0.000    0.000    0.000    0.000 
#
# Total GULP energy -892202.109513 kJ/mol
# GULP energy per Si atom -12391.695965 kJ/mol
# Density = 1.675846 g / cm^3
# Si number density = 16.796692 Si / 1000 Ang^3
#
#
#
# Elastic Constant Matrix: (Units=GPa)
#
#
# Indices 1 2 3 4 5 6 
#
# 1 90.9626 59.7023 58.7067 0.0000 0.0003 0.0000
# 2 59.7023 90.9626 58.7067 0.0000 -0.0003 0.0000
# 3 58.7067 58.7067 148.5025 0.0000 0.0000 0.0000
# 4 0.0000 0.0000 0.0000 10.5106 0.0000 -0.0003
# 5 0.0003 -0.0003 0.0000 0.0000 10.5106 0.0000
# 6 0.0000 0.0000 0.0000 -0.0003 0.0000 15.6301
#
#
#
# Elastic Compliance Matrix: (Units=1/GPa)
#
#
# Indices 1 2 3 4 5 6 
#
# 1 0.020791 -0.011199 -0.003792 0.000000 -0.000001 0.000000
# 2 -0.011199 0.020791 -0.003792 0.000000 0.000001 0.000000
# 3 -0.003792 -0.003792 0.009732 0.000000 0.000000 0.000000
# 4 0.000000 0.000000 0.000000 0.095142 0.000000 0.000002
# 5 -0.000001 0.000001 0.000000 0.000000 0.095142 0.000000
# 6 0.000000 0.000000 0.000000 0.000002 0.000000 0.063979
#
#
# Mechanical properties :
#
#
# Convention : Reuss Voigt Hill
#
# Bulk Modulus (GPa) = 72.73510 76.07325 74.40417
# Shear Modulus (GPa) = 14.37919 17.55108 15.96513
#
# Velocity S-wave (km/s) = 2.92905 3.23602 3.08635
# Velocity P-wave (km/s) = 7.40515 7.70398 7.55605
#
# Compressibility (1/GPa) = 0.01374852
#
# Stress axis : x y z
#
# Youngs Moduli (GPa) = 48.09779 48.09779 102.75222
#
# Poissons Ratio (x) = 0.53862 0.38965
# Poissons Ratio (y) = 0.53862 0.38965
# Poissons Ratio (z) = 0.18239 0.18239
#
# Static dielectric constant tensor:
#      x y z
#    x 2.837530 0.000000 0.000000 
#    y 0.000000 2.837530 0.000000 
#    z 0.000000 0.000000 3.755240 
# 
# 
# High freq. dielectric constant tensor:
#      x y z
#    x 1.618040 0.000000 0.000000 
#    y 0.000000 1.618040 0.000000 
#    z 0.000000 0.000000 1.678600 
# 
# From -- ./inp_files/4599.got.cif
#   From: 2010.03.12/outbox.cif.g09.slc.cpg/sg187_3_cif.got.tgz:4599.got - 2010.04.01 11:58:23.
