data_PCOD8327332
_publ_section_title
;
Structure prediction by ZEFSAII (Michael W. Deem and Ramdas Pophale) SiO2 
 PCOD8327332
Probable space group: P -6 C 2
;
_chemical_formula_sum "Si O2"
_cell_formula_units_Z 96
_cell_length_a 17.159853
_cell_length_b 17.159853
_cell_length_c 25.612491
_cell_angle_alpha 90.000000
_cell_angle_beta 90.000000
_cell_angle_gamma 120.000000
_cell_volume 6531.449552
_symmetry_space_group_name_H-M "P -6 C 2"
_symmetry_group_IT_number 188
_symmetry_cell_setting 'hexagonal'
loop_
_space_group_symop_operation_xyz
x,y,z
-x+y,-x,1/2-z
-y,x-y,z
x,y,1/2-z
-x+y,-x,z
-y,x-y,1/2-z
-y,-x,-z
-x+y,y,-z
x,x-y,-z
-x+y,y,1/2+z
x,x-y,1/2+z
-y,-x,1/2+z
loop_
_atom_site_type_symbol
_atom_site_label
_atom_site_fract_x
_atom_site_fract_y
_atom_site_fract_z
Si Si1 0.828146 0.999613 0.644001
Si Si2 0.165704 0.162903 0.311182
Si Si3 0.148475 0.482972 0.901944
Si Si4 0.827726 0.000152 0.979807
Si Si5 0.635786 0.910437 0.192775
Si Si6 0.093384 0.371514 0.000640
Si Si7 0.272581 0.360280 0.808252
Si Si8 0.149040 0.483333 0.099613
O O1 0.821783 0.994488 0.582153
O O2 0.903366 0.097635 0.661824
O O3 0.852880 0.926244 0.663603
O O4 0.735575 0.985186 0.668359
O O5 0.148107 0.142963 0.250000
O O6 0.249033 0.262823 0.321879
O O7 0.093269 0.434831 0.849442
O O8 0.087441 0.423660 0.950116
O O9 0.245466 0.491462 0.902129
O O10 0.163669 0.581839 0.905985
O O11 0.903243 0.096758 0.000000
O O12 0.850028 0.925014 0.000000
O O13 0.732458 0.985186 0.001261
O O14 0.608392 0.929296 0.250000
O O15 0.635632 0.817728 0.194096
O O16 0.186606 0.373211 0.000000
O O17 0.087138 0.421110 0.052454
O O18 0.314202 0.372908 0.750000
O O19 0.342153 0.439707 0.846103
#
# Coordination Sequence:
#
# PCOD8327332 Si02
#       8
#    12  12  12  12  12  12  12  12
#     4  11  19  30  45  61  88 119 156 189 220 256
#     4  10  19  29  44  64  87 117 156 190 216 253
#     4  10  19  29  50  62  89 112 151 189 227 268
#     4  11  22  32  44  65  92 123 155 186 217 253
#     4   8  17  30  43  62  87 117 145 179 225 267
#     4   9  19  32  46  62  87 118 147 183 226 263
#     4   9  17  30  45  61  87 117 147 182 226 268
#     4  10  18  32  44  69  83 114 149 191 226 263
#
# _framework density 14.698116000000001
#
# number of rings (size 3 to 8) (size 9 to 14) (size 15 to 20)
#    0.000    2.250    1.250    3.625    7.000    0.500 
#    0.000    1.250    0.000    1.500    0.000    0.000 
#    0.000    0.000    0.000   10.500    0.000   12.000 
#
# Total GULP energy -1190243.385754 kJ/mol
# GULP energy per Si atom -12398.368602 kJ/mol
# Density = 1.466466 g / cm^3
# Si number density = 14.698116 Si / 1000 Ang^3
#
#
#
# Elastic Constant Matrix: (Units=GPa)
#
#
# Indices 1 2 3 4 5 6 
#
# 1 63.2135 29.5902 40.0715 -0.0002 0.0000 0.0000
# 2 29.5902 63.2135 40.0715 0.0002 0.0000 0.0000
# 3 40.0715 40.0715 128.6073 0.0000 0.0000 0.0000
# 4 -0.0002 0.0002 0.0000 19.6475 0.0000 0.0000
# 5 0.0000 0.0000 0.0000 0.0000 19.6475 -0.0002
# 6 0.0000 0.0000 0.0000 0.0000 -0.0002 16.8117
#
#
#
# Elastic Compliance Matrix: (Units=1/GPa)
#
#
# Indices 1 2 3 4 5 6 
#
# 1 0.022242 -0.007500 -0.004593 0.000000 0.000000 0.000000
# 2 -0.007500 0.022242 -0.004593 0.000000 0.000000 0.000000
# 3 -0.004593 -0.004593 0.010638 0.000000 0.000000 0.000000
# 4 0.000000 0.000000 0.000000 0.050897 0.000000 0.000000
# 5 0.000000 0.000000 0.000000 0.000000 0.050897 0.000001
# 6 0.000000 0.000000 0.000000 0.000000 0.000001 0.059482
#
#
# Mechanical properties :
#
#
# Convention : Reuss Voigt Hill
#
# Bulk Modulus (GPa) = 45.97943 52.72230 49.35086
# Shear Modulus (GPa) = 19.45373 20.90808 20.18091
#
# Velocity S-wave (km/s) = 3.64201 3.77570 3.70946
# Velocity P-wave (km/s) = 7.00258 7.41322 7.21082
#
# Compressibility (1/GPa) = 0.02174886
#
# Stress axis : x y z
#
# Youngs Moduli (GPa) = 44.96061 44.96061 94.00245
#
# Poissons Ratio (x) = 0.33718 0.43179
# Poissons Ratio (y) = 0.33718 0.43179
# Poissons Ratio (z) = 0.20652 0.20652
#
# Static dielectric constant tensor:
#      x y z
#    x 2.795190 0.000000 0.000000 
#    y 0.000000 2.795190 0.000000 
#    z 0.000000 0.000000 3.260180 
# 
# 
# High freq. dielectric constant tensor:
#      x y z
#    x 1.531300 0.000000 0.000000 
#    y 0.000000 1.531300 0.000000 
#    z 0.000000 0.000000 1.588780 
# 
# From -- ./inp_files/3887.got.cif
#   From: 2010.03.12/outbox.cif.g09.slc.cpg/sg188_2_cif.got.tgz:3887.got - 2010.04.01 12:01:06.
