data_PCOD8327285
_publ_section_title
;
Structure prediction by ZEFSAII (Michael W. Deem and Ramdas Pophale) SiO2 
 PCOD8327285
Probable space group: P -6 M 2
;
_chemical_formula_sum "Si O2"
_cell_formula_units_Z 72
_cell_length_a 24.071547
_cell_length_b 24.071547
_cell_length_c 9.459932
_cell_angle_alpha 90.000000
_cell_angle_beta 90.000000
_cell_angle_gamma 120.000000
_cell_volume 4747.081086
_symmetry_space_group_name_H-M "P -6 M 2"
_symmetry_group_IT_number 187
_symmetry_cell_setting 'hexagonal'
loop_
_space_group_symop_operation_xyz
x,y,z
-x+y,-x,-z
-y,x-y,z
x,y,-z
-x+y,-x,z
-y,x-y,-z
-y,-x,-z
-x+y,y,-z
x,x-y,-z
-x+y,y,z
x,x-y,z
-y,-x,z
loop_
_atom_site_type_symbol
_atom_site_label
_atom_site_fract_x
_atom_site_fract_y
_atom_site_fract_z
Si Si1 0.594506 0.529237 0.662576
Si Si2 0.742860 0.033709 0.158491
Si Si3 0.590477 0.957517 0.841509
Si Si4 0.266419 0.409624 0.341439
Si Si5 0.066911 0.809876 0.658561
Si Si6 0.738828 0.601397 0.662576
O O1 0.592845 0.548080 0.500000
O O2 0.546659 0.453342 0.687836
O O3 0.569695 0.567877 0.756538
O O4 0.666667 0.546560 0.705053
O O5 0.763640 0.098792 0.243462
O O6 0.666669 0.991647 0.154966
O O7 0.771784 0.993645 0.235570
O O8 0.770999 0.050731 0.000000
O O9 0.561555 0.888529 0.764431
O O10 0.562338 0.946400 0.000000
O O11 0.290786 0.435015 0.500000
O O12 0.215734 0.431467 0.291489
O O13 0.231769 0.333330 0.341688
O O14 0.042545 0.810902 0.500000
O O15 0.117597 0.882404 0.708514
O O16 0.740489 0.621901 0.500000
O O17 0.786674 0.573348 0.687835
#
# Coordination Sequence:
#
# PCOD8327285 Si02
#       6
#    12  12  12  12  12  12
#     4   9  17  29  44  59  75  98 129 165 207 259
#     4   9  16  24  35  53  76 100 126 157 192 230
#     4   9  16  24  35  53  76 100 126 157 192 230
#     4   8  13  21  33  49  71 101 133 158 178 204
#     4   8  13  21  33  49  71 101 133 158 178 204
#     4   9  17  29  44  59  75  98 129 165 207 259
#
# _framework density 15.167216
#
# number of rings (size 3 to 8) (size 9 to 14) (size 15 to 20)
#    0.000    3.333    0.000    2.000    0.000    5.333 
#    0.000    3.333    0.000    0.333    0.000    2.333 
#    0.000    0.000    0.000    9.333    0.000   28.667 
#
# Total GULP energy -892259.427839 kJ/mol
# GULP energy per Si atom -12392.492053 kJ/mol
# Density = 1.513269 g / cm^3
# Si number density = 15.167216 Si / 1000 Ang^3
#
#
#
# Elastic Constant Matrix: (Units=GPa)
#
#
# Indices 1 2 3 4 5 6 
#
# 1 69.4868 39.5738 42.0323 0.0000 0.0000 0.0000
# 2 39.5738 69.4868 42.0323 0.0000 0.0000 0.0000
# 3 42.0323 42.0323 93.0736 0.0000 0.0000 0.0000
# 4 0.0000 0.0000 0.0000 11.9042 0.0000 0.0000
# 5 0.0000 0.0000 0.0000 0.0000 11.9042 0.0000
# 6 0.0000 0.0000 0.0000 0.0000 0.0000 14.9565
#
#
#
# Elastic Compliance Matrix: (Units=1/GPa)
#
#
# Indices 1 2 3 4 5 6 
#
# 1 0.023748 -0.009682 -0.006352 0.000000 0.000000 0.000000
# 2 -0.009682 0.023748 -0.006352 0.000000 0.000000 0.000000
# 3 -0.006352 -0.006352 0.016481 0.000000 0.000000 0.000000
# 4 0.000000 0.000000 0.000000 0.084004 0.000000 0.000000
# 5 0.000000 0.000000 0.000000 0.000000 0.084004 0.000000
# 6 0.000000 0.000000 0.000000 0.000000 0.000000 0.066861
#
#
# Mechanical properties :
#
#
# Convention : Reuss Voigt Hill
#
# Bulk Modulus (GPa) = 52.07198 53.25822 52.66510
# Shear Modulus (GPa) = 14.28490 14.98022 14.63256
#
# Velocity S-wave (km/s) = 3.07225 3.14613 3.10941
# Velocity P-wave (km/s) = 6.85503 6.95613 6.90577
#
# Compressibility (1/GPa) = 0.01920419
#
# Stress axis : x y z
#
# Youngs Moduli (GPa) = 42.10912 42.10912 60.67476
#
# Poissons Ratio (x) = 0.40772 0.38540
# Poissons Ratio (y) = 0.40772 0.38540
# Poissons Ratio (z) = 0.26748 0.26748
#
# Static dielectric constant tensor:
#      x y z
#    x 2.698960 0.000000 0.000000 
#    y 0.000000 2.698960 0.000000 
#    z 0.000000 0.000000 3.184210 
# 
# 
# High freq. dielectric constant tensor:
#      x y z
#    x 1.542030 0.000000 0.000000 
#    y 0.000000 1.542030 0.000000 
#    z 0.000000 0.000000 1.589350 
# 
# From -- ./inp_files/958.got.cif
#   From: 2010.03.12/outbox.cif.g09.slc.cpg/sg187_1_cif.got.tgz:958.got - 2010.04.01 11:58:23.
