data_PCOD8327076
_publ_section_title
;
Structure prediction by ZEFSAII (Michael W. Deem and Ramdas Pophale) SiO2 
 PCOD8327076
Probable space group: P -6 M 2
;
_chemical_formula_sum "Si O2"
_cell_formula_units_Z 96
_cell_length_a 17.916580
_cell_length_b 17.916580
_cell_length_c 20.560679
_cell_angle_alpha 90.000000
_cell_angle_beta 90.000000
_cell_angle_gamma 120.000000
_cell_volume 5715.816933
_symmetry_space_group_name_H-M "P -6 M 2"
_symmetry_group_IT_number 187
_symmetry_cell_setting 'hexagonal'
loop_
_space_group_symop_operation_xyz
x,y,z
-x+y,-x,-z
-y,x-y,z
x,y,-z
-x+y,-x,z
-y,x-y,-z
-y,-x,-z
-x+y,y,-z
x,x-y,-z
-x+y,y,z
x,x-y,z
-y,-x,z
loop_
_atom_site_type_symbol
_atom_site_label
_atom_site_fract_x
_atom_site_fract_y
_atom_site_fract_z
Si Si1 0.071073 0.760863 0.882041
Si Si2 0.666927 0.158989 0.672333
Si Si3 0.493176 0.160054 0.180340
Si Si4 0.828801 0.828681 0.626834
Si Si5 0.365752 0.098339 0.070759
Si Si6 0.169438 0.999839 0.777961
Si Si7 0.333097 0.496690 0.075229
Si Si8 0.736467 0.649953 0.572756
O O1 0.146547 0.853454 0.907358
O O2 0.108727 0.695127 0.878315
O O3 0.992603 0.722679 0.932743
O O4 0.031661 0.770754 0.813798
O O5 0.579956 0.159912 0.658493
O O6 0.745028 0.254973 0.659444
O O7 0.670660 0.130024 0.746290
O O8 0.669850 0.089983 0.623623
O O9 0.581105 0.162211 0.167572
O O10 0.510479 0.255240 0.166637
O O11 0.425140 0.094404 0.128024
O O12 0.819886 0.909943 0.605905
O O13 0.812024 0.807425 0.702713
O O14 0.754856 0.745559 0.589287
O O15 0.924351 0.848701 0.607662
O O16 0.341189 0.170595 0.087278
O O17 0.411572 0.115354 0.000000
O O18 0.187285 0.093643 0.802455
O O19 0.068637 0.931364 0.789501
O O20 0.264904 0.529807 0.082518
O O21 0.426552 0.573449 0.097555
O O22 0.335889 0.470871 0.000000
O O23 0.698155 0.624591 0.500000
O O24 0.825717 0.651433 0.579356
#
# Coordination Sequence:
#
# PCOD8327076 Si02
#       8
#    12  12  12  12  12  12  12  12
#     4  10  20  32  48  69  90 116 152 192 236 283
#     4   9  17  30  49  71  94 124 162 203 240 280
#     4   9  18  32  51  72  94 122 158 197 236 279
#     4   9  17  29  47  69  95 128 166 203 237 276
#     4  10  21  34  47  66  93 124 156 192 238 288
#     4   9  17  29  47  70  94 122 157 198 238 277
#     4   9  17  30  48  68  88 111 141 180 228 283
#     4   9  18  30  44  67  98 129 159 193 238 284
#
# _framework density 16.795500000000001
#
# number of rings (size 3 to 8) (size 9 to 14) (size 15 to 20)
#    0.000    2.750    0.000    1.375    1.750    4.500 
#    0.000    0.000    0.000    2.500    0.000    0.000 
#    0.000    0.000    0.000    0.375    0.000    1.625 
#
# Total GULP energy -1189837.793666 kJ/mol
# GULP energy per Si atom -12394.143684 kJ/mol
# Density = 1.675727 g / cm^3
# Si number density = 16.795500 Si / 1000 Ang^3
#
#
#
# Elastic Constant Matrix: (Units=GPa)
#
#
# Indices 1 2 3 4 5 6 
#
# 1 91.3838 40.3115 49.8049 0.0000 -0.0002 0.0000
# 2 40.3115 91.3838 49.8049 0.0000 0.0002 0.0000
# 3 49.8049 49.8049 93.0809 0.0000 0.0000 0.0000
# 4 0.0000 0.0000 0.0000 19.3362 0.0000 0.0002
# 5 -0.0002 0.0002 0.0000 0.0000 19.3362 0.0000
# 6 0.0000 0.0000 0.0000 0.0002 0.0000 25.5362
#
#
#
# Elastic Compliance Matrix: (Units=1/GPa)
#
#
# Indices 1 2 3 4 5 6 
#
# 1 0.016168 -0.003412 -0.006825 0.000000 0.000000 0.000000
# 2 -0.003412 0.016168 -0.006825 0.000000 0.000000 0.000000
# 3 -0.006825 -0.006825 0.018047 0.000000 0.000000 0.000000
# 4 0.000000 0.000000 0.000000 0.051717 0.000000 0.000000
# 5 0.000000 0.000000 0.000000 0.000000 0.051717 0.000000
# 6 0.000000 0.000000 0.000000 0.000000 0.000000 0.039160
#
#
# Mechanical properties :
#
#
# Convention : Reuss Voigt Hill
#
# Bulk Modulus (GPa) = 61.50886 61.74343 61.62614
# Shear Modulus (GPa) = 21.50347 21.90351 21.70349
#
# Velocity S-wave (km/s) = 3.58203 3.61519 3.59865
# Velocity P-wave (km/s) = 7.33550 7.36667 7.35110
#
# Compressibility (1/GPa) = 0.01625782
#
# Stress axis : x y z
#
# Youngs Moduli (GPa) = 61.85116 61.85116 55.41015
#
# Poissons Ratio (x) = 0.21105 0.37818
# Poissons Ratio (y) = 0.21105 0.37818
# Poissons Ratio (z) = 0.42214 0.42214
#
# Static dielectric constant tensor:
#      x y z
#    x 3.117960 0.000000 0.000000 
#    y 0.000000 3.117960 0.000000 
#    z 0.000000 0.000000 3.160180 
# 
# 
# High freq. dielectric constant tensor:
#      x y z
#    x 1.635580 0.000000 0.000000 
#    y 0.000000 1.635580 0.000000 
#    z 0.000000 0.000000 1.636060 
# 
# From -- ./inp_files/3788.got.cif
#   From: 2010.03.12/outbox.cif.g09.slc.cpg/sg187_2_cif.got.tgz:3788.got - 2010.04.01 11:58:23.
