data_PCOD8327011
_publ_section_title
;
Structure prediction by ZEFSAII (Michael W. Deem and Ramdas Pophale) SiO2 
 PCOD8327011
Probable space group: P -6 M 2
;
_chemical_formula_sum "Si O2"
_cell_formula_units_Z 66
_cell_length_a 12.838835
_cell_length_b 12.838835
_cell_length_c 28.566188
_cell_angle_alpha 90.000000
_cell_angle_beta 90.000000
_cell_angle_gamma 120.000000
_cell_volume 4077.877325
_symmetry_space_group_name_H-M "P -6 M 2"
_symmetry_group_IT_number 187
_symmetry_cell_setting 'hexagonal'
loop_
_space_group_symop_operation_xyz
x,y,z
-x+y,-x,-z
-y,x-y,z
x,y,-z
-x+y,-x,z
-y,x-y,-z
-y,-x,-z
-x+y,y,-z
x,x-y,-z
-x+y,y,z
x,x-y,z
-y,-x,z
loop_
_atom_site_type_symbol
_atom_site_label
_atom_site_fract_x
_atom_site_fract_y
_atom_site_fract_z
Si Si1 0.244923 0.242840 0.214890
Si Si2 0.239624 0.240006 0.946549
Si Si3 0.997034 0.242651 0.417917
Si Si4 0.577842 0.667516 0.133174
Si Si5 0.420500 0.332878 0.500000
Si Si6 0.998075 0.234249 0.316273
O O1 0.108474 0.216947 0.214841
O O2 0.326578 0.345668 0.178479
O O3 0.305922 0.287834 0.266925
O O4 0.241769 0.120885 0.199766
O O5 0.101599 0.203198 0.937854
O O6 0.326881 0.350248 0.913671
O O7 0.252206 0.126103 0.933169
O O8 0.278165 0.280385 0.000000
O O9 0.895204 0.104797 0.428059
O O10 0.984793 0.330254 0.454438
O O11 0.976742 0.283512 0.365648
O O12 0.126136 0.252271 0.423264
O O13 0.545581 0.772791 0.133932
O O14 0.457305 0.542696 0.133762
O O15 0.544790 0.455211 0.500000
O O16 0.447492 0.223746 0.500000
O O17 0.909318 0.090683 0.314217
O O18 0.132493 0.264986 0.318917
#
# Coordination Sequence:
#
# PCOD8327011 Si02
#       6
#    12  12  12  12   6  12
#     4   9  16  27  46  71  95 116 140 175 221 270
#     4   9  17  30  50  75  98 116 136 171 223 277
#     4   9  16  27  46  71  95 114 134 169 220 274
#     4  10  20  32  45  62  87 121 158 191 219 248
#     4  10  20  32  44  58  80 114 154 190 218 246
#     4   8  13  22  39  66  96 118 134 160 210 273
#
# _framework density 16.184889999999999
#
# number of rings (size 3 to 8) (size 9 to 14) (size 15 to 20)
#    0.000    2.909    0.000    1.818    0.000    4.000 
#    0.000    3.636    0.000    5.455    0.000    0.000 
#    0.000    0.000    0.000    0.000    0.000    0.000 
#
# Total GULP energy -817695.284941 kJ/mol
# GULP energy per Si atom -12389.322499 kJ/mol
# Density = 1.614805 g / cm^3
# Si number density = 16.184890 Si / 1000 Ang^3
#
#
#
# Elastic Constant Matrix: (Units=GPa)
#
#
# Indices 1 2 3 4 5 6 
#
# 1 85.9425 42.7186 62.8247 0.0000 0.0000 0.0000
# 2 42.7186 85.9425 62.8247 0.0000 0.0000 0.0000
# 3 62.8247 62.8247 152.9530 0.0000 0.0000 0.0000
# 4 0.0000 0.0000 0.0000 16.6562 0.0000 0.0000
# 5 0.0000 0.0000 0.0000 0.0000 16.6562 0.0000
# 6 0.0000 0.0000 0.0000 0.0000 0.0000 21.6120
#
#
#
# Elastic Compliance Matrix: (Units=1/GPa)
#
#
# Indices 1 2 3 4 5 6 
#
# 1 0.018057 -0.005078 -0.005331 0.000000 0.000000 0.000000
# 2 -0.005078 0.018057 -0.005331 0.000000 0.000000 0.000000
# 3 -0.005331 -0.005331 0.010917 0.000000 0.000000 0.000000
# 4 0.000000 0.000000 0.000000 0.060038 0.000000 0.000000
# 5 0.000000 0.000000 0.000000 0.000000 0.060038 0.000000
# 6 0.000000 0.000000 0.000000 0.000000 0.000000 0.046271
#
#
# Mechanical properties :
#
#
# Convention : Reuss Voigt Hill
#
# Bulk Modulus (GPa) = 64.30583 73.50825 68.90704
# Shear Modulus (GPa) = 19.99673 21.41619 20.70646
#
# Velocity S-wave (km/s) = 3.51881 3.64156 3.58071
# Velocity P-wave (km/s) = 7.50517 7.94970 7.73063
#
# Compressibility (1/GPa) = 0.01555069
#
# Stress axis : x y z
#
# Youngs Moduli (GPa) = 55.38060 55.38060 91.59887
#
# Poissons Ratio (x) = 0.28125 0.48830
# Poissons Ratio (y) = 0.28125 0.48830
# Poissons Ratio (z) = 0.29522 0.29522
#
# Static dielectric constant tensor:
#      x y z
#    x 2.728870 0.000000 0.000000 
#    y 0.000000 2.728870 0.000000 
#    z 0.000000 0.000000 3.736640 
# 
# 
# High freq. dielectric constant tensor:
#      x y z
#    x 1.587930 0.000000 0.000000 
#    y 0.000000 1.587930 0.000000 
#    z 0.000000 0.000000 1.653700 
# 
# From -- ./inp_files/4480.got.cif
#   From: 2010.03.12/outbox.cif.g09.slc.cpg/sg187_3_cif.got.tgz:4480.got - 2010.04.01 11:58:23.
