data_PCOD8327447
_publ_section_title
;
Structure prediction by ZEFSAII (Michael W. Deem and Ramdas Pophale) SiO2 
 PCOD8327447
Probable space group: P -6 C 2
;
_chemical_formula_sum "Si O2"
_cell_formula_units_Z 58
_cell_length_a 15.179713
_cell_length_b 15.179713
_cell_length_c 14.381881
_cell_angle_alpha 90.000000
_cell_angle_beta 90.000000
_cell_angle_gamma 120.000000
_cell_volume 2869.944139
_symmetry_space_group_name_H-M "P -6 C 2"
_symmetry_group_IT_number 188
_symmetry_cell_setting 'hexagonal'
loop_
_space_group_symop_operation_xyz
x,y,z
-x+y,-x,1/2-z
-y,x-y,z
x,y,1/2-z
-x+y,-x,z
-y,x-y,1/2-z
-y,-x,-z
-x+y,y,-z
x,x-y,-z
-x+y,y,1/2+z
x,x-y,1/2+z
-y,-x,1/2+z
loop_
_atom_site_type_symbol
_atom_site_label
_atom_site_fract_x
_atom_site_fract_y
_atom_site_fract_z
Si Si1 0.772645 0.319352 0.750000
Si Si2 0.867740 0.585344 0.068712
Si Si3 0.200849 0.014707 0.852684
Si Si4 0.181462 0.809401 0.640510
Si Si5 0.000000 0.000000 0.891477
Si Si6 0.081442 0.441858 0.508948
O O1 0.654337 0.227480 0.750000
O O2 0.831657 0.313912 0.839444
O O3 0.908983 0.705037 0.084500
O O4 0.771463 0.542925 0.000000
O O5 0.960005 0.577219 0.023182
O O6 0.246780 0.029313 0.750000
O O7 0.114195 0.045233 0.855251
O O8 0.150126 0.895353 0.880074
O O9 0.178900 0.783900 0.750000
O O10 0.295435 0.858980 0.599798
O O11 0.105983 0.707795 0.584227
O O12 0.000000 0.000000 0.000000
O O13 0.121347 0.560674 0.500000
#
# Coordination Sequence:
#
# PCOD8327447 Si02
#       6
#     6  12  12  12   4  12
#     4  10  26  46  68  94 128 170 228 278 334 406
#     4  11  24  43  66  96 131 174 212 279 332 386
#     4  10  21  40  61  89 131 171 214 260 317 389
#     4   9  21  43  64  92 133 172 210 271 326 389
#     4  12  25  32  58  96 130 170 217 253 317 397
#     4  10  23  40  67  97 127 167 222 269 326 394
#
# _framework density 20.209451999999999
#
# number of rings (size 3 to 8) (size 9 to 14) (size 15 to 20)
#    0.207    1.655    1.034    1.241   13.034    0.828 
#    6.828    0.000    0.000    0.000    0.000    0.000 
#    0.000    0.000    0.000    0.000    0.000    0.000 
#
# Total GULP energy -719034.365018 kJ/mol
# GULP energy per Si atom -12397.144224 kJ/mol
# Density = 2.016345 g / cm^3
# Si number density = 20.209452 Si / 1000 Ang^3
#
#
#
# Elastic Constant Matrix: (Units=GPa)
#
#
# Indices 1 2 3 4 5 6 
#
# 1 88.7403 30.7275 43.3718 -0.0001 0.0000 0.0000
# 2 30.7275 88.7403 43.3718 0.0001 0.0000 0.0000
# 3 43.3718 43.3718 144.5298 0.0000 0.0000 0.0000
# 4 -0.0001 0.0001 0.0000 31.1455 0.0000 0.0000
# 5 0.0000 0.0000 0.0000 0.0000 31.1455 -0.0001
# 6 0.0000 0.0000 0.0000 0.0000 -0.0001 29.0064
#
#
#
# Elastic Compliance Matrix: (Units=1/GPa)
#
#
# Indices 1 2 3 4 5 6 
#
# 1 0.013970 -0.003268 -0.003212 0.000000 0.000000 0.000000
# 2 -0.003268 0.013970 -0.003212 0.000000 0.000000 0.000000
# 3 -0.003212 -0.003212 0.008847 0.000000 0.000000 0.000000
# 4 0.000000 0.000000 0.000000 0.032107 0.000000 0.000000
# 5 0.000000 0.000000 0.000000 0.000000 0.032107 0.000000
# 6 0.000000 0.000000 0.000000 0.000000 0.000000 0.034475
#
#
# Mechanical properties :
#
#
# Convention : Reuss Voigt Hill
#
# Bulk Modulus (GPa) = 57.45580 61.88359 59.66970
# Shear Modulus (GPa) = 31.12163 31.89541 31.50852
#
# Velocity S-wave (km/s) = 3.92848 3.97702 3.95283
# Velocity P-wave (km/s) = 7.00494 7.19559 7.10090
#
# Compressibility (1/GPa) = 0.01740468
#
# Stress axis : x y z
#
# Youngs Moduli (GPa) = 71.58200 71.58200 113.03830
#
# Poissons Ratio (x) = 0.23390 0.36304
# Poissons Ratio (y) = 0.23390 0.36304
# Poissons Ratio (z) = 0.22990 0.22990
#
# Static dielectric constant tensor:
#      x y z
#    x 3.474070 0.000000 0.000000 
#    y 0.000000 3.474070 0.000000 
#    z 0.000000 0.000000 3.758250 
# 
# 
# High freq. dielectric constant tensor:
#      x y z
#    x 1.781720 0.000000 0.000000 
#    y 0.000000 1.781720 0.000000 
#    z 0.000000 0.000000 1.799160 
# 
# From -- ./inp_files/2300.got.cif
#   From: 2010.03.12/outbox.cif.g09.slc.cpg/sg188_2_cif.got.tgz:2300.got - 2010.04.01 12:01:06.
