data_PCOD8327935
_publ_section_title
;
Structure prediction by ZEFSAII (Michael W. Deem and Ramdas Pophale) SiO2 
 PCOD8327935
Probable space group: P -6 2 C
;
_chemical_formula_sum "Si O2"
_cell_formula_units_Z 72
_cell_length_a 23.463873
_cell_length_b 23.463873
_cell_length_c 8.658687
_cell_angle_alpha 90.000000
_cell_angle_beta 90.000000
_cell_angle_gamma 120.000000
_cell_volume 4128.402868
_symmetry_space_group_name_H-M "P -6 2 C"
_symmetry_group_IT_number 190
_symmetry_cell_setting 'hexagonal'
loop_
_space_group_symop_operation_xyz
x,y,z
-x+y,-x,1/2-z
-y,x-y,z
x,y,1/2-z
-x+y,-x,z
-y,x-y,1/2-z
x-y,-y,-z
-x,-x+y,-z
y,x,-z
y,x,1/2+z
x-y,-y,1/2+z
-x,-x+y,1/2+z
loop_
_atom_site_type_symbol
_atom_site_label
_atom_site_fract_x
_atom_site_fract_y
_atom_site_fract_z
Si Si1 0.928312 0.855897 0.431631
Si Si2 0.515570 0.586761 0.072426
Si Si3 0.072126 0.359438 0.429988
Si Si4 0.928351 0.638182 0.930769
Si Si5 0.596510 0.073317 0.432010
Si Si6 0.850661 0.147093 0.070146
O O1 0.934683 0.866849 0.250000
O O2 0.897484 0.897484 0.500000
O O3 0.881960 0.779596 0.475833
O O4 0.000000 0.880315 0.500000
O O5 0.502260 0.566299 0.250000
O O6 0.560851 0.665827 0.052913
O O7 0.557484 0.557484 0.000000
O O8 0.443853 0.553594 0.987870
O O9 0.069911 0.340154 0.250000
O O10 0.114326 0.337760 0.531238
O O11 0.000000 0.322464 0.500000
O O12 0.934572 0.632627 0.750000
O O13 0.893191 0.564067 0.002250
O O14 0.886607 0.672750 0.966946
O O15 0.000000 0.683361 0.000000
O O16 0.599354 0.072950 0.250000
O O17 0.557855 0.000000 0.500000
O O18 0.831883 0.135324 0.250000
#
# Coordination Sequence:
#
# PCOD8327935 Si02
#       6
#    12  12  12  12  12  12
#     4  11  24  40  58  76  96 124 164 218 275 331
#     4   9  16  27  44  68  97 127 159 191 229 276
#     4  10  20  33  50  72 100 134 168 206 251 302
#     4  11  21  34  51  71  99 132 166 205 251 303
#     4  10  17  27  45  69  97 127 159 192 230 276
#     4  11  23  37  53  74 100 132 170 212 262 320
#
# _framework density 17.440159000000001
#
# number of rings (size 3 to 8) (size 9 to 14) (size 15 to 20)
#    0.000    1.667    0.000    8.167    0.000    7.333 
#    0.000    0.000    0.000    0.000    0.000    0.000 
#    1.667    0.000    3.000    0.000    3.000    0.000 
#
# Total GULP energy -892493.303250 kJ/mol
# GULP energy per Si atom -12395.740323 kJ/mol
# Density = 1.740046 g / cm^3
# Si number density = 17.440159 Si / 1000 Ang^3
#
#
#
# Elastic Constant Matrix: (Units=GPa)
#
#
# Indices 1 2 3 4 5 6 
#
# 1 77.3589 30.6627 35.7431 0.0000 0.0000 0.0000
# 2 30.6627 77.3589 35.7431 0.0000 0.0000 0.0000
# 3 35.7431 35.7431 126.6499 0.0000 0.0000 0.0000
# 4 0.0000 0.0000 0.0000 28.3563 0.0000 0.0000
# 5 0.0000 0.0000 0.0000 0.0000 28.3563 0.0000
# 6 0.0000 0.0000 0.0000 0.0000 0.0000 23.3481
#
#
#
# Elastic Compliance Matrix: (Units=1/GPa)
#
#
# Indices 1 2 3 4 5 6 
#
# 1 0.016399 -0.005016 -0.003213 0.000000 0.000000 0.000000
# 2 -0.005016 0.016399 -0.003213 0.000000 0.000000 0.000000
# 3 -0.003213 -0.003213 0.009709 0.000000 0.000000 0.000000
# 4 0.000000 0.000000 0.000000 0.035266 0.000000 0.000000
# 5 0.000000 0.000000 0.000000 0.000000 0.035266 0.000000
# 6 0.000000 0.000000 0.000000 0.000000 0.000000 0.042830
#
#
# Mechanical properties :
#
#
# Convention : Reuss Voigt Hill
#
# Bulk Modulus (GPa) = 50.95416 53.96284 52.45850
# Shear Modulus (GPa) = 26.98435 27.96006 27.47220
#
# Velocity S-wave (km/s) = 3.93778 4.00834 3.97322
# Velocity P-wave (km/s) = 7.06787 7.24095 7.15493
#
# Compressibility (1/GPa) = 0.01962548
#
# Stress axis : x y z
#
# Youngs Moduli (GPa) = 60.97849 60.97849 102.99597
#
# Poissons Ratio (x) = 0.30585 0.33089
# Poissons Ratio (y) = 0.30585 0.33089
# Poissons Ratio (z) = 0.19590 0.19590
#
# Static dielectric constant tensor:
#      x y z
#    x 3.689010 0.000000 0.000000 
#    y 0.000000 3.689010 0.000000 
#    z 0.000000 0.000000 3.420930 
# 
# 
# High freq. dielectric constant tensor:
#      x y z
#    x 1.656220 0.000000 0.000000 
#    y 0.000000 1.656220 0.000000 
#    z 0.000000 0.000000 1.698400 
# 
# From -- ./inp_files/1210.got.cif
#   From: 2010.06.25/outbox.cif.g09.slc.cpg/sg190_1_cif.got.tgz:1210.got - 2010.06.28 13:08:06.
