data_PCOD8327915
_publ_section_title
;
Structure prediction by ZEFSAII (Michael W. Deem and Ramdas Pophale) SiO2 
 PCOD8327915
Probable space group: P -6 2 M
;
_chemical_formula_sum "Si O2"
_cell_formula_units_Z 72
_cell_length_a 24.339128
_cell_length_b 24.339128
_cell_length_c 9.200375
_cell_angle_alpha 90.000000
_cell_angle_beta 90.000000
_cell_angle_gamma 120.000000
_cell_volume 4720.045555
_symmetry_space_group_name_H-M "P -6 2 M"
_symmetry_group_IT_number 189
_symmetry_cell_setting 'hexagonal'
loop_
_space_group_symop_operation_xyz
x,y,z
-x+y,-x,-z
-y,x-y,z
x,y,-z
-x+y,-x,z
-y,x-y,-z
x-y,-y,-z
-x,-x+y,-z
y,x,-z
y,x,z
x-y,-y,z
-x,-x+y,z
loop_
_atom_site_type_symbol
_atom_site_label
_atom_site_fract_x
_atom_site_fract_y
_atom_site_fract_z
Si Si1 0.075691 0.590219 0.336662
Si Si2 0.731860 0.803822 0.829289
Si Si3 0.617985 0.925107 0.838841
Si Si4 0.924338 0.408474 0.835655
Si Si5 0.811390 0.069587 0.827691
Si Si6 0.378769 0.075279 0.336444
O O1 0.102255 0.598870 0.500000
O O2 0.102989 0.659873 0.265856
O O3 0.100989 0.551239 0.244371
O O4 0.000000 0.552775 0.337979
O O5 0.784050 0.784050 0.786541
O O6 0.759612 0.877169 0.781858
O O7 0.666160 0.762178 0.745334
O O8 0.716614 0.793863 0.000000
O O9 0.670882 0.910160 0.772120
O O10 0.648031 0.000000 0.851159
O O11 0.596187 0.895125 0.000000
O O12 0.897220 0.341937 0.750540
O O13 0.000000 0.445259 0.836331
O O14 0.898130 0.394672 0.000000
O O15 0.793821 0.000000 0.764748
O O16 0.804828 0.064235 0.000000
O O17 0.392350 0.102864 0.500000
O O18 0.344949 0.000000 0.340514
#
# Coordination Sequence:
#
# PCOD8327915 Si02
#       6
#    12  12  12  12  12  12
#     4   9  15  21  30  47  72  99 124 150 179 208
#     4   9  16  26  41  59  76  97 129 168 210 260
#     4   8  13  22  35  49  66  92 126 158 187 225
#     4   9  15  22  33  49  70  98 130 156 174 200
#     4   8  14  25  41  58  75  98 130 168 210 258
#     4   9  16  25  36  51  73  99 125 155 192 232
#
# _framework density 15.25409
#
# number of rings (size 3 to 8) (size 9 to 14) (size 15 to 20)
#    0.000    3.333    0.000    2.500    0.000    6.000 
#    0.000    0.833    0.000    1.833    0.000    2.333 
#    0.000    0.000    0.000    1.000    0.000   17.333 
#
# Total GULP energy -892254.542559 kJ/mol
# GULP energy per Si atom -12392.424202 kJ/mol
# Density = 1.521937 g / cm^3
# Si number density = 15.254090 Si / 1000 Ang^3
#
#
#
# Elastic Constant Matrix: (Units=GPa)
#
#
# Indices 1 2 3 4 5 6 
#
# 1 77.1002 45.6656 34.6920 0.0000 0.0000 0.0000
# 2 45.6656 77.1002 34.6920 0.0000 0.0000 0.0000
# 3 34.6920 34.6920 88.1788 0.0000 0.0000 0.0000
# 4 0.0000 0.0000 0.0000 9.0948 0.0000 0.0000
# 5 0.0000 0.0000 0.0000 0.0000 9.0948 0.0000
# 6 0.0000 0.0000 0.0000 0.0000 0.0000 15.7173
#
#
#
# Elastic Compliance Matrix: (Units=1/GPa)
#
#
# Indices 1 2 3 4 5 6 
#
# 1 0.021143 -0.010669 -0.004121 0.000000 0.000000 0.000000
# 2 -0.010669 0.021143 -0.004121 0.000000 0.000000 0.000000
# 3 -0.004121 -0.004121 0.014583 0.000000 0.000000 0.000000
# 4 0.000000 0.000000 0.000000 0.109953 0.000000 0.000000
# 5 0.000000 0.000000 0.000000 0.000000 0.109953 0.000000
# 6 0.000000 0.000000 0.000000 0.000000 0.000000 0.063624
#
#
# Mechanical properties :
#
#
# Convention : Reuss Voigt Hill
#
# Bulk Modulus (GPa) = 52.49760 52.49761 52.49761
# Shear Modulus (GPa) = 13.00150 15.27002 14.13576
#
# Velocity S-wave (km/s) = 2.92263 3.16736 3.04746
# Velocity P-wave (km/s) = 6.77342 6.91855 6.84637
#
# Compressibility (1/GPa) = 0.01904849
#
# Stress axis : x y z
#
# Youngs Moduli (GPa) = 47.29612 47.29612 68.57177
#
# Poissons Ratio (x) = 0.50459 0.28259
# Poissons Ratio (y) = 0.50459 0.28259
# Poissons Ratio (z) = 0.19491 0.19491
#
# Static dielectric constant tensor:
#      x y z
#    x 2.774710 0.000000 0.000000 
#    y 0.000000 2.774710 0.000000 
#    z 0.000000 0.000000 3.028680 
# 
# 
# High freq. dielectric constant tensor:
#      x y z
#    x 1.546060 0.000000 0.000000 
#    y 0.000000 1.546060 0.000000 
#    z 0.000000 0.000000 1.581720 
# 
# From -- ./inp_files/1257.got.cif
#   From: 2010.03.12/outbox.cif.g09.slc.cpg/sg189_1_cif.got.tgz:1257.got - 2010.04.01 12:03:36.
