data_PCOD8327957
_publ_section_title
;
Structure prediction by ZEFSAII (Michael W. Deem and Ramdas Pophale) SiO2 
 PCOD8327957
Probable space group: P -6 2 C
;
_chemical_formula_sum "Si O2"
_cell_formula_units_Z 84
_cell_length_a 18.487987
_cell_length_b 18.487987
_cell_length_c 13.069856
_cell_angle_alpha 90.000000
_cell_angle_beta 90.000000
_cell_angle_gamma 120.000000
_cell_volume 3868.839280
_symmetry_space_group_name_H-M "P -6 2 C"
_symmetry_group_IT_number 190
_symmetry_cell_setting 'hexagonal'
loop_
_space_group_symop_operation_xyz
x,y,z
-x+y,-x,1/2-z
-y,x-y,z
x,y,1/2-z
-x+y,-x,z
-y,x-y,1/2-z
x-y,-y,-z
-x,-x+y,-z
y,x,-z
y,x,1/2+z
x-y,-y,1/2+z
-x,-x+y,1/2+z
loop_
_atom_site_type_symbol
_atom_site_label
_atom_site_fract_x
_atom_site_fract_y
_atom_site_fract_z
Si Si1 0.329332 0.021253 0.636073
Si Si2 0.613187 0.492211 0.945529
Si Si3 0.817895 0.956879 0.627432
Si Si4 0.957933 0.136645 0.872107
Si Si5 0.634507 0.903160 0.869601
Si Si6 0.000000 0.570345 0.500000
Si Si7 0.715008 0.550965 0.135332
Si Si8 0.765965 0.349648 0.750000
O O1 0.360119 0.055370 0.750000
O O2 0.409211 0.058111 0.563937
O O3 0.268058 0.053554 0.595107
O O4 0.281689 0.921281 0.634807
O O5 0.644673 0.459546 0.852750
O O6 0.513389 0.443750 0.944816
O O7 0.648953 0.482952 0.055332
O O8 0.819768 0.955096 0.750000
O O9 0.846680 0.893296 0.582938
O O10 0.726079 0.930875 0.586248
O O11 0.881510 0.050026 0.584881
O O12 0.960657 0.132163 0.750000
O O13 0.641776 0.918558 0.750000
O O14 0.570091 0.806877 0.896336
O O15 0.598793 0.959034 0.913977
O O16 0.690560 0.512087 0.250000
O O17 0.681276 0.258964 0.750000
#
# Coordination Sequence:
#
# PCOD8327957 Si02
#       8
#    12  12  12  12  12   6  12   6
#     4  10  18  35  62  98 131 169 226 289 334 394
#     4  12  24  45  71 105 134 171 238 284 349 419
#     4   9  16  31  51  86 129 177 223 272 321 386
#     4   9  16  27  53  88 128 174 226 272 323 382
#     4  10  23  42  62  92 138 180 220 274 351 408
#     4  12  28  40  68 106 132 178 218 290 344 426
#     4  10  21  41  70  98 135 178 222 285 344 403
#     4  10  28  52  72 100 144 192 218 288 360 440
#
# _framework density 21.711939999999998
#
# number of rings (size 3 to 8) (size 9 to 14) (size 15 to 20)
#    0.143    1.714    3.571    0.286    3.000    2.857 
#    0.000    0.000    0.000    0.000    0.000    0.000 
#    0.000    0.000    0.000    0.000    0.000    0.000 
#
# Total GULP energy -1041729.127084 kJ/mol
# GULP energy per Si atom -12401.537227 kJ/mol
# Density = 2.166252 g / cm^3
# Si number density = 21.711940 Si / 1000 Ang^3
#
#
#
# Elastic Constant Matrix: (Units=GPa)
#
#
# Indices 1 2 3 4 5 6 
#
# 1 124.1226 59.2897 44.5034 0.0000 0.0000 0.0000
# 2 59.2897 124.1226 44.5034 0.0000 0.0000 0.0000
# 3 44.5034 44.5034 97.5571 0.0000 0.0000 0.0000
# 4 0.0000 0.0000 0.0000 30.6871 0.0000 0.0000
# 5 0.0000 0.0000 0.0000 0.0000 30.6871 0.0000
# 6 0.0000 0.0000 0.0000 0.0000 0.0000 32.4164
#
#
#
# Elastic Compliance Matrix: (Units=1/GPa)
#
#
# Indices 1 2 3 4 5 6 
#
# 1 0.011213 -0.004211 -0.003194 0.000000 0.000000 0.000000
# 2 -0.004211 0.011213 -0.003194 0.000000 0.000000 0.000000
# 3 -0.003194 -0.003194 0.013165 0.000000 0.000000 0.000000
# 4 0.000000 0.000000 0.000000 0.032587 0.000000 0.000000
# 5 0.000000 0.000000 0.000000 0.000000 0.032587 0.000000
# 6 0.000000 0.000000 0.000000 0.000000 0.000000 0.030849
#
#
# Mechanical properties :
#
#
# Convention : Reuss Voigt Hill
#
# Bulk Modulus (GPa) = 69.48215 71.37727 70.42971
# Shear Modulus (GPa) = 31.72380 31.92520 31.82450
#
# Velocity S-wave (km/s) = 3.82661 3.83874 3.83268
# Velocity P-wave (km/s) = 7.18298 7.25217 7.21766
#
# Compressibility (1/GPa) = 0.01439218
#
# Stress axis : x y z
#
# Youngs Moduli (GPa) = 89.17978 89.17978 75.96041
#
# Poissons Ratio (x) = 0.37553 0.24264
# Poissons Ratio (y) = 0.37553 0.24264
# Poissons Ratio (z) = 0.28487 0.28487
#
# Static dielectric constant tensor:
#      x y z
#    x 3.843180 0.000000 0.000000 
#    y 0.000000 3.843180 0.000000 
#    z 0.000000 0.000000 4.071440 
# 
# 
# High freq. dielectric constant tensor:
#      x y z
#    x 1.841160 0.000000 0.000000 
#    y 0.000000 1.841160 0.000000 
#    z 0.000000 0.000000 1.877980 
# 
# From -- ./inp_files/3218.got.cif
#   From: 2010.06.25/outbox.cif.g09.slc.cpg/sg190_2_cif.got.tgz:3218.got - 2010.06.28 13:08:06.
