data_PCOD8327506
_publ_section_title
;
Structure prediction by ZEFSAII (Michael W. Deem and Ramdas Pophale) SiO2 
 PCOD8327506
Probable space group: P -6 2 M
;
_chemical_formula_sum "Si O2"
_cell_formula_units_Z 72
_cell_length_a 20.509531
_cell_length_b 20.509531
_cell_length_c 11.797447
_cell_angle_alpha 90.000000
_cell_angle_beta 90.000000
_cell_angle_gamma 120.000000
_cell_volume 4297.640911
_symmetry_space_group_name_H-M "P -6 2 M"
_symmetry_group_IT_number 189
_symmetry_cell_setting 'hexagonal'
loop_
_space_group_symop_operation_xyz
x,y,z
-x+y,-x,-z
-y,x-y,z
x,y,-z
-x+y,-x,z
-y,x-y,-z
x-y,-y,-z
-x,-x+y,-z
y,x,-z
y,x,z
x-y,-y,z
-x,-x+y,z
loop_
_atom_site_type_symbol
_atom_site_label
_atom_site_fract_x
_atom_site_fract_y
_atom_site_fract_z
Si Si1 0.909944 0.623507 0.000000
Si Si2 0.854185 0.673434 0.365346
Si Si3 0.544905 0.455126 0.626599
Si Si4 0.914123 0.088132 0.761537
Si Si5 0.089049 0.859348 0.000000
Si Si6 0.911495 0.577701 0.761667
Si Si7 0.083678 0.398817 0.365170
O O1 0.878706 0.571411 0.888167
O O2 0.877222 0.680493 0.000000
O O3 0.000000 0.670411 0.000000
O O4 0.858526 0.674108 0.500000
O O5 0.896133 0.758941 0.323289
O O6 0.895485 0.631129 0.317538
O O7 0.768398 0.629547 0.319960
O O8 0.549519 0.427453 0.500000
O O9 0.496824 0.496824 0.622081
O O10 0.505755 0.381931 0.707857
O O11 0.628385 0.514701 0.673510
O O12 0.000000 0.133459 0.719142
O O13 0.886481 0.000000 0.760439
O O14 0.910520 0.116201 0.888041
O O15 0.000000 0.809135 0.000000
O O16 0.000000 0.613403 0.769675
O O17 0.079668 0.396219 0.500000
O O18 0.000000 0.343572 0.315949
#
# Coordination Sequence:
#
# PCOD8327506 Si02
#       7
#     6  12  12  12   6  12  12
#     4   9  16  29  47  68  94 122 151 191 246 297
#     4  11  21  31  47  71  98 128 163 205 252 306
#     4   8  14  26  46  70  93 115 140 175 219 272
#     4  11  22  35  50  67  92 129 177 229 274 315
#     4   9  17  33  51  66  87 120 165 215 265 307
#     4  10  18  29  48  72  96 121 153 194 243 297
#     4   8  15  29  46  64  90 124 157 184 219 276
#
# _framework density 16.753378000000001
#
# number of rings (size 3 to 8) (size 9 to 14) (size 15 to 20)
#    0.000    2.500    1.667    2.917    0.000    3.000 
#    0.000    0.833    0.000    3.667    0.000    7.000 
#    0.000    0.000    0.000    0.000    0.000    0.000 
#
# Total GULP energy -892515.458784 kJ/mol
# GULP energy per Si atom -12396.048039 kJ/mol
# Density = 1.671525 g / cm^3
# Si number density = 16.753378 Si / 1000 Ang^3
#
#
#
# Elastic Constant Matrix: (Units=GPa)
#
#
# Indices 1 2 3 4 5 6 
#
# 1 49.8941 6.4355 18.7451 0.0000 0.0000 0.0000
# 2 6.4355 49.8941 18.7451 0.0000 0.0000 0.0000
# 3 18.7451 18.7451 77.1640 0.0000 0.0000 0.0000
# 4 0.0000 0.0000 0.0000 17.4396 0.0000 0.0000
# 5 0.0000 0.0000 0.0000 0.0000 17.4396 0.0000
# 6 0.0000 0.0000 0.0000 0.0000 0.0000 21.7293
#
#
#
# Elastic Compliance Matrix: (Units=1/GPa)
#
#
# Indices 1 2 3 4 5 6 
#
# 1 0.022093 -0.000917 -0.005144 0.000000 0.000000 0.000000
# 2 -0.000917 0.022093 -0.005144 0.000000 0.000000 0.000000
# 3 -0.005144 -0.005144 0.015459 0.000000 0.000000 0.000000
# 4 0.000000 0.000000 0.000000 0.057341 0.000000 0.000000
# 5 0.000000 0.000000 0.000000 0.000000 0.057341 0.000000
# 6 0.000000 0.000000 0.000000 0.000000 0.000000 0.046021
#
#
# Mechanical properties :
#
#
# Convention : Reuss Voigt Hill
#
# Bulk Modulus (GPa) = 26.85685 29.42263 28.13974
# Shear Modulus (GPa) = 19.59471 20.19011 19.89241
#
# Velocity S-wave (km/s) = 3.42365 3.47527 3.44956
# Velocity P-wave (km/s) = 5.62974 5.80549 5.71829
#
# Compressibility (1/GPa) = 0.03723445
#
# Stress axis : x y z
#
# Youngs Moduli (GPa) = 45.26232 45.26232 64.68817
#
# Poissons Ratio (x) = 0.04151 0.33278
# Poissons Ratio (y) = 0.04151 0.33278
# Poissons Ratio (z) = 0.23284 0.23284
#
# Static dielectric constant tensor:
#      x y z
#    x 3.177640 0.000000 0.000000 
#    y 0.000000 3.177640 0.000000 
#    z 0.000000 0.000000 3.228390 
# 
# 
# High freq. dielectric constant tensor:
#      x y z
#    x 1.627690 0.000000 0.000000 
#    y 0.000000 1.627690 0.000000 
#    z 0.000000 0.000000 1.633710 
# 
# From -- ./inp_files/2081.got.cif
#   From: 2010.03.12/outbox.cif.g09.slc.cpg/sg189_2_cif.got.tgz:2081.got - 2010.04.01 12:03:36.
