data_PCOD8327346
_publ_section_title
;
Structure prediction by ZEFSAII (Michael W. Deem and Ramdas Pophale) SiO2 
 PCOD8327346
Probable space group: P -6 C 2
;
_chemical_formula_sum "Si O2"
_cell_formula_units_Z 72
_cell_length_a 24.095744
_cell_length_b 24.095744
_cell_length_c 8.922818
_cell_angle_alpha 90.000000
_cell_angle_beta 90.000000
_cell_angle_gamma 120.000000
_cell_volume 4486.558629
_symmetry_space_group_name_H-M "P -6 C 2"
_symmetry_group_IT_number 188
_symmetry_cell_setting 'hexagonal'
loop_
_space_group_symop_operation_xyz
x,y,z
-x+y,-x,1/2-z
-y,x-y,z
x,y,1/2-z
-x+y,-x,z
-y,x-y,1/2-z
-y,-x,-z
-x+y,y,-z
x,x-y,-z
-x+y,y,1/2+z
x,x-y,1/2+z
-y,-x,1/2+z
loop_
_atom_site_type_symbol
_atom_site_label
_atom_site_fract_x
_atom_site_fract_y
_atom_site_fract_z
Si Si1 0.407260 0.147414 0.575207
Si Si2 0.343229 0.340801 0.071029
Si Si3 0.216694 0.328867 0.413693
Si Si4 0.407125 0.476937 0.571081
Si Si5 0.780663 0.446271 0.072858
Si Si6 0.294394 0.480781 0.418196
O O1 0.401926 0.154436 0.750000
O O2 0.381683 0.190841 0.500000
O O3 0.363545 0.074252 0.523189
O O4 0.480253 0.170776 0.528779
O O5 0.349639 0.354499 0.250000
O O6 0.269254 0.312537 0.017718
O O7 0.388328 0.406510 0.985372
O O8 0.197691 0.298349 0.250000
O O9 0.149165 0.298329 0.500000
O O10 0.249405 0.404978 0.407793
O O11 0.410097 0.479544 0.750000
O O12 0.476019 0.523982 0.500000
O O13 0.357325 0.498575 0.514168
O O14 0.773257 0.435719 0.250000
O O15 0.711643 0.423286 0.000000
O O16 0.808998 0.404499 0.000000
O O17 0.314069 0.509331 0.250000
O O18 0.255303 0.510607 0.500000
#
# Coordination Sequence:
#
# PCOD8327346 Si02
#       6
#    12  12  12  12  12  12
#     4   9  19  34  50  66  88 117 151 187 228 278
#     4   9  18  33  48  65  90 120 150 185 227 272
#     4   8  14  24  41  63  88 112 136 166 202 242
#     4  11  21  32  46  66  91 120 153 193 238 284
#     4  10  19  31  46  63  81 104 137 183 234 285
#     4   9  16  28  45  65  87 113 144 178 216 263
#
# _framework density 16.047934000000001
#
# number of rings (size 3 to 8) (size 9 to 14) (size 15 to 20)
#    0.000    2.667    0.000    3.667    0.000    6.000 
#    0.000    1.667    0.000    0.333    0.000    2.333 
#    0.000    0.000    0.000    0.500    0.000    6.000 
#
# Total GULP energy -892518.822509 kJ/mol
# GULP energy per Si atom -12396.094757 kJ/mol
# Density = 1.601141 g / cm^3
# Si number density = 16.047934 Si / 1000 Ang^3
#
#
#
# Elastic Constant Matrix: (Units=GPa)
#
#
# Indices 1 2 3 4 5 6 
#
# 1 92.8759 63.8546 42.5069 0.0001 0.0000 0.0000
# 2 63.8546 92.8759 42.5069 -0.0001 0.0000 0.0000
# 3 42.5069 42.5069 87.7578 0.0000 0.0000 0.0000
# 4 0.0001 -0.0001 0.0000 21.5751 0.0000 0.0000
# 5 0.0000 0.0000 0.0000 0.0000 21.5751 0.0001
# 6 0.0000 0.0000 0.0000 0.0000 0.0001 14.5107
#
#
#
# Elastic Compliance Matrix: (Units=1/GPa)
#
#
# Indices 1 2 3 4 5 6 
#
# 1 0.021556 -0.012902 -0.004192 0.000000 0.000000 0.000000
# 2 -0.012902 0.021556 -0.004192 0.000000 0.000000 0.000000
# 3 -0.004192 -0.004192 0.015456 0.000000 0.000000 0.000000
# 4 0.000000 0.000000 0.000000 0.046350 0.000000 0.000000
# 5 0.000000 0.000000 0.000000 0.000000 0.046350 0.000000
# 6 0.000000 0.000000 0.000000 0.000000 0.000000 0.068915
#
#
# Mechanical properties :
#
#
# Convention : Reuss Voigt Hill
#
# Bulk Modulus (GPa) = 62.51228 63.47181 62.99205
# Shear Modulus (GPa) = 18.65086 19.84158 19.24622
#
# Velocity S-wave (km/s) = 3.41280 3.52006 3.46684
# Velocity P-wave (km/s) = 7.38699 7.49388 7.44063
#
# Compressibility (1/GPa) = 0.01599686
#
# Stress axis : x y z
#
# Youngs Moduli (GPa) = 46.39135 46.39135 64.70128
#
# Poissons Ratio (x) = 0.59853 0.27121
# Poissons Ratio (y) = 0.59853 0.27121
# Poissons Ratio (z) = 0.19446 0.19446
#
# Static dielectric constant tensor:
#      x y z
#    x 2.967550 0.000000 0.000000 
#    y 0.000000 2.967550 0.000000 
#    z 0.000000 0.000000 3.163370 
# 
# 
# High freq. dielectric constant tensor:
#      x y z
#    x 1.589810 0.000000 0.000000 
#    y 0.000000 1.589810 0.000000 
#    z 0.000000 0.000000 1.625230 
# 
# From -- ./inp_files/1013.got.cif
#   From: 2010.03.12/outbox.cif.g09.slc.cpg/sg188_1_cif.got.tgz:1013.got - 2010.04.01 12:01:06.
