data_PCOD8327333
_publ_section_title
;
Structure prediction by ZEFSAII (Michael W. Deem and Ramdas Pophale) SiO2 
 PCOD8327333
Probable space group: P -6 C 2
;
_chemical_formula_sum "Si O2"
_cell_formula_units_Z 76
_cell_length_a 17.287060
_cell_length_b 17.287060
_cell_length_c 15.113291
_cell_angle_alpha 90.000000
_cell_angle_beta 90.000000
_cell_angle_gamma 120.000000
_cell_volume 3911.397510
_symmetry_space_group_name_H-M "P -6 C 2"
_symmetry_group_IT_number 188
_symmetry_cell_setting 'hexagonal'
loop_
_space_group_symop_operation_xyz
x,y,z
-x+y,-x,1/2-z
-y,x-y,z
x,y,1/2-z
-x+y,-x,z
-y,x-y,1/2-z
-y,-x,-z
-x+y,y,-z
x,x-y,-z
-x+y,y,1/2+z
x,x-y,1/2+z
-y,-x,1/2+z
loop_
_atom_site_type_symbol
_atom_site_label
_atom_site_fract_x
_atom_site_fract_y
_atom_site_fract_z
Si Si1 0.946170 0.714527 0.645878
Si Si2 0.000000 0.000000 0.394669
Si Si3 0.015845 0.597295 0.148249
Si Si4 0.799742 0.896415 0.350108
Si Si5 0.157999 0.493160 0.000077
Si Si6 0.278015 0.055545 0.645649
Si Si7 0.410651 0.425304 0.648341
O O1 0.945105 0.730084 0.750000
O O2 0.858822 0.712524 0.603633
O O3 0.039883 0.796715 0.606797
O O4 0.942578 0.620546 0.625458
O O5 0.028435 0.095630 0.355333
O O6 0.000000 0.000000 0.500000
O O7 0.046310 0.620758 0.250000
O O8 0.972772 0.490239 0.130948
O O9 0.946315 0.631030 0.123718
O O10 0.102506 0.650896 0.088831
O O11 0.766130 0.885627 0.250000
O O12 0.775500 0.966998 0.396326
O O13 0.100188 0.454157 0.088131
O O14 0.233641 0.467281 0.000000
O O15 0.199644 0.599822 0.000000
O O16 0.263581 0.055934 0.750000
O O17 0.387323 0.433292 0.750000
#
# Coordination Sequence:
#
# PCOD8327333 Si02
#       7
#    12   4  12  12  12  12  12
#     4   9  17  30  52  77  99 133 178 214 252 309
#     4  12  22  32  40  66 112 146 166 216 256 293
#     4   9  19  36  55  76 104 136 173 219 264 308
#     4  10  18  32  50  66  94 140 182 208 244 299
#     4  10  21  36  53  76 102 136 172 214 261 312
#     4   9  17  30  52  77  99 133 178 214 252 309
#     4   9  19  36  55  76 104 136 173 219 264 308
#
# _framework density 19.430396999999999
#
# number of rings (size 3 to 8) (size 9 to 14) (size 15 to 20)
#    0.000    2.526    1.579    0.632    2.211    0.632 
#    2.842    0.789    0.000    2.526    0.000    4.421 
#    0.000    0.000    0.000    0.000    0.000    0.000 
#
# Total GULP energy -941550.909236 kJ/mol
# GULP energy per Si atom -12388.827753 kJ/mol
# Density = 1.938617 g / cm^3
# Si number density = 19.430397 Si / 1000 Ang^3
#
#
#
# Elastic Constant Matrix: (Units=GPa)
#
#
# Indices 1 2 3 4 5 6 
#
# 1 137.4723 89.2752 18.6993 0.0000 0.0000 0.0000
# 2 89.2752 137.4723 18.6993 0.0000 0.0000 0.0000
# 3 18.6993 18.6993 50.4394 0.0000 0.0000 0.0000
# 4 0.0000 0.0000 0.0000 7.0554 0.0000 0.0000
# 5 0.0000 0.0000 0.0000 0.0000 7.0554 0.0000
# 6 0.0000 0.0000 0.0000 0.0000 0.0000 24.0985
#
#
#
# Elastic Compliance Matrix: (Units=1/GPa)
#
#
# Indices 1 2 3 4 5 6 
#
# 1 0.012723 -0.008025 -0.001741 0.000000 0.000000 0.000000
# 2 -0.008025 0.012723 -0.001741 0.000000 0.000000 0.000000
# 3 -0.001741 -0.001741 0.021117 0.000000 0.000000 0.000000
# 4 0.000000 0.000000 0.000000 0.141735 0.000000 0.000000
# 5 0.000000 0.000000 0.000000 0.000000 0.141735 0.000000
# 6 0.000000 0.000000 0.000000 0.000000 0.000000 0.041496
#
#
# Mechanical properties :
#
#
# Convention : Reuss Voigt Hill
#
# Bulk Modulus (GPa) = 42.47011 64.30349 53.38680
# Shear Modulus (GPa) = 12.42566 20.88923 16.65745
#
# Velocity S-wave (km/s) = 2.53157 3.28240 2.93112
# Velocity P-wave (km/s) = 5.51816 6.89432 6.24427
#
# Compressibility (1/GPa) = 0.02354597
#
# Stress axis : x y z
#
# Youngs Moduli (GPa) = 78.59917 78.59917 47.35525
#
# Poissons Ratio (x) = 0.63079 0.08247
# Poissons Ratio (y) = 0.63079 0.08247
# Poissons Ratio (z) = 0.13688 0.13688
#
# Static dielectric constant tensor:
#      x y z
#    x 3.672290 0.000000 0.000000 
#    y 0.000000 3.672290 0.000000 
#    z 0.000000 0.000000 3.375370 
# 
# 
# High freq. dielectric constant tensor:
#      x y z
#    x 1.743690 0.000000 0.000000 
#    y 0.000000 1.743690 0.000000 
#    z 0.000000 0.000000 1.744530 
# 
# From -- ./inp_files/2523.got.cif
#   From: 2010.03.12/outbox.cif.g09.slc.cpg/sg188_2_cif.got.tgz:2523.got - 2010.04.01 12:01:06.
