data_PCOD8327464
_publ_section_title
;
Structure prediction by ZEFSAII (Michael W. Deem and Ramdas Pophale) SiO2 
 PCOD8327464
Probable space group: P -6 C 2
;
_chemical_formula_sum "Si O2"
_cell_formula_units_Z 34
_cell_length_a 10.404044
_cell_length_b 10.404044
_cell_length_c 15.420030
_cell_angle_alpha 90.000000
_cell_angle_beta 90.000000
_cell_angle_gamma 120.000000
_cell_volume 1445.507039
_symmetry_space_group_name_H-M "P -6 C 2"
_symmetry_group_IT_number 188
_symmetry_cell_setting 'hexagonal'
loop_
_space_group_symop_operation_xyz
x,y,z
-x+y,-x,1/2-z
-y,x-y,z
x,y,1/2-z
-x+y,-x,z
-y,x-y,1/2-z
-y,-x,-z
-x+y,y,-z
x,x-y,-z
-x+y,y,1/2+z
x,x-y,1/2+z
-y,-x,1/2+z
loop_
_atom_site_type_symbol
_atom_site_label
_atom_site_fract_x
_atom_site_fract_y
_atom_site_fract_z
Si Si1 0.154336 0.166514 0.250000
Si Si2 0.201623 0.353551 0.404156
Si Si3 0.478174 0.992611 0.149569
Si Si4 0.666668 0.333334 0.147309
O O1 0.228531 0.245103 0.340588
O O2 0.154464 0.012911 0.250000
O O3 0.143866 0.287731 0.500000
O O4 0.370909 0.489231 0.409009
O O5 0.080705 0.382978 0.358774
O O6 0.520034 0.987821 0.250000
O O7 0.565147 0.162935 0.114315
O O8 0.666667 0.333334 0.250000
#
# Coordination Sequence:
#
# PCOD8327464 Si02
#       4
#     6  12  12   4
#     4  10  26  44  66  94 136 178 230 276 336 408
#     4  12  25  43  70 101 136 178 230 282 341 414
#     4  11  22  44  71 102 138 183 227 285 346 411
#     4   9  24  39  73 104 136 175 230 286 349 401
#
# _framework density 23.521156999999999
#
# number of rings (size 3 to 8) (size 9 to 14) (size 15 to 20)
#    0.353    0.706    3.529    1.765    4.941    1.412 
#    0.000    5.294    0.000    0.000    0.000    0.000 
#    0.000    0.000    0.000    0.000    0.000    0.000 
#
# Total GULP energy -421300.954681 kJ/mol
# GULP energy per Si atom -12391.204549 kJ/mol
# Density = 2.346762 g / cm^3
# Si number density = 23.521157 Si / 1000 Ang^3
#
#
#
# Elastic Constant Matrix: (Units=GPa)
#
#
# Indices 1 2 3 4 5 6 
#
# 1 109.0717 24.7569 5.9839 -0.0001 0.0000 0.0000
# 2 24.7569 109.0706 5.9832 -0.0001 0.0000 -0.0001
# 3 5.9839 5.9832 131.4195 0.0000 0.0000 -0.0003
# 4 -0.0001 -0.0001 0.0000 6.3937 0.0000 0.0000
# 5 0.0000 0.0000 0.0000 0.0000 6.3934 0.0000
# 6 0.0000 -0.0001 -0.0003 0.0000 0.0000 42.1572
#
#
#
# Elastic Compliance Matrix: (Units=1/GPa)
#
#
# Indices 1 2 3 4 5 6 
#
# 1 0.009682 -0.002179 -0.000342 0.000000 0.000000 0.000000
# 2 -0.002179 0.009682 -0.000342 0.000000 0.000000 0.000000
# 3 -0.000342 -0.000342 0.007640 0.000000 0.000000 0.000000
# 4 0.000000 0.000000 0.000000 0.156403 0.000000 0.000000
# 5 0.000000 0.000000 0.000000 0.000000 0.156410 0.000000
# 6 0.000000 0.000000 0.000000 0.000000 0.000000 0.023721
#
#
# Mechanical properties :
#
#
# Convention : Reuss Voigt Hill
#
# Bulk Modulus (GPa) = 46.99345 47.00107 46.99726
# Shear Modulus (GPa) = 13.28533 31.84472 22.56502
#
# Velocity S-wave (km/s) = 2.37918 3.68350 3.10070
# Velocity P-wave (km/s) = 5.25071 6.17387 5.73091
#
# Compressibility (1/GPa) = 0.02127956
#
# Stress axis : x y z
#
# Youngs Moduli (GPa) = 103.28911 103.28815 130.88440
#
# Poissons Ratio (x) = 0.22504 0.04472
# Poissons Ratio (y) = 0.22504 0.04471
# Poissons Ratio (z) = 0.03529 0.03528
#
# Static dielectric constant tensor:
#      x y z
#    x 4.065030 0.000000 0.000000 
#    y 0.000000 4.065040 0.000000 
#    z 0.000000 0.000000 3.923490 
# 
# 
# High freq. dielectric constant tensor:
#      x y z
#    x 1.929340 0.000000 0.000000 
#    y 0.000000 1.929340 0.000000 
#    z 0.000000 0.000000 1.918260 
# 
# From -- ./inp_files/1892.got.cif
#   From: 2010.03.12/outbox.cif.g09.slc.cpg/sg188_1_cif.got.tgz:1892.got - 2010.04.01 12:01:06.
