data_PCOD8327747
_publ_section_title
;
Structure prediction by ZEFSAII (Michael W. Deem and Ramdas Pophale) SiO2 
 PCOD8327747
Probable space group: P -6 2 M
;
_chemical_formula_sum "Si O2"
_cell_formula_units_Z 84
_cell_length_a 19.185686
_cell_length_b 19.185686
_cell_length_c 14.569711
_cell_angle_alpha 90.000000
_cell_angle_beta 90.000000
_cell_angle_gamma 120.000000
_cell_volume 4644.470768
_symmetry_space_group_name_H-M "P -6 2 M"
_symmetry_group_IT_number 189
_symmetry_cell_setting 'hexagonal'
loop_
_space_group_symop_operation_xyz
x,y,z
-x+y,-x,-z
-y,x-y,z
x,y,-z
-x+y,-x,z
-y,x-y,-z
x-y,-y,-z
-x,-x+y,-z
y,x,-z
y,x,z
x-y,-y,z
-x,-x+y,z
loop_
_atom_site_type_symbol
_atom_site_label
_atom_site_fract_x
_atom_site_fract_y
_atom_site_fract_z
Si Si1 0.647647 0.236141 0.106216
Si Si2 0.199986 0.495762 0.392649
Si Si3 0.470406 0.842451 0.608224
Si Si4 0.909143 0.092467 0.104486
Si Si5 0.549175 0.909851 0.220030
Si Si6 0.705496 0.906941 0.252802
Si Si7 0.223618 0.907157 0.608027
O O1 0.735761 0.316515 0.125704
O O2 0.629851 0.157990 0.165317
O O3 0.643149 0.211092 0.000000
O O4 0.210104 0.502642 0.500000
O O5 0.285086 0.511436 0.355861
O O6 0.184800 0.565722 0.358981
O O7 0.125488 0.409340 0.364212
O O8 0.487135 0.864554 0.500000
O O9 0.527087 0.917143 0.673502
O O10 0.855076 0.116168 0.164543
O O11 0.000000 0.144941 0.138670
O O12 0.884273 0.000000 0.116778
O O13 0.898993 0.111856 0.000000
O O14 0.616371 0.883421 0.222308
O O15 0.585182 0.000000 0.177105
O O16 0.711969 0.859865 0.340487
O O17 0.757498 0.000000 0.280305
O O18 0.204975 0.897447 0.500000
O O19 0.264626 0.000000 0.638546
#
# Coordination Sequence:
#
# PCOD8327747 Si02
#       7
#    12  12  12  12  12  12  12
#     4   8  19  40  64  84 103 139 188 233 281 336
#     4   9  18  32  51  75 102 140 183 227 272 317
#     4  10  20  34  52  78 113 148 186 227 273 324
#     4   9  17  31  53  79 105 134 171 218 271 326
#     4  11  23  34  53  86 117 149 185 229 282 332
#     4  10  21  35  50  76 111 145 183 221 271 336
#     4  10  20  35  54  75 103 144 191 234 276 322
#
# _framework density 18.086020999999999
#
# number of rings (size 3 to 8) (size 9 to 14) (size 15 to 20)
#    0.286    2.143    1.429    0.857    2.000    3.714 
#    0.000    4.286    0.000    1.143    0.000    0.000 
#    0.000    0.000    0.000    0.000    0.000    0.000 
#
# Total GULP energy -1040846.031079 kJ/mol
# GULP energy per Si atom -12391.024180 kJ/mol
# Density = 1.804486 g / cm^3
# Si number density = 18.086021 Si / 1000 Ang^3
#
#
#
# Elastic Constant Matrix: (Units=GPa)
#
#
# Indices 1 2 3 4 5 6 
#
# 1 102.0867 46.8290 47.2152 0.0000 0.0000 0.0000
# 2 46.8290 102.0867 47.2152 0.0000 0.0000 0.0000
# 3 47.2152 47.2152 76.3784 0.0000 0.0000 0.0000
# 4 0.0000 0.0000 0.0000 23.3861 0.0000 0.0000
# 5 0.0000 0.0000 0.0000 0.0000 23.3861 0.0000
# 6 0.0000 0.0000 0.0000 0.0000 0.0000 27.6289
#
#
#
# Elastic Compliance Matrix: (Units=1/GPa)
#
#
# Indices 1 2 3 4 5 6 
#
# 1 0.014571 -0.003526 -0.006828 0.000000 0.000000 0.000000
# 2 -0.003526 0.014571 -0.006828 0.000000 0.000000 0.000000
# 3 -0.006828 -0.006828 0.021534 0.000000 0.000000 0.000000
# 4 0.000000 0.000000 0.000000 0.042760 0.000000 0.000000
# 5 0.000000 0.000000 0.000000 0.000000 0.042760 0.000000
# 6 0.000000 0.000000 0.000000 0.000000 0.000000 0.036194
#
#
# Mechanical properties :
#
#
# Convention : Reuss Voigt Hill
#
# Bulk Modulus (GPa) = 61.30029 62.56338 61.93184
# Shear Modulus (GPa) = 23.56371 24.16639 23.86505
#
# Velocity S-wave (km/s) = 3.61344 3.65936 3.63647
# Velocity P-wave (km/s) = 7.16775 7.24719 7.20758
#
# Compressibility (1/GPa) = 0.01631314
#
# Stress axis : x y z
#
# Youngs Moduli (GPa) = 68.63019 68.63019 46.43831
#
# Poissons Ratio (x) = 0.24200 0.31706
# Poissons Ratio (y) = 0.24200 0.31706
# Poissons Ratio (z) = 0.46858 0.46858
#
# Static dielectric constant tensor:
#      x y z
#    x 3.631870 0.000000 0.000000 
#    y 0.000000 3.631870 0.000000 
#    z 0.000000 0.000000 3.252500 
# 
# 
# High freq. dielectric constant tensor:
#      x y z
#    x 1.696610 0.000000 0.000000 
#    y 0.000000 1.696610 0.000000 
#    z 0.000000 0.000000 1.692820 
# 
# From -- ./inp_files/2807.got.cif
#   From: 2010.03.12/outbox.cif.g09.slc.cpg/sg189_2_cif.got.tgz:2807.got - 2010.04.01 12:03:36.
