data_PCOD8327938
_publ_section_title
;
Structure prediction by ZEFSAII (Michael W. Deem and Ramdas Pophale) SiO2 
 PCOD8327938
Probable space group: P -6 2 C
;
_chemical_formula_sum "Si O2"
_cell_formula_units_Z 84
_cell_length_a 17.924984
_cell_length_b 17.924984
_cell_length_c 15.533043
_cell_angle_alpha 90.000000
_cell_angle_beta 90.000000
_cell_angle_gamma 120.000000
_cell_volume 4322.198712
_symmetry_space_group_name_H-M "P -6 2 C"
_symmetry_group_IT_number 190
_symmetry_cell_setting 'hexagonal'
loop_
_space_group_symop_operation_xyz
x,y,z
-x+y,-x,1/2-z
-y,x-y,z
x,y,1/2-z
-x+y,-x,z
-y,x-y,1/2-z
x-y,-y,-z
-x,-x+y,-z
y,x,-z
y,x,1/2+z
x-y,-y,1/2+z
-x,-x+y,1/2+z
loop_
_atom_site_type_symbol
_atom_site_label
_atom_site_fract_x
_atom_site_fract_y
_atom_site_fract_z
Si Si1 0.406529 0.158552 0.997967
Si Si2 0.170881 0.943642 0.582132
Si Si3 0.868944 0.387894 0.250000
Si Si4 0.761359 0.987841 0.853115
Si Si5 0.582416 0.895072 0.576202
Si Si6 0.714260 0.198021 0.250000
Si Si7 0.293522 0.111843 0.844303
Si Si8 0.924461 0.425963 0.437660
O O1 0.328677 0.100233 0.062624
O O2 0.427321 0.256490 0.001552
O O3 0.492605 0.155568 0.025664
O O4 0.374426 0.125841 0.901469
O O5 0.076363 0.870744 0.613265
O O6 0.170087 0.000000 0.500000
O O7 0.219220 0.011789 0.658301
O O8 0.799003 0.289363 0.250000
O O9 0.807143 0.429413 0.250000
O O10 0.931133 0.415265 0.334299
O O11 0.744412 0.977352 0.750000
O O12 0.678730 0.975284 0.909354
O O13 0.833876 0.083805 0.878729
O O14 0.568953 0.847687 0.666188
O O15 0.512442 0.920809 0.549168
O O16 0.331688 0.142726 0.750000
O O17 0.000000 0.433128 0.500000
#
# Coordination Sequence:
#
# PCOD8327938 Si02
#       8
#    12  12   6  12  12   6  12  12
#     4  10  21  40  57  83 117 152 195 246 304 365
#     4   9  19  35  57  84 115 152 198 244 302 358
#     4  10  21  36  62  90 121 153 191 251 309 373
#     4  10  20  35  58  85 120 159 204 251 295 357
#     4  10  21  35  60  85 120 156 191 239 306 363
#     4  10  17  36  56  88 113 149 189 239 303 365
#     4  10  21  37  59  85 114 161 208 248 292 361
#     4  11  23  39  58  91 124 152 194 249 308 368
#
# _framework density 19.434552
#
# number of rings (size 3 to 8) (size 9 to 14) (size 15 to 20)
#    0.000    2.000    2.143    1.857    2.000    4.571 
#    6.857    0.000    0.000    0.000    0.000    0.000 
#    0.000    0.000    0.000    0.000    0.000    0.000 
#
# Total GULP energy -1040691.042782 kJ/mol
# GULP energy per Si atom -12389.179081 kJ/mol
# Density = 1.939032 g / cm^3
# Si number density = 19.434552 Si / 1000 Ang^3
#
#
#
# Elastic Constant Matrix: (Units=GPa)
#
#
# Indices 1 2 3 4 5 6 
#
# 1 72.7576 27.7424 34.4207 0.0000 0.0000 0.0000
# 2 27.7424 72.7576 34.4207 0.0000 0.0000 0.0000
# 3 34.4207 34.4207 87.9359 0.0000 0.0000 0.0000
# 4 0.0000 0.0000 0.0000 28.6974 0.0000 0.0000
# 5 0.0000 0.0000 0.0000 0.0000 28.6974 0.0000
# 6 0.0000 0.0000 0.0000 0.0000 0.0000 22.5076
#
#
#
# Elastic Compliance Matrix: (Units=1/GPa)
#
#
# Indices 1 2 3 4 5 6 
#
# 1 0.017905 -0.004310 -0.005322 0.000000 0.000000 0.000000
# 2 -0.004310 0.017905 -0.005322 0.000000 0.000000 0.000000
# 3 -0.005322 -0.005322 0.015538 0.000000 0.000000 0.000000
# 4 0.000000 0.000000 0.000000 0.034846 0.000000 0.000000
# 5 0.000000 0.000000 0.000000 0.000000 0.034846 0.000000
# 6 0.000000 0.000000 0.000000 0.000000 0.000000 0.044429
#
#
# Mechanical properties :
#
#
# Convention : Reuss Voigt Hill
#
# Bulk Modulus (GPa) = 46.63662 47.40206 47.01934
# Shear Modulus (GPa) = 24.68845 25.10497 24.89671
#
# Velocity S-wave (km/s) = 3.56805 3.59802 3.58306
# Velocity P-wave (km/s) = 6.40496 6.45791 6.43149
#
# Compressibility (1/GPa) = 0.02144238
#
# Stress axis : x y z
#
# Youngs Moduli (GPa) = 55.84990 55.84990 64.35811
#
# Poissons Ratio (x) = 0.24069 0.34249
# Poissons Ratio (y) = 0.24069 0.34249
# Poissons Ratio (z) = 0.29722 0.29722
#
# Static dielectric constant tensor:
#      x y z
#    x 3.546300 0.000000 0.000000 
#    y 0.000000 3.546300 0.000000 
#    z 0.000000 0.000000 3.712090 
# 
# 
# High freq. dielectric constant tensor:
#      x y z
#    x 1.747300 0.000000 0.000000 
#    y 0.000000 1.747300 0.000000 
#    z 0.000000 0.000000 1.764300 
# 
# From -- ./inp_files/3203.got.cif
#   From: 2010.06.25/outbox.cif.g09.slc.cpg/sg190_2_cif.got.tgz:3203.got - 2010.06.28 13:08:06.
