data_PCOD8327783
_publ_section_title
;
Structure prediction by ZEFSAII (Michael W. Deem and Ramdas Pophale) SiO2 
 PCOD8327783
Probable space group: P -6 2 M
;
_chemical_formula_sum "Si O2"
_cell_formula_units_Z 60
_cell_length_a 15.144620
_cell_length_b 15.144620
_cell_length_c 13.709917
_cell_angle_alpha 90.000000
_cell_angle_beta 90.000000
_cell_angle_gamma 120.000000
_cell_volume 2723.216807
_symmetry_space_group_name_H-M "P -6 2 M"
_symmetry_group_IT_number 189
_symmetry_cell_setting 'hexagonal'
loop_
_space_group_symop_operation_xyz
x,y,z
-x+y,-x,-z
-y,x-y,z
x,y,-z
-x+y,-x,z
-y,x-y,-z
x-y,-y,-z
-x,-x+y,-z
y,x,-z
y,x,z
x-y,-y,z
-x,-x+y,z
loop_
_atom_site_type_symbol
_atom_site_label
_atom_site_fract_x
_atom_site_fract_y
_atom_site_fract_z
Si Si1 0.301856 0.423085 0.892487
Si Si2 0.463778 0.580377 0.611060
Si Si3 0.543826 0.796426 0.693434
Si Si4 0.762882 0.881501 0.611124
Si Si5 0.109397 0.219695 0.111296
O O1 0.372793 0.372793 0.881786
O O2 0.312667 0.491743 0.798639
O O3 0.182674 0.339983 0.884535
O O4 0.323054 0.477443 0.000000
O O5 0.493241 0.618394 0.500000
O O6 0.524700 0.524700 0.646933
O O7 0.493878 0.675945 0.681046
O O8 0.342962 0.501643 0.614420
O O9 0.666443 0.851036 0.681766
O O10 0.722852 0.857135 0.500000
O O11 0.816228 0.816228 0.640076
O O12 0.844606 0.000000 0.623942
O O13 0.160181 0.160181 0.165267
O O14 0.000000 0.187059 0.160875
O O15 0.092345 0.185148 0.000000
#
# Coordination Sequence:
#
# PCOD8327783 Si02
#       5
#    12  12  12  12  12
#     4   9  19  36  57  82 114 154 199 246 297 355
#     4  11  24  41  63  93 123 153 200 260 319 382
#     4  12  23  40  64  88 119 163 208 255 317 374
#     4  10  20  35  58  90 127 164 201 246 309 390
#     4   8  13  22  39  66 102 145 191 235 277 324
#
# _framework density 22.032765999999999
#
# number of rings (size 3 to 8) (size 9 to 14) (size 15 to 20)
#    0.000    2.000    0.000    6.200    0.000    6.400 
#    0.000    1.000    0.000    3.600    0.000    0.000 
#    0.000    0.000    0.000    0.000    0.000    0.000 
#
# Total GULP energy -743497.711105 kJ/mol
# GULP energy per Si atom -12391.628518 kJ/mol
# Density = 2.198262 g / cm^3
# Si number density = 22.032766 Si / 1000 Ang^3
#
#
#
# Elastic Constant Matrix: (Units=GPa)
#
#
# Indices 1 2 3 4 5 6 
#
# 1 94.0775 32.9401 23.2238 0.0000 0.0000 0.0000
# 2 32.9401 94.0775 23.2238 0.0000 0.0000 0.0000
# 3 23.2238 23.2238 120.9152 0.0000 0.0000 0.0000
# 4 0.0000 0.0000 0.0000 18.5909 0.0000 0.0000
# 5 0.0000 0.0000 0.0000 0.0000 18.5909 0.0000
# 6 0.0000 0.0000 0.0000 0.0000 0.0000 30.5687
#
#
#
# Elastic Compliance Matrix: (Units=1/GPa)
#
#
# Indices 1 2 3 4 5 6 
#
# 1 0.012412 -0.003944 -0.001626 0.000000 0.000000 0.000000
# 2 -0.003944 0.012412 -0.001626 0.000000 0.000000 0.000000
# 3 -0.001626 -0.001626 0.008895 0.000000 0.000000 0.000000
# 4 0.000000 0.000000 0.000000 0.053790 0.000000 0.000000
# 5 0.000000 0.000000 0.000000 0.000000 0.053790 0.000000
# 6 0.000000 0.000000 0.000000 0.000000 0.000000 0.032713
#
#
# Mechanical properties :
#
#
# Convention : Reuss Voigt Hill
#
# Bulk Modulus (GPa) = 51.74680 51.98287 51.86483
# Shear Modulus (GPa) = 25.66104 28.86226 27.26165
#
# Velocity S-wave (km/s) = 3.41644 3.62328 3.52138
# Velocity P-wave (km/s) = 6.25300 6.41474 6.33438
#
# Compressibility (1/GPa) = 0.01932487
#
# Stress axis : x y z
#
# Youngs Moduli (GPa) = 80.56635 80.56635 112.42277
#
# Poissons Ratio (x) = 0.31779 0.18284
# Poissons Ratio (y) = 0.31779 0.18284
# Poissons Ratio (z) = 0.13103 0.13103
#
# Static dielectric constant tensor:
#      x y z
#    x 3.750690 0.000000 0.000000 
#    y 0.000000 3.750690 0.000000 
#    z 0.000000 0.000000 4.208260 
# 
# 
# High freq. dielectric constant tensor:
#      x y z
#    x 1.847130 0.000000 0.000000 
#    y 0.000000 1.847130 0.000000 
#    z 0.000000 0.000000 1.877060 
# 
# From -- ./inp_files/2521.got.cif
#   From: 2010.03.12/outbox.cif.g09.slc.cpg/sg189_2_cif.got.tgz:2521.got - 2010.04.01 12:03:36.
