data_PCOD8327147
_publ_section_title
;
Structure prediction by ZEFSAII (Michael W. Deem and Ramdas Pophale) SiO2 
 PCOD8327147
Probable space group: P -6 M 2
;
_chemical_formula_sum "Si O2"
_cell_formula_units_Z 66
_cell_length_a 12.461446
_cell_length_b 12.461446
_cell_length_c 28.061680
_cell_angle_alpha 90.000000
_cell_angle_beta 90.000000
_cell_angle_gamma 120.000000
_cell_volume 3773.819978
_symmetry_space_group_name_H-M "P -6 M 2"
_symmetry_group_IT_number 187
_symmetry_cell_setting 'hexagonal'
loop_
_space_group_symop_operation_xyz
x,y,z
-x+y,-x,-z
-y,x-y,z
x,y,-z
-x+y,-x,z
-y,x-y,-z
-y,-x,-z
-x+y,y,-z
x,x-y,-z
-x+y,y,z
x,x-y,z
-y,-x,z
loop_
_atom_site_type_symbol
_atom_site_label
_atom_site_fract_x
_atom_site_fract_y
_atom_site_fract_z
Si Si1 0.001416 0.749781 0.000000
Si Si2 0.333862 0.419747 0.445787
Si Si3 0.915199 0.334182 0.639562
Si Si4 0.001522 0.750555 0.180983
Si Si5 0.083052 0.667979 0.090800
Si Si6 0.083710 0.666386 0.729134
O O1 0.009944 0.680556 0.953546
O O2 0.107096 0.892905 0.000000
O O3 0.871272 0.742544 0.000000
O O4 0.336104 0.378521 0.500000
O O5 0.202750 0.405500 0.432615
O O6 0.437237 0.562764 0.437583
O O7 0.360071 0.331974 0.411780
O O8 0.872211 0.436106 0.640749
O O9 0.798311 0.201690 0.649870
O O10 0.018872 0.362731 0.678904
O O11 0.105678 0.894322 0.177344
O O12 0.017475 0.672902 0.139050
O O13 0.008316 0.692561 0.230930
O O14 0.869426 0.738852 0.175950
O O15 0.075625 0.537813 0.087448
O O16 0.226266 0.773735 0.089896
O O17 0.083653 0.541827 0.742756
O O18 0.224690 0.775311 0.725955
#
# Coordination Sequence:
#
# PCOD8327147 Si02
#       6
#     6  12  12  12  12  12
#     4  10  20  34  54  78 104 134 168 208 252 300
#     4   9  17  30  50  75 100 126 158 200 249 296
#     4  10  20  33  49  70  98 132 167 201 239 287
#     4  10  20  34  53  76 103 135 169 205 244 290
#     4  10  20  34  54  78 104 134 168 210 256 300
#     4  10  20  34  54  78 102 128 160 203 252 298
#
# _framework density 17.488911000000002
#
# number of rings (size 3 to 8) (size 9 to 14) (size 15 to 20)
#    0.000    2.182    0.000    3.455    0.000    1.091 
#    0.000    6.364    0.000   14.909    0.000    0.000 
#    0.000    0.000    0.000    0.000    0.000    0.000 
#
# Total GULP energy -818636.828504 kJ/mol
# GULP energy per Si atom -12403.588311 kJ/mol
# Density = 1.744911 g / cm^3
# Si number density = 17.488911 Si / 1000 Ang^3
#
#
#
# Elastic Constant Matrix: (Units=GPa)
#
#
# Indices 1 2 3 4 5 6 
#
# 1 102.9797 61.2238 40.2922 0.0000 0.0000 0.0000
# 2 61.2238 102.9797 40.2922 0.0000 0.0000 0.0000
# 3 40.2922 40.2922 100.8502 0.0000 0.0000 0.0000
# 4 0.0000 0.0000 0.0000 15.9899 0.0000 0.0000
# 5 0.0000 0.0000 0.0000 0.0000 15.9899 0.0000
# 6 0.0000 0.0000 0.0000 0.0000 0.0000 20.8779
#
#
#
# Elastic Compliance Matrix: (Units=1/GPa)
#
#
# Indices 1 2 3 4 5 6 
#
# 1 0.015762 -0.008187 -0.003027 0.000000 0.000000 0.000000
# 2 -0.008187 0.015762 -0.003027 0.000000 0.000000 0.000000
# 3 -0.003027 -0.003027 0.012334 0.000000 0.000000 0.000000
# 4 0.000000 0.000000 0.000000 0.062539 0.000000 0.000000
# 5 0.000000 0.000000 0.000000 0.000000 0.062539 0.000000
# 6 0.000000 0.000000 0.000000 0.000000 0.000000 0.047897
#
#
# Mechanical properties :
#
#
# Convention : Reuss Voigt Hill
#
# Bulk Modulus (GPa) = 65.02567 65.60291 65.31429
# Shear Modulus (GPa) = 19.96487 21.57165 20.76826
#
# Velocity S-wave (km/s) = 3.38238 3.51586 3.44977
# Velocity P-wave (km/s) = 7.24678 7.35352 7.30034
#
# Compressibility (1/GPa) = 0.01537854
#
# Stress axis : x y z
#
# Youngs Moduli (GPa) = 63.44364 63.44364 81.07637
#
# Poissons Ratio (x) = 0.51940 0.24538
# Poissons Ratio (y) = 0.51940 0.24538
# Poissons Ratio (z) = 0.19201 0.19201
#
# Static dielectric constant tensor:
#      x y z
#    x 3.110940 0.000000 0.000000 
#    y 0.000000 3.110940 0.000000 
#    z 0.000000 0.000000 3.506040 
# 
# 
# High freq. dielectric constant tensor:
#      x y z
#    x 1.669910 0.000000 0.000000 
#    y 0.000000 1.669910 0.000000 
#    z 0.000000 0.000000 1.696170 
# 
# From -- ./inp_files/4386.got.cif
#   From: 2010.03.12/outbox.cif.g09.slc.cpg/sg187_3_cif.got.tgz:4386.got - 2010.04.01 11:58:23.
