data_PCOD8327026
_publ_section_title
;
Structure prediction by ZEFSAII (Michael W. Deem and Ramdas Pophale) SiO2 
 PCOD8327026
Probable space group: P -6 M 2
;
_chemical_formula_sum "Si O2"
_cell_formula_units_Z 66
_cell_length_a 13.276799
_cell_length_b 13.276799
_cell_length_c 27.306069
_cell_angle_alpha 90.000000
_cell_angle_beta 90.000000
_cell_angle_gamma 120.000000
_cell_volume 4168.468998
_symmetry_space_group_name_H-M "P -6 M 2"
_symmetry_group_IT_number 187
_symmetry_cell_setting 'hexagonal'
loop_
_space_group_symop_operation_xyz
x,y,z
-x+y,-x,-z
-y,x-y,z
x,y,-z
-x+y,-x,z
-y,x-y,-z
-y,-x,-z
-x+y,y,-z
x,x-y,-z
-x+y,y,z
x,x-y,z
-y,-x,z
loop_
_atom_site_type_symbol
_atom_site_label
_atom_site_fract_x
_atom_site_fract_y
_atom_site_fract_z
Si Si1 0.333345 0.433798 0.872813
Si Si2 0.233028 0.999972 0.577827
Si Si3 0.565896 0.666639 0.761040
Si Si4 0.232833 0.232795 0.055929
Si Si5 0.668822 0.095494 0.500000
Si Si6 0.999970 0.768386 0.309677
O O1 0.230794 0.461588 0.882774
O O2 0.452016 0.547985 0.885915
O O3 0.331146 0.394286 0.816904
O O4 0.322957 0.333378 0.908485
O O5 0.198068 0.099034 0.569179
O O6 0.347917 0.029241 0.547165
O O7 0.265329 0.996231 0.634147
O O8 0.123145 0.876856 0.561478
O O9 0.536883 0.768442 0.751446
O O10 0.452501 0.547500 0.747836
O O11 0.666069 0.677923 0.725073
O O12 0.237408 0.118704 0.069128
O O13 0.102495 0.204989 0.065912
O O14 0.269956 0.272055 0.000000
O O15 0.768822 0.231179 0.500000
O O16 0.542963 0.085925 0.500000
O O17 0.100742 0.899259 0.298971
O O18 0.879763 0.759525 0.295803
#
# Coordination Sequence:
#
# PCOD8327026 Si02
#       6
#    12  12  12  12   6  12
#     4   9  17  29  45  65  88 114 145 182 222 259
#     4   9  17  30  49  71  92 115 145 183 224 263
#     4   9  17  29  45  64  87 117 151 184 216 254
#     4   9  17  29  45  65  89 116 144 175 214 262
#     4  10  20  32  46  64  88 118 150 184 220 258
#     4   9  17  29  46  69  95 119 143 176 221 267
#
# _framework density 15.833151000000001
#
# number of rings (size 3 to 8) (size 9 to 14) (size 15 to 20)
#    0.000    2.909    0.000    1.273    0.000    5.455 
#    0.000    0.909    0.000    5.455    0.000    0.000 
#    0.000    0.000    0.000    0.000    0.000    0.000 
#
# Total GULP energy -818392.507523 kJ/mol
# GULP energy per Si atom -12399.886478 kJ/mol
# Density = 1.579711 g / cm^3
# Si number density = 15.833151 Si / 1000 Ang^3
#
#
#
# Elastic Constant Matrix: (Units=GPa)
#
#
# Indices 1 2 3 4 5 6 
#
# 1 108.1544 60.4292 68.1143 0.0000 0.0000 0.0000
# 2 60.4292 108.1544 68.1143 0.0000 0.0000 0.0000
# 3 68.1143 68.1143 98.6403 0.0000 0.0000 0.0000
# 4 0.0000 0.0000 0.0000 28.2895 0.0000 0.0000
# 5 0.0000 0.0000 0.0000 0.0000 28.2895 0.0000
# 6 0.0000 0.0000 0.0000 0.0000 0.0000 23.8626
#
#
#
# Elastic Compliance Matrix: (Units=1/GPa)
#
#
# Indices 1 2 3 4 5 6 
#
# 1 0.017187 -0.003766 -0.009267 0.000000 0.000000 0.000000
# 2 -0.003766 0.017187 -0.009267 0.000000 0.000000 0.000000
# 3 -0.009267 -0.009267 0.022936 0.000000 0.000000 0.000000
# 4 0.000000 0.000000 0.000000 0.035349 0.000000 0.000000
# 5 0.000000 0.000000 0.000000 0.000000 0.035349 0.000000
# 6 0.000000 0.000000 0.000000 0.000000 0.000000 0.041907
#
#
# Mechanical properties :
#
#
# Convention : Reuss Voigt Hill
#
# Bulk Modulus (GPa) = 78.68811 78.69607 78.69209
# Shear Modulus (GPa) = 22.85691 23.97440 23.41565
#
# Velocity S-wave (km/s) = 3.80361 3.89548 3.84982
# Velocity P-wave (km/s) = 8.31241 8.36925 8.34088
#
# Compressibility (1/GPa) = 0.01270840
#
# Stress axis : x y z
#
# Youngs Moduli (GPa) = 58.18401 58.18401 43.59874
#
# Poissons Ratio (x) = 0.21915 0.40404
# Poissons Ratio (y) = 0.21915 0.40404
# Poissons Ratio (z) = 0.53920 0.53920
#
# Static dielectric constant tensor:
#      x y z
#    x 2.905350 0.000000 0.000000 
#    y 0.000000 2.905350 0.000000 
#    z 0.000000 0.000000 3.162100 
# 
# 
# High freq. dielectric constant tensor:
#      x y z
#    x 1.595560 0.000000 0.000000 
#    y 0.000000 1.595560 0.000000 
#    z 0.000000 0.000000 1.617380 
# 
# From -- ./inp_files/4469.got.cif
#   From: 2010.03.12/outbox.cif.g09.slc.cpg/sg187_3_cif.got.tgz:4469.got - 2010.04.01 11:58:23.
