data_PCOD8327945
_publ_section_title
;
Structure prediction by ZEFSAII (Michael W. Deem and Ramdas Pophale) SiO2 
 PCOD8327945
Probable space group: P -6 2 C
;
_chemical_formula_sum "Si O2"
_cell_formula_units_Z 72
_cell_length_a 23.860284
_cell_length_b 23.860284
_cell_length_c 8.519979
_cell_angle_alpha 90.000000
_cell_angle_beta 90.000000
_cell_angle_gamma 120.000000
_cell_volume 4200.687488
_symmetry_space_group_name_H-M "P -6 2 C"
_symmetry_group_IT_number 190
_symmetry_cell_setting 'hexagonal'
loop_
_space_group_symop_operation_xyz
x,y,z
-x+y,-x,1/2-z
-y,x-y,z
x,y,1/2-z
-x+y,-x,z
-y,x-y,1/2-z
x-y,-y,-z
-x,-x+y,-z
y,x,-z
y,x,1/2+z
x-y,-y,1/2+z
-x,-x+y,1/2+z
loop_
_atom_site_type_symbol
_atom_site_label
_atom_site_fract_x
_atom_site_fract_y
_atom_site_fract_z
Si Si1 0.734467 0.596289 0.434627
Si Si2 0.191952 0.599478 0.065565
Si Si3 0.519771 0.589765 0.936232
Si Si4 0.470143 0.732474 0.565486
Si Si5 0.189068 0.929203 0.937048
Si Si6 0.858826 0.929975 0.064445
O O1 0.732991 0.602333 0.250000
O O2 0.661763 0.571552 0.497642
O O3 0.756035 0.544422 0.482945
O O4 0.785022 0.667230 0.500821
O O5 0.190751 0.607231 0.250000
O O6 0.120590 0.550191 0.003638
O O7 0.243855 0.577948 0.021599
O O8 0.211925 0.667606 0.985183
O O9 0.515582 0.587054 0.750000
O O10 0.538793 0.538793 0.000000
O O11 0.459818 0.718489 0.750000
O O12 0.185032 0.930806 0.750000
O O13 0.118137 0.903877 0.008128
O O14 0.238669 0.000000 0.000000
O O15 0.862459 0.931023 0.250000
O O16 0.907706 0.907706 0.000000
O O17 0.878326 0.000000 0.000000
#
# Coordination Sequence:
#
# PCOD8327945 Si02
#       6
#    12  12  12  12  12  12
#     4   8  17  31  50  73  99 128 162 198 240 287
#     4  11  21  33  49  74 102 131 165 205 247 296
#     4  10  19  33  51  74 101 133 166 202 245 292
#     4  10  19  34  52  72  98 132 166 203 248 295
#     4  10  18  31  49  73 100 128 158 194 234 281
#     4  11  21  34  50  72  98 128 160 196 237 283
#
# _framework density 17.140052000000001
#
# number of rings (size 3 to 8) (size 9 to 14) (size 15 to 20)
#    0.000    2.000    0.000    7.500    0.000    0.000 
#    0.000    9.167    0.000    1.000    0.000    4.667 
#    0.000    0.000    0.000    0.000    0.000    0.000 
#
# Total GULP energy -892831.869274 kJ/mol
# GULP energy per Si atom -12400.442629 kJ/mol
# Density = 1.710104 g / cm^3
# Si number density = 17.140052 Si / 1000 Ang^3
#
#
#
# Elastic Constant Matrix: (Units=GPa)
#
#
# Indices 1 2 3 4 5 6 
#
# 1 119.0160 67.6636 14.1791 0.0000 0.0000 0.0000
# 2 67.6636 119.0160 14.1791 0.0000 0.0000 0.0000
# 3 14.1791 14.1791 56.0079 0.0000 0.0000 0.0000
# 4 0.0000 0.0000 0.0000 23.8483 0.0000 0.0000
# 5 0.0000 0.0000 0.0000 0.0000 23.8483 0.0000
# 6 0.0000 0.0000 0.0000 0.0000 0.0000 25.6762
#
#
#
# Elastic Compliance Matrix: (Units=1/GPa)
#
#
# Indices 1 2 3 4 5 6 
#
# 1 0.012522 -0.006951 -0.001410 0.000000 0.000000 0.000000
# 2 -0.006951 0.012522 -0.001410 0.000000 0.000000 0.000000
# 3 -0.001410 -0.001410 0.018569 0.000000 0.000000 0.000000
# 4 0.000000 0.000000 0.000000 0.041932 0.000000 0.000000
# 5 0.000000 0.000000 0.000000 0.000000 0.041932 0.000000
# 6 0.000000 0.000000 0.000000 0.000000 0.000000 0.038947
#
#
# Mechanical properties :
#
#
# Convention : Reuss Voigt Hill
#
# Bulk Modulus (GPa) = 41.54671 54.00925 47.77798
# Shear Modulus (GPa) = 25.77451 27.87574 26.82513
#
# Velocity S-wave (km/s) = 3.88204 4.03718 3.96037
# Velocity P-wave (km/s) = 6.66227 7.30142 6.98915
#
# Compressibility (1/GPa) = 0.02406930
#
# Stress axis : x y z
#
# Youngs Moduli (GPa) = 79.85840 79.85840 53.85394
#
# Poissons Ratio (x) = 0.55511 0.07595
# Poissons Ratio (y) = 0.55511 0.07595
# Poissons Ratio (z) = 0.11263 0.11263
#
# Static dielectric constant tensor:
#      x y z
#    x 3.386050 0.000000 0.000000 
#    y 0.000000 3.386050 0.000000 
#    z 0.000000 0.000000 3.209350 
# 
# 
# High freq. dielectric constant tensor:
#      x y z
#    x 1.653830 0.000000 0.000000 
#    y 0.000000 1.653830 0.000000 
#    z 0.000000 0.000000 1.669180 
# 
# From -- ./inp_files/1246.got.cif
#   From: 2010.06.25/outbox.cif.g09.slc.cpg/sg190_1_cif.got.tgz:1246.got - 2010.06.28 13:08:06.
