data_PCOD8327772
_publ_section_title
;
Structure prediction by ZEFSAII (Michael W. Deem and Ramdas Pophale) SiO2 
 PCOD8327772
Probable space group: P -6 2 M
;
_chemical_formula_sum "Si O2"
_cell_formula_units_Z 76
_cell_length_a 18.322826
_cell_length_b 18.322826
_cell_length_c 13.561181
_cell_angle_alpha 90.000000
_cell_angle_beta 90.000000
_cell_angle_gamma 120.000000
_cell_volume 3942.875454
_symmetry_space_group_name_H-M "P -6 2 M"
_symmetry_group_IT_number 189
_symmetry_cell_setting 'hexagonal'
loop_
_space_group_symop_operation_xyz
x,y,z
-x+y,-x,-z
-y,x-y,z
x,y,-z
-x+y,-x,z
-y,x-y,-z
x-y,-y,-z
-x,-x+y,-z
y,x,-z
y,x,z
x-y,-y,z
-x,-x+y,z
loop_
_atom_site_type_symbol
_atom_site_label
_atom_site_fract_x
_atom_site_fract_y
_atom_site_fract_z
Si Si1 0.097603 0.785610 0.384122
Si Si2 0.906395 0.534631 0.682925
Si Si3 0.618335 0.149495 0.887941
Si Si4 0.283396 0.806042 0.889774
Si Si5 0.831383 0.348742 0.613349
Si Si6 0.333334 0.666668 0.381766
Si Si7 0.650306 0.748655 0.270369
O O1 0.106680 0.804185 0.500000
O O2 0.134770 0.724504 0.354755
O O3 0.161522 0.870969 0.325090
O O4 0.000000 0.748811 0.350640
O O5 0.909340 0.531732 0.802788
O O6 0.864823 0.446674 0.628514
O O7 0.000000 0.584790 0.642133
O O8 0.705289 0.237087 0.882671
O O9 0.540735 0.162007 0.855963
O O10 0.605580 0.111544 0.000000
O O11 0.238677 0.848154 0.828704
O O12 0.282308 0.835670 0.000000
O O13 0.832769 0.328130 0.500000
O O14 0.734761 0.306493 0.654907
O O15 0.888168 0.317001 0.664997
O O16 0.333334 0.666668 0.500000
O O17 0.708638 0.708638 0.246005
#
# Coordination Sequence:
#
# PCOD8327772 Si02
#       7
#    12  12  12  12  12   4  12
#     4  10  22  41  62  81 108 150 196 239 286 348
#     4  11  21  34  53  79 111 149 189 232 286 336
#     4  10  20  35  55  77 108 151 201 245 280 324
#     4  10  21  37  57  83 115 157 204 248 291 334
#     4  11  22  34  50  78 114 152 195 235 273 324
#     4   9  21  36  51  69  97 149 202 237 264 297
#     4  12  24  38  59  87 117 149 184 233 301 364
#
# _framework density 19.275272999999999
#
# number of rings (size 3 to 8) (size 9 to 14) (size 15 to 20)
#    0.000    1.421    3.158    2.684    0.000    6.000 
#    0.000    1.579    0.000    0.789    0.000    0.000 
#    0.000    0.000    0.000    0.000    0.000    0.000 
#
# Total GULP energy -941955.879954 kJ/mol
# GULP energy per Si atom -12394.156315 kJ/mol
# Density = 1.923140 g / cm^3
# Si number density = 19.275273 Si / 1000 Ang^3
#
#
#
# Elastic Constant Matrix: (Units=GPa)
#
#
# Indices 1 2 3 4 5 6 
#
# 1 64.4167 26.2027 18.2157 0.0000 0.0000 0.0000
# 2 26.2027 64.4162 18.2157 0.0000 0.0000 -0.0001
# 3 18.2157 18.2157 75.6958 0.0000 0.0000 0.0000
# 4 0.0000 0.0000 0.0000 20.3225 -0.0001 0.0000
# 5 0.0000 0.0000 0.0000 -0.0001 20.3226 0.0000
# 6 0.0000 -0.0001 0.0000 0.0000 0.0000 19.1067
#
#
#
# Elastic Compliance Matrix: (Units=1/GPa)
#
#
# Indices 1 2 3 4 5 6 
#
# 1 0.019193 -0.006976 -0.002940 0.000000 0.000000 0.000000
# 2 -0.006976 0.019193 -0.002940 0.000000 0.000000 0.000000
# 3 -0.002940 -0.002940 0.014626 0.000000 0.000000 0.000000
# 4 0.000000 0.000000 0.000000 0.049207 0.000000 0.000000
# 5 0.000000 0.000000 0.000000 0.000000 0.049206 0.000000
# 6 0.000000 0.000000 0.000000 0.000000 0.000000 0.052338
#
#
# Mechanical properties :
#
#
# Convention : Reuss Voigt Hill
#
# Bulk Modulus (GPa) = 36.62986 36.64410 36.63698
# Shear Modulus (GPa) = 20.95791 21.40999 21.18395
#
# Velocity S-wave (km/s) = 3.30099 3.33641 3.31875
# Velocity P-wave (km/s) = 5.79427 5.82189 5.80809
#
# Compressibility (1/GPa) = 0.02730013
#
# Stress axis : x y z
#
# Youngs Moduli (GPa) = 52.10292 52.10251 68.37258
#
# Poissons Ratio (x) = 0.36345 0.20101
# Poissons Ratio (y) = 0.36345 0.20102
# Poissons Ratio (z) = 0.15318 0.15318
#
# Static dielectric constant tensor:
#      x y z
#    x 3.398640 0.000000 0.000000 
#    y 0.000000 3.398650 0.000000 
#    z 0.000000 0.000000 3.706380 
# 
# 
# High freq. dielectric constant tensor:
#      x y z
#    x 1.725890 0.000000 0.000000 
#    y 0.000000 1.725890 0.000000 
#    z 0.000000 0.000000 1.763010 
# 
# From -- ./inp_files/2725.got.cif
#   From: 2010.03.12/outbox.cif.g09.slc.cpg/sg189_2_cif.got.tgz:2725.got - 2010.04.01 12:03:36.
