data_PCOD8327530
_publ_section_title
;
Structure prediction by ZEFSAII (Michael W. Deem and Ramdas Pophale) SiO2 
 PCOD8327530
Probable space group: P -6 2 M
;
_chemical_formula_sum "Si O2"
_cell_formula_units_Z 82
_cell_length_a 21.271830
_cell_length_b 21.271830
_cell_length_c 12.214088
_cell_angle_alpha 90.000000
_cell_angle_beta 90.000000
_cell_angle_gamma 120.000000
_cell_volume 4786.316170
_symmetry_space_group_name_H-M "P -6 2 M"
_symmetry_group_IT_number 189
_symmetry_cell_setting 'hexagonal'
loop_
_space_group_symop_operation_xyz
x,y,z
-x+y,-x,-z
-y,x-y,z
x,y,-z
-x+y,-x,z
-y,x-y,-z
x-y,-y,-z
-x,-x+y,-z
y,x,-z
y,x,z
x-y,-y,z
-x,-x+y,z
loop_
_atom_site_type_symbol
_atom_site_label
_atom_site_fract_x
_atom_site_fract_y
_atom_site_fract_z
Si Si1 0.824061 0.368606 0.127218
Si Si2 0.333334 0.666668 0.372470
Si Si3 0.399163 0.083552 0.753522
Si Si4 0.920604 0.838764 0.500000
Si Si5 0.788088 0.199719 0.624881
Si Si6 0.767255 0.458130 0.229838
Si Si7 0.271515 0.082554 0.874834
Si Si8 0.740941 0.917058 0.692690
O O1 0.887554 0.366327 0.195749
O O2 0.821819 0.441539 0.159797
O O3 0.746026 0.298005 0.151245
O O4 0.842529 0.371858 0.000000
O O5 0.333334 0.666668 0.500000
O O6 0.402446 0.739433 0.330552
O O7 0.402882 0.132930 0.650202
O O8 0.348809 0.090662 0.845038
O O9 0.366017 0.000000 0.715106
O O10 0.857821 0.857821 0.500000
O O11 0.910949 0.794578 0.390905
O O12 0.000000 0.910144 0.500000
O O13 0.767702 0.207643 0.500000
O O14 0.729442 0.192776 0.714423
O O15 0.786921 0.124520 0.637613
O O16 0.255250 0.136683 0.806135
O O17 0.207914 0.000000 0.854354
O O18 0.274791 0.105477 0.000000
O O19 0.762507 0.000000 0.714514
#
# Coordination Sequence:
#
# PCOD8327530 Si02
#       8
#    12   4  12   6  12  12  12  12
#     4  10  18  31  51  72 100 135 167 208 256 300
#     4   9  15  27  46  68  91 123 153 204 259 296
#     4   9  19  33  51  79 106 129 165 211 261 313
#     4  10  19  32  50  74 100 124 158 206 260 306
#     4  10  19  34  52  72  99 137 171 209 255 303
#     4   9  19  30  46  74 100 125 170 211 244 295
#     4   9  17  31  51  75 102 132 166 207 257 310
#     4  10  20  33  50  73  99 131 172 210 248 302
#
# _framework density 17.132173000000002
#
# number of rings (size 3 to 8) (size 9 to 14) (size 15 to 20)
#    0.000    2.488    0.732    2.122    0.000    2.049 
#    0.000    2.195    0.000    0.293    0.000    0.000 
#    0.000    0.000    0.000    0.000    0.000    0.000 
#
# Total GULP energy -1016684.601455 kJ/mol
# GULP energy per Si atom -12398.592701 kJ/mol
# Density = 1.709318 g / cm^3
# Si number density = 17.132173 Si / 1000 Ang^3
#
#
#
# Elastic Constant Matrix: (Units=GPa)
#
#
# Indices 1 2 3 4 5 6 
#
# 1 85.9334 38.8264 21.1441 -0.0001 -0.0002 0.0000
# 2 38.8264 85.9339 21.1440 -0.0001 -0.0001 0.0001
# 3 21.1441 21.1440 82.7679 0.0000 0.0001 0.0000
# 4 -0.0001 -0.0001 0.0000 7.9029 0.0002 0.0000
# 5 -0.0002 -0.0001 0.0001 0.0002 7.9029 0.0000
# 6 0.0000 0.0001 0.0000 0.0000 0.0000 23.5537
#
#
#
# Elastic Compliance Matrix: (Units=1/GPa)
#
#
# Indices 1 2 3 4 5 6 
#
# 1 0.015002 -0.006226 -0.002242 0.000000 0.000000 0.000000
# 2 -0.006226 0.015002 -0.002242 0.000000 0.000000 0.000000
# 3 -0.002242 -0.002242 0.013227 0.000000 0.000000 0.000000
# 4 0.000000 0.000000 0.000000 0.126536 -0.000002 0.000000
# 5 0.000000 0.000000 0.000000 -0.000002 0.126536 0.000000
# 6 0.000000 0.000000 0.000000 0.000000 0.000000 0.042456
#
#
# Mechanical properties :
#
#
# Convention : Reuss Voigt Hill
#
# Bulk Modulus (GPa) = 45.84876 46.31827 46.08351
# Shear Modulus (GPa) = 13.60732 19.43994 16.52363
#
# Velocity S-wave (km/s) = 2.82131 3.37219 3.10898
# Velocity P-wave (km/s) = 6.11825 6.50052 6.31228
#
# Compressibility (1/GPa) = 0.02181084
#
# Stress axis : x y z
#
# Youngs Moduli (GPa) = 66.65890 66.65931 75.60105
#
# Poissons Ratio (x) = 0.41505 0.16948
# Poissons Ratio (y) = 0.41505 0.16948
# Poissons Ratio (z) = 0.14943 0.14943
#
# Static dielectric constant tensor:
#      x y z
#    x 3.179690 0.000000 0.000000 
#    y 0.000000 3.179690 0.000000 
#    z 0.000000 0.000000 3.169280 
# 
# 
# High freq. dielectric constant tensor:
#      x y z
#    x 1.650190 0.000000 0.000000 
#    y 0.000000 1.650190 0.000000 
#    z 0.000000 0.000000 1.663960 
# 
# From -- ./inp_files/2150.got.cif
#   From: 2010.03.12/outbox.cif.g09.slc.cpg/sg189_2_cif.got.tgz:2150.got - 2010.04.01 12:03:36.
