data_PCOD8327757
_publ_section_title
;
Structure prediction by ZEFSAII (Michael W. Deem and Ramdas Pophale) SiO2 
 PCOD8327757
Probable space group: P -6 2 M
;
_chemical_formula_sum "Si O2"
_cell_formula_units_Z 60
_cell_length_a 17.832643
_cell_length_b 17.832643
_cell_length_c 11.421323
_cell_angle_alpha 90.000000
_cell_angle_beta 90.000000
_cell_angle_gamma 120.000000
_cell_volume 3145.418784
_symmetry_space_group_name_H-M "P -6 2 M"
_symmetry_group_IT_number 189
_symmetry_cell_setting 'hexagonal'
loop_
_space_group_symop_operation_xyz
x,y,z
-x+y,-x,-z
-y,x-y,z
x,y,-z
-x+y,-x,z
-y,x-y,-z
x-y,-y,-z
-x,-x+y,-z
y,x,-z
y,x,z
x-y,-y,z
-x,-x+y,z
loop_
_atom_site_type_symbol
_atom_site_label
_atom_site_fract_x
_atom_site_fract_y
_atom_site_fract_z
Si Si1 0.414049 0.906375 0.000000
Si Si2 0.499928 0.102367 0.248513
Si Si3 0.096481 0.192971 0.361819
Si Si4 0.236973 0.903508 0.000000
Si Si5 0.625676 0.800389 0.752168
Si Si6 0.898497 0.547611 0.632043
O O1 0.408247 0.858189 0.122914
O O2 0.332223 0.919775 0.000000
O O3 0.501764 0.000000 0.000000
O O4 0.440186 0.141831 0.284838
O O5 0.572938 0.124099 0.345519
O O6 0.436747 0.000000 0.232145
O O7 0.094203 0.184811 0.500000
O O8 0.158108 0.158108 0.309542
O O9 0.131358 0.292223 0.331942
O O10 0.000000 0.134374 0.310098
O O11 0.187125 0.847710 0.885324
O O12 0.246575 0.000000 0.000000
O O13 0.574407 0.851599 0.729248
O O14 0.868190 0.552078 0.500000
O O15 0.000000 0.612550 0.646009
#
# Coordination Sequence:
#
# PCOD8327757 Si02
#       6
#     6  12  12   6  12  12
#     4   7  12  27  52  77  99 126 164 215 270 322
#     4   9  18  34  56  79 104 138 182 228 278 335
#     4  10  20  34  54  80 110 144 186 238 292 349
#     4   9  18  33  55  85 115 138 176 237 284 322
#     4  11  20  35  58  82 109 148 191 228 282 353
#     4  10  22  38  53  76 114 151 187 239 291 333
#
# _framework density 19.07536
#
# number of rings (size 3 to 8) (size 9 to 14) (size 15 to 20)
#    0.000    2.400    0.000    4.400    0.000    4.800 
#    1.200    5.000    0.000    0.000    0.000    1.400 
#    0.000    0.000    0.000    0.000    0.000    0.000 
#
# Total GULP energy -743493.791951 kJ/mol
# GULP energy per Si atom -12391.563199 kJ/mol
# Density = 1.903194 g / cm^3
# Si number density = 19.075360 Si / 1000 Ang^3
#
#
#
# Elastic Constant Matrix: (Units=GPa)
#
#
# Indices 1 2 3 4 5 6 
#
# 1 102.6441 48.1062 42.4338 0.0000 0.0000 0.0000
# 2 48.1062 102.6441 42.4338 0.0000 0.0000 0.0000
# 3 42.4338 42.4338 65.7670 0.0000 0.0000 0.0000
# 4 0.0000 0.0000 0.0000 22.9100 0.0000 0.0000
# 5 0.0000 0.0000 0.0000 0.0000 22.9100 0.0000
# 6 0.0000 0.0000 0.0000 0.0000 0.0000 27.2690
#
#
#
# Elastic Compliance Matrix: (Units=1/GPa)
#
#
# Indices 1 2 3 4 5 6 
#
# 1 0.014377 -0.003959 -0.006722 0.000000 0.000000 0.000000
# 2 -0.003959 0.014377 -0.006722 0.000000 0.000000 0.000000
# 3 -0.006722 -0.006722 0.023879 0.000000 0.000000 0.000000
# 4 0.000000 0.000000 0.000000 0.043649 0.000000 0.000000
# 5 0.000000 0.000000 0.000000 0.000000 0.043649 0.000000
# 6 0.000000 0.000000 0.000000 0.000000 0.000000 0.036672
#
#
# Mechanical properties :
#
#
# Convention : Reuss Voigt Hill
#
# Bulk Modulus (GPa) = 56.09234 59.66700 57.87967
# Shear Modulus (GPa) = 23.00447 23.82321 23.41384
#
# Velocity S-wave (km/s) = 3.47649 3.53781 3.50728
# Velocity P-wave (km/s) = 6.75160 6.93078 6.84178
#
# Compressibility (1/GPa) = 0.01782775
#
# Stress axis : x y z
#
# Youngs Moduli (GPa) = 69.55710 69.55710 41.87808
#
# Poissons Ratio (x) = 0.27539 0.28148
# Poissons Ratio (y) = 0.27539 0.28148
# Poissons Ratio (z) = 0.46753 0.46753
#
# Static dielectric constant tensor:
#      x y z
#    x 3.388750 0.000000 0.000000 
#    y 0.000000 3.388750 0.000000 
#    z 0.000000 0.000000 3.807710 
# 
# 
# High freq. dielectric constant tensor:
#      x y z
#    x 1.727400 0.000000 0.000000 
#    y 0.000000 1.727400 0.000000 
#    z 0.000000 0.000000 1.740470 
# 
# From -- ./inp_files/1939.got.cif
#   From: 2010.03.12/outbox.cif.g09.slc.cpg/sg189_1_cif.got.tgz:1939.got - 2010.04.01 12:03:36.
