data_PCOD8327603
_publ_section_title
;
Structure prediction by ZEFSAII (Michael W. Deem and Ramdas Pophale) SiO2 
 PCOD8327603
Probable space group: P -6 2 M
;
_chemical_formula_sum "Si O2"
_cell_formula_units_Z 84
_cell_length_a 18.985048
_cell_length_b 18.985048
_cell_length_c 14.383234
_cell_angle_alpha 90.000000
_cell_angle_beta 90.000000
_cell_angle_gamma 120.000000
_cell_volume 4489.630262
_symmetry_space_group_name_H-M "P -6 2 M"
_symmetry_group_IT_number 189
_symmetry_cell_setting 'hexagonal'
loop_
_space_group_symop_operation_xyz
x,y,z
-x+y,-x,-z
-y,x-y,z
x,y,-z
-x+y,-x,z
-y,x-y,-z
x-y,-y,-z
-x,-x+y,-z
y,x,-z
y,x,z
x-y,-y,z
-x,-x+y,z
loop_
_atom_site_type_symbol
_atom_site_label
_atom_site_fract_x
_atom_site_fract_y
_atom_site_fract_z
Si Si1 0.903712 0.501188 0.898228
Si Si2 0.186038 0.093898 0.106986
Si Si3 0.903529 0.344041 0.102638
Si Si4 0.594538 0.787883 0.392953
Si Si5 0.904041 0.220041 0.229932
Si Si6 0.091151 0.491696 0.605089
Si Si7 0.361069 0.455400 0.701120
O O1 0.868127 0.404753 0.881658
O O2 0.879894 0.538837 0.810593
O O3 0.000000 0.542598 0.900977
O O4 0.873272 0.514915 0.000000
O O5 0.144118 0.144118 0.140210
O O6 0.266943 0.125668 0.166515
O O7 0.122496 0.000000 0.125090
O O8 0.212335 0.109785 0.000000
O O9 0.870498 0.274826 0.181753
O O10 0.000000 0.392503 0.109637
O O11 0.877573 0.303942 0.000000
O O12 0.621586 0.806441 0.500000
O O13 0.673276 0.810488 0.330463
O O14 0.531557 0.692183 0.377726
O O15 0.557881 0.844016 0.361604
O O16 0.000000 0.267914 0.242021
O O17 0.096934 0.523394 0.500000
O O18 0.105540 0.563064 0.674579
O O19 0.000000 0.414011 0.622733
O O20 0.384854 0.384854 0.685053
#
# Coordination Sequence:
#
# PCOD8327603 Si02
#       7
#    12  12  12  12  12  12  12
#     4   8  14  26  47  74 101 131 168 205 243 300
#     4   9  17  30  49  73 102 136 172 209 253 309
#     4   8  13  24  47  78 105 128 161 205 249 299
#     4  11  23  36  52  77 104 133 175 223 267 310
#     4  10  19  31  49  74 105 137 170 210 259 308
#     4   9  18  35  58  80 103 134 173 216 263 316
#     4  10  20  36  57  78 105 141 175 210 263 326
#
# _framework density 18.709779999999999
#
# number of rings (size 3 to 8) (size 9 to 14) (size 15 to 20)
#    0.000    2.714    0.000    3.143    0.000    6.857 
#    0.857    1.429    0.000    2.571    0.000    0.000 
#    0.000    1.143    0.000    0.000    0.000    0.000 
#
# Total GULP energy -1040970.104208 kJ/mol
# GULP energy per Si atom -12392.501241 kJ/mol
# Density = 1.866720 g / cm^3
# Si number density = 18.709780 Si / 1000 Ang^3
#
#
#
# Elastic Constant Matrix: (Units=GPa)
#
#
# Indices 1 2 3 4 5 6 
#
# 1 54.7038 22.9938 33.2978 0.0000 0.0000 0.0000
# 2 22.9938 54.7038 33.2978 0.0000 0.0000 0.0000
# 3 33.2978 33.2978 128.9746 0.0000 0.0000 0.0000
# 4 0.0000 0.0000 0.0000 27.3624 0.0000 0.0000
# 5 0.0000 0.0000 0.0000 0.0000 27.3624 0.0000
# 6 0.0000 0.0000 0.0000 0.0000 0.0000 15.8550
#
#
#
# Elastic Compliance Matrix: (Units=1/GPa)
#
#
# Indices 1 2 3 4 5 6 
#
# 1 0.024032 -0.007504 -0.004267 0.000000 0.000000 0.000000
# 2 -0.007504 0.024032 -0.004267 0.000000 0.000000 0.000000
# 3 -0.004267 -0.004267 0.009957 0.000000 0.000000 0.000000
# 4 0.000000 0.000000 0.000000 0.036547 0.000000 0.000000
# 5 0.000000 0.000000 0.000000 0.000000 0.036547 0.000000
# 6 0.000000 0.000000 0.000000 0.000000 0.000000 0.063072
#
#
# Mechanical properties :
#
#
# Convention : Reuss Voigt Hill
#
# Bulk Modulus (GPa) = 38.54439 46.39565 42.47002
# Shear Modulus (GPa) = 21.28485 24.03549 22.66017
#
# Velocity S-wave (km/s) = 3.37654 3.58809 3.48392
# Velocity P-wave (km/s) = 5.98726 6.48207 6.23957
#
# Compressibility (1/GPa) = 0.02594411
#
# Stress axis : x y z
#
# Youngs Moduli (GPa) = 41.61164 41.61164 100.43465
#
# Poissons Ratio (x) = 0.31225 0.42856
# Poissons Ratio (y) = 0.31225 0.42856
# Poissons Ratio (z) = 0.17756 0.17756
#
# Static dielectric constant tensor:
#      x y z
#    x 3.228160 0.000000 0.000000 
#    y 0.000000 3.228160 0.000000 
#    z 0.000000 0.000000 3.865090 
# 
# 
# High freq. dielectric constant tensor:
#      x y z
#    x 1.697040 0.000000 0.000000 
#    y 0.000000 1.697040 0.000000 
#    z 0.000000 0.000000 1.745470 
# 
# From -- ./inp_files/2816.got.cif
#   From: 2010.03.12/outbox.cif.g09.slc.cpg/sg189_2_cif.got.tgz:2816.got - 2010.04.01 12:03:36.
