data_PCOD8327954
_publ_section_title
;
Structure prediction by ZEFSAII (Michael W. Deem and Ramdas Pophale) SiO2 
 PCOD8327954
Probable space group: P -6 2 C
;
_chemical_formula_sum "Si O2"
_cell_formula_units_Z 72
_cell_length_a 14.064884
_cell_length_b 14.064884
_cell_length_c 22.270194
_cell_angle_alpha 90.000000
_cell_angle_beta 90.000000
_cell_angle_gamma 120.000000
_cell_volume 3815.284615
_symmetry_space_group_name_H-M "P -6 2 C"
_symmetry_group_IT_number 190
_symmetry_cell_setting 'hexagonal'
loop_
_space_group_symop_operation_xyz
x,y,z
-x+y,-x,1/2-z
-y,x-y,z
x,y,1/2-z
-x+y,-x,z
-y,x-y,1/2-z
x-y,-y,-z
-x,-x+y,-z
y,x,-z
y,x,1/2+z
x-y,-y,1/2+z
-x,-x+y,1/2+z
loop_
_atom_site_type_symbol
_atom_site_label
_atom_site_fract_x
_atom_site_fract_y
_atom_site_fract_z
Si Si1 0.664665 0.792358 0.124498
Si Si2 0.845165 0.787804 0.444777
Si Si3 0.444685 0.151917 0.506835
Si Si4 0.756860 0.937701 0.750000
Si Si5 0.257774 0.067109 0.750000
Si Si6 0.272703 0.303589 0.623671
Si Si7 0.521798 0.893105 0.532054
O O1 0.787160 0.820749 0.106424
O O2 0.573799 0.701412 0.079171
O O3 0.657789 0.756020 0.193796
O O4 0.650884 0.899653 0.120947
O O5 0.875493 0.875493 0.500000
O O6 0.761897 0.669696 0.473065
O O7 0.945116 0.779609 0.416056
O O8 0.514242 0.104533 0.474474
O O9 0.502400 0.282284 0.498075
O O10 0.781024 0.838481 0.750000
O O11 0.685404 0.925270 0.691187
O O12 0.864905 0.057935 0.750000
O O13 0.335922 0.429705 0.599533
O O14 0.620452 0.000000 0.500000
#
# Coordination Sequence:
#
# PCOD8327954 Si02
#       7
#    12  12  12   6   6  12  12
#     4  10  18  34  50  79 113 152 193 234 280 351
#     4   9  18  30  49  76 113 142 187 232 287 348
#     4  10  21  34  57  83 109 146 192 243 311 359
#     4  10  19  34  52  81 115 167 207 236 286 356
#     4  10  19  30  56  75 117 159 203 234 274 348
#     4  10  20  33  54  79 117 158 194 236 294 353
#     4  11  20  37  59  84 117 150 191 254 312 368
#
# _framework density 18.871461
#
# number of rings (size 3 to 8) (size 9 to 14) (size 15 to 20)
#    0.000    2.000    3.333    2.000    0.000    0.000 
#    1.000    0.000    0.000    9.000    0.000    0.000 
#    0.000    0.000    0.000    0.000    0.000    0.000 
#
# Total GULP energy -891947.554223 kJ/mol
# GULP energy per Si atom -12388.160475 kJ/mol
# Density = 1.882851 g / cm^3
# Si number density = 18.871461 Si / 1000 Ang^3
#
#
#
# Elastic Constant Matrix: (Units=GPa)
#
#
# Indices 1 2 3 4 5 6 
#
# 1 64.5664 19.6768 36.6449 0.0000 0.0000 0.0000
# 2 19.6768 64.5664 36.6449 0.0000 0.0000 0.0000
# 3 36.6449 36.6449 152.7635 0.0000 0.0000 0.0000
# 4 0.0000 0.0000 0.0000 23.7657 0.0000 0.0000
# 5 0.0000 0.0000 0.0000 0.0000 23.7657 0.0000
# 6 0.0000 0.0000 0.0000 0.0000 0.0000 22.4448
#
#
#
# Elastic Compliance Matrix: (Units=1/GPa)
#
#
# Indices 1 2 3 4 5 6 
#
# 1 0.018639 -0.003638 -0.003598 0.000000 0.000000 0.000000
# 2 -0.003638 0.018639 -0.003598 0.000000 0.000000 0.000000
# 3 -0.003598 -0.003598 0.008272 0.000000 0.000000 0.000000
# 4 0.000000 0.000000 0.000000 0.042077 0.000000 0.000000
# 5 0.000000 0.000000 0.000000 0.000000 0.042077 0.000000
# 6 0.000000 0.000000 0.000000 0.000000 0.000000 0.044554
#
#
# Mechanical properties :
#
#
# Convention : Reuss Voigt Hill
#
# Bulk Modulus (GPa) = 41.87495 51.98108 46.92801
# Shear Modulus (GPa) = 24.52318 26.59056 25.55687
#
# Velocity S-wave (km/s) = 3.60875 3.75778 3.68402
# Velocity P-wave (km/s) = 6.29300 6.81414 6.55875
#
# Compressibility (1/GPa) = 0.02388063
#
# Stress axis : x y z
#
# Youngs Moduli (GPa) = 53.65116 53.65116 120.88321
#
# Poissons Ratio (x) = 0.19518 0.43499
# Poissons Ratio (y) = 0.19518 0.43499
# Poissons Ratio (z) = 0.19306 0.19306
#
# Static dielectric constant tensor:
#      x y z
#    x 3.362860 0.000000 0.000000 
#    y 0.000000 3.362860 0.000000 
#    z 0.000000 0.000000 3.799550 
# 
# 
# High freq. dielectric constant tensor:
#      x y z
#    x 1.712820 0.000000 0.000000 
#    y 0.000000 1.712820 0.000000 
#    z 0.000000 0.000000 1.734680 
# 
# From -- ./inp_files/4396.got.cif
#   From: 2010.06.25/outbox.cif.g09.slc.cpg/sg190_3_cif.got.tgz:4396.got - 2010.06.28 13:08:06.
