data_PCOD8327529
_publ_section_title
;
Structure prediction by ZEFSAII (Michael W. Deem and Ramdas Pophale) SiO2 
 PCOD8327529
Probable space group: P -6 2 M
;
_chemical_formula_sum "Si O2"
_cell_formula_units_Z 72
_cell_length_a 23.683785
_cell_length_b 23.683785
_cell_length_c 8.926552
_cell_angle_alpha 90.000000
_cell_angle_beta 90.000000
_cell_angle_gamma 120.000000
_cell_volume 4336.272744
_symmetry_space_group_name_H-M "P -6 2 M"
_symmetry_group_IT_number 189
_symmetry_cell_setting 'hexagonal'
loop_
_space_group_symop_operation_xyz
x,y,z
-x+y,-x,-z
-y,x-y,z
x,y,-z
-x+y,-x,z
-y,x-y,-z
x-y,-y,-z
-x,-x+y,-z
y,x,-z
y,x,z
x-y,-y,z
-x,-x+y,z
loop_
_atom_site_type_symbol
_atom_site_label
_atom_site_fract_x
_atom_site_fract_y
_atom_site_fract_z
Si Si1 0.332688 0.479552 0.824774
Si Si2 0.331834 0.141660 0.323528
Si Si3 0.284046 0.000000 0.676689
Si Si4 0.589105 0.469905 0.825683
Si Si5 0.265112 0.798217 0.172136
Si Si6 0.926182 0.667121 0.822119
Si Si7 0.589682 0.589682 0.322962
O O1 0.401126 0.534134 0.754978
O O2 0.277830 0.498569 0.785164
O O3 0.308989 0.406446 0.764508
O O4 0.344017 0.480735 0.000000
O O5 0.330970 0.151296 0.500000
O O6 0.404255 0.159148 0.275241
O O7 0.307920 0.187234 0.244730
O O8 0.283518 0.065867 0.275453
O O9 0.291838 0.000000 0.500000
O O10 0.347190 0.000000 0.746513
O O11 0.660281 0.477468 0.803419
O O12 0.587374 0.525215 0.732071
O O13 0.576122 0.476699 0.000000
O O14 0.251497 0.809335 0.000000
O O15 0.000000 0.714287 0.766555
O O16 0.921194 0.667937 0.000000
O O17 0.591241 0.591241 0.500000
#
# Coordination Sequence:
#
# PCOD8327529 Si02
#       7
#    12  12   6  12  12  12   6
#     4   8  16  30  47  66  90 121 155 195 242 285
#     4  10  18  31  50  70  95 125 157 190 229 280
#     4   9  18  31  47  69  97 129 153 182 237 284
#     4  10  19  31  49  70  91 120 162 203 241 293
#     4   9  17  31  47  66  90 119 156 199 246 290
#     4   9  18  33  51  70  97 130 158 191 236 280
#     4  11  21  33  47  67  97 127 155 194 249 294
#
# _framework density 16.604120999999999
#
# number of rings (size 3 to 8) (size 9 to 14) (size 15 to 20)
#    0.000    2.667    1.667    1.750    1.167    0.333 
#    1.000    5.000    0.000    0.000    0.000    0.000 
#    0.833    0.000    0.500    0.000    0.667    0.000 
#
# Total GULP energy -892372.212768 kJ/mol
# GULP energy per Si atom -12394.058511 kJ/mol
# Density = 1.656633 g / cm^3
# Si number density = 16.604121 Si / 1000 Ang^3
#
#
#
# Elastic Constant Matrix: (Units=GPa)
#
#
# Indices 1 2 3 4 5 6 
#
# 1 119.1594 84.0312 27.4879 0.0000 0.0000 0.0000
# 2 84.0312 119.1594 27.4879 0.0000 0.0000 0.0000
# 3 27.4879 27.4879 34.6746 0.0000 0.0000 0.0000
# 4 0.0000 0.0000 0.0000 16.7224 0.0000 0.0000
# 5 0.0000 0.0000 0.0000 0.0000 16.7224 0.0000
# 6 0.0000 0.0000 0.0000 0.0000 0.0000 17.5641
#
#
#
# Elastic Compliance Matrix: (Units=1/GPa)
#
#
# Indices 1 2 3 4 5 6 
#
# 1 0.017366 -0.011101 -0.004967 0.000000 0.000000 0.000000
# 2 -0.011101 0.017366 -0.004967 0.000000 0.000000 0.000000
# 3 -0.004967 -0.004967 0.036714 0.000000 0.000000 0.000000
# 4 0.000000 0.000000 0.000000 0.059800 0.000000 0.000000
# 5 0.000000 0.000000 0.000000 0.000000 0.059800 0.000000
# 6 0.000000 0.000000 0.000000 0.000000 0.000000 0.056934
#
#
# Mechanical properties :
#
#
# Convention : Reuss Voigt Hill
#
# Bulk Modulus (GPa) = 34.03929 61.22303 47.63116
# Shear Modulus (GPa) = 16.67542 19.13420 17.90481
#
# Velocity S-wave (km/s) = 3.17250 3.39835 3.28736
# Velocity P-wave (km/s) = 5.82792 7.23537 6.56945
#
# Compressibility (1/GPa) = 0.02937781
#
# Stress axis : x y z
#
# Youngs Moduli (GPa) = 57.58303 57.58303 27.23743
#
# Poissons Ratio (x) = 0.63922 0.13528
# Poissons Ratio (y) = 0.63922 0.13528
# Poissons Ratio (z) = 0.28600 0.28600
#
# Static dielectric constant tensor:
#      x y z
#    x 3.440800 0.000000 0.000000 
#    y 0.000000 3.440800 0.000000 
#    z 0.000000 0.000000 2.899450 
# 
# 
# High freq. dielectric constant tensor:
#      x y z
#    x 1.630960 0.000000 0.000000 
#    y 0.000000 1.630960 0.000000 
#    z 0.000000 0.000000 1.616860 
# 
# From -- ./inp_files/1322.got.cif
#   From: 2010.03.12/outbox.cif.g09.slc.cpg/sg189_1_cif.got.tgz:1322.got - 2010.04.01 12:03:36.
