data_PCOD8327629
_publ_section_title
;
Structure prediction by ZEFSAII (Michael W. Deem and Ramdas Pophale) SiO2 
 PCOD8327629
Probable space group: P -6 2 M
;
_chemical_formula_sum "Si O2"
_cell_formula_units_Z 82
_cell_length_a 20.409133
_cell_length_b 20.409133
_cell_length_c 12.679979
_cell_angle_alpha 90.000000
_cell_angle_beta 90.000000
_cell_angle_gamma 120.000000
_cell_volume 4574.022301
_symmetry_space_group_name_H-M "P -6 2 M"
_symmetry_group_IT_number 189
_symmetry_cell_setting 'hexagonal'
loop_
_space_group_symop_operation_xyz
x,y,z
-x+y,-x,-z
-y,x-y,z
x,y,-z
-x+y,-x,z
-y,x-y,-z
x-y,-y,-z
-x,-x+y,-z
y,x,-z
y,x,z
x-y,-y,z
-x,-x+y,z
loop_
_atom_site_type_symbol
_atom_site_label
_atom_site_fract_x
_atom_site_fract_y
_atom_site_fract_z
Si Si1 0.460031 0.181389 0.379254
Si Si2 0.913856 0.760641 0.793652
Si Si3 0.294435 0.378812 0.879334
Si Si4 0.200361 0.675554 0.766438
Si Si5 0.085697 0.286422 0.619581
Si Si6 0.912919 0.452806 0.378371
Si Si7 0.333334 0.666668 0.127201
Si Si8 0.826510 0.911591 0.000000
O O1 0.476315 0.211007 0.500000
O O2 0.506898 0.250801 0.301059
O O3 0.372583 0.142430 0.350235
O O4 0.481298 0.116561 0.362249
O O5 0.907362 0.679278 0.803343
O O6 0.870542 0.765500 0.691939
O O7 0.876239 0.775382 0.896308
O O8 0.000000 0.826463 0.779748
O O9 0.367392 0.367392 0.863062
O O10 0.311556 0.462415 0.853141
O O11 0.266757 0.360562 0.000000
O O12 0.140363 0.613923 0.687668
O O13 0.251775 0.649206 0.829256
O O14 0.097901 0.269651 0.500000
O O15 0.000000 0.267429 0.638106
O O16 0.907449 0.471755 0.500000
O O17 0.000000 0.500502 0.339437
O O18 0.333334 0.666668 0.000000
O O19 0.895281 0.895281 0.000000
O O20 0.856588 0.000000 0.000000
#
# Coordination Sequence:
#
# PCOD8327629 Si02
#       8
#    12  12  12  12  12  12   4   6
#     4  10  20  35  56  82 112 145 184 224 275 334
#     4  10  19  33  53  78 110 141 177 227 277 330
#     4  10  20  36  58  81 107 142 182 228 282 334
#     4  12  21  39  59  83 111 152 187 233 282 332
#     4  10  20  35  55  78 107 144 184 223 269 329
#     4  10  21  37  58  87 119 148 185 233 283 338
#     4  12  27  42  58  83 112 153 201 243 277 323
#     4  10  19  32  52  78 108 140 180 230 284 336
#
# _framework density 17.927327999999999
#
# number of rings (size 3 to 8) (size 9 to 14) (size 15 to 20)
#    0.000    1.610    3.659    2.268    0.000    2.049 
#    0.000    0.000    0.000    0.293    0.000    2.049 
#    0.000    0.000    0.000    0.000    0.000    0.000 
#
# Total GULP energy -1016799.796286 kJ/mol
# GULP energy per Si atom -12399.997516 kJ/mol
# Density = 1.788653 g / cm^3
# Si number density = 17.927328 Si / 1000 Ang^3
#
#
#
# Elastic Constant Matrix: (Units=GPa)
#
#
# Indices 1 2 3 4 5 6 
#
# 1 84.7937 27.1345 44.2574 0.0000 0.0000 0.0000
# 2 27.1345 84.7941 44.2576 0.0001 0.0000 0.0000
# 3 44.2574 44.2576 96.9032 0.0000 0.0001 0.0000
# 4 0.0000 0.0001 0.0000 28.7108 0.0000 0.0000
# 5 0.0000 0.0000 0.0001 0.0000 28.7106 0.0000
# 6 0.0000 0.0000 0.0000 0.0000 0.0000 28.8297
#
#
#
# Elastic Compliance Matrix: (Units=1/GPa)
#
#
# Indices 1 2 3 4 5 6 
#
# 1 0.015664 -0.001679 -0.006387 0.000000 0.000000 0.000000
# 2 -0.001679 0.015664 -0.006388 0.000000 0.000000 0.000000
# 3 -0.006387 -0.006388 0.016154 0.000000 0.000000 0.000000
# 4 0.000000 0.000000 0.000000 0.034830 0.000000 0.000000
# 5 0.000000 0.000000 0.000000 0.000000 0.034830 0.000000
# 6 0.000000 0.000000 0.000000 0.000000 0.000000 0.034686
#
#
# Mechanical properties :
#
#
# Convention : Reuss Voigt Hill
#
# Bulk Modulus (GPa) = 53.83457 55.31000 54.57228
# Shear Modulus (GPa) = 26.74807 27.30631 27.02719
#
# Velocity S-wave (km/s) = 3.86687 3.90701 3.88699
# Velocity P-wave (km/s) = 7.07329 7.16047 7.11701
#
# Compressibility (1/GPa) = 0.01857542
#
# Stress axis : x y z
#
# Youngs Moduli (GPa) = 63.83880 63.83896 61.90355
#
# Poissons Ratio (x) = 0.10717 0.39541
# Poissons Ratio (y) = 0.10717 0.39541
# Poissons Ratio (z) = 0.40777 0.40777
#
# Static dielectric constant tensor:
#      x y z
#    x 3.268560 0.000000 0.000000 
#    y 0.000000 3.268550 0.000000 
#    z 0.000000 0.000000 3.331330 
# 
# 
# High freq. dielectric constant tensor:
#      x y z
#    x 1.692800 0.000000 0.000000 
#    y 0.000000 1.692800 0.000000 
#    z 0.000000 0.000000 1.695300 
# 
# From -- ./inp_files/2169.got.cif
#   From: 2010.03.12/outbox.cif.g09.slc.cpg/sg189_2_cif.got.tgz:2169.got - 2010.04.01 12:03:36.
