data_PCOD8327717
_publ_section_title
;
Structure prediction by ZEFSAII (Michael W. Deem and Ramdas Pophale) SiO2 
 PCOD8327717
Probable space group: P -6 2 M
;
_chemical_formula_sum "Si O2"
_cell_formula_units_Z 72
_cell_length_a 23.637852
_cell_length_b 23.637852
_cell_length_c 9.251286
_cell_angle_alpha 90.000000
_cell_angle_beta 90.000000
_cell_angle_gamma 120.000000
_cell_volume 4476.604812
_symmetry_space_group_name_H-M "P -6 2 M"
_symmetry_group_IT_number 189
_symmetry_cell_setting 'hexagonal'
loop_
_space_group_symop_operation_xyz
x,y,z
-x+y,-x,-z
-y,x-y,z
x,y,-z
-x+y,-x,z
-y,x-y,-z
x-y,-y,-z
-x,-x+y,-z
y,x,-z
y,x,z
x-y,-y,z
-x,-x+y,z
loop_
_atom_site_type_symbol
_atom_site_label
_atom_site_fract_x
_atom_site_fract_y
_atom_site_fract_z
Si Si1 0.195948 0.336374 0.670628
Si Si2 0.412236 0.412236 0.671992
Si Si3 0.735923 0.202009 0.836028
Si Si4 0.716682 0.000000 0.671006
Si Si5 0.073466 0.342949 0.330122
Si Si6 0.858046 0.333315 0.167956
Si Si7 0.590632 0.118264 0.833118
O O1 0.201699 0.343665 0.500000
O O2 0.248835 0.405880 0.733399
O O3 0.217621 0.283925 0.723199
O O4 0.122556 0.316858 0.720636
O O5 0.415845 0.415845 0.500000
O O6 0.347681 0.347681 0.729033
O O7 0.475354 0.412572 0.732000
O O8 0.783428 0.278062 0.798360
O O9 0.661105 0.183720 0.813965
O O10 0.748315 0.187899 0.000000
O O11 0.714337 0.000000 0.500000
O O12 0.079847 0.356690 0.500000
O O13 0.091373 0.410479 0.253259
O O14 0.000000 0.288056 0.287325
O O15 0.865586 0.401268 0.220465
O O16 0.875062 0.335601 0.000000
O O17 0.579319 0.095026 0.000000
#
# Coordination Sequence:
#
# PCOD8327717 Si02
#       7
#    12   6  12   6  12  12  12
#     4   9  16  29  47  65  89 114 141 177 215 260
#     4  11  21  31  47  69  91 117 151 186 225 278
#     4   9  17  31  47  63  84 112 147 183 223 268
#     4   9  16  27  45  69  89 113 143 172 215 264
#     4   9  18  31  47  67  89 115 147 183 220 257
#     4   9  19  33  47  64  86 117 152 185 225 272
#     4  10  20  33  47  66  92 118 148 190 236 275
#
# _framework density 16.083617
#
# number of rings (size 3 to 8) (size 9 to 14) (size 15 to 20)
#    0.000    2.667    1.667    0.250    1.167    1.000 
#    1.000    0.417    0.000    0.000    0.000    0.000 
#    0.833    0.000    2.500    0.000    0.000    0.000 
#
# Total GULP energy -892361.580289 kJ/mol
# GULP energy per Si atom -12393.910837 kJ/mol
# Density = 1.604701 g / cm^3
# Si number density = 16.083617 Si / 1000 Ang^3
#
#
#
# Elastic Constant Matrix: (Units=GPa)
#
#
# Indices 1 2 3 4 5 6 
#
# 1 116.1812 73.6305 26.1735 0.0000 0.0000 0.0000
# 2 73.6305 116.1812 26.1735 0.0000 0.0000 0.0000
# 3 26.1735 26.1735 27.3770 0.0000 0.0000 0.0000
# 4 0.0000 0.0000 0.0000 19.3547 0.0000 0.0000
# 5 0.0000 0.0000 0.0000 0.0000 19.3547 0.0000
# 6 0.0000 0.0000 0.0000 0.0000 0.0000 21.2753
#
#
#
# Elastic Compliance Matrix: (Units=1/GPa)
#
#
# Indices 1 2 3 4 5 6 
#
# 1 0.015328 -0.008173 -0.006840 0.000000 0.000000 0.000000
# 2 -0.008173 0.015328 -0.006840 0.000000 0.000000 0.000000
# 3 -0.006840 -0.006840 0.049606 0.000000 0.000000 0.000000
# 4 0.000000 0.000000 0.000000 0.051667 0.000000 0.000000
# 5 0.000000 0.000000 0.000000 0.000000 0.051667 0.000000
# 6 0.000000 0.000000 0.000000 0.000000 0.000000 0.047003
#
#
# Mechanical properties :
#
#
# Convention : Reuss Voigt Hill
#
# Bulk Modulus (GPa) = 27.35625 56.85490 42.10558
# Shear Modulus (GPa) = 17.45250 20.91441 19.18346
#
# Velocity S-wave (km/s) = 3.29768 3.60996 3.45734
# Velocity P-wave (km/s) = 5.61652 7.26650 6.49412
#
# Compressibility (1/GPa) = 0.03655471
#
# Stress axis : x y z
#
# Youngs Moduli (GPa) = 65.23962 65.23962 20.15876
#
# Poissons Ratio (x) = 0.53322 0.13789
# Poissons Ratio (y) = 0.53322 0.13789
# Poissons Ratio (z) = 0.44626 0.44626
#
# Static dielectric constant tensor:
#      x y z
#    x 3.242510 0.000000 0.000000 
#    y 0.000000 3.242510 0.000000 
#    z 0.000000 0.000000 2.984350 
# 
# 
# High freq. dielectric constant tensor:
#      x y z
#    x 1.608720 0.000000 0.000000 
#    y 0.000000 1.608720 0.000000 
#    z 0.000000 0.000000 1.610450 
# 
# From -- ./inp_files/1346.got.cif
#   From: 2010.03.12/outbox.cif.g09.slc.cpg/sg189_1_cif.got.tgz:1346.got - 2010.04.01 12:03:36.
