data_PCOD8327600
_publ_section_title
;
Structure prediction by ZEFSAII (Michael W. Deem and Ramdas Pophale) SiO2 
 PCOD8327600
Probable space group: P -6 2 M
;
_chemical_formula_sum "Si O2"
_cell_formula_units_Z 84
_cell_length_a 19.582350
_cell_length_b 19.582350
_cell_length_c 14.470388
_cell_angle_alpha 90.000000
_cell_angle_beta 90.000000
_cell_angle_gamma 120.000000
_cell_volume 4805.520397
_symmetry_space_group_name_H-M "P -6 2 M"
_symmetry_group_IT_number 189
_symmetry_cell_setting 'hexagonal'
loop_
_space_group_symop_operation_xyz
x,y,z
-x+y,-x,-z
-y,x-y,z
x,y,-z
-x+y,-x,z
-y,x-y,-z
x-y,-y,-z
-x,-x+y,-z
y,x,-z
y,x,z
x-y,-y,z
-x,-x+y,z
loop_
_atom_site_type_symbol
_atom_site_label
_atom_site_fract_x
_atom_site_fract_y
_atom_site_fract_z
Si Si1 0.561244 0.092896 0.249772
Si Si2 0.831002 0.526492 0.393062
Si Si3 0.201352 0.908265 0.253036
Si Si4 0.537551 0.840203 0.107187
Si Si5 0.809189 0.088750 0.895250
Si Si6 0.911804 0.711126 0.395306
Si Si7 0.718028 0.523370 0.247630
O O1 0.610824 0.118339 0.344727
O O2 0.614271 0.109459 0.158686
O O3 0.523146 0.148033 0.240565
O O4 0.496106 0.000000 0.254151
O O5 0.813443 0.498881 0.500000
O O6 0.884092 0.619876 0.383962
O O7 0.748489 0.497931 0.338971
O O8 0.148310 0.886039 0.161518
O O9 0.143392 0.878506 0.340241
O O10 0.257032 0.870984 0.252627
O O11 0.256647 0.000000 0.260243
O O12 0.631199 0.891440 0.117759
O O13 0.505835 0.755567 0.156973
O O14 0.510898 0.826549 0.000000
O O15 0.776349 0.000000 0.860030
O O16 0.837334 0.098487 0.000000
O O17 0.908350 0.733878 0.500000
O O18 0.000000 0.759387 0.355482
#
# Coordination Sequence:
#
# PCOD8327600 Si02
#       7
#    12  12  12  12  12  12  12
#     4  11  21  33  54  82 109 135 172 223 274 318
#     4   9  19  36  55  75 102 135 173 215 260 310
#     4  10  19  31  49  72 100 134 164 195 242 300
#     4   9  19  36  55  75 102 135 173 215 260 310
#     4   9  17  31  53  77  97 121 160 209 253 293
#     4   9  17  31  53  77  97 121 160 209 253 293
#     4   9  20  36  51  72 106 137 173 210 256 306
#
# _framework density 17.479897000000001
#
# number of rings (size 3 to 8) (size 9 to 14) (size 15 to 20)
#    0.000    2.571    0.000    2.571    0.000    3.429 
#    6.857    0.000    0.000    7.429    0.000    0.000 
#    0.000    0.000    0.000    0.000    0.000    0.000 
#
# Total GULP energy -1041422.495129 kJ/mol
# GULP energy per Si atom -12397.886847 kJ/mol
# Density = 1.744011 g / cm^3
# Si number density = 17.479897 Si / 1000 Ang^3
#
#
#
# Elastic Constant Matrix: (Units=GPa)
#
#
# Indices 1 2 3 4 5 6 
#
# 1 53.4495 12.2503 7.4768 0.0000 0.0000 0.0000
# 2 12.2503 53.4495 7.4768 0.0000 0.0000 0.0000
# 3 7.4768 7.4768 70.3936 0.0000 0.0000 0.0000
# 4 0.0000 0.0000 0.0000 19.0384 0.0000 0.0000
# 5 0.0000 0.0000 0.0000 0.0000 19.0384 0.0000
# 6 0.0000 0.0000 0.0000 0.0000 0.0000 20.5996
#
#
#
# Elastic Compliance Matrix: (Units=1/GPa)
#
#
# Indices 1 2 3 4 5 6 
#
# 1 0.019935 -0.004337 -0.001657 0.000000 0.000000 0.000000
# 2 -0.004337 0.019935 -0.001657 0.000000 0.000000 0.000000
# 3 -0.001657 -0.001657 0.014558 0.000000 0.000000 0.000000
# 4 0.000000 0.000000 0.000000 0.052525 0.000000 0.000000
# 5 0.000000 0.000000 0.000000 0.000000 0.052525 0.000000
# 6 0.000000 0.000000 0.000000 0.000000 0.000000 0.048545
#
#
# Mechanical properties :
#
#
# Convention : Reuss Voigt Hill
#
# Bulk Modulus (GPa) = 25.55808 25.74449 25.65128
# Shear Modulus (GPa) = 21.15354 21.74118 21.44736
#
# Velocity S-wave (km/s) = 3.48252 3.53056 3.50662
# Velocity P-wave (km/s) = 5.55191 5.60177 5.57689
#
# Compressibility (1/GPa) = 0.03912657
#
# Stress axis : x y z
#
# Youngs Moduli (GPa) = 50.16286 50.16286 68.69184
#
# Poissons Ratio (x) = 0.21757 0.11380
# Poissons Ratio (y) = 0.21757 0.11380
# Poissons Ratio (z) = 0.08311 0.08311
#
# Static dielectric constant tensor:
#      x y z
#    x 3.118780 0.000000 0.000000 
#    y 0.000000 3.118780 0.000000 
#    z 0.000000 0.000000 3.682780 
# 
# 
# High freq. dielectric constant tensor:
#      x y z
#    x 1.663730 0.000000 0.000000 
#    y 0.000000 1.663730 0.000000 
#    z 0.000000 0.000000 1.687750 
# 
# From -- ./inp_files/2803.got.cif
#   From: 2010.03.12/outbox.cif.g09.slc.cpg/sg189_2_cif.got.tgz:2803.got - 2010.04.01 12:03:36.
