data_PCOD8327616
_publ_section_title
;
Structure prediction by ZEFSAII (Michael W. Deem and Ramdas Pophale) SiO2 
 PCOD8327616
Probable space group: P -6 2 M
;
_chemical_formula_sum "Si O2"
_cell_formula_units_Z 72
_cell_length_a 24.016908
_cell_length_b 24.016908
_cell_length_c 8.443526
_cell_angle_alpha 90.000000
_cell_angle_beta 90.000000
_cell_angle_gamma 120.000000
_cell_volume 4217.826058
_symmetry_space_group_name_H-M "P -6 2 M"
_symmetry_group_IT_number 189
_symmetry_cell_setting 'hexagonal'
loop_
_space_group_symop_operation_xyz
x,y,z
-x+y,-x,-z
-y,x-y,z
x,y,-z
-x+y,-x,z
-y,x-y,-z
x-y,-y,-z
-x,-x+y,-z
y,x,-z
y,x,z
x-y,-y,z
-x,-x+y,z
loop_
_atom_site_type_symbol
_atom_site_label
_atom_site_fract_x
_atom_site_fract_y
_atom_site_fract_z
Si Si1 0.072382 0.929019 0.688418
Si Si2 0.591934 0.070921 0.687396
Si Si3 0.262513 0.409279 0.312038
Si Si4 0.529834 0.270045 0.817156
Si Si5 0.591339 0.194646 0.315161
Si Si6 0.193965 0.265995 0.688297
O O1 0.072844 0.931753 0.500000
O O2 0.095391 0.879092 0.744600
O O3 0.000000 0.904203 0.749344
O O4 0.119875 0.000000 0.759195
O O5 0.588370 0.066363 0.500000
O O6 0.664969 0.095487 0.740666
O O7 0.571293 0.122474 0.742928
O O8 0.545080 0.000000 0.761316
O O9 0.257662 0.414509 0.500000
O O10 0.240352 0.455334 0.229893
O O11 0.216363 0.337153 0.247203
O O12 0.575010 0.332996 0.714085
O O13 0.548701 0.215926 0.784266
O O14 0.540623 0.289609 0.000000
O O15 0.577600 0.196257 0.500000
O O16 0.197870 0.268195 0.500000
O O17 0.241348 0.241348 0.752748
#
# Coordination Sequence:
#
# PCOD8327616 Si02
#       6
#    12  12  12  12  12  12
#     4   8  12  17  27  48  81 118 150 182 226 276
#     4   8  14  25  44  68  87 104 132 174 220 262
#     4   9  16  27  44  64  86 114 147 182 220 263
#     4  11  21  32  46  66  93 120 147 179 216 257
#     4  10  19  32  50  70  92 117 147 180 216 260
#     4   8  13  21  36  58  81 109 149 191 224 259
#
# _framework density 17.070405000000001
#
# number of rings (size 3 to 8) (size 9 to 14) (size 15 to 20)
#    0.000    3.000    0.000    5.000    0.000    2.667 
#    0.000    0.000    0.000   18.000    0.000    4.667 
#    0.000    0.000    0.000    0.500    0.000    4.500 
#
# Total GULP energy -892378.508158 kJ/mol
# GULP energy per Si atom -12394.145947 kJ/mol
# Density = 1.703155 g / cm^3
# Si number density = 17.070405 Si / 1000 Ang^3
#
#
#
# Elastic Constant Matrix: (Units=GPa)
#
#
# Indices 1 2 3 4 5 6 
#
# 1 135.0881 74.5475 9.5992 0.0000 0.0000 0.0000
# 2 74.5475 135.0881 9.5992 0.0000 0.0000 0.0000
# 3 9.5992 9.5992 26.0038 0.0000 0.0000 0.0000
# 4 0.0000 0.0000 0.0000 2.6973 0.0000 0.0000
# 5 0.0000 0.0000 0.0000 0.0000 2.6973 0.0000
# 6 0.0000 0.0000 0.0000 0.0000 0.0000 30.2703
#
#
#
# Elastic Compliance Matrix: (Units=1/GPa)
#
#
# Indices 1 2 3 4 5 6 
#
# 1 0.010727 -0.005790 -0.001823 0.000000 0.000000 0.000000
# 2 -0.005790 0.010727 -0.001823 0.000000 0.000000 0.000000
# 3 -0.001823 -0.001823 0.039802 0.000000 0.000000 0.000000
# 4 0.000000 0.000000 0.000000 0.370746 0.000000 0.000000
# 5 0.000000 0.000000 0.000000 0.000000 0.370746 0.000000
# 6 0.000000 0.000000 0.000000 0.000000 0.000000 0.033036
#
#
# Mechanical properties :
#
#
# Convention : Reuss Voigt Hill
#
# Bulk Modulus (GPa) = 23.59290 53.74132 38.66711
# Shear Modulus (GPa) = 5.75518 20.62858 13.19188
#
# Velocity S-wave (km/s) = 1.83814 3.48004 2.78293
# Velocity P-wave (km/s) = 4.28438 6.90638 5.74691
#
# Compressibility (1/GPa) = 0.04238564
#
# Stress axis : x y z
#
# Youngs Moduli (GPa) = 93.21874 93.21874 25.12466
#
# Poissons Ratio (x) = 0.53977 0.04579
# Poissons Ratio (y) = 0.53977 0.04579
# Poissons Ratio (z) = 0.16989 0.16989
#
# Static dielectric constant tensor:
#      x y z
#    x 3.386600 0.000000 0.000000 
#    y 0.000000 3.386600 0.000000 
#    z 0.000000 0.000000 2.721490 
# 
# 
# High freq. dielectric constant tensor:
#      x y z
#    x 1.650610 0.000000 0.000000 
#    y 0.000000 1.650610 0.000000 
#    z 0.000000 0.000000 1.617650 
# 
# From -- ./inp_files/1272.got.cif
#   From: 2010.03.12/outbox.cif.g09.slc.cpg/sg189_1_cif.got.tgz:1272.got - 2010.04.01 12:03:36.
