data_PCOD8327994
_publ_section_title
;
Structure prediction by ZEFSAII (Michael W. Deem and Ramdas Pophale) SiO2 
 PCOD8327994
Probable space group: P -6 2 C
;
_chemical_formula_sum "Si O2"
_cell_formula_units_Z 72
_cell_length_a 24.029004
_cell_length_b 24.029004
_cell_length_c 9.023170
_cell_angle_alpha 90.000000
_cell_angle_beta 90.000000
_cell_angle_gamma 120.000000
_cell_volume 4511.919171
_symmetry_space_group_name_H-M "P -6 2 C"
_symmetry_group_IT_number 190
_symmetry_cell_setting 'hexagonal'
loop_
_space_group_symop_operation_xyz
x,y,z
-x+y,-x,1/2-z
-y,x-y,z
x,y,1/2-z
-x+y,-x,z
-y,x-y,1/2-z
x-y,-y,-z
-x,-x+y,-z
y,x,-z
y,x,1/2+z
x-y,-y,1/2+z
-x,-x+y,1/2+z
loop_
_atom_site_type_symbol
_atom_site_label
_atom_site_fract_x
_atom_site_fract_y
_atom_site_fract_z
Si Si1 0.373478 0.509511 0.923403
Si Si2 0.304944 0.934919 0.417632
Si Si3 0.260889 0.749280 0.919655
Si Si4 0.372663 0.308025 0.920092
Si Si5 0.626833 0.481511 0.924226
Si Si6 0.616223 0.808167 0.082790
O O1 0.380435 0.499268 0.750000
O O2 0.326613 0.539613 0.948787
O O3 0.348264 0.442137 0.005311
O O4 0.442160 0.559256 0.992286
O O5 0.323365 0.955629 0.250000
O O6 0.343908 0.899758 0.471592
O O7 0.227802 0.885455 0.438530
O O8 0.323697 0.000000 0.500000
O O9 0.283916 0.762614 0.750000
O O10 0.324243 0.781277 0.022450
O O11 0.218031 0.781445 0.955338
O O12 0.379438 0.329774 0.750000
O O13 0.345160 0.230709 0.932319
O O14 0.321023 0.321023 0.000000
O O15 0.616037 0.470289 0.750000
O O16 0.584987 0.789565 0.250000
#
# Coordination Sequence:
#
# PCOD8327994 Si02
#       6
#    12  12  12  12  12  12
#     4  10  20  33  48  66  88 114 148 194 242 284
#     4   9  18  31  47  68  90 116 149 182 219 266
#     4   9  17  30  47  64  81 106 142 185 231 277
#     4  10  19  32  50  70  93 121 152 186 224 273
#     4  10  20  33  47  63  87 117 150 188 234 287
#     4   8  16  31  48  65  89 118 145 177 217 263
#
# _framework density 15.957732999999999
#
# number of rings (size 3 to 8) (size 9 to 14) (size 15 to 20)
#    0.000    2.667    0.000    3.000    0.000    6.667 
#    1.000    1.667    0.000    0.000    0.000    0.000 
#    0.000    0.000    0.000    0.500    0.000    6.000 
#
# Total GULP energy -892097.662341 kJ/mol
# GULP energy per Si atom -12390.245310 kJ/mol
# Density = 1.592141 g / cm^3
# Si number density = 15.957733 Si / 1000 Ang^3
#
#
#
# Elastic Constant Matrix: (Units=GPa)
#
#
# Indices 1 2 3 4 5 6 
#
# 1 81.7919 50.2016 40.7380 0.0000 0.0000 0.0000
# 2 50.2016 81.7919 40.7380 0.0000 0.0000 0.0000
# 3 40.7380 40.7380 83.9486 0.0000 0.0000 0.0000
# 4 0.0000 0.0000 0.0000 23.5308 0.0000 0.0000
# 5 0.0000 0.0000 0.0000 0.0000 23.5308 0.0000
# 6 0.0000 0.0000 0.0000 0.0000 0.0000 15.7952
#
#
#
# Elastic Compliance Matrix: (Units=1/GPa)
#
#
# Indices 1 2 3 4 5 6 
#
# 1 0.021236 -0.010420 -0.005249 0.000000 0.000000 0.000000
# 2 -0.010420 0.021236 -0.005249 0.000000 0.000000 0.000000
# 3 -0.005249 -0.005249 0.017006 0.000000 0.000000 0.000000
# 4 0.000000 0.000000 0.000000 0.042497 0.000000 0.000000
# 5 0.000000 0.000000 0.000000 0.000000 0.042497 0.000000
# 6 0.000000 0.000000 0.000000 0.000000 0.000000 0.063310
#
#
# Mechanical properties :
#
#
# Convention : Reuss Voigt Hill
#
# Bulk Modulus (GPa) = 56.67863 56.76527 56.72195
# Shear Modulus (GPa) = 19.56962 20.29502 19.93232
#
# Velocity S-wave (km/s) = 3.50571 3.57010 3.53805
# Velocity P-wave (km/s) = 7.20984 7.25559 7.23275
#
# Compressibility (1/GPa) = 0.01764333
#
# Stress axis : x y z
#
# Youngs Moduli (GPa) = 47.09067 47.09067 58.80215
#
# Poissons Ratio (x) = 0.49067 0.30864
# Poissons Ratio (y) = 0.49067 0.30864
# Poissons Ratio (z) = 0.24717 0.24717
#
# Static dielectric constant tensor:
#      x y z
#    x 2.956580 0.000000 0.000000 
#    y 0.000000 2.956580 0.000000 
#    z 0.000000 0.000000 3.126280 
# 
# 
# High freq. dielectric constant tensor:
#      x y z
#    x 1.584580 0.000000 0.000000 
#    y 0.000000 1.584580 0.000000 
#    z 0.000000 0.000000 1.629400 
# 
# From -- ./inp_files/1178.got.cif
#   From: 2010.06.25/outbox.cif.g09.slc.cpg/sg190_1_cif.got.tgz:1178.got - 2010.06.28 13:08:06.
