data_PCOD8327930
_publ_section_title
;
Structure prediction by ZEFSAII (Michael W. Deem and Ramdas Pophale) SiO2 
 PCOD8327930
Probable space group: P -6 2 C
;
_chemical_formula_sum "Si O2"
_cell_formula_units_Z 58
_cell_length_a 14.740166
_cell_length_b 14.740166
_cell_length_c 15.449163
_cell_angle_alpha 90.000000
_cell_angle_beta 90.000000
_cell_angle_gamma 120.000000
_cell_volume 2906.968568
_symmetry_space_group_name_H-M "P -6 2 C"
_symmetry_group_IT_number 190
_symmetry_cell_setting 'hexagonal'
loop_
_space_group_symop_operation_xyz
x,y,z
-x+y,-x,1/2-z
-y,x-y,z
x,y,1/2-z
-x+y,-x,z
-y,x-y,1/2-z
x-y,-y,-z
-x,-x+y,-z
y,x,-z
y,x,1/2+z
x-y,-y,1/2+z
-x,-x+y,1/2+z
loop_
_atom_site_type_symbol
_atom_site_label
_atom_site_fract_x
_atom_site_fract_y
_atom_site_fract_z
Si Si1 0.319309 0.493037 0.963727
Si Si2 0.203532 0.576797 0.250000
Si Si3 0.333335 0.666667 0.850283
Si Si4 0.141866 0.497322 0.067106
Si Si5 0.872104 0.978164 0.750000
Si Si6 0.255218 0.177577 0.075669
Si Si7 0.719957 0.719957 0.500000
O O1 0.317207 0.555174 0.879724
O O2 0.276156 0.373545 0.933078
O O3 0.254176 0.512064 0.039346
O O4 0.436893 0.545669 0.002497
O O5 0.252047 0.702354 0.250000
O O6 0.135141 0.529732 0.164666
O O7 0.333334 0.666668 0.750000
O O8 0.062461 0.374733 0.065315
O O9 0.800702 0.969388 0.832647
O O10 0.908282 0.889386 0.750000
O O11 0.185331 0.185331 0.000000
O O12 0.256211 0.071058 0.062639
#
# Coordination Sequence:
#
# PCOD8327930 Si02
#       7
#    12   6   4  12   6  12   6
#     4   9  19  35  59  88 129 171 203 251 301 383
#     4  10  16  29  63  95 124 165 215 242 302 381
#     4   9  18  33  60  91 125 172 207 231 306 375
#     4  10  18  36  57  93 131 169 207 248 313 379
#     4  10  24  43  69  93 118 155 213 292 344 401
#     4  11  23  42  66  90 122 165 218 269 331 390
#     4  10  24  38  64  90 126 172 208 266 326 386
#
# _framework density 19.952057
#
# number of rings (size 3 to 8) (size 9 to 14) (size 15 to 20)
#    0.414    1.655    2.069    1.655    2.897    0.828 
#    0.621    5.172    2.276    0.000    0.000    0.000 
#    0.000    0.000    0.000    0.000    0.000    0.000 
#
# Total GULP energy -718842.262114 kJ/mol
# GULP energy per Si atom -12393.832105 kJ/mol
# Density = 1.990664 g / cm^3
# Si number density = 19.952057 Si / 1000 Ang^3
#
#
#
# Elastic Constant Matrix: (Units=GPa)
#
#
# Indices 1 2 3 4 5 6 
#
# 1 79.5248 35.1405 41.7992 0.0000 0.0000 0.0001
# 2 35.1405 79.5246 41.7985 0.0000 0.0000 0.0000
# 3 41.7992 41.7985 156.5100 0.0000 -0.0001 0.0000
# 4 0.0000 0.0000 0.0000 20.9994 0.0001 0.0000
# 5 0.0000 0.0000 -0.0001 0.0001 20.9993 0.0000
# 6 0.0001 0.0000 0.0000 0.0000 0.0000 22.1922
#
#
#
# Elastic Compliance Matrix: (Units=1/GPa)
#
#
# Indices 1 2 3 4 5 6 
#
# 1 0.016680 -0.005850 -0.002892 0.000000 0.000000 0.000000
# 2 -0.005850 0.016680 -0.002892 0.000000 0.000000 0.000000
# 3 -0.002892 -0.002892 0.007934 0.000000 0.000000 0.000000
# 4 0.000000 0.000000 0.000000 0.047620 0.000000 0.000000
# 5 0.000000 0.000000 0.000000 0.000000 0.047621 0.000000
# 6 0.000000 0.000000 0.000000 0.000000 0.000000 0.045061
#
#
# Mechanical properties :
#
#
# Convention : Reuss Voigt Hill
#
# Bulk Modulus (GPa) = 55.47995 61.44841 58.46418
# Shear Modulus (GPa) = 23.71078 25.95958 24.83518
#
# Velocity S-wave (km/s) = 3.45104 3.61099 3.53192
# Velocity P-wave (km/s) = 6.61412 6.94626 6.78222
#
# Compressibility (1/GPa) = 0.01802453
#
# Stress axis : x y z
#
# Youngs Moduli (GPa) = 59.95154 59.95171 126.03617
#
# Poissons Ratio (x) = 0.35074 0.36454
# Poissons Ratio (y) = 0.35074 0.36452
# Poissons Ratio (z) = 0.17340 0.17339
#
# Static dielectric constant tensor:
#      x y z
#    x 3.680240 0.000000 0.000000 
#    y 0.000000 3.680230 0.000000 
#    z 0.000000 0.000000 3.344110 
# 
# 
# High freq. dielectric constant tensor:
#      x y z
#    x 1.774710 0.000000 0.000000 
#    y 0.000000 1.774710 0.000000 
#    z 0.000000 0.000000 1.767130 
# 
# From -- ./inp_files/2903.got.cif
#   From: 2010.06.25/outbox.cif.g09.slc.cpg/sg190_2_cif.got.tgz:2903.got - 2010.06.28 13:08:06.
