data_PCOD8327187
_publ_section_title
;
Structure prediction by ZEFSAII (Michael W. Deem and Ramdas Pophale) SiO2 
 PCOD8327187
Probable space group: P -6 M 2
;
_chemical_formula_sum "Si O2"
_cell_formula_units_Z 60
_cell_length_a 20.881806
_cell_length_b 20.881806
_cell_length_c 8.891956
_cell_angle_alpha 90.000000
_cell_angle_beta 90.000000
_cell_angle_gamma 120.000000
_cell_volume 3357.871327
_symmetry_space_group_name_H-M "P -6 M 2"
_symmetry_group_IT_number 187
_symmetry_cell_setting 'hexagonal'
loop_
_space_group_symop_operation_xyz
x,y,z
-x+y,-x,-z
-y,x-y,z
x,y,-z
-x+y,-x,z
-y,x-y,-z
-y,-x,-z
-x+y,y,-z
x,x-y,-z
-x+y,y,z
x,x-y,z
-y,-x,z
loop_
_atom_site_type_symbol
_atom_site_label
_atom_site_fract_x
_atom_site_fract_y
_atom_site_fract_z
Si Si1 0.245008 0.122504 0.678427
Si Si2 0.482193 0.373176 0.324829
Si Si3 0.549826 0.596075 0.826561
Si Si4 0.413825 0.206913 0.677762
Si Si5 0.033992 0.215410 0.175909
Si Si6 0.111263 0.742552 0.671986
O O1 0.245496 0.122748 0.500000
O O2 0.329632 0.164816 0.741428
O O3 0.199492 0.160450 0.735183
O O4 0.462569 0.372476 0.500000
O O5 0.569514 0.430487 0.296645
O O6 0.432603 0.396340 0.229688
O O7 0.460350 0.291697 0.266881
O O8 0.465058 0.534943 0.800073
O O9 0.563115 0.666549 0.730665
O O10 0.567086 0.617734 0.000000
O O11 0.409354 0.204677 0.500000
O O12 0.097847 0.195694 0.214679
O O13 0.059286 0.298099 0.227246
O O14 0.016778 0.208296 0.000000
O O15 0.084953 0.735422 0.500000
O O16 0.196626 0.803375 0.690227
#
# Coordination Sequence:
#
# PCOD8327187 Si02
#       6
#     6  12  12   6  12  12
#     4  11  21  33  53  77 105 139 177 223 267 317
#     4   9  17  31  50  71  99 135 173 214 260 309
#     4  10  20  33  51  76 104 133 168 210 254 305
#     4   9  18  31  47  73 103 131 169 215 261 305
#     4  10  21  37  55  76 104 137 174 218 267 319
#     4  10  20  34  54  79 105 133 167 209 256 309
#
# _framework density 17.868462999999998
#
# number of rings (size 3 to 8) (size 9 to 14) (size 15 to 20)
#    0.000    2.200    0.000    3.300    0.000    5.200 
#    1.200    1.500    0.000    0.400    0.000    0.000 
#    0.000    0.000    0.000    0.000    0.000    0.000 
#
# Total GULP energy -744097.361887 kJ/mol
# GULP energy per Si atom -12401.622698 kJ/mol
# Density = 1.782779 g / cm^3
# Si number density = 17.868463 Si / 1000 Ang^3
#
#
#
# Elastic Constant Matrix: (Units=GPa)
#
#
# Indices 1 2 3 4 5 6 
#
# 1 111.2847 65.4164 45.0128 0.0000 0.0000 0.0000
# 2 65.4164 111.2847 45.0128 0.0000 0.0000 0.0000
# 3 45.0128 45.0128 68.6363 0.0000 0.0000 0.0000
# 4 0.0000 0.0000 0.0000 26.7718 0.0000 0.0000
# 5 0.0000 0.0000 0.0000 0.0000 26.7718 0.0000
# 6 0.0000 0.0000 0.0000 0.0000 0.0000 22.9342
#
#
#
# Elastic Compliance Matrix: (Units=1/GPa)
#
#
# Indices 1 2 3 4 5 6 
#
# 1 0.015150 -0.006651 -0.005574 0.000000 0.000000 0.000000
# 2 -0.006651 0.015150 -0.005574 0.000000 0.000000 0.000000
# 3 -0.005574 -0.005574 0.021880 0.000000 0.000000 0.000000
# 4 0.000000 0.000000 0.000000 0.037353 0.000000 0.000000
# 5 0.000000 0.000000 0.000000 0.000000 0.037353 0.000000
# 6 0.000000 0.000000 0.000000 0.000000 0.000000 0.043603
#
#
# Mechanical properties :
#
#
# Convention : Reuss Voigt Hill
#
# Bulk Modulus (GPa) = 60.30208 66.89885 63.60047
# Shear Modulus (GPa) = 23.62784 24.34647 23.98716
#
# Velocity S-wave (km/s) = 3.64032 3.69526 3.66789
# Velocity P-wave (km/s) = 7.17567 7.46509 7.32181
#
# Compressibility (1/GPa) = 0.01658317
#
# Stress axis : x y z
#
# Youngs Moduli (GPa) = 66.00543 66.00543 45.70322
#
# Poissons Ratio (x) = 0.43902 0.25474
# Poissons Ratio (y) = 0.43902 0.25474
# Poissons Ratio (z) = 0.36790 0.36790
#
# Static dielectric constant tensor:
#      x y z
#    x 3.382910 0.000000 0.000000 
#    y 0.000000 3.382910 0.000000 
#    z 0.000000 0.000000 3.322840 
# 
# 
# High freq. dielectric constant tensor:
#      x y z
#    x 1.688150 0.000000 0.000000 
#    y 0.000000 1.688150 0.000000 
#    z 0.000000 0.000000 1.693720 
# 
# From -- ./inp_files/657.got.cif
#   From: 2010.03.12/outbox.cif.g09.slc.cpg/sg187_1_cif.got.tgz:657.got - 2010.04.01 11:58:23.
