data_PCOD8327281
_publ_section_title
;
Structure prediction by ZEFSAII (Michael W. Deem and Ramdas Pophale) SiO2 
 PCOD8327281
Probable space group: P -6 M 2
;
_chemical_formula_sum "Si O2"
_cell_formula_units_Z 60
_cell_length_a 13.483161
_cell_length_b 13.483161
_cell_length_c 25.250776
_cell_angle_alpha 90.000000
_cell_angle_beta 90.000000
_cell_angle_gamma 120.000000
_cell_volume 3975.472941
_symmetry_space_group_name_H-M "P -6 M 2"
_symmetry_group_IT_number 187
_symmetry_cell_setting 'hexagonal'
loop_
_space_group_symop_operation_xyz
x,y,z
-x+y,-x,-z
-y,x-y,z
x,y,-z
-x+y,-x,z
-y,x-y,-z
-y,-x,-z
-x+y,y,-z
x,x-y,-z
-x+y,y,z
x,x-y,z
-y,-x,z
loop_
_atom_site_type_symbol
_atom_site_label
_atom_site_fract_x
_atom_site_fract_y
_atom_site_fract_z
Si Si1 0.107495 0.668767 0.555982
Si Si2 0.438141 0.332896 0.868311
Si Si3 0.333002 0.895082 0.938898
Si Si4 0.331658 0.432307 0.670998
Si Si5 0.666895 0.561999 0.745856
O O1 0.057888 0.691230 0.500000
O O2 0.085733 0.542867 0.552135
O O3 0.242991 0.757010 0.558896
O O4 0.055313 0.679919 0.612095
O O5 0.430529 0.215265 0.885264
O O6 0.566279 0.433721 0.880274
O O7 0.347127 0.347356 0.903352
O O8 0.406365 0.332276 0.807093
O O9 0.433712 0.867424 0.927198
O O10 0.215290 0.784711 0.922378
O O11 0.332894 0.927601 0.000000
O O12 0.217463 0.434926 0.686747
O O13 0.438206 0.561795 0.672687
O O14 0.347462 0.351156 0.712227
O O15 0.785715 0.571430 0.728794
O O16 0.566985 0.433016 0.734166
#
# Coordination Sequence:
#
# PCOD8327281 Si02
#       5
#    12  12  12  12  12
#     4   8  12  18  30  50  77 107 134 158 189 235
#     4   9  17  29  45  64  84 106 135 173 213 246
#     4   9  17  29  45  65  89 116 142 165 192 233
#     4   9  16  25  39  61  87 110 131 161 204 250
#     4   9  17  29  44  60  79 107 142 175 204 237
#
# _framework density 15.092544
#
# number of rings (size 3 to 8) (size 9 to 14) (size 15 to 20)
#    0.000    3.200    0.000    1.000    0.000    6.000 
#    0.000    0.000    0.000    5.000    0.000    0.000 
#    0.000    1.600    0.000    0.000    0.000    0.000 
#
# Total GULP energy -743334.582617 kJ/mol
# GULP energy per Si atom -12388.909710 kJ/mol
# Density = 1.505819 g / cm^3
# Si number density = 15.092544 Si / 1000 Ang^3
#
#
#
# Elastic Constant Matrix: (Units=GPa)
#
#
# Indices 1 2 3 4 5 6 
#
# 1 85.6616 43.8007 58.8686 0.0000 0.0000 0.0000
# 2 43.8007 85.6616 58.8686 0.0000 0.0000 0.0000
# 3 58.8686 58.8686 92.4247 0.0000 0.0000 0.0000
# 4 0.0000 0.0000 0.0000 20.0148 0.0000 0.0000
# 5 0.0000 0.0000 0.0000 0.0000 20.0148 0.0000
# 6 0.0000 0.0000 0.0000 0.0000 0.0000 20.9304
#
#
#
# Elastic Compliance Matrix: (Units=1/GPa)
#
#
# Indices 1 2 3 4 5 6 
#
# 1 0.021123 -0.002765 -0.011693 0.000000 0.000000 0.000000
# 2 -0.002765 0.021123 -0.011693 0.000000 0.000000 0.000000
# 3 -0.011693 -0.011693 0.025715 0.000000 0.000000 0.000000
# 4 0.000000 0.000000 0.000000 0.049963 0.000000 0.000000
# 5 0.000000 0.000000 0.000000 0.000000 0.049963 0.000000
# 6 0.000000 0.000000 0.000000 0.000000 0.000000 0.047777
#
#
# Mechanical properties :
#
#
# Convention : Reuss Voigt Hill
#
# Bulk Modulus (GPa) = 63.85924 65.20263 64.53093
# Shear Modulus (GPa) = 18.30244 19.00601 18.65422
#
# Velocity S-wave (km/s) = 3.48613 3.55251 3.51948
# Velocity P-wave (km/s) = 7.65557 7.75389 7.70489
#
# Compressibility (1/GPa) = 0.01565944
#
# Stress axis : x y z
#
# Youngs Moduli (GPa) = 47.34070 47.34070 38.88779
#
# Poissons Ratio (x) = 0.13091 0.45472
# Poissons Ratio (y) = 0.13091 0.45472
# Poissons Ratio (z) = 0.55356 0.55356
#
# Static dielectric constant tensor:
#      x y z
#    x 2.693070 0.000000 0.000000 
#    y 0.000000 2.693070 0.000000 
#    z 0.000000 0.000000 3.304870 
# 
# 
# High freq. dielectric constant tensor:
#      x y z
#    x 1.548930 0.000000 0.000000 
#    y 0.000000 1.548930 0.000000 
#    z 0.000000 0.000000 1.595970 
# 
# From -- ./inp_files/3487.got.cif
#   From: 2010.03.12/outbox.cif.g09.slc.cpg/sg187_2_cif.got.tgz:3487.got - 2010.04.01 11:58:23.
