data_PCOD8327260
_publ_section_title
;
Structure prediction by ZEFSAII (Michael W. Deem and Ramdas Pophale) SiO2 
 PCOD8327260
Probable space group: P -6 M 2
;
_chemical_formula_sum "Si O2"
_cell_formula_units_Z 62
_cell_length_a 15.385573
_cell_length_b 15.385573
_cell_length_c 16.805732
_cell_angle_alpha 90.000000
_cell_angle_beta 90.000000
_cell_angle_gamma 120.000000
_cell_volume 3445.207751
_symmetry_space_group_name_H-M "P -6 M 2"
_symmetry_group_IT_number 187
_symmetry_cell_setting 'hexagonal'
loop_
_space_group_symop_operation_xyz
x,y,z
-x+y,-x,-z
-y,x-y,z
x,y,-z
-x+y,-x,z
-y,x-y,-z
-y,-x,-z
-x+y,y,-z
x,x-y,-z
-x+y,y,z
x,x-y,z
-y,-x,z
loop_
_atom_site_type_symbol
_atom_site_label
_atom_site_fract_x
_atom_site_fract_y
_atom_site_fract_z
Si Si1 0.666667 0.333334 0.093997
Si Si2 0.554333 0.445668 0.905672
Si Si3 0.062538 0.125076 0.593523
Si Si4 0.595076 0.986207 0.646303
Si Si5 0.195635 0.194052 0.912039
Si Si6 0.382515 0.090112 0.193687
Si Si7 0.175455 0.824546 0.404246
Si Si8 0.869964 0.335369 0.500000
O O1 0.778160 0.389080 0.125946
O O2 0.666667 0.333334 0.000000
O O3 0.618113 0.554990 0.868487
O O4 0.547245 0.452756 0.000000
O O5 0.070423 0.140845 0.500000
O O6 0.118053 0.236106 0.630380
O O7 0.113973 0.056987 0.617412
O O8 0.479935 0.959869 0.654032
O O9 0.594151 0.882169 0.630873
O O10 0.659095 0.045363 0.722252
O O11 0.652006 0.062180 0.575326
O O12 0.110888 0.221775 0.896405
O O13 0.271827 0.242813 0.840375
O O14 0.148565 0.074283 0.908985
O O15 0.244862 0.233186 0.000000
O O16 0.417836 0.208918 0.199690
O O17 0.178475 0.821526 0.500000
O O18 0.774378 0.225623 0.500000
O O19 0.833225 0.416613 0.500000
#
# Coordination Sequence:
#
# PCOD8327260 Si02
#       8
#     2   6   6  12  12  12   6   6
#     4   9  18  30  54  81 111 157 197 232 276 324
#     4  11  20  34  56  84 119 157 197 237 279 342
#     4   7  14  30  52  85 118 141 179 228 281 357
#     4  11  24  42  60  85 117 150 200 251 300 358
#     4   9  18  33  55  82 113 151 191 230 277 342
#     4  11  22  36  56  85 120 154 191 237 294 349
#     4  11  22  40  66  85 111 155 199 256 309 355
#     4  10  21  39  62  88 120 156 194 229 277 350
#
# _framework density 17.996010999999999
#
# number of rings (size 3 to 8) (size 9 to 14) (size 15 to 20)
#    0.194    1.742    2.903    1.452    1.355    3.097 
#    0.581    0.000    0.000    0.000    0.000    0.000 
#    0.000    0.000    1.161    0.000    0.000    0.000 
#
# Total GULP energy -768326.028215 kJ/mol
# GULP energy per Si atom -12392.355294 kJ/mol
# Density = 1.795505 g / cm^3
# Si number density = 17.996011 Si / 1000 Ang^3
#
#
#
# Elastic Constant Matrix: (Units=GPa)
#
#
# Indices 1 2 3 4 5 6 
#
# 1 104.5113 57.7225 51.9425 -0.0001 -0.0006 -0.0001
# 2 57.7225 104.5112 51.9425 0.0000 0.0005 0.0000
# 3 51.9425 51.9425 126.3067 0.0001 0.0000 0.0000
# 4 -0.0001 0.0000 0.0001 8.3590 0.0010 0.0006
# 5 -0.0006 0.0005 0.0000 0.0010 8.3579 0.0001
# 6 -0.0001 0.0000 0.0000 0.0006 0.0001 23.3944
#
#
#
# Elastic Compliance Matrix: (Units=1/GPa)
#
#
# Indices 1 2 3 4 5 6 
#
# 1 0.014870 -0.006503 -0.003441 0.000000 0.000001 0.000000
# 2 -0.006503 0.014870 -0.003441 0.000000 -0.000001 0.000000
# 3 -0.003441 -0.003441 0.010747 0.000000 0.000000 0.000000
# 4 0.000000 0.000000 0.000000 0.119631 -0.000015 -0.000003
# 5 0.000001 -0.000001 0.000000 -0.000015 0.119647 0.000000
# 6 0.000000 0.000000 0.000000 -0.000003 0.000000 0.042745
#
#
# Mechanical properties :
#
#
# Convention : Reuss Voigt Hill
#
# Bulk Modulus (GPa) = 72.89636 73.17161 73.03398
# Shear Modulus (GPa) = 14.13016 19.60371 16.86694
#
# Velocity S-wave (km/s) = 2.80515 3.30409 3.06479
# Velocity P-wave (km/s) = 7.14750 7.43668 7.29352
#
# Compressibility (1/GPa) = 0.01371811
#
# Stress axis : x y z
#
# Youngs Moduli (GPa) = 67.24949 67.24940 93.04580
#
# Poissons Ratio (x) = 0.43730 0.32017
# Poissons Ratio (y) = 0.43730 0.32017
# Poissons Ratio (z) = 0.23141 0.23141
#
# Static dielectric constant tensor:
#      x y z
#    x 3.333800 0.000000 0.000000 
#    y 0.000000 3.333800 0.000000 
#    z 0.000000 0.000000 3.195920 
# 
# 
# High freq. dielectric constant tensor:
#      x y z
#    x 1.689790 0.000000 0.000000 
#    y 0.000000 1.689790 0.000000 
#    z 0.000000 0.000000 1.699390 
# 
# From -- ./inp_files/3032.got.cif
#   From: 2010.03.12/outbox.cif.g09.slc.cpg/sg187_2_cif.got.tgz:3032.got - 2010.04.01 11:58:23.
