data_PCOD8327720
_publ_section_title
;
Structure prediction by ZEFSAII (Michael W. Deem and Ramdas Pophale) SiO2 
 PCOD8327720
Probable space group: P -6 2 M
;
_chemical_formula_sum "Si O2"
_cell_formula_units_Z 78
_cell_length_a 24.432654
_cell_length_b 24.432654
_cell_length_c 8.203569
_cell_angle_alpha 90.000000
_cell_angle_beta 90.000000
_cell_angle_gamma 120.000000
_cell_volume 4241.063320
_symmetry_space_group_name_H-M "P -6 2 M"
_symmetry_group_IT_number 189
_symmetry_cell_setting 'hexagonal'
loop_
_space_group_symop_operation_xyz
x,y,z
-x+y,-x,-z
-y,x-y,z
x,y,-z
-x+y,-x,z
-y,x-y,-z
x-y,-y,-z
-x,-x+y,-z
y,x,-z
y,x,z
x-y,-y,z
-x,-x+y,z
loop_
_atom_site_type_symbol
_atom_site_label
_atom_site_fract_x
_atom_site_fract_y
_atom_site_fract_z
Si Si1 0.927819 0.417705 0.312100
Si Si2 0.376204 0.305295 0.692824
Si Si3 0.410481 0.685423 0.000000
Si Si4 0.189384 0.816344 0.682311
Si Si5 0.861194 0.487300 0.185846
Si Si6 0.070948 0.373054 0.187233
Si Si7 0.521384 0.263276 0.319402
O O1 0.919925 0.429542 0.500000
O O2 0.885792 0.437957 0.207004
O O3 0.905729 0.344009 0.286225
O O4 0.000000 0.459312 0.253453
O O5 0.386590 0.306328 0.500000
O O6 0.322201 0.322201 0.739351
O O7 0.354987 0.234255 0.758209
O O8 0.442032 0.358239 0.768990
O O9 0.385563 0.736216 0.000000
O O10 0.447958 0.692839 0.168652
O O11 0.180206 0.833983 0.500000
O O12 0.227243 0.882085 0.781004
O O13 0.232584 0.784737 0.687939
O O14 0.800205 0.466100 0.298776
O O15 0.841422 0.487734 0.000000
O O16 0.000000 0.320321 0.241482
O O17 0.072211 0.390107 0.000000
O O18 0.547869 0.259087 0.500000
#
# Coordination Sequence:
#
# PCOD8327720 Si02
#       7
#    12  12   6  12  12  12  12
#     4  10  20  33  48  68  95 126 162 206 256 308
#     4   9  18  33  52  76 106 137 171 209 252 310
#     4  10  24  40  54  74  96 122 169 216 270 314
#     4   9  19  34  55  78  99 135 171 202 254 310
#     4  11  20  31  50  74 102 132 166 210 258 312
#     4  10  21  35  51  74 101 130 167 213 261 309
#     4  10  21  39  57  75  99 129 170 212 262 323
#
# _framework density 18.391613
#
# number of rings (size 3 to 8) (size 9 to 14) (size 15 to 20)
#    0.154    2.000    0.769    3.692    1.077    6.462 
#    0.000    1.538    0.000    0.000    0.000    0.000 
#    0.000    0.000    0.000    0.462    0.000    7.077 
#
# Total GULP energy -966864.102557 kJ/mol
# GULP energy per Si atom -12395.693623 kJ/mol
# Density = 1.834975 g / cm^3
# Si number density = 18.391613 Si / 1000 Ang^3
#
#
#
# Elastic Constant Matrix: (Units=GPa)
#
#
# Indices 1 2 3 4 5 6 
#
# 1 78.5883 32.8998 16.3578 0.0000 0.0000 0.0000
# 2 32.8998 78.5883 16.3578 0.0000 0.0000 0.0000
# 3 16.3578 16.3578 87.2293 0.0000 0.0000 0.0000
# 4 0.0000 0.0000 0.0000 18.4101 0.0000 0.0000
# 5 0.0000 0.0000 0.0000 0.0000 18.4101 0.0000
# 6 0.0000 0.0000 0.0000 0.0000 0.0000 22.8443
#
#
#
# Elastic Compliance Matrix: (Units=1/GPa)
#
#
# Indices 1 2 3 4 5 6 
#
# 1 0.015690 -0.006198 -0.001780 0.000000 0.000000 0.000000
# 2 -0.006198 0.015690 -0.001780 0.000000 0.000000 0.000000
# 3 -0.001780 -0.001780 0.012132 0.000000 0.000000 0.000000
# 4 0.000000 0.000000 0.000000 0.054318 0.000000 0.000000
# 5 0.000000 0.000000 0.000000 0.000000 0.054318 0.000000
# 6 0.000000 0.000000 0.000000 0.000000 0.000000 0.043775
#
#
# Mechanical properties :
#
#
# Convention : Reuss Voigt Hill
#
# Bulk Modulus (GPa) = 41.67447 41.73738 41.70593
# Shear Modulus (GPa) = 22.37780 23.85224 23.11502
#
# Velocity S-wave (km/s) = 3.49196 3.60517 3.54902
# Velocity P-wave (km/s) = 6.24236 6.33029 6.28648
#
# Compressibility (1/GPa) = 0.02399550
#
# Stress axis : x y z
#
# Youngs Moduli (GPa) = 63.73642 63.73642 82.42921
#
# Poissons Ratio (x) = 0.39502 0.14672
# Poissons Ratio (y) = 0.39502 0.14672
# Poissons Ratio (z) = 0.11345 0.11345
#
# Static dielectric constant tensor:
#      x y z
#    x 3.327340 0.000000 0.000000 
#    y 0.000000 3.327340 0.000000 
#    z 0.000000 0.000000 3.456840 
# 
# 
# High freq. dielectric constant tensor:
#      x y z
#    x 1.684690 0.000000 0.000000 
#    y 0.000000 1.684690 0.000000 
#    z 0.000000 0.000000 1.720230 
# 
# From -- ./inp_files/1424.got.cif
#   From: 2010.03.12/outbox.cif.g09.slc.cpg/sg189_1_cif.got.tgz:1424.got - 2010.04.01 12:03:36.
