data_PCOD8327399
_publ_section_title
;
Structure prediction by ZEFSAII (Michael W. Deem and Ramdas Pophale) SiO2 
 PCOD8327399
Probable space group: P -6 C 2
;
_chemical_formula_sum "Si O2"
_cell_formula_units_Z 64
_cell_length_a 15.837947
_cell_length_b 15.837947
_cell_length_c 17.043758
_cell_angle_alpha 90.000000
_cell_angle_beta 90.000000
_cell_angle_gamma 120.000000
_cell_volume 3702.488868
_symmetry_space_group_name_H-M "P -6 C 2"
_symmetry_group_IT_number 188
_symmetry_cell_setting 'hexagonal'
loop_
_space_group_symop_operation_xyz
x,y,z
-x+y,-x,1/2-z
-y,x-y,z
x,y,1/2-z
-x+y,-x,z
-y,x-y,1/2-z
-y,-x,-z
-x+y,y,-z
x,x-y,-z
-x+y,y,1/2+z
x,x-y,1/2+z
-y,-x,1/2+z
loop_
_atom_site_type_symbol
_atom_site_label
_atom_site_fract_x
_atom_site_fract_y
_atom_site_fract_z
Si Si1 0.690100 0.178244 0.339164
Si Si2 0.784803 0.879263 0.339766
Si Si3 0.635022 0.481433 0.421941
Si Si4 0.742951 0.039288 0.926488
Si Si5 0.000000 0.000000 0.843426
Si Si6 0.778037 0.717036 0.606812
O O1 0.724328 0.214920 0.250000
O O2 0.576440 0.144616 0.347873
O O3 0.749569 0.260432 0.406052
O O4 0.696520 0.082673 0.359074
O O5 0.776343 0.848002 0.250000
O O6 0.714436 0.780168 0.388244
O O7 0.893809 0.921232 0.374655
O O8 0.761161 0.966197 0.346601
O O9 0.579345 0.420656 0.500000
O O10 0.654276 0.591951 0.421511
O O11 0.839304 0.119055 0.879335
O O12 0.765828 0.034757 0.016261
O O13 0.000000 0.000000 0.750000
#
# Coordination Sequence:
#
# PCOD8327399 Si02
#       6
#    12  12  12  12   4  12
#     4  11  22  35  55  80 106 140 186 232 277 331
#     4  11  20  33  52  76 110 143 180 223 266 318
#     4  11  21  38  55  74 106 145 184 230 279 326
#     4  10  21  34  53  76 102 145 189 225 263 328
#     4   9  18  30  46  71 103 144 172 203 256 306
#     4  10  20  35  50  75 107 144 180 222 275 320
#
# _framework density 17.285668999999999
#
# number of rings (size 3 to 8) (size 9 to 14) (size 15 to 20)
#    0.000    1.500    3.750    2.625    0.000    3.750 
#    0.000    0.000    0.000    0.000    0.000    0.000 
#    1.875    0.375    1.125    0.000    0.000    0.000 
#
# Total GULP energy -793144.274986 kJ/mol
# GULP energy per Si atom -12392.879297 kJ/mol
# Density = 1.724633 g / cm^3
# Si number density = 17.285669 Si / 1000 Ang^3
#
#
#
# Elastic Constant Matrix: (Units=GPa)
#
#
# Indices 1 2 3 4 5 6 
#
# 1 89.1517 42.4572 33.9494 0.0000 0.0000 0.0000
# 2 42.4572 89.1517 33.9494 0.0000 0.0000 0.0000
# 3 33.9494 33.9494 74.6870 0.0000 0.0000 0.0000
# 4 0.0000 0.0000 0.0000 25.3143 0.0000 0.0000
# 5 0.0000 0.0000 0.0000 0.0000 25.3143 0.0000
# 6 0.0000 0.0000 0.0000 0.0000 0.0000 23.3472
#
#
#
# Elastic Compliance Matrix: (Units=1/GPa)
#
#
# Indices 1 2 3 4 5 6 
#
# 1 0.015671 -0.005745 -0.004512 0.000000 0.000000 0.000000
# 2 -0.005745 0.015671 -0.004512 0.000000 0.000000 0.000000
# 3 -0.004512 -0.004512 0.017491 0.000000 0.000000 0.000000
# 4 0.000000 0.000000 0.000000 0.039503 0.000000 0.000000
# 5 0.000000 0.000000 0.000000 0.000000 0.039503 0.000000
# 6 0.000000 0.000000 0.000000 0.000000 0.000000 0.042832
#
#
# Mechanical properties :
#
#
# Convention : Reuss Voigt Hill
#
# Bulk Modulus (GPa) = 51.82584 52.63360 52.22972
# Shear Modulus (GPa) = 24.19662 24.30415 24.25038
#
# Velocity S-wave (km/s) = 3.74546 3.75377 3.74962
# Velocity P-wave (km/s) = 6.98224 7.02162 7.00196
#
# Compressibility (1/GPa) = 0.01929539
#
# Stress axis : x y z
#
# Youngs Moduli (GPa) = 63.81246 63.81246 57.17204
#
# Poissons Ratio (x) = 0.36660 0.25796
# Poissons Ratio (y) = 0.36660 0.25796
# Poissons Ratio (z) = 0.28792 0.28792
#
# Static dielectric constant tensor:
#      x y z
#    x 3.193630 0.000000 0.000000 
#    y 0.000000 3.193630 0.000000 
#    z 0.000000 0.000000 3.208650 
# 
# 
# High freq. dielectric constant tensor:
#      x y z
#    x 1.642210 0.000000 0.000000 
#    y 0.000000 1.642210 0.000000 
#    z 0.000000 0.000000 1.678070 
# 
# From -- ./inp_files/3082.got.cif
#   From: 2010.03.12/outbox.cif.g09.slc.cpg/sg188_2_cif.got.tgz:3082.got - 2010.04.01 12:01:06.
