data_PCOD8327262
_publ_section_title
;
Structure prediction by ZEFSAII (Michael W. Deem and Ramdas Pophale) SiO2 
 PCOD8327262
Probable space group: P -6 M 2
;
_chemical_formula_sum "Si O2"
_cell_formula_units_Z 62
_cell_length_a 21.562391
_cell_length_b 21.562391
_cell_length_c 7.818826
_cell_angle_alpha 90.000000
_cell_angle_beta 90.000000
_cell_angle_gamma 120.000000
_cell_volume 3148.226819
_symmetry_space_group_name_H-M "P -6 M 2"
_symmetry_group_IT_number 187
_symmetry_cell_setting 'hexagonal'
loop_
_space_group_symop_operation_xyz
x,y,z
-x+y,-x,-z
-y,x-y,z
x,y,-z
-x+y,-x,z
-y,x-y,-z
-y,-x,-z
-x+y,y,-z
x,x-y,-z
-x+y,y,z
x,x-y,z
-y,-x,z
loop_
_atom_site_type_symbol
_atom_site_label
_atom_site_fract_x
_atom_site_fract_y
_atom_site_fract_z
Si Si1 0.552260 0.966169 0.296667
Si Si2 0.666667 0.333334 0.295409
Si Si3 0.991005 0.232371 0.695136
Si Si4 0.997550 0.141515 0.000000
Si Si5 0.747717 0.252284 0.299953
Si Si6 0.697455 0.603224 0.806015
Si Si7 0.618000 0.876221 0.701889
O O1 0.558027 0.972248 0.500000
O O2 0.475862 0.951724 0.229526
O O3 0.562595 0.900548 0.230473
O O4 0.613707 0.040088 0.220830
O O5 0.666667 0.333334 0.500000
O O6 0.707458 0.292543 0.222946
O O7 0.994514 0.208255 0.500000
O O8 0.927600 0.252114 0.699210
O O9 0.064504 0.301904 0.752468
O O10 0.979914 0.171462 0.828285
O O11 0.943598 0.056403 0.000000
O O12 0.078797 0.157593 0.000000
O O13 0.744201 0.255800 0.500000
O O14 0.829477 0.291630 0.242839
O O15 0.719665 0.625542 0.000000
O O16 0.612102 0.869054 0.500000
O O17 0.600118 0.800059 0.784249
#
# Coordination Sequence:
#
# PCOD8327262 Si02
#       7
#    12   2  12   6   6  12  12
#     4   9  18  32  51  77 112 154 195 236 293 358
#     4   9  24  45  61  83 115 171 229 257 304 385
#     4  10  21  40  64  92 120 153 197 252 311 358
#     4  12  27  44  64  90 125 163 201 241 289 361
#     4  11  23  41  63  85 115 157 207 254 303 369
#     4  11  22  37  58  89 117 148 192 252 310 359
#     4   8  14  28  53  81 108 143 190 240 292 350
#
# _framework density 19.693625000000001
#
# number of rings (size 3 to 8) (size 9 to 14) (size 15 to 20)
#    0.000    2.129    0.968    3.871    2.710    1.935 
#    0.000    1.452    0.000    1.548    0.000    2.710 
#    0.000    0.000    0.000    0.581    0.000    3.097 
#
# Total GULP energy -768571.152809 kJ/mol
# GULP energy per Si atom -12396.308916 kJ/mol
# Density = 1.964880 g / cm^3
# Si number density = 19.693625 Si / 1000 Ang^3
#
#
#
# Elastic Constant Matrix: (Units=GPa)
#
#
# Indices 1 2 3 4 5 6 
#
# 1 137.6751 78.5557 20.7598 0.0000 -0.0004 0.0000
# 2 78.5557 137.6751 20.7598 -0.0002 0.0003 0.0001
# 3 20.7598 20.7598 74.0399 -0.0001 -0.0001 0.0000
# 4 0.0000 -0.0002 -0.0001 4.5880 0.0000 0.0003
# 5 -0.0004 0.0003 -0.0001 0.0000 4.5880 -0.0001
# 6 0.0000 0.0001 0.0000 0.0003 -0.0001 29.5596
#
#
#
# Elastic Compliance Matrix: (Units=1/GPa)
#
#
# Indices 1 2 3 4 5 6 
#
# 1 0.010901 -0.006014 -0.001370 0.000000 0.000001 0.000000
# 2 -0.006014 0.010901 -0.001370 0.000000 -0.000001 0.000000
# 3 -0.001370 -0.001370 0.014275 0.000000 0.000000 0.000000
# 4 0.000000 0.000000 0.000000 0.217961 0.000001 -0.000002
# 5 0.000001 -0.000001 0.000000 0.000001 0.217960 0.000000
# 6 0.000000 0.000000 0.000000 -0.000002 0.000000 0.033830
#
#
# Mechanical properties :
#
#
# Convention : Reuss Voigt Hill
#
# Bulk Modulus (GPa) = 53.85463 65.50454 59.67958
# Shear Modulus (GPa) = 9.44239 23.03478 16.23858
#
# Velocity S-wave (km/s) = 2.19204 3.42373 2.87463
# Velocity P-wave (km/s) = 5.81484 6.99738 6.43334
#
# Compressibility (1/GPa) = 0.01856851
#
# Stress axis : x y z
#
# Youngs Moduli (GPa) = 91.73146 91.73149 70.05368
#
# Poissons Ratio (x) = 0.55163 0.09601
# Poissons Ratio (y) = 0.55163 0.09601
# Poissons Ratio (z) = 0.12572 0.12572
#
# Static dielectric constant tensor:
#      x y z
#    x 3.804650 0.000000 0.000000 
#    y 0.000000 3.804650 0.000000 
#    z 0.000000 0.000000 3.485960 
# 
# 
# High freq. dielectric constant tensor:
#      x y z
#    x 1.760660 0.000000 0.000000 
#    y 0.000000 1.760660 0.000000 
#    z 0.000000 0.000000 1.760970 
# 
# From -- ./inp_files/724.got.cif
#   From: 2010.03.12/outbox.cif.g09.slc.cpg/sg187_1_cif.got.tgz:724.got - 2010.04.01 11:58:23.
