data_PCOD8327156
_publ_section_title
;
Structure prediction by ZEFSAII (Michael W. Deem and Ramdas Pophale) SiO2 
 PCOD8327156
Probable space group: P -6 M 2
;
_chemical_formula_sum "Si O2"
_cell_formula_units_Z 66
_cell_length_a 12.836048
_cell_length_b 12.836048
_cell_length_c 28.535305
_cell_angle_alpha 90.000000
_cell_angle_beta 90.000000
_cell_angle_gamma 120.000000
_cell_volume 4071.700408
_symmetry_space_group_name_H-M "P -6 M 2"
_symmetry_group_IT_number 187
_symmetry_cell_setting 'hexagonal'
loop_
_space_group_symop_operation_xyz
x,y,z
-x+y,-x,-z
-y,x-y,z
x,y,-z
-x+y,-x,z
-y,x-y,-z
-y,-x,-z
-x+y,y,-z
x,x-y,-z
-x+y,y,z
x,x-y,z
-y,-x,z
loop_
_atom_site_type_symbol
_atom_site_label
_atom_site_fract_x
_atom_site_fract_y
_atom_site_fract_z
Si Si1 0.422442 0.089027 0.584948
Si Si2 0.756562 0.754257 0.500000
Si Si3 0.002252 0.760605 0.049566
Si Si4 0.001279 0.756322 0.150665
Si Si5 0.333115 0.425626 0.771930
Si Si6 0.573321 0.906345 0.334149
O O1 0.546532 0.093064 0.572564
O O2 0.449272 0.224636 0.589310
O O3 0.325741 0.015878 0.545043
O O4 0.366391 0.020654 0.633489
O O5 0.743543 0.871772 0.500000
O O6 0.897169 0.794337 0.500000
O O7 0.872396 0.744792 0.047754
O O8 0.013859 0.704771 0.099256
O O9 0.020508 0.704798 0.000000
O O10 0.098337 0.901664 0.051000
O O11 0.110217 0.889784 0.159571
O O12 0.998358 0.670152 0.191911
O O13 0.880387 0.760774 0.153186
O O14 0.226327 0.452653 0.781951
O O15 0.454463 0.545538 0.782102
O O16 0.326283 0.379748 0.718781
O O17 0.432807 0.865614 0.337995
O O18 0.587440 0.793720 0.349944
#
# Coordination Sequence:
#
# PCOD8327156 Si02
#       6
#    12   6  12  12  12  12
#     4  10  20  33  50  71  96 125 153 181 215 261
#     4  10  20  34  52  72  94 120 150 184 218 252
#     4   8  12  18  30  50  76 104 132 162 200 249
#     4   9  16  25  39  60  85 110 134 166 211 262
#     4   9  17  29  45  63  83 111 148 186 220 255
#     4   9  17  30  48  68  88 112 146 189 231 264
#
# _framework density 16.209444999999999
#
# number of rings (size 3 to 8) (size 9 to 14) (size 15 to 20)
#    0.000    2.909    0.000    1.818    0.000    4.364 
#    0.000    0.909    0.000    3.818    0.000    0.000 
#    0.000    1.455    0.000    0.000    0.000    0.000 
#
# Total GULP energy -817652.174007 kJ/mol
# GULP energy per Si atom -12388.669303 kJ/mol
# Density = 1.617255 g / cm^3
# Si number density = 16.209445 Si / 1000 Ang^3
#
#
#
# Elastic Constant Matrix: (Units=GPa)
#
#
# Indices 1 2 3 4 5 6 
#
# 1 74.4218 37.2732 55.6955 0.0000 0.0000 0.0000
# 2 37.2732 74.4218 55.6955 0.0000 0.0000 0.0000
# 3 55.6955 55.6955 138.3795 0.0000 0.0000 0.0000
# 4 0.0000 0.0000 0.0000 22.0546 0.0000 0.0000
# 5 0.0000 0.0000 0.0000 0.0000 22.0546 0.0000
# 6 0.0000 0.0000 0.0000 0.0000 0.0000 18.5743
#
#
#
# Elastic Compliance Matrix: (Units=1/GPa)
#
#
# Indices 1 2 3 4 5 6 
#
# 1 0.020938 -0.005981 -0.006020 0.000000 0.000000 0.000000
# 2 -0.005981 0.020938 -0.006020 0.000000 0.000000 0.000000
# 3 -0.006020 -0.006020 0.012072 0.000000 0.000000 0.000000
# 4 0.000000 0.000000 0.000000 0.045342 0.000000 0.000000
# 5 0.000000 0.000000 0.000000 0.000000 0.045342 0.000000
# 6 0.000000 0.000000 0.000000 0.000000 0.000000 0.053838
#
#
# Mechanical properties :
#
#
# Convention : Reuss Voigt Hill
#
# Bulk Modulus (GPa) = 55.84721 64.95015 60.39868
# Shear Modulus (GPa) = 20.79184 21.77397 21.28290
#
# Velocity S-wave (km/s) = 3.58536 3.66907 3.62746
# Velocity P-wave (km/s) = 7.18805 7.62271 7.40857
#
# Compressibility (1/GPa) = 0.01790600
#
# Stress axis : x y z
#
# Youngs Moduli (GPa) = 47.76106 47.76106 82.83567
#
# Poissons Ratio (x) = 0.28568 0.49864
# Poissons Ratio (y) = 0.28568 0.49864
# Poissons Ratio (z) = 0.28750 0.28750
#
# Static dielectric constant tensor:
#      x y z
#    x 2.843570 0.000000 0.000000 
#    y 0.000000 2.843570 0.000000 
#    z 0.000000 0.000000 3.667230 
# 
# 
# High freq. dielectric constant tensor:
#      x y z
#    x 1.598140 0.000000 0.000000 
#    y 0.000000 1.598140 0.000000 
#    z 0.000000 0.000000 1.649530 
# 
# From -- ./inp_files/4424.got.cif
#   From: 2010.03.12/outbox.cif.g09.slc.cpg/sg187_3_cif.got.tgz:4424.got - 2010.04.01 11:58:23.
