data_PCOD8327743
_publ_section_title
;
Structure prediction by ZEFSAII (Michael W. Deem and Ramdas Pophale) SiO2 
 PCOD8327743
Probable space group: P -6 2 M
;
_chemical_formula_sum "Si O2"
_cell_formula_units_Z 96
_cell_length_a 21.693461
_cell_length_b 21.693461
_cell_length_c 13.179999
_cell_angle_alpha 90.000000
_cell_angle_beta 90.000000
_cell_angle_gamma 120.000000
_cell_volume 5371.600428
_symmetry_space_group_name_H-M "P -6 2 M"
_symmetry_group_IT_number 189
_symmetry_cell_setting 'hexagonal'
loop_
_space_group_symop_operation_xyz
x,y,z
-x+y,-x,-z
-y,x-y,z
x,y,-z
-x+y,-x,z
-y,x-y,-z
x-y,-y,-z
-x,-x+y,-z
y,x,-z
y,x,z
x-y,-y,z
-x,-x+y,z
loop_
_atom_site_type_symbol
_atom_site_label
_atom_site_fract_x
_atom_site_fract_y
_atom_site_fract_z
Si Si1 0.552917 0.353927 0.614764
Si Si2 0.439324 0.210858 0.113863
Si Si3 0.080745 0.380626 0.385393
Si Si4 0.922798 0.781166 0.883932
Si Si5 0.599827 0.919361 0.389620
Si Si6 0.922470 0.642702 0.175798
Si Si7 0.301344 0.079510 0.198365
Si Si8 0.207249 0.520769 0.697216
O O1 0.582036 0.376650 0.500000
O O2 0.483787 0.360725 0.633893
O O3 0.529873 0.272096 0.629505
O O4 0.612535 0.404791 0.695466
O O5 0.425984 0.278189 0.130764
O O6 0.365463 0.136784 0.129290
O O7 0.500500 0.216032 0.187984
O O8 0.466546 0.213596 0.000000
O O9 0.097471 0.368582 0.500000
O O10 0.092168 0.325874 0.315642
O O11 0.133330 0.461034 0.350971
O O12 0.000000 0.365464 0.374898
O O13 0.928300 0.710700 0.877452
O O14 0.856608 0.769126 0.813923
O O15 0.000000 0.847686 0.849132
O O16 0.907638 0.792770 0.000000
O O17 0.616386 0.895824 0.500000
O O18 0.642975 0.908329 0.297750
O O19 0.618337 0.000000 0.395136
O O20 0.000000 0.647387 0.157884
O O21 0.280605 0.000000 0.163588
#
# Coordination Sequence:
#
# PCOD8327743 Si02
#       8
#    12  12  12  12  12  12  12  12
#     4  11  21  34  53  74  97 128 166 207 245 291
#     4  10  20  34  51  74 103 134 170 215 261 301
#     4   9  18  33  53  78 106 134 163 204 263 319
#     4   9  17  28  43  66  97 132 169 209 252 295
#     4   9  18  31  48  73 102 129 155 191 246 301
#     4   9  15  28  49  73  99 126 159 200 246 301
#     4   9  17  29  49  76 102 133 174 216 259 310
#     4  11  22  37  53  76 102 132 172 212 247 297
#
# _framework density 17.871769
#
# number of rings (size 3 to 8) (size 9 to 14) (size 15 to 20)
#    0.000    2.375    1.250    2.875    0.000    2.250 
#    0.000    1.875    0.000    0.625    0.000    0.000 
#    0.000    0.000    0.000    0.000    0.000    2.125 
#
# Total GULP energy -1189298.903062 kJ/mol
# GULP energy per Si atom -12388.530240 kJ/mol
# Density = 1.783109 g / cm^3
# Si number density = 17.871769 Si / 1000 Ang^3
#
#
#
# Elastic Constant Matrix: (Units=GPa)
#
#
# Indices 1 2 3 4 5 6 
#
# 1 65.4493 24.7779 30.0214 0.0000 0.0000 0.0000
# 2 24.7779 65.4493 30.0214 0.0000 0.0000 0.0000
# 3 30.0214 30.0214 101.1498 0.0000 0.0000 0.0000
# 4 0.0000 0.0000 0.0000 21.9944 0.0000 0.0000
# 5 0.0000 0.0000 0.0000 0.0000 21.9944 0.0000
# 6 0.0000 0.0000 0.0000 0.0000 0.0000 20.3357
#
#
#
# Elastic Compliance Matrix: (Units=1/GPa)
#
#
# Indices 1 2 3 4 5 6 
#
# 1 0.019199 -0.005388 -0.004099 0.000000 0.000000 0.000000
# 2 -0.005388 0.019199 -0.004099 0.000000 0.000000 0.000000
# 3 -0.004099 -0.004099 0.012320 0.000000 0.000000 0.000000
# 4 0.000000 0.000000 0.000000 0.045466 0.000000 0.000000
# 5 0.000000 0.000000 0.000000 0.000000 0.045466 0.000000
# 6 0.000000 0.000000 0.000000 0.000000 0.000000 0.049175
#
#
# Mechanical properties :
#
#
# Convention : Reuss Voigt Hill
#
# Bulk Modulus (GPa) = 42.47185 44.63222 43.55203
# Shear Modulus (GPa) = 22.13900 22.68008 22.40954
#
# Velocity S-wave (km/s) = 3.52343 3.56623 3.54490
# Velocity P-wave (km/s) = 6.35367 6.47959 6.41694
#
# Compressibility (1/GPa) = 0.02354501
#
# Stress axis : x y z
#
# Youngs Moduli (GPa) = 52.08571 52.08571 81.17166
#
# Poissons Ratio (x) = 0.28065 0.33273
# Poissons Ratio (y) = 0.28065 0.33273
# Poissons Ratio (z) = 0.21350 0.21350
#
# Static dielectric constant tensor:
#      x y z
#    x 3.351790 0.000000 0.000000 
#    y 0.000000 3.351790 0.000000 
#    z 0.000000 0.000000 3.414710 
# 
# 
# High freq. dielectric constant tensor:
#      x y z
#    x 1.674270 0.000000 0.000000 
#    y 0.000000 1.674270 0.000000 
#    z 0.000000 0.000000 1.690240 
# 
# From -- ./inp_files/2288.got.cif
#   From: 2010.03.12/outbox.cif.g09.slc.cpg/sg189_2_cif.got.tgz:2288.got - 2010.04.01 12:03:36.
