data_PCOD8327745
_publ_section_title
;
Structure prediction by ZEFSAII (Michael W. Deem and Ramdas Pophale) SiO2 
 PCOD8327745
Probable space group: P -6 2 M
;
_chemical_formula_sum "Si O2"
_cell_formula_units_Z 64
_cell_length_a 14.973166
_cell_length_b 14.973166
_cell_length_c 18.898847
_cell_angle_alpha 90.000000
_cell_angle_beta 90.000000
_cell_angle_gamma 120.000000
_cell_volume 3669.384479
_symmetry_space_group_name_H-M "P -6 2 M"
_symmetry_group_IT_number 189
_symmetry_cell_setting 'hexagonal'
loop_
_space_group_symop_operation_xyz
x,y,z
-x+y,-x,-z
-y,x-y,z
x,y,-z
-x+y,-x,z
-y,x-y,-z
x-y,-y,-z
-x,-x+y,-z
y,x,-z
y,x,z
x-y,-y,z
-x,-x+y,z
loop_
_atom_site_type_symbol
_atom_site_label
_atom_site_fract_x
_atom_site_fract_y
_atom_site_fract_z
Si Si1 0.669688 0.220813 0.921358
Si Si2 0.246016 0.884944 0.295203
Si Si3 0.446126 0.882461 0.661251
Si Si4 0.666668 0.333334 0.416490
Si Si5 0.116919 0.697748 0.788576
Si Si6 0.120141 0.239103 0.579694
O O1 0.769152 0.336012 0.912328
O O2 0.669533 0.143533 0.864029
O O3 0.670725 0.178236 0.000000
O O4 0.347700 0.879155 0.305194
O O5 0.184082 0.818901 0.227350
O O6 0.179366 0.844308 0.367540
O O7 0.270903 0.000000 0.278646
O O8 0.408615 0.786356 0.607287
O O9 0.500902 0.860438 0.725729
O O10 0.521086 0.000000 0.628899
O O11 0.666667 0.333334 0.500000
O O12 0.000000 0.670004 0.791029
O O13 0.146510 0.284044 0.500000
O O14 0.182311 0.182311 0.600620
O O15 0.000000 0.156722 0.586596
#
# Coordination Sequence:
#
# PCOD8327745 Si02
#       6
#    12  12  12   4  12  12
#     4   8  17  32  53  78 108 145 174 208 258 311
#     4  10  20  34  52  73 101 137 174 216 267 321
#     4  10  22  38  56  78 103 140 186 227 272 330
#     4  12  24  39  60  78 106 149 184 240 294 324
#     4  11  20  32  55  81 108 139 177 223 262 316
#     4   9  17  30  49  71  96 128 169 219 272 321
#
# _framework density 17.441617000000001
#
# number of rings (size 3 to 8) (size 9 to 14) (size 15 to 20)
#    0.375    1.875    1.875    1.875    0.000    2.250 
#    0.000    1.875    0.000    2.062    0.000    0.000 
#    0.000    0.000    0.000    0.000    0.000    0.000 
#
# Total GULP energy -793138.907380 kJ/mol
# GULP energy per Si atom -12392.795428 kJ/mol
# Density = 1.740192 g / cm^3
# Si number density = 17.441617 Si / 1000 Ang^3
#
#
#
# Elastic Constant Matrix: (Units=GPa)
#
#
# Indices 1 2 3 4 5 6 
#
# 1 69.0363 34.8542 41.8141 -0.0001 -0.0001 0.0001
# 2 34.8542 69.0363 41.8138 -0.0001 0.0000 0.0000
# 3 41.8141 41.8138 92.2079 -0.0002 0.0000 -0.0001
# 4 -0.0001 -0.0001 -0.0002 15.8910 0.0000 0.0000
# 5 -0.0001 0.0000 0.0000 0.0000 15.8910 0.0000
# 6 0.0001 0.0000 -0.0001 0.0000 0.0000 17.0911
#
#
#
# Elastic Compliance Matrix: (Units=1/GPa)
#
#
# Indices 1 2 3 4 5 6 
#
# 1 0.022207 -0.007048 -0.006874 0.000000 0.000000 0.000000
# 2 -0.007048 0.022207 -0.006874 0.000000 0.000000 0.000000
# 3 -0.006874 -0.006874 0.017080 0.000000 0.000000 0.000000
# 4 0.000000 0.000000 0.000000 0.062929 0.000000 0.000000
# 5 0.000000 0.000000 0.000000 0.000000 0.062929 0.000000
# 6 0.000000 0.000000 0.000000 0.000000 0.000000 0.058510
#
#
# Mechanical properties :
#
#
# Convention : Reuss Voigt Hill
#
# Bulk Modulus (GPa) = 50.24938 51.91607 51.08272
# Shear Modulus (GPa) = 17.00176 17.22787 17.11481
#
# Velocity S-wave (km/s) = 3.12554 3.14625 3.13591
# Velocity P-wave (km/s) = 6.47286 6.55963 6.51639
#
# Compressibility (1/GPa) = 0.01990074
#
# Stress axis : x y z
#
# Youngs Moduli (GPa) = 45.03069 45.03084 58.54930
#
# Poissons Ratio (x) = 0.31738 0.40248
# Poissons Ratio (y) = 0.31738 0.40248
# Poissons Ratio (z) = 0.30955 0.30955
#
# Static dielectric constant tensor:
#      x y z
#    x 3.365330 0.000000 0.000000 
#    y 0.000000 3.365340 0.000000 
#    z 0.000000 0.000000 3.108120 
# 
# 
# High freq. dielectric constant tensor:
#      x y z
#    x 1.671140 0.000000 0.000000 
#    y 0.000000 1.671140 0.000000 
#    z 0.000000 0.000000 1.656720 
# 
# From -- ./inp_files/3036.got.cif
#   From: 2010.03.12/outbox.cif.g09.slc.cpg/sg189_2_cif.got.tgz:3036.got - 2010.04.01 12:03:36.
