data_PCOD8327328
_publ_section_title
;
Structure prediction by ZEFSAII (Michael W. Deem and Ramdas Pophale) SiO2 
 PCOD8327328
Probable space group: P -6 C 2
;
_chemical_formula_sum "Si O2"
_cell_formula_units_Z 72
_cell_length_a 23.352251
_cell_length_b 23.352251
_cell_length_c 8.682873
_cell_angle_alpha 90.000000
_cell_angle_beta 90.000000
_cell_angle_gamma 120.000000
_cell_volume 4100.639403
_symmetry_space_group_name_H-M "P -6 C 2"
_symmetry_group_IT_number 188
_symmetry_cell_setting 'hexagonal'
loop_
_space_group_symop_operation_xyz
x,y,z
-x+y,-x,1/2-z
-y,x-y,z
x,y,1/2-z
-x+y,-x,z
-y,x-y,1/2-z
-y,-x,-z
-x+y,y,-z
x,x-y,-z
-x+y,y,1/2+z
x,x-y,1/2+z
-y,-x,1/2+z
loop_
_atom_site_type_symbol
_atom_site_label
_atom_site_fract_x
_atom_site_fract_y
_atom_site_fract_z
Si Si1 0.792453 0.332579 0.566450
Si Si2 0.877528 0.876103 0.069872
Si Si3 0.071683 0.803870 0.929590
Si Si4 0.601707 0.862303 0.072583
Si Si5 0.599741 0.072908 0.566772
Si Si6 0.408545 0.468783 0.429585
O O1 0.789399 0.333339 0.750000
O O2 0.735728 0.264273 0.500000
O O3 0.783688 0.391844 0.500000
O O4 0.861855 0.339260 0.509199
O O5 0.889676 0.888357 0.250000
O O6 0.804408 0.813136 0.034402
O O7 0.928228 0.856455 0.000000
O O8 0.888083 0.944042 0.000000
O O9 0.081134 0.800336 0.750000
O O10 0.133324 0.866677 0.000000
O O11 0.073595 0.742170 0.006559
O O12 0.613761 0.856857 0.250000
O O13 0.542327 0.877513 0.043783
O O14 0.583679 0.791840 0.000000
O O15 0.604405 0.079794 0.750000
O O16 0.534337 0.068673 0.500000
O O17 0.592865 0.003733 0.511906
O O18 0.424607 0.468610 0.250000
O O19 0.460180 0.539821 0.500000
#
# Coordination Sequence:
#
# PCOD8327328 Si02
#       6
#    12  12  12  12  12  12
#     4  11  20  31  45  65  94 128 167 211 258 307
#     4  10  19  29  42  62  89 123 161 204 250 297
#     4   9  17  29  46  67  92 123 160 199 242 286
#     4  10  20  33  53  79 105 130 159 193 233 276
#     4  10  18  30  48  70  95 127 163 203 247 290
#     4  10  20  34  53  79 105 131 160 194 233 278
#
# _framework density 17.558236000000001
#
# number of rings (size 3 to 8) (size 9 to 14) (size 15 to 20)
#    0.000    2.000    0.000    8.333    0.000    4.667 
#    0.000    0.000    0.000    1.333    0.000    2.333 
#    0.000    0.000    0.000    0.000    0.000    0.000 
#
# Total GULP energy -892158.016600 kJ/mol
# GULP energy per Si atom -12391.083564 kJ/mol
# Density = 1.751827 g / cm^3
# Si number density = 17.558236 Si / 1000 Ang^3
#
#
#
# Elastic Constant Matrix: (Units=GPa)
#
#
# Indices 1 2 3 4 5 6 
#
# 1 92.4119 49.6942 48.5260 -0.0006 0.0000 0.0000
# 2 49.6942 92.4119 48.5260 0.0006 0.0000 0.0000
# 3 48.5260 48.5260 145.9160 0.0000 0.0000 0.0000
# 4 -0.0006 0.0006 0.0000 22.0261 0.0000 0.0000
# 5 0.0000 0.0000 0.0000 0.0000 22.0261 -0.0006
# 6 0.0000 0.0000 0.0000 0.0000 -0.0006 21.3588
#
#
#
# Elastic Compliance Matrix: (Units=1/GPa)
#
#
# Indices 1 2 3 4 5 6 
#
# 1 0.016257 -0.007152 -0.003028 0.000001 0.000000 0.000000
# 2 -0.007152 0.016257 -0.003028 -0.000001 0.000000 0.000000
# 3 -0.003028 -0.003028 0.008867 0.000000 0.000000 0.000000
# 4 0.000001 -0.000001 0.000000 0.045401 0.000000 0.000000
# 5 0.000000 0.000000 0.000000 0.000000 0.045401 0.000001
# 6 0.000000 0.000000 0.000000 0.000000 0.000001 0.046819
#
#
# Mechanical properties :
#
#
# Convention : Reuss Voigt Hill
#
# Bulk Modulus (GPa) = 66.82122 69.35913 68.09018
# Shear Modulus (GPa) = 23.76346 25.34843 24.55595
#
# Velocity S-wave (km/s) = 3.68286 3.80370 3.74377
# Velocity P-wave (km/s) = 7.49828 7.67326 7.58627
#
# Compressibility (1/GPa) = 0.01496531
#
# Stress axis : x y z
#
# Youngs Moduli (GPa) = 61.51111 61.51111 112.77499
#
# Poissons Ratio (x) = 0.43994 0.34148
# Poissons Ratio (y) = 0.43994 0.34148
# Poissons Ratio (z) = 0.18625 0.18625
#
# Static dielectric constant tensor:
#      x y z
#    x 3.599610 0.000000 0.000000 
#    y 0.000000 3.599610 0.000000 
#    z 0.000000 0.000000 3.506100 
# 
# 
# High freq. dielectric constant tensor:
#      x y z
#    x 1.658160 0.000000 0.000000 
#    y 0.000000 1.658160 0.000000 
#    z 0.000000 0.000000 1.703700 
# 
# From -- ./inp_files/1008.got.cif
#   From: 2010.03.12/outbox.cif.g09.slc.cpg/sg188_1_cif.got.tgz:1008.got - 2010.04.01 12:01:06.
