data_PCOD8327996
_publ_section_title
;
Structure prediction by ZEFSAII (Michael W. Deem and Ramdas Pophale) SiO2 
 PCOD8327996
Probable space group: P -6 2 C
;
_chemical_formula_sum "Si O2"
_cell_formula_units_Z 72
_cell_length_a 23.641320
_cell_length_b 23.641320
_cell_length_c 8.764965
_cell_angle_alpha 90.000000
_cell_angle_beta 90.000000
_cell_angle_gamma 120.000000
_cell_volume 4242.523542
_symmetry_space_group_name_H-M "P -6 2 C"
_symmetry_group_IT_number 190
_symmetry_cell_setting 'hexagonal'
loop_
_space_group_symop_operation_xyz
x,y,z
-x+y,-x,1/2-z
-y,x-y,z
x,y,1/2-z
-x+y,-x,z
-y,x-y,1/2-z
x-y,-y,-z
-x,-x+y,-z
y,x,-z
y,x,1/2+z
x-y,-y,1/2+z
-x,-x+y,1/2+z
loop_
_atom_site_type_symbol
_atom_site_label
_atom_site_fract_x
_atom_site_fract_y
_atom_site_fract_z
Si Si1 0.069798 0.473897 0.570822
Si Si2 0.738491 0.136616 0.573613
Si Si3 0.268759 0.861134 0.074903
Si Si4 0.069492 0.808064 0.929850
Si Si5 0.257330 0.069659 0.571538
Si Si6 0.068948 0.590292 0.428501
O O1 0.061569 0.475313 0.750000
O O2 0.122169 0.451949 0.532163
O O3 0.095586 0.546210 0.504256
O O4 0.000000 0.422664 0.500000
O O5 0.747333 0.122963 0.750000
O O6 0.787482 0.212487 0.535222
O O7 0.754591 0.089989 0.473310
O O8 0.665574 0.121248 0.538126
O O9 0.290988 0.867142 0.250000
O O10 0.242652 0.910763 0.038974
O O11 0.065921 0.811512 0.750000
O O12 0.120316 0.878895 0.993989
O O13 0.000000 0.788389 0.000000
O O14 0.243948 0.068469 0.750000
O O15 0.209752 0.000000 0.500000
O O16 0.058902 0.574891 0.250000
O O17 0.000000 0.573884 0.500000
#
# Coordination Sequence:
#
# PCOD8327996 Si02
#       6
#    12  12  12  12  12  12
#     4  11  21  32  48  71  98 129 163 199 241 287
#     4   9  19  34  52  74  99 128 162 201 245 293
#     4   9  18  33  51  72  99 128 160 199 241 288
#     4  11  21  33  51  74 102 134 166 202 244 289
#     4  10  20  34  52  75 102 131 165 203 245 292
#     4  10  19  32  50  72  98 128 161 198 242 289
#
# _framework density 16.971032000000001
#
# number of rings (size 3 to 8) (size 9 to 14) (size 15 to 20)
#    0.000    2.000    0.000    7.000    0.000    7.333 
#    0.000    0.000    0.000    1.000    0.000    4.667 
#    0.000    0.000    0.000    0.000    0.000    0.000 
#
# Total GULP energy -893026.072900 kJ/mol
# GULP energy per Si atom -12403.139901 kJ/mol
# Density = 1.693241 g / cm^3
# Si number density = 16.971032 Si / 1000 Ang^3
#
#
#
# Elastic Constant Matrix: (Units=GPa)
#
#
# Indices 1 2 3 4 5 6 
#
# 1 118.7921 66.6224 63.8490 0.0000 0.0000 0.0000
# 2 66.6224 118.7921 63.8490 0.0000 0.0000 0.0000
# 3 63.8490 63.8490 133.2165 0.0000 0.0000 0.0000
# 4 0.0000 0.0000 0.0000 28.7341 0.0000 0.0000
# 5 0.0000 0.0000 0.0000 0.0000 28.7341 0.0000
# 6 0.0000 0.0000 0.0000 0.0000 0.0000 26.0848
#
#
#
# Elastic Compliance Matrix: (Units=1/GPa)
#
#
# Indices 1 2 3 4 5 6 
#
# 1 0.013610 -0.005559 -0.003859 0.000000 0.000000 0.000000
# 2 -0.005559 0.013610 -0.003859 0.000000 0.000000 0.000000
# 3 -0.003859 -0.003859 0.011205 0.000000 0.000000 0.000000
# 4 0.000000 0.000000 0.000000 0.034802 0.000000 0.000000
# 5 0.000000 0.000000 0.000000 0.000000 0.034802 0.000000
# 6 0.000000 0.000000 0.000000 0.000000 0.000000 0.038336
#
#
# Mechanical properties :
#
#
# Convention : Reuss Voigt Hill
#
# Bulk Modulus (GPa) = 84.22883 84.38238 84.30561
# Shear Modulus (GPa) = 28.26868 28.47596 28.37232
#
# Velocity S-wave (km/s) = 4.08573 4.10068 4.09321
# Velocity P-wave (km/s) = 8.48506 8.50001 8.49254
#
# Compressibility (1/GPa) = 0.01187242
#
# Stress axis : x y z
#
# Youngs Moduli (GPa) = 73.47787 73.47787 89.24274
#
# Poissons Ratio (x) = 0.40844 0.34436
# Poissons Ratio (y) = 0.40844 0.34436
# Poissons Ratio (z) = 0.28353 0.28353
#
# Static dielectric constant tensor:
#      x y z
#    x 3.130430 0.000000 0.000000 
#    y 0.000000 3.130430 0.000000 
#    z 0.000000 0.000000 3.260050 
# 
# 
# High freq. dielectric constant tensor:
#      x y z
#    x 1.645100 0.000000 0.000000 
#    y 0.000000 1.645100 0.000000 
#    z 0.000000 0.000000 1.668440 
# 
# From -- ./inp_files/1238.got.cif
#   From: 2010.06.25/outbox.cif.g09.slc.cpg/sg190_1_cif.got.tgz:1238.got - 2010.06.28 13:08:06.
