data_PCOD8327963
_publ_section_title
;
Structure prediction by ZEFSAII (Michael W. Deem and Ramdas Pophale) SiO2 
 PCOD8327963
Probable space group: P -6 2 C
;
_chemical_formula_sum "Si O2"
_cell_formula_units_Z 84
_cell_length_a 15.259707
_cell_length_b 15.259707
_cell_length_c 26.909100
_cell_angle_alpha 90.000000
_cell_angle_beta 90.000000
_cell_angle_gamma 120.000000
_cell_volume 5426.529822
_symmetry_space_group_name_H-M "P -6 2 C"
_symmetry_group_IT_number 190
_symmetry_cell_setting 'hexagonal'
loop_
_space_group_symop_operation_xyz
x,y,z
-x+y,-x,1/2-z
-y,x-y,z
x,y,1/2-z
-x+y,-x,z
-y,x-y,1/2-z
x-y,-y,-z
-x,-x+y,-z
y,x,-z
y,x,1/2+z
x-y,-y,1/2+z
-x,-x+y,1/2+z
loop_
_atom_site_type_symbol
_atom_site_label
_atom_site_fract_x
_atom_site_fract_y
_atom_site_fract_z
Si Si1 0.451398 0.887154 0.055412
Si Si2 0.561520 0.788508 0.934176
Si Si3 0.137947 0.934442 0.448865
Si Si4 0.562715 0.452004 0.063177
Si Si5 0.070574 0.862026 0.905253
Si Si6 0.773256 0.563396 0.948573
Si Si7 0.119393 0.103579 0.303973
O O1 0.336190 0.821045 0.074010
O O2 0.525120 0.846195 0.073982
O O3 0.497643 0.995890 0.080994
O O4 0.443023 0.888519 0.996169
O O5 0.485449 0.824972 0.914513
O O6 0.521081 0.675093 0.914405
O O7 0.673504 0.868844 0.917065
O O8 0.558274 0.780812 0.992864
O O9 0.197826 0.875499 0.435790
O O10 0.018335 0.851203 0.446337
O O11 0.175875 0.000000 0.500000
O O12 0.162522 0.017258 0.406407
O O13 0.025946 0.832795 0.849368
O O14 0.171496 0.148498 0.250000
O O15 0.014272 0.105520 0.307358
#
# Coordination Sequence:
#
# PCOD8327963 Si02
#       7
#    12  12  12  12  12  12  12
#     4   9  17  28  42  50  74 104 158 188 218 235
#     4  10  19  29  44  59  84 112 162 186 222 252
#     4  12  22  29  40  62 100 127 150 167 214 268
#     4   9  17  29  40  55  75 111 144 195 212 240
#     4  12  20  31  43  68  92 127 147 173 216 279
#     4  10  19  30  41  59  78 120 153 195 217 247
#     4   8  15  31  48  62  85 118 150 183 213 250
#
# _framework density 15.479507
#
# number of rings (size 3 to 8) (size 9 to 14) (size 15 to 20)
#    0.286    1.714    2.857    3.000    2.000    3.429 
#    0.000    0.000    0.000    0.000    0.000    1.000 
#    0.000    0.000    0.000    1.286    0.000    0.714 
#
# Total GULP energy -1040624.285032 kJ/mol
# GULP energy per Si atom -12388.384346 kJ/mol
# Density = 1.544427 g / cm^3
# Si number density = 15.479507 Si / 1000 Ang^3
#
#
#
# Elastic Constant Matrix: (Units=GPa)
#
#
# Indices 1 2 3 4 5 6 
#
# 1 106.8218 51.3515 13.7286 0.0000 0.0000 0.0000
# 2 51.3515 106.8218 13.7286 0.0000 0.0000 0.0000
# 3 13.7286 13.7286 40.0706 0.0000 0.0000 0.0000
# 4 0.0000 0.0000 0.0000 3.8695 0.0000 0.0000
# 5 0.0000 0.0000 0.0000 0.0000 3.8695 0.0000
# 6 0.0000 0.0000 0.0000 0.0000 0.0000 27.7352
#
#
#
# Elastic Compliance Matrix: (Units=1/GPa)
#
#
# Indices 1 2 3 4 5 6 
#
# 1 0.012375 -0.005653 -0.002303 0.000000 0.000000 0.000000
# 2 -0.005653 0.012375 -0.002303 0.000000 0.000000 0.000000
# 3 -0.002303 -0.002303 0.026534 0.000000 0.000000 0.000000
# 4 0.000000 0.000000 0.000000 0.258429 0.000000 0.000000
# 5 0.000000 0.000000 0.000000 0.000000 0.258429 0.000000
# 6 0.000000 0.000000 0.000000 0.000000 0.000000 0.036055
#
#
# Mechanical properties :
#
#
# Convention : Reuss Voigt Hill
#
# Bulk Modulus (GPa) = 32.50354 45.70353 39.10354
# Shear Modulus (GPa) = 7.87439 18.75521 13.31480
#
# Velocity S-wave (km/s) = 2.25788 3.48460 2.93602
# Velocity P-wave (km/s) = 5.27643 6.76604 6.06712
#
# Compressibility (1/GPa) = 0.03076588
#
# Stress axis : x y z
#
# Youngs Moduli (GPa) = 80.80935 80.80935 37.68744
#
# Poissons Ratio (x) = 0.45680 0.08679
# Poissons Ratio (y) = 0.45680 0.08679
# Poissons Ratio (z) = 0.18611 0.18611
#
# Static dielectric constant tensor:
#      x y z
#    x 3.142020 0.000000 0.000000 
#    y 0.000000 3.142020 0.000000 
#    z 0.000000 0.000000 2.438790 
# 
# 
# High freq. dielectric constant tensor:
#      x y z
#    x 1.599990 0.000000 0.000000 
#    y 0.000000 1.599990 0.000000 
#    z 0.000000 0.000000 1.512920 
# 
# From -- ./inp_files/5191.got.cif
#   From: 2010.06.25/outbox.cif.g09.slc.cpg/sg190_3_cif.got.tgz:5191.got - 2010.06.28 13:08:06.
