data_PCOD8327294
_publ_section_title
;
Structure prediction by ZEFSAII (Michael W. Deem and Ramdas Pophale) SiO2 
 PCOD8327294
Probable space group: P -6 M 2
;
_chemical_formula_sum "Si O2"
_cell_formula_units_Z 96
_cell_length_a 22.373401
_cell_length_b 22.373401
_cell_length_c 12.492654
_cell_angle_alpha 90.000000
_cell_angle_beta 90.000000
_cell_angle_gamma 120.000000
_cell_volume 5415.634630
_symmetry_space_group_name_H-M "P -6 M 2"
_symmetry_group_IT_number 187
_symmetry_cell_setting 'hexagonal'
loop_
_space_group_symop_operation_xyz
x,y,z
-x+y,-x,-z
-y,x-y,z
x,y,-z
-x+y,-x,z
-y,x-y,-z
-y,-x,-z
-x+y,y,-z
x,x-y,-z
-x+y,y,z
x,x-y,z
-y,-x,z
loop_
_atom_site_type_symbol
_atom_site_label
_atom_site_fract_x
_atom_site_fract_y
_atom_site_fract_z
Si Si1 0.942284 0.194028 0.374487
Si Si2 0.739116 0.127036 0.755723
Si Si3 0.655574 0.996481 0.121589
Si Si4 0.073155 0.792991 0.242957
Si Si5 0.332713 0.531704 0.120817
Si Si6 0.549678 0.586415 0.690828
Si Si7 0.568043 0.848123 0.313701
Si Si8 0.624043 0.509934 0.620059
O O1 0.957627 0.206338 0.500000
O O2 0.886499 0.113502 0.350490
O O3 0.912065 0.242250 0.335485
O O4 0.013797 0.217068 0.312203
O O5 0.805361 0.194640 0.799714
O O6 0.704279 0.078186 0.857252
O O7 0.687914 0.149599 0.700934
O O8 0.701644 0.959975 0.141991
O O9 0.589830 0.968978 0.199045
O O10 0.629932 0.984809 0.000000
O O11 0.129202 0.870799 0.205534
O O12 0.111479 0.762329 0.314135
O O13 0.281175 0.562350 0.125104
O O14 0.407781 0.592220 0.160133
O O15 0.302903 0.463668 0.194093
O O16 0.337048 0.508326 0.000000
O O17 0.474058 0.525943 0.720892
O O18 0.544369 0.647298 0.625106
O O19 0.590791 0.559570 0.619988
O O20 0.542801 0.771401 0.364103
O O21 0.648759 0.508030 0.500000
O O22 0.566678 0.433323 0.657779
#
# Coordination Sequence:
#
# PCOD8327294 Si02
#       8
#    12  12  12  12  12  12  12  12
#     4   9  17  30  50  74  94 113 143 182 222 268
#     4   9  17  29  46  68  94 123 151 183 227 271
#     4   9  18  30  43  64  93 121 156 199 230 261
#     4   9  18  31  45  64  93 125 151 176 215 268
#     4   9  16  25  37  53  75 107 150 199 244 278
#     4   9  17  29  44  62  86 117 153 195 242 282
#     4   9  17  27  37  53  81 115 148 181 218 265
#     4   9  17  29  46  68  92 118 149 184 223 272
#
# _framework density 17.726454
#
# number of rings (size 3 to 8) (size 9 to 14) (size 15 to 20)
#    0.000    3.000    0.000    1.625    0.000    4.250 
#    0.000    2.500    0.000    1.875    0.000    0.000 
#    0.000    0.000    0.000    0.750    0.000    4.250 
#
# Total GULP energy -1189303.781828 kJ/mol
# GULP energy per Si atom -12388.581061 kJ/mol
# Density = 1.768611 g / cm^3
# Si number density = 17.726454 Si / 1000 Ang^3
#
#
#
# Elastic Constant Matrix: (Units=GPa)
#
#
# Indices 1 2 3 4 5 6 
#
# 1 82.3023 29.7501 9.1701 0.0000 0.0001 0.0000
# 2 29.7501 82.3023 9.1701 0.0000 -0.0001 0.0000
# 3 9.1701 9.1701 40.3057 0.0000 0.0000 0.0000
# 4 0.0000 0.0000 0.0000 13.4103 0.0000 -0.0001
# 5 0.0001 -0.0001 0.0000 0.0000 13.4103 0.0000
# 6 0.0000 0.0000 0.0000 -0.0001 0.0000 26.2761
#
#
#
# Elastic Compliance Matrix: (Units=1/GPa)
#
#
# Indices 1 2 3 4 5 6 
#
# 1 0.014149 -0.004880 -0.002109 0.000000 0.000000 0.000000
# 2 -0.004880 0.014149 -0.002109 0.000000 0.000000 0.000000
# 3 -0.002109 -0.002109 0.025770 0.000000 0.000000 0.000000
# 4 0.000000 0.000000 0.000000 0.074569 0.000000 0.000000
# 5 0.000000 0.000000 0.000000 0.000000 0.074569 0.000000
# 6 0.000000 0.000000 0.000000 0.000000 0.000000 0.038057
#
#
# Mechanical properties :
#
#
# Convention : Reuss Voigt Hill
#
# Bulk Modulus (GPa) = 27.87585 33.45455 30.66520
# Shear Modulus (GPa) = 18.42182 21.07402 19.74792
#
# Velocity S-wave (km/s) = 3.22720 3.45170 3.34134
# Velocity P-wave (km/s) = 5.44483 5.89910 5.67651
#
# Compressibility (1/GPa) = 0.03587334
#
# Stress axis : x y z
#
# Youngs Moduli (GPa) = 70.67569 70.67569 38.80477
#
# Poissons Ratio (x) = 0.34487 0.08184
# Poissons Ratio (y) = 0.34487 0.08184
# Poissons Ratio (z) = 0.14905 0.14905
#
# Static dielectric constant tensor:
#      x y z
#    x 3.438000 0.000000 0.000000 
#    y 0.000000 3.438000 0.000000 
#    z 0.000000 0.000000 2.881800 
# 
# 
# High freq. dielectric constant tensor:
#      x y z
#    x 1.680110 0.000000 0.000000 
#    y 0.000000 1.680110 0.000000 
#    z 0.000000 0.000000 1.646880 
# 
# From -- ./inp_files/2106.got.cif
#   From: 2010.03.12/outbox.cif.g09.slc.cpg/sg187_2_cif.got.tgz:2106.got - 2010.04.01 11:58:23.
