data_PCOD8327966
_publ_section_title
;
Structure prediction by ZEFSAII (Michael W. Deem and Ramdas Pophale) SiO2 
 PCOD8327966
Probable space group: P -6 2 C
;
_chemical_formula_sum "Si O2"
_cell_formula_units_Z 72
_cell_length_a 23.016170
_cell_length_b 23.016170
_cell_length_c 9.210787
_cell_angle_alpha 90.000000
_cell_angle_beta 90.000000
_cell_angle_gamma 120.000000
_cell_volume 4225.649627
_symmetry_space_group_name_H-M "P -6 2 C"
_symmetry_group_IT_number 190
_symmetry_cell_setting 'hexagonal'
loop_
_space_group_symop_operation_xyz
x,y,z
-x+y,-x,1/2-z
-y,x-y,z
x,y,1/2-z
-x+y,-x,z
-y,x-y,1/2-z
x-y,-y,-z
-x,-x+y,-z
y,x,-z
y,x,1/2+z
x-y,-y,1/2+z
-x,-x+y,1/2+z
loop_
_atom_site_type_symbol
_atom_site_label
_atom_site_fract_x
_atom_site_fract_y
_atom_site_fract_z
Si Si1 0.802912 0.065419 0.084842
Si Si2 0.347582 0.928212 0.577479
Si Si3 0.201337 0.818431 0.577492
Si Si4 0.563266 0.184832 0.077459
Si Si5 0.060600 0.126193 0.915411
Si Si6 0.291114 0.524929 0.922555
O O1 0.777606 0.057118 0.250000
O O2 0.812881 0.133783 0.012853
O O3 0.875155 0.073380 0.074367
O O4 0.747564 0.000000 0.000000
O O5 0.353236 0.939746 0.750000
O O6 0.269319 0.885569 0.527090
O O7 0.382613 0.884801 0.527677
O O8 0.384008 0.000000 0.500000
O O9 0.200402 0.821014 0.750000
O O10 0.198980 0.750645 0.523597
O O11 0.563024 0.185002 0.250000
O O12 0.632858 0.193047 0.014639
O O13 0.560883 0.250263 0.022036
O O14 0.040496 0.103509 0.750000
O O15 0.071941 0.071941 0.000000
O O16 0.000000 0.128240 0.000000
O O17 0.294852 0.528191 0.750000
#
# Coordination Sequence:
#
# PCOD8327966 Si02
#       6
#    12  12  12  12  12  12
#     4   9  18  32  47  62  82 109 140 174 211 249
#     4   9  17  29  44  64  91 120 148 179 217 261
#     4   8  15  28  44  61  84 115 147 178 214 255
#     4   8  13  21  37  63  90 113 141 179 220 257
#     4  10  19  30  44  61  81 103 129 163 203 247
#     4   8  12  20  37  61  88 114 140 175 216 253
#
# _framework density 17.038799999999998
#
# number of rings (size 3 to 8) (size 9 to 14) (size 15 to 20)
#    0.000    3.333    0.000    3.000    0.000    2.667 
#    0.000    1.667    0.000    0.000    0.000    4.667 
#    0.000    0.000    0.000    0.000    0.000    0.000 
#
# Total GULP energy -892010.930544 kJ/mol
# GULP energy per Si atom -12389.040702 kJ/mol
# Density = 1.700002 g / cm^3
# Si number density = 17.038800 Si / 1000 Ang^3
#
#
#
# Elastic Constant Matrix: (Units=GPa)
#
#
# Indices 1 2 3 4 5 6 
#
# 1 118.0388 82.8149 34.0352 0.0000 0.0000 0.0000
# 2 82.8149 118.0388 34.0352 0.0000 0.0000 0.0000
# 3 34.0352 34.0352 41.1839 0.0000 0.0000 0.0000
# 4 0.0000 0.0000 0.0000 14.2408 0.0000 0.0000
# 5 0.0000 0.0000 0.0000 0.0000 14.2408 0.0000
# 6 0.0000 0.0000 0.0000 0.0000 0.0000 17.6119
#
#
#
# Elastic Compliance Matrix: (Units=1/GPa)
#
#
# Indices 1 2 3 4 5 6 
#
# 1 0.017653 -0.010737 -0.005715 0.000000 0.000000 0.000000
# 2 -0.010737 0.017653 -0.005715 0.000000 0.000000 0.000000
# 3 -0.005715 -0.005715 0.033728 0.000000 0.000000 0.000000
# 4 0.000000 0.000000 0.000000 0.070221 0.000000 0.000000
# 5 0.000000 0.000000 0.000000 0.000000 0.070221 0.000000
# 6 0.000000 0.000000 0.000000 0.000000 0.000000 0.056780
#
#
# Mechanical properties :
#
#
# Convention : Reuss Voigt Hill
#
# Bulk Modulus (GPa) = 40.48899 64.33692 52.41296
# Shear Modulus (GPa) = 15.68270 17.64377 16.66324
#
# Velocity S-wave (km/s) = 3.03712 3.22142 3.13063
# Velocity P-wave (km/s) = 6.00943 7.18872 6.62537
#
# Compressibility (1/GPa) = 0.02469807
#
# Stress axis : x y z
#
# Youngs Moduli (GPa) = 56.64834 56.64834 29.64916
#
# Poissons Ratio (x) = 0.60824 0.16945
# Poissons Ratio (y) = 0.60824 0.16945
# Poissons Ratio (z) = 0.32376 0.32376
#
# Static dielectric constant tensor:
#      x y z
#    x 3.409510 0.000000 0.000000 
#    y 0.000000 3.409510 0.000000 
#    z 0.000000 0.000000 2.768060 
# 
# 
# High freq. dielectric constant tensor:
#      x y z
#    x 1.657880 0.000000 0.000000 
#    y 0.000000 1.657880 0.000000 
#    z 0.000000 0.000000 1.603780 
# 
# From -- ./inp_files/1205.got.cif
#   From: 2010.06.25/outbox.cif.g09.slc.cpg/sg190_1_cif.got.tgz:1205.got - 2010.06.28 13:08:06.
