data_PCOD8327729
_publ_section_title
;
Structure prediction by ZEFSAII (Michael W. Deem and Ramdas Pophale) SiO2 
 PCOD8327729
Probable space group: P -6 2 M
;
_chemical_formula_sum "Si O2"
_cell_formula_units_Z 72
_cell_length_a 23.057950
_cell_length_b 23.057950
_cell_length_c 9.245914
_cell_angle_alpha 90.000000
_cell_angle_beta 90.000000
_cell_angle_gamma 120.000000
_cell_volume 4257.178572
_symmetry_space_group_name_H-M "P -6 2 M"
_symmetry_group_IT_number 189
_symmetry_cell_setting 'hexagonal'
loop_
_space_group_symop_operation_xyz
x,y,z
-x+y,-x,-z
-y,x-y,z
x,y,-z
-x+y,-x,z
-y,x-y,-z
x-y,-y,-z
-x,-x+y,-z
y,x,-z
y,x,z
x-y,-y,z
-x,-x+y,z
loop_
_atom_site_type_symbol
_atom_site_label
_atom_site_fract_x
_atom_site_fract_y
_atom_site_fract_z
Si Si1 0.132717 0.405193 0.162261
Si Si2 0.738132 0.924281 0.830499
Si Si3 0.863441 0.591863 0.159111
Si Si4 0.923534 0.197694 0.333662
Si Si5 0.801099 0.335051 0.329836
Si Si6 0.201146 0.666846 0.668614
O O1 0.204510 0.411819 0.154961
O O2 0.083275 0.338851 0.251518
O O3 0.140649 0.470322 0.245194
O O4 0.104416 0.401225 0.000000
O O5 0.666421 0.916467 0.784294
O O6 0.754053 0.874950 0.738926
O O7 0.796002 0.000000 0.799181
O O8 0.734860 0.905628 0.000000
O O9 0.858620 0.533403 0.261171
O O10 0.883947 0.580053 0.000000
O O11 0.901012 0.194720 0.500000
O O12 0.000000 0.215164 0.323396
O O13 0.814887 0.336333 0.500000
O O14 0.803606 0.402398 0.275470
O O15 0.727849 0.273963 0.290274
O O16 0.188752 0.663574 0.500000
#
# Coordination Sequence:
#
# PCOD8327729 Si02
#       6
#    12  12  12  12  12  12
#     4   9  17  29  45  65  89 120 158 196 234 276
#     4   9  18  33  53  76 100 125 153 186 223 263
#     4   8  15  27  42  62  88 116 149 191 233 270
#     4  10  20  33  51  76 102 125 150 183 224 268
#     4   9  16  26  40  60  88 121 159 202 245 288
#     4   9  16  25  39  59  85 119 157 197 241 286
#
# _framework density 16.912609
#
# number of rings (size 3 to 8) (size 9 to 14) (size 15 to 20)
#    0.000    3.000    0.000    2.333    0.000    7.667 
#    0.000    0.000    0.000    3.333    0.000    4.667 
#    0.000    0.000    0.000    0.000    0.000    0.000 
#
# Total GULP energy -892508.014076 kJ/mol
# GULP energy per Si atom -12395.944640 kJ/mol
# Density = 1.687412 g / cm^3
# Si number density = 16.912609 Si / 1000 Ang^3
#
#
#
# Elastic Constant Matrix: (Units=GPa)
#
#
# Indices 1 2 3 4 5 6 
#
# 1 80.7866 41.4480 46.5553 0.0000 0.0000 0.0000
# 2 41.4480 80.7866 46.5553 0.0000 0.0000 0.0000
# 3 46.5553 46.5553 85.1096 0.0000 0.0000 0.0000
# 4 0.0000 0.0000 0.0000 23.5945 0.0000 0.0000
# 5 0.0000 0.0000 0.0000 0.0000 23.5945 0.0000
# 6 0.0000 0.0000 0.0000 0.0000 0.0000 19.6693
#
#
#
# Elastic Compliance Matrix: (Units=1/GPa)
#
#
# Indices 1 2 3 4 5 6 
#
# 1 0.019723 -0.005698 -0.007672 0.000000 0.000000 0.000000
# 2 -0.005698 0.019723 -0.007672 0.000000 0.000000 0.000000
# 3 -0.007672 -0.007672 0.020142 0.000000 0.000000 0.000000
# 4 0.000000 0.000000 0.000000 0.042383 0.000000 0.000000
# 5 0.000000 0.000000 0.000000 0.000000 0.042383 0.000000
# 6 0.000000 0.000000 0.000000 0.000000 0.000000 0.050841
#
#
# Mechanical properties :
#
#
# Convention : Reuss Voigt Hill
#
# Bulk Modulus (GPa) = 57.12506 57.31109 57.21807
# Shear Modulus (GPa) = 20.56676 20.84660 20.70668
#
# Velocity S-wave (km/s) = 3.49099 3.51466 3.50284
# Velocity P-wave (km/s) = 7.07808 7.10145 7.08978
#
# Compressibility (1/GPa) = 0.01750545
#
# Stress axis : x y z
#
# Youngs Moduli (GPa) = 50.70342 50.70342 49.64671
#
# Poissons Ratio (x) = 0.28890 0.38087
# Poissons Ratio (y) = 0.28890 0.38087
# Poissons Ratio (z) = 0.38897 0.38897
#
# Static dielectric constant tensor:
#      x y z
#    x 3.061140 0.000000 0.000000 
#    y 0.000000 3.061140 0.000000 
#    z 0.000000 0.000000 3.297370 
# 
# 
# High freq. dielectric constant tensor:
#      x y z
#    x 1.629080 0.000000 0.000000 
#    y 0.000000 1.629080 0.000000 
#    z 0.000000 0.000000 1.655410 
# 
# From -- ./inp_files/1250.got.cif
#   From: 2010.03.12/outbox.cif.g09.slc.cpg/sg189_1_cif.got.tgz:1250.got - 2010.04.01 12:03:36.
