data_PCOD8327342
_publ_section_title
;
Structure prediction by ZEFSAII (Michael W. Deem and Ramdas Pophale) SiO2 
 PCOD8327342
Probable space group: P -6 C 2
;
_chemical_formula_sum "Si O2"
_cell_formula_units_Z 96
_cell_length_a 18.730402
_cell_length_b 18.730402
_cell_length_c 18.441961
_cell_angle_alpha 90.000000
_cell_angle_beta 90.000000
_cell_angle_gamma 120.000000
_cell_volume 5603.145858
_symmetry_space_group_name_H-M "P -6 C 2"
_symmetry_group_IT_number 188
_symmetry_cell_setting 'hexagonal'
loop_
_space_group_symop_operation_xyz
x,y,z
-x+y,-x,1/2-z
-y,x-y,z
x,y,1/2-z
-x+y,-x,z
-y,x-y,1/2-z
-y,-x,-z
-x+y,y,-z
x,x-y,-z
-x+y,y,1/2+z
x,x-y,1/2+z
-y,-x,1/2+z
loop_
_atom_site_type_symbol
_atom_site_label
_atom_site_fract_x
_atom_site_fract_y
_atom_site_fract_z
Si Si1 0.907178 0.162791 0.668339
Si Si2 0.092133 0.851740 0.168243
Si Si3 0.333797 0.428009 0.603548
Si Si4 0.496124 0.922279 0.168339
Si Si5 0.573726 0.758800 0.831757
Si Si6 0.996061 0.571982 0.027658
Si Si7 0.999536 0.760878 0.603548
Si Si8 0.905315 0.662728 0.027658
O O1 0.899411 0.188802 0.750000
O O2 0.829778 0.072766 0.653411
O O3 0.909274 0.229034 0.612668
O O4 0.996655 0.169979 0.658269
O O5 0.120739 0.885637 0.250000
O O6 0.107504 0.774171 0.154914
O O7 0.146901 0.923662 0.111031
O O8 0.406099 0.496445 0.653411
O O9 0.256995 0.443428 0.611031
O O10 0.364618 0.441558 0.519763
O O11 0.304853 0.333333 0.628285
O O12 0.522135 0.956057 0.250000
O O13 0.503313 0.839991 0.158269
O O14 0.562367 0.986426 0.112668
O O15 0.568436 0.787406 0.750000
O O16 0.922593 0.589260 0.014246
O O17 0.960233 0.480117 0.000000
O O18 0.968716 0.743607 0.519763
O O19 0.813450 0.626900 0.000000
#
# Coordination Sequence:
#
# PCOD8327342 Si02
#       8
#    12  12  12  12  12  12  12  12
#     4  10  19  30  46  70  96 121 155 199 241 281
#     4   9  17  29  45  66  93 123 155 192 235 281
#     4   9  18  33  50  67  92 128 165 198 234 282
#     4  10  19  30  46  70  96 121 155 199 241 281
#     4   9  17  29  45  66  93 123 155 192 235 281
#     4   9  18  32  50  71  94 121 156 196 237 282
#     4   9  18  33  50  67  92 128 165 198 234 282
#     4   9  18  32  50  71  94 121 156 196 237 282
#
# _framework density 17.133232
#
# number of rings (size 3 to 8) (size 9 to 14) (size 15 to 20)
#    0.000    2.750    0.000    1.500    0.000    4.000 
#    1.500    3.750    0.000    0.250    0.000    0.000 
#    0.000    0.000    0.000    0.750    0.000    0.000 
#
# Total GULP energy -1189344.305194 kJ/mol
# GULP energy per Si atom -12389.003179 kJ/mol
# Density = 1.709424 g / cm^3
# Si number density = 17.133232 Si / 1000 Ang^3
#
#
#
# Elastic Constant Matrix: (Units=GPa)
#
#
# Indices 1 2 3 4 5 6 
#
# 1 101.6928 54.5843 49.2465 0.0000 0.0000 0.0000
# 2 54.5843 101.6928 49.2465 0.0000 0.0000 0.0000
# 3 49.2465 49.2465 116.6487 0.0000 0.0000 0.0000
# 4 0.0000 0.0000 0.0000 16.7476 0.0000 0.0000
# 5 0.0000 0.0000 0.0000 0.0000 16.7476 0.0000
# 6 0.0000 0.0000 0.0000 0.0000 0.0000 23.5543
#
#
#
# Elastic Compliance Matrix: (Units=1/GPa)
#
#
# Indices 1 2 3 4 5 6 
#
# 1 0.014973 -0.006254 -0.003681 0.000000 0.000000 0.000000
# 2 -0.006254 0.014973 -0.003681 0.000000 0.000000 0.000000
# 3 -0.003681 -0.003681 0.011681 0.000000 0.000000 0.000000
# 4 0.000000 0.000000 0.000000 0.059710 0.000000 0.000000
# 5 0.000000 0.000000 0.000000 0.000000 0.059710 0.000000
# 6 0.000000 0.000000 0.000000 0.000000 0.000000 0.042455
#
#
# Mechanical properties :
#
#
# Convention : Reuss Voigt Hill
#
# Bulk Modulus (GPa) = 69.46982 69.57656 69.52319
# Shear Modulus (GPa) = 21.22848 22.54037 21.88443
#
# Velocity S-wave (km/s) = 3.52380 3.63105 3.57782
# Velocity P-wave (km/s) = 7.56248 7.63391 7.59828
#
# Compressibility (1/GPa) = 0.01439474
#
# Stress axis : x y z
#
# Youngs Moduli (GPa) = 66.78617 66.78617 85.61127
#
# Poissons Ratio (x) = 0.41771 0.31512
# Poissons Ratio (y) = 0.41771 0.31512
# Poissons Ratio (z) = 0.24583 0.24583
#
# Static dielectric constant tensor:
#      x y z
#    x 3.142870 0.000000 0.000000 
#    y 0.000000 3.142870 0.000000 
#    z 0.000000 0.000000 3.379980 
# 
# 
# High freq. dielectric constant tensor:
#      x y z
#    x 1.643950 0.000000 0.000000 
#    y 0.000000 1.643950 0.000000 
#    z 0.000000 0.000000 1.670900 
# 
# From -- ./inp_files/3880.got.cif
#   From: 2010.03.12/outbox.cif.g09.slc.cpg/sg188_2_cif.got.tgz:3880.got - 2010.04.01 12:01:06.
