data_PCOD8327043
_publ_section_title
;
Structure prediction by ZEFSAII (Michael W. Deem and Ramdas Pophale) SiO2 
 PCOD8327043
Probable space group: P -6 M 2
;
_chemical_formula_sum "Si O2"
_cell_formula_units_Z 66
_cell_length_a 13.094330
_cell_length_b 13.094330
_cell_length_c 27.811857
_cell_angle_alpha 90.000000
_cell_angle_beta 90.000000
_cell_angle_gamma 120.000000
_cell_volume 4129.782530
_symmetry_space_group_name_H-M "P -6 M 2"
_symmetry_group_IT_number 187
_symmetry_cell_setting 'hexagonal'
loop_
_space_group_symop_operation_xyz
x,y,z
-x+y,-x,-z
-y,x-y,z
x,y,-z
-x+y,-x,z
-y,x-y,-z
-y,-x,-z
-x+y,y,-z
x,x-y,-z
-x+y,y,z
x,x-y,z
-y,-x,z
loop_
_atom_site_type_symbol
_atom_site_label
_atom_site_fract_x
_atom_site_fract_y
_atom_site_fract_z
Si Si1 0.100673 0.436232 0.000000
Si Si2 0.666595 0.097478 0.179040
Si Si3 0.999908 0.760134 0.632748
Si Si4 0.666348 0.098219 0.711201
Si Si5 0.335536 0.428695 0.895891
Si Si6 0.099162 0.666480 0.444696
O O1 0.031773 0.385366 0.949261
O O2 0.204449 0.408898 0.000000
O O3 0.153590 0.576795 0.000000
O O4 0.562870 0.125740 0.168495
O O5 0.787434 0.212566 0.166611
O O6 0.661735 0.056952 0.234000
O O7 0.657837 0.995600 0.144261
O O8 0.887966 0.775932 0.624051
O O9 0.985021 0.680868 0.679080
O O10 0.013626 0.695621 0.586119
O O11 0.112814 0.887186 0.641550
O O12 0.542016 0.084032 0.695060
O O13 0.764920 0.235081 0.705126
O O14 0.212390 0.424779 0.892309
O O15 0.438376 0.561625 0.885414
O O16 0.062428 0.662744 0.500000
O O17 0.083696 0.541848 0.428331
O O18 0.235098 0.764903 0.436451
#
# Coordination Sequence:
#
# PCOD8327043 Si02
#       6
#     6  12  12  12  12  12
#     4   8  13  22  37  58  82 108 138 170 206 248
#     4   9  17  29  45  64  86 113 144 178 216 260
#     4  10  20  32  46  65  91 122 152 181 215 258
#     4   9  17  30  48  67  85 109 145 187 226 261
#     4   9  16  26  42  63  86 110 137 172 213 256
#     4   9  17  30  49  71  92 114 142 178 218 257
#
# _framework density 15.981472
#
# number of rings (size 3 to 8) (size 9 to 14) (size 15 to 20)
#    0.000    2.909    0.000    1.545    0.000    4.727 
#    0.000    0.455    0.000    2.182    0.000    1.273 
#    0.000    0.000    0.000    0.000    0.000    0.000 
#
# Total GULP energy -818058.145372 kJ/mol
# GULP energy per Si atom -12394.820384 kJ/mol
# Density = 1.594510 g / cm^3
# Si number density = 15.981472 Si / 1000 Ang^3
#
#
#
# Elastic Constant Matrix: (Units=GPa)
#
#
# Indices 1 2 3 4 5 6 
#
# 1 94.4527 52.9682 63.7020 0.0000 -0.0001 0.0000
# 2 52.9682 94.4527 63.7020 0.0000 0.0001 0.0000
# 3 63.7020 63.7020 110.8168 0.0000 0.0000 0.0000
# 4 0.0000 0.0000 0.0000 25.5377 0.0000 0.0001
# 5 -0.0001 0.0001 0.0000 0.0000 25.5377 0.0000
# 6 0.0000 0.0000 0.0000 0.0001 0.0000 20.7423
#
#
#
# Elastic Compliance Matrix: (Units=1/GPa)
#
#
# Indices 1 2 3 4 5 6 
#
# 1 0.018793 -0.005313 -0.007749 0.000000 0.000000 0.000000
# 2 -0.005313 0.018793 -0.007749 0.000000 0.000000 0.000000
# 3 -0.007749 -0.007749 0.017933 0.000000 0.000000 0.000000
# 4 0.000000 0.000000 0.000000 0.039158 0.000000 0.000000
# 5 0.000000 0.000000 0.000000 0.000000 0.039158 0.000000
# 6 0.000000 0.000000 0.000000 0.000000 0.000000 0.048211
#
#
# Mechanical properties :
#
#
# Convention : Reuss Voigt Hill
#
# Bulk Modulus (GPa) = 71.95693 73.38522 72.67107
# Shear Modulus (GPa) = 21.90124 22.32020 22.11072
#
# Velocity S-wave (km/s) = 3.70593 3.74121 3.72361
# Velocity P-wave (km/s) = 7.96460 8.04244 8.00361
#
# Compressibility (1/GPa) = 0.01389720
#
# Stress axis : x y z
#
# Youngs Moduli (GPa) = 53.21216 53.21216 55.76430
#
# Poissons Ratio (x) = 0.28270 0.43211
# Poissons Ratio (y) = 0.28270 0.43211
# Poissons Ratio (z) = 0.41233 0.41233
#
# Static dielectric constant tensor:
#      x y z
#    x 2.892660 0.000000 0.000000 
#    y 0.000000 2.892660 0.000000 
#    z 0.000000 0.000000 3.338690 
# 
# 
# High freq. dielectric constant tensor:
#      x y z
#    x 1.599560 0.000000 0.000000 
#    y 0.000000 1.599560 0.000000 
#    z 0.000000 0.000000 1.626960 
# 
# From -- ./inp_files/4412.got.cif
#   From: 2010.03.12/outbox.cif.g09.slc.cpg/sg187_3_cif.got.tgz:4412.got - 2010.04.01 11:58:23.
