data_PCOD8327932
_publ_section_title
;
Structure prediction by ZEFSAII (Michael W. Deem and Ramdas Pophale) SiO2 
 PCOD8327932
Probable space group: P -6 2 C
;
_chemical_formula_sum "Si O2"
_cell_formula_units_Z 54
_cell_length_a 22.303807
_cell_length_b 22.303807
_cell_length_c 10.452069
_cell_angle_alpha 90.000000
_cell_angle_beta 90.000000
_cell_angle_gamma 120.000000
_cell_volume 4502.885425
_symmetry_space_group_name_H-M "P -6 2 C"
_symmetry_group_IT_number 190
_symmetry_cell_setting 'hexagonal'
loop_
_space_group_symop_operation_xyz
x,y,z
-x+y,-x,1/2-z
-y,x-y,z
x,y,1/2-z
-x+y,-x,z
-y,x-y,1/2-z
x-y,-y,-z
-x,-x+y,-z
y,x,-z
y,x,1/2+z
x-y,-y,1/2+z
-x,-x+y,1/2+z
loop_
_atom_site_type_symbol
_atom_site_label
_atom_site_fract_x
_atom_site_fract_y
_atom_site_fract_z
Si Si1 0.665464 0.462416 0.394349
Si Si2 0.737090 0.416441 0.750000
Si Si3 0.448991 0.051730 0.106519
Si Si4 0.538585 0.947010 0.894696
Si Si5 0.206208 0.668719 0.514840
O O1 0.637783 0.446854 0.250000
O O2 0.657360 0.527455 0.440149
O O3 0.616618 0.392139 0.469636
O O4 0.744177 0.480311 0.402115
O O5 0.739659 0.344362 0.750000
O O6 0.778225 0.467040 0.633194
O O7 0.415452 0.036041 0.250000
O O8 0.515915 0.043242 0.110222
O O9 0.395149 0.000000 0.000000
O O10 0.570465 0.959326 0.750000
O O11 0.517754 0.870828 0.943678
O O12 0.592699 0.000000 0.000000
#
# Coordination Sequence:
#
# PCOD8327932 Si02
#       5
#    12   6  12  12  12
#     4  10  17  26  40  52  66  86 109 140 171 205
#     4  10  18  30  34  52  74  90 108 128 180 220
#     4   8  15  27  37  51  65  83 108 131 162 200
#     4   9  18  29  40  53  66  88 112 136 167 201
#     4  11  18  28  38  52  72  86 113 139 171 215
#
# _framework density 11.99231
#
# number of rings (size 3 to 8) (size 9 to 14) (size 15 to 20)
#    0.222    2.222    2.222    3.778    1.556    0.000 
#    8.000    0.000    0.000    0.000    0.000    0.000 
#    0.000    0.000    0.000    0.000    0.000    0.000 
#
# Total GULP energy -669158.754786 kJ/mol
# GULP energy per Si atom -12391.828792 kJ/mol
# Density = 1.196501 g / cm^3
# Si number density = 11.992310 Si / 1000 Ang^3
#
#
#
# Elastic Constant Matrix: (Units=GPa)
#
#
# Indices 1 2 3 4 5 6 
#
# 1 43.8473 27.8087 23.1530 0.0000 0.0000 0.0000
# 2 27.8087 43.8473 23.1530 0.0000 0.0000 0.0000
# 3 23.1530 23.1530 74.6147 0.0000 0.0000 0.0000
# 4 0.0000 0.0000 0.0000 13.5215 0.0000 0.0000
# 5 0.0000 0.0000 0.0000 0.0000 13.5215 0.0000
# 6 0.0000 0.0000 0.0000 0.0000 0.0000 8.0193
#
#
#
# Elastic Compliance Matrix: (Units=1/GPa)
#
#
# Indices 1 2 3 4 5 6 
#
# 1 0.039903 -0.022447 -0.005417 0.000000 0.000000 0.000000
# 2 -0.022447 0.039903 -0.005417 0.000000 0.000000 0.000000
# 3 -0.005417 -0.005417 0.016764 0.000000 0.000000 0.000000
# 4 0.000000 0.000000 0.000000 0.073956 0.000000 0.000000
# 5 0.000000 0.000000 0.000000 0.000000 0.073956 0.000000
# 6 0.000000 0.000000 0.000000 0.000000 0.000000 0.124699
#
#
# Mechanical properties :
#
#
# Convention : Reuss Voigt Hill
#
# Bulk Modulus (GPa) = 33.32311 34.50429 33.91370
# Shear Modulus (GPa) = 11.21723 12.89212 12.05468
#
# Velocity S-wave (km/s) = 3.06170 3.28233 3.17393
# Velocity P-wave (km/s) = 6.35185 6.57262 6.46318
#
# Compressibility (1/GPa) = 0.03000921
#
# Stress axis : x y z
#
# Youngs Moduli (GPa) = 25.06099 25.06099 59.65264
#
# Poissons Ratio (x) = 0.56254 0.32311
# Poissons Ratio (y) = 0.56254 0.32311
# Poissons Ratio (z) = 0.13574 0.13574
#
# Static dielectric constant tensor:
#      x y z
#    x 2.280390 0.000000 0.000000 
#    y 0.000000 2.280390 0.000000 
#    z 0.000000 0.000000 2.747700 
# 
# 
# High freq. dielectric constant tensor:
#      x y z
#    x 1.411380 0.000000 0.000000 
#    y 0.000000 1.411380 0.000000 
#    z 0.000000 0.000000 1.477020 
# 
# From -- ./inp_files/1128.got.cif
#   From: 2010.06.25/outbox.cif.g09.slc.cpg/sg190_1_cif.got.tgz:1128.got - 2010.06.28 13:08:06.
