data_PCOD8327803
_publ_section_title
;
Structure prediction by ZEFSAII (Michael W. Deem and Ramdas Pophale) SiO2 
 PCOD8327803
Probable space group: P -6 2 M
;
_chemical_formula_sum "Si O2"
_cell_formula_units_Z 72
_cell_length_a 14.474066
_cell_length_b 14.474066
_cell_length_c 18.490045
_cell_angle_alpha 90.000000
_cell_angle_beta 90.000000
_cell_angle_gamma 120.000000
_cell_volume 3354.669167
_symmetry_space_group_name_H-M "P -6 2 M"
_symmetry_group_IT_number 189
_symmetry_cell_setting 'hexagonal'
loop_
_space_group_symop_operation_xyz
x,y,z
-x+y,-x,-z
-y,x-y,z
x,y,-z
-x+y,-x,z
-y,x-y,-z
x-y,-y,-z
-x,-x+y,-z
y,x,-z
y,x,z
x-y,-y,z
-x,-x+y,z
loop_
_atom_site_type_symbol
_atom_site_label
_atom_site_fract_x
_atom_site_fract_y
_atom_site_fract_z
Si Si1 0.322700 0.115938 0.630611
Si Si2 0.759129 0.878715 0.214438
Si Si3 0.875910 0.537534 0.578336
Si Si4 0.475364 0.878901 0.918022
Si Si5 0.530701 0.724867 0.838894
Si Si6 0.119738 0.520486 0.303310
O O1 0.271737 0.135047 0.701762
O O2 0.359958 0.218818 0.580551
O O3 0.428498 0.110576 0.645150
O O4 0.236297 0.000000 0.595888
O O5 0.853907 0.853907 0.199322
O O6 0.657542 0.795969 0.168377
O O7 0.798327 0.000000 0.191316
O O8 0.830598 0.480778 0.500000
O O9 0.827323 0.457493 0.647851
O O10 0.000000 0.577391 0.580708
O O11 0.486699 0.802655 0.860623
O O12 0.360535 0.867777 0.902205
O O13 0.568645 0.000000 0.906300
O O14 0.477754 0.842660 0.000000
O O15 0.470337 0.661827 0.765713
O O16 0.000000 0.487905 0.275663
#
# Coordination Sequence:
#
# PCOD8327803 Si02
#       6
#    12  12  12  12  12  12
#     4   9  19  36  57  83 117 156 203 257 313 377
#     4  10  20  36  60  92 127 164 209 263 319 371
#     4  10  21  37  57  83 120 163 207 260 319 380
#     4  11  24  41  63  93 128 168 209 252 315 389
#     4  11  22  39  62  90 126 165 209 264 314 373
#     4   9  20  37  58  84 116 157 206 255 310 371
#
# _framework density 21.462624999999999
#
# number of rings (size 3 to 8) (size 9 to 14) (size 15 to 20)
#    0.000    2.000    0.000    4.500    4.667    1.000 
#    1.000    1.667    0.000    0.333    0.000    0.000 
#    0.000    8.000    0.000    0.000    0.000    0.000 
#
# Total GULP energy -892209.874380 kJ/mol
# GULP energy per Si atom -12391.803811 kJ/mol
# Density = 2.141377 g / cm^3
# Si number density = 21.462625 Si / 1000 Ang^3
#
#
#
# Elastic Constant Matrix: (Units=GPa)
#
#
# Indices 1 2 3 4 5 6 
#
# 1 97.0125 33.1661 54.1792 0.0000 0.0000 0.0000
# 2 33.1661 97.0125 54.1792 0.0000 0.0000 0.0000
# 3 54.1792 54.1792 112.6053 0.0000 0.0000 0.0000
# 4 0.0000 0.0000 0.0000 22.6270 0.0000 0.0000
# 5 0.0000 0.0000 0.0000 0.0000 22.6270 0.0000
# 6 0.0000 0.0000 0.0000 0.0000 0.0000 31.9232
#
#
#
# Elastic Compliance Matrix: (Units=1/GPa)
#
#
# Indices 1 2 3 4 5 6 
#
# 1 0.014238 -0.001425 -0.006165 0.000000 0.000000 0.000000
# 2 -0.001425 0.014238 -0.006165 0.000000 0.000000 0.000000
# 3 -0.006165 -0.006165 0.014813 0.000000 0.000000 0.000000
# 4 0.000000 0.000000 0.000000 0.044195 0.000000 0.000000
# 5 0.000000 0.000000 0.000000 0.000000 0.044195 0.000000
# 6 0.000000 0.000000 0.000000 0.000000 0.000000 0.031325
#
#
# Mechanical properties :
#
#
# Convention : Reuss Voigt Hill
#
# Bulk Modulus (GPa) = 63.37258 65.51993 64.44625
# Shear Modulus (GPa) = 25.53965 26.44248 25.99107
#
# Velocity S-wave (km/s) = 3.45332 3.51383 3.48371
# Velocity P-wave (km/s) = 6.74475 6.85977 6.80250
#
# Compressibility (1/GPa) = 0.01577969
#
# Stress axis : x y z
#
# Youngs Moduli (GPa) = 70.23438 70.23438 67.50749
#
# Poissons Ratio (x) = 0.10005 0.41619
# Poissons Ratio (y) = 0.10005 0.41619
# Poissons Ratio (z) = 0.43300 0.43300
#
# Static dielectric constant tensor:
#      x y z
#    x 3.961460 0.000000 0.000000 
#    y 0.000000 3.961460 0.000000 
#    z 0.000000 0.000000 3.748080 
# 
# 
# High freq. dielectric constant tensor:
#      x y z
#    x 1.839370 0.000000 0.000000 
#    y 0.000000 1.839370 0.000000 
#    z 0.000000 0.000000 1.821410 
# 
# From -- ./inp_files/3093.got.cif
#   From: 2010.03.12/outbox.cif.g09.slc.cpg/sg189_2_cif.got.tgz:3093.got - 2010.04.01 12:03:36.
