data_PCOD8327998
_publ_section_title
;
Structure prediction by ZEFSAII (Michael W. Deem and Ramdas Pophale) SiO2 
 PCOD8327998
Probable space group: P -6 2 C
;
_chemical_formula_sum "Si O2"
_cell_formula_units_Z 72
_cell_length_a 23.788241
_cell_length_b 23.788241
_cell_length_c 8.709164
_cell_angle_alpha 90.000000
_cell_angle_beta 90.000000
_cell_angle_gamma 120.000000
_cell_volume 4268.072223
_symmetry_space_group_name_H-M "P -6 2 C"
_symmetry_group_IT_number 190
_symmetry_cell_setting 'hexagonal'
loop_
_space_group_symop_operation_xyz
x,y,z
-x+y,-x,1/2-z
-y,x-y,z
x,y,1/2-z
-x+y,-x,z
-y,x-y,1/2-z
x-y,-y,-z
-x,-x+y,-z
y,x,-z
y,x,1/2+z
x-y,-y,1/2+z
-x,-x+y,1/2+z
loop_
_atom_site_type_symbol
_atom_site_label
_atom_site_fract_x
_atom_site_fract_y
_atom_site_fract_z
Si Si1 0.135586 0.068650 0.569879
Si Si2 0.524476 0.265359 0.069844
Si Si3 0.068792 0.264044 0.430534
Si Si4 0.590653 0.185379 0.433180
Si Si5 0.530402 0.599907 0.431921
Si Si6 0.399164 0.139749 0.068580
O O1 0.124913 0.065027 0.750000
O O2 0.125235 0.125235 0.500000
O O3 0.207971 0.085092 0.526072
O O4 0.082833 0.000000 0.500000
O O5 0.532369 0.274170 0.250000
O O6 0.547286 0.336691 0.002158
O O7 0.570723 0.238087 0.013021
O O8 0.450239 0.214390 0.023763
O O9 0.066222 0.272347 0.250000
O O10 0.124855 0.329956 0.504663
O O11 0.000000 0.248024 0.500000
O O12 0.584023 0.175313 0.250000
O O13 0.543051 0.117327 0.513450
O O14 0.534234 0.600523 0.250000
O O15 0.549966 0.549966 0.500000
O O16 0.579866 0.671586 0.493474
O O17 0.396575 0.129378 0.250000
#
# Coordination Sequence:
#
# PCOD8327998 Si02
#       6
#    12  12  12  12  12  12
#     4  10  20  33  50  71  97 126 158 193 235 281
#     4   8  15  27  48  73  96 123 155 189 228 274
#     4  10  20  33  49  71  97 127 159 197 239 282
#     4   9  16  30  50  73  98 126 159 193 230 279
#     4  11  21  33  48  69  96 127 160 198 240 283
#     4  10  19  32  50  73  98 127 159 194 236 285
#
# _framework density 16.869441999999999
#
# number of rings (size 3 to 8) (size 9 to 14) (size 15 to 20)
#    0.000    2.333    0.000    5.000    0.000    3.333 
#    0.000    4.167    0.000    1.000    0.000    2.333 
#    0.000    0.000    0.000    0.000    0.000    0.000 
#
# Total GULP energy -892791.447564 kJ/mol
# GULP energy per Si atom -12399.881216 kJ/mol
# Density = 1.683105 g / cm^3
# Si number density = 16.869442 Si / 1000 Ang^3
#
#
#
# Elastic Constant Matrix: (Units=GPa)
#
#
# Indices 1 2 3 4 5 6 
#
# 1 127.0322 73.1734 45.8077 0.0000 0.0000 0.0000
# 2 73.1734 127.0322 45.8077 0.0000 0.0000 0.0000
# 3 45.8077 45.8077 82.6937 0.0000 0.0000 0.0000
# 4 0.0000 0.0000 0.0000 25.4180 0.0000 0.0000
# 5 0.0000 0.0000 0.0000 0.0000 25.4180 0.0000
# 6 0.0000 0.0000 0.0000 0.0000 0.0000 26.9294
#
#
#
# Elastic Compliance Matrix: (Units=1/GPa)
#
#
# Indices 1 2 3 4 5 6 
#
# 1 0.012629 -0.005938 -0.003706 0.000000 0.000000 0.000000
# 2 -0.005938 0.012629 -0.003706 0.000000 0.000000 0.000000
# 3 -0.003706 -0.003706 0.016199 0.000000 0.000000 0.000000
# 4 0.000000 0.000000 0.000000 0.039342 0.000000 0.000000
# 5 0.000000 0.000000 0.000000 0.000000 0.039342 0.000000
# 6 0.000000 0.000000 0.000000 0.000000 0.000000 0.037134
#
#
# Mechanical properties :
#
#
# Convention : Reuss Voigt Hill
#
# Bulk Modulus (GPa) = 67.77198 74.03728 70.90463
# Shear Modulus (GPa) = 26.46959 27.01768 26.74364
#
# Velocity S-wave (km/s) = 3.96547 4.00631 3.98594
# Velocity P-wave (km/s) = 7.82484 8.08606 7.95652
#
# Compressibility (1/GPa) = 0.01475536
#
# Stress axis : x y z
#
# Youngs Moduli (GPa) = 79.18279 79.18279 61.73181
#
# Poissons Ratio (x) = 0.47019 0.22880
# Poissons Ratio (y) = 0.47019 0.22880
# Poissons Ratio (z) = 0.29348 0.29348
#
# Static dielectric constant tensor:
#      x y z
#    x 3.229140 0.000000 0.000000 
#    y 0.000000 3.229140 0.000000 
#    z 0.000000 0.000000 3.092230 
# 
# 
# High freq. dielectric constant tensor:
#      x y z
#    x 1.642460 0.000000 0.000000 
#    y 0.000000 1.642460 0.000000 
#    z 0.000000 0.000000 1.648690 
# 
# From -- ./inp_files/1195.got.cif
#   From: 2010.06.25/outbox.cif.g09.slc.cpg/sg190_1_cif.got.tgz:1195.got - 2010.06.28 13:08:06.
