data_PCOD8327869
_publ_section_title
;
Structure prediction by ZEFSAII (Michael W. Deem and Ramdas Pophale) SiO2 
 PCOD8327869
Probable space group: P -6 2 M
;
_chemical_formula_sum "Si O2"
_cell_formula_units_Z 40
_cell_length_a 16.253448
_cell_length_b 16.253448
_cell_length_c 9.016162
_cell_angle_alpha 90.000000
_cell_angle_beta 90.000000
_cell_angle_gamma 120.000000
_cell_volume 2062.734586
_symmetry_space_group_name_H-M "P -6 2 M"
_symmetry_group_IT_number 189
_symmetry_cell_setting 'hexagonal'
loop_
_space_group_symop_operation_xyz
x,y,z
-x+y,-x,-z
-y,x-y,z
x,y,-z
-x+y,-x,z
-y,x-y,-z
x-y,-y,-z
-x,-x+y,-z
y,x,-z
y,x,z
x-y,-y,z
-x,-x+y,z
loop_
_atom_site_type_symbol
_atom_site_label
_atom_site_fract_x
_atom_site_fract_y
_atom_site_fract_z
Si Si1 0.896434 0.255986 0.331304
Si Si2 0.892907 0.601262 0.829987
Si Si3 0.411035 0.848386 0.669502
Si Si4 0.333334 0.666668 0.173814
O O1 0.869696 0.219575 0.500000
O O2 0.813561 0.177919 0.229716
O O3 0.913627 0.363329 0.319719
O O4 0.000000 0.269812 0.287500
O O5 0.891082 0.513703 0.743698
O O6 0.000000 0.689650 0.817054
O O7 0.865111 0.568762 0.000000
O O8 0.421127 0.823289 0.500000
O O9 0.332345 0.757373 0.760277
O O10 0.333334 0.666668 0.000000
#
# Coordination Sequence:
#
# PCOD8327869 Si02
#       4
#    12  12  12   4
#     4  10  22  39  60  85 112 146 190 237 286 339
#     4  11  24  39  57  84 116 152 192 234 284 339
#     4  11  21  36  58  84 115 156 195 230 276 329
#     4  12  22  32  52  84 121 158 193 231 274 323
#
# _framework density 19.391735000000001
#
# number of rings (size 3 to 8) (size 9 to 14) (size 15 to 20)
#    0.000    1.200    3.000    3.600    0.000    5.400 
#    0.000    0.000    0.000    0.600    0.000    0.000 
#    0.000    0.000    0.000    0.000    0.000    0.000 
#
# Total GULP energy -495696.649500 kJ/mol
# GULP energy per Si atom -12392.416237 kJ/mol
# Density = 1.934760 g / cm^3
# Si number density = 19.391735 Si / 1000 Ang^3
#
#
#
# Elastic Constant Matrix: (Units=GPa)
#
#
# Indices 1 2 3 4 5 6 
#
# 1 78.8856 44.1317 51.3177 0.0001 0.0001 -0.0002
# 2 44.1317 78.8841 51.3178 0.0001 0.0001 -0.0002
# 3 51.3177 51.3178 157.5500 0.0001 0.0001 0.0001
# 4 0.0001 0.0001 0.0001 26.6330 0.0000 0.0000
# 5 0.0001 0.0001 0.0001 0.0000 26.6329 0.0000
# 6 -0.0002 -0.0002 0.0001 0.0000 0.0000 17.3762
#
#
#
# Elastic Compliance Matrix: (Units=1/GPa)
#
#
# Indices 1 2 3 4 5 6 
#
# 1 0.019968 -0.008806 -0.003636 0.000000 0.000000 0.000000
# 2 -0.008806 0.019969 -0.003636 0.000000 0.000000 0.000000
# 3 -0.003636 -0.003636 0.008716 0.000000 0.000000 0.000000
# 4 0.000000 0.000000 0.000000 0.037547 0.000000 0.000000
# 5 0.000000 0.000000 0.000000 0.000000 0.037547 0.000000
# 6 0.000000 0.000000 0.000000 0.000000 0.000000 0.057550
#
#
# Mechanical properties :
#
#
# Convention : Reuss Voigt Hill
#
# Bulk Modulus (GPa) = 60.61628 67.65044 64.13336
# Shear Modulus (GPa) = 22.83606 25.36527 24.10066
#
# Velocity S-wave (km/s) = 3.43537 3.62061 3.52921
# Velocity P-wave (km/s) = 6.86020 7.24158 7.05347
#
# Compressibility (1/GPa) = 0.01649722
#
# Stress axis : x y z
#
# Youngs Moduli (GPa) = 50.07969 50.07842 114.73449
#
# Poissons Ratio (x) = 0.44099 0.41715
# Poissons Ratio (y) = 0.44100 0.41717
# Poissons Ratio (z) = 0.18208 0.18208
#
# Static dielectric constant tensor:
#      x y z
#    x 3.428980 0.000000 0.000000 
#    y 0.000000 3.428980 0.000000 
#    z 0.000000 0.000000 3.612140 
# 
# 
# High freq. dielectric constant tensor:
#      x y z
#    x 1.743430 0.000000 0.000000 
#    y 0.000000 1.743430 0.000000 
#    z 0.000000 0.000000 1.764000 
# 
# From -- ./inp_files/483.got.cif
#   From: 2010.03.12/outbox.cif.g09.slc.cpg/sg189_1_cif.got.tgz:483.got - 2010.04.01 12:03:36.
