data_PCOD8327977
_publ_section_title
;
Structure prediction by ZEFSAII (Michael W. Deem and Ramdas Pophale) SiO2 
 PCOD8327977
Probable space group: P -6 2 C
;
_chemical_formula_sum "Si O2"
_cell_formula_units_Z 72
_cell_length_a 22.798078
_cell_length_b 22.798078
_cell_length_c 8.836739
_cell_angle_alpha 90.000000
_cell_angle_beta 90.000000
_cell_angle_gamma 120.000000
_cell_volume 3977.581894
_symmetry_space_group_name_H-M "P -6 2 C"
_symmetry_group_IT_number 190
_symmetry_cell_setting 'hexagonal'
loop_
_space_group_symop_operation_xyz
x,y,z
-x+y,-x,1/2-z
-y,x-y,z
x,y,1/2-z
-x+y,-x,z
-y,x-y,1/2-z
x-y,-y,-z
-x,-x+y,-z
y,x,-z
y,x,1/2+z
x-y,-y,1/2+z
-x,-x+y,1/2+z
loop_
_atom_site_type_symbol
_atom_site_label
_atom_site_fract_x
_atom_site_fract_y
_atom_site_fract_z
Si Si1 0.800174 0.067593 0.073160
Si Si2 0.350969 0.926248 0.574584
Si Si3 0.206333 0.810436 0.572412
Si Si4 0.571038 0.190954 0.069828
Si Si5 0.066482 0.134701 0.928385
Si Si6 0.290699 0.532212 0.071239
O O1 0.790241 0.057707 0.250000
O O2 0.804043 0.136323 0.020768
O O3 0.870765 0.075913 0.018474
O O4 0.737885 0.000000 0.000000
O O5 0.364784 0.940683 0.750000
O O6 0.270066 0.885622 0.539265
O O7 0.380604 0.877944 0.519822
O O8 0.388557 0.000000 0.500000
O O9 0.207673 0.793588 0.750000
O O10 0.209287 0.755375 0.467694
O O11 0.576060 0.196328 0.250000
O O12 0.635476 0.190715 0.998338
O O13 0.572814 0.257772 0.005357
O O14 0.059749 0.127149 0.750000
O O15 0.074036 0.074036 0.000000
O O16 0.000000 0.131219 0.000000
O O17 0.296076 0.544266 0.250000
#
# Coordination Sequence:
#
# PCOD8327977 Si02
#       6
#    12  12  12  12  12  12
#     4   9  19  35  54  73  98 130 169 212 255 303
#     4   9  19  34  54  77 104 138 175 212 257 308
#     4   9  19  37  55  74 103 141 175 207 257 320
#     4  10  20  36  55  76 107 146 175 204 257 320
#     4  10  19  31  47  69  95 125 159 202 252 304
#     4  11  21  33  53  83 109 132 170 219 255 291
#
# _framework density 18.101451000000001
#
# number of rings (size 3 to 8) (size 9 to 14) (size 15 to 20)
#    0.000    2.333    0.000    4.000    0.000    5.333 
#    0.000    0.833    0.000    0.000    0.000    0.000 
#    0.000    0.000    0.000    0.000    0.000    0.000 
#
# Total GULP energy -892583.576823 kJ/mol
# GULP energy per Si atom -12396.994123 kJ/mol
# Density = 1.806025 g / cm^3
# Si number density = 18.101451 Si / 1000 Ang^3
#
#
#
# Elastic Constant Matrix: (Units=GPa)
#
#
# Indices 1 2 3 4 5 6 
#
# 1 110.5365 64.1417 40.2079 0.0000 0.0000 0.0000
# 2 64.1417 110.5365 40.2079 0.0000 0.0000 0.0000
# 3 40.2079 40.2079 71.7257 0.0000 0.0000 0.0000
# 4 0.0000 0.0000 0.0000 28.9018 0.0000 0.0000
# 5 0.0000 0.0000 0.0000 0.0000 28.9018 0.0000
# 6 0.0000 0.0000 0.0000 0.0000 0.0000 23.1974
#
#
#
# Elastic Compliance Matrix: (Units=1/GPa)
#
#
# Indices 1 2 3 4 5 6 
#
# 1 0.014635 -0.006919 -0.004325 0.000000 0.000000 0.000000
# 2 -0.006919 0.014635 -0.004325 0.000000 0.000000 0.000000
# 3 -0.004325 -0.004325 0.018792 0.000000 0.000000 0.000000
# 4 0.000000 0.000000 0.000000 0.034600 0.000000 0.000000
# 5 0.000000 0.000000 0.000000 0.000000 0.034600 0.000000
# 6 0.000000 0.000000 0.000000 0.000000 0.000000 0.043108
#
#
# Mechanical properties :
#
#
# Convention : Reuss Voigt Hill
#
# Bulk Modulus (GPa) = 59.09525 64.65705 61.87615
# Shear Modulus (GPa) = 25.36132 26.08294 25.72213
#
# Velocity S-wave (km/s) = 3.74714 3.80008 3.77370
# Velocity P-wave (km/s) = 7.17210 7.41963 7.29691
#
# Compressibility (1/GPa) = 0.01692183
#
# Stress axis : x y z
#
# Youngs Moduli (GPa) = 68.32873 68.32873 53.21541
#
# Poissons Ratio (x) = 0.47277 0.23018
# Poissons Ratio (y) = 0.47277 0.23018
# Poissons Ratio (z) = 0.29556 0.29556
#
# Static dielectric constant tensor:
#      x y z
#    x 3.436890 0.000000 0.000000 
#    y 0.000000 3.436890 0.000000 
#    z 0.000000 0.000000 3.264370 
# 
# 
# High freq. dielectric constant tensor:
#      x y z
#    x 1.696800 0.000000 0.000000 
#    y 0.000000 1.696800 0.000000 
#    z 0.000000 0.000000 1.702740 
# 
# From -- ./inp_files/1259.got.cif
#   From: 2010.06.25/outbox.cif.g09.slc.cpg/sg190_1_cif.got.tgz:1259.got - 2010.06.28 13:08:06.
