data_PCOD8327305
_publ_section_title
;
Structure prediction by ZEFSAII (Michael W. Deem and Ramdas Pophale) SiO2 
 PCOD8327305
Probable space group: P -6 C 2
;
_chemical_formula_sum "Si O2"
_cell_formula_units_Z 84
_cell_length_a 17.218911
_cell_length_b 17.218911
_cell_length_c 25.598888
_cell_angle_alpha 90.000000
_cell_angle_beta 90.000000
_cell_angle_gamma 120.000000
_cell_volume 6572.991861
_symmetry_space_group_name_H-M "P -6 C 2"
_symmetry_group_IT_number 188
_symmetry_cell_setting 'hexagonal'
loop_
_space_group_symop_operation_xyz
x,y,z
-x+y,-x,1/2-z
-y,x-y,z
x,y,1/2-z
-x+y,-x,z
-y,x-y,1/2-z
-y,-x,-z
-x+y,y,-z
x,x-y,-z
-x+y,y,1/2+z
x,x-y,1/2+z
-y,-x,1/2+z
loop_
_atom_site_type_symbol
_atom_site_label
_atom_site_fract_x
_atom_site_fract_y
_atom_site_fract_z
Si Si1 0.182945 0.183917 0.250000
Si Si2 0.844244 0.510504 0.311645
Si Si3 0.941932 0.700379 0.846331
Si Si4 0.180348 0.180299 0.559250
Si Si5 0.816083 0.817055 0.250000
Si Si6 0.999952 0.180299 0.559250
Si Si7 0.758447 0.700379 0.846331
Si Si8 0.489496 0.155756 0.311645
O O1 0.174838 0.087419 0.250000
O O2 0.235393 0.241730 0.199176
O O3 0.084027 0.168053 0.250000
O O4 0.858201 0.525973 0.250000
O O5 0.922786 0.598968 0.340180
O O6 0.853630 0.426815 0.330476
O O7 0.745669 0.491339 0.327525
O O8 0.006338 0.764607 0.800824
O O9 0.847618 0.695237 0.839986
O O10 0.922786 0.598968 0.840180
O O11 0.986562 0.739471 0.902622
O O12 0.156770 0.078385 0.568050
O O13 0.211907 0.211723 0.500000
O O14 0.092039 0.184077 0.573350
O O15 0.986562 0.247091 0.597378
O O16 0.474027 0.141799 0.250000
#
# Coordination Sequence:
#
# PCOD8327305 Si02
#       8
#     6  12  12  12   6  12  12  12
#     4  10  17  24  33  48  72 102 128 148 173 210
#     4   9  15  24  38  55  73  94 121 153 186 221
#     4   9  16  25  35  50  73  96 120 153 188 216
#     4   9  16  25  37  52  71  99 134 164 182 200
#     4  10  17  24  33  48  72 102 128 148 173 210
#     4   9  16  25  37  52  71  99 134 164 182 200
#     4   9  16  25  35  50  73  96 120 153 188 216
#     4   9  15  24  38  55  73  94 121 153 186 221
#
# _framework density 12.779567999999999
#
# number of rings (size 3 to 8) (size 9 to 14) (size 15 to 20)
#    0.000    2.857    1.429    1.571    0.000    2.286 
#    0.000    2.857    0.000    0.857    0.000    0.000 
#    0.000    2.286    0.000   12.000    0.000    4.000 
#
# Total GULP energy -1041309.017107 kJ/mol
# GULP energy per Si atom -12396.535918 kJ/mol
# Density = 1.275048 g / cm^3
# Si number density = 12.779568 Si / 1000 Ang^3
#
#
#
# Elastic Constant Matrix: (Units=GPa)
#
#
# Indices 1 2 3 4 5 6 
#
# 1 74.2541 38.6629 41.0834 0.0000 0.0000 0.0000
# 2 38.6629 74.2541 41.0834 0.0000 0.0000 0.0000
# 3 41.0834 41.0834 76.6281 0.0000 0.0000 0.0000
# 4 0.0000 0.0000 0.0000 16.4444 0.0000 0.0000
# 5 0.0000 0.0000 0.0000 0.0000 16.4444 0.0000
# 6 0.0000 0.0000 0.0000 0.0000 0.0000 17.7956
#
#
#
# Elastic Compliance Matrix: (Units=1/GPa)
#
#
# Indices 1 2 3 4 5 6 
#
# 1 0.021309 -0.006788 -0.007785 0.000000 0.000000 0.000000
# 2 -0.006788 0.021309 -0.007785 0.000000 0.000000 0.000000
# 3 -0.007785 -0.007785 0.021398 0.000000 0.000000 0.000000
# 4 0.000000 0.000000 0.000000 0.060811 0.000000 0.000000
# 5 0.000000 0.000000 0.000000 0.000000 0.060811 0.000000
# 6 0.000000 0.000000 0.000000 0.000000 0.000000 0.056194
#
#
# Mechanical properties :
#
#
# Convention : Reuss Voigt Hill
#
# Bulk Modulus (GPa) = 51.81604 51.86619 51.84112
# Shear Modulus (GPa) = 17.06586 17.09065 17.07825
#
# Velocity S-wave (km/s) = 3.65828 3.66094 3.65961
# Velocity P-wave (km/s) = 7.64709 7.65136 7.64923
#
# Compressibility (1/GPa) = 0.01929904
#
# Stress axis : x y z
#
# Youngs Moduli (GPa) = 46.92836 46.92836 46.73278
#
# Poissons Ratio (x) = 0.31854 0.36384
# Poissons Ratio (y) = 0.31854 0.36384
# Poissons Ratio (z) = 0.36536 0.36536
#
# Static dielectric constant tensor:
#      x y z
#    x 2.478660 0.000000 0.000000 
#    y 0.000000 2.478660 0.000000 
#    z 0.000000 0.000000 2.639140 
# 
# 
# High freq. dielectric constant tensor:
#      x y z
#    x 1.460410 0.000000 0.000000 
#    y 0.000000 1.460410 0.000000 
#    z 0.000000 0.000000 1.482320 
# 
# From -- ./inp_files/4319.got.cif
#   From: 2010.03.12/outbox.cif.g09.slc.cpg/sg188_3_cif.got.tgz:4319.got - 2010.04.01 12:01:06.
