data_PCOD8327412
_publ_section_title
;
Structure prediction by ZEFSAII (Michael W. Deem and Ramdas Pophale) SiO2 
 PCOD8327412
Probable space group: P -6 C 2
;
_chemical_formula_sum "Si O2"
_cell_formula_units_Z 52
_cell_length_a 11.407933
_cell_length_b 11.407933
_cell_length_c 23.495709
_cell_angle_alpha 90.000000
_cell_angle_beta 90.000000
_cell_angle_gamma 120.000000
_cell_volume 2648.092249
_symmetry_space_group_name_H-M "P -6 C 2"
_symmetry_group_IT_number 188
_symmetry_cell_setting 'hexagonal'
loop_
_space_group_symop_operation_xyz
x,y,z
-x+y,-x,1/2-z
-y,x-y,z
x,y,1/2-z
-x+y,-x,z
-y,x-y,1/2-z
-y,-x,-z
-x+y,y,-z
x,x-y,-z
-x+y,y,1/2+z
x,x-y,1/2+z
-y,-x,1/2+z
loop_
_atom_site_type_symbol
_atom_site_label
_atom_site_fract_x
_atom_site_fract_y
_atom_site_fract_z
Si Si1 0.062673 0.399440 0.500000
Si Si2 0.397219 0.332482 0.379642
Si Si3 0.180809 0.819190 0.182530
Si Si4 0.397220 0.064736 0.379641
Si Si5 0.333335 0.666668 0.682468
O O1 0.185316 0.370632 0.500000
O O2 0.121074 0.560537 0.500000
O O3 0.969275 0.330738 0.554424
O O4 0.969279 0.330740 0.445574
O O5 0.264702 0.294174 0.341763
O O6 0.437775 0.218887 0.368756
O O7 0.523393 0.476604 0.360587
O O8 0.175131 0.824859 0.250000
O O9 0.257551 0.742449 0.158849
O O10 0.264705 0.970529 0.158240
O O11 0.333334 0.666668 0.750000
#
# Coordination Sequence:
#
# PCOD8327412 Si02
#       5
#    12  12  12  12   4
#     4  10  20  36  62  94 122 153 197 252 304 360
#     4  11  23  40  63  91 125 161 201 248 305 365
#     4  11  22  39  65  91 119 157 207 256 302 355
#     4  11  23  40  63  91 125 161 201 248 305 365
#     4   9  18  36  63  91 113 148 198 258 304 347
#
# _framework density 19.636776999999999
#
# number of rings (size 3 to 8) (size 9 to 14) (size 15 to 20)
#    0.000    1.385    4.615    1.385    0.000    0.923 
#    1.385    2.308    0.000    2.769    0.000    0.000 
#    0.000    0.000    0.000    0.000    0.000    0.000 
#
# Total GULP energy -645013.809416 kJ/mol
# GULP energy per Si atom -12404.111720 kJ/mol
# Density = 1.959208 g / cm^3
# Si number density = 19.636777 Si / 1000 Ang^3
#
#
#
# Elastic Constant Matrix: (Units=GPa)
#
#
# Indices 1 2 3 4 5 6 
#
# 1 103.1402 33.1310 31.4103 0.0000 0.0000 0.0000
# 2 33.1310 103.1400 31.4104 0.0000 0.0000 0.0000
# 3 31.4103 31.4104 104.8809 0.0000 0.0000 0.0000
# 4 0.0000 0.0000 0.0000 0.5454 -0.0001 0.0000
# 5 0.0000 0.0000 0.0000 -0.0001 0.5448 0.0000
# 6 0.0000 0.0000 0.0000 0.0000 0.0000 35.0046
#
#
#
# Elastic Compliance Matrix: (Units=1/GPa)
#
#
# Indices 1 2 3 4 5 6 
#
# 1 0.011399 -0.002885 -0.002550 0.000000 0.000000 0.000000
# 2 -0.002885 0.011399 -0.002550 -0.000001 0.000000 0.000000
# 3 -0.002550 -0.002550 0.011062 0.000000 0.000000 0.000000
# 4 0.000000 -0.000001 0.000000 1.833594 0.000461 0.000000
# 5 0.000000 0.000000 0.000000 0.000461 1.835378 -0.000001
# 6 0.000000 0.000000 0.000000 0.000000 -0.000001 0.028568
#
#
# Mechanical properties :
#
#
# Convention : Reuss Voigt Hill
#
# Bulk Modulus (GPa) = 55.89604 55.89604 55.89604
# Shear Modulus (GPa) = 1.33215 21.56626 11.44920
#
# Velocity S-wave (km/s) = 0.82454 3.31759 2.41726
# Velocity P-wave (km/s) = 5.42524 6.57282 6.02641
#
# Compressibility (1/GPa) = 0.01789035
#
# Stress axis : x y z
#
# Youngs Moduli (GPa) = 87.72863 87.72842 90.40079
#
# Poissons Ratio (x) = 0.25310 0.23050
# Poissons Ratio (y) = 0.25310 0.23050
# Poissons Ratio (z) = 0.22369 0.22369
#
# Static dielectric constant tensor:
#      x y z
#    x 3.453140 0.000000 0.000000 
#    y 0.000000 3.453140 0.000000 
#    z 0.000000 0.000000 3.497770 
# 
# 
# High freq. dielectric constant tensor:
#      x y z
#    x 1.758550 0.000000 0.000000 
#    y 0.000000 1.758550 0.000000 
#    z 0.000000 0.000000 1.766350 
# 
# From -- ./inp_files/3613.got.cif
#   From: 2010.03.12/outbox.cif.g09.slc.cpg/sg188_2_cif.got.tgz:3613.got - 2010.04.01 12:01:06.
