data_PCOD8327174
_publ_section_title
;
Structure prediction by ZEFSAII (Michael W. Deem and Ramdas Pophale) SiO2 
 PCOD8327174
Probable space group: P -6 M 2
;
_chemical_formula_sum "Si O2"
_cell_formula_units_Z 72
_cell_length_a 12.578309
_cell_length_b 12.578309
_cell_length_c 30.517010
_cell_angle_alpha 90.000000
_cell_angle_beta 90.000000
_cell_angle_gamma 120.000000
_cell_volume 4181.355862
_symmetry_space_group_name_H-M "P -6 M 2"
_symmetry_group_IT_number 187
_symmetry_cell_setting 'hexagonal'
loop_
_space_group_symop_operation_xyz
x,y,z
-x+y,-x,-z
-y,x-y,z
x,y,-z
-x+y,-x,z
-y,x-y,-z
-y,-x,-z
-x+y,y,-z
x,x-y,-z
-x+y,y,z
x,x-y,z
-y,-x,z
loop_
_atom_site_type_symbol
_atom_site_label
_atom_site_fract_x
_atom_site_fract_y
_atom_site_fract_z
Si Si1 0.999852 0.244693 0.341091
Si Si2 0.248458 0.001587 0.500000
Si Si3 0.335081 0.419067 0.917876
Si Si4 0.756287 0.755984 0.241406
Si Si5 0.666344 0.086085 0.163641
Si Si6 0.916868 0.582054 0.000000
Si Si7 0.418974 0.086538 0.581417
O O1 0.128618 0.257236 0.354109
O O2 0.000614 0.286775 0.291177
O O3 0.973786 0.331705 0.372144
O O4 0.896707 0.103294 0.348214
O O5 0.208693 0.104347 0.500000
O O6 0.325531 0.011689 0.542915
O O7 0.129259 0.870742 0.500000
O O8 0.203887 0.407773 0.920845
O O9 0.438377 0.561624 0.920849
O O10 0.344376 0.359561 0.872783
O O11 0.348689 0.343547 0.957443
O O12 0.739831 0.869916 0.228043
O O13 0.672049 0.641446 0.210452
O O14 0.899088 0.798175 0.235648
O O15 0.560407 0.120814 0.165385
O O16 0.792086 0.207915 0.151789
O O17 0.794406 0.588812 0.000000
O O18 0.880265 0.440133 0.000000
O O19 0.537975 0.075949 0.574733
O O20 0.457751 0.228876 0.579807
#
# Coordination Sequence:
#
# PCOD8327174 Si02
#       7
#    12   6  12  12  12   6  12
#     4   9  17  30  50  74  98 125 159 202 248 290
#     4  10  20  34  54  78 100 122 152 196 246 290
#     4  10  20  34  53  75  99 128 163 204 246 288
#     4   9  17  30  49  73  99 127 160 199 245 294
#     4  10  20  33  50  72  99 131 165 202 244 291
#     4  10  20  34  54  78 104 134 166 200 238 284
#     4  10  20  33  50  72  99 131 164 197 235 282
#
# _framework density 17.219296
#
# number of rings (size 3 to 8) (size 9 to 14) (size 15 to 20)
#    0.000    2.333    0.000    3.000    0.000    2.000 
#    0.000    5.000    0.000   12.667    0.000    0.000 
#    0.000    0.000    0.000    0.000    0.000    0.000 
#
# Total GULP energy -892989.430309 kJ/mol
# GULP energy per Si atom -12402.630977 kJ/mol
# Density = 1.718010 g / cm^3
# Si number density = 17.219296 Si / 1000 Ang^3
#
#
#
# Elastic Constant Matrix: (Units=GPa)
#
#
# Indices 1 2 3 4 5 6 
#
# 1 114.0430 72.3204 57.9092 0.0000 0.0006 0.0000
# 2 72.3204 114.0430 57.9092 0.0000 -0.0006 0.0000
# 3 57.9092 57.9092 112.2969 0.0000 0.0000 0.0000
# 4 0.0000 0.0000 0.0000 18.6500 0.0000 -0.0006
# 5 0.0006 -0.0006 0.0000 0.0000 18.6500 0.0000
# 6 0.0000 0.0000 0.0000 -0.0006 0.0000 20.8613
#
#
#
# Elastic Compliance Matrix: (Units=1/GPa)
#
#
# Indices 1 2 3 4 5 6 
#
# 1 0.015932 -0.008036 -0.004072 0.000000 -0.000001 0.000000
# 2 -0.008036 0.015932 -0.004072 0.000000 0.000001 0.000000
# 3 -0.004072 -0.004072 0.013105 0.000000 0.000000 0.000000
# 4 0.000000 0.000000 0.000000 0.053619 0.000000 0.000002
# 5 -0.000001 0.000001 0.000000 0.000000 0.053619 0.000000
# 6 0.000000 0.000000 0.000000 0.000002 0.000000 0.047936
#
#
# Mechanical properties :
#
#
# Convention : Reuss Voigt Hill
#
# Bulk Modulus (GPa) = 79.30543 79.62895 79.46719
# Shear Modulus (GPa) = 21.12323 21.78185 21.45254
#
# Velocity S-wave (km/s) = 3.50625 3.56050 3.53348
# Velocity P-wave (km/s) = 7.90872 7.95281 7.93080
#
# Compressibility (1/GPa) = 0.01260948
#
# Stress axis : x y z
#
# Youngs Moduli (GPa) = 62.76599 62.76599 76.30830
#
# Poissons Ratio (x) = 0.50437 0.31073
# Poissons Ratio (y) = 0.50437 0.31073
# Poissons Ratio (z) = 0.25559 0.25559
#
# Static dielectric constant tensor:
#      x y z
#    x 3.069510 0.000000 0.000000 
#    y 0.000000 3.069510 0.000000 
#    z 0.000000 0.000000 3.483320 
# 
# 
# High freq. dielectric constant tensor:
#      x y z
#    x 1.657440 0.000000 0.000000 
#    y 0.000000 1.657440 0.000000 
#    z 0.000000 0.000000 1.683100 
# 
# From -- ./inp_files/4585.got.cif
#   From: 2010.03.12/outbox.cif.g09.slc.cpg/sg187_3_cif.got.tgz:4585.got - 2010.04.01 11:58:23.
