data_PCOD8327982
_publ_section_title
;
Structure prediction by ZEFSAII (Michael W. Deem and Ramdas Pophale) SiO2 
 PCOD8327982
Probable space group: P -6 2 C
;
_chemical_formula_sum "Si O2"
_cell_formula_units_Z 72
_cell_length_a 23.662800
_cell_length_b 23.662800
_cell_length_c 8.927601
_cell_angle_alpha 90.000000
_cell_angle_beta 90.000000
_cell_angle_gamma 120.000000
_cell_volume 4329.100519
_symmetry_space_group_name_H-M "P -6 2 C"
_symmetry_group_IT_number 190
_symmetry_cell_setting 'hexagonal'
loop_
_space_group_symop_operation_xyz
x,y,z
-x+y,-x,1/2-z
-y,x-y,z
x,y,1/2-z
-x+y,-x,z
-y,x-y,1/2-z
x-y,-y,-z
-x,-x+y,-z
y,x,-z
y,x,1/2+z
x-y,-y,1/2+z
-x,-x+y,1/2+z
loop_
_atom_site_type_symbol
_atom_site_label
_atom_site_fract_x
_atom_site_fract_y
_atom_site_fract_z
Si Si1 0.257526 0.857411 0.423926
Si Si2 0.407245 0.932037 0.424985
Si Si3 0.196310 0.933084 0.924653
Si Si4 0.406804 0.260084 0.425795
Si Si5 0.193846 0.260477 0.922515
Si Si6 0.522154 0.931316 0.573084
O O1 0.242057 0.858173 0.250000
O O2 0.332434 0.878467 0.451873
O O3 0.242697 0.908416 0.507074
O O4 0.214525 0.784432 0.488479
O O5 0.424619 0.944385 0.250000
O O6 0.450837 0.905246 0.502455
O O7 0.422684 0.000000 0.500000
O O8 0.212237 0.944339 0.750000
O O9 0.120603 0.881044 0.954676
O O10 0.210199 0.000000 0.000000
O O11 0.404789 0.245061 0.250000
O O12 0.334221 0.240642 0.481642
O O13 0.456391 0.334866 0.465438
O O14 0.207450 0.257589 0.750000
O O15 0.209187 0.209187 0.000000
O O16 0.520468 0.940997 0.750000
O O17 0.573715 0.000000 0.500000
#
# Coordination Sequence:
#
# PCOD8327982 Si02
#       6
#    12  12  12  12  12  12
#     4  10  20  32  49  72  96 126 160 194 237 284
#     4  10  20  32  47  70  97 125 158 194 234 280
#     4  10  20  33  49  71  98 126 158 196 237 281
#     4   9  19  33  48  70  98 125 156 194 234 278
#     4   9  18  31  47  69  96 123 152 189 230 274
#     4  10  19  31  49  72  97 127 159 193 236 281
#
# _framework density 16.631630000000001
#
# number of rings (size 3 to 8) (size 9 to 14) (size 15 to 20)
#    0.000    2.333    0.000    5.000    0.000    8.667 
#    0.000    0.000    0.000    1.000    0.000    0.000 
#    0.000    0.000    0.000    0.000    0.000    0.000 
#
# Total GULP energy -892873.639874 kJ/mol
# GULP energy per Si atom -12401.022776 kJ/mol
# Density = 1.659378 g / cm^3
# Si number density = 16.631630 Si / 1000 Ang^3
#
#
#
# Elastic Constant Matrix: (Units=GPa)
#
#
# Indices 1 2 3 4 5 6 
#
# 1 114.2174 64.6128 62.6358 0.0000 0.0000 0.0000
# 2 64.6128 114.2174 62.6358 0.0000 0.0000 0.0000
# 3 62.6358 62.6358 104.7708 0.0000 0.0000 0.0000
# 4 0.0000 0.0000 0.0000 29.5953 0.0000 0.0000
# 5 0.0000 0.0000 0.0000 0.0000 29.5953 0.0000
# 6 0.0000 0.0000 0.0000 0.0000 0.0000 24.8023
#
#
#
# Elastic Compliance Matrix: (Units=1/GPa)
#
#
# Indices 1 2 3 4 5 6 
#
# 1 0.014890 -0.005269 -0.005752 0.000000 0.000000 0.000000
# 2 -0.005269 0.014890 -0.005752 0.000000 0.000000 0.000000
# 3 -0.005752 -0.005752 0.016422 0.000000 0.000000 0.000000
# 4 0.000000 0.000000 0.000000 0.033789 0.000000 0.000000
# 5 0.000000 0.000000 0.000000 0.000000 0.033789 0.000000
# 6 0.000000 0.000000 0.000000 0.000000 0.000000 0.040319
#
#
# Mechanical properties :
#
#
# Convention : Reuss Voigt Hill
#
# Bulk Modulus (GPa) = 79.00899 79.21939 79.11419
# Shear Modulus (GPa) = 26.06009 26.35332 26.20670
#
# Velocity S-wave (km/s) = 3.96270 3.98493 3.97383
# Velocity P-wave (km/s) = 8.27923 8.30109 8.29017
#
# Compressibility (1/GPa) = 0.01265679
#
# Stress axis : x y z
#
# Youngs Moduli (GPa) = 67.15799 67.15799 60.89401
#
# Poissons Ratio (x) = 0.35387 0.35025
# Poissons Ratio (y) = 0.35387 0.35025
# Poissons Ratio (z) = 0.38628 0.38628
#
# Static dielectric constant tensor:
#      x y z
#    x 3.070560 0.000000 0.000000 
#    y 0.000000 3.070560 0.000000 
#    z 0.000000 0.000000 3.244740 
# 
# 
# High freq. dielectric constant tensor:
#      x y z
#    x 1.630120 0.000000 0.000000 
#    y 0.000000 1.630120 0.000000 
#    z 0.000000 0.000000 1.655220 
# 
# From -- ./inp_files/1260.got.cif
#   From: 2010.06.25/outbox.cif.g09.slc.cpg/sg190_1_cif.got.tgz:1260.got - 2010.06.28 13:08:06.
