data_PCOD8327820
_publ_section_title
;
Structure prediction by ZEFSAII (Michael W. Deem and Ramdas Pophale) SiO2 
 PCOD8327820
Probable space group: P -6 2 M
;
_chemical_formula_sum "Si O2"
_cell_formula_units_Z 72
_cell_length_a 14.887553
_cell_length_b 14.887553
_cell_length_c 18.528299
_cell_angle_alpha 90.000000
_cell_angle_beta 90.000000
_cell_angle_gamma 120.000000
_cell_volume 3556.418194
_symmetry_space_group_name_H-M "P -6 2 M"
_symmetry_group_IT_number 189
_symmetry_cell_setting 'hexagonal'
loop_
_space_group_symop_operation_xyz
x,y,z
-x+y,-x,-z
-y,x-y,z
x,y,-z
-x+y,-x,z
-y,x-y,-z
x-y,-y,-z
-x,-x+y,-z
y,x,-z
y,x,z
x-y,-y,z
-x,-x+y,z
loop_
_atom_site_type_symbol
_atom_site_label
_atom_site_fract_x
_atom_site_fract_y
_atom_site_fract_z
Si Si1 0.567967 0.877058 0.919388
Si Si2 0.547381 0.426589 0.640585
Si Si3 0.794469 0.228668 0.416767
Si Si4 0.119520 0.348984 0.170821
Si Si5 0.879228 0.121803 0.316347
Si Si6 0.430412 0.877651 0.199099
O O1 0.647725 0.838952 0.895094
O O2 0.469644 0.832039 0.864906
O O3 0.629433 0.000000 0.918459
O O4 0.526867 0.835701 0.000000
O O5 0.462917 0.462917 0.632646
O O6 0.516255 0.327573 0.590668
O O7 0.657736 0.521008 0.616686
O O8 0.553529 0.393247 0.722894
O O9 0.823379 0.232281 0.500000
O O10 0.820392 0.148978 0.377048
O O11 0.140744 0.296559 0.238837
O O12 0.156844 0.467799 0.189534
O O13 0.000000 0.285061 0.145958
O O14 0.000000 0.179269 0.335364
O O15 0.835667 0.000000 0.315486
O O16 0.496892 0.000000 0.197723
#
# Coordination Sequence:
#
# PCOD8327820 Si02
#       6
#    12  12  12  12  12  12
#     4  10  21  37  58  88 126 162 197 244 305 371
#     4  11  23  42  64  87 120 161 204 255 310 367
#     4  12  25  40  62  92 124 161 206 258 324 394
#     4  10  20  38  63  89 118 157 210 259 305 364
#     4  11  23  41  64  92 126 168 218 270 320 377
#     4   9  19  37  60  84 112 153 198 243 297 357
#
# _framework density 20.245089
#
# number of rings (size 3 to 8) (size 9 to 14) (size 15 to 20)
#    0.000    1.500    1.667    3.500    0.000    5.667 
#    1.000    1.667    0.000    1.333    0.000    0.000 
#    0.000    0.000    0.000    0.000    0.000    0.000 
#
# Total GULP energy -893007.798816 kJ/mol
# GULP energy per Si atom -12402.886095 kJ/mol
# Density = 2.019901 g / cm^3
# Si number density = 20.245089 Si / 1000 Ang^3
#
#
#
# Elastic Constant Matrix: (Units=GPa)
#
#
# Indices 1 2 3 4 5 6 
#
# 1 71.5538 6.6652 23.0223 0.0000 0.0000 0.0000
# 2 6.6652 71.5538 23.0223 0.0000 0.0000 0.0000
# 3 23.0223 23.0223 107.6067 0.0000 0.0000 0.0000
# 4 0.0000 0.0000 0.0000 24.5107 0.0000 0.0000
# 5 0.0000 0.0000 0.0000 0.0000 24.5107 0.0000
# 6 0.0000 0.0000 0.0000 0.0000 0.0000 32.4443
#
#
#
# Elastic Compliance Matrix: (Units=1/GPa)
#
#
# Indices 1 2 3 4 5 6 
#
# 1 0.015019 -0.000392 -0.003129 0.000000 0.000000 0.000000
# 2 -0.000392 0.015019 -0.003129 0.000000 0.000000 0.000000
# 3 -0.003129 -0.003129 0.010632 0.000000 0.000000 0.000000
# 4 0.000000 0.000000 0.000000 0.040799 0.000000 0.000000
# 5 0.000000 0.000000 0.000000 0.000000 0.040799 0.000000
# 6 0.000000 0.000000 0.000000 0.000000 0.000000 0.030822
#
#
# Mechanical properties :
#
#
# Convention : Reuss Voigt Hill
#
# Bulk Modulus (GPa) = 36.53879 39.57045 38.05462
# Shear Modulus (GPa) = 28.48781 29.49342 28.99061
#
# Velocity S-wave (km/s) = 3.75527 3.82097 3.78826
# Velocity P-wave (km/s) = 6.07372 6.24936 6.16217
#
# Compressibility (1/GPa) = 0.02736817
#
# Stress axis : x y z
#
# Youngs Moduli (GPa) = 66.58275 66.58275 94.05430
#
# Poissons Ratio (x) = 0.02611 0.29433
# Poissons Ratio (y) = 0.02611 0.29433
# Poissons Ratio (z) = 0.20836 0.20836
#
# Static dielectric constant tensor:
#      x y z
#    x 3.664600 0.000000 0.000000 
#    y 0.000000 3.664600 0.000000 
#    z 0.000000 0.000000 3.838610 
# 
# 
# High freq. dielectric constant tensor:
#      x y z
#    x 1.791640 0.000000 0.000000 
#    y 0.000000 1.791640 0.000000 
#    z 0.000000 0.000000 1.789800 
# 
# From -- ./inp_files/3092.got.cif
#   From: 2010.03.12/outbox.cif.g09.slc.cpg/sg189_2_cif.got.tgz:3092.got - 2010.04.01 12:03:36.
