data_PCOD8327805
_publ_section_title
;
Structure prediction by ZEFSAII (Michael W. Deem and Ramdas Pophale) SiO2 
 PCOD8327805
Probable space group: P -6 2 M
;
_chemical_formula_sum "Si O2"
_cell_formula_units_Z 84
_cell_length_a 14.794593
_cell_length_b 14.794593
_cell_length_c 23.736978
_cell_angle_alpha 90.000000
_cell_angle_beta 90.000000
_cell_angle_gamma 120.000000
_cell_volume 4499.477696
_symmetry_space_group_name_H-M "P -6 2 M"
_symmetry_group_IT_number 189
_symmetry_cell_setting 'hexagonal'
loop_
_space_group_symop_operation_xyz
x,y,z
-x+y,-x,-z
-y,x-y,z
x,y,-z
-x+y,-x,z
-y,x-y,-z
x-y,-y,-z
-x,-x+y,-z
y,x,-z
y,x,z
x-y,-y,z
-x,-x+y,z
loop_
_atom_site_type_symbol
_atom_site_label
_atom_site_fract_x
_atom_site_fract_y
_atom_site_fract_z
Si Si1 0.123411 0.879405 0.856548
Si Si2 0.537667 0.297973 0.437663
Si Si3 0.694906 0.120452 0.331168
Si Si4 0.571217 0.451506 0.755629
Si Si5 0.882702 0.221112 0.740151
Si Si6 0.445243 0.566810 0.881212
Si Si7 0.208189 0.773468 0.066476
O O1 0.177302 0.858562 0.803223
O O2 0.162612 0.844964 0.910902
O O3 0.000000 0.812930 0.849717
O O4 0.156829 0.000000 0.862414
O O5 0.583299 0.218654 0.431327
O O6 0.487292 0.284141 0.500000
O O7 0.451724 0.273498 0.390795
O O8 0.642617 0.170298 0.289904
O O9 0.800582 0.134971 0.302546
O O10 0.615982 0.000000 0.343207
O O11 0.482501 0.482501 0.760632
O O12 0.679619 0.546650 0.734917
O O13 0.582835 0.414370 0.817858
O O14 0.000000 0.251408 0.722686
O O15 0.534461 0.534461 0.879918
O O16 0.488848 0.673806 0.914802
O O17 0.343749 0.478125 0.912098
O O18 0.203618 0.776001 0.000000
#
# Coordination Sequence:
#
# PCOD8327805 Si02
#       7
#    12  12  12  12  12  12  12
#     4  11  23  41  62  84 112 149 192 238 288 343
#     4   8  17  34  52  74 112 158 195 225 268 325
#     4  11  20  31  54  88 116 145 190 237 281 331
#     4   9  19  34  53  80 109 138 177 225 281 336
#     4  10  20  37  56  79 114 149 183 230 289 346
#     4  11  23  42  60  80 112 144 179 229 283 344
#     4  12  25  40  60  84 109 143 185 229 287 354
#
# _framework density 18.668831999999998
#
# number of rings (size 3 to 8) (size 9 to 14) (size 15 to 20)
#    0.286    1.429    1.429    3.857    0.000    4.286 
#    0.857    0.000    0.000    2.429    0.000    0.000 
#    0.000    0.000    0.000    0.000    0.000    0.000 
#
# Total GULP energy -1041609.262757 kJ/mol
# GULP energy per Si atom -12400.110271 kJ/mol
# Density = 1.862634 g / cm^3
# Si number density = 18.668832 Si / 1000 Ang^3
#
#
#
# Elastic Constant Matrix: (Units=GPa)
#
#
# Indices 1 2 3 4 5 6 
#
# 1 56.7798 4.7803 15.7042 0.0000 0.0000 0.0000
# 2 4.7803 56.7798 15.7042 0.0000 0.0000 0.0000
# 3 15.7042 15.7042 98.7902 0.0000 0.0000 0.0000
# 4 0.0000 0.0000 0.0000 16.1876 0.0000 0.0000
# 5 0.0000 0.0000 0.0000 0.0000 16.1876 0.0000
# 6 0.0000 0.0000 0.0000 0.0000 0.0000 25.9997
#
#
#
# Elastic Compliance Matrix: (Units=1/GPa)
#
#
# Indices 1 2 3 4 5 6 
#
# 1 0.018455 -0.000776 -0.002810 0.000000 0.000000 0.000000
# 2 -0.000776 0.018455 -0.002810 0.000000 0.000000 0.000000
# 3 -0.002810 -0.002810 0.011016 0.000000 0.000000 0.000000
# 4 0.000000 0.000000 0.000000 0.061776 0.000000 0.000000
# 5 0.000000 0.000000 0.000000 0.000000 0.061776 0.000000
# 6 0.000000 0.000000 0.000000 0.000000 0.000000 0.038462
#
#
# Mechanical properties :
#
#
# Convention : Reuss Voigt Hill
#
# Bulk Modulus (GPa) = 28.46468 31.63635 30.05051
# Shear Modulus (GPa) = 21.32718 23.41904 22.37311
#
# Velocity S-wave (km/s) = 3.38360 3.54566 3.46558
# Velocity P-wave (km/s) = 5.52678 5.80906 5.66967
#
# Compressibility (1/GPa) = 0.03513126
#
# Stress axis : x y z
#
# Youngs Moduli (GPa) = 54.18725 54.18725 90.77779
#
# Poissons Ratio (x) = 0.04207 0.25510
# Poissons Ratio (y) = 0.04207 0.25510
# Poissons Ratio (z) = 0.15228 0.15228
#
# Static dielectric constant tensor:
#      x y z
#    x 3.334180 0.000000 0.000000 
#    y 0.000000 3.334180 0.000000 
#    z 0.000000 0.000000 3.376830 
# 
# 
# High freq. dielectric constant tensor:
#      x y z
#    x 1.714960 0.000000 0.000000 
#    y 0.000000 1.714960 0.000000 
#    z 0.000000 0.000000 1.720050 
# 
# From -- ./inp_files/3617.got.cif
#   From: 2010.03.12/outbox.cif.g09.slc.cpg/sg189_2_cif.got.tgz:3617.got - 2010.04.01 12:03:36.
