data_PCOD8327834
_publ_section_title
;
Structure prediction by ZEFSAII (Michael W. Deem and Ramdas Pophale) SiO2 
 PCOD8327834
Probable space group: P -6 2 M
;
_chemical_formula_sum "Si O2"
_cell_formula_units_Z 48
_cell_length_a 14.404919
_cell_length_b 14.404919
_cell_length_c 13.343930
_cell_angle_alpha 90.000000
_cell_angle_beta 90.000000
_cell_angle_gamma 120.000000
_cell_volume 2397.927387
_symmetry_space_group_name_H-M "P -6 2 M"
_symmetry_group_IT_number 189
_symmetry_cell_setting 'hexagonal'
loop_
_space_group_symop_operation_xyz
x,y,z
-x+y,-x,-z
-y,x-y,z
x,y,-z
-x+y,-x,z
-y,x-y,-z
x-y,-y,-z
-x,-x+y,-z
y,x,-z
y,x,z
x-y,-y,z
-x,-x+y,z
loop_
_atom_site_type_symbol
_atom_site_label
_atom_site_fract_x
_atom_site_fract_y
_atom_site_fract_z
Si Si1 0.873873 0.749823 0.259051
Si Si2 0.406339 0.529315 0.799579
Si Si3 0.249208 0.814576 0.114158
Si Si4 0.701897 0.125670 0.609723
O O1 0.821421 0.821421 0.287134
O O2 0.825431 0.684907 0.155896
O O3 0.846624 0.664529 0.348154
O O4 0.000000 0.826822 0.243945
O O5 0.436867 0.436867 0.809851
O O6 0.508679 0.644110 0.818390
O O7 0.314439 0.504129 0.881111
O O8 0.356761 0.522561 0.688258
O O9 0.279383 0.852416 0.000000
O O10 0.716435 0.180505 0.500000
O O11 0.628827 0.000000 0.596603
#
# Coordination Sequence:
#
# PCOD8327834 Si02
#       4
#    12  12  12  12
#     4  10  21  36  55  82 117 156 197 239 282 333
#     4  10  21  37  57  82 112 143 180 233 291 342
#     4  11  22  36  56  82 110 145 192 240 289 347
#     4   8  16  34  58  81 107 140 177 221 277 337
#
# _framework density 20.017285000000001
#
# number of rings (size 3 to 8) (size 9 to 14) (size 15 to 20)
#    0.000    2.250    0.000    4.500    0.000    5.500 
#    0.000    5.000    0.000    9.000    0.000    0.000 
#    0.000    0.000    0.000    0.000    0.000    0.000 
#
# Total GULP energy -595113.618429 kJ/mol
# GULP energy per Si atom -12398.200384 kJ/mol
# Density = 1.997173 g / cm^3
# Si number density = 20.017285 Si / 1000 Ang^3
#
#
#
# Elastic Constant Matrix: (Units=GPa)
#
#
# Indices 1 2 3 4 5 6 
#
# 1 88.3851 13.6219 54.0859 0.0000 0.0000 0.0000
# 2 13.6219 88.3851 54.0859 0.0000 0.0000 0.0000
# 3 54.0859 54.0859 164.7031 0.0000 0.0000 0.0000
# 4 0.0000 0.0000 0.0000 18.3810 0.0000 0.0000
# 5 0.0000 0.0000 0.0000 0.0000 18.3810 0.0000
# 6 0.0000 0.0000 0.0000 0.0000 0.0000 37.3816
#
#
#
# Elastic Compliance Matrix: (Units=1/GPa)
#
#
# Indices 1 2 3 4 5 6 
#
# 1 0.014208 0.000833 -0.004939 0.000000 0.000000 0.000000
# 2 0.000833 0.014208 -0.004939 0.000000 0.000000 0.000000
# 3 -0.004939 -0.004939 0.009315 0.000000 0.000000 0.000000
# 4 0.000000 0.000000 0.000000 0.054404 0.000000 0.000000
# 5 0.000000 0.000000 0.000000 0.000000 0.054404 0.000000
# 6 0.000000 0.000000 0.000000 0.000000 0.000000 0.026751
#
#
# Mechanical properties :
#
#
# Convention : Reuss Voigt Hill
#
# Bulk Modulus (GPa) = 50.91513 65.00674 57.96093
# Shear Modulus (GPa) = 25.26149 29.47401 27.36775
#
# Velocity S-wave (km/s) = 3.55630 3.84139 3.70159
# Velocity P-wave (km/s) = 6.50798 7.22640 6.87658
#
# Compressibility (1/GPa) = 0.01964053
#
# Stress axis : x y z
#
# Youngs Moduli (GPa) = 70.38155 70.38155 107.34846
#
# Poissons Ratio (x) = -0.05861 0.53022
# Poissons Ratio (y) = -0.05861 0.53022
# Poissons Ratio (z) = 0.34763 0.34763
#
# Static dielectric constant tensor:
#      x y z
#    x 3.565390 0.000000 0.000000 
#    y 0.000000 3.565390 0.000000 
#    z 0.000000 0.000000 3.817590 
# 
# 
# High freq. dielectric constant tensor:
#      x y z
#    x 1.775340 0.000000 0.000000 
#    y 0.000000 1.775340 0.000000 
#    z 0.000000 0.000000 1.775800 
# 
# From -- ./inp_files/1678.got.cif
#   From: 2010.03.12/outbox.cif.g09.slc.cpg/sg189_1_cif.got.tgz:1678.got - 2010.04.01 12:03:36.
