data_PCOD8327225
_publ_section_title
;
Structure prediction by ZEFSAII (Michael W. Deem and Ramdas Pophale) SiO2 
 PCOD8327225
Probable space group: P -6 M 2
;
_chemical_formula_sum "Si O2"
_cell_formula_units_Z 90
_cell_length_a 18.049427
_cell_length_b 18.049427
_cell_length_c 17.653735
_cell_angle_alpha 90.000000
_cell_angle_beta 90.000000
_cell_angle_gamma 120.000000
_cell_volume 4980.742313
_symmetry_space_group_name_H-M "P -6 M 2"
_symmetry_group_IT_number 187
_symmetry_cell_setting 'hexagonal'
loop_
_space_group_symop_operation_xyz
x,y,z
-x+y,-x,-z
-y,x-y,z
x,y,-z
-x+y,-x,z
-y,x-y,-z
-y,-x,-z
-x+y,y,-z
x,x-y,-z
-x+y,y,z
x,x-y,z
-y,-x,z
loop_
_atom_site_type_symbol
_atom_site_label
_atom_site_fract_x
_atom_site_fract_y
_atom_site_fract_z
Si Si1 0.588013 0.010670 0.343849
Si Si2 0.422294 0.009181 0.833924
Si Si3 0.825633 0.824485 0.285374
Si Si4 0.769274 0.059017 0.858802
Si Si5 0.932522 0.693378 0.413715
Si Si6 0.332601 0.498722 0.586915
Si Si7 0.174472 0.173785 0.000000
Si Si8 0.165134 0.498827 0.086084
O O1 0.515420 0.030840 0.375906
O O2 0.595863 0.023751 0.254985
O O3 0.677790 0.070621 0.384740
O O4 0.561760 0.913424 0.361040
O O5 0.518397 0.036793 0.865004
O O6 0.381172 0.063276 0.867960
O O7 0.357906 0.911028 0.855233
O O8 0.820486 0.910243 0.278681
O O9 0.771756 0.758702 0.218519
O O10 0.782521 0.776868 0.363970
O O11 0.924839 0.849678 0.280572
O O12 0.843546 0.156455 0.861902
O O13 0.776494 0.004600 0.926724
O O14 0.965501 0.714359 0.500000
O O15 0.835756 0.671512 0.405785
O O16 0.329576 0.470882 0.500000
O O17 0.242638 0.485276 0.614485
O O18 0.402310 0.597691 0.598010
O O19 0.087528 0.175055 0.000000
O O20 0.151713 0.075857 0.000000
O O21 0.241020 0.482040 0.109623
O O22 0.199188 0.599594 0.092529
O O23 0.134091 0.467367 0.000000
#
# Coordination Sequence:
#
# PCOD8327225 Si02
#       8
#    12  12  12  12  12  12   6  12
#     4  10  20  35  54  75 101 133 172 218 267 322
#     4  10  21  36  53  77 105 137 176 221 271 318
#     4  10  20  35  55  79 108 145 184 224 269 322
#     4  10  21  38  58  81 110 145 183 224 276 332
#     4  10  21  37  56  78 104 136 175 220 273 328
#     4   9  17  29  45  66  94 129 167 205 246 294
#     4  10  21  36  57  86 120 154 190 230 275 324
#     4   9  18  32  50  72 102 141 183 222 260 304
#
# _framework density 18.069595
#
# number of rings (size 3 to 8) (size 9 to 14) (size 15 to 20)
#    0.000    2.267    1.333    1.267    0.933    4.267 
#    0.000    1.333    0.000    2.933    0.000    0.000 
#    0.000    0.000    0.000    0.000    0.000    0.000 
#
# Total GULP energy -1115866.010670 kJ/mol
# GULP energy per Si atom -12398.511230 kJ/mol
# Density = 1.802847 g / cm^3
# Si number density = 18.069595 Si / 1000 Ang^3
#
#
#
# Elastic Constant Matrix: (Units=GPa)
#
#
# Indices 1 2 3 4 5 6 
#
# 1 92.9141 60.2224 33.5715 0.0000 0.0001 0.0000
# 2 60.2224 92.9141 33.5715 0.0000 -0.0001 0.0000
# 3 33.5715 33.5715 83.5946 0.0000 0.0000 0.0000
# 4 0.0000 0.0000 0.0000 34.2546 0.0000 -0.0001
# 5 0.0001 -0.0001 0.0000 0.0000 34.2546 0.0000
# 6 0.0000 0.0000 0.0000 -0.0001 0.0000 16.3459
#
#
#
# Elastic Compliance Matrix: (Units=1/GPa)
#
#
# Indices 1 2 3 4 5 6 
#
# 1 0.019257 -0.011332 -0.003183 0.000000 0.000000 0.000000
# 2 -0.011332 0.019257 -0.003183 0.000000 0.000000 0.000000
# 3 -0.003183 -0.003183 0.014519 0.000000 0.000000 0.000000
# 4 0.000000 0.000000 0.000000 0.029193 0.000000 0.000000
# 5 0.000000 0.000000 0.000000 0.000000 0.029193 0.000000
# 6 0.000000 0.000000 0.000000 0.000000 0.000000 0.061178
#
#
# Mechanical properties :
#
#
# Convention : Reuss Voigt Hill
#
# Bulk Modulus (GPa) = 56.69379 58.23929 57.46654
# Shear Modulus (GPa) = 23.37850 26.44152 24.91001
#
# Velocity S-wave (km/s) = 3.60085 3.82948 3.71692
# Velocity P-wave (km/s) = 6.98080 7.20095 7.09173
#
# Compressibility (1/GPa) = 0.01763862
#
# Stress axis : x y z
#
# Youngs Moduli (GPa) = 51.92853 51.92853 68.87511
#
# Poissons Ratio (x) = 0.58843 0.21923
# Poissons Ratio (y) = 0.58843 0.21923
# Poissons Ratio (z) = 0.16529 0.16529
#
# Static dielectric constant tensor:
#      x y z
#    x 3.338820 0.000000 0.000000 
#    y 0.000000 3.338820 0.000000 
#    z 0.000000 0.000000 3.441490 
# 
# 
# High freq. dielectric constant tensor:
#      x y z
#    x 1.690190 0.000000 0.000000 
#    y 0.000000 1.690190 0.000000 
#    z 0.000000 0.000000 1.705090 
# 
# From -- ./inp_files/3227.got.cif
#   From: 2010.03.12/outbox.cif.g09.slc.cpg/sg187_2_cif.got.tgz:3227.got - 2010.04.01 11:58:23.
