data_PCOD8327440
_publ_section_title
;
Structure prediction by ZEFSAII (Michael W. Deem and Ramdas Pophale) SiO2 
 PCOD8327440
Probable space group: P -6 C 2
;
_chemical_formula_sum "Si O2"
_cell_formula_units_Z 58
_cell_length_a 14.041753
_cell_length_b 14.041753
_cell_length_c 15.209201
_cell_angle_alpha 90.000000
_cell_angle_beta 90.000000
_cell_angle_gamma 120.000000
_cell_volume 2597.046285
_symmetry_space_group_name_H-M "P -6 C 2"
_symmetry_group_IT_number 188
_symmetry_cell_setting 'hexagonal'
loop_
_space_group_symop_operation_xyz
x,y,z
-x+y,-x,1/2-z
-y,x-y,z
x,y,1/2-z
-x+y,-x,z
-y,x-y,1/2-z
-y,-x,-z
-x+y,y,-z
x,x-y,-z
-x+y,y,1/2+z
x,x-y,1/2+z
-y,-x,1/2+z
loop_
_atom_site_type_symbol
_atom_site_label
_atom_site_fract_x
_atom_site_fract_y
_atom_site_fract_z
Si Si1 0.681125 0.545410 0.849823
Si Si2 0.283637 0.074156 0.349654
Si Si3 0.301615 0.865898 0.145498
Si Si4 0.666667 0.333335 0.143769
Si Si5 0.104881 0.636243 0.354899
Si Si6 0.930769 0.861537 0.500000
O O1 0.639641 0.528914 0.750000
O O2 0.812650 0.602292 0.853972
O O3 0.639848 0.425844 0.892589
O O4 0.624878 0.610671 0.893578
O O5 0.236489 0.050007 0.250000
O O6 0.206525 0.099614 0.410673
O O7 0.297553 0.973866 0.386303
O O8 0.302000 0.864625 0.250000
O O9 0.412907 0.871977 0.110408
O O10 0.197372 0.754793 0.107592
O O11 0.666667 0.333334 0.250000
O O12 0.109948 0.642565 0.250000
O O13 0.873563 0.936782 0.500000
#
# Coordination Sequence:
#
# PCOD8327440 Si02
#       6
#    12  12  12   4  12   6
#     4   9  17  28  50  80 112 153 197 242 298 354
#     4  10  21  38  61  88 120 158 202 250 303 362
#     4   9  17  29  50  82 122 159 198 250 301 363
#     4   9  15  27  48  82 122 151 193 248 289 352
#     4   9  16  26  45  78 116 156 199 243 300 361
#     4  10  26  42  58  86 116 158 202 248 306 360
#
# _framework density 22.333062999999999
#
# number of rings (size 3 to 8) (size 9 to 14) (size 15 to 20)
#    0.207    2.483    0.000    1.655    2.897    7.448 
#    0.000    0.000    0.000    4.966    0.000    0.000 
#    0.000    0.000    0.000    0.000    0.000    0.000 
#
# Total GULP energy -718680.727172 kJ/mol
# GULP energy per Si atom -12391.047020 kJ/mol
# Density = 2.228223 g / cm^3
# Si number density = 22.333063 Si / 1000 Ang^3
#
#
#
# Elastic Constant Matrix: (Units=GPa)
#
#
# Indices 1 2 3 4 5 6 
#
# 1 168.2459 89.9961 17.7609 0.0001 0.0000 -0.0001
# 2 89.9961 168.2454 17.7605 -0.0001 0.0000 0.0001
# 3 17.7609 17.7605 40.4052 0.0000 0.0000 -0.0001
# 4 0.0001 -0.0001 0.0000 7.4924 -0.0001 0.0000
# 5 0.0000 0.0000 0.0000 -0.0001 7.4925 0.0001
# 6 -0.0001 0.0001 -0.0001 0.0000 0.0001 39.1248
#
#
#
# Elastic Compliance Matrix: (Units=1/GPa)
#
#
# Indices 1 2 3 4 5 6 
#
# 1 0.008451 -0.004329 -0.001812 0.000000 0.000000 0.000000
# 2 -0.004329 0.008451 -0.001812 0.000000 0.000000 0.000000
# 3 -0.001812 -0.001812 0.026342 0.000000 0.000000 0.000000
# 4 0.000000 0.000000 0.000000 0.133469 0.000002 0.000000
# 5 0.000000 0.000000 0.000000 0.000002 0.133467 0.000000
# 6 0.000000 0.000000 0.000000 0.000000 0.000000 0.025559
#
#
# Mechanical properties :
#
#
# Convention : Reuss Voigt Hill
#
# Bulk Modulus (GPa) = 36.57867 69.77017 53.17442
# Shear Modulus (GPa) = 13.85980 27.58053 20.72017
#
# Velocity S-wave (km/s) = 2.49388 3.51802 3.04925
# Velocity P-wave (km/s) = 4.97060 6.91451 6.02152
#
# Compressibility (1/GPa) = 0.02733834
#
# Stress axis : x y z
#
# Youngs Moduli (GPa) = 118.33509 118.33491 37.96221
#
# Poissons Ratio (x) = 0.51228 0.06878
# Poissons Ratio (y) = 0.51228 0.06877
# Poissons Ratio (z) = 0.21439 0.21438
#
# Static dielectric constant tensor:
#      x y z
#    x 4.194560 0.000000 0.000000 
#    y 0.000000 4.194570 0.000000 
#    z 0.000000 0.000000 3.389840 
# 
# 
# High freq. dielectric constant tensor:
#      x y z
#    x 1.887380 0.000000 0.000000 
#    y 0.000000 1.887380 0.000000 
#    z 0.000000 0.000000 1.824380 
# 
# From -- ./inp_files/2328.got.cif
#   From: 2010.03.12/outbox.cif.g09.slc.cpg/sg188_2_cif.got.tgz:2328.got - 2010.04.01 12:01:06.
