data_PCOD8327354
_publ_section_title
;
Structure prediction by ZEFSAII (Michael W. Deem and Ramdas Pophale) SiO2 
 PCOD8327354
Probable space group: P -6 C 2
;
_chemical_formula_sum "Si O2"
_cell_formula_units_Z 48
_cell_length_a 13.511331
_cell_length_b 13.511331
_cell_length_c 15.560910
_cell_angle_alpha 90.000000
_cell_angle_beta 90.000000
_cell_angle_gamma 120.000000
_cell_volume 2460.151710
_symmetry_space_group_name_H-M "P -6 C 2"
_symmetry_group_IT_number 188
_symmetry_cell_setting 'hexagonal'
loop_
_space_group_symop_operation_xyz
x,y,z
-x+y,-x,1/2-z
-y,x-y,z
x,y,1/2-z
-x+y,-x,z
-y,x-y,1/2-z
-y,-x,-z
-x+y,y,-z
x,x-y,-z
-x+y,y,1/2+z
x,x-y,1/2+z
-y,-x,1/2+z
loop_
_atom_site_type_symbol
_atom_site_label
_atom_site_fract_x
_atom_site_fract_y
_atom_site_fract_z
Si Si1 0.781095 0.006712 0.148267
Si Si2 0.470412 0.112128 0.345798
Si Si3 0.217921 0.990357 0.148845
Si Si4 0.696913 0.540255 0.918187
O O1 0.756905 0.003311 0.250000
O O2 0.700899 0.040163 0.093295
O O3 0.911742 0.099423 0.125590
O O4 0.753553 0.883029 0.112607
O O5 0.489888 0.078098 0.250000
O O6 0.563718 0.119953 0.414148
O O7 0.476335 0.235039 0.338573
O O8 0.344480 0.021472 0.384724
O O9 0.222471 0.981476 0.250000
O O10 0.766259 0.532517 0.000000
#
# Coordination Sequence:
#
# PCOD8327354 Si02
#       4
#    12  12  12  12
#     4   9  16  30  50  74 100 133 172 216 264 318
#     4  10  19  33  50  71  98 136 177 218 266 325
#     4   8  15  27  49  74  97 126 169 215 261 313
#     4  11  21  32  48  73 105 137 173 219 272 326
#
# _framework density 19.510992000000002
#
# number of rings (size 3 to 8) (size 9 to 14) (size 15 to 20)
#    0.000    2.500    0.000    5.500    0.000    2.000 
#    0.000    5.000    0.000    1.000    0.000    3.500 
#    0.000    0.000    0.000    0.000    0.000    0.000 
#
# Total GULP energy -594631.350831 kJ/mol
# GULP energy per Si atom -12388.153142 kJ/mol
# Density = 1.946658 g / cm^3
# Si number density = 19.510992 Si / 1000 Ang^3
#
#
#
# Elastic Constant Matrix: (Units=GPa)
#
#
# Indices 1 2 3 4 5 6 
#
# 1 149.6481 88.8433 27.5358 0.0000 0.0000 0.0000
# 2 88.8433 149.6481 27.5358 0.0000 0.0000 0.0000
# 3 27.5358 27.5358 62.6286 0.0000 0.0000 0.0000
# 4 0.0000 0.0000 0.0000 17.7249 0.0000 0.0000
# 5 0.0000 0.0000 0.0000 0.0000 17.7249 0.0000
# 6 0.0000 0.0000 0.0000 0.0000 0.0000 30.4024
#
#
#
# Elastic Compliance Matrix: (Units=1/GPa)
#
#
# Indices 1 2 3 4 5 6 
#
# 1 0.010556 -0.005890 -0.002052 0.000000 0.000000 0.000000
# 2 -0.005890 0.010556 -0.002052 0.000000 0.000000 0.000000
# 3 -0.002052 -0.002052 0.017771 0.000000 0.000000 0.000000
# 4 0.000000 0.000000 0.000000 0.056418 0.000000 0.000000
# 5 0.000000 0.000000 0.000000 0.000000 0.056418 0.000000
# 6 0.000000 0.000000 0.000000 0.000000 0.000000 0.032892
#
#
# Mechanical properties :
#
#
# Convention : Reuss Voigt Hill
#
# Bulk Modulus (GPa) = 52.91665 72.19496 62.55580
# Shear Modulus (GPa) = 23.70815 27.70443 25.70629
#
# Velocity S-wave (km/s) = 3.48964 3.77230 3.63372
# Velocity P-wave (km/s) = 6.58916 7.48707 7.05242
#
# Compressibility (1/GPa) = 0.01889765
#
# Stress axis : x y z
#
# Youngs Moduli (GPa) = 94.72884 94.72884 56.27015
#
# Poissons Ratio (x) = 0.55792 0.11546
# Poissons Ratio (y) = 0.55792 0.11546
# Poissons Ratio (z) = 0.19437 0.19437
#
# Static dielectric constant tensor:
#      x y z
#    x 3.711280 0.000000 0.000000 
#    y 0.000000 3.711280 0.000000 
#    z 0.000000 0.000000 3.434590 
# 
# 
# High freq. dielectric constant tensor:
#      x y z
#    x 1.739420 0.000000 0.000000 
#    y 0.000000 1.739420 0.000000 
#    z 0.000000 0.000000 1.755320 
# 
# From -- ./inp_files/2092.got.cif
#   From: 2010.03.12/outbox.cif.g09.slc.cpg/sg188_2_cif.got.tgz:2092.got - 2010.04.01 12:01:06.
