data_PCOD8327566
_publ_section_title
;
Structure prediction by ZEFSAII (Michael W. Deem and Ramdas Pophale) SiO2 
 PCOD8327566
Probable space group: P -6 2 M
;
_chemical_formula_sum "Si O2"
_cell_formula_units_Z 72
_cell_length_a 23.893287
_cell_length_b 23.893287
_cell_length_c 9.063695
_cell_angle_alpha 90.000000
_cell_angle_beta 90.000000
_cell_angle_gamma 120.000000
_cell_volume 4481.131762
_symmetry_space_group_name_H-M "P -6 2 M"
_symmetry_group_IT_number 189
_symmetry_cell_setting 'hexagonal'
loop_
_space_group_symop_operation_xyz
x,y,z
-x+y,-x,-z
-y,x-y,z
x,y,-z
-x+y,-x,z
-y,x-y,-z
x-y,-y,-z
-x,-x+y,-z
y,x,-z
y,x,z
x-y,-y,z
-x,-x+y,z
loop_
_atom_site_type_symbol
_atom_site_label
_atom_site_fract_x
_atom_site_fract_y
_atom_site_fract_z
Si Si1 0.518358 0.260484 0.824118
Si Si2 0.855386 0.262097 0.674453
Si Si3 0.530835 0.603930 0.171438
Si Si4 0.073067 0.926135 0.174022
Si Si5 0.807314 0.404034 0.171935
Si Si6 0.926245 0.185175 0.672628
O O1 0.449313 0.214719 0.748746
O O2 0.568201 0.237309 0.771250
O O3 0.546633 0.333113 0.760143
O O4 0.508493 0.254808 0.000000
O O5 0.849419 0.265731 0.500000
O O6 0.906692 0.333019 0.732243
O O7 0.881580 0.214505 0.720656
O O8 0.550193 0.550193 0.208653
O O9 0.454743 0.572799 0.209816
O O10 0.542569 0.624829 0.000000
O O11 0.116771 0.899694 0.246181
O O12 0.000000 0.883195 0.232080
O O13 0.098994 0.000000 0.222418
O O14 0.076369 0.920569 0.000000
O O15 0.795173 0.404130 0.000000
O O16 0.921822 0.171924 0.500000
O O17 0.000000 0.235013 0.720488
#
# Coordination Sequence:
#
# PCOD8327566 Si02
#       6
#    12  12  12  12  12  12
#     4   9  16  28  46  66  88 116 149 181 218 264
#     4  10  19  30  44  64  91 120 149 182 220 259
#     4   9  17  29  46  68  91 115 146 182 220 265
#     4   9  17  29  46  68  92 115 139 172 216 262
#     4   8  14  25  43  65  86 111 143 178 214 255
#     4   9  18  31  45  62  86 117 150 180 212 254
#
# _framework density 16.06737
#
# number of rings (size 3 to 8) (size 9 to 14) (size 15 to 20)
#    0.000    3.000    0.000    2.500    0.000    4.667 
#    0.000    5.000    0.000    2.000    0.000    2.333 
#    0.000    0.000    0.000    0.000    0.000    0.000 
#
# Total GULP energy -892551.608427 kJ/mol
# GULP energy per Si atom -12396.550117 kJ/mol
# Density = 1.603080 g / cm^3
# Si number density = 16.067370 Si / 1000 Ang^3
#
#
#
# Elastic Constant Matrix: (Units=GPa)
#
#
# Indices 1 2 3 4 5 6 
#
# 1 136.5008 79.5402 36.3241 0.0000 0.0000 0.0000
# 2 79.5402 136.5008 36.3241 0.0000 0.0000 0.0000
# 3 36.3241 36.3241 34.9540 0.0000 0.0000 0.0000
# 4 0.0000 0.0000 0.0000 19.9118 0.0000 0.0000
# 5 0.0000 0.0000 0.0000 0.0000 19.9118 0.0000
# 6 0.0000 0.0000 0.0000 0.0000 0.0000 28.4803
#
#
#
# Elastic Compliance Matrix: (Units=1/GPa)
#
#
# Indices 1 2 3 4 5 6 
#
# 1 0.012336 -0.005220 -0.007394 0.000000 0.000000 0.000000
# 2 -0.005220 0.012336 -0.007394 0.000000 0.000000 0.000000
# 3 -0.007394 -0.007394 0.043977 0.000000 0.000000 0.000000
# 4 0.000000 0.000000 0.000000 0.050221 0.000000 0.000000
# 5 0.000000 0.000000 0.000000 0.000000 0.050221 0.000000
# 6 0.000000 0.000000 0.000000 0.000000 0.000000 0.035112
#
#
# Mechanical properties :
#
#
# Convention : Reuss Voigt Hill
#
# Bulk Modulus (GPa) = 34.92734 68.03692 51.48213
# Shear Modulus (GPa) = 19.70342 24.04529 21.87435
#
# Velocity S-wave (km/s) = 3.50566 3.87270 3.69374
# Velocity P-wave (km/s) = 6.17830 7.90150 7.09243
#
# Compressibility (1/GPa) = 0.02863087
#
# Stress axis : x y z
#
# Youngs Moduli (GPa) = 81.06645 81.06645 22.73932
#
# Poissons Ratio (x) = 0.42320 0.16814
# Poissons Ratio (y) = 0.42320 0.16814
# Poissons Ratio (z) = 0.59941 0.59941
#
# Static dielectric constant tensor:
#      x y z
#    x 3.133120 0.000000 0.000000 
#    y 0.000000 3.133120 0.000000 
#    z 0.000000 0.000000 2.852250 
# 
# 
# High freq. dielectric constant tensor:
#      x y z
#    x 1.610250 0.000000 0.000000 
#    y 0.000000 1.610250 0.000000 
#    z 0.000000 0.000000 1.600030 
# 
# From -- ./inp_files/1229.got.cif
#   From: 2010.03.12/outbox.cif.g09.slc.cpg/sg189_1_cif.got.tgz:1229.got - 2010.04.01 12:03:36.
