data_PCOD8327181
_publ_section_title
;
Structure prediction by ZEFSAII (Michael W. Deem and Ramdas Pophale) SiO2 
 PCOD8327181
Probable space group: P -6 M 2
;
_chemical_formula_sum "Si O2"
_cell_formula_units_Z 66
_cell_length_a 12.450125
_cell_length_b 12.450125
_cell_length_c 28.127553
_cell_angle_alpha 90.000000
_cell_angle_beta 90.000000
_cell_angle_gamma 120.000000
_cell_volume 3775.808910
_symmetry_space_group_name_H-M "P -6 M 2"
_symmetry_group_IT_number 187
_symmetry_cell_setting 'hexagonal'
loop_
_space_group_symop_operation_xyz
x,y,z
-x+y,-x,-z
-y,x-y,z
x,y,-z
-x+y,-x,z
-y,x-y,-z
-y,-x,-z
-x+y,y,-z
x,x-y,-z
-x+y,y,z
x,x-y,z
-y,-x,z
loop_
_atom_site_type_symbol
_atom_site_label
_atom_site_fract_x
_atom_site_fract_y
_atom_site_fract_z
Si Si1 0.250825 0.998731 0.000000
Si Si2 0.082915 0.668077 0.090605
Si Si3 0.666898 0.086744 0.446155
Si Si4 0.584162 0.668177 0.728933
Si Si5 0.001394 0.749978 0.818766
Si Si6 0.000513 0.249097 0.639767
O O1 0.320757 0.991168 0.046351
O O2 0.108023 0.891978 0.000000
O O3 0.256187 0.128093 0.000000
O O4 0.075238 0.537619 0.088045
O O5 0.226252 0.773749 0.088912
O O6 0.018635 0.674882 0.138755
O O7 0.665214 0.041303 0.500000
O O8 0.535802 0.071604 0.431870
O O9 0.769174 0.230827 0.440422
O O10 0.696429 0.002169 0.411778
O O11 0.543322 0.771661 0.732881
O O12 0.464714 0.535287 0.735406
O O13 0.682426 0.687991 0.769500
O O14 0.646011 0.674070 0.678406
O O15 0.105977 0.894024 0.820517
O O16 0.869925 0.739849 0.824164
O O17 0.105473 0.210945 0.639566
O O18 0.871635 0.128366 0.652666
#
# Coordination Sequence:
#
# PCOD8327181 Si02
#       6
#     6  12  12  12  12  12
#     4  10  20  34  54  78 104 134 168 210 256 302
#     4  10  20  34  54  78 104 134 168 209 253 297
#     4   9  17  30  49  72  97 126 161 201 244 290
#     4  10  20  34  53  75  99 128 163 205 250 295
#     4  10  20  34  54  78 104 134 167 205 247 293
#     4  10  20  33  50  72  99 131 165 202 244 291
#
# _framework density 17.479699
#
# number of rings (size 3 to 8) (size 9 to 14) (size 15 to 20)
#    0.000    2.182    0.000    3.455    0.000    1.091 
#    0.000    6.364    0.000   14.909    0.000    0.000 
#    0.000    0.000    0.000    0.000    0.000    0.000 
#
# Total GULP energy -818623.429955 kJ/mol
# GULP energy per Si atom -12403.385302 kJ/mol
# Density = 1.743991 g / cm^3
# Si number density = 17.479699 Si / 1000 Ang^3
#
#
#
# Elastic Constant Matrix: (Units=GPa)
#
#
# Indices 1 2 3 4 5 6 
#
# 1 102.2658 61.2476 39.9258 0.0000 0.0000 0.0000
# 2 61.2476 102.2658 39.9258 0.0000 0.0000 0.0000
# 3 39.9258 39.9258 105.0890 0.0000 0.0000 0.0000
# 4 0.0000 0.0000 0.0000 16.9596 0.0000 0.0000
# 5 0.0000 0.0000 0.0000 0.0000 16.9596 0.0000
# 6 0.0000 0.0000 0.0000 0.0000 0.0000 20.5091
#
#
#
# Elastic Compliance Matrix: (Units=1/GPa)
#
#
# Indices 1 2 3 4 5 6 
#
# 1 0.015944 -0.008435 -0.002853 0.000000 0.000000 0.000000
# 2 -0.008435 0.015944 -0.002853 0.000000 0.000000 0.000000
# 3 -0.002853 -0.002853 0.011683 0.000000 0.000000 0.000000
# 4 0.000000 0.000000 0.000000 0.058964 0.000000 0.000000
# 5 0.000000 0.000000 0.000000 0.000000 0.058964 0.000000
# 6 0.000000 0.000000 0.000000 0.000000 0.000000 0.048759
#
#
# Mechanical properties :
#
#
# Convention : Reuss Voigt Hill
#
# Bulk Modulus (GPa) = 65.40230 65.75766 65.57998
# Shear Modulus (GPa) = 20.52238 22.12040 21.32139
#
# Velocity S-wave (km/s) = 3.43019 3.56123 3.49632
# Velocity P-wave (km/s) = 7.29285 7.38992 7.34155
#
# Compressibility (1/GPa) = 0.01528998
#
# Stress axis : x y z
#
# Youngs Moduli (GPa) = 62.71887 62.71887 85.59131
#
# Poissons Ratio (x) = 0.52905 0.24417
# Poissons Ratio (y) = 0.52905 0.24417
# Poissons Ratio (z) = 0.17892 0.17892
#
# Static dielectric constant tensor:
#      x y z
#    x 3.116810 0.000000 0.000000 
#    y 0.000000 3.116810 0.000000 
#    z 0.000000 0.000000 3.511800 
# 
# 
# High freq. dielectric constant tensor:
#      x y z
#    x 1.670660 0.000000 0.000000 
#    y 0.000000 1.670660 0.000000 
#    z 0.000000 0.000000 1.695380 
# 
# From -- ./inp_files/4403.got.cif
#   From: 2010.03.12/outbox.cif.g09.slc.cpg/sg187_3_cif.got.tgz:4403.got - 2010.04.01 11:58:23.
