data_PCOD8327204
_publ_section_title
;
Structure prediction by ZEFSAII (Michael W. Deem and Ramdas Pophale) SiO2 
 PCOD8327204
Probable space group: P -6 M 2
;
_chemical_formula_sum "Si O2"
_cell_formula_units_Z 60
_cell_length_a 12.383891
_cell_length_b 12.383891
_cell_length_c 25.822756
_cell_angle_alpha 90.000000
_cell_angle_beta 90.000000
_cell_angle_gamma 120.000000
_cell_volume 3429.631544
_symmetry_space_group_name_H-M "P -6 M 2"
_symmetry_group_IT_number 187
_symmetry_cell_setting 'hexagonal'
loop_
_space_group_symop_operation_xyz
x,y,z
-x+y,-x,-z
-y,x-y,z
x,y,-z
-x+y,-x,z
-y,x-y,-z
-y,-x,-z
-x+y,y,-z
x,x-y,-z
-x+y,y,z
x,x-y,z
-y,-x,z
loop_
_atom_site_type_symbol
_atom_site_label
_atom_site_fract_x
_atom_site_fract_y
_atom_site_fract_z
Si Si1 0.001138 0.747655 0.000000
Si Si2 0.586569 0.668014 0.900413
Si Si3 0.668402 0.586867 0.500000
Si Si4 0.746799 0.999826 0.600412
Si Si5 0.586684 0.668205 0.700896
Si Si6 0.746749 0.998687 0.199650
O O1 0.007998 0.676829 0.949543
O O2 0.871943 0.743885 0.000000
O O3 0.109189 0.890812 0.000000
O O4 0.549552 0.774776 0.901887
O O5 0.462445 0.537556 0.901703
O O6 0.660987 0.675861 0.848814
O O7 0.535626 0.464375 0.500000
O O8 0.773879 0.547758 0.500000
O O9 0.679324 0.667984 0.450169
O O10 0.879304 0.120697 0.610064
O O11 0.769738 0.884869 0.593429
O O12 0.658673 0.982180 0.648492
O O13 0.548510 0.774255 0.703652
O O14 0.463647 0.536354 0.703736
O O15 0.674464 0.679995 0.748454
O O16 0.784340 0.892170 0.199606
O O17 0.870544 0.129457 0.195950
#
# Coordination Sequence:
#
# PCOD8327204 Si02
#       6
#     6  12   6  12  12  12
#     4  10  20  34  54  78 104 134 168 210 256 302
#     4  10  20  34  54  78 104 134 168 209 254 301
#     4  10  20  34  52  74 102 136 172 208 248 298
#     4  10  20  34  54  78 104 134 168 210 256 302
#     4  10  20  34  53  76 103 135 170 210 254 301
#     4  10  20  34  54  78 104 134 168 210 256 302
#
# _framework density 17.494592000000001
#
# number of rings (size 3 to 8) (size 9 to 14) (size 15 to 20)
#    0.000    2.000    0.000    4.000    0.000    0.000 
#    0.000    8.000    0.000   17.600    0.000    0.000 
#    0.000    0.000    0.000    0.000    0.000    0.000 
#
# Total GULP energy -744253.372837 kJ/mol
# GULP energy per Si atom -12404.222881 kJ/mol
# Density = 1.745477 g / cm^3
# Si number density = 17.494592 Si / 1000 Ang^3
#
#
#
# Elastic Constant Matrix: (Units=GPa)
#
#
# Indices 1 2 3 4 5 6 
#
# 1 114.2529 74.1955 49.2368 0.0000 -0.0005 0.0000
# 2 74.1955 114.2529 49.2368 0.0000 0.0005 0.0000
# 3 49.2368 49.2368 116.6358 0.0000 0.0000 0.0000
# 4 0.0000 0.0000 0.0000 15.3496 0.0000 0.0005
# 5 -0.0005 0.0005 0.0000 0.0000 15.3496 0.0000
# 6 0.0000 0.0000 0.0000 0.0005 0.0000 20.0287
#
#
#
# Elastic Compliance Matrix: (Units=1/GPa)
#
#
# Indices 1 2 3 4 5 6 
#
# 1 0.015886 -0.009078 -0.002874 0.000000 0.000001 0.000000
# 2 -0.009078 0.015886 -0.002874 0.000000 -0.000001 0.000000
# 3 -0.002874 -0.002874 0.011000 0.000000 0.000000 0.000000
# 4 0.000000 0.000000 0.000000 0.065148 0.000000 -0.000001
# 5 0.000001 -0.000001 0.000000 0.000000 0.065148 0.000000
# 6 0.000000 0.000000 0.000000 -0.000001 0.000000 0.049928
#
#
# Mechanical properties :
#
#
# Convention : Reuss Voigt Hill
#
# Bulk Modulus (GPa) = 76.21608 76.71996 76.46802
# Shear Modulus (GPa) = 19.45346 21.64372 20.54859
#
# Velocity S-wave (km/s) = 3.33824 3.52115 3.43092
# Velocity P-wave (km/s) = 7.64974 7.77690 7.71358
#
# Compressibility (1/GPa) = 0.01312059
#
# Stress axis : x y z
#
# Youngs Moduli (GPa) = 62.94741 62.94741 90.90708
#
# Poissons Ratio (x) = 0.57143 0.26127
# Poissons Ratio (y) = 0.57143 0.26127
# Poissons Ratio (z) = 0.18092 0.18092
#
# Static dielectric constant tensor:
#      x y z
#    x 3.166670 0.000000 0.000000 
#    y 0.000000 3.166670 0.000000 
#    z 0.000000 0.000000 3.496730 
# 
# 
# High freq. dielectric constant tensor:
#      x y z
#    x 1.676400 0.000000 0.000000 
#    y 0.000000 1.676400 0.000000 
#    z 0.000000 0.000000 1.700720 
# 
# From -- ./inp_files/4168.got.cif
#   From: 2010.03.12/outbox.cif.g09.slc.cpg/sg187_3_cif.got.tgz:4168.got - 2010.04.01 11:58:23.
