data_PCOD8327770
_publ_section_title
;
Structure prediction by ZEFSAII (Michael W. Deem and Ramdas Pophale) SiO2 
 PCOD8327770
Probable space group: P -6 2 M
;
_chemical_formula_sum "Si O2"
_cell_formula_units_Z 66
_cell_length_a 22.438339
_cell_length_b 22.438339
_cell_length_c 8.097474
_cell_angle_alpha 90.000000
_cell_angle_beta 90.000000
_cell_angle_gamma 120.000000
_cell_volume 3530.706394
_symmetry_space_group_name_H-M "P -6 2 M"
_symmetry_group_IT_number 189
_symmetry_cell_setting 'hexagonal'
loop_
_space_group_symop_operation_xyz
x,y,z
-x+y,-x,-z
-y,x-y,z
x,y,-z
-x+y,-x,z
-y,x-y,-z
x-y,-y,-z
-x,-x+y,-z
y,x,-z
y,x,z
x-y,-y,z
-x,-x+y,z
loop_
_atom_site_type_symbol
_atom_site_label
_atom_site_fract_x
_atom_site_fract_y
_atom_site_fract_z
Si Si1 0.622863 0.812855 0.193739
Si Si2 0.191504 0.632551 0.686489
Si Si3 0.077719 0.658296 0.804898
Si Si4 0.472895 0.699687 0.812489
Si Si5 0.238215 0.078689 0.685711
Si Si6 0.920064 0.080463 0.000000
O O1 0.618903 0.880376 0.247462
O O2 0.552269 0.744586 0.240269
O O3 0.680237 0.807760 0.299624
O O4 0.639199 0.815738 0.000000
O O5 0.206396 0.658828 0.500000
O O6 0.116298 0.618946 0.737630
O O7 0.252501 0.690859 0.796076
O O8 0.193936 0.562445 0.701896
O O9 0.000000 0.622620 0.732818
O O10 0.075973 0.652253 0.000000
O O11 0.465591 0.675182 0.000000
O O12 0.214731 0.086957 0.500000
O O13 0.204326 0.101002 0.830930
O O14 0.219210 0.000000 0.714217
O O15 0.000000 0.105551 0.000000
O O16 0.879003 0.000000 0.000000
#
# Coordination Sequence:
#
# PCOD8327770 Si02
#       6
#    12  12  12  12  12   6
#     4   9  18  34  56  83 106 140 185 232 277 326
#     4  11  21  33  51  78 109 138 175 226 279 326
#     4   9  19  36  56  77 107 145 182 221 268 325
#     4  10  20  35  55  76 103 141 184 227 274 330
#     4  10  21  37  58  84 115 149 184 228 279 328
#     4  10  21  38  60  84 114 146 182 222 268 324
#
# _framework density 18.693142999999999
#
# number of rings (size 3 to 8) (size 9 to 14) (size 15 to 20)
#    0.000    2.182    0.909    3.727    0.000    5.091 
#    0.000    0.909    0.000    2.182    0.000    0.000 
#    0.000    0.000    0.000    0.000    0.000    0.000 
#
# Total GULP energy -818339.567357 kJ/mol
# GULP energy per Si atom -12399.084354 kJ/mol
# Density = 1.865060 g / cm^3
# Si number density = 18.693143 Si / 1000 Ang^3
#
#
#
# Elastic Constant Matrix: (Units=GPa)
#
#
# Indices 1 2 3 4 5 6 
#
# 1 93.7673 51.4954 31.4316 0.0000 0.0000 0.0000
# 2 51.4954 93.7673 31.4316 0.0000 0.0000 0.0000
# 3 31.4316 31.4316 77.4494 0.0000 0.0000 0.0000
# 4 0.0000 0.0000 0.0000 16.0557 0.0000 0.0000
# 5 0.0000 0.0000 0.0000 0.0000 16.0557 0.0000
# 6 0.0000 0.0000 0.0000 0.0000 0.0000 21.1359
#
#
#
# Elastic Compliance Matrix: (Units=1/GPa)
#
#
# Indices 1 2 3 4 5 6 
#
# 1 0.016004 -0.007653 -0.003389 0.000000 0.000000 0.000000
# 2 -0.007653 0.016004 -0.003389 0.000000 0.000000 0.000000
# 3 -0.003389 -0.003389 0.015662 0.000000 0.000000 0.000000
# 4 0.000000 0.000000 0.000000 0.062283 0.000000 0.000000
# 5 0.000000 0.000000 0.000000 0.000000 0.062283 0.000000
# 6 0.000000 0.000000 0.000000 0.000000 0.000000 0.047313
#
#
# Mechanical properties :
#
#
# Convention : Reuss Voigt Hill
#
# Bulk Modulus (GPa) = 53.16945 54.85568 54.01256
# Shear Modulus (GPa) = 19.63253 20.69117 20.16185
#
# Velocity S-wave (km/s) = 3.24428 3.33060 3.28772
# Velocity P-wave (km/s) = 6.52218 6.64828 6.58553
#
# Compressibility (1/GPa) = 0.01880779
#
# Stress axis : x y z
#
# Youngs Moduli (GPa) = 62.48613 62.48613 63.84725
#
# Poissons Ratio (x) = 0.47820 0.21638
# Poissons Ratio (y) = 0.47820 0.21638
# Poissons Ratio (z) = 0.21176 0.21176
#
# Static dielectric constant tensor:
#      x y z
#    x 3.408480 0.000000 0.000000 
#    y 0.000000 3.408480 0.000000 
#    z 0.000000 0.000000 3.506320 
# 
# 
# High freq. dielectric constant tensor:
#      x y z
#    x 1.715480 0.000000 0.000000 
#    y 0.000000 1.715480 0.000000 
#    z 0.000000 0.000000 1.732140 
# 
# From -- ./inp_files/1017.got.cif
#   From: 2010.03.12/outbox.cif.g09.slc.cpg/sg189_1_cif.got.tgz:1017.got - 2010.04.01 12:03:36.
