data_PCOD8327978
_publ_section_title
;
Structure prediction by ZEFSAII (Michael W. Deem and Ramdas Pophale) SiO2 
 PCOD8327978
Probable space group: P -6 2 C
;
_chemical_formula_sum "Si O2"
_cell_formula_units_Z 72
_cell_length_a 23.814782
_cell_length_b 23.814782
_cell_length_c 8.700498
_cell_angle_alpha 90.000000
_cell_angle_beta 90.000000
_cell_angle_gamma 120.000000
_cell_volume 4273.345076
_symmetry_space_group_name_H-M "P -6 2 C"
_symmetry_group_IT_number 190
_symmetry_cell_setting 'hexagonal'
loop_
_space_group_symop_operation_xyz
x,y,z
-x+y,-x,1/2-z
-y,x-y,z
x,y,1/2-z
-x+y,-x,z
-y,x-y,1/2-z
x-y,-y,-z
-x,-x+y,-z
y,x,-z
y,x,1/2+z
x-y,-y,1/2+z
-x,-x+y,1/2+z
loop_
_atom_site_type_symbol
_atom_site_label
_atom_site_fract_x
_atom_site_fract_y
_atom_site_fract_z
Si Si1 0.591140 0.405224 0.432403
Si Si2 0.263040 0.742305 0.931278
Si Si3 0.930891 0.070328 0.433113
Si Si4 0.929794 0.525919 0.931287
Si Si5 0.148167 0.742953 0.069816
Si Si6 0.811463 0.068912 0.932302
O O1 0.587175 0.409279 0.250000
O O2 0.566166 0.331624 0.486535
O O3 0.664126 0.449480 0.494760
O O4 0.547193 0.431189 0.509403
O O5 0.263879 0.745799 0.750000
O O6 0.218620 0.770748 0.993664
O O7 0.932692 0.068128 0.250000
O O8 0.880563 0.092494 0.488669
O O9 0.000000 0.122462 0.500000
O O10 0.910923 0.000000 0.500000
O O11 0.934772 0.526240 0.750000
O O12 0.901012 0.571143 0.989526
O O13 0.000000 0.551820 0.000000
O O14 0.157047 0.741807 0.250000
O O15 0.120638 0.789789 0.023317
O O16 0.816768 0.062338 0.750000
O O17 0.758120 0.000000 0.000000
#
# Coordination Sequence:
#
# PCOD8327978 Si02
#       6
#    12  12  12  12  12  12
#     4   9  17  30  47  70  96 124 156 193 232 277
#     4   9  17  29  48  70  95 125 158 192 232 278
#     4  11  21  34  51  73  99 127 158 193 232 277
#     4  10  19  31  47  69  95 126 158 193 234 278
#     4   9  19  32  47  69  98 126 156 192 234 279
#     4  10  19  32  49  71  97 126 157 193 233 277
#
# _framework density 16.848627
#
# number of rings (size 3 to 8) (size 9 to 14) (size 15 to 20)
#    0.000    2.333    0.000    4.500    0.000    4.000 
#    0.000    0.000    0.000    3.000    0.000    7.000 
#    0.000    0.000    0.000    0.000    0.000    0.000 
#
# Total GULP energy -892891.340822 kJ/mol
# GULP energy per Si atom -12401.268623 kJ/mol
# Density = 1.681028 g / cm^3
# Si number density = 16.848627 Si / 1000 Ang^3
#
#
#
# Elastic Constant Matrix: (Units=GPa)
#
#
# Indices 1 2 3 4 5 6 
#
# 1 123.3999 79.4711 42.7213 0.0000 0.0000 0.0000
# 2 79.4711 123.3999 42.7213 0.0000 0.0000 0.0000
# 3 42.7213 42.7213 69.5928 0.0000 0.0000 0.0000
# 4 0.0000 0.0000 0.0000 27.5107 0.0000 0.0000
# 5 0.0000 0.0000 0.0000 0.0000 27.5107 0.0000
# 6 0.0000 0.0000 0.0000 0.0000 0.0000 21.9644
#
#
#
# Elastic Compliance Matrix: (Units=1/GPa)
#
#
# Indices 1 2 3 4 5 6 
#
# 1 0.014706 -0.008058 -0.004081 0.000000 0.000000 0.000000
# 2 -0.008058 0.014706 -0.004081 0.000000 0.000000 0.000000
# 3 -0.004081 -0.004081 0.019380 0.000000 0.000000 0.000000
# 4 0.000000 0.000000 0.000000 0.036349 0.000000 0.000000
# 5 0.000000 0.000000 0.000000 0.000000 0.036349 0.000000
# 6 0.000000 0.000000 0.000000 0.000000 0.000000 0.045528
#
#
# Mechanical properties :
#
#
# Convention : Reuss Voigt Hill
#
# Bulk Modulus (GPa) = 61.15590 71.80221 66.47905
# Shear Modulus (GPa) = 24.40093 25.49575 24.94834
#
# Velocity S-wave (km/s) = 3.80971 3.89424 3.85221
# Velocity P-wave (km/s) = 7.46511 7.93276 7.70249
#
# Compressibility (1/GPa) = 0.01635165
#
# Stress axis : x y z
#
# Youngs Moduli (GPa) = 67.99900 67.99900 51.60005
#
# Poissons Ratio (x) = 0.54794 0.21058
# Poissons Ratio (y) = 0.54794 0.21058
# Poissons Ratio (z) = 0.27751 0.27751
#
# Static dielectric constant tensor:
#      x y z
#    x 3.194260 0.000000 0.000000 
#    y 0.000000 3.194260 0.000000 
#    z 0.000000 0.000000 3.150390 
# 
# 
# High freq. dielectric constant tensor:
#      x y z
#    x 1.640780 0.000000 0.000000 
#    y 0.000000 1.640780 0.000000 
#    z 0.000000 0.000000 1.655290 
# 
# From -- ./inp_files/1219.got.cif
#   From: 2010.06.25/outbox.cif.g09.slc.cpg/sg190_1_cif.got.tgz:1219.got - 2010.06.28 13:08:06.
