data_PCOD8327321
_publ_section_title
;
Structure prediction by ZEFSAII (Michael W. Deem and Ramdas Pophale) SiO2 
 PCOD8327321
Probable space group: P -6 C 2
;
_chemical_formula_sum "Si O2"
_cell_formula_units_Z 60
_cell_length_a 17.046807
_cell_length_b 17.046807
_cell_length_c 15.273091
_cell_angle_alpha 90.000000
_cell_angle_beta 90.000000
_cell_angle_gamma 120.000000
_cell_volume 3843.648453
_symmetry_space_group_name_H-M "P -6 C 2"
_symmetry_group_IT_number 188
_symmetry_cell_setting 'hexagonal'
loop_
_space_group_symop_operation_xyz
x,y,z
-x+y,-x,1/2-z
-y,x-y,z
x,y,1/2-z
-x+y,-x,z
-y,x-y,1/2-z
-y,-x,-z
-x+y,y,-z
x,x-y,-z
-x+y,y,1/2+z
x,x-y,1/2+z
-y,-x,1/2+z
loop_
_atom_site_type_symbol
_atom_site_label
_atom_site_fract_x
_atom_site_fract_y
_atom_site_fract_z
Si Si1 0.359398 0.833921 0.415926
Si Si2 0.425834 0.020573 0.152067
Si Si3 0.508237 0.818606 0.345982
Si Si4 0.410236 0.387733 0.347279
Si Si5 0.668018 0.519253 0.002510
O O1 0.419082 0.838163 0.500000
O O2 0.411229 0.814504 0.337649
O O3 0.253968 0.755629 0.417818
O O4 0.359787 0.927149 0.398651
O O5 0.390334 0.023552 0.250000
O O6 0.523413 0.030516 0.158129
O O7 0.430145 0.101243 0.093197
O O8 0.532022 0.796580 0.250000
O O9 0.584961 0.919934 0.375578
O O10 0.386960 0.342088 0.250000
O O11 0.416161 0.322900 0.420319
O O12 0.576040 0.423961 0.000000
O O13 0.750404 0.500808 0.000000
#
# Coordination Sequence:
#
# PCOD8327321 Si02
#       5
#    12  12  12  12  12
#     4  11  19  27  40  60  86 117 155 188 212 240
#     4   9  17  30  44  59  82 112 140 173 217 262
#     4  10  18  28  40  57  83 117 152 184 210 238
#     4   8  16  30  45  59  82 113 142 173 218 265
#     4  10  19  31  46  63  81 103 137 180 224 269
#
# _framework density 15.610168
#
# number of rings (size 3 to 8) (size 9 to 14) (size 15 to 20)
#    0.000    2.400    0.000    7.200    0.000    0.800 
#    0.000    0.000    0.000    2.400    0.000    0.000 
#    0.000    0.000    0.000    4.800    0.000   19.200 
#
# Total GULP energy -743301.452731 kJ/mol
# GULP energy per Si atom -12388.357546 kJ/mol
# Density = 1.557464 g / cm^3
# Si number density = 15.610168 Si / 1000 Ang^3
#
#
#
# Elastic Constant Matrix: (Units=GPa)
#
#
# Indices 1 2 3 4 5 6 
#
# 1 59.2052 22.7993 36.8384 0.0000 0.0000 0.0000
# 2 22.7993 59.2052 36.8384 0.0000 0.0000 0.0000
# 3 36.8384 36.8384 122.0209 0.0000 0.0000 0.0000
# 4 0.0000 0.0000 0.0000 17.0108 0.0000 0.0000
# 5 0.0000 0.0000 0.0000 0.0000 17.0108 0.0000
# 6 0.0000 0.0000 0.0000 0.0000 0.0000 18.2029
#
#
#
# Elastic Compliance Matrix: (Units=1/GPa)
#
#
# Indices 1 2 3 4 5 6 
#
# 1 0.022101 -0.005367 -0.005052 0.000000 0.000000 0.000000
# 2 -0.005367 0.022101 -0.005052 0.000000 0.000000 0.000000
# 3 -0.005052 -0.005052 0.011246 0.000000 0.000000 0.000000
# 4 0.000000 0.000000 0.000000 0.058786 0.000000 0.000000
# 5 0.000000 0.000000 0.000000 0.000000 0.058786 0.000000
# 6 0.000000 0.000000 0.000000 0.000000 0.000000 0.054936
#
#
# Mechanical properties :
#
#
# Convention : Reuss Voigt Hill
#
# Bulk Modulus (GPa) = 40.80820 48.15372 44.48096
# Shear Modulus (GPa) = 18.72197 20.04191 19.38194
#
# Velocity S-wave (km/s) = 3.46691 3.58704 3.52749
# Velocity P-wave (km/s) = 6.49806 6.93329 6.71920
#
# Compressibility (1/GPa) = 0.02450488
#
# Stress axis : x y z
#
# Youngs Moduli (GPa) = 45.24748 45.24748 88.92346
#
# Poissons Ratio (x) = 0.24286 0.44922
# Poissons Ratio (y) = 0.24286 0.44922
# Poissons Ratio (z) = 0.22858 0.22858
#
# Static dielectric constant tensor:
#      x y z
#    x 2.705650 0.000000 0.000000 
#    y 0.000000 2.705650 0.000000 
#    z 0.000000 0.000000 3.471180 
# 
# 
# High freq. dielectric constant tensor:
#      x y z
#    x 1.553140 0.000000 0.000000 
#    y 0.000000 1.553140 0.000000 
#    z 0.000000 0.000000 1.628270 
# 
# From -- ./inp_files/2377.got.cif
#   From: 2010.03.12/outbox.cif.g09.slc.cpg/sg188_2_cif.got.tgz:2377.got - 2010.04.01 12:01:06.
