data_PCOD8327255
_publ_section_title
;
Structure prediction by ZEFSAII (Michael W. Deem and Ramdas Pophale) SiO2 
 PCOD8327255
Probable space group: P -6 M 2
;
_chemical_formula_sum "Si O2"
_cell_formula_units_Z 72
_cell_length_a 22.555454
_cell_length_b 22.555454
_cell_length_c 9.239433
_cell_angle_alpha 90.000000
_cell_angle_beta 90.000000
_cell_angle_gamma 120.000000
_cell_volume 4070.793743
_symmetry_space_group_name_H-M "P -6 M 2"
_symmetry_group_IT_number 187
_symmetry_cell_setting 'hexagonal'
loop_
_space_group_symop_operation_xyz
x,y,z
-x+y,-x,-z
-y,x-y,z
x,y,-z
-x+y,-x,z
-y,x-y,-z
-y,-x,-z
-x+y,y,-z
x,x-y,-z
-x+y,y,z
x,x-y,z
-y,-x,z
loop_
_atom_site_type_symbol
_atom_site_label
_atom_site_fract_x
_atom_site_fract_y
_atom_site_fract_z
Si Si1 0.716713 0.788043 0.337128
Si Si2 0.868299 0.000230 0.328011
Si Si3 0.330975 0.926792 0.171235
Si Si4 0.463851 0.399348 0.831892
Si Si5 0.333152 0.804181 0.668204
Si Si6 0.667153 0.198234 0.329888
O O1 0.701708 0.757011 0.500000
O O2 0.711365 0.855683 0.336926
O O3 0.792823 0.806818 0.284603
O O4 0.663224 0.735855 0.224094
O O5 0.872457 0.999132 0.500000
O O6 0.880992 0.940496 0.265147
O O7 0.926438 0.073563 0.265522
O O8 0.336724 0.865204 0.239547
O O9 0.395592 0.997906 0.220907
O O10 0.328001 0.917566 0.000000
O O11 0.525807 0.474194 0.794329
O O12 0.472096 0.341893 0.746244
O O13 0.460999 0.382179 0.000000
O O14 0.331388 0.820824 0.500000
O O15 0.398004 0.796007 0.705353
O O16 0.265889 0.734112 0.712319
O O17 0.668304 0.188095 0.500000
O O18 0.605822 0.211644 0.285241
O O19 0.737538 0.262463 0.275186
#
# Coordination Sequence:
#
# PCOD8327255 Si02
#       6
#    12  12  12  12  12  12
#     4   9  18  32  49  71 100 131 163 201 244 291
#     4   8  13  23  43  71  99 125 156 199 250 298
#     4  11  22  35  52  73  98 132 171 207 243 282
#     4   9  19  35  51  68  94 127 163 203 243 285
#     4  10  21  37  57  80 105 131 159 195 242 295
#     4   9  17  30  50  76 103 128 156 195 244 294
#
# _framework density 17.686968
#
# number of rings (size 3 to 8) (size 9 to 14) (size 15 to 20)
#    0.000    2.667    0.000    3.000    0.000    7.333 
#    0.000    2.500    0.000    5.500    0.000    0.000 
#    0.000    1.333    0.000    0.000    0.000    0.000 
#
# Total GULP energy -892755.160273 kJ/mol
# GULP energy per Si atom -12399.377226 kJ/mol
# Density = 1.764671 g / cm^3
# Si number density = 17.686968 Si / 1000 Ang^3
#
#
#
# Elastic Constant Matrix: (Units=GPa)
#
#
# Indices 1 2 3 4 5 6 
#
# 1 124.0595 68.1501 50.5949 0.0000 -0.0002 0.0000
# 2 68.1501 124.0595 50.5949 0.0000 0.0002 0.0000
# 3 50.5949 50.5949 48.0585 0.0000 0.0000 0.0000
# 4 0.0000 0.0000 0.0000 19.6255 0.0000 0.0002
# 5 -0.0002 0.0002 0.0000 0.0000 19.6255 0.0000
# 6 0.0000 0.0000 0.0000 0.0002 0.0000 27.9547
#
#
#
# Elastic Compliance Matrix: (Units=1/GPa)
#
#
# Indices 1 2 3 4 5 6 
#
# 1 0.014779 -0.003107 -0.012287 0.000000 0.000000 0.000000
# 2 -0.003107 0.014779 -0.012287 0.000000 0.000000 0.000000
# 3 -0.012287 -0.012287 0.046680 0.000000 0.000000 0.000000
# 4 0.000000 0.000000 0.000000 0.050954 0.000000 0.000000
# 5 0.000000 0.000000 0.000000 0.000000 0.050954 0.000000
# 6 0.000000 0.000000 0.000000 0.000000 0.000000 0.035772
#
#
# Mechanical properties :
#
#
# Convention : Reuss Voigt Hill
#
# Bulk Modulus (GPa) = 47.90880 70.53969 59.22424
# Shear Modulus (GPa) = 18.10022 21.89698 19.99860
#
# Velocity S-wave (km/s) = 3.20248 3.52238 3.36623
# Velocity P-wave (km/s) = 6.38908 7.51743 6.97611
#
# Compressibility (1/GPa) = 0.02087299
#
# Stress axis : x y z
#
# Youngs Moduli (GPa) = 67.66475 67.66475 21.42256
#
# Poissons Ratio (x) = 0.21026 0.26323
# Poissons Ratio (y) = 0.21026 0.26323
# Poissons Ratio (z) = 0.83142 0.83142
#
# Static dielectric constant tensor:
#      x y z
#    x 3.459480 0.000000 0.000000 
#    y 0.000000 3.459480 0.000000 
#    z 0.000000 0.000000 3.073310 
# 
# 
# High freq. dielectric constant tensor:
#      x y z
#    x 1.687260 0.000000 0.000000 
#    y 0.000000 1.687260 0.000000 
#    z 0.000000 0.000000 1.660990 
# 
# From -- ./inp_files/964.got.cif
#   From: 2010.03.12/outbox.cif.g09.slc.cpg/sg187_1_cif.got.tgz:964.got - 2010.04.01 11:58:23.
