data_PCOD8327557
_publ_section_title
;
Structure prediction by ZEFSAII (Michael W. Deem and Ramdas Pophale) SiO2 
 PCOD8327557
Probable space group: P -6 2 M
;
_chemical_formula_sum "Si O2"
_cell_formula_units_Z 72
_cell_length_a 23.905392
_cell_length_b 23.905392
_cell_length_c 9.493598
_cell_angle_alpha 90.000000
_cell_angle_beta 90.000000
_cell_angle_gamma 120.000000
_cell_volume 4698.434846
_symmetry_space_group_name_H-M "P -6 2 M"
_symmetry_group_IT_number 189
_symmetry_cell_setting 'hexagonal'
loop_
_space_group_symop_operation_xyz
x,y,z
-x+y,-x,-z
-y,x-y,z
x,y,-z
-x+y,-x,z
-y,x-y,-z
x-y,-y,-z
-x,-x+y,-z
y,x,-z
y,x,z
x-y,-y,z
-x,-x+y,z
loop_
_atom_site_type_symbol
_atom_site_label
_atom_site_fract_x
_atom_site_fract_y
_atom_site_fract_z
Si Si1 0.174458 0.809030 0.656500
Si Si2 0.629041 0.701028 0.667849
Si Si3 0.073520 0.702778 0.836764
Si Si4 0.483058 0.623110 0.664657
Si Si5 0.733309 0.252082 0.345066
Si Si6 0.628777 0.150260 0.164466
O O1 0.150365 0.813728 0.500000
O O2 0.224905 0.880463 0.718608
O O3 0.112400 0.770961 0.755947
O O4 0.214021 0.771955 0.649019
O O5 0.627271 0.701165 0.500000
O O6 0.676379 0.676379 0.726355
O O7 0.556278 0.652628 0.720455
O O8 0.102086 0.655898 0.805843
O O9 0.000000 0.666586 0.783492
O O10 0.078662 0.720045 0.000000
O O11 0.477433 0.604568 0.500000
O O12 0.457911 0.673777 0.692263
O O13 0.439679 0.559562 0.756845
O O14 0.702381 0.247584 0.500000
O O15 0.677289 0.221123 0.228497
O O16 0.620075 0.158126 0.000000
#
# Coordination Sequence:
#
# PCOD8327557 Si02
#       6
#    12  12  12  12  12  12
#     4   8  14  26  45  65  82 102 133 170 199 232
#     4   8  14  26  45  67  88 110 136 166 204 250
#     4   9  18  31  44  59  83 115 143 166 204 254
#     4   9  17  29  44  60  79 105 136 170 211 259
#     4   8  15  29  44  55  71  99 133 166 205 253
#     4  10  19  29  42  59  79 103 134 176 219 256
#
# _framework density 15.324252
#
# number of rings (size 3 to 8) (size 9 to 14) (size 15 to 20)
#    0.000    3.333    0.000    2.500    0.000    2.333 
#    1.000    2.500    0.000    1.500    0.000    0.000 
#    0.000    0.000    0.000    0.500    0.000    7.667 
#
# Total GULP energy -892347.382049 kJ/mol
# GULP energy per Si atom -12393.713640 kJ/mol
# Density = 1.528937 g / cm^3
# Si number density = 15.324252 Si / 1000 Ang^3
#
#
#
# Elastic Constant Matrix: (Units=GPa)
#
#
# Indices 1 2 3 4 5 6 
#
# 1 80.4228 51.0616 41.7761 0.0000 0.0000 0.0000
# 2 51.0616 80.4228 41.7761 0.0000 0.0000 0.0000
# 3 41.7761 41.7761 63.3436 0.0000 0.0000 0.0000
# 4 0.0000 0.0000 0.0000 16.2470 0.0000 0.0000
# 5 0.0000 0.0000 0.0000 0.0000 16.2470 0.0000
# 6 0.0000 0.0000 0.0000 0.0000 0.0000 14.6806
#
#
#
# Elastic Compliance Matrix: (Units=1/GPa)
#
#
# Indices 1 2 3 4 5 6 
#
# 1 0.023575 -0.010483 -0.008635 0.000000 0.000000 0.000000
# 2 -0.010483 0.023575 -0.008635 0.000000 0.000000 0.000000
# 3 -0.008635 -0.008635 0.027176 0.000000 0.000000 0.000000
# 4 0.000000 0.000000 0.000000 0.061550 0.000000 0.000000
# 5 0.000000 0.000000 0.000000 0.000000 0.061550 0.000000
# 6 0.000000 0.000000 0.000000 0.000000 0.000000 0.068117
#
#
# Mechanical properties :
#
#
# Convention : Reuss Voigt Hill
#
# Bulk Modulus (GPa) = 53.12793 54.82410 53.97601
# Shear Modulus (GPa) = 15.27543 15.40660 15.34101
#
# Velocity S-wave (km/s) = 3.16066 3.17420 3.16744
# Velocity P-wave (km/s) = 6.93283 7.02053 6.97682
#
# Compressibility (1/GPa) = 0.01882249
#
# Stress axis : x y z
#
# Youngs Moduli (GPa) = 42.41699 42.41699 36.79684
#
# Poissons Ratio (x) = 0.44466 0.31773
# Poissons Ratio (y) = 0.44466 0.31773
# Poissons Ratio (z) = 0.36625 0.36625
#
# Static dielectric constant tensor:
#      x y z
#    x 2.946370 0.000000 0.000000 
#    y 0.000000 2.946370 0.000000 
#    z 0.000000 0.000000 2.871300 
# 
# 
# High freq. dielectric constant tensor:
#      x y z
#    x 1.563560 0.000000 0.000000 
#    y 0.000000 1.563560 0.000000 
#    z 0.000000 0.000000 1.573340 
# 
# From -- ./inp_files/1212.got.cif
#   From: 2010.03.12/outbox.cif.g09.slc.cpg/sg189_1_cif.got.tgz:1212.got - 2010.04.01 12:03:36.
