data_PCOD8327702
_publ_section_title
;
Structure prediction by ZEFSAII (Michael W. Deem and Ramdas Pophale) SiO2 
 PCOD8327702
Probable space group: P -6 2 M
;
_chemical_formula_sum "Si O2"
_cell_formula_units_Z 72
_cell_length_a 23.488342
_cell_length_b 23.488342
_cell_length_c 9.277227
_cell_angle_alpha 90.000000
_cell_angle_beta 90.000000
_cell_angle_gamma 120.000000
_cell_volume 4432.548932
_symmetry_space_group_name_H-M "P -6 2 M"
_symmetry_group_IT_number 189
_symmetry_cell_setting 'hexagonal'
loop_
_space_group_symop_operation_xyz
x,y,z
-x+y,-x,-z
-y,x-y,z
x,y,-z
-x+y,-x,z
-y,x-y,-z
x-y,-y,-z
-x,-x+y,-z
y,x,-z
y,x,z
x-y,-y,z
-x,-x+y,z
loop_
_atom_site_type_symbol
_atom_site_label
_atom_site_fract_x
_atom_site_fract_y
_atom_site_fract_z
Si Si1 0.255638 0.180740 0.167316
Si Si2 0.405925 0.267618 0.835697
Si Si3 0.600314 0.075700 0.330681
Si Si4 0.412342 0.924189 0.833908
Si Si5 0.865007 0.264426 0.166434
Si Si6 0.732293 0.808221 0.333949
O O1 0.205936 0.205936 0.210142
O O2 0.329421 0.237965 0.201835
O O3 0.236953 0.116499 0.260584
O O4 0.250016 0.161306 0.000000
O O5 0.448487 0.327179 0.729778
O O6 0.426122 0.212159 0.809141
O O7 0.420109 0.293153 0.000000
O O8 0.601478 0.085967 0.500000
O O9 0.552601 0.098996 0.262174
O O10 0.574850 0.000000 0.289188
O O11 0.336517 0.880188 0.787421
O O12 0.434731 0.000000 0.804528
O O13 0.422859 0.912670 0.000000
O O14 0.909400 0.244729 0.260385
O O15 0.884253 0.263555 0.000000
O O16 0.717456 0.814057 0.500000
O O17 0.785665 0.785665 0.315496
#
# Coordination Sequence:
#
# PCOD8327702 Si02
#       6
#    12  12  12  12  12  12
#     4   9  18  32  50  71  93 120 156 196 234 271
#     4   9  17  30  48  69  93 119 149 187 228 270
#     4  10  20  31  44  66  95 124 153 185 223 269
#     4   9  17  30  49  70  91 118 152 189 229 271
#     4   9  18  32  50  71  93 120 155 193 231 271
#     4  10  20  31  45  69  99 128 155 185 227 278
#
# _framework density 16.243475
#
# number of rings (size 3 to 8) (size 9 to 14) (size 15 to 20)
#    0.000    2.667    0.000    3.000    0.000    7.333 
#    0.000    1.667    0.000    1.000    0.000    2.333 
#    0.000    0.000    0.000    0.000    0.000    0.000 
#
# Total GULP energy -892953.607511 kJ/mol
# GULP energy per Si atom -12402.133438 kJ/mol
# Density = 1.620650 g / cm^3
# Si number density = 16.243475 Si / 1000 Ang^3
#
#
#
# Elastic Constant Matrix: (Units=GPa)
#
#
# Indices 1 2 3 4 5 6 
#
# 1 104.4621 58.1188 60.1990 0.0000 0.0000 0.0000
# 2 58.1188 104.4621 60.1990 0.0000 0.0000 0.0000
# 3 60.1990 60.1990 89.2662 0.0000 0.0000 0.0000
# 4 0.0000 0.0000 0.0000 19.9529 0.0000 0.0000
# 5 0.0000 0.0000 0.0000 0.0000 19.9529 0.0000
# 6 0.0000 0.0000 0.0000 0.0000 0.0000 23.1716
#
#
#
# Elastic Compliance Matrix: (Units=1/GPa)
#
#
# Indices 1 2 3 4 5 6 
#
# 1 0.016933 -0.004646 -0.008286 0.000000 0.000000 0.000000
# 2 -0.004646 0.016933 -0.008286 0.000000 0.000000 0.000000
# 3 -0.008286 -0.008286 0.022378 0.000000 0.000000 0.000000
# 4 0.000000 0.000000 0.000000 0.050118 0.000000 0.000000
# 5 0.000000 0.000000 0.000000 0.000000 0.050118 0.000000
# 6 0.000000 0.000000 0.000000 0.000000 0.000000 0.043156
#
#
# Mechanical properties :
#
#
# Convention : Reuss Voigt Hill
#
# Bulk Modulus (GPa) = 72.42162 72.80268 72.61215
# Shear Modulus (GPa) = 20.26974 20.59374 20.43174
#
# Velocity S-wave (km/s) = 3.53635 3.56450 3.55046
# Velocity P-wave (km/s) = 7.83302 7.86498 7.84902
#
# Compressibility (1/GPa) = 0.01380803
#
# Stress axis : x y z
#
# Youngs Moduli (GPa) = 59.05800 59.05800 44.68636
#
# Poissons Ratio (x) = 0.27436 0.37027
# Poissons Ratio (y) = 0.27436 0.37027
# Poissons Ratio (z) = 0.48935 0.48935
#
# Static dielectric constant tensor:
#      x y z
#    x 3.019030 0.000000 0.000000 
#    y 0.000000 3.019030 0.000000 
#    z 0.000000 0.000000 3.085620 
# 
# 
# High freq. dielectric constant tensor:
#      x y z
#    x 1.613890 0.000000 0.000000 
#    y 0.000000 1.613890 0.000000 
#    z 0.000000 0.000000 1.628650 
# 
# From -- ./inp_files/1206.got.cif
#   From: 2010.03.12/outbox.cif.g09.slc.cpg/sg189_1_cif.got.tgz:1206.got - 2010.04.01 12:03:36.
