data_PCOD8327274
_publ_section_title
;
Structure prediction by ZEFSAII (Michael W. Deem and Ramdas Pophale) SiO2 
 PCOD8327274
Probable space group: P -6 M 2
;
_chemical_formula_sum "Si O2"
_cell_formula_units_Z 60
_cell_length_a 20.854801
_cell_length_b 20.854801
_cell_length_c 9.032078
_cell_angle_alpha 90.000000
_cell_angle_beta 90.000000
_cell_angle_gamma 120.000000
_cell_volume 3401.969466
_symmetry_space_group_name_H-M "P -6 M 2"
_symmetry_group_IT_number 187
_symmetry_cell_setting 'hexagonal'
loop_
_space_group_symop_operation_xyz
x,y,z
-x+y,-x,-z
-y,x-y,z
x,y,-z
-x+y,-x,z
-y,x-y,-z
-y,-x,-z
-x+y,y,-z
x,x-y,-z
-x+y,y,z
x,x-y,z
-y,-x,z
loop_
_atom_site_type_symbol
_atom_site_label
_atom_site_fract_x
_atom_site_fract_y
_atom_site_fract_z
Si Si1 0.042008 0.450414 0.671023
Si Si2 0.414425 0.207213 0.175553
Si Si3 0.794914 0.971596 0.170788
Si Si4 0.873880 0.747759 0.675553
Si Si5 0.638263 0.510015 0.329212
Si Si6 0.117081 0.375341 0.828977
O O1 0.061581 0.459513 0.500000
O O2 0.055685 0.527843 0.737413
O O3 0.097005 0.430338 0.750000
O O4 0.957368 0.388320 0.696159
O O5 0.333333 0.166667 0.250000
O O6 0.463859 0.171419 0.222145
O O7 0.402728 0.201364 0.000000
O O8 0.812284 0.906142 0.212340
O O9 0.709298 0.945014 0.196158
O O10 0.838086 0.040893 0.277854
O O11 0.817096 0.995083 0.000000
O O12 0.868031 0.736062 0.500000
O O13 0.661750 0.511322 0.500000
O O14 0.572810 0.427191 0.287661
O O15 0.194509 0.389017 0.762586
O O16 0.126181 0.394915 0.000000
#
# Coordination Sequence:
#
# PCOD8327274 Si02
#       6
#    12   6  12   6  12  12
#     4   9  18  32  51  76 103 130 164 206 249 300
#     4  12  24  36  54  80 110 142 182 228 270 318
#     4   9  19  37  57  77 104 137 174 216 267 323
#     4  12  24  36  54  80 110 142 182 228 270 318
#     4   9  19  37  57  77 104 137 174 216 267 323
#     4   9  18  32  51  76 103 130 164 206 249 300
#
# _framework density 17.636844
#
# number of rings (size 3 to 8) (size 9 to 14) (size 15 to 20)
#    0.000    2.400    0.000    5.400    0.000    6.400 
#    1.200    4.000    0.000    0.400    0.000    0.000 
#    0.000    0.000    0.000    0.000    0.000    0.000 
#
# Total GULP energy -743859.498054 kJ/mol
# GULP energy per Si atom -12397.658301 kJ/mol
# Density = 1.759670 g / cm^3
# Si number density = 17.636844 Si / 1000 Ang^3
#
#
#
# Elastic Constant Matrix: (Units=GPa)
#
#
# Indices 1 2 3 4 5 6 
#
# 1 97.7839 50.8009 56.3542 0.0000 -0.0002 0.0000
# 2 50.8009 97.7839 56.3542 0.0000 0.0002 0.0000
# 3 56.3542 56.3542 91.9613 0.0000 0.0000 0.0000
# 4 0.0000 0.0000 0.0000 30.8560 0.0000 0.0002
# 5 -0.0002 0.0002 0.0000 0.0000 30.8560 0.0000
# 6 0.0000 0.0000 0.0000 0.0002 0.0000 23.4915
#
#
#
# Elastic Compliance Matrix: (Units=1/GPa)
#
#
# Indices 1 2 3 4 5 6 
#
# 1 0.016930 -0.004354 -0.007707 0.000000 0.000000 0.000000
# 2 -0.004354 0.016930 -0.007707 0.000000 0.000000 0.000000
# 3 -0.007707 -0.007707 0.020319 0.000000 0.000000 0.000000
# 4 0.000000 0.000000 0.000000 0.032409 0.000000 0.000000
# 5 0.000000 0.000000 0.000000 0.000000 0.032409 0.000000
# 6 0.000000 0.000000 0.000000 0.000000 0.000000 0.042569
#
#
# Mechanical properties :
#
#
# Convention : Reuss Voigt Hill
#
# Bulk Modulus (GPa) = 68.28295 68.28310 68.28302
# Shear Modulus (GPa) = 24.27400 25.30870 24.79135
#
# Velocity S-wave (km/s) = 3.71391 3.79224 3.75328
# Velocity P-wave (km/s) = 7.56247 7.61413 7.58834
#
# Compressibility (1/GPa) = 0.01464494
#
# Stress axis : x y z
#
# Youngs Moduli (GPa) = 59.06631 59.06631 49.21407
#
# Poissons Ratio (x) = 0.25718 0.37927
# Poissons Ratio (y) = 0.25718 0.37927
# Poissons Ratio (z) = 0.45520 0.45520
#
# Static dielectric constant tensor:
#      x y z
#    x 3.393110 0.000000 0.000000 
#    y 0.000000 3.393110 0.000000 
#    z 0.000000 0.000000 3.148230 
# 
# 
# High freq. dielectric constant tensor:
#      x y z
#    x 1.682220 0.000000 0.000000 
#    y 0.000000 1.682220 0.000000 
#    z 0.000000 0.000000 1.674190 
# 
# From -- ./inp_files/698.got.cif
#   From: 2010.03.12/outbox.cif.g09.slc.cpg/sg187_1_cif.got.tgz:698.got - 2010.04.01 11:58:23.
