data_PCOD8327428
_publ_section_title
;
Structure prediction by ZEFSAII (Michael W. Deem and Ramdas Pophale) SiO2 
 PCOD8327428
Probable space group: P -6 C 2
;
_chemical_formula_sum "Si O2"
_cell_formula_units_Z 66
_cell_length_a 20.294295
_cell_length_b 20.294295
_cell_length_c 9.070731
_cell_angle_alpha 90.000000
_cell_angle_beta 90.000000
_cell_angle_gamma 120.000000
_cell_volume 3235.346931
_symmetry_space_group_name_H-M "P -6 C 2"
_symmetry_group_IT_number 188
_symmetry_cell_setting 'hexagonal'
loop_
_space_group_symop_operation_xyz
x,y,z
-x+y,-x,1/2-z
-y,x-y,z
x,y,1/2-z
-x+y,-x,z
-y,x-y,1/2-z
-y,-x,-z
-x+y,y,-z
x,x-y,-z
-x+y,y,1/2+z
x,x-y,1/2+z
-y,-x,1/2+z
loop_
_atom_site_type_symbol
_atom_site_label
_atom_site_fract_x
_atom_site_fract_y
_atom_site_fract_z
Si Si1 0.539605 0.079210 0.000000
Si Si2 0.000480 0.138597 0.926804
Si Si3 0.950249 0.689142 0.074965
Si Si4 0.205364 0.667590 0.073855
Si Si5 0.831395 0.288931 0.083054
Si Si6 0.574016 0.956269 0.088483
O O1 0.511202 0.130749 0.081947
O O2 0.552983 0.023103 0.105225
O O3 0.004031 0.130911 0.750000
O O4 0.973249 0.198624 0.969882
O O5 0.941830 0.058171 0.000000
O O6 0.082913 0.165826 0.000000
O O7 0.938315 0.676433 0.250000
O O8 0.015138 0.671376 0.014877
O O9 0.875459 0.625267 0.994084
O O10 0.213627 0.669448 0.250000
O O11 0.119124 0.629192 0.009396
O O12 0.249147 0.750854 0.000000
O O13 0.240943 0.620472 0.000000
O O14 0.818848 0.261551 0.250000
O O15 0.749480 0.250521 0.000000
O O16 0.579354 0.928280 0.250000
#
# Coordination Sequence:
#
# PCOD8327428 Si02
#       6
#     6  12  12  12  12  12
#     4  10  20  40  62  88 118 158 206 248 300 358
#     4  11  23  39  60  85 117 156 198 243 297 356
#     4   9  20  39  62  88 120 155 194 246 300 356
#     4  11  22  37  56  81 114 154 197 246 300 357
#     4  11  23  38  62  92 123 160 200 248 301 361
#     4   9  18  35  60  86 115 150 194 245 298 351
#
# _framework density 20.399666
#
# number of rings (size 3 to 8) (size 9 to 14) (size 15 to 20)
#    0.000    1.818    0.909    3.091    0.000    5.818 
#    0.545    0.909    0.000    0.000    0.000    0.000 
#    0.000    0.000    0.000    0.000    0.000    0.000 
#
# Total GULP energy -817646.324170 kJ/mol
# GULP energy per Si atom -12388.580669 kJ/mol
# Density = 2.035324 g / cm^3
# Si number density = 20.399666 Si / 1000 Ang^3
#
#
#
# Elastic Constant Matrix: (Units=GPa)
#
#
# Indices 1 2 3 4 5 6 
#
# 1 116.7562 58.8121 40.7629 0.0000 0.0000 0.0000
# 2 58.8121 116.7562 40.7629 0.0000 0.0000 0.0000
# 3 40.7629 40.7629 106.3781 0.0000 0.0000 0.0000
# 4 0.0000 0.0000 0.0000 24.1394 0.0000 0.0000
# 5 0.0000 0.0000 0.0000 0.0000 24.1394 0.0000
# 6 0.0000 0.0000 0.0000 0.0000 0.0000 28.9720
#
#
#
# Elastic Compliance Matrix: (Units=1/GPa)
#
#
# Indices 1 2 3 4 5 6 
#
# 1 0.012093 -0.005165 -0.002655 0.000000 0.000000 0.000000
# 2 -0.005165 0.012093 -0.002655 0.000000 0.000000 0.000000
# 3 -0.002655 -0.002655 0.011435 0.000000 0.000000 0.000000
# 4 0.000000 0.000000 0.000000 0.041426 0.000000 0.000000
# 5 0.000000 0.000000 0.000000 0.000000 0.041426 0.000000
# 6 0.000000 0.000000 0.000000 0.000000 0.000000 0.034516
#
#
# Mechanical properties :
#
#
# Convention : Reuss Voigt Hill
#
# Bulk Modulus (GPa) = 68.15467 68.95183 68.55325
# Shear Modulus (GPa) = 27.95948 28.75365 28.35657
#
# Velocity S-wave (km/s) = 3.70616 3.75842 3.73238
# Velocity P-wave (km/s) = 7.19697 7.26004 7.22857
#
# Compressibility (1/GPa) = 0.01467251
#
# Stress axis : x y z
#
# Youngs Moduli (GPa) = 82.69018 82.69018 87.44971
#
# Poissons Ratio (x) = 0.42707 0.23218
# Poissons Ratio (y) = 0.42707 0.23218
# Poissons Ratio (z) = 0.21954 0.21954
#
# Static dielectric constant tensor:
#      x y z
#    x 3.885360 0.000000 0.000000 
#    y 0.000000 3.885360 0.000000 
#    z 0.000000 0.000000 3.956760 
# 
# 
# High freq. dielectric constant tensor:
#      x y z
#    x 1.802370 0.000000 0.000000 
#    y 0.000000 1.802370 0.000000 
#    z 0.000000 0.000000 1.783160 
# 
# From -- ./inp_files/775.got.cif
#   From: 2010.03.12/outbox.cif.g09.slc.cpg/sg188_1_cif.got.tgz:775.got - 2010.04.01 12:01:06.
