data_PCOD8327507
_publ_section_title
;
Structure prediction by ZEFSAII (Michael W. Deem and Ramdas Pophale) SiO2 
 PCOD8327507
Probable space group: P -6 2 M
;
_chemical_formula_sum "Si O2"
_cell_formula_units_Z 96
_cell_length_a 15.054446
_cell_length_b 15.054446
_cell_length_c 28.049871
_cell_angle_alpha 90.000000
_cell_angle_beta 90.000000
_cell_angle_gamma 120.000000
_cell_volume 5505.427608
_symmetry_space_group_name_H-M "P -6 2 M"
_symmetry_group_IT_number 189
_symmetry_cell_setting 'hexagonal'
loop_
_space_group_symop_operation_xyz
x,y,z
-x+y,-x,-z
-y,x-y,z
x,y,-z
-x+y,-x,z
-y,x-y,-z
x-y,-y,-z
-x,-x+y,-z
y,x,-z
y,x,z
x-y,-y,z
-x,-x+y,z
loop_
_atom_site_type_symbol
_atom_site_label
_atom_site_fract_x
_atom_site_fract_y
_atom_site_fract_z
Si Si1 0.884220 0.767694 0.615755
Si Si2 0.430247 0.231116 0.556691
Si Si3 0.753814 0.633833 0.192725
Si Si4 0.112741 0.540973 0.556681
Si Si5 0.879264 0.611296 0.117426
Si Si6 0.711309 0.595287 0.054193
Si Si7 0.118067 0.237255 0.724281
Si Si8 0.464893 0.580767 0.860625
O O1 0.808395 0.808395 0.599904
O O2 0.870935 0.679093 0.580274
O O3 0.862488 0.725614 0.669648
O O4 0.000000 0.861102 0.611540
O O5 0.415255 0.226052 0.500000
O O6 0.479859 0.166025 0.576219
O O7 0.509812 0.343853 0.575225
O O8 0.701426 0.701426 0.179470
O O9 0.851466 0.667872 0.158591
O O10 0.802257 0.660570 0.245811
O O11 0.669401 0.513063 0.181255
O O12 0.114044 0.540505 0.500000
O O13 0.000000 0.483751 0.578106
O O14 0.825234 0.621279 0.069448
O O15 0.832968 0.491423 0.134533
O O16 0.000000 0.668679 0.107444
O O17 0.692681 0.692681 0.059587
O O18 0.631455 0.503994 0.087793
O O19 0.691927 0.555532 0.000000
O O20 0.191130 0.191130 0.739129
O O21 0.000000 0.148009 0.731698
O O22 0.501887 0.501887 0.846990
#
# Coordination Sequence:
#
# PCOD8327507 Si02
#       8
#    12  12  12  12  12  12  12  12
#     4  10  20  33  50  74 106 140 173 206 247 302
#     4  10  19  32  51  73  98 131 170 213 259 304
#     4   9  17  32  52  71  96 127 158 197 248 298
#     4   9  17  29  46  68  91 118 158 205 248 288
#     4  10  18  29  49  74  96 121 159 202 243 294
#     4   9  18  33  49  66  96 134 166 199 242 287
#     4   9  17  30  51  76 101 129 164 204 244 290
#     4   8  16  30  46  66  92 122 156 197 243 286
#
# _framework density 17.437338
#
# number of rings (size 3 to 8) (size 9 to 14) (size 15 to 20)
#    0.000    2.750    0.000    2.750    0.000    4.250 
#    6.000    1.250    2.750    3.500    0.000    0.000 
#    0.000    0.000    0.000    0.000    0.000    0.000 
#
# Total GULP energy -1189364.975789 kJ/mol
# GULP energy per Si atom -12389.218498 kJ/mol
# Density = 1.739765 g / cm^3
# Si number density = 17.437338 Si / 1000 Ang^3
#
#
#
# Elastic Constant Matrix: (Units=GPa)
#
#
# Indices 1 2 3 4 5 6 
#
# 1 92.0392 35.6333 30.3588 0.0000 0.0000 0.0000
# 2 35.6333 92.0392 30.3588 0.0000 0.0000 0.0000
# 3 30.3588 30.3588 65.8417 0.0000 0.0000 0.0000
# 4 0.0000 0.0000 0.0000 6.9870 0.0000 0.0000
# 5 0.0000 0.0000 0.0000 0.0000 6.9870 0.0000
# 6 0.0000 0.0000 0.0000 0.0000 0.0000 28.2030
#
#
#
# Elastic Compliance Matrix: (Units=1/GPa)
#
#
# Indices 1 2 3 4 5 6 
#
# 1 0.013881 -0.003848 -0.004626 0.000000 0.000000 0.000000
# 2 -0.003848 0.013881 -0.004626 0.000000 0.000000 0.000000
# 3 -0.004626 -0.004626 0.019454 0.000000 0.000000 0.000000
# 4 0.000000 0.000000 0.000000 0.143122 0.000000 0.000000
# 5 0.000000 0.000000 0.000000 0.000000 0.143122 0.000000
# 6 0.000000 0.000000 0.000000 0.000000 0.000000 0.035457
#
#
# Mechanical properties :
#
#
# Convention : Reuss Voigt Hill
#
# Bulk Modulus (GPa) = 47.58431 49.18020 48.38225
# Shear Modulus (GPa) = 12.43407 18.67336 15.55372
#
# Velocity S-wave (km/s) = 2.67324 3.27599 2.98984
# Velocity P-wave (km/s) = 6.07258 6.52492 6.30281
#
# Compressibility (1/GPa) = 0.02101533
#
# Stress axis : x y z
#
# Youngs Moduli (GPa) = 72.04323 72.04323 51.40391
#
# Poissons Ratio (x) = 0.27723 0.23779
# Poissons Ratio (y) = 0.27723 0.23779
# Poissons Ratio (z) = 0.33326 0.33326
#
# Static dielectric constant tensor:
#      x y z
#    x 3.306200 0.000000 0.000000 
#    y 0.000000 3.306200 0.000000 
#    z 0.000000 0.000000 3.068420 
# 
# 
# High freq. dielectric constant tensor:
#      x y z
#    x 1.673210 0.000000 0.000000 
#    y 0.000000 1.673210 0.000000 
#    z 0.000000 0.000000 1.645770 
# 
# From -- ./inp_files/3715.got.cif
#   From: 2010.03.12/outbox.cif.g09.slc.cpg/sg189_2_cif.got.tgz:3715.got - 2010.04.01 12:03:36.
