data_PCOD8327751
_publ_section_title
;
Structure prediction by ZEFSAII (Michael W. Deem and Ramdas Pophale) SiO2 
 PCOD8327751
Probable space group: P -6 2 M
;
_chemical_formula_sum "Si O2"
_cell_formula_units_Z 84
_cell_length_a 19.584078
_cell_length_b 19.584078
_cell_length_c 13.417097
_cell_angle_alpha 90.000000
_cell_angle_beta 90.000000
_cell_angle_gamma 120.000000
_cell_volume 4456.515811
_symmetry_space_group_name_H-M "P -6 2 M"
_symmetry_group_IT_number 189
_symmetry_cell_setting 'hexagonal'
loop_
_space_group_symop_operation_xyz
x,y,z
-x+y,-x,-z
-y,x-y,z
x,y,-z
-x+y,-x,z
-y,x-y,-z
x-y,-y,-z
-x,-x+y,-z
y,x,-z
y,x,z
x-y,-y,z
-x,-x+y,z
loop_
_atom_site_type_symbol
_atom_site_label
_atom_site_fract_x
_atom_site_fract_y
_atom_site_fract_z
Si Si1 0.000000 0.705728 0.882489
Si Si2 0.088178 0.910910 0.617614
Si Si3 0.553507 0.000000 0.117533
Si Si4 0.250263 0.733258 0.111634
Si Si5 0.093374 0.465513 0.385138
Si Si6 0.337854 0.171176 0.110617
Si Si7 0.770686 0.679691 0.306420
Si Si8 0.842776 0.412705 0.797565
O O1 0.076225 0.788476 0.851908
O O2 0.000000 0.629592 0.833952
O O3 0.000000 0.694644 0.000000
O O4 0.084554 0.913592 0.500000
O O5 0.141507 0.871912 0.647705
O O6 0.000000 0.857657 0.661435
O O7 0.125837 0.000000 0.660959
O O8 0.550234 0.076518 0.150385
O O9 0.557688 0.000000 0.000000
O O10 0.182806 0.756240 0.108177
O O11 0.223532 0.661706 0.189889
O O12 0.329399 0.809787 0.147596
O O13 0.260760 0.707356 0.000000
O O14 0.112704 0.490700 0.500000
O O15 0.126084 0.406193 0.356847
O O16 0.139855 0.544442 0.318546
O O17 0.000000 0.424047 0.363524
O O18 0.327399 0.104069 0.187440
O O19 0.312280 0.133182 0.000000
O O20 0.725983 0.725983 0.332370
#
# Coordination Sequence:
#
# PCOD8327751 Si02
#       8
#     6  12   6  12  12  12  12  12
#     4   9  18  34  54  77 107 145 182 224 281 336
#     4   9  17  30  51  79 109 141 182 235 291 344
#     4  11  20  34  59  87 115 143 191 240 280 354
#     4  11  22  36  55  84 121 146 176 231 292 349
#     4  10  21  39  61  84 113 152 199 248 291 337
#     4  10  20  34  53  79 111 145 182 226 278 335
#     4  10  20  35  54  81 112 150 190 231 288 343
#     4  12  22  38  59  88 114 155 196 232 295 357
#
# _framework density 18.848806
#
# number of rings (size 3 to 8) (size 9 to 14) (size 15 to 20)
#    0.000    1.714    3.571    2.143    1.000    2.571 
#    0.000    0.714    0.000    0.000    0.000    2.000 
#    0.000    0.000    0.000    0.000    0.000    0.000 
#
# Total GULP energy -1041289.119868 kJ/mol
# GULP energy per Si atom -12396.299046 kJ/mol
# Density = 1.880591 g / cm^3
# Si number density = 18.848806 Si / 1000 Ang^3
#
#
#
# Elastic Constant Matrix: (Units=GPa)
#
#
# Indices 1 2 3 4 5 6 
#
# 1 43.8600 4.6799 18.6886 0.0000 0.0000 0.0000
# 2 4.6799 43.8600 18.6886 0.0000 0.0000 0.0000
# 3 18.6886 18.6886 92.2803 0.0000 0.0000 0.0000
# 4 0.0000 0.0000 0.0000 27.8935 0.0000 0.0000
# 5 0.0000 0.0000 0.0000 0.0000 27.8935 0.0000
# 6 0.0000 0.0000 0.0000 0.0000 0.0000 19.5900
#
#
#
# Elastic Compliance Matrix: (Units=1/GPa)
#
#
# Indices 1 2 3 4 5 6 
#
# 1 0.024966 -0.000558 -0.004943 0.000000 0.000000 0.000000
# 2 -0.000558 0.024966 -0.004943 0.000000 0.000000 0.000000
# 3 -0.004943 -0.004943 0.012839 0.000000 0.000000 0.000000
# 4 0.000000 0.000000 0.000000 0.035851 0.000000 0.000000
# 5 0.000000 0.000000 0.000000 0.000000 0.035851 0.000000
# 6 0.000000 0.000000 0.000000 0.000000 0.000000 0.051046
#
#
# Mechanical properties :
#
#
# Convention : Reuss Voigt Hill
#
# Bulk Modulus (GPa) = 23.87648 29.34606 26.61127
# Shear Modulus (GPa) = 22.68952 24.27159 23.48056
#
# Velocity S-wave (km/s) = 3.47329 3.59235 3.53332
# Velocity P-wave (km/s) = 5.36469 5.72797 5.54930
#
# Compressibility (1/GPa) = 0.04188222
#
# Stress axis : x y z
#
# Youngs Moduli (GPa) = 40.05515 40.05515 77.88944
#
# Poissons Ratio (x) = 0.02233 0.38502
# Poissons Ratio (y) = 0.02233 0.38502
# Poissons Ratio (z) = 0.19800 0.19800
#
# Static dielectric constant tensor:
#      x y z
#    x 3.547460 0.000000 0.000000 
#    y 0.000000 3.547460 0.000000 
#    z 0.000000 0.000000 3.294730 
# 
# 
# High freq. dielectric constant tensor:
#      x y z
#    x 1.726770 0.000000 0.000000 
#    y 0.000000 1.726770 0.000000 
#    z 0.000000 0.000000 1.713890 
# 
# From -- ./inp_files/2847.got.cif
#   From: 2010.03.12/outbox.cif.g09.slc.cpg/sg189_2_cif.got.tgz:2847.got - 2010.04.01 12:03:36.
