data_PCOD8327338
_publ_section_title
;
Structure prediction by ZEFSAII (Michael W. Deem and Ramdas Pophale) SiO2 
 PCOD8327338
Probable space group: P -6 C 2
;
_chemical_formula_sum "Si O2"
_cell_formula_units_Z 48
_cell_length_a 18.700562
_cell_length_b 18.700562
_cell_length_c 8.728808
_cell_angle_alpha 90.000000
_cell_angle_beta 90.000000
_cell_angle_gamma 120.000000
_cell_volume 2643.594802
_symmetry_space_group_name_H-M "P -6 C 2"
_symmetry_group_IT_number 188
_symmetry_cell_setting 'hexagonal'
loop_
_space_group_symop_operation_xyz
x,y,z
-x+y,-x,1/2-z
-y,x-y,z
x,y,1/2-z
-x+y,-x,z
-y,x-y,1/2-z
-y,-x,-z
-x+y,y,-z
x,x-y,-z
-x+y,y,1/2+z
x,x-y,1/2+z
-y,-x,1/2+z
loop_
_atom_site_type_symbol
_atom_site_label
_atom_site_fract_x
_atom_site_fract_y
_atom_site_fract_z
Si Si1 0.408334 0.956700 0.921869
Si Si2 0.239329 0.911316 0.431578
Si Si3 0.647894 0.414419 0.250000
Si Si4 0.557589 0.115177 0.500000
Si Si5 0.999199 0.847184 0.067146
O O1 0.379044 0.922533 0.750000
O O2 0.457213 0.914425 0.000000
O O3 0.332291 0.936377 0.030924
O O4 0.471151 0.056041 0.912735
O O5 0.226356 0.911163 0.250000
O O6 0.179219 0.820782 0.500000
O O7 0.219962 0.976976 0.511721
O O8 0.737821 0.422290 0.250000
O O9 0.634140 0.458737 0.106335
O O10 0.999376 0.851087 0.250000
O O11 0.063250 0.936751 0.000000
O O12 0.909393 0.818785 0.000000
#
# Coordination Sequence:
#
# PCOD8327338 Si02
#       5
#    12  12   6   6  12
#     4  10  20  36  61  82 114 149 192 232 287 349
#     4  11  22  38  61  87 114 147 188 235 288 348
#     4  10  20  32  54  78 112 152 202 256 294 334
#     4  10  18  36  54  82 110 152 194 240 290 348
#     4  11  21  36  56  81 115 152 194 237 283 335
#
# _framework density 18.157093
#
# number of rings (size 3 to 8) (size 9 to 14) (size 15 to 20)
#    1.000    0.500    1.250    7.750    1.750    0.000 
#    0.000    2.500    0.000    0.500    0.000    3.500 
#    0.000    0.000    0.000    0.000    0.000    0.000 
#
# Total GULP energy -594901.804479 kJ/mol
# GULP energy per Si atom -12393.787593 kJ/mol
# Density = 1.811577 g / cm^3
# Si number density = 18.157093 Si / 1000 Ang^3
#
#
#
# Elastic Constant Matrix: (Units=GPa)
#
#
# Indices 1 2 3 4 5 6 
#
# 1 80.6869 43.1055 28.8535 0.0001 0.0000 0.0000
# 2 43.1055 80.6869 28.8535 -0.0001 0.0000 0.0000
# 3 28.8535 28.8535 161.1237 0.0000 0.0000 0.0000
# 4 0.0001 -0.0001 0.0000 33.7878 0.0000 0.0000
# 5 0.0000 0.0000 0.0000 0.0000 33.7878 0.0001
# 6 0.0000 0.0000 0.0000 0.0000 0.0001 18.7907
#
#
#
# Elastic Compliance Matrix: (Units=1/GPa)
#
#
# Indices 1 2 3 4 5 6 
#
# 1 0.017711 -0.008898 -0.001578 0.000000 0.000000 0.000000
# 2 -0.008898 0.017711 -0.001578 0.000000 0.000000 0.000000
# 3 -0.001578 -0.001578 0.006772 0.000000 0.000000 0.000000
# 4 0.000000 0.000000 0.000000 0.029596 0.000000 0.000000
# 5 0.000000 0.000000 0.000000 0.000000 0.029596 0.000000
# 6 0.000000 0.000000 0.000000 0.000000 0.000000 0.053218
#
#
# Mechanical properties :
#
#
# Convention : Reuss Voigt Hill
#
# Bulk Modulus (GPa) = 55.29163 58.23582 56.76373
# Shear Modulus (GPa) = 27.06473 32.05227 29.55850
#
# Velocity S-wave (km/s) = 3.86500 4.20608 4.03914
# Velocity P-wave (km/s) = 7.10180 7.46532 7.28583
#
# Compressibility (1/GPa) = 0.01808592
#
# Stress axis : x y z
#
# Youngs Moduli (GPa) = 56.46098 56.46098 147.67342
#
# Poissons Ratio (x) = 0.50236 0.23308
# Poissons Ratio (y) = 0.50236 0.23308
# Poissons Ratio (z) = 0.08911 0.08911
#
# Static dielectric constant tensor:
#      x y z
#    x 3.158000 0.000000 0.000000 
#    y 0.000000 3.158000 0.000000 
#    z 0.000000 0.000000 1.838550 
# 
# 
# High freq. dielectric constant tensor:
#      x y z
#    x 1.683810 0.000000 0.000000 
#    y 0.000000 1.683810 0.000000 
#    z 0.000000 0.000000 1.727460 
# 
# From -- ./inp_files/423.got.cif
#   From: 2010.03.12/outbox.cif.g09.slc.cpg/sg188_1_cif.got.tgz:423.got - 2010.04.01 12:01:06.
