data_PCOD8327558
_publ_section_title
;
Structure prediction by ZEFSAII (Michael W. Deem and Ramdas Pophale) SiO2 
 PCOD8327558
Probable space group: P -6 2 M
;
_chemical_formula_sum "Si O2"
_cell_formula_units_Z 84
_cell_length_a 22.358887
_cell_length_b 22.358887
_cell_length_c 12.544661
_cell_angle_alpha 90.000000
_cell_angle_beta 90.000000
_cell_angle_gamma 120.000000
_cell_volume 5431.126564
_symmetry_space_group_name_H-M "P -6 2 M"
_symmetry_group_IT_number 189
_symmetry_cell_setting 'hexagonal'
loop_
_space_group_symop_operation_xyz
x,y,z
-x+y,-x,-z
-y,x-y,z
x,y,-z
-x+y,-x,z
-y,x-y,-z
x-y,-y,-z
-x,-x+y,-z
y,x,-z
y,x,z
x-y,-y,z
-x,-x+y,z
loop_
_atom_site_type_symbol
_atom_site_label
_atom_site_fract_x
_atom_site_fract_y
_atom_site_fract_z
Si Si1 0.274284 0.192447 0.771282
Si Si2 0.917551 0.587813 0.232746
Si Si3 0.664688 0.074960 0.000000
Si Si4 0.468962 0.808668 0.626814
Si Si5 0.327150 0.796770 0.626512
Si Si6 0.392983 0.075495 0.626850
Si Si7 0.921588 0.180777 0.376502
Si Si8 0.194208 0.269479 0.000000
O O1 0.225358 0.225358 0.771894
O O2 0.352084 0.251529 0.742691
O O3 0.243665 0.131049 0.686596
O O4 0.271686 0.158673 0.888637
O O5 0.878251 0.528008 0.319079
O O6 0.000000 0.618332 0.242159
O O7 0.889422 0.554923 0.113480
O O8 0.729576 0.063958 0.000000
O O9 0.596045 0.000000 0.000000
O O10 0.478462 0.818820 0.500000
O O11 0.394527 0.795124 0.664924
O O12 0.472819 0.742415 0.667692
O O13 0.325169 0.797592 0.500000
O O14 0.330650 0.865475 0.674785
O O15 0.394746 0.076797 0.500000
O O16 0.331842 0.088457 0.665069
O O17 0.377315 0.000000 0.666996
O O18 0.902536 0.166178 0.500000
O O19 0.000000 0.198556 0.356313
O O20 0.200896 0.200896 0.000000
#
# Coordination Sequence:
#
# PCOD8327558 Si02
#       8
#    12  12   6  12  12  12  12   6
#     4   9  16  27  44  64  86 110 135 167 211 257
#     4   9  17  28  45  69  91 110 134 172 222 266
#     4   7  12  26  44  61  85 115 141 161 199 268
#     4  10  19  29  42  61  87 116 145 178 212 251
#     4   9  17  28  40  55  80 115 146 168 201 250
#     4   8  14  25  40  55  73 103 140 171 197 232
#     4   9  17  28  41  59  84 112 142 172 201 242
#     4   7  12  24  41  61  83 107 136 167 198 244
#
# _framework density 15.466405
#
# number of rings (size 3 to 8) (size 9 to 14) (size 15 to 20)
#    0.000    3.286    0.000    3.714    0.000    4.000 
#    0.000    3.214    0.000    1.143    0.000    1.000 
#    0.000    0.000    0.000    0.000    0.000    0.000 
#
# Total GULP energy -1040615.541916 kJ/mol
# GULP energy per Si atom -12388.280261 kJ/mol
# Density = 1.543120 g / cm^3
# Si number density = 15.466405 Si / 1000 Ang^3
#
#
#
# Elastic Constant Matrix: (Units=GPa)
#
#
# Indices 1 2 3 4 5 6 
#
# 1 74.0185 35.1813 33.8424 0.0000 0.0000 0.0000
# 2 35.1813 74.0185 33.8424 0.0000 0.0000 0.0000
# 3 33.8424 33.8424 64.0122 0.0000 0.0000 0.0000
# 4 0.0000 0.0000 0.0000 10.7327 0.0000 0.0000
# 5 0.0000 0.0000 0.0000 0.0000 10.7327 0.0000
# 6 0.0000 0.0000 0.0000 0.0000 0.0000 19.4186
#
#
#
# Elastic Compliance Matrix: (Units=1/GPa)
#
#
# Indices 1 2 3 4 5 6 
#
# 1 0.019685 -0.006064 -0.007201 0.000000 0.000000 0.000000
# 2 -0.006064 0.019685 -0.007201 0.000000 0.000000 0.000000
# 3 -0.007201 -0.007201 0.023236 0.000000 0.000000 0.000000
# 4 0.000000 0.000000 0.000000 0.093173 0.000000 0.000000
# 5 0.000000 0.000000 0.000000 0.000000 0.093173 0.000000
# 6 0.000000 0.000000 0.000000 0.000000 0.000000 0.051497
#
#
# Mechanical properties :
#
#
# Convention : Reuss Voigt Hill
#
# Bulk Modulus (GPa) = 46.13935 46.42017 46.27976
# Shear Modulus (GPa) = 14.34284 15.45569 14.89926
#
# Velocity S-wave (km/s) = 3.04855 3.16461 3.10712
# Velocity P-wave (km/s) = 6.50295 6.59028 6.54676
#
# Compressibility (1/GPa) = 0.02167347
#
# Stress axis : x y z
#
# Youngs Moduli (GPa) = 50.80067 50.80067 43.03586
#
# Poissons Ratio (x) = 0.30804 0.30991
# Poissons Ratio (y) = 0.30804 0.30991
# Poissons Ratio (z) = 0.36583 0.36583
#
# Static dielectric constant tensor:
#      x y z
#    x 2.884040 0.000000 0.000000 
#    y 0.000000 2.884040 0.000000 
#    z 0.000000 0.000000 2.896660 
# 
# 
# High freq. dielectric constant tensor:
#      x y z
#    x 1.578720 0.000000 0.000000 
#    y 0.000000 1.578720 0.000000 
#    z 0.000000 0.000000 1.566100 
# 
# From -- ./inp_files/2262.got.cif
#   From: 2010.03.12/outbox.cif.g09.slc.cpg/sg189_2_cif.got.tgz:2262.got - 2010.04.01 12:03:36.
