data_PCOD8327735
_publ_section_title
;
Structure prediction by ZEFSAII (Michael W. Deem and Ramdas Pophale) SiO2 
 PCOD8327735
Probable space group: P -6 2 M
;
_chemical_formula_sum "Si O2"
_cell_formula_units_Z 52
_cell_length_a 13.533385
_cell_length_b 13.533385
_cell_length_c 17.820704
_cell_angle_alpha 90.000000
_cell_angle_beta 90.000000
_cell_angle_gamma 120.000000
_cell_volume 2826.626083
_symmetry_space_group_name_H-M "P -6 2 M"
_symmetry_group_IT_number 189
_symmetry_cell_setting 'hexagonal'
loop_
_space_group_symop_operation_xyz
x,y,z
-x+y,-x,-z
-y,x-y,z
x,y,-z
-x+y,-x,z
-y,x-y,-z
x-y,-y,-z
-x,-x+y,-z
y,x,-z
y,x,z
x-y,-y,z
-x,-x+y,z
loop_
_atom_site_type_symbol
_atom_site_label
_atom_site_fract_x
_atom_site_fract_y
_atom_site_fract_z
Si Si1 0.130208 0.261157 0.086499
Si Si2 0.539858 0.670640 0.412317
Si Si3 0.666667 0.333335 0.088631
Si Si4 0.130958 0.667936 0.337679
Si Si5 0.464045 0.332333 0.163012
O O1 0.165153 0.165153 0.099233
O O2 0.205463 0.370978 0.137338
O O3 0.000000 0.208759 0.111957
O O4 0.147609 0.300269 0.000000
O O5 0.522566 0.679532 0.500000
O O6 0.633159 0.633159 0.395810
O O7 0.418559 0.580807 0.377658
O O8 0.585395 0.792911 0.373574
O O9 0.581045 0.374727 0.118332
O O10 0.666667 0.333334 0.000000
O O11 0.158409 0.670543 0.250375
O O12 0.000000 0.632544 0.351341
O O13 0.420919 0.420919 0.144161
#
# Coordination Sequence:
#
# PCOD8327735 Si02
#       5
#    12  12   4  12  12
#     4   9  17  31  52  77 104 135 174 220 265 305
#     4  10  20  33  52  79 107 135 170 212 255 303
#     4  12  24  36  54  75 100 140 178 213 261 309
#     4  10  20  35  56  79 105 138 171 209 259 307
#     4  10  22  38  54  76 106 137 173 216 257 305
#
# _framework density 18.396488999999999
#
# number of rings (size 3 to 8) (size 9 to 14) (size 15 to 20)
#    0.000    2.077    0.000    3.462    0.000    5.538 
#    0.000    0.000    0.000    0.462    0.000    0.000 
#    0.000    0.000    0.000    0.000    0.000    0.000 
#
# Total GULP energy -645066.836894 kJ/mol
# GULP energy per Si atom -12405.131479 kJ/mol
# Density = 1.835462 g / cm^3
# Si number density = 18.396489 Si / 1000 Ang^3
#
#
#
# Elastic Constant Matrix: (Units=GPa)
#
#
# Indices 1 2 3 4 5 6 
#
# 1 101.4252 53.4911 60.0887 0.0000 0.0001 -0.0002
# 2 53.4911 101.4224 60.0884 0.0003 -0.0001 -0.0001
# 3 60.0887 60.0884 115.2046 0.0002 0.0000 0.0000
# 4 0.0000 0.0003 0.0002 26.7397 -0.0001 0.0001
# 5 0.0001 -0.0001 0.0000 -0.0001 26.7396 0.0002
# 6 -0.0002 -0.0001 0.0000 0.0001 0.0002 23.9658
#
#
#
# Elastic Compliance Matrix: (Units=1/GPa)
#
#
# Indices 1 2 3 4 5 6 
#
# 1 0.015852 -0.005010 -0.005655 0.000000 0.000000 0.000000
# 2 -0.005010 0.015853 -0.005655 0.000000 0.000000 0.000000
# 3 -0.005655 -0.005655 0.014579 0.000000 0.000000 0.000000
# 4 0.000000 0.000000 0.000000 0.037398 0.000000 0.000000
# 5 0.000000 0.000000 0.000000 0.000000 0.037398 0.000000
# 6 0.000000 0.000000 0.000000 0.000000 0.000000 0.041726
#
#
# Mechanical properties :
#
#
# Convention : Reuss Voigt Hill
#
# Bulk Modulus (GPa) = 73.29551 73.93208 73.61380
# Shear Modulus (GPa) = 25.00075 25.11461 25.05768
#
# Velocity S-wave (km/s) = 3.69046 3.69885 3.69465
# Velocity P-wave (km/s) = 7.62154 7.64966 7.63562
#
# Compressibility (1/GPa) = 0.01364340
#
# Stress axis : x y z
#
# Youngs Moduli (GPa) = 63.08315 63.08093 68.59012
#
# Poissons Ratio (x) = 0.31605 0.38787
# Poissons Ratio (y) = 0.31606 0.38789
# Poissons Ratio (z) = 0.35673 0.35673
#
# Static dielectric constant tensor:
#      x y z
#    x 3.369740 0.000000 -0.000010 
#    y 0.000000 3.369760 0.000000 
#    z -0.000010 0.000000 3.428490 
# 
# 
# High freq. dielectric constant tensor:
#      x y z
#    x 1.710900 0.000000 0.000000 
#    y 0.000000 1.710900 0.000000 
#    z 0.000000 0.000000 1.721670 
# 
# From -- ./inp_files/3362.got.cif
#   From: 2010.03.12/outbox.cif.g09.slc.cpg/sg189_2_cif.got.tgz:3362.got - 2010.04.01 12:03:36.
