data_PCOD8327215
_publ_section_title
;
Structure prediction by ZEFSAII (Michael W. Deem and Ramdas Pophale) SiO2 
 PCOD8327215
Probable space group: P -6 M 2
;
_chemical_formula_sum "Si O2"
_cell_formula_units_Z 72
_cell_length_a 12.378668
_cell_length_b 12.378668
_cell_length_c 30.999874
_cell_angle_alpha 90.000000
_cell_angle_beta 90.000000
_cell_angle_gamma 120.000000
_cell_volume 4113.754692
_symmetry_space_group_name_H-M "P -6 M 2"
_symmetry_group_IT_number 187
_symmetry_cell_setting 'hexagonal'
loop_
_space_group_symop_operation_xyz
x,y,z
-x+y,-x,-z
-y,x-y,z
x,y,-z
-x+y,-x,z
-y,x-y,-z
-y,-x,-z
-x+y,y,-z
x,x-y,-z
-x+y,y,z
x,x-y,z
-y,-x,z
loop_
_atom_site_type_symbol
_atom_site_label
_atom_site_fract_x
_atom_site_fract_y
_atom_site_fract_z
Si Si1 0.412410 0.080608 0.916080
Si Si2 0.585041 0.919750 0.665712
Si Si3 0.747862 0.746314 0.167238
Si Si4 0.919321 0.585942 0.250951
Si Si5 0.080125 0.414649 0.500000
Si Si6 0.920001 0.585589 0.583040
Si Si7 0.253985 0.001736 0.000000
O O1 0.537010 0.074021 0.915497
O O2 0.449722 0.224861 0.915008
O O3 0.334877 0.012559 0.958440
O O4 0.329274 0.006982 0.875260
O O5 0.441122 0.882244 0.663203
O O6 0.593208 0.796604 0.663039
O O7 0.647879 0.989875 0.709739
O O8 0.661635 0.007353 0.626148
O O9 0.739510 0.869755 0.169755
O O10 0.677115 0.660957 0.207878
O O11 0.892284 0.784568 0.166368
O O12 0.788510 0.577020 0.260000
O O13 0.893898 0.446949 0.245953
O O14 0.204853 0.409705 0.500000
O O15 0.116113 0.558057 0.500000
O O16 0.002630 0.344384 0.457896
O O17 0.794944 0.589889 0.580797
O O18 0.884565 0.442283 0.582832
O O19 0.214874 0.107437 0.000000
O O20 0.130430 0.869570 0.000000
#
# Coordination Sequence:
#
# PCOD8327215 Si02
#       7
#    12  12  12  12   6  12   6
#     4  10  20  34  54  78 104 134 168 210 256 302
#     4  10  20  34  53  76 103 135 170 209 252 300
#     4  10  20  34  53  76 103 135 170 209 252 300
#     4  10  20  34  54  78 104 134 168 210 256 302
#     4  10  20  34  54  78 104 134 168 208 252 300
#     4  10  20  34  54  78 104 134 168 210 256 302
#     4  10  20  34  54  78 104 134 168 208 252 300
#
# _framework density 17.502258999999999
#
# number of rings (size 3 to 8) (size 9 to 14) (size 15 to 20)
#    0.000    2.000    0.000    4.000    0.000    0.000 
#    0.000    8.333    0.000   18.000    0.000    0.000 
#    0.000    0.000    0.000    0.000    0.000    0.000 
#
# Total GULP energy -893103.437691 kJ/mol
# GULP energy per Si atom -12404.214412 kJ/mol
# Density = 1.746242 g / cm^3
# Si number density = 17.502259 Si / 1000 Ang^3
#
#
#
# Elastic Constant Matrix: (Units=GPa)
#
#
# Indices 1 2 3 4 5 6 
#
# 1 82.6640 44.5263 20.9736 0.0000 0.0005 0.0000
# 2 44.5263 82.6640 20.9736 0.0000 -0.0005 0.0000
# 3 20.9736 20.9736 91.7111 0.0000 0.0000 0.0000
# 4 0.0000 0.0000 0.0000 14.7002 0.0000 -0.0005
# 5 0.0005 -0.0005 0.0000 0.0000 14.7002 0.0000
# 6 0.0000 0.0000 0.0000 -0.0005 0.0000 19.0689
#
#
#
# Elastic Compliance Matrix: (Units=1/GPa)
#
#
# Indices 1 2 3 4 5 6 
#
# 1 0.017362 -0.008859 -0.001945 0.000000 -0.000001 0.000000
# 2 -0.008859 0.017362 -0.001945 0.000000 0.000001 0.000000
# 3 -0.001945 -0.001945 0.011793 0.000000 0.000000 0.000000
# 4 0.000000 0.000000 0.000000 0.068026 0.000000 0.000002
# 5 -0.000001 0.000001 0.000000 0.000000 0.068026 0.000000
# 6 0.000000 0.000000 0.000000 0.000002 0.000000 0.052441
#
#
# Mechanical properties :
#
#
# Convention : Reuss Voigt Hill
#
# Bulk Modulus (GPa) = 47.57000 47.77624 47.67312
# Shear Modulus (GPa) = 18.69054 21.06489 19.87772
#
# Velocity S-wave (km/s) = 3.27141 3.47299 3.37370
# Velocity P-wave (km/s) = 6.44266 6.59080 6.51715
#
# Compressibility (1/GPa) = 0.02102165
#
# Stress axis : x y z
#
# Youngs Moduli (GPa) = 57.59649 57.59649 84.79400
#
# Poissons Ratio (x) = 0.51022 0.16490
# Poissons Ratio (y) = 0.51022 0.16490
# Poissons Ratio (z) = 0.11201 0.11201
#
# Static dielectric constant tensor:
#      x y z
#    x 3.169230 0.000000 0.000000 
#    y 0.000000 3.169230 0.000000 
#    z 0.000000 0.000000 3.505400 
# 
# 
# High freq. dielectric constant tensor:
#      x y z
#    x 1.676120 0.000000 0.000000 
#    y 0.000000 1.676120 0.000000 
#    z 0.000000 0.000000 1.701320 
# 
# From -- ./inp_files/4547.got.cif
#   From: 2010.03.12/outbox.cif.g09.slc.cpg/sg187_3_cif.got.tgz:4547.got - 2010.04.01 11:58:23.
