data_PCOD8327007
_publ_section_title
;
Structure prediction by ZEFSAII (Michael W. Deem and Ramdas Pophale) SiO2 
 PCOD8327007
Probable space group: P -6 M 2
;
_chemical_formula_sum "Si O2"
_cell_formula_units_Z 72
_cell_length_a 23.954741
_cell_length_b 23.954741
_cell_length_c 9.111609
_cell_angle_alpha 90.000000
_cell_angle_beta 90.000000
_cell_angle_gamma 120.000000
_cell_volume 4528.023434
_symmetry_space_group_name_H-M "P -6 M 2"
_symmetry_group_IT_number 187
_symmetry_cell_setting 'hexagonal'
loop_
_space_group_symop_operation_xyz
x,y,z
-x+y,-x,-z
-y,x-y,z
x,y,-z
-x+y,-x,z
-y,x-y,-z
-y,-x,-z
-x+y,y,-z
x,x-y,-z
-x+y,y,z
x,x-y,z
-y,-x,z
loop_
_atom_site_type_symbol
_atom_site_label
_atom_site_fract_x
_atom_site_fract_y
_atom_site_fract_z
Si Si1 0.142688 0.413758 0.830038
Si Si2 0.592907 0.059738 0.827447
Si Si3 0.732387 0.927523 0.825294
Si Si4 0.072579 0.600268 0.328556
Si Si5 0.408221 0.143288 0.825783
Si Si6 0.263083 0.193017 0.825436
O O1 0.216502 0.433003 0.803620
O O2 0.095250 0.340542 0.776269
O O3 0.129148 0.462098 0.735445
O O4 0.130326 0.421209 0.000000
O O5 0.540232 0.080464 0.787614
O O6 0.662138 0.116937 0.770534
O O7 0.577687 0.994442 0.747300
O O8 0.594031 0.047504 0.000000
O O9 0.752993 0.876497 0.765918
O O10 0.781326 0.998462 0.760162
O O11 0.734417 0.927934 0.000000
O O12 0.065152 0.607218 0.500000
O O13 0.090759 0.545380 0.293794
O O14 0.432816 0.216408 0.768372
O O15 0.335701 0.096302 0.768094
O O16 0.407208 0.143633 0.000000
O O17 0.238682 0.119341 0.774036
O O18 0.262346 0.195816 0.000000
#
# Coordination Sequence:
#
# PCOD8327007 Si02
#       6
#    12  12  12  12  12  12
#     4   9  17  29  46  66  84 105 137 175 211 246
#     4   9  16  26  42  62  82 107 140 176 211 248
#     4   8  13  21  34  53  76  99 125 162 203 236
#     4  10  20  31  43  62  88 115 139 165 204 254
#     4   8  13  21  35  56  79 101 129 167 205 241
#     4   8  12  17  27  45  69  97 126 154 186 225
#
# _framework density 15.900978
#
# number of rings (size 3 to 8) (size 9 to 14) (size 15 to 20)
#    0.000    3.333    0.000    3.500    0.000    4.000 
#    0.000    0.000    0.000    1.500    0.000    4.667 
#    0.000    0.000    0.000    0.000    0.000    0.000 
#
# Total GULP energy -892247.765064 kJ/mol
# GULP energy per Si atom -12392.330070 kJ/mol
# Density = 1.586479 g / cm^3
# Si number density = 15.900978 Si / 1000 Ang^3
#
#
#
# Elastic Constant Matrix: (Units=GPa)
#
#
# Indices 1 2 3 4 5 6 
#
# 1 120.3246 67.6927 25.5688 0.0000 0.0000 0.0000
# 2 67.6927 120.3246 25.5688 0.0000 0.0000 0.0000
# 3 25.5688 25.5688 25.2028 0.0000 0.0000 0.0000
# 4 0.0000 0.0000 0.0000 6.9278 0.0000 0.0000
# 5 0.0000 0.0000 0.0000 0.0000 6.9278 0.0000
# 6 0.0000 0.0000 0.0000 0.0000 0.0000 26.3160
#
#
#
# Elastic Compliance Matrix: (Units=1/GPa)
#
#
# Indices 1 2 3 4 5 6 
#
# 1 0.013173 -0.005827 -0.007452 0.000000 0.000000 0.000000
# 2 -0.005827 0.013173 -0.007452 0.000000 0.000000 0.000000
# 3 -0.007452 -0.007452 0.054799 0.000000 0.000000 0.000000
# 4 0.000000 0.000000 0.000000 0.144347 0.000000 0.000000
# 5 0.000000 0.000000 0.000000 0.000000 0.144347 0.000000
# 6 0.000000 0.000000 0.000000 0.000000 0.000000 0.038000
#
#
# Mechanical properties :
#
#
# Convention : Reuss Voigt Hill
#
# Bulk Modulus (GPa) = 25.20084 55.94583 40.57334
# Shear Modulus (GPa) = 10.81017 17.83576 14.32296
#
# Velocity S-wave (km/s) = 2.61021 3.35278 3.00452
# Velocity P-wave (km/s) = 4.99673 7.08861 6.13252
#
# Compressibility (1/GPa) = 0.03968122
#
# Stress axis : x y z
#
# Youngs Moduli (GPa) = 75.91460 75.91460 18.24853
#
# Poissons Ratio (x) = 0.44237 0.13599
# Poissons Ratio (y) = 0.44237 0.13599
# Poissons Ratio (z) = 0.56573 0.56573
#
# Static dielectric constant tensor:
#      x y z
#    x 3.219900 0.000000 0.000000 
#    y 0.000000 3.219900 0.000000 
#    z 0.000000 0.000000 2.559300 
# 
# 
# High freq. dielectric constant tensor:
#      x y z
#    x 1.605810 0.000000 0.000000 
#    y 0.000000 1.605810 0.000000 
#    z 0.000000 0.000000 1.560450 
# 
# From -- ./inp_files/939.got.cif
#   From: 2010.03.12/outbox.cif.g09.slc.cpg/sg187_1_cif.got.tgz:939.got - 2010.04.01 11:58:23.
