data_PCOD8327625
_publ_section_title
;
Structure prediction by ZEFSAII (Michael W. Deem and Ramdas Pophale) SiO2 
 PCOD8327625
Probable space group: P -6 2 M
;
_chemical_formula_sum "Si O2"
_cell_formula_units_Z 72
_cell_length_a 23.341971
_cell_length_b 23.341971
_cell_length_c 9.366071
_cell_angle_alpha 90.000000
_cell_angle_beta 90.000000
_cell_angle_gamma 120.000000
_cell_volume 4419.398131
_symmetry_space_group_name_H-M "P -6 2 M"
_symmetry_group_IT_number 189
_symmetry_cell_setting 'hexagonal'
loop_
_space_group_symop_operation_xyz
x,y,z
-x+y,-x,-z
-y,x-y,z
x,y,-z
-x+y,-x,z
-y,x-y,-z
x-y,-y,-z
-x,-x+y,-z
y,x,-z
y,x,z
x-y,-y,z
-x,-x+y,z
loop_
_atom_site_type_symbol
_atom_site_label
_atom_site_fract_x
_atom_site_fract_y
_atom_site_fract_z
Si Si1 0.924395 0.259435 0.333085
Si Si2 0.487319 0.155187 0.667397
Si Si3 0.481159 0.262501 0.161766
Si Si4 0.717987 0.000000 0.169583
Si Si5 0.459962 0.872779 0.165336
Si Si6 0.184911 0.328447 0.835176
Si Si7 0.000000 0.590962 0.169542
O O1 0.918039 0.244099 0.500000
O O2 0.898279 0.309799 0.295561
O O3 0.881046 0.189729 0.253795
O O4 0.000000 0.292588 0.280863
O O5 0.500767 0.162424 0.500000
O O6 0.505097 0.226158 0.729445
O O7 0.533885 0.132311 0.739495
O O8 0.529563 0.339998 0.187235
O O9 0.404772 0.241406 0.189293
O O10 0.488677 0.243265 0.000000
O O11 0.717197 0.932791 0.217138
O O12 0.654386 0.000000 0.237264
O O13 0.711860 0.000000 0.000000
O O14 0.525110 0.936325 0.223290
O O15 0.445793 0.880088 0.000000
O O16 0.163983 0.315064 0.000000
O O17 0.000000 0.596002 0.000000
#
# Coordination Sequence:
#
# PCOD8327625 Si02
#       7
#    12  12  12   6  12  12   6
#     4   9  19  35  50  65  94 134 165 192 232 276
#     4  10  21  34  49  67  91 124 161 202 246 289
#     4   9  17  32  51  68  89 119 156 197 239 286
#     4   9  14  26  49  77 105 127 145 178 235 288
#     4  10  19  32  51  73  95 121 157 199 242 290
#     4   9  16  28  50  76  99 122 152 188 228 278
#     4   9  16  28  49  75  99 123 151 188 237 292
#
# _framework density 16.291810999999999
#
# number of rings (size 3 to 8) (size 9 to 14) (size 15 to 20)
#    0.000    2.667    1.667    0.500    1.167    1.667 
#    1.000    0.417    0.000    1.000    0.000    0.000 
#    0.833    0.000    0.500    0.000    0.667    0.000 
#
# Total GULP energy -892696.759503 kJ/mol
# GULP energy per Si atom -12398.566104 kJ/mol
# Density = 1.625473 g / cm^3
# Si number density = 16.291811 Si / 1000 Ang^3
#
#
#
# Elastic Constant Matrix: (Units=GPa)
#
#
# Indices 1 2 3 4 5 6 
#
# 1 105.0188 66.7932 48.1505 0.0000 0.0000 0.0000
# 2 66.7932 105.0188 48.1505 0.0000 0.0000 0.0000
# 3 48.1505 48.1505 59.3604 0.0000 0.0000 0.0000
# 4 0.0000 0.0000 0.0000 19.5030 0.0000 0.0000
# 5 0.0000 0.0000 0.0000 0.0000 19.5030 0.0000
# 6 0.0000 0.0000 0.0000 0.0000 0.0000 19.1128
#
#
#
# Elastic Compliance Matrix: (Units=1/GPa)
#
#
# Indices 1 2 3 4 5 6 
#
# 1 0.018417 -0.007744 -0.008657 0.000000 0.000000 0.000000
# 2 -0.007744 0.018417 -0.008657 0.000000 0.000000 0.000000
# 3 -0.008657 -0.008657 0.030891 0.000000 0.000000 0.000000
# 4 0.000000 0.000000 0.000000 0.051274 0.000000 0.000000
# 5 0.000000 0.000000 0.000000 0.000000 0.051274 0.000000
# 6 0.000000 0.000000 0.000000 0.000000 0.000000 0.052321
#
#
# Mechanical properties :
#
#
# Convention : Reuss Voigt Hill
#
# Bulk Modulus (GPa) = 56.79409 66.17626 61.48517
# Shear Modulus (GPa) = 17.94822 18.71068 18.32945
#
# Velocity S-wave (km/s) = 3.32274 3.39259 3.35785
# Velocity P-wave (km/s) = 7.04677 7.48690 7.27017
#
# Compressibility (1/GPa) = 0.01760747
#
# Stress axis : x y z
#
# Youngs Moduli (GPa) = 54.29887 54.29887 32.37196
#
# Poissons Ratio (x) = 0.42048 0.28025
# Poissons Ratio (y) = 0.42048 0.28025
# Poissons Ratio (z) = 0.47008 0.47008
#
# Static dielectric constant tensor:
#      x y z
#    x 3.061190 0.000000 0.000000 
#    y 0.000000 3.061190 0.000000 
#    z 0.000000 0.000000 2.915460 
# 
# 
# High freq. dielectric constant tensor:
#      x y z
#    x 1.617000 0.000000 0.000000 
#    y 0.000000 1.617000 0.000000 
#    z 0.000000 0.000000 1.609820 
# 
# From -- ./inp_files/1317.got.cif
#   From: 2010.03.12/outbox.cif.g09.slc.cpg/sg189_1_cif.got.tgz:1317.got - 2010.04.01 12:03:36.
