data_PCOD8327046
_publ_section_title
;
Structure prediction by ZEFSAII (Michael W. Deem and Ramdas Pophale) SiO2 
 PCOD8327046
Probable space group: P -6 M 2
;
_chemical_formula_sum "Si O2"
_cell_formula_units_Z 66
_cell_length_a 12.788517
_cell_length_b 12.788517
_cell_length_c 27.795218
_cell_angle_alpha 90.000000
_cell_angle_beta 90.000000
_cell_angle_gamma 120.000000
_cell_volume 3936.779464
_symmetry_space_group_name_H-M "P -6 M 2"
_symmetry_group_IT_number 187
_symmetry_cell_setting 'hexagonal'
loop_
_space_group_symop_operation_xyz
x,y,z
-x+y,-x,-z
-y,x-y,z
x,y,-z
-x+y,-x,z
-y,x-y,-z
-y,-x,-z
-x+y,y,-z
x,x-y,-z
-x+y,y,z
x,x-y,z
-y,-x,z
loop_
_atom_site_type_symbol
_atom_site_label
_atom_site_fract_x
_atom_site_fract_y
_atom_site_fract_z
Si Si1 0.420533 0.331195 0.500000
Si Si2 0.244639 0.999922 0.412498
Si Si3 0.665825 0.088849 0.137214
Si Si4 0.093400 0.666544 0.670634
Si Si5 0.091877 0.666195 0.945308
Si Si6 0.333628 0.906725 0.220050
O O1 0.538181 0.461820 0.500000
O O2 0.460555 0.230278 0.500000
O O3 0.341130 0.318287 0.546423
O O4 0.120649 0.879352 0.425201
O O5 0.300596 0.988685 0.362370
O O6 0.217066 0.108533 0.408364
O O7 0.561444 0.122888 0.135728
O O8 0.791647 0.208354 0.137954
O O9 0.662026 0.015080 0.089854
O O10 0.657790 0.015776 0.185244
O O11 0.076585 0.538293 0.654726
O O12 0.234494 0.765507 0.665463
O O13 0.049971 0.663067 0.725272
O O14 0.127590 0.563795 0.936597
O O15 0.207614 0.792387 0.932512
O O16 0.048674 0.663192 0.000000
O O17 0.433254 0.866507 0.212501
O O18 0.205467 0.794534 0.206238
#
# Coordination Sequence:
#
# PCOD8327046 Si02
#       6
#     6  12  12  12  12  12
#     4  10  20  34  52  72  94 120 152 194 242 288
#     4  10  20  33  50  71  97 130 165 198 229 268
#     4  10  20  32  46  65  92 126 160 192 226 269
#     4   9  17  30  49  73  99 125 154 192 240 289
#     4   9  17  30  50  75  98 118 144 185 237 285
#     4   9  17  30  50  74  96 119 151 195 245 290
#
# _framework density 16.764972
#
# number of rings (size 3 to 8) (size 9 to 14) (size 15 to 20)
#    0.000    2.545    0.000    2.364    0.000    3.273 
#    0.000    2.727    0.000    6.909    0.000    0.000 
#    0.000    0.000    0.000    0.000    0.000    0.000 
#
# Total GULP energy -818507.558579 kJ/mol
# GULP energy per Si atom -12401.629675 kJ/mol
# Density = 1.672681 g / cm^3
# Si number density = 16.764972 Si / 1000 Ang^3
#
#
#
# Elastic Constant Matrix: (Units=GPa)
#
#
# Indices 1 2 3 4 5 6 
#
# 1 117.3404 69.8331 69.8843 0.0000 -0.0001 0.0000
# 2 69.8331 117.3404 69.8843 0.0000 0.0001 0.0000
# 3 69.8843 69.8843 121.9211 0.0000 0.0000 0.0000
# 4 0.0000 0.0000 0.0000 23.6931 0.0000 0.0001
# 5 -0.0001 0.0001 0.0000 0.0000 23.6931 0.0000
# 6 0.0000 0.0000 0.0000 0.0001 0.0000 23.7536
#
#
#
# Elastic Compliance Matrix: (Units=1/GPa)
#
#
# Indices 1 2 3 4 5 6 
#
# 1 0.015195 -0.005854 -0.005354 0.000000 0.000000 0.000000
# 2 -0.005854 0.015195 -0.005354 0.000000 0.000000 0.000000
# 3 -0.005354 -0.005354 0.014340 0.000000 0.000000 0.000000
# 4 0.000000 0.000000 0.000000 0.042206 0.000000 0.000000
# 5 0.000000 0.000000 0.000000 0.000000 0.042206 0.000000
# 6 0.000000 0.000000 0.000000 0.000000 0.000000 0.042099
#
#
# Mechanical properties :
#
#
# Convention : Reuss Voigt Hill
#
# Bulk Modulus (GPa) = 86.16908 86.20055 86.18482
# Shear Modulus (GPa) = 24.01141 24.02799 24.01970
#
# Velocity S-wave (km/s) = 3.78860 3.78990 3.78925
# Velocity P-wave (km/s) = 8.40523 8.40713 8.40618
#
# Compressibility (1/GPa) = 0.01160509
#
# Stress axis : x y z
#
# Youngs Moduli (GPa) = 65.81105 65.81105 69.73625
#
# Poissons Ratio (x) = 0.38528 0.37337
# Poissons Ratio (y) = 0.38528 0.37337
# Poissons Ratio (z) = 0.35235 0.35235
#
# Static dielectric constant tensor:
#      x y z
#    x 2.992170 0.000000 0.000000 
#    y 0.000000 2.992170 0.000000 
#    z 0.000000 0.000000 3.471020 
# 
# 
# High freq. dielectric constant tensor:
#      x y z
#    x 1.636720 0.000000 0.000000 
#    y 0.000000 1.636720 0.000000 
#    z 0.000000 0.000000 1.662090 
# 
# From -- ./inp_files/4414.got.cif
#   From: 2010.03.12/outbox.cif.g09.slc.cpg/sg187_3_cif.got.tgz:4414.got - 2010.04.01 11:58:23.
