data_PCOD8327146
_publ_section_title
;
Structure prediction by ZEFSAII (Michael W. Deem and Ramdas Pophale) SiO2 
 PCOD8327146
Probable space group: P -6 M 2
;
_chemical_formula_sum "Si O2"
_cell_formula_units_Z 54
_cell_length_a 12.499797
_cell_length_b 12.499797
_cell_length_c 22.917246
_cell_angle_alpha 90.000000
_cell_angle_beta 90.000000
_cell_angle_gamma 120.000000
_cell_volume 3100.980093
_symmetry_space_group_name_H-M "P -6 M 2"
_symmetry_group_IT_number 187
_symmetry_cell_setting 'hexagonal'
loop_
_space_group_symop_operation_xyz
x,y,z
-x+y,-x,-z
-y,x-y,z
x,y,-z
-x+y,-x,z
-y,x-y,-z
-y,-x,-z
-x+y,y,-z
x,x-y,-z
-x+y,y,z
x,x-y,z
-y,-x,z
loop_
_atom_site_type_symbol
_atom_site_label
_atom_site_fract_x
_atom_site_fract_y
_atom_site_fract_z
Si Si1 0.087211 0.420064 0.433550
Si Si2 0.665120 0.582323 0.110216
Si Si3 0.084400 0.417436 0.220179
Si Si4 0.000927 0.248120 0.329597
Si Si5 0.583295 0.917897 0.000000
O O1 0.046402 0.377380 0.500000
O O2 0.229761 0.459521 0.423418
O O3 0.072945 0.536473 0.417149
O O4 0.999499 0.305903 0.392230
O O5 0.796275 0.592549 0.106502
O O6 0.560710 0.439291 0.106613
O O7 0.656928 0.643220 0.170088
O O8 0.653028 0.657792 0.056882
O O9 0.210153 0.420305 0.204269
O O10 0.113985 0.556993 0.225076
O O11 0.028113 0.350226 0.280974
O O12 0.102829 0.205657 0.328136
O O13 0.868821 0.131180 0.317668
O O14 0.440968 0.881935 0.000000
O O15 0.589002 0.794501 0.000000
#
# Coordination Sequence:
#
# PCOD8327146 Si02
#       5
#    12  12  12  12   6
#     4   9  17  30  50  75 100 126 158 200 249 296
#     4  10  20  34  53  76 103 135 169 204 242 289
#     4  10  20  34  54  78 102 128 160 203 252 298
#     4  10  20  33  49  70  98 132 167 201 239 287
#     4  10  20  34  54  78 104 134 168 210 256 298
#
# _framework density 17.41385
#
# number of rings (size 3 to 8) (size 9 to 14) (size 15 to 20)
#    0.000    2.222    0.000    3.333    0.000    1.333 
#    0.000    5.556    0.000   13.778    0.000    0.000 
#    0.000    0.000    0.000    0.000    0.000    0.000 
#
# Total GULP energy -669783.156103 kJ/mol
# GULP energy per Si atom -12403.391780 kJ/mol
# Density = 1.737422 g / cm^3
# Si number density = 17.413850 Si / 1000 Ang^3
#
#
#
# Elastic Constant Matrix: (Units=GPa)
#
#
# Indices 1 2 3 4 5 6 
#
# 1 106.5742 64.0234 46.1474 0.0000 -0.0001 0.0000
# 2 64.0234 106.5742 46.1474 0.0000 0.0001 0.0000
# 3 46.1474 46.1474 102.0832 0.0000 0.0000 0.0000
# 4 0.0000 0.0000 0.0000 18.5866 0.0000 0.0001
# 5 -0.0001 0.0001 0.0000 0.0000 18.5866 0.0000
# 6 0.0000 0.0000 0.0000 0.0001 0.0000 21.2754
#
#
#
# Elastic Compliance Matrix: (Units=1/GPa)
#
#
# Indices 1 2 3 4 5 6 
#
# 1 0.015630 -0.007871 -0.003508 0.000000 0.000000 0.000000
# 2 -0.007871 0.015630 -0.003508 0.000000 0.000000 0.000000
# 3 -0.003508 -0.003508 0.012967 0.000000 0.000000 0.000000
# 4 0.000000 0.000000 0.000000 0.053802 0.000000 0.000000
# 5 0.000000 0.000000 0.000000 0.000000 0.053802 0.000000
# 6 0.000000 0.000000 0.000000 0.000000 0.000000 0.047003
#
#
# Mechanical properties :
#
#
# Convention : Reuss Voigt Hill
#
# Bulk Modulus (GPa) = 69.17851 69.76310 69.47081
# Shear Modulus (GPa) = 21.42005 22.28395 21.85200
#
# Velocity S-wave (km/s) = 3.51102 3.58113 3.54625
# Velocity P-wave (km/s) = 7.49992 7.56625 7.53316
#
# Compressibility (1/GPa) = 0.01445536
#
# Stress axis : x y z
#
# Youngs Moduli (GPa) = 63.97796 63.97796 77.11700
#
# Poissons Ratio (x) = 0.50357 0.27050
# Poissons Ratio (y) = 0.50357 0.27050
# Poissons Ratio (z) = 0.22442 0.22442
#
# Static dielectric constant tensor:
#      x y z
#    x 3.109510 0.000000 0.000000 
#    y 0.000000 3.109510 0.000000 
#    z 0.000000 0.000000 3.489030 
# 
# 
# High freq. dielectric constant tensor:
#      x y z
#    x 1.667180 0.000000 0.000000 
#    y 0.000000 1.667180 0.000000 
#    z 0.000000 0.000000 1.692160 
# 
# From -- ./inp_files/3443.got.cif
#   From: 2010.03.12/outbox.cif.g09.slc.cpg/sg187_2_cif.got.tgz:3443.got - 2010.04.01 11:58:23.
