data_PCOD8327861
_publ_section_title
;
Structure prediction by ZEFSAII (Michael W. Deem and Ramdas Pophale) SiO2 
 PCOD8327861
Probable space group: P -6 2 M
;
_chemical_formula_sum "Si O2"
_cell_formula_units_Z 66
_cell_length_a 21.404160
_cell_length_b 21.404160
_cell_length_c 7.934733
_cell_angle_alpha 90.000000
_cell_angle_beta 90.000000
_cell_angle_gamma 120.000000
_cell_volume 3148.178341
_symmetry_space_group_name_H-M "P -6 2 M"
_symmetry_group_IT_number 189
_symmetry_cell_setting 'hexagonal'
loop_
_space_group_symop_operation_xyz
x,y,z
-x+y,-x,-z
-y,x-y,z
x,y,-z
-x+y,-x,z
-y,x-y,-z
x-y,-y,-z
-x,-x+y,-z
y,x,-z
y,x,z
x-y,-y,z
-x,-x+y,z
loop_
_atom_site_type_symbol
_atom_site_label
_atom_site_fract_x
_atom_site_fract_y
_atom_site_fract_z
Si Si1 0.081755 0.705950 0.806561
Si Si2 0.167852 0.085195 0.000000
Si Si3 0.811002 0.466531 0.308031
Si Si4 0.371742 0.080828 0.804235
Si Si5 0.135174 0.861405 0.687465
Si Si6 0.678678 0.474134 0.193128
O O1 0.129378 0.668944 0.776972
O O2 0.110424 0.777252 0.695797
O O3 0.000000 0.648866 0.755716
O O4 0.087632 0.729645 0.000000
O O5 0.213860 0.117830 0.169598
O O6 0.104645 0.104645 0.000000
O O7 0.134662 0.000000 0.000000
O O8 0.831847 0.464132 0.500000
O O9 0.732179 0.458310 0.301628
O O10 0.811650 0.402213 0.208470
O O11 0.313767 0.092636 0.704421
O O12 0.452471 0.135494 0.741394
O O13 0.355842 0.000000 0.769808
O O14 0.362659 0.093259 0.000000
O O15 0.114965 0.876538 0.500000
O O16 0.703704 0.482511 0.000000
#
# Coordination Sequence:
#
# PCOD8327861 Si02
#       6
#    12   6  12  12  12  12
#     4  11  23  42  68  97 130 170 219 273 328 395
#     4  12  27  48  72 102 140 184 232 284 342 410
#     4  12  25  41  62  92 131 171 218 274 333 394
#     4  10  21  40  67  97 129 166 215 274 330 393
#     4  12  24  42  70 103 137 176 225 278 337 406
#     4  11  23  41  64  89 124 172 223 268 323 392
#
# _framework density 20.964504999999999
#
# number of rings (size 3 to 8) (size 9 to 14) (size 15 to 20)
#    0.000    0.727    3.636    4.273    0.000    5.455 
#    0.000    1.818    0.000    1.091    0.000    0.000 
#    0.000    0.000    0.000    0.000    0.000    0.000 
#
# Total GULP energy -818799.471537 kJ/mol
# GULP energy per Si atom -12406.052599 kJ/mol
# Density = 2.091679 g / cm^3
# Si number density = 20.964505 Si / 1000 Ang^3
#
#
#
# Elastic Constant Matrix: (Units=GPa)
#
#
# Indices 1 2 3 4 5 6 
#
# 1 112.2368 37.3779 19.5099 0.0000 0.0000 0.0000
# 2 37.3779 112.2368 19.5099 0.0000 0.0000 0.0000
# 3 19.5099 19.5099 97.5945 0.0000 0.0000 0.0000
# 4 0.0000 0.0000 0.0000 9.2404 0.0000 0.0000
# 5 0.0000 0.0000 0.0000 0.0000 9.2404 0.0000
# 6 0.0000 0.0000 0.0000 0.0000 0.0000 37.4294
#
#
#
# Elastic Compliance Matrix: (Units=1/GPa)
#
#
# Indices 1 2 3 4 5 6 
#
# 1 0.010205 -0.003153 -0.001410 0.000000 0.000000 0.000000
# 2 -0.003153 0.010205 -0.001410 0.000000 0.000000 0.000000
# 3 -0.001410 -0.001410 0.010810 0.000000 0.000000 0.000000
# 4 0.000000 0.000000 0.000000 0.108221 0.000000 0.000000
# 5 0.000000 0.000000 0.000000 0.000000 0.108221 0.000000
# 6 0.000000 0.000000 0.000000 0.000000 0.000000 0.026717
#
#
# Mechanical properties :
#
#
# Convention : Reuss Voigt Hill
#
# Bulk Modulus (GPa) = 51.88218 52.76262 52.32240
# Shear Modulus (GPa) = 17.07951 27.56007 22.31979
#
# Velocity S-wave (km/s) = 2.85737 3.62968 3.26643
# Velocity P-wave (km/s) = 5.97390 6.54128 6.26402
#
# Compressibility (1/GPa) = 0.01927444
#
# Stress axis : x y z
#
# Youngs Moduli (GPa) = 97.99147 97.99147 92.50630
#
# Poissons Ratio (x) = 0.30902 0.13040
# Poissons Ratio (y) = 0.30902 0.13040
# Poissons Ratio (z) = 0.13813 0.13813
#
# Static dielectric constant tensor:
#      x y z
#    x 3.795280 0.000000 0.000000 
#    y 0.000000 3.795280 0.000000 
#    z 0.000000 0.000000 3.785240 
# 
# 
# High freq. dielectric constant tensor:
#      x y z
#    x 1.823210 0.000000 0.000000 
#    y 0.000000 1.823210 0.000000 
#    z 0.000000 0.000000 1.825040 
# 
# From -- ./inp_files/1048.got.cif
#   From: 2010.03.12/outbox.cif.g09.slc.cpg/sg189_1_cif.got.tgz:1048.got - 2010.04.01 12:03:36.
