data_PCOD8327503
_publ_section_title
;
Structure prediction by ZEFSAII (Michael W. Deem and Ramdas Pophale) SiO2 
 PCOD8327503
Probable space group: P -6 2 M
;
_chemical_formula_sum "Si O2"
_cell_formula_units_Z 78
_cell_length_a 25.157004
_cell_length_b 25.157004
_cell_length_c 8.256726
_cell_angle_alpha 90.000000
_cell_angle_beta 90.000000
_cell_angle_gamma 120.000000
_cell_volume 4525.393431
_symmetry_space_group_name_H-M "P -6 2 M"
_symmetry_group_IT_number 189
_symmetry_cell_setting 'hexagonal'
loop_
_space_group_symop_operation_xyz
x,y,z
-x+y,-x,-z
-y,x-y,z
x,y,-z
-x+y,-x,z
-y,x-y,-z
x-y,-y,-z
-x,-x+y,-z
y,x,-z
y,x,z
x-y,-y,z
-x,-x+y,z
loop_
_atom_site_type_symbol
_atom_site_label
_atom_site_fract_x
_atom_site_fract_y
_atom_site_fract_z
Si Si1 0.386877 0.807804 0.690141
Si Si2 0.468747 0.749980 0.692138
Si Si3 0.808872 0.927309 0.177494
Si Si4 0.069436 0.561450 0.191105
Si Si5 0.067205 0.137726 0.500000
Si Si6 0.428881 0.299376 0.186879
Si Si7 0.298285 0.229192 0.683284
O O1 0.386462 0.813498 0.500000
O O2 0.416618 0.766534 0.742104
O O3 0.317101 0.770088 0.755285
O O4 0.423398 0.878162 0.756190
O O5 0.479147 0.756036 0.500000
O O6 0.529467 0.797967 0.786315
O O7 0.825252 0.898476 0.332622
O O8 0.738559 0.910610 0.196910
O O9 0.853909 0.000000 0.179800
O O10 0.815033 0.901806 0.000000
O O11 0.092247 0.630604 0.252651
O O12 0.000000 0.514587 0.259589
O O13 0.066378 0.559481 0.000000
O O14 0.119250 0.119250 0.500000
O O15 0.000000 0.078248 0.500000
O O16 0.369960 0.258605 0.293803
O O17 0.410884 0.296741 0.000000
O O18 0.279633 0.204798 0.500000
O O19 0.281554 0.281554 0.722577
#
# Coordination Sequence:
#
# PCOD8327503 Si02
#       7
#    12  12  12  12   6  12  12
#     4   9  17  29  47  66  88 120 156 193 233 281
#     4   9  17  30  45  65  91 119 153 193 236 279
#     4   9  17  30  47  67  94 126 160 196 232 278
#     4   9  18  31  44  62  92 125 154 188 230 277
#     4  10  19  32  48  70  98 128 162 198 236 276
#     4  10  19  29  43  66  95 124 154 188 230 281
#     4  10  18  29  46  68  94 125 157 189 230 282
#
# _framework density 17.236070000000002
#
# number of rings (size 3 to 8) (size 9 to 14) (size 15 to 20)
#    0.000    2.615    0.769    1.769    0.000    4.615 
#    0.000    0.000    0.000    2.769    0.000    1.077 
#    0.000    1.231    0.000    0.000    0.000    0.000 
#
# Total GULP energy -966561.071544 kJ/mol
# GULP energy per Si atom -12391.808610 kJ/mol
# Density = 1.719684 g / cm^3
# Si number density = 17.236070 Si / 1000 Ang^3
#
#
#
# Elastic Constant Matrix: (Units=GPa)
#
#
# Indices 1 2 3 4 5 6 
#
# 1 85.9071 35.4319 26.7832 0.0000 0.0000 0.0000
# 2 35.4319 85.9071 26.7832 0.0000 0.0000 0.0000
# 3 26.7832 26.7832 74.2841 0.0000 0.0000 0.0000
# 4 0.0000 0.0000 0.0000 15.9707 0.0000 0.0000
# 5 0.0000 0.0000 0.0000 0.0000 15.9707 0.0000
# 6 0.0000 0.0000 0.0000 0.0000 0.0000 25.2376
#
#
#
# Elastic Compliance Matrix: (Units=1/GPa)
#
#
# Indices 1 2 3 4 5 6 
#
# 1 0.014807 -0.005005 -0.003534 0.000000 0.000000 0.000000
# 2 -0.005005 0.014807 -0.003534 0.000000 0.000000 0.000000
# 3 -0.003534 -0.003534 0.016010 0.000000 0.000000 0.000000
# 4 0.000000 0.000000 0.000000 0.062615 0.000000 0.000000
# 5 0.000000 0.000000 0.000000 0.000000 0.062615 0.000000
# 6 0.000000 0.000000 0.000000 0.000000 0.000000 0.039623
#
#
# Mechanical properties :
#
#
# Convention : Reuss Voigt Hill
#
# Bulk Modulus (GPa) = 46.56064 47.12167 46.84115
# Shear Modulus (GPa) = 20.67987 21.90914 21.29450
#
# Velocity S-wave (km/s) = 3.46757 3.56915 3.51873
# Velocity P-wave (km/s) = 6.56538 6.66209 6.61391
#
# Compressibility (1/GPa) = 0.02147737
#
# Stress axis : x y z
#
# Youngs Moduli (GPa) = 67.53751 67.53751 62.46039
#
# Poissons Ratio (x) = 0.33803 0.22073
# Poissons Ratio (y) = 0.33803 0.22073
# Poissons Ratio (z) = 0.23867 0.23867
#
# Static dielectric constant tensor:
#      x y z
#    x 3.130620 0.000000 0.000000 
#    y 0.000000 3.130620 0.000000 
#    z 0.000000 0.000000 3.351300 
# 
# 
# High freq. dielectric constant tensor:
#      x y z
#    x 1.639910 0.000000 0.000000 
#    y 0.000000 1.639910 0.000000 
#    z 0.000000 0.000000 1.672730 
# 
# From -- ./inp_files/1404.got.cif
#   From: 2010.03.12/outbox.cif.g09.slc.cpg/sg189_1_cif.got.tgz:1404.got - 2010.04.01 12:03:36.
