data_PCOD8327297
_publ_section_title
;
Structure prediction by ZEFSAII (Michael W. Deem and Ramdas Pophale) SiO2 
 PCOD8327297
Probable space group: P -6 M 2
;
_chemical_formula_sum "Si O2"
_cell_formula_units_Z 84
_cell_length_a 22.435974
_cell_length_b 22.435974
_cell_length_c 12.982674
_cell_angle_alpha 90.000000
_cell_angle_beta 90.000000
_cell_angle_gamma 120.000000
_cell_volume 5659.585689
_symmetry_space_group_name_H-M "P -6 M 2"
_symmetry_group_IT_number 187
_symmetry_cell_setting 'hexagonal'
loop_
_space_group_symop_operation_xyz
x,y,z
-x+y,-x,-z
-y,x-y,z
x,y,-z
-x+y,-x,z
-y,x-y,-z
-y,-x,-z
-x+y,y,-z
x,x-y,-z
-x+y,y,z
x,x-y,z
-y,-x,z
loop_
_atom_site_type_symbol
_atom_site_label
_atom_site_fract_x
_atom_site_fract_y
_atom_site_fract_z
Si Si1 0.333333 0.000000 0.378445
Si Si2 0.276957 0.857549 0.119403
Si Si3 0.386270 0.125126 0.237324
Si Si4 0.610290 0.524216 0.880597
Si Si5 0.541541 0.594478 0.237324
Si Si6 0.943623 0.752742 0.880598
Si Si7 0.208207 0.927811 0.762676
O O1 0.333334 0.000001 0.500000
O O2 0.378332 0.966566 0.339284
O O3 0.254900 0.955001 0.339284
O O4 0.366767 0.078433 0.339284
O O5 0.222379 0.777622 0.141331
O O6 0.345239 0.877656 0.185220
O O7 0.245175 0.904851 0.152960
O O8 0.295976 0.870758 0.000000
O O9 0.399034 0.199517 0.270206
O O10 0.455677 0.134250 0.185220
O O11 0.326342 0.088159 0.152960
O O12 0.555712 0.444289 0.858668
O O13 0.578509 0.571518 0.847040
O O14 0.629309 0.537424 0.000000
O O15 0.467150 0.532850 0.270205
O O16 0.889046 0.778092 0.858669
O O17 0.011906 0.800917 0.814779
O O18 0.962643 0.758552 0.000000
O O19 0.133817 0.866184 0.729794
#
# Coordination Sequence:
#
# PCOD8327297 Si02
#       7
#    12  12  12  12  12  12  12
#     4   9  18  30  43  62  85 105 135 180 217 251
#     4   9  16  25  39  61  86 111 141 173 202 240
#     4   9  17  28  42  60  84 113 140 169 211 254
#     4   9  16  25  39  61  86 111 141 173 202 240
#     4   9  17  28  42  60  84 113 140 169 211 254
#     4   9  16  25  39  61  86 111 141 173 202 240
#     4   9  17  28  42  60  84 113 140 169 211 254
#
# _framework density 14.842074999999999
#
# number of rings (size 3 to 8) (size 9 to 14) (size 15 to 20)
#    0.000    3.000    0.000    2.143    0.000    3.429 
#    0.000    0.000    0.000    0.857    0.000    0.000 
#    0.000    0.000    0.000    1.286    0.000    1.714 
#
# Total GULP energy -1041509.146745 kJ/mol
# GULP energy per Si atom -12398.918414 kJ/mol
# Density = 1.480829 g / cm^3
# Si number density = 14.842075 Si / 1000 Ang^3
#
#
#
# Elastic Constant Matrix: (Units=GPa)
#
#
# Indices 1 2 3 4 5 6 
#
# 1 89.7221 51.8023 55.0126 0.0000 -0.0001 0.0000
# 2 51.8023 89.7221 55.0126 0.0000 0.0001 0.0000
# 3 55.0126 55.0126 116.3304 0.0000 0.0000 0.0000
# 4 0.0000 0.0000 0.0000 13.7036 0.0000 0.0001
# 5 -0.0001 0.0001 0.0000 0.0000 13.7036 0.0000
# 6 0.0000 0.0000 0.0000 0.0001 0.0000 18.9599
#
#
#
# Elastic Compliance Matrix: (Units=1/GPa)
#
#
# Indices 1 2 3 4 5 6 
#
# 1 0.018773 -0.007599 -0.005284 0.000000 0.000000 0.000000
# 2 -0.007599 0.018773 -0.005284 0.000000 0.000000 0.000000
# 3 -0.005284 -0.005284 0.013594 0.000000 0.000000 0.000000
# 4 0.000000 0.000000 0.000000 0.072974 0.000000 0.000000
# 5 0.000000 0.000000 0.000000 0.000000 0.072974 0.000000
# 6 0.000000 0.000000 0.000000 0.000000 0.000000 0.052743
#
#
# Mechanical properties :
#
#
# Convention : Reuss Voigt Hill
#
# Bulk Modulus (GPa) = 67.54361 68.82554 68.18458
# Shear Modulus (GPa) = 17.17630 18.20322 17.68976
#
# Velocity S-wave (km/s) = 3.40556 3.50588 3.45609
# Velocity P-wave (km/s) = 7.81478 7.92849 7.87184
#
# Compressibility (1/GPa) = 0.01480525
#
# Stress axis : x y z
#
# Youngs Moduli (GPa) = 53.26878 53.26878 73.56198
#
# Poissons Ratio (x) = 0.40477 0.38871
# Poissons Ratio (y) = 0.40477 0.38871
# Poissons Ratio (z) = 0.28148 0.28148
#
# Static dielectric constant tensor:
#      x y z
#    x 2.923770 0.000000 0.000000 
#    y 0.000000 2.923770 0.000000 
#    z 0.000000 0.000000 2.634270 
# 
# 
# High freq. dielectric constant tensor:
#      x y z
#    x 1.555610 0.000000 0.000000 
#    y 0.000000 1.555610 0.000000 
#    z 0.000000 0.000000 1.553580 
# 
# From -- ./inp_files/1992.got.cif
#   From: 2010.03.12/outbox.cif.g09.slc.cpg/sg187_1_cif.got.tgz:1992.got - 2010.04.01 11:58:23.
