data_PCOD8327199
_publ_section_title
;
Structure prediction by ZEFSAII (Michael W. Deem and Ramdas Pophale) SiO2 
 PCOD8327199
Probable space group: P -6 M 2
;
_chemical_formula_sum "Si O2"
_cell_formula_units_Z 72
_cell_length_a 12.387924
_cell_length_b 12.387924
_cell_length_c 30.840652
_cell_angle_alpha 90.000000
_cell_angle_beta 90.000000
_cell_angle_gamma 120.000000
_cell_volume 4098.748277
_symmetry_space_group_name_H-M "P -6 M 2"
_symmetry_group_IT_number 187
_symmetry_cell_setting 'hexagonal'
loop_
_space_group_symop_operation_xyz
x,y,z
-x+y,-x,-z
-y,x-y,z
x,y,-z
-x+y,-x,z
-y,x-y,-z
-y,-x,-z
-x+y,y,-z
x,x-y,-z
-x+y,y,z
x,x-y,z
-y,-x,z
loop_
_atom_site_type_symbol
_atom_site_label
_atom_site_fract_x
_atom_site_fract_y
_atom_site_fract_z
Si Si1 0.666700 0.081771 0.832017
Si Si2 0.080629 0.414134 0.915849
Si Si3 0.667879 0.585676 0.333760
Si Si4 0.252836 0.001218 0.417128
Si Si5 0.413374 0.080866 0.500000
Si Si6 0.252292 0.001586 0.748762
Si Si7 0.251011 0.997950 0.000000
O O1 0.541681 0.083362 0.820819
O O2 0.776909 0.223092 0.836176
O O3 0.656367 0.010854 0.876316
O O4 0.692387 0.009096 0.794362
O O5 0.212123 0.424246 0.906561
O O6 0.104428 0.552214 0.922389
O O7 0.015057 0.334933 0.958320
O O8 0.773296 0.546592 0.334544
O O9 0.536513 0.463488 0.338862
O O10 0.684904 0.676785 0.372988
O O11 0.670414 0.652387 0.289064
O O12 0.128668 0.871333 0.419041
O O13 0.216634 0.108317 0.419404
O O14 0.337208 0.009491 0.457552
O O15 0.540160 0.080319 0.500000
O O16 0.445886 0.222943 0.500000
O O17 0.131507 0.868494 0.744051
O O18 0.211987 0.105994 0.745012
O O19 0.264176 0.132088 0.000000
O O20 0.105601 0.894400 0.000000
#
# Coordination Sequence:
#
# PCOD8327199 Si02
#       7
#    12  12  12  12   6  12   6
#     4  10  20  34  53  76 103 135 170 210 254 301
#     4  10  20  34  53  76 103 135 170 208 250 299
#     4  10  20  34  54  78 104 134 168 209 254 301
#     4  10  20  34  54  78 104 134 168 209 254 300
#     4  10  20  34  54  78 104 134 168 210 256 302
#     4  10  20  34  53  76 102 132 167 209 255 302
#     4  10  20  34  52  74 100 130 166 208 254 300
#
# _framework density 17.566337999999998
#
# number of rings (size 3 to 8) (size 9 to 14) (size 15 to 20)
#    0.000    2.000    0.000    4.000    0.000    0.000 
#    0.000    6.667    0.000   20.000    0.000    0.000 
#    0.000    0.000    0.000    0.000    0.000    0.000 
#
# Total GULP energy -893113.109568 kJ/mol
# GULP energy per Si atom -12404.348744 kJ/mol
# Density = 1.752636 g / cm^3
# Si number density = 17.566338 Si / 1000 Ang^3
#
#
#
# Elastic Constant Matrix: (Units=GPa)
#
#
# Indices 1 2 3 4 5 6 
#
# 1 89.6243 52.3684 29.7023 0.0000 0.0003 0.0000
# 2 52.3684 89.6243 29.7023 0.0000 -0.0003 0.0000
# 3 29.7023 29.7023 90.1080 0.0000 0.0000 0.0000
# 4 0.0000 0.0000 0.0000 16.3191 0.0000 -0.0003
# 5 0.0003 -0.0003 0.0000 0.0000 16.3191 0.0000
# 6 0.0000 0.0000 0.0000 -0.0003 0.0000 18.6279
#
#
#
# Elastic Compliance Matrix: (Units=1/GPa)
#
#
# Indices 1 2 3 4 5 6 
#
# 1 0.017505 -0.009336 -0.002693 0.000000 0.000000 0.000000
# 2 -0.009336 0.017505 -0.002693 0.000000 0.000000 0.000000
# 3 -0.002693 -0.002693 0.012873 0.000000 0.000000 0.000000
# 4 0.000000 0.000000 0.000000 0.061278 0.000000 0.000001
# 5 0.000000 0.000000 0.000000 0.000000 0.061278 0.000000
# 6 0.000000 0.000000 0.000000 0.000001 0.000000 0.053683
#
#
# Mechanical properties :
#
#
# Convention : Reuss Voigt Hill
#
# Bulk Modulus (GPa) = 54.22936 54.76696 54.49816
# Shear Modulus (GPa) = 19.25205 20.75879 20.00542
#
# Velocity S-wave (km/s) = 3.31412 3.44137 3.37835
# Velocity P-wave (km/s) = 6.75150 6.85825 6.80508
#
# Compressibility (1/GPa) = 0.01844020
#
# Stress axis : x y z
#
# Youngs Moduli (GPa) = 57.12554 57.12554 77.68169
#
# Poissons Ratio (x) = 0.53333 0.20918
# Poissons Ratio (y) = 0.53333 0.20918
# Poissons Ratio (z) = 0.15383 0.15383
#
# Static dielectric constant tensor:
#      x y z
#    x 3.188660 0.000000 0.000000 
#    y 0.000000 3.188660 0.000000 
#    z 0.000000 0.000000 3.485490 
# 
# 
# High freq. dielectric constant tensor:
#      x y z
#    x 1.680970 0.000000 0.000000 
#    y 0.000000 1.680970 0.000000 
#    z 0.000000 0.000000 1.701130 
# 
# From -- ./inp_files/4555.got.cif
#   From: 2010.03.12/outbox.cif.g09.slc.cpg/sg187_3_cif.got.tgz:4555.got - 2010.04.01 11:58:23.
