data_PCOD8327085
_publ_section_title
;
Structure prediction by ZEFSAII (Michael W. Deem and Ramdas Pophale) SiO2 
 PCOD8327085
Probable space group: P -6 M 2
;
_chemical_formula_sum "Si O2"
_cell_formula_units_Z 96
_cell_length_a 17.599428
_cell_length_b 17.599428
_cell_length_c 22.497746
_cell_angle_alpha 90.000000
_cell_angle_beta 90.000000
_cell_angle_gamma 120.000000
_cell_volume 6034.853711
_symmetry_space_group_name_H-M "P -6 M 2"
_symmetry_group_IT_number 187
_symmetry_cell_setting 'hexagonal'
loop_
_space_group_symop_operation_xyz
x,y,z
-x+y,-x,-z
-y,x-y,z
x,y,-z
-x+y,-x,z
-y,x-y,-z
-y,-x,-z
-x+y,y,-z
x,x-y,-z
-x+y,y,z
x,x-y,z
-y,-x,z
loop_
_atom_site_type_symbol
_atom_site_label
_atom_site_fract_x
_atom_site_fract_y
_atom_site_fract_z
Si Si1 0.175911 0.175329 0.211290
Si Si2 0.507514 0.666099 0.735788
Si Si3 0.333497 0.490050 0.931822
Si Si4 0.496031 0.162359 0.429278
Si Si5 0.825836 0.825756 0.650629
Si Si6 0.333469 0.491376 0.598421
Si Si7 0.999671 0.684153 0.433309
Si Si8 0.641637 0.910645 0.832018
O O1 0.181894 0.090947 0.191703
O O2 0.199011 0.198009 0.280582
O O3 0.248791 0.258180 0.172925
O O4 0.077621 0.155242 0.198235
O O5 0.488281 0.744141 0.749800
O O6 0.422066 0.577935 0.755188
O O7 0.531202 0.665594 0.667401
O O8 0.587468 0.674321 0.775082
O O9 0.255516 0.511031 0.920104
O O10 0.423872 0.576129 0.913828
O O11 0.319757 0.407140 0.892415
O O12 0.334911 0.464098 0.000000
O O13 0.499441 0.162949 0.500000
O O14 0.576637 0.153274 0.403204
O O15 0.504349 0.252175 0.404942
O O16 0.404662 0.081369 0.406919
O O17 0.850589 0.925295 0.639099
O O18 0.743648 0.763341 0.610160
O O19 0.907942 0.815884 0.631163
O O20 0.252882 0.505764 0.582873
O O21 0.421117 0.578884 0.579455
O O22 0.326522 0.411147 0.561275
O O23 0.978232 0.703180 0.500000
O O24 0.647308 0.823654 0.828949
#
# Coordination Sequence:
#
# PCOD8327085 Si02
#       8
#    12  12  12  12  12  12  12  12
#     4   9  17  30  48  67  85 107 139 181 227 271
#     4   9  16  26  41  61  85 112 142 177 216 256
#     4   9  16  25  38  59  91 131 168 194 214 242
#     4   9  17  30  48  67  84 102 127 161 201 247
#     4  10  20  34  51  69  88 110 138 174 218 270
#     4  10  20  33  47  62  82 111 148 187 224 262
#     4  11  22  34  47  64  87 113 139 171 216 268
#     4   9  16  25  39  61  87 114 146 183 219 253
#
# _framework density 15.907595000000001
#
# number of rings (size 3 to 8) (size 9 to 14) (size 15 to 20)
#    0.000    2.500    0.000    3.000    0.000    7.500 
#    0.000    1.250    0.000    1.875    0.000    0.000 
#    0.000    1.000    0.000    3.000    0.000    1.750 
#
# Total GULP energy -1190311.599821 kJ/mol
# GULP energy per Si atom -12399.079165 kJ/mol
# Density = 1.587139 g / cm^3
# Si number density = 15.907595 Si / 1000 Ang^3
#
#
#
# Elastic Constant Matrix: (Units=GPa)
#
#
# Indices 1 2 3 4 5 6 
#
# 1 93.7131 36.7734 31.8110 0.0000 0.0000 0.0000
# 2 36.7734 93.7131 31.8110 0.0000 0.0000 0.0000
# 3 31.8110 31.8110 50.9249 0.0000 0.0000 0.0000
# 4 0.0000 0.0000 0.0000 18.4557 0.0000 0.0000
# 5 0.0000 0.0000 0.0000 0.0000 18.4557 0.0000
# 6 0.0000 0.0000 0.0000 0.0000 0.0000 28.4699
#
#
#
# Elastic Compliance Matrix: (Units=1/GPa)
#
#
# Indices 1 2 3 4 5 6 
#
# 1 0.014291 -0.003271 -0.006884 0.000000 0.000000 0.000000
# 2 -0.003271 0.014291 -0.006884 0.000000 0.000000 0.000000
# 3 -0.006884 -0.006884 0.028237 0.000000 0.000000 0.000000
# 4 0.000000 0.000000 0.000000 0.054184 0.000000 0.000000
# 5 0.000000 0.000000 0.000000 0.000000 0.054184 0.000000
# 6 0.000000 0.000000 0.000000 0.000000 0.000000 0.035125
#
#
# Mechanical properties :
#
#
# Convention : Reuss Voigt Hill
#
# Bulk Modulus (GPa) = 43.97212 48.79353 46.38283
# Shear Modulus (GPa) = 20.66371 22.27330 21.46851
#
# Velocity S-wave (km/s) = 3.60805 3.74594 3.67764
# Velocity P-wave (km/s) = 6.71265 7.03201 6.87418
#
# Compressibility (1/GPa) = 0.02274168
#
# Stress axis : x y z
#
# Youngs Moduli (GPa) = 69.97305 69.97305 35.41463
#
# Poissons Ratio (x) = 0.22890 0.24379
# Poissons Ratio (y) = 0.22890 0.24379
# Poissons Ratio (z) = 0.48168 0.48168
#
# Static dielectric constant tensor:
#      x y z
#    x 3.038570 0.000000 0.000000 
#    y 0.000000 3.038570 0.000000 
#    z 0.000000 0.000000 2.872470 
# 
# 
# High freq. dielectric constant tensor:
#      x y z
#    x 1.604270 0.000000 0.000000 
#    y 0.000000 1.604270 0.000000 
#    z 0.000000 0.000000 1.583980 
# 
# From -- ./inp_files/4075.got.cif
#   From: 2010.03.12/outbox.cif.g09.slc.cpg/sg187_3_cif.got.tgz:4075.got - 2010.04.01 11:58:23.
