data_PCOD8327019
_publ_section_title
;
Structure prediction by ZEFSAII (Michael W. Deem and Ramdas Pophale) SiO2 
 PCOD8327019
Probable space group: P -6 M 2
;
_chemical_formula_sum "Si O2"
_cell_formula_units_Z 66
_cell_length_a 13.105764
_cell_length_b 13.105764
_cell_length_c 27.830127
_cell_angle_alpha 90.000000
_cell_angle_beta 90.000000
_cell_angle_gamma 120.000000
_cell_volume 4139.715603
_symmetry_space_group_name_H-M "P -6 M 2"
_symmetry_group_IT_number 187
_symmetry_cell_setting 'hexagonal'
loop_
_space_group_symop_operation_xyz
x,y,z
-x+y,-x,-z
-y,x-y,z
x,y,-z
-x+y,-x,z
-y,x-y,-z
-y,-x,-z
-x+y,y,-z
x,x-y,-z
-x+y,y,z
x,x-y,z
-y,-x,z
loop_
_atom_site_type_symbol
_atom_site_label
_atom_site_fract_x
_atom_site_fract_y
_atom_site_fract_z
Si Si1 0.570613 0.906209 0.104307
Si Si2 0.666501 0.098265 0.627704
Si Si3 0.760028 0.759780 0.184237
Si Si4 0.334927 0.439185 0.000000
Si Si5 0.666290 0.098305 0.262790
Si Si6 0.569321 0.666220 0.554287
O O1 0.453398 0.906796 0.121984
O O2 0.542253 0.771127 0.103831
O O3 0.679293 0.986306 0.138617
O O4 0.608795 0.965418 0.050606
O O5 0.564238 0.128475 0.617495
O O6 0.787794 0.212207 0.615594
O O7 0.660520 0.056149 0.682487
O O8 0.657720 0.998818 0.591857
O O9 0.887933 0.775865 0.175129
O O10 0.697386 0.681459 0.230919
O O11 0.773503 0.886752 0.192468
O O12 0.419083 0.580918 0.000000
O O13 0.200582 0.401164 0.000000
O O14 0.542043 0.084085 0.246380
O O15 0.764684 0.235317 0.257232
O O16 0.609819 0.660645 0.500000
O O17 0.572941 0.786471 0.564716
O O18 0.436989 0.563012 0.563556
#
# Coordination Sequence:
#
# PCOD8327019 Si02
#       6
#    12  12  12   6  12  12
#     4   9  16  27  45  68  91 112 136 171 216 263
#     4   9  17  29  46  68  92 115 139 172 218 269
#     4  10  20  32  45  61  85 118 153 186 217 252
#     4   8  13  22  39  64  90 112 134 164 208 260
#     4   9  17  30  48  68  88 111 141 179 222 266
#     4   9  17  29  45  64  86 114 147 180 211 245
#
# _framework density 15.943125
#
# number of rings (size 3 to 8) (size 9 to 14) (size 15 to 20)
#    0.000    2.909    0.000    1.545    0.000    4.727 
#    0.000    0.455    0.000    2.182    0.000    1.273 
#    0.000    0.000    0.000    0.000    0.000    0.000 
#
# Total GULP energy -818044.115694 kJ/mol
# GULP energy per Si atom -12394.607814 kJ/mol
# Density = 1.590684 g / cm^3
# Si number density = 15.943125 Si / 1000 Ang^3
#
#
#
# Elastic Constant Matrix: (Units=GPa)
#
#
# Indices 1 2 3 4 5 6 
#
# 1 93.7388 52.6905 66.4592 0.0000 0.0001 0.0000
# 2 52.6905 93.7388 66.4592 0.0000 -0.0001 0.0000
# 3 66.4592 66.4592 117.2342 0.0000 0.0000 0.0000
# 4 0.0000 0.0000 0.0000 24.6767 0.0000 -0.0001
# 5 0.0001 -0.0001 0.0000 0.0000 24.6767 0.0000
# 6 0.0000 0.0000 0.0000 -0.0001 0.0000 20.5241
#
#
#
# Elastic Compliance Matrix: (Units=1/GPa)
#
#
# Indices 1 2 3 4 5 6 
#
# 1 0.019215 -0.005146 -0.007976 0.000000 0.000000 0.000000
# 2 -0.005146 0.019215 -0.007976 0.000000 0.000000 0.000000
# 3 -0.007976 -0.007976 0.017572 0.000000 0.000000 0.000000
# 4 0.000000 0.000000 0.000000 0.040524 0.000000 0.000000
# 5 0.000000 0.000000 0.000000 0.000000 0.040524 0.000000
# 6 0.000000 0.000000 0.000000 0.000000 0.000000 0.048723
#
#
# Mechanical properties :
#
#
# Convention : Reuss Voigt Hill
#
# Bulk Modulus (GPa) = 72.42142 75.10330 73.76236
# Shear Modulus (GPa) = 21.49873 21.91568 21.70721
#
# Velocity S-wave (km/s) = 3.67613 3.71160 3.69391
# Velocity P-wave (km/s) = 7.97133 8.09798 8.03490
#
# Compressibility (1/GPa) = 0.01380807
#
# Stress axis : x y z
#
# Youngs Moduli (GPa) = 52.04207 52.04207 56.90714
#
# Poissons Ratio (x) = 0.26783 0.45387
# Poissons Ratio (y) = 0.26783 0.45387
# Poissons Ratio (z) = 0.41506 0.41506
#
# Static dielectric constant tensor:
#      x y z
#    x 2.887420 0.000000 0.000000 
#    y 0.000000 2.887420 0.000000 
#    z 0.000000 0.000000 3.297890 
# 
# 
# High freq. dielectric constant tensor:
#      x y z
#    x 1.598140 0.000000 0.000000 
#    y 0.000000 1.598140 0.000000 
#    z 0.000000 0.000000 1.625390 
# 
# From -- ./inp_files/4385.got.cif
#   From: 2010.03.12/outbox.cif.g09.slc.cpg/sg187_3_cif.got.tgz:4385.got - 2010.04.01 11:58:23.
