data_PCOD8327105
_publ_section_title
;
Structure prediction by ZEFSAII (Michael W. Deem and Ramdas Pophale) SiO2 
 PCOD8327105
Probable space group: P -6 M 2
;
_chemical_formula_sum "Si O2"
_cell_formula_units_Z 72
_cell_length_a 12.455582
_cell_length_b 12.455582
_cell_length_c 31.082815
_cell_angle_alpha 90.000000
_cell_angle_beta 90.000000
_cell_angle_gamma 120.000000
_cell_volume 4176.178236
_symmetry_space_group_name_H-M "P -6 M 2"
_symmetry_group_IT_number 187
_symmetry_cell_setting 'hexagonal'
loop_
_space_group_symop_operation_xyz
x,y,z
-x+y,-x,-z
-y,x-y,z
x,y,-z
-x+y,-x,z
-y,x-y,-z
-y,-x,-z
-x+y,y,-z
x,x-y,-z
-x+y,y,z
x,x-y,z
-y,-x,z
loop_
_atom_site_type_symbol
_atom_site_label
_atom_site_fract_x
_atom_site_fract_y
_atom_site_fract_z
Si Si1 0.084875 0.667532 0.500000
Si Si2 0.334777 0.918024 0.163652
Si Si3 0.416115 0.082793 0.245330
Si Si4 0.080939 0.413450 0.407015
Si Si5 0.998976 0.251189 0.000000
Si Si6 0.998890 0.249641 0.673047
Si Si7 0.666638 0.585234 0.918126
O O1 0.222395 0.777605 0.500000
O O2 0.097659 0.548830 0.500000
O O3 0.022283 0.670181 0.545682
O O4 0.439789 0.879578 0.161328
O O5 0.203112 0.796889 0.159880
O O6 0.341260 0.985432 0.208100
O O7 0.348684 0.008866 0.125052
O O8 0.556527 0.113054 0.248241
O O9 0.417831 0.208916 0.234671
O O10 0.348598 0.023404 0.289906
O O11 0.223183 0.446366 0.403310
O O12 0.076583 0.538292 0.398831
O O13 0.997121 0.311746 0.372050
O O14 0.992899 0.322447 0.041851
O O15 0.890512 0.109489 0.000000
O O16 0.127409 0.254817 0.000000
O O17 0.892906 0.107095 0.672034
O O18 0.128043 0.256087 0.681916
O O19 0.781818 0.563636 0.914759
O O20 0.546783 0.453218 0.924952
#
# Coordination Sequence:
#
# PCOD8327105 Si02
#       7
#     6  12  12  12   6  12  12
#     4   8  13  22  39  64  92 118 144 180 230 286
#     4  10  20  34  52  74 101 132 164 198 238 286
#     4  10  20  34  53  75  98 124 156 198 245 291
#     4   9  16  27  45  69  94 118 147 187 237 288
#     4  10  20  34  52  74 102 136 172 210 252 300
#     4  10  20  33  48  66  92 127 164 199 234 277
#     4  10  20  34  54  78 104 134 168 209 253 296
#
# _framework density 17.240642999999999
#
# number of rings (size 3 to 8) (size 9 to 14) (size 15 to 20)
#    0.000    2.333    0.000    3.250    0.000    1.333 
#    0.000    2.917    0.000   12.667    0.000    1.167 
#    0.000    0.000    0.000    0.000    0.000    0.000 
#
# Total GULP energy -892618.871817 kJ/mol
# GULP energy per Si atom -12397.484331 kJ/mol
# Density = 1.720140 g / cm^3
# Si number density = 17.240643 Si / 1000 Ang^3
#
#
#
# Elastic Constant Matrix: (Units=GPa)
#
#
# Indices 1 2 3 4 5 6 
#
# 1 74.4943 37.9084 41.1686 0.0000 -0.0001 0.0000
# 2 37.9084 74.4943 41.1686 0.0000 0.0001 0.0000
# 3 41.1686 41.1686 124.1606 0.0000 0.0000 0.0000
# 4 0.0000 0.0000 0.0000 24.6696 0.0000 0.0001
# 5 -0.0001 0.0001 0.0000 0.0000 24.6696 0.0000
# 6 0.0000 0.0000 0.0000 0.0001 0.0000 18.2930
#
#
#
# Elastic Compliance Matrix: (Units=1/GPa)
#
#
# Indices 1 2 3 4 5 6 
#
# 1 0.019542 -0.007791 -0.003896 0.000000 0.000000 0.000000
# 2 -0.007791 0.019542 -0.003896 0.000000 0.000000 0.000000
# 3 -0.003896 -0.003896 0.010638 0.000000 0.000000 0.000000
# 4 0.000000 0.000000 0.000000 0.040536 0.000000 0.000000
# 5 0.000000 0.000000 0.000000 0.000000 0.040536 0.000000
# 6 0.000000 0.000000 0.000000 0.000000 0.000000 0.054666
#
#
# Mechanical properties :
#
#
# Convention : Reuss Voigt Hill
#
# Bulk Modulus (GPa) = 53.89597 57.07115 55.48356
# Shear Modulus (GPa) = 22.44057 23.72000 23.08029
#
# Velocity S-wave (km/s) = 3.61170 3.71323 3.66281
# Velocity P-wave (km/s) = 6.98007 7.18043 7.08096
#
# Compressibility (1/GPa) = 0.01855426
#
# Stress axis : x y z
#
# Youngs Moduli (GPa) = 51.17242 51.17242 94.00388
#
# Poissons Ratio (x) = 0.39869 0.36626
# Poissons Ratio (y) = 0.39869 0.36626
# Poissons Ratio (z) = 0.19938 0.19938
#
# Static dielectric constant tensor:
#      x y z
#    x 3.086050 0.000000 0.000000 
#    y 0.000000 3.086050 0.000000 
#    z 0.000000 0.000000 15.396840 
# 
# 
# High freq. dielectric constant tensor:
#      x y z
#    x 1.659260 0.000000 0.000000 
#    y 0.000000 1.659260 0.000000 
#    z 0.000000 0.000000 1.689660 
# 
# From -- ./inp_files/4541.got.cif
#   From: 2010.03.12/outbox.cif.g09.slc.cpg/sg187_3_cif.got.tgz:4541.got - 2010.04.01 11:58:23.
