data_PCOD8327956
_publ_section_title
;
Structure prediction by ZEFSAII (Michael W. Deem and Ramdas Pophale) SiO2 
 PCOD8327956
Probable space group: P -6 2 C
;
_chemical_formula_sum "Si O2"
_cell_formula_units_Z 70
_cell_length_a 14.224282
_cell_length_b 14.224282
_cell_length_c 18.851471
_cell_angle_alpha 90.000000
_cell_angle_beta 90.000000
_cell_angle_gamma 120.000000
_cell_volume 3303.213033
_symmetry_space_group_name_H-M "P -6 2 C"
_symmetry_group_IT_number 190
_symmetry_cell_setting 'hexagonal'
loop_
_space_group_symop_operation_xyz
x,y,z
-x+y,-x,1/2-z
-y,x-y,z
x,y,1/2-z
-x+y,-x,z
-y,x-y,1/2-z
x-y,-y,-z
-x,-x+y,-z
y,x,-z
y,x,1/2+z
x-y,-y,1/2+z
-x,-x+y,1/2+z
loop_
_atom_site_type_symbol
_atom_site_label
_atom_site_fract_x
_atom_site_fract_y
_atom_site_fract_z
Si Si1 0.448494 0.207360 0.399208
Si Si2 0.896875 0.531234 0.834467
Si Si3 0.333335 0.666668 0.165908
Si Si4 0.921587 0.487305 0.065745
Si Si5 0.762092 0.827655 0.833626
Si Si6 0.753160 0.468581 0.250000
Si Si7 0.172323 0.243784 0.167781
O O1 0.533586 0.172073 0.424978
O O2 0.452038 0.303275 0.447838
O O3 0.333972 0.098461 0.390436
O O4 0.463082 0.260809 0.320946
O O5 0.906958 0.530759 0.750000
O O6 0.783412 0.429185 0.861381
O O7 0.904548 0.641610 0.865252
O O8 0.999801 0.527008 0.865853
O O9 0.333334 0.666668 0.250000
O O10 0.000000 0.506821 0.000000
O O11 0.730562 0.798921 0.750000
O O12 0.846197 0.792570 0.861328
O O13 0.808274 0.953492 0.848247
O O14 0.789821 0.378040 0.250000
O O15 0.173569 0.265844 0.250000
#
# Coordination Sequence:
#
# PCOD8327956 Si02
#       7
#    12  12   4  12  12   6  12
#     4  12  23  41  67 101 131 176 230 283 355 407
#     4  10  22  40  66  94 131 177 235 287 352 419
#     4   9  21  39  57  93 135 183 226 275 328 420
#     4  12  28  46  67  98 138 183 225 287 358 435
#     4  10  19  32  60  94 132 164 211 276 342 400
#     4  10  18  34  66 102 136 166 210 300 356 400
#     4   9  18  33  54  93 131 167 208 273 347 407
#
# _framework density 21.191489000000001
#
# number of rings (size 3 to 8) (size 9 to 14) (size 15 to 20)
#    0.171    1.371    4.286    0.686    4.800    2.743 
#    0.000    0.000    0.000    0.000    0.000    1.200 
#    0.000    0.000    0.000    0.000    0.000    0.000 
#
# Total GULP energy -867514.359601 kJ/mol
# GULP energy per Si atom -12393.062280 kJ/mol
# Density = 2.114326 g / cm^3
# Si number density = 21.191489 Si / 1000 Ang^3
#
#
#
# Elastic Constant Matrix: (Units=GPa)
#
#
# Indices 1 2 3 4 5 6 
#
# 1 120.9178 32.6874 21.9066 0.0000 0.0000 0.0000
# 2 32.6874 120.9188 21.9065 -0.0001 0.0000 0.0002
# 3 21.9066 21.9065 41.2523 -0.0001 0.0000 0.0000
# 4 0.0000 -0.0001 -0.0001 14.3053 0.0000 0.0000
# 5 0.0000 0.0000 0.0000 0.0000 14.3054 0.0000
# 6 0.0000 0.0002 0.0000 0.0000 0.0000 44.1157
#
#
#
# Elastic Compliance Matrix: (Units=1/GPa)
#
#
# Indices 1 2 3 4 5 6 
#
# 1 0.009503 -0.001831 -0.004074 0.000000 0.000000 0.000000
# 2 -0.001831 0.009503 -0.004074 0.000000 0.000000 0.000000
# 3 -0.004074 -0.004074 0.028568 0.000000 0.000000 0.000000
# 4 0.000000 0.000000 0.000000 0.069904 0.000000 0.000000
# 5 0.000000 0.000000 0.000000 0.000000 0.069904 0.000000
# 6 0.000000 0.000000 0.000000 0.000000 0.000000 0.022668
#
#
# Mechanical properties :
#
#
# Convention : Reuss Voigt Hill
#
# Bulk Modulus (GPa) = 36.21126 48.45444 42.33285
# Shear Modulus (GPa) = 20.90182 28.31785 24.60983
#
# Velocity S-wave (km/s) = 3.14400 3.65949 3.41149
# Velocity P-wave (km/s) = 5.50494 6.38518 5.96133
#
# Compressibility (1/GPa) = 0.02761572
#
# Stress axis : x y z
#
# Youngs Moduli (GPa) = 105.22843 105.22946 35.00392
#
# Poissons Ratio (x) = 0.19265 0.14262
# Poissons Ratio (y) = 0.19265 0.14261
# Poissons Ratio (z) = 0.42873 0.42873
#
# Static dielectric constant tensor:
#      x y z
#    x 4.050280 0.000000 0.000000 
#    y 0.000000 4.050280 0.000000 
#    z 0.000000 0.000000 3.318600 
# 
# 
# High freq. dielectric constant tensor:
#      x y z
#    x 1.840720 0.000000 0.000000 
#    y 0.000000 1.840720 0.000000 
#    z 0.000000 0.000000 1.779370 
# 
# From -- ./inp_files/3820.got.cif
#   From: 2010.06.25/outbox.cif.g09.slc.cpg/sg190_2_cif.got.tgz:3820.got - 2010.06.28 13:08:06.
