data_PCOD8327736
_publ_section_title
;
Structure prediction by ZEFSAII (Michael W. Deem and Ramdas Pophale) SiO2 
 PCOD8327736
Probable space group: P -6 2 M
;
_chemical_formula_sum "Si O2"
_cell_formula_units_Z 60
_cell_length_a 17.458909
_cell_length_b 17.458909
_cell_length_c 12.084221
_cell_angle_alpha 90.000000
_cell_angle_beta 90.000000
_cell_angle_gamma 120.000000
_cell_volume 3189.947192
_symmetry_space_group_name_H-M "P -6 2 M"
_symmetry_group_IT_number 189
_symmetry_cell_setting 'hexagonal'
loop_
_space_group_symop_operation_xyz
x,y,z
-x+y,-x,-z
-y,x-y,z
x,y,-z
-x+y,-x,z
-y,x-y,-z
x-y,-y,-z
-x,-x+y,-z
y,x,-z
y,x,z
x-y,-y,z
-x,-x+y,z
loop_
_atom_site_type_symbol
_atom_site_label
_atom_site_fract_x
_atom_site_fract_y
_atom_site_fract_z
Si Si1 0.595455 0.899460 0.000000
Si Si2 0.203186 0.102830 0.874324
Si Si3 0.380655 0.484448 0.623271
Si Si4 0.903047 0.418448 0.000000
Si Si5 0.629124 0.522898 0.764788
Si Si6 0.169503 0.786017 0.772801
O O1 0.513875 0.914594 0.000000
O O2 0.585543 0.840790 0.893766
O O3 0.683538 0.000000 0.000000
O O4 0.125427 0.125427 0.860308
O O5 0.277278 0.154930 0.781312
O O6 0.163486 0.000000 0.853106
O O7 0.243700 0.127772 0.000000
O O8 0.358405 0.503586 0.500000
O O9 0.442358 0.442358 0.616415
O O10 0.435791 0.577463 0.688093
O O11 0.291256 0.414288 0.683725
O O12 0.855739 0.367407 0.111887
O O13 0.000000 0.428533 0.000000
O O14 0.582592 0.582592 0.759763
O O15 0.730807 0.579285 0.729648
#
# Coordination Sequence:
#
# PCOD8327736 Si02
#       6
#     6  12  12   6  12  12
#     4  11  19  32  55  83 114 147 188 237 287 338
#     4  10  20  33  52  83 125 165 198 237 292 357
#     4  10  22  41  62  80 105 147 195 241 291 344
#     4   9  17  32  54  75 103 145 181 215 268 338
#     4  10  21  37  56  80 113 149 186 232 288 345
#     4  12  21  34  58  88 115 149 197 246 285 349
#
# _framework density 18.809090000000001
#
# number of rings (size 3 to 8) (size 9 to 14) (size 15 to 20)
#    0.000    1.600    3.000    3.200    0.000    1.600 
#    1.200    0.000    0.000    1.800    0.000    0.000 
#    0.000    1.600    0.000    0.000    0.000    0.000 
#
# Total GULP energy -743676.046363 kJ/mol
# GULP energy per Si atom -12394.600773 kJ/mol
# Density = 1.876628 g / cm^3
# Si number density = 18.809090 Si / 1000 Ang^3
#
#
#
# Elastic Constant Matrix: (Units=GPa)
#
#
# Indices 1 2 3 4 5 6 
#
# 1 77.5144 22.6387 28.9111 0.0000 0.0000 0.0000
# 2 22.6387 77.5144 28.9111 0.0000 0.0000 0.0000
# 3 28.9111 28.9111 113.4047 0.0000 0.0000 0.0000
# 4 0.0000 0.0000 0.0000 28.4178 0.0000 0.0000
# 5 0.0000 0.0000 0.0000 0.0000 28.4178 0.0000
# 6 0.0000 0.0000 0.0000 0.0000 0.0000 27.4379
#
#
#
# Elastic Compliance Matrix: (Units=1/GPa)
#
#
# Indices 1 2 3 4 5 6 
#
# 1 0.014965 -0.003258 -0.002985 0.000000 0.000000 0.000000
# 2 -0.003258 0.014965 -0.002985 0.000000 0.000000 0.000000
# 3 -0.002985 -0.002985 0.010340 0.000000 0.000000 0.000000
# 4 0.000000 0.000000 0.000000 0.035189 0.000000 0.000000
# 5 0.000000 0.000000 0.000000 0.000000 0.035189 0.000000
# 6 0.000000 0.000000 0.000000 0.000000 0.000000 0.036446
#
#
# Mechanical properties :
#
#
# Convention : Reuss Voigt Hill
#
# Bulk Modulus (GPa) = 45.83670 47.70613 46.77141
# Shear Modulus (GPa) = 28.93156 29.38619 29.15888
#
# Velocity S-wave (km/s) = 3.92620 3.95693 3.94160
# Velocity P-wave (km/s) = 6.70640 6.80403 6.75539
#
# Compressibility (1/GPa) = 0.02181658
#
# Stress axis : x y z
#
# Youngs Moduli (GPa) = 66.82048 66.82048 96.71327
#
# Poissons Ratio (x) = 0.21767 0.28867
# Poissons Ratio (y) = 0.21767 0.28867
# Poissons Ratio (z) = 0.19945 0.19945
#
# Static dielectric constant tensor:
#      x y z
#    x 3.396730 0.000000 0.000000 
#    y 0.000000 3.396730 0.000000 
#    z 0.000000 0.000000 3.537270 
# 
# 
# High freq. dielectric constant tensor:
#      x y z
#    x 1.727850 0.000000 0.000000 
#    y 0.000000 1.727850 0.000000 
#    z 0.000000 0.000000 1.708080 
# 
# From -- ./inp_files/1936.got.cif
#   From: 2010.03.12/outbox.cif.g09.slc.cpg/sg189_1_cif.got.tgz:1936.got - 2010.04.01 12:03:36.
