data_PCOD8327829
_publ_section_title
;
Structure prediction by ZEFSAII (Michael W. Deem and Ramdas Pophale) SiO2 
 PCOD8327829
Probable space group: P -6 2 M
;
_chemical_formula_sum "Si O2"
_cell_formula_units_Z 72
_cell_length_a 23.117194
_cell_length_b 23.117194
_cell_length_c 8.691225
_cell_angle_alpha 90.000000
_cell_angle_beta 90.000000
_cell_angle_gamma 120.000000
_cell_volume 4022.368548
_symmetry_space_group_name_H-M "P -6 2 M"
_symmetry_group_IT_number 189
_symmetry_cell_setting 'hexagonal'
loop_
_space_group_symop_operation_xyz
x,y,z
-x+y,-x,-z
-y,x-y,z
x,y,-z
-x+y,-x,z
-y,x-y,-z
x-y,-y,-z
-x,-x+y,-z
y,x,-z
y,x,z
x-y,-y,z
-x,-x+y,z
loop_
_atom_site_type_symbol
_atom_site_label
_atom_site_fract_x
_atom_site_fract_y
_atom_site_fract_z
Si Si1 0.425053 0.347380 0.317792
Si Si2 0.529026 0.237670 0.179456
Si Si3 0.437654 0.818186 0.183575
Si Si4 0.386337 0.207282 0.818308
Si Si5 0.851007 0.925317 0.326823
Si Si6 0.193590 0.927185 0.178997
O O1 0.427179 0.346018 0.500000
O O2 0.385673 0.385673 0.262452
O O3 0.501227 0.386532 0.255396
O O4 0.386734 0.270916 0.257966
O O5 0.560484 0.194129 0.247663
O O6 0.561475 0.313405 0.240721
O O7 0.451378 0.202047 0.220155
O O8 0.543096 0.241509 0.000000
O O9 0.446213 0.826705 0.000000
O O10 0.329066 0.137419 0.746395
O O11 0.378283 0.213727 0.000000
O O12 0.820963 0.910188 0.500000
O O13 0.914270 0.914270 0.319582
O O14 0.796215 0.879163 0.204434
O O15 0.873884 0.000000 0.277277
O O16 0.249369 0.000000 0.249541
O O17 0.208164 0.928167 0.000000
#
# Coordination Sequence:
#
# PCOD8327829 Si02
#       6
#    12  12  12  12  12  12
#     4  10  21  35  49  68  98 133 167 205 245 283
#     4   8  14  26  47  74  97 118 148 187 228 272
#     4   9  16  29  51  76 101 126 155 193 239 290
#     4   9  18  33  52  72  95 125 161 198 237 284
#     4   9  17  29  45  64  86 113 146 185 229 277
#     4   9  18  32  48  67  93 122 151 188 234 280
#
# _framework density 17.899902000000001
#
# number of rings (size 3 to 8) (size 9 to 14) (size 15 to 20)
#    0.000    3.000    0.000    2.000    0.000    5.000 
#    0.000    7.500    0.000    4.000    0.000    2.333 
#    0.000    0.000    0.000    0.000    0.000    0.000 
#
# Total GULP energy -892001.416415 kJ/mol
# GULP energy per Si atom -12388.908561 kJ/mol
# Density = 1.785916 g / cm^3
# Si number density = 17.899902 Si / 1000 Ang^3
#
#
#
# Elastic Constant Matrix: (Units=GPa)
#
#
# Indices 1 2 3 4 5 6 
#
# 1 135.2284 87.7214 25.5076 0.0000 0.0000 0.0000
# 2 87.7214 135.2284 25.5076 0.0000 0.0000 0.0000
# 3 25.5076 25.5076 28.2857 0.0000 0.0000 0.0000
# 4 0.0000 0.0000 0.0000 14.3138 0.0000 0.0000
# 5 0.0000 0.0000 0.0000 0.0000 14.3138 0.0000
# 6 0.0000 0.0000 0.0000 0.0000 0.0000 23.7535
#
#
#
# Elastic Compliance Matrix: (Units=1/GPa)
#
#
# Indices 1 2 3 4 5 6 
#
# 1 0.013351 -0.007699 -0.005096 0.000000 0.000000 0.000000
# 2 -0.007699 0.013351 -0.005096 0.000000 0.000000 0.000000
# 3 -0.005096 -0.005096 0.044545 0.000000 0.000000 0.000000
# 4 0.000000 0.000000 0.000000 0.069862 0.000000 0.000000
# 5 0.000000 0.000000 0.000000 0.000000 0.069862 0.000000
# 6 0.000000 0.000000 0.000000 0.000000 0.000000 0.042099
#
#
# Mechanical properties :
#
#
# Convention : Reuss Voigt Hill
#
# Bulk Modulus (GPa) = 28.19875 64.02398 46.11136
# Shear Modulus (GPa) = 16.62926 21.14328 18.88627
#
# Velocity S-wave (km/s) = 3.05128 3.44058 3.25176
# Velocity P-wave (km/s) = 5.31051 7.18532 6.31785
#
# Compressibility (1/GPa) = 0.03546256
#
# Stress axis : x y z
#
# Youngs Moduli (GPa) = 74.90348 74.90348 22.44907
#
# Poissons Ratio (x) = 0.57668 0.11441
# Poissons Ratio (y) = 0.57668 0.11441
# Poissons Ratio (z) = 0.38174 0.38174
#
# Static dielectric constant tensor:
#      x y z
#    x 3.539470 0.000000 0.000000 
#    y 0.000000 3.539470 0.000000 
#    z 0.000000 0.000000 3.009730 
# 
# 
# High freq. dielectric constant tensor:
#      x y z
#    x 1.691500 0.000000 0.000000 
#    y 0.000000 1.691500 0.000000 
#    z 0.000000 0.000000 1.663150 
# 
# From -- ./inp_files/1280.got.cif
#   From: 2010.03.12/outbox.cif.g09.slc.cpg/sg189_1_cif.got.tgz:1280.got - 2010.04.01 12:03:36.
