data_PCOD8327682
_publ_section_title
;
Structure prediction by ZEFSAII (Michael W. Deem and Ramdas Pophale) SiO2 
 PCOD8327682
Probable space group: P -6 2 M
;
_chemical_formula_sum "Si O2"
_cell_formula_units_Z 66
_cell_length_a 21.745202
_cell_length_b 21.745202
_cell_length_c 7.656531
_cell_angle_alpha 90.000000
_cell_angle_beta 90.000000
_cell_angle_gamma 120.000000
_cell_volume 3135.375567
_symmetry_space_group_name_H-M "P -6 2 M"
_symmetry_group_IT_number 189
_symmetry_cell_setting 'hexagonal'
loop_
_space_group_symop_operation_xyz
x,y,z
-x+y,-x,-z
-y,x-y,z
x,y,-z
-x+y,-x,z
-y,x-y,-z
x-y,-y,-z
-x,-x+y,-z
y,x,-z
y,x,z
x-y,-y,z
-x,-x+y,z
loop_
_atom_site_type_symbol
_atom_site_label
_atom_site_fract_x
_atom_site_fract_y
_atom_site_fract_z
Si Si1 0.373446 0.293579 0.300222
Si Si2 0.528012 0.196350 0.208249
Si Si3 0.622884 0.701679 0.207536
Si Si4 0.860386 0.722249 0.802229
Si Si5 0.165973 0.084266 0.500000
Si Si6 0.335427 0.528399 0.792874
O O1 0.353039 0.271248 0.500000
O O2 0.349055 0.349055 0.239550
O O3 0.331684 0.222369 0.187714
O O4 0.457517 0.332020 0.275179
O O5 0.455033 0.131567 0.283873
O O6 0.593110 0.188535 0.281022
O O7 0.534647 0.269141 0.278325
O O8 0.528096 0.195997 0.000000
O O9 0.647566 0.647566 0.277078
O O10 0.679158 0.780425 0.272174
O O11 0.620205 0.702374 0.000000
O O12 0.905171 0.787980 0.674820
O O13 0.863116 0.750473 0.000000
O O14 0.104461 0.104461 0.500000
O O15 0.131319 0.000000 0.500000
O O16 0.335309 0.527954 0.000000
#
# Coordination Sequence:
#
# PCOD8327682 Si02
#       6
#    12  12  12  12   6  12
#     4  11  23  39  59  86 121 158 203 264 323 375
#     4   9  17  30  51  82 117 151 194 247 301 363
#     4   9  17  31  54  85 118 151 194 251 305 357
#     4  11  22  41  68  96 126 165 214 261 315 383
#     4  12  27  46  68  98 134 172 212 260 318 384
#     4  10  19  34  57  85 117 157 204 252 309 376
#
# _framework density 21.050111000000001
#
# number of rings (size 3 to 8) (size 9 to 14) (size 15 to 20)
#    0.000    1.818    2.727    2.091    0.000    5.818 
#    0.000    2.727    2.000    1.091    0.000    0.000 
#    0.000    0.000    0.000    0.000    0.000    0.000 
#
# Total GULP energy -818529.475020 kJ/mol
# GULP energy per Si atom -12401.961743 kJ/mol
# Density = 2.100220 g / cm^3
# Si number density = 21.050111 Si / 1000 Ang^3
#
#
#
# Elastic Constant Matrix: (Units=GPa)
#
#
# Indices 1 2 3 4 5 6 
#
# 1 152.2811 68.0209 18.6070 0.0000 0.0000 0.0000
# 2 68.0209 152.2811 18.6070 0.0000 0.0000 0.0000
# 3 18.6070 18.6070 54.9064 0.0000 0.0000 0.0000
# 4 0.0000 0.0000 0.0000 14.7232 0.0000 0.0000
# 5 0.0000 0.0000 0.0000 0.0000 14.7232 0.0000
# 6 0.0000 0.0000 0.0000 0.0000 0.0000 42.1301
#
#
#
# Elastic Compliance Matrix: (Units=1/GPa)
#
#
# Indices 1 2 3 4 5 6 
#
# 1 0.008341 -0.003527 -0.001632 0.000000 0.000000 0.000000
# 2 -0.003527 0.008341 -0.001632 0.000000 0.000000 0.000000
# 3 -0.001632 -0.001632 0.019319 0.000000 0.000000 0.000000
# 4 0.000000 0.000000 0.000000 0.067920 0.000000 0.000000
# 5 0.000000 0.000000 0.000000 0.000000 0.067920 0.000000
# 6 0.000000 0.000000 0.000000 0.000000 0.000000 0.023736
#
#
# Mechanical properties :
#
#
# Convention : Reuss Voigt Hill
#
# Bulk Modulus (GPa) = 44.59970 63.32649 53.96310
# Shear Modulus (GPa) = 23.08066 31.26421 27.17243
#
# Velocity S-wave (km/s) = 3.31488 3.85805 3.59673
# Velocity P-wave (km/s) = 5.99038 7.07072 6.55285
#
# Compressibility (1/GPa) = 0.02242167
#
# Stress axis : x y z
#
# Youngs Moduli (GPa) = 119.88360 119.88360 51.76328
#
# Poissons Ratio (x) = 0.42278 0.08446
# Poissons Ratio (y) = 0.42278 0.08446
# Poissons Ratio (z) = 0.19561 0.19561
#
# Static dielectric constant tensor:
#      x y z
#    x 3.943160 0.000000 0.000000 
#    y 0.000000 3.943160 0.000000 
#    z 0.000000 0.000000 3.462370 
# 
# 
# High freq. dielectric constant tensor:
#      x y z
#    x 1.828830 0.000000 0.000000 
#    y 0.000000 1.828830 0.000000 
#    z 0.000000 0.000000 1.804040 
# 
# From -- ./inp_files/1054.got.cif
#   From: 2010.03.12/outbox.cif.g09.slc.cpg/sg189_1_cif.got.tgz:1054.got - 2010.04.01 12:03:36.
