data_PCOD8327381
_publ_section_title
;
Structure prediction by ZEFSAII (Michael W. Deem and Ramdas Pophale) SiO2 
 PCOD8327381
Probable space group: P -6 C 2
;
_chemical_formula_sum "Si O2"
_cell_formula_units_Z 76
_cell_length_a 17.224594
_cell_length_b 17.224594
_cell_length_c 16.779988
_cell_angle_alpha 90.000000
_cell_angle_beta 90.000000
_cell_angle_gamma 120.000000
_cell_volume 4311.419340
_symmetry_space_group_name_H-M "P -6 C 2"
_symmetry_group_IT_number 188
_symmetry_cell_setting 'hexagonal'
loop_
_space_group_symop_operation_xyz
x,y,z
-x+y,-x,1/2-z
-y,x-y,z
x,y,1/2-z
-x+y,-x,z
-y,x-y,1/2-z
-y,-x,-z
-x+y,y,-z
x,x-y,-z
-x+y,y,1/2+z
x,x-y,1/2+z
-y,-x,1/2+z
loop_
_atom_site_type_symbol
_atom_site_label
_atom_site_fract_x
_atom_site_fract_y
_atom_site_fract_z
Si Si1 0.032463 0.472358 0.659467
Si Si2 0.146311 0.146284 0.446649
Si Si3 0.758319 0.219949 0.094990
Si Si4 0.309937 0.267396 0.156955
Si Si5 0.860525 0.419489 0.407963
Si Si6 0.396946 0.616626 0.590464
Si Si7 0.000000 0.000000 0.656753
O O1 0.007467 0.475974 0.750000
O O2 0.134814 0.548823 0.646482
O O3 0.013080 0.373274 0.638314
O O4 0.966894 0.493719 0.607796
O O5 0.178258 0.089129 0.500000
O O6 0.228006 0.230886 0.404682
O O7 0.089173 0.178346 0.500000
O O8 0.087904 0.086463 0.373880
O O9 0.780777 0.148064 0.134153
O O10 0.658847 0.189936 0.128233
O O11 0.822191 0.320202 0.128081
O O12 0.774513 0.225488 0.000000
O O13 0.281332 0.247807 0.250000
O O14 0.840223 0.420112 0.500000
O O15 0.434465 0.723341 0.606170
O O16 0.407337 0.592664 0.500000
O O17 0.000000 0.000000 0.750000
#
# Coordination Sequence:
#
# PCOD8327381 Si02
#       7
#    12  12  12  12  12  12   4
#     4  10  20  32  49  74 103 137 169 204 253 305
#     4   9  18  33  51  75  97 122 169 212 249 307
#     4   9  17  30  50  75 102 141 180 217 253 295
#     4  10  20  33  49  72 106 139 168 207 260 313
#     4   9  17  30  50  74 103 138 180 218 248 292
#     4   8  17  35  56  76  93 119 162 207 252 305
#     4   9  16  29  55  75  94 128 157 198 253 305
#
# _framework density 17.627606
#
# number of rings (size 3 to 8) (size 9 to 14) (size 15 to 20)
#    0.316    2.526    0.000    2.368    0.000    2.526 
#    2.842    0.000    3.474    1.895    0.000    0.000 
#    0.000    0.000    0.000    0.000    0.000    0.000 
#
# Total GULP energy -941613.389264 kJ/mol
# GULP energy per Si atom -12389.649859 kJ/mol
# Density = 1.758748 g / cm^3
# Si number density = 17.627606 Si / 1000 Ang^3
#
#
#
# Elastic Constant Matrix: (Units=GPa)
#
#
# Indices 1 2 3 4 5 6 
#
# 1 83.7581 44.7425 27.3707 0.0000 0.0000 0.0000
# 2 44.7425 83.7581 27.3707 0.0000 0.0000 0.0000
# 3 27.3707 27.3707 64.9540 0.0000 0.0000 0.0000
# 4 0.0000 0.0000 0.0000 21.1532 0.0000 0.0000
# 5 0.0000 0.0000 0.0000 0.0000 21.1532 0.0000
# 6 0.0000 0.0000 0.0000 0.0000 0.0000 19.5078
#
#
#
# Elastic Compliance Matrix: (Units=1/GPa)
#
#
# Indices 1 2 3 4 5 6 
#
# 1 0.017558 -0.008073 -0.003997 0.000000 0.000000 0.000000
# 2 -0.008073 0.017558 -0.003997 0.000000 0.000000 0.000000
# 3 -0.003997 -0.003997 0.018764 0.000000 0.000000 0.000000
# 4 0.000000 0.000000 0.000000 0.047274 0.000000 0.000000
# 5 0.000000 0.000000 0.000000 0.000000 0.047274 0.000000
# 6 0.000000 0.000000 0.000000 0.000000 0.000000 0.051262
#
#
# Mechanical properties :
#
#
# Convention : Reuss Voigt Hill
#
# Bulk Modulus (GPa) = 45.98479 47.93758 46.96118
# Shear Modulus (GPa) = 20.91429 21.22858 21.07143
#
# Velocity S-wave (km/s) = 3.44823 3.47404 3.46116
# Velocity P-wave (km/s) = 6.48052 6.58374 6.53233
#
# Compressibility (1/GPa) = 0.02174632
#
# Stress axis : x y z
#
# Youngs Moduli (GPa) = 56.95495 56.95495 53.29408
#
# Poissons Ratio (x) = 0.45980 0.21300
# Poissons Ratio (y) = 0.45980 0.21300
# Poissons Ratio (z) = 0.22763 0.22763
#
# Static dielectric constant tensor:
#      x y z
#    x 3.192990 0.000000 0.000000 
#    y 0.000000 3.192990 0.000000 
#    z 0.000000 0.000000 3.127370 
# 
# 
# High freq. dielectric constant tensor:
#      x y z
#    x 1.670870 0.000000 0.000000 
#    y 0.000000 1.670870 0.000000 
#    z 0.000000 0.000000 1.677120 
# 
# From -- ./inp_files/2543.got.cif
#   From: 2010.03.12/outbox.cif.g09.slc.cpg/sg188_2_cif.got.tgz:2543.got - 2010.04.01 12:01:06.
