data_PCOD8327029
_publ_section_title
;
Structure prediction by ZEFSAII (Michael W. Deem and Ramdas Pophale) SiO2 
 PCOD8327029
Probable space group: P -6 M 2
;
_chemical_formula_sum "Si O2"
_cell_formula_units_Z 72
_cell_length_a 12.946805
_cell_length_b 12.946805
_cell_length_c 30.070959
_cell_angle_alpha 90.000000
_cell_angle_beta 90.000000
_cell_angle_gamma 120.000000
_cell_volume 4365.189722
_symmetry_space_group_name_H-M "P -6 M 2"
_symmetry_group_IT_number 187
_symmetry_cell_setting 'hexagonal'
loop_
_space_group_symop_operation_xyz
x,y,z
-x+y,-x,-z
-y,x-y,z
x,y,-z
-x+y,-x,z
-y,x-y,-z
-y,-x,-z
-x+y,y,-z
x,x-y,-z
-x+y,y,z
x,x-y,z
-y,-x,z
loop_
_atom_site_type_symbol
_atom_site_label
_atom_site_fract_x
_atom_site_fract_y
_atom_site_fract_z
Si Si1 0.424946 0.091439 0.250150
Si Si2 0.237757 0.237686 0.425794
Si Si3 0.095817 0.429038 0.074430
Si Si4 0.908192 0.332174 0.500000
Si Si5 0.001340 0.758870 0.000000
Si Si6 0.237308 0.237281 0.324026
Si Si7 0.570407 0.903642 0.824080
O O1 0.554052 0.108104 0.257309
O O2 0.438882 0.219441 0.243176
O O3 0.348656 0.024867 0.293616
O O4 0.359932 0.015001 0.206593
O O5 0.201737 0.100868 0.433762
O O6 0.349116 0.324402 0.456234
O O7 0.275199 0.276082 0.374886
O O8 0.125095 0.250190 0.439529
O O9 0.233589 0.467178 0.067063
O O10 0.081161 0.540581 0.060823
O O11 0.057238 0.389713 0.125212
O O12 0.010408 0.317877 0.043720
O O13 0.770611 0.229390 0.500000
O O14 0.915835 0.457918 0.500000
O O15 0.103077 0.896924 0.000000
O O16 0.874570 0.749139 0.000000
O O17 0.125480 0.250959 0.310210
O O18 0.200165 0.100083 0.316623
O O19 0.432231 0.864462 0.817676
O O20 0.585920 0.792960 0.810029
#
# Coordination Sequence:
#
# PCOD8327029 Si02
#       7
#    12  12  12   6   6  12  12
#     4  10  20  32  46  65  92 127 163 194 222 260
#     4   9  17  30  50  74  95 115 143 185 236 282
#     4   9  17  30  50  74  95 115 144 188 239 282
#     4  10  20  32  46  66  94 128 162 192 222 260
#     4  10  20  32  46  64  90 124 156 184 216 262
#     4   9  17  30  49  72  95 117 144 184 235 284
#     4   9  17  30  49  72  95 118 147 187 235 281
#
# _framework density 16.494129999999998
#
# number of rings (size 3 to 8) (size 9 to 14) (size 15 to 20)
#    0.000    2.667    0.000    2.000    0.000    4.000 
#    0.000    1.667    0.000    5.333    0.000    0.000 
#    0.000    0.000    0.000    0.000    0.000    0.000 
#
# Total GULP energy -892919.371308 kJ/mol
# GULP energy per Si atom -12401.657935 kJ/mol
# Density = 1.645659 g / cm^3
# Si number density = 16.494130 Si / 1000 Ang^3
#
#
#
# Elastic Constant Matrix: (Units=GPa)
#
#
# Indices 1 2 3 4 5 6 
#
# 1 120.9777 73.9792 72.5897 0.0000 0.0001 0.0000
# 2 73.9792 120.9777 72.5897 0.0000 -0.0001 0.0000
# 3 72.5897 72.5897 112.9483 0.0000 0.0000 0.0000
# 4 0.0000 0.0000 0.0000 24.6252 0.0000 -0.0001
# 5 0.0001 -0.0001 0.0000 0.0000 24.6252 0.0000
# 6 0.0000 0.0000 0.0000 -0.0001 0.0000 23.4993
#
#
#
# Elastic Compliance Matrix: (Units=1/GPa)
#
#
# Indices 1 2 3 4 5 6 
#
# 1 0.015557 -0.005720 -0.006322 0.000000 0.000000 0.000000
# 2 -0.005720 0.015557 -0.006322 0.000000 0.000000 0.000000
# 3 -0.006322 -0.006322 0.016980 0.000000 0.000000 0.000000
# 4 0.000000 0.000000 0.000000 0.040609 0.000000 0.000000
# 5 0.000000 0.000000 0.000000 0.000000 0.040609 0.000000
# 6 0.000000 0.000000 0.000000 0.000000 0.000000 0.042555
#
#
# Mechanical properties :
#
#
# Convention : Reuss Voigt Hill
#
# Bulk Modulus (GPa) = 87.98458 88.13566 88.06012
# Shear Modulus (GPa) = 23.54220 23.59960 23.57090
#
# Velocity S-wave (km/s) = 3.78207 3.78668 3.78438
# Velocity P-wave (km/s) = 8.51650 8.52462 8.52056
#
# Compressibility (1/GPa) = 0.01136563
#
# Stress axis : x y z
#
# Youngs Moduli (GPa) = 64.27837 64.27837 58.89264
#
# Poissons Ratio (x) = 0.36767 0.37234
# Poissons Ratio (y) = 0.36767 0.37234
# Poissons Ratio (z) = 0.40639 0.40639
#
# Static dielectric constant tensor:
#      x y z
#    x 2.966890 0.000000 0.000000 
#    y 0.000000 2.966890 0.000000 
#    z 0.000000 0.000000 3.353800 
# 
# 
# High freq. dielectric constant tensor:
#      x y z
#    x 1.625690 0.000000 0.000000 
#    y 0.000000 1.625690 0.000000 
#    z 0.000000 0.000000 1.647750 
# 
# From -- ./inp_files/4598.got.cif
#   From: 2010.03.12/outbox.cif.g09.slc.cpg/sg187_3_cif.got.tgz:4598.got - 2010.04.01 11:58:23.
