data_PCOD8327670
_publ_section_title
;
Structure prediction by ZEFSAII (Michael W. Deem and Ramdas Pophale) SiO2 
 PCOD8327670
Probable space group: P -6 2 M
;
_chemical_formula_sum "Si O2"
_cell_formula_units_Z 68
_cell_length_a 14.950098
_cell_length_b 14.950098
_cell_length_c 17.773691
_cell_angle_alpha 90.000000
_cell_angle_beta 90.000000
_cell_angle_gamma 120.000000
_cell_volume 3440.300166
_symmetry_space_group_name_H-M "P -6 2 M"
_symmetry_group_IT_number 189
_symmetry_cell_setting 'hexagonal'
loop_
_space_group_symop_operation_xyz
x,y,z
-x+y,-x,-z
-y,x-y,z
x,y,-z
-x+y,-x,z
-y,x-y,-z
x-y,-y,-z
-x,-x+y,-z
y,x,-z
y,x,z
x-y,-y,z
-x,-x+y,z
loop_
_atom_site_type_symbol
_atom_site_label
_atom_site_fract_x
_atom_site_fract_y
_atom_site_fract_z
Si Si1 0.116325 0.883784 0.585343
Si Si2 0.572482 0.748005 0.854571
Si Si3 0.000000 0.000000 0.089332
Si Si4 0.588865 0.113881 0.322524
Si Si5 0.250370 0.817322 0.324851
Si Si6 0.114755 0.592597 0.855012
Si Si7 0.791975 0.791975 0.911074
O O1 0.130206 0.855875 0.500000
O O2 0.197461 0.876626 0.639406
O O3 0.000000 0.807721 0.613813
O O4 0.137384 0.000000 0.589438
O O5 0.579539 0.753022 0.764623
O O6 0.493824 0.633667 0.886426
O O7 0.522521 0.814574 0.886539
O O8 0.688693 0.791311 0.883712
O O9 0.104160 0.000000 0.118277
O O10 0.000000 0.000000 0.000000
O O11 0.700149 0.193411 0.355184
O O12 0.499768 0.133030 0.355247
O O13 0.592559 0.128266 0.233709
O O14 0.563816 0.000000 0.345693
O O15 0.000000 0.561120 0.879569
O O16 0.792301 0.792301 0.000000
#
# Coordination Sequence:
#
# PCOD8327670 Si02
#       7
#    12  12   2  12  12  12   6
#     4  10  21  37  55  76 109 151 191 239 300 355
#     4  10  20  35  61  87 118 151 191 245 293 348
#     4   9  24  48  63  75 117 168 199 230 298 363
#     4   9  17  29  48  77 111 138 170 223 273 324
#     4  10  19  33  56  82 111 145 189 227 280 337
#     4   9  17  31  52  85 114 142 179 228 292 341
#     4  11  24  44  63  85 116 160 201 242 299 367
#
# _framework density 19.765718
#
# number of rings (size 3 to 8) (size 9 to 14) (size 15 to 20)
#    0.000    2.294    0.882    1.941    3.706    4.235 
#    0.000    1.765    0.000    3.176    0.000    0.000 
#    0.000    0.000    0.000    0.000    0.000    0.000 
#
# Total GULP energy -842914.043850 kJ/mol
# GULP energy per Si atom -12395.794762 kJ/mol
# Density = 1.972073 g / cm^3
# Si number density = 19.765718 Si / 1000 Ang^3
#
#
#
# Elastic Constant Matrix: (Units=GPa)
#
#
# Indices 1 2 3 4 5 6 
#
# 1 132.4988 52.9680 18.7105 0.0000 0.0000 0.0000
# 2 52.9680 132.4988 18.7105 0.0000 0.0000 0.0000
# 3 18.7105 18.7105 30.6188 0.0000 0.0000 0.0000
# 4 0.0000 0.0000 0.0000 19.1808 0.0000 0.0000
# 5 0.0000 0.0000 0.0000 0.0000 19.1808 0.0000
# 6 0.0000 0.0000 0.0000 0.0000 0.0000 39.7654
#
#
#
# Elastic Compliance Matrix: (Units=1/GPa)
#
#
# Indices 1 2 3 4 5 6 
#
# 1 0.009362 -0.003212 -0.003758 0.000000 0.000000 0.000000
# 2 -0.003212 0.009362 -0.003758 0.000000 0.000000 0.000000
# 3 -0.003758 -0.003758 0.037253 0.000000 0.000000 0.000000
# 4 0.000000 0.000000 0.000000 0.052135 0.000000 0.000000
# 5 0.000000 0.000000 0.000000 0.000000 0.052135 0.000000
# 6 0.000000 0.000000 0.000000 0.000000 0.000000 0.025147
#
#
# Mechanical properties :
#
#
# Convention : Reuss Voigt Hill
#
# Bulk Modulus (GPa) = 28.96856 52.93269 40.95063
# Shear Modulus (GPa) = 22.89818 29.30724 26.10271
#
# Velocity S-wave (km/s) = 3.40734 3.85480 3.63796
# Velocity P-wave (km/s) = 5.49251 6.83014 6.19752
#
# Compressibility (1/GPa) = 0.03452018
#
# Stress axis : x y z
#
# Youngs Moduli (GPa) = 106.81585 106.81585 26.84368
#
# Poissons Ratio (x) = 0.34307 0.10088
# Poissons Ratio (y) = 0.34307 0.10088
# Poissons Ratio (z) = 0.40143 0.40143
#
# Static dielectric constant tensor:
#      x y z
#    x 3.827320 0.000000 0.000000 
#    y 0.000000 3.827320 0.000000 
#    z 0.000000 0.000000 3.116970 
# 
# 
# High freq. dielectric constant tensor:
#      x y z
#    x 1.786560 0.000000 0.000000 
#    y 0.000000 1.786560 0.000000 
#    z 0.000000 0.000000 1.716190 
# 
# From -- ./inp_files/3157.got.cif
#   From: 2010.03.12/outbox.cif.g09.slc.cpg/sg189_2_cif.got.tgz:3157.got - 2010.04.01 12:03:36.
