data_PCOD8327780
_publ_section_title
;
Structure prediction by ZEFSAII (Michael W. Deem and Ramdas Pophale) SiO2 
 PCOD8327780
Probable space group: P -6 2 M
;
_chemical_formula_sum "Si O2"
_cell_formula_units_Z 52
_cell_length_a 14.893334
_cell_length_b 14.893334
_cell_length_c 13.956478
_cell_angle_alpha 90.000000
_cell_angle_beta 90.000000
_cell_angle_gamma 120.000000
_cell_volume 2680.959944
_symmetry_space_group_name_H-M "P -6 2 M"
_symmetry_group_IT_number 189
_symmetry_cell_setting 'hexagonal'
loop_
_space_group_symop_operation_xyz
x,y,z
-x+y,-x,-z
-y,x-y,z
x,y,-z
-x+y,-x,z
-y,x-y,-z
x-y,-y,-z
-x,-x+y,-z
y,x,-z
y,x,z
x-y,-y,z
-x,-x+y,z
loop_
_atom_site_type_symbol
_atom_site_label
_atom_site_fract_x
_atom_site_fract_y
_atom_site_fract_z
Si Si1 0.884883 0.642021 0.778181
Si Si2 0.423815 0.119398 0.893564
Si Si3 0.880716 0.121647 0.393062
Si Si4 0.436848 0.881709 0.277830
Si Si5 0.666668 0.333334 0.613756
O O1 0.817265 0.634464 0.869876
O O2 0.839888 0.664538 0.681021
O O3 0.884692 0.537324 0.761832
O O4 0.000000 0.735424 0.799662
O O5 0.511455 0.147973 0.814470
O O6 0.338101 0.000000 0.889864
O O7 0.473675 0.150093 0.000000
O O8 0.863757 0.152365 0.500000
O O9 0.000000 0.177054 0.365108
O O10 0.836761 0.000000 0.386345
O O11 0.378143 0.786903 0.353024
O O12 0.472514 0.000000 0.317775
O O13 0.666667 0.333334 0.500000
#
# Coordination Sequence:
#
# PCOD8327780 Si02
#       5
#    12  12  12  12   4
#     4  10  20  35  58  85 114 148 188 239 294 347
#     4  10  21  38  60  84 115 154 193 239 294 349
#     4   9  17  30  51  80 115 155 196 236 280 335
#     4  10  22  42  61  85 120 154 198 245 289 351
#     4  12  24  42  67  92 121 162 201 237 304 362
#
# _framework density 19.396037
#
# number of rings (size 3 to 8) (size 9 to 14) (size 15 to 20)
#    0.000    2.077    2.308    0.923    0.000    3.692 
#    0.000    4.615    0.000    0.462    0.000    0.000 
#    0.000    0.000    0.000    0.000    0.000    0.000 
#
# Total GULP energy -644482.791989 kJ/mol
# GULP energy per Si atom -12393.899846 kJ/mol
# Density = 1.935189 g / cm^3
# Si number density = 19.396037 Si / 1000 Ang^3
#
#
#
# Elastic Constant Matrix: (Units=GPa)
#
#
# Indices 1 2 3 4 5 6 
#
# 1 80.0524 24.4131 58.0200 0.0001 0.0000 0.0001
# 2 24.4131 80.0522 58.0202 0.0001 -0.0001 0.0000
# 3 58.0200 58.0202 132.8065 0.0002 -0.0001 0.0001
# 4 0.0001 0.0001 0.0002 20.1328 0.0000 0.0000
# 5 0.0000 -0.0001 -0.0001 0.0000 20.1330 0.0000
# 6 0.0001 0.0000 0.0001 0.0000 0.0000 27.8196
#
#
#
# Elastic Compliance Matrix: (Units=1/GPa)
#
#
# Indices 1 2 3 4 5 6 
#
# 1 0.018285 0.000312 -0.008125 0.000000 0.000000 0.000000
# 2 0.000312 0.018285 -0.008125 0.000000 0.000000 0.000000
# 3 -0.008125 -0.008125 0.014629 0.000000 0.000000 0.000000
# 4 0.000000 0.000000 0.000000 0.049670 0.000000 0.000000
# 5 0.000000 0.000000 0.000000 0.000000 0.049670 0.000000
# 6 0.000000 0.000000 0.000000 0.000000 0.000000 0.035946
#
#
# Mechanical properties :
#
#
# Convention : Reuss Voigt Hill
#
# Bulk Modulus (GPa) = 51.74725 63.75752 57.75239
# Shear Modulus (GPa) = 22.24182 23.78094 23.01138
#
# Velocity S-wave (km/s) = 3.39000 3.50533 3.44815
# Velocity P-wave (km/s) = 6.48537 7.02324 6.75966
#
# Compressibility (1/GPa) = 0.01932470
#
# Stress axis : x y z
#
# Youngs Moduli (GPa) = 54.68885 54.68852 68.35772
#
# Poissons Ratio (x) = -0.01708 0.55540
# Poissons Ratio (y) = -0.01708 0.55540
# Poissons Ratio (z) = 0.44434 0.44434
#
# Static dielectric constant tensor:
#      x y z
#    x 3.758920 0.000000 0.000000 
#    y 0.000000 3.758920 0.000000 
#    z 0.000000 0.000000 3.647400 
# 
# 
# High freq. dielectric constant tensor:
#      x y z
#    x 1.760600 0.000000 0.000000 
#    y 0.000000 1.760600 0.000000 
#    z 0.000000 0.000000 1.742280 
# 
# From -- ./inp_files/2453.got.cif
#   From: 2010.03.12/outbox.cif.g09.slc.cpg/sg189_2_cif.got.tgz:2453.got - 2010.04.01 12:03:36.
