data_PCOD8327102
_publ_section_title
;
Structure prediction by ZEFSAII (Michael W. Deem and Ramdas Pophale) SiO2 
 PCOD8327102
Probable space group: P -6 M 2
;
_chemical_formula_sum "Si O2"
_cell_formula_units_Z 60
_cell_length_a 12.473264
_cell_length_b 12.473264
_cell_length_c 25.962312
_cell_angle_alpha 90.000000
_cell_angle_beta 90.000000
_cell_angle_gamma 120.000000
_cell_volume 3498.116148
_symmetry_space_group_name_H-M "P -6 M 2"
_symmetry_group_IT_number 187
_symmetry_cell_setting 'hexagonal'
loop_
_space_group_symop_operation_xyz
x,y,z
-x+y,-x,-z
-y,x-y,z
x,y,-z
-x+y,-x,z
-y,x-y,-z
-y,-x,-z
-x+y,y,-z
x,x-y,-z
-x+y,y,z
x,x-y,z
-y,-x,z
loop_
_atom_site_type_symbol
_atom_site_label
_atom_site_fract_x
_atom_site_fract_y
_atom_site_fract_z
Si Si1 0.916973 0.583780 0.304234
Si Si2 0.082414 0.665498 0.206602
Si Si3 0.249888 0.997411 0.888406
Si Si4 0.755328 0.997678 0.000000
Si Si5 0.414880 0.082806 0.500000
Si Si6 0.251183 0.001552 0.597748
O O1 0.777341 0.554681 0.299769
O O2 0.913672 0.456836 0.316172
O O3 0.987039 0.645773 0.251626
O O4 0.989867 0.677924 0.349889
O O5 0.117269 0.558635 0.205368
O O6 0.206252 0.793749 0.216201
O O7 0.016490 0.662841 0.152961
O O8 0.259533 0.129767 0.882426
O O9 0.107576 0.892425 0.879205
O O10 0.296762 0.980583 0.945591
O O11 0.809207 0.904604 0.000000
O O12 0.865720 0.134281 0.000000
O O13 0.538713 0.077425 0.500000
O O14 0.450759 0.225380 0.500000
O O15 0.337354 0.012814 0.550181
O O16 0.129651 0.870350 0.595097
O O17 0.212678 0.106339 0.594926
#
# Coordination Sequence:
#
# PCOD8327102 Si02
#       6
#    12  12  12   6   6  12
#     4  10  20  34  53  75  98 124 156 198 245 291
#     4  10  20  33  48  66  92 127 164 198 232 276
#     4   9  16  27  45  69  94 118 147 187 237 287
#     4   8  13  22  39  64  92 118 144 180 230 286
#     4  10  20  34  54  78 104 134 168 208 250 290
#     4  10  20  34  53  76 102 131 162 197 238 285
#
# _framework density 17.152089
#
# number of rings (size 3 to 8) (size 9 to 14) (size 15 to 20)
#    0.000    2.400    0.000    3.100    0.000    1.600 
#    0.000    3.500    0.000   13.600    0.000    1.400 
#    0.000    0.000    0.000    0.000    0.000    0.000 
#
# Total GULP energy -743777.413199 kJ/mol
# GULP energy per Si atom -12396.290220 kJ/mol
# Density = 1.711305 g / cm^3
# Si number density = 17.152089 Si / 1000 Ang^3
#
#
#
# Elastic Constant Matrix: (Units=GPa)
#
#
# Indices 1 2 3 4 5 6 
#
# 1 92.4605 54.7297 56.5612 0.0000 -0.0003 0.0000
# 2 54.7297 92.4605 56.5612 0.0000 0.0003 0.0000
# 3 56.5612 56.5612 138.4843 0.0000 0.0000 0.0000
# 4 0.0000 0.0000 0.0000 21.6940 0.0000 0.0003
# 5 -0.0003 0.0003 0.0000 0.0000 21.6940 0.0000
# 6 0.0000 0.0000 0.0000 0.0003 0.0000 18.8654
#
#
#
# Elastic Compliance Matrix: (Units=1/GPa)
#
#
# Indices 1 2 3 4 5 6 
#
# 1 0.018203 -0.008301 -0.004044 0.000000 0.000000 0.000000
# 2 -0.008301 0.018203 -0.004044 0.000000 0.000000 0.000000
# 3 -0.004044 -0.004044 0.010525 0.000000 0.000000 0.000000
# 4 0.000000 0.000000 0.000000 0.046096 0.000000 -0.000001
# 5 0.000000 0.000000 0.000000 0.000000 0.046096 0.000000
# 6 0.000000 0.000000 0.000000 -0.000001 0.000000 0.053007
#
#
# Mechanical properties :
#
#
# Convention : Reuss Voigt Hill
#
# Bulk Modulus (GPa) = 70.66300 73.23441 71.94871
# Shear Modulus (GPa) = 21.77462 22.82087 22.29775
#
# Velocity S-wave (km/s) = 3.56687 3.65156 3.60947
# Velocity P-wave (km/s) = 7.63222 7.78256 7.70776
#
# Compressibility (1/GPa) = 0.01415168
#
# Stress axis : x y z
#
# Youngs Moduli (GPa) = 54.93638 54.93638 95.01439
#
# Poissons Ratio (x) = 0.45601 0.38427
# Poissons Ratio (y) = 0.45601 0.38427
# Poissons Ratio (z) = 0.22218 0.22218
#
# Static dielectric constant tensor:
#      x y z
#    x 3.049610 0.000000 0.000000 
#    y 0.000000 3.049610 0.000000 
#    z 0.000000 0.000000 3.656720 
# 
# 
# High freq. dielectric constant tensor:
#      x y z
#    x 1.650680 0.000000 0.000000 
#    y 0.000000 1.650680 0.000000 
#    z 0.000000 0.000000 1.687680 
# 
# From -- ./inp_files/4162.got.cif
#   From: 2010.03.12/outbox.cif.g09.slc.cpg/sg187_3_cif.got.tgz:4162.got - 2010.04.01 11:58:23.
