data_PCOD8327606
_publ_section_title
;
Structure prediction by ZEFSAII (Michael W. Deem and Ramdas Pophale) SiO2 
 PCOD8327606
Probable space group: P -6 2 M
;
_chemical_formula_sum "Si O2"
_cell_formula_units_Z 96
_cell_length_a 14.708104
_cell_length_b 14.708104
_cell_length_c 28.284368
_cell_angle_alpha 90.000000
_cell_angle_beta 90.000000
_cell_angle_gamma 120.000000
_cell_volume 5298.958216
_symmetry_space_group_name_H-M "P -6 2 M"
_symmetry_group_IT_number 189
_symmetry_cell_setting 'hexagonal'
loop_
_space_group_symop_operation_xyz
x,y,z
-x+y,-x,-z
-y,x-y,z
x,y,-z
-x+y,-x,z
-y,x-y,-z
x-y,-y,-z
-x,-x+y,-z
y,x,-z
y,x,z
x-y,-y,z
-x,-x+y,z
loop_
_atom_site_type_symbol
_atom_site_label
_atom_site_fract_x
_atom_site_fract_y
_atom_site_fract_z
Si Si1 0.878274 0.432257 0.760547
Si Si2 0.759871 0.878198 0.549964
Si Si3 0.123000 0.248750 0.347084
Si Si4 0.116763 0.341447 0.901603
Si Si5 0.124288 0.672159 0.947769
Si Si6 0.200077 0.780620 0.266888
Si Si7 0.120590 0.543295 0.134643
Si Si8 0.242058 0.120197 0.807964
O O1 0.862853 0.517440 0.731904
O O2 0.820149 0.323269 0.732479
O O3 0.830508 0.419947 0.813802
O O4 0.000000 0.466469 0.763611
O O5 0.695195 0.828550 0.500000
O O6 0.856549 0.856549 0.552167
O O7 0.699098 0.838829 0.600056
O O8 0.804019 0.000000 0.546940
O O9 0.174827 0.174827 0.342870
O O10 0.178957 0.346853 0.312620
O O11 0.000000 0.178810 0.334156
O O12 0.203354 0.372830 0.942013
O O13 0.135053 0.444905 0.874897
O O14 0.129127 0.267159 0.863557
O O15 0.000000 0.280284 0.924524
O O16 0.172848 0.629700 0.907500
O O17 0.000000 0.614814 0.943874
O O18 0.156942 0.652847 0.000000
O O19 0.170151 0.819512 0.219713
O O20 0.000000 0.512099 0.135944
O O21 0.171006 0.171006 0.796290
O O22 0.179926 0.000000 0.791066
#
# Coordination Sequence:
#
# PCOD8327606 Si02
#       8
#    12  12  12  12  12  12  12  12
#     4  11  22  38  55  74 101 134 175 222 264 316
#     4   8  13  22  39  66 103 146 186 219 255 309
#     4  10  19  31  49  78 115 151 183 218 266 327
#     4  10  20  36  57  79 105 136 172 207 247 309
#     4  10  21  37  56  79 106 133 165 208 260 313
#     4  12  23  36  54  76 102 139 183 228 280 322
#     4   9  19  36  55  73  96 128 163 207 253 298
#     4  11  21  35  55  83 116 148 178 211 255 318
#
# _framework density 18.116768
#
# number of rings (size 3 to 8) (size 9 to 14) (size 15 to 20)
#    0.000    1.875    1.250    4.000    0.000    3.250 
#    0.750    2.500    0.000    0.250    0.000    0.875 
#    0.000    5.000    0.000    0.000    0.000    0.000 
#
# Total GULP energy -1189752.801551 kJ/mol
# GULP energy per Si atom -12393.258349 kJ/mol
# Density = 1.807553 g / cm^3
# Si number density = 18.116768 Si / 1000 Ang^3
#
#
#
# Elastic Constant Matrix: (Units=GPa)
#
#
# Indices 1 2 3 4 5 6 
#
# 1 71.3076 15.3804 29.6434 0.0000 0.0000 0.0000
# 2 15.3804 71.3076 29.6434 0.0000 0.0000 0.0000
# 3 29.6434 29.6434 118.5816 0.0000 0.0000 0.0000
# 4 0.0000 0.0000 0.0000 16.8854 0.0000 0.0000
# 5 0.0000 0.0000 0.0000 0.0000 16.8854 0.0000
# 6 0.0000 0.0000 0.0000 0.0000 0.0000 27.9636
#
#
#
# Elastic Compliance Matrix: (Units=1/GPa)
#
#
# Indices 1 2 3 4 5 6 
#
# 1 0.015897 -0.001983 -0.003478 0.000000 0.000000 0.000000
# 2 -0.001983 0.015897 -0.003478 0.000000 0.000000 0.000000
# 3 -0.003478 -0.003478 0.010172 0.000000 0.000000 0.000000
# 4 0.000000 0.000000 0.000000 0.059223 0.000000 0.000000
# 5 0.000000 0.000000 0.000000 0.000000 0.059223 0.000000
# 6 0.000000 0.000000 0.000000 0.000000 0.000000 0.035761
#
#
# Mechanical properties :
#
#
# Convention : Reuss Voigt Hill
#
# Bulk Modulus (GPa) = 41.51519 45.61456 43.56488
# Shear Modulus (GPa) = 22.51419 24.78217 23.64818
#
# Velocity S-wave (km/s) = 3.52906 3.70254 3.61684
# Velocity P-wave (km/s) = 6.29053 6.59630 6.44523
#
# Compressibility (1/GPa) = 0.02408757
#
# Stress axis : x y z
#
# Youngs Moduli (GPa) = 62.90311 62.90311 98.30822
#
# Poissons Ratio (x) = 0.12473 0.34195
# Poissons Ratio (y) = 0.12473 0.34195
# Poissons Ratio (z) = 0.21880 0.21880
#
# Static dielectric constant tensor:
#      x y z
#    x 3.238940 0.000000 0.000000 
#    y 0.000000 3.238940 0.000000 
#    z 0.000000 0.000000 3.690450 
# 
# 
# High freq. dielectric constant tensor:
#      x y z
#    x 1.688340 0.000000 0.000000 
#    y 0.000000 1.688340 0.000000 
#    z 0.000000 0.000000 1.693930 
# 
# From -- ./inp_files/3737.got.cif
#   From: 2010.03.12/outbox.cif.g09.slc.cpg/sg189_2_cif.got.tgz:3737.got - 2010.04.01 12:03:36.
