data_PCOD8327243
_publ_section_title
;
Structure prediction by ZEFSAII (Michael W. Deem and Ramdas Pophale) SiO2 
 PCOD8327243
Probable space group: P -6 M 2
;
_chemical_formula_sum "Si O2"
_cell_formula_units_Z 38
_cell_length_a 17.181129
_cell_length_b 17.181129
_cell_length_c 7.833127
_cell_angle_alpha 90.000000
_cell_angle_beta 90.000000
_cell_angle_gamma 120.000000
_cell_volume 2002.484655
_symmetry_space_group_name_H-M "P -6 M 2"
_symmetry_group_IT_number 187
_symmetry_cell_setting 'hexagonal'
loop_
_space_group_symop_operation_xyz
x,y,z
-x+y,-x,-z
-y,x-y,z
x,y,-z
-x+y,-x,z
-y,x-y,-z
-y,-x,-z
-x+y,y,-z
x,x-y,-z
-x+y,y,z
x,x-y,z
-y,-x,z
loop_
_atom_site_type_symbol
_atom_site_label
_atom_site_fract_x
_atom_site_fract_y
_atom_site_fract_z
Si Si1 0.001973 0.824385 0.000000
Si Si2 0.949461 0.560591 0.303141
Si Si3 0.666667 0.333334 0.795545
Si Si4 0.468343 0.234172 0.199090
Si Si5 0.070397 0.755960 0.303474
O O1 0.017121 0.783762 0.172874
O O2 0.068492 0.931509 0.000000
O O3 0.899793 0.799586 0.000000
O O4 0.941965 0.539890 0.500000
O O5 0.946318 0.473159 0.210670
O O6 0.869827 0.580467 0.252511
O O7 0.042703 0.652623 0.261277
O O8 0.716434 0.432868 0.717954
O O9 0.666667 0.333334 0.000000
O O10 0.477219 0.238610 0.000000
O O11 0.043088 0.762782 0.500000
O O12 0.177937 0.822064 0.278078
#
# Coordination Sequence:
#
# PCOD8327243 Si02
#       5
#     6  12   2   6  12
#     4  10  21  36  55  78 104 136 174 216 261 310
#     4  10  21  35  52  76 104 139 179 216 259 312
#     4   9  18  33  43  65 109 153 175 215 253 294
#     4  11  21  33  49  73 109 145 181 215 255 302
#     4   9  20  38  56  76 105 138 173 218 267 313
#
# _framework density 18.976426
#
# number of rings (size 3 to 8) (size 9 to 14) (size 15 to 20)
#    0.000    2.211    1.579    0.632    4.421    0.632 
#    0.000    0.000    0.000    2.526    0.000    4.421 
#    0.000    0.000    0.000    0.000    0.000    0.000 
#
# Total GULP energy -470759.140699 kJ/mol
# GULP energy per Si atom -12388.398439 kJ/mol
# Density = 1.893323 g / cm^3
# Si number density = 18.976426 Si / 1000 Ang^3
#
#
#
# Elastic Constant Matrix: (Units=GPa)
#
#
# Indices 1 2 3 4 5 6 
#
# 1 124.4359 74.2659 30.2566 0.0000 -0.0002 -0.0001
# 2 74.2659 124.4357 30.2566 -0.0001 0.0002 0.0000
# 3 30.2566 30.2566 57.0165 0.0000 0.0000 0.0000
# 4 0.0000 -0.0001 0.0000 17.4379 0.0000 0.0002
# 5 -0.0002 0.0002 0.0000 0.0000 17.4380 0.0000
# 6 -0.0001 0.0000 0.0000 0.0002 0.0000 25.0849
#
#
#
# Elastic Compliance Matrix: (Units=1/GPa)
#
#
# Indices 1 2 3 4 5 6 
#
# 1 0.012968 -0.006965 -0.003185 0.000000 0.000000 0.000000
# 2 -0.006965 0.012968 -0.003185 0.000000 0.000000 0.000000
# 3 -0.003185 -0.003185 0.020920 0.000000 0.000000 0.000000
# 4 0.000000 0.000000 0.000000 0.057346 0.000000 0.000000
# 5 0.000000 0.000000 0.000000 0.000000 0.057346 0.000000
# 6 0.000000 0.000000 0.000000 0.000000 0.000000 0.039865
#
#
# Mechanical properties :
#
#
# Convention : Reuss Voigt Hill
#
# Bulk Modulus (GPa) = 49.54583 63.93846 56.74214
# Shear Modulus (GPa) = 21.29375 23.39944 22.34659
#
# Velocity S-wave (km/s) = 3.35343 3.51533 3.43534
# Velocity P-wave (km/s) = 6.41559 7.08827 6.76030
#
# Compressibility (1/GPa) = 0.02018333
#
# Stress axis : x y z
#
# Youngs Moduli (GPa) = 77.11577 77.11564 47.80206
#
# Poissons Ratio (x) = 0.53709 0.15227
# Poissons Ratio (y) = 0.53709 0.15227
# Poissons Ratio (z) = 0.24565 0.24565
#
# Static dielectric constant tensor:
#      x y z
#    x 3.655990 0.000000 0.000000 
#    y 0.000000 3.655990 0.000000 
#    z 0.000000 0.000000 3.488140 
# 
# 
# High freq. dielectric constant tensor:
#      x y z
#    x 1.725330 0.000000 0.000000 
#    y 0.000000 1.725330 0.000000 
#    z 0.000000 0.000000 1.741890 
# 
# From -- ./inp_files/335.got.cif
#   From: 2010.03.12/outbox.cif.g09.slc.cpg/sg187_1_cif.got.tgz:335.got - 2010.04.01 11:58:23.
