data_PCOD8327443
_publ_section_title
;
Structure prediction by ZEFSAII (Michael W. Deem and Ramdas Pophale) SiO2 
 PCOD8327443
Probable space group: P -6 C 2
;
_chemical_formula_sum "Si O2"
_cell_formula_units_Z 84
_cell_length_a 17.631766
_cell_length_b 17.631766
_cell_length_c 15.075831
_cell_angle_alpha 90.000000
_cell_angle_beta 90.000000
_cell_angle_gamma 120.000000
_cell_volume 4058.854835
_symmetry_space_group_name_H-M "P -6 C 2"
_symmetry_group_IT_number 188
_symmetry_cell_setting 'hexagonal'
loop_
_space_group_symop_operation_xyz
x,y,z
-x+y,-x,1/2-z
-y,x-y,z
x,y,1/2-z
-x+y,-x,z
-y,x-y,1/2-z
-y,-x,-z
-x+y,y,-z
x,x-y,-z
-x+y,y,1/2+z
x,x-y,1/2+z
-y,-x,1/2+z
loop_
_atom_site_type_symbol
_atom_site_label
_atom_site_fract_x
_atom_site_fract_y
_atom_site_fract_z
Si Si1 0.901823 0.108454 0.250000
Si Si2 0.449510 0.578507 0.898339
Si Si3 0.811586 0.093658 0.922009
Si Si4 0.108946 0.291926 0.411536
Si Si5 0.926393 0.441773 0.644135
Si Si6 0.222755 0.475923 0.351087
Si Si7 0.090687 0.199318 0.750000
Si Si8 0.681352 0.527255 0.013341
O O1 0.862146 0.132870 0.166194
O O2 0.005537 0.157918 0.250000
O O3 0.875579 0.008321 0.250000
O O4 0.497880 0.530470 0.853481
O O5 0.354439 0.550458 0.857862
O O6 0.500316 0.682642 0.887518
O O7 0.444866 0.555135 0.000000
O O8 0.749969 0.131236 0.946043
O O9 0.749366 0.993090 0.902421
O O10 0.883121 0.116880 0.000000
O O11 0.128570 0.257139 0.500000
O O12 0.151473 0.396149 0.409479
O O13 0.150279 0.261176 0.334729
O O14 0.897821 0.423178 0.750000
O O15 0.895356 0.354774 0.582737
O O16 0.876246 0.483614 0.589892
O O17 0.217290 0.447149 0.250000
O O18 0.738740 0.477480 0.000000
#
# Coordination Sequence:
#
# PCOD8327443 Si02
#       8
#     6  12  12  12  12  12   6  12
#     4  10  21  38  64  90 126 178 210 278 332 397
#     4  12  24  44  65  97 139 191 234 290 340 397
#     4  10  22  40  61  95 128 169 220 264 333 397
#     4  11  22  37  62  89 128 171 213 272 327 380
#     4  11  24  45  73 102 138 178 226 278 350 407
#     4  12  25  41  62  96 132 180 236 281 329 397
#     4  10  21  40  58  94 124 160 226 264 332 395
#     4  10  23  45  69  97 134 168 217 276 335 419
#
# _framework density 20.695494
#
# number of rings (size 3 to 8) (size 9 to 14) (size 15 to 20)
#    0.000    1.143    2.143    4.714    3.000    0.571 
#    7.286    0.000    0.000    4.571    0.000    0.000 
#    0.000    0.000    0.000    0.000    0.000    0.000 
#
# Total GULP energy -1040744.461741 kJ/mol
# GULP energy per Si atom -12389.815021 kJ/mol
# Density = 2.064839 g / cm^3
# Si number density = 20.695494 Si / 1000 Ang^3
#
#
#
# Elastic Constant Matrix: (Units=GPa)
#
#
# Indices 1 2 3 4 5 6 
#
# 1 38.9637 95.3310 35.7696 0.0007 0.0000 0.0000
# 2 95.3310 38.9637 35.7696 -0.0007 0.0000 0.0000
# 3 35.7696 35.7696 167.2756 0.0000 0.0000 0.0000
# 4 0.0007 -0.0007 0.0000 31.7130 0.0000 0.0000
# 5 0.0000 0.0000 0.0000 0.0000 31.7130 0.0007
# 6 0.0000 0.0000 0.0000 0.0000 0.0007 -28.1836
#
#
#
# Elastic Compliance Matrix: (Units=1/GPa)
#
#
# Indices 1 2 3 4 5 6 
#
# 1 -0.004669 0.013072 -0.001797 0.000000 0.000000 0.000000
# 2 0.013072 -0.004669 -0.001797 0.000000 0.000000 0.000000
# 3 -0.001797 -0.001797 0.006747 0.000000 0.000000 0.000000
# 4 0.000000 0.000000 0.000000 0.031533 0.000000 0.000000
# 5 0.000000 0.000000 0.000000 0.000000 0.031533 0.000001
# 6 0.000000 0.000000 0.000000 0.000000 0.000001 -0.035482
#
#
# Mechanical properties :
#
#
# Convention : Reuss Voigt Hill
#
# Bulk Modulus (GPa) = 61.10276 64.32702 62.71489
# Shear Modulus (GPa) = 435.07355 12.27068 223.67212
#
# Velocity S-wave (km/s) = 14.51491 2.43763 10.40732
# Velocity P-wave (km/s) = 17.62098 6.25082 13.22066
#
# Compressibility (1/GPa) = 0.01636587
#
# Stress axis : x y z
#
# Youngs Moduli (GPa) = -214.19622 -214.19622 148.22105
#
# Poissons Ratio (x) = 2.80001 0.26635
# Poissons Ratio (y) = 2.80001 0.26635
# Poissons Ratio (z) = -0.38491 -0.38491
#
# Static dielectric constant tensor:
#      x y z
#    x 4.228820 0.000000 0.000000 
#    y 0.000000 4.228820 0.000000 
#    z 0.000000 0.000000 4.549800 
# 
# 
# High freq. dielectric constant tensor:
#      x y z
#    x 1.808530 0.000000 0.000000 
#    y 0.000000 1.808530 0.000000 
#    z 0.000000 0.000000 1.830080 
# 
# From -- ./inp_files/2636.got.cif
#   From: 2010.03.12/outbox.cif.g09.slc.cpg/sg188_2_cif.got.tgz:2636.got - 2010.04.01 12:01:06.
