data_PCOD8327756
_publ_section_title
;
Structure prediction by ZEFSAII (Michael W. Deem and Ramdas Pophale) SiO2 
 PCOD8327756
Probable space group: P -6 2 M
;
_chemical_formula_sum "Si O2"
_cell_formula_units_Z 52
_cell_length_a 13.043622
_cell_length_b 13.043622
_cell_length_c 17.920821
_cell_angle_alpha 90.000000
_cell_angle_beta 90.000000
_cell_angle_gamma 120.000000
_cell_volume 2640.492528
_symmetry_space_group_name_H-M "P -6 2 M"
_symmetry_group_IT_number 189
_symmetry_cell_setting 'hexagonal'
loop_
_space_group_symop_operation_xyz
x,y,z
-x+y,-x,-z
-y,x-y,z
x,y,-z
-x+y,-x,z
-y,x-y,-z
x-y,-y,-z
-x,-x+y,-z
y,x,-z
y,x,z
x-y,-y,z
-x,-x+y,z
loop_
_atom_site_type_symbol
_atom_site_label
_atom_site_fract_x
_atom_site_fract_y
_atom_site_fract_z
Si Si1 0.134160 0.426618 0.151440
Si Si2 0.133446 0.633698 0.082105
Si Si3 0.277813 0.865155 0.414104
Si Si4 0.666666 0.333333 0.588075
Si Si5 0.865392 0.137747 0.718188
O O1 0.158989 0.562278 0.147538
O O2 0.226060 0.425768 0.093578
O O3 0.157066 0.385245 0.231505
O O4 0.000000 0.338420 0.123994
O O5 0.000000 0.601817 0.084952
O O6 0.165913 0.604325 0.000000
O O7 0.236243 0.838222 0.500000
O O8 0.324011 0.778973 0.383654
O O9 0.163885 0.844257 0.366683
O O10 0.384801 0.000000 0.403834
O O11 0.666667 0.333334 0.500000
O O12 0.000000 0.165788 0.729060
O O13 0.776487 0.000000 0.737602
#
# Coordination Sequence:
#
# PCOD8327756 Si02
#       5
#    12  12  12   4  12
#     4  10  21  36  55  81 111 143 180 223 273 328
#     4  10  20  34  54  80 109 142 179 219 267 325
#     4   9  19  35  54  81 116 152 196 247 293 340
#     4   9  18  33  54  78 105 141 181 227 289 348
#     4  10  21  37  57  81 112 151 194 240 288 339
#
# _framework density 19.693296
#
# number of rings (size 3 to 8) (size 9 to 14) (size 15 to 20)
#    0.000    2.308    0.000    2.077    0.000    4.615 
#    0.000    4.615    0.000    1.846    0.000    0.000 
#    0.000    0.000    0.000    0.000    0.000    0.000 
#
# Total GULP energy -644273.783049 kJ/mol
# GULP energy per Si atom -12389.880443 kJ/mol
# Density = 1.964847 g / cm^3
# Si number density = 19.693296 Si / 1000 Ang^3
#
#
#
# Elastic Constant Matrix: (Units=GPa)
#
#
# Indices 1 2 3 4 5 6 
#
# 1 115.7420 57.7578 53.6826 0.0000 0.0000 0.0000
# 2 57.7578 115.7418 53.6827 0.0000 0.0000 0.0001
# 3 53.6826 53.6827 80.6629 0.0000 0.0000 0.0000
# 4 0.0000 0.0000 0.0000 27.0197 0.0000 0.0000
# 5 0.0000 0.0000 0.0000 0.0000 27.0197 0.0000
# 6 0.0000 0.0001 0.0000 0.0000 0.0000 28.9922
#
#
#
# Elastic Compliance Matrix: (Units=1/GPa)
#
#
# Indices 1 2 3 4 5 6 
#
# 1 0.013523 -0.003723 -0.006522 0.000000 0.000000 0.000000
# 2 -0.003723 0.013523 -0.006522 0.000000 0.000000 0.000000
# 3 -0.006522 -0.006522 0.021078 0.000000 0.000000 0.000000
# 4 0.000000 0.000000 0.000000 0.037010 0.000000 0.000000
# 5 0.000000 0.000000 0.000000 0.000000 0.037010 0.000000
# 6 0.000000 0.000000 0.000000 0.000000 0.000000 0.034492
#
#
# Mechanical properties :
#
#
# Convention : Reuss Voigt Hill
#
# Bulk Modulus (GPa) = 68.54024 71.37697 69.95861
# Shear Modulus (GPa) = 25.63675 26.40791 26.02233
#
# Velocity S-wave (km/s) = 3.61196 3.66588 3.63902
# Velocity P-wave (km/s) = 7.23011 7.36487 7.29780
#
# Compressibility (1/GPa) = 0.01458997
#
# Stress axis : x y z
#
# Youngs Moduli (GPa) = 73.94937 73.94910 47.44293
#
# Poissons Ratio (x) = 0.27533 0.30941
# Poissons Ratio (y) = 0.27534 0.30941
# Poissons Ratio (z) = 0.48228 0.48228
#
# Static dielectric constant tensor:
#      x y z
#    x 3.636760 0.000000 0.000000 
#    y 0.000000 3.636750 0.000000 
#    z 0.000000 0.000000 3.560810 
# 
# 
# High freq. dielectric constant tensor:
#      x y z
#    x 1.766250 0.000000 0.000000 
#    y 0.000000 1.766250 0.000000 
#    z 0.000000 0.000000 1.754500 
# 
# From -- ./inp_files/3347.got.cif
#   From: 2010.03.12/outbox.cif.g09.slc.cpg/sg189_2_cif.got.tgz:3347.got - 2010.04.01 12:03:36.
