data_PCOD8327618
_publ_section_title
;
Structure prediction by ZEFSAII (Michael W. Deem and Ramdas Pophale) SiO2 
 PCOD8327618
Probable space group: P -6 2 M
;
_chemical_formula_sum "Si O2"
_cell_formula_units_Z 64
_cell_length_a 13.779885
_cell_length_b 13.779885
_cell_length_c 21.208380
_cell_angle_alpha 90.000000
_cell_angle_beta 90.000000
_cell_angle_gamma 120.000000
_cell_volume 3487.621243
_symmetry_space_group_name_H-M "P -6 2 M"
_symmetry_group_IT_number 189
_symmetry_cell_setting 'hexagonal'
loop_
_space_group_symop_operation_xyz
x,y,z
-x+y,-x,-z
-y,x-y,z
x,y,-z
-x+y,-x,z
-y,x-y,-z
x-y,-y,-z
-x,-x+y,-z
y,x,-z
y,x,z
x-y,-y,z
-x,-x+y,z
loop_
_atom_site_type_symbol
_atom_site_label
_atom_site_fract_x
_atom_site_fract_y
_atom_site_fract_z
Si Si1 0.519663 0.649773 0.128553
Si Si2 0.808524 0.532654 0.348316
Si Si3 0.877732 0.403770 0.267804
Si Si4 0.127520 0.682332 0.072866
Si Si5 0.666667 0.333334 0.426974
Si Si6 0.873937 0.745800 0.428510
O O1 0.618775 0.618775 0.127148
O O2 0.457810 0.625217 0.196455
O O3 0.421258 0.571624 0.080118
O O4 0.572419 0.780821 0.111018
O O5 0.883219 0.517245 0.294563
O O6 0.693776 0.499579 0.314869
O O7 0.779634 0.444090 0.404590
O O8 0.866329 0.655458 0.378034
O O9 0.000000 0.418990 0.268387
O O10 0.000000 0.642134 0.097097
O O11 0.138704 0.715644 0.000000
O O12 0.666667 0.333334 0.500000
O O13 0.845987 0.696292 0.500000
O O14 0.789901 0.789901 0.408870
O O15 0.000000 0.849408 0.426019
#
# Coordination Sequence:
#
# PCOD8327618 Si02
#       6
#    12  12  12  12   4  12
#     4  10  20  34  53  76 105 140 174 214 265 312
#     4  10  19  32  50  70  98 130 159 200 252 302
#     4  10  20  33  50  73  98 127 165 202 240 296
#     4  10  20  33  52  80 110 140 177 218 259 310
#     4   9  18  30  45  69  96 123 157 194 241 309
#     4  10  20  34  52  73  97 128 168 213 259 306
#
# _framework density 18.350615999999999
#
# number of rings (size 3 to 8) (size 9 to 14) (size 15 to 20)
#    0.000    2.062    0.000    4.312    0.000    1.875 
#    0.000    0.938    0.000    9.375    0.000    0.000 
#    0.000    0.000    0.000    0.000    0.000    0.000 
#
# Total GULP energy -793158.451350 kJ/mol
# GULP energy per Si atom -12393.100802 kJ/mol
# Density = 1.830885 g / cm^3
# Si number density = 18.350616 Si / 1000 Ang^3
#
#
#
# Elastic Constant Matrix: (Units=GPa)
#
#
# Indices 1 2 3 4 5 6 
#
# 1 90.3798 42.0940 41.2418 0.0000 0.0000 0.0000
# 2 42.0940 90.3796 41.2420 -0.0001 0.0001 0.0001
# 3 41.2418 41.2420 106.4967 0.0000 0.0000 0.0001
# 4 0.0000 -0.0001 0.0000 29.0414 0.0000 0.0000
# 5 0.0000 0.0001 0.0000 0.0000 29.0414 0.0000
# 6 0.0000 0.0001 0.0001 0.0000 0.0000 24.1431
#
#
#
# Elastic Compliance Matrix: (Units=1/GPa)
#
#
# Indices 1 2 3 4 5 6 
#
# 1 0.015329 -0.005381 -0.003852 0.000000 0.000000 0.000000
# 2 -0.005381 0.015329 -0.003852 0.000000 0.000000 0.000000
# 3 -0.003852 -0.003852 0.012374 0.000000 0.000000 0.000000
# 4 0.000000 0.000000 0.000000 0.034434 0.000000 0.000000
# 5 0.000000 0.000000 0.000000 0.000000 0.034434 0.000000
# 6 0.000000 0.000000 0.000000 0.000000 0.000000 0.041420
#
#
# Mechanical properties :
#
#
# Convention : Reuss Voigt Hill
#
# Bulk Modulus (GPa) = 59.31443 59.60130 59.45787
# Shear Modulus (GPa) = 27.01110 27.29038 27.15074
#
# Velocity S-wave (km/s) = 3.84076 3.86056 3.85067
# Velocity P-wave (km/s) = 7.21537 7.24028 7.22783
#
# Compressibility (1/GPa) = 0.01685931
#
# Stress axis : x y z
#
# Youngs Moduli (GPa) = 65.23750 65.23725 80.81771
#
# Poissons Ratio (x) = 0.35107 0.31132
# Poissons Ratio (y) = 0.35107 0.31132
# Poissons Ratio (z) = 0.25130 0.25130
#
# Static dielectric constant tensor:
#      x y z
#    x 3.408650 0.000000 0.000000 
#    y 0.000000 3.408650 0.000000 
#    z 0.000000 0.000000 3.454170 
# 
# 
# High freq. dielectric constant tensor:
#      x y z
#    x 1.700870 0.000000 0.000000 
#    y 0.000000 1.700870 0.000000 
#    z 0.000000 0.000000 1.717750 
# 
# From -- ./inp_files/3060.got.cif
#   From: 2010.03.12/outbox.cif.g09.slc.cpg/sg189_2_cif.got.tgz:3060.got - 2010.04.01 12:03:36.
