data_PCOD8327883
_publ_section_title
;
Structure prediction by ZEFSAII (Michael W. Deem and Ramdas Pophale) SiO2 
 PCOD8327883
Probable space group: P -6 2 M
;
_chemical_formula_sum "Si O2"
_cell_formula_units_Z 48
_cell_length_a 16.896396
_cell_length_b 16.896396
_cell_length_c 10.285026
_cell_angle_alpha 90.000000
_cell_angle_beta 90.000000
_cell_angle_gamma 120.000000
_cell_volume 2542.870155
_symmetry_space_group_name_H-M "P -6 2 M"
_symmetry_group_IT_number 189
_symmetry_cell_setting 'hexagonal'
loop_
_space_group_symop_operation_xyz
x,y,z
-x+y,-x,-z
-y,x-y,z
x,y,-z
-x+y,-x,z
-y,x-y,-z
x-y,-y,-z
-x,-x+y,-z
y,x,-z
y,x,z
x-y,-y,z
-x,-x+y,z
loop_
_atom_site_type_symbol
_atom_site_label
_atom_site_fract_x
_atom_site_fract_y
_atom_site_fract_z
Si Si1 0.535069 0.787279 0.000000
Si Si2 0.732022 0.279667 0.500000
Si Si3 0.453646 0.591171 0.000000
Si Si4 0.526051 0.526051 0.220151
Si Si5 0.315678 0.000000 0.352288
Si Si6 0.393293 0.199882 0.282519
Si Si7 0.000000 0.643421 0.352055
O O1 0.449646 0.683830 0.000000
O O2 0.499866 0.857812 0.000000
O O3 0.592394 0.802885 0.129067
O O4 0.619874 0.229656 0.500000
O O5 0.767041 0.252385 0.369962
O O6 0.503057 0.590254 0.132106
O O7 0.588874 0.588874 0.336567
O O8 0.435791 0.435791 0.266062
O O9 0.294366 0.000000 0.500000
O O10 0.230448 0.907846 0.296396
O O11 0.346626 0.258374 0.325537
O O12 0.000000 0.614848 0.500000
#
# Coordination Sequence:
#
# PCOD8327883 Si02
#       7
#     6   6   6   6   6  12   6
#     4  12  25  40  59  90 132 174 218 261 318 385
#     4  10  26  40  60  93 134 165 228 260 298 390
#     4  11  23  38  57  88 130 174 216 255 316 382
#     4  11  23  36  62  92 127 165 216 262 316 398
#     4  12  24  43  66  92 127 169 222 275 333 385
#     4  12  26  43  66  96 126 178 216 278 332 390
#     4  12  24  43  66  92 127 169 222 275 333 385
#
# _framework density 18.876308000000002
#
# number of rings (size 3 to 8) (size 9 to 14) (size 15 to 20)
#    0.250    0.250    7.500    0.625    7.000    1.000 
#    0.000    0.000    0.000    0.500    0.000    1.750 
#    0.000    2.000    0.000    0.000    0.000    0.000 
#
# Total GULP energy -594921.848050 kJ/mol
# GULP energy per Si atom -12394.205168 kJ/mol
# Density = 1.883334 g / cm^3
# Si number density = 18.876308 Si / 1000 Ang^3
#
#
#
# Elastic Constant Matrix: (Units=GPa)
#
#
# Indices 1 2 3 4 5 6 
#
# 1 93.5354 31.4490 19.3262 0.0000 0.0000 0.0000
# 2 31.4490 93.5354 19.3262 0.0000 0.0000 0.0000
# 3 19.3262 19.3262 132.8205 0.0000 0.0000 0.0000
# 4 0.0000 0.0000 0.0000 43.4566 0.0000 0.0000
# 5 0.0000 0.0000 0.0000 0.0000 43.4566 0.0000
# 6 0.0000 0.0000 0.0000 0.0000 0.0000 31.0432
#
#
#
# Elastic Compliance Matrix: (Units=1/GPa)
#
#
# Indices 1 2 3 4 5 6 
#
# 1 0.012242 -0.003864 -0.001219 0.000000 0.000000 0.000000
# 2 -0.003864 0.012242 -0.001219 0.000000 0.000000 0.000000
# 3 -0.001219 -0.001219 0.007884 0.000000 0.000000 0.000000
# 4 0.000000 0.000000 0.000000 0.023011 0.000000 0.000000
# 5 0.000000 0.000000 0.000000 0.000000 0.023011 0.000000
# 6 0.000000 0.000000 0.000000 0.000000 0.000000 0.032213
#
#
# Mechanical properties :
#
#
# Convention : Reuss Voigt Hill
#
# Bulk Modulus (GPa) = 50.59830 51.12158 50.85994
# Shear Modulus (GPa) = 38.52170 40.24396 39.38283
#
# Velocity S-wave (km/s) = 4.52236 4.62235 4.57263
# Velocity P-wave (km/s) = 7.35747 7.45851 7.40816
#
# Compressibility (1/GPa) = 0.01976351
#
# Stress axis : x y z
#
# Youngs Moduli (GPa) = 81.68407 81.68407 126.84376
#
# Poissons Ratio (x) = 0.31565 0.15463
# Poissons Ratio (y) = 0.31565 0.15463
# Poissons Ratio (z) = 0.09958 0.09958
#
# Static dielectric constant tensor:
#      x y z
#    x 3.692010 0.000000 0.000000 
#    y 0.000000 3.692010 0.000000 
#    z 0.000000 0.000000 3.540210 
# 
# 
# High freq. dielectric constant tensor:
#      x y z
#    x 1.717840 0.000000 0.000000 
#    y 0.000000 1.717840 0.000000 
#    z 0.000000 0.000000 1.756150 
# 
# From -- ./inp_files/1791.got.cif
#   From: 2010.03.12/outbox.cif.g09.slc.cpg/sg189_1_cif.got.tgz:1791.got - 2010.04.01 12:03:36.
