data_PCOD8327592
_publ_section_title
;
Structure prediction by ZEFSAII (Michael W. Deem and Ramdas Pophale) SiO2 
 PCOD8327592
Probable space group: P -6 2 M
;
_chemical_formula_sum "Si O2"
_cell_formula_units_Z 76
_cell_length_a 18.009113
_cell_length_b 18.009113
_cell_length_c 14.908936
_cell_angle_alpha 90.000000
_cell_angle_beta 90.000000
_cell_angle_gamma 120.000000
_cell_volume 4187.568539
_symmetry_space_group_name_H-M "P -6 2 M"
_symmetry_group_IT_number 189
_symmetry_cell_setting 'hexagonal'
loop_
_space_group_symop_operation_xyz
x,y,z
-x+y,-x,-z
-y,x-y,z
x,y,-z
-x+y,-x,z
-y,x-y,-z
x-y,-y,-z
-x,-x+y,-z
y,x,-z
y,x,z
x-y,-y,z
-x,-x+y,z
loop_
_atom_site_type_symbol
_atom_site_label
_atom_site_fract_x
_atom_site_fract_y
_atom_site_fract_z
Si Si1 0.837599 0.503268 0.102825
Si Si2 0.836823 0.332778 0.102660
Si Si3 0.333334 0.666668 0.394132
Si Si4 0.505722 0.337732 0.604851
Si Si5 0.469130 0.100511 0.598527
Si Si6 0.261403 0.902242 0.751894
Si Si7 0.264187 0.361121 0.748686
O O1 0.847541 0.423140 0.132576
O O2 0.738925 0.476845 0.117004
O O3 0.898473 0.583171 0.165048
O O4 0.866195 0.529326 0.000000
O O5 0.899147 0.312458 0.161056
O O6 0.864815 0.335942 0.000000
O O7 0.333334 0.666668 0.500000
O O8 0.267640 0.699210 0.364252
O O9 0.482065 0.323726 0.500000
O O10 0.558667 0.437769 0.629990
O O11 0.418424 0.294095 0.659577
O O12 0.474698 0.142167 0.500000
O O13 0.424529 0.134407 0.667706
O O14 0.409929 0.000000 0.593069
O O15 0.159238 0.838333 0.762173
O O16 0.282141 0.000000 0.739223
O O17 0.283296 0.283296 0.738458
#
# Coordination Sequence:
#
# PCOD8327592 Si02
#       7
#    12  12   4  12  12  12  12
#     4   9  18  32  49  72 104 138 169 198 225 261
#     4   9  17  30  50  75 103 136 169 196 224 262
#     4   9  18  30  45  66  97 140 178 198 219 258
#     4  10  19  31  47  71 104 137 168 199 226 261
#     4   9  17  30  49  72  99 132 165 195 231 275
#     4  10  21  36  52  70  94 123 158 203 249 292
#     4  11  23  36  51  71  94 123 159 199 249 301
#
# _framework density 18.148955999999998
#
# number of rings (size 3 to 8) (size 9 to 14) (size 15 to 20)
#    0.000    2.368    0.000    2.684    0.000    7.895 
#    0.000    1.579    0.000    0.316    0.000    0.000 
#    0.000    0.000    0.000   11.526    0.000    0.000 
#
# Total GULP energy -942253.652907 kJ/mol
# GULP energy per Si atom -12398.074380 kJ/mol
# Density = 1.810765 g / cm^3
# Si number density = 18.148956 Si / 1000 Ang^3
#
#
#
# Elastic Constant Matrix: (Units=GPa)
#
#
# Indices 1 2 3 4 5 6 
#
# 1 84.0471 49.3202 32.1780 0.0000 0.0000 0.0001
# 2 49.3202 84.0472 32.1779 0.0000 0.0000 0.0001
# 3 32.1780 32.1779 77.3775 0.0000 0.0000 0.0000
# 4 0.0000 0.0000 0.0000 18.2388 0.0000 0.0000
# 5 0.0000 0.0000 0.0000 0.0000 18.2388 0.0000
# 6 0.0001 0.0001 0.0000 0.0000 0.0000 17.3633
#
#
#
# Elastic Compliance Matrix: (Units=1/GPa)
#
#
# Indices 1 2 3 4 5 6 
#
# 1 0.019088 -0.009708 -0.003901 0.000000 0.000000 0.000000
# 2 -0.009708 0.019088 -0.003901 0.000000 0.000000 0.000000
# 3 -0.003901 -0.003901 0.016168 0.000000 0.000000 0.000000
# 4 0.000000 0.000000 0.000000 0.054828 0.000000 0.000000
# 5 0.000000 0.000000 0.000000 0.000000 0.054828 0.000000
# 6 0.000000 0.000000 0.000000 0.000000 0.000000 0.057593
#
#
# Mechanical properties :
#
#
# Convention : Reuss Voigt Hill
#
# Bulk Modulus (GPa) = 51.74558 52.53600 52.14079
# Shear Modulus (GPa) = 19.00744 19.55455 19.28100
#
# Velocity S-wave (km/s) = 3.23972 3.28601 3.26295
# Velocity P-wave (km/s) = 6.52440 6.58841 6.55648
#
# Compressibility (1/GPa) = 0.01932532
#
# Stress axis : x y z
#
# Youngs Moduli (GPa) = 52.38815 52.38827 61.85006
#
# Poissons Ratio (x) = 0.50857 0.24128
# Poissons Ratio (y) = 0.50857 0.24127
# Poissons Ratio (z) = 0.20436 0.20436
#
# Static dielectric constant tensor:
#      x y z
#    x 3.214960 0.000000 0.000000 
#    y 0.000000 3.214960 0.000000 
#    z 0.000000 0.000000 3.823260 
# 
# 
# High freq. dielectric constant tensor:
#      x y z
#    x 1.677440 0.000000 0.000000 
#    y 0.000000 1.677440 0.000000 
#    z 0.000000 0.000000 1.715300 
# 
# From -- ./inp_files/2740.got.cif
#   From: 2010.03.12/outbox.cif.g09.slc.cpg/sg189_2_cif.got.tgz:2740.got - 2010.04.01 12:03:36.
