data_PCOD8327913
_publ_section_title
;
Structure prediction by ZEFSAII (Michael W. Deem and Ramdas Pophale) SiO2 
 PCOD8327913
Probable space group: P -6 2 M
;
_chemical_formula_sum "Si O2"
_cell_formula_units_Z 72
_cell_length_a 24.100719
_cell_length_b 24.100719
_cell_length_c 9.322714
_cell_angle_alpha 90.000000
_cell_angle_beta 90.000000
_cell_angle_gamma 120.000000
_cell_volume 4689.569658
_symmetry_space_group_name_H-M "P -6 2 M"
_symmetry_group_IT_number 189
_symmetry_cell_setting 'hexagonal'
loop_
_space_group_symop_operation_xyz
x,y,z
-x+y,-x,-z
-y,x-y,z
x,y,-z
-x+y,-x,z
-y,x-y,-z
x-y,-y,-z
-x,-x+y,-z
y,x,-z
y,x,z
x-y,-y,z
-x,-x+y,z
loop_
_atom_site_type_symbol
_atom_site_label
_atom_site_fract_x
_atom_site_fract_y
_atom_site_fract_z
Si Si1 0.808835 0.404681 0.328943
Si Si2 0.071378 0.929097 0.170490
Si Si3 0.527559 0.929557 0.670430
Si Si4 0.267752 0.193790 0.168172
Si Si5 0.602498 0.858809 0.330961
Si Si6 0.523495 0.260414 0.329841
O O1 0.807526 0.403057 0.500000
O O2 0.880769 0.455342 0.274877
O O3 0.786801 0.334041 0.266311
O O4 0.761219 0.428999 0.272559
O O5 0.092552 0.877939 0.217623
O O6 0.000000 0.906274 0.229150
O O7 0.120611 0.000000 0.231967
O O8 0.069638 0.930600 0.000000
O O9 0.527564 0.931908 0.500000
O O10 0.576026 0.905382 0.718884
O O11 0.551722 0.000000 0.736305
O O12 0.243090 0.243090 0.207796
O O13 0.331881 0.210483 0.251438
O O14 0.281317 0.196241 0.000000
O O15 0.615241 0.863928 0.500000
O O16 0.549889 0.786101 0.285150
O O17 0.527929 0.262103 0.500000
#
# Coordination Sequence:
#
# PCOD8327913 Si02
#       6
#    12  12  12  12  12  12
#     4   8  12  18  29  46  69  91 112 147 188 217
#     4   8  13  22  38  59  79  97 120 154 193 227
#     4   8  13  20  31  49  71  95 123 151 179 213
#     4   9  17  27  39  58  81 101 124 155 188 223
#     4   9  16  25  38  56  78 103 128 153 183 224
#     4   8  13  20  32  52  74  96 123 154 189 226
#
# _framework density 15.353221
#
# number of rings (size 3 to 8) (size 9 to 14) (size 15 to 20)
#    0.000    3.667    0.000    4.000    0.000    3.000 
#    0.000    0.000    0.000    1.500    0.000    7.000 
#    0.000    1.333    0.000    0.000    0.000    0.000 
#
# Total GULP energy -892017.793246 kJ/mol
# GULP energy per Si atom -12389.136017 kJ/mol
# Density = 1.531828 g / cm^3
# Si number density = 15.353221 Si / 1000 Ang^3
#
#
#
# Elastic Constant Matrix: (Units=GPa)
#
#
# Indices 1 2 3 4 5 6 
#
# 1 141.6877 85.2143 19.6547 0.0000 0.0000 0.0000
# 2 85.2143 141.6877 19.6547 0.0000 0.0000 0.0000
# 3 19.6547 19.6547 12.9220 0.0000 0.0000 0.0000
# 4 0.0000 0.0000 0.0000 13.3030 0.0000 0.0000
# 5 0.0000 0.0000 0.0000 0.0000 13.3030 0.0000
# 6 0.0000 0.0000 0.0000 0.0000 0.0000 28.2367
#
#
#
# Elastic Compliance Matrix: (Units=1/GPa)
#
#
# Indices 1 2 3 4 5 6 
#
# 1 0.011846 -0.005862 -0.009102 0.000000 0.000000 0.000000
# 2 -0.005862 0.011846 -0.009102 0.000000 0.000000 0.000000
# 3 -0.009102 -0.009102 0.105076 0.000000 0.000000 0.000000
# 4 0.000000 0.000000 0.000000 0.075171 0.000000 0.000000
# 5 0.000000 0.000000 0.000000 0.000000 0.075171 0.000000
# 6 0.000000 0.000000 0.000000 0.000000 0.000000 0.035415
#
#
# Mechanical properties :
#
#
# Convention : Reuss Voigt Hill
#
# Bulk Modulus (GPa) = 12.40133 60.59385 36.49759
# Shear Modulus (GPa) = 12.83585 22.42012 17.62798
#
# Velocity S-wave (km/s) = 2.89457 3.82552 3.39213
# Velocity P-wave (km/s) = 4.38933 7.68538 6.25824
#
# Compressibility (1/GPa) = 0.08063652
#
# Stress axis : x y z
#
# Youngs Moduli (GPa) = 84.41855 84.41855 9.51693
#
# Poissons Ratio (x) = 0.49484 0.08662
# Poissons Ratio (y) = 0.49484 0.08662
# Poissons Ratio (z) = 0.76837 0.76837
#
# Static dielectric constant tensor:
#      x y z
#    x 3.210890 0.000000 0.000000 
#    y 0.000000 3.210890 0.000000 
#    z 0.000000 0.000000 2.316490 
# 
# 
# High freq. dielectric constant tensor:
#      x y z
#    x 1.586650 0.000000 0.000000 
#    y 0.000000 1.586650 0.000000 
#    z 0.000000 0.000000 1.521360 
# 
# From -- ./inp_files/1244.got.cif
#   From: 2010.03.12/outbox.cif.g09.slc.cpg/sg189_1_cif.got.tgz:1244.got - 2010.04.01 12:03:36.
