data_PCOD8327587
_publ_section_title
;
Structure prediction by ZEFSAII (Michael W. Deem and Ramdas Pophale) SiO2 
 PCOD8327587
Probable space group: P -6 2 M
;
_chemical_formula_sum "Si O2"
_cell_formula_units_Z 96
_cell_length_a 15.087638
_cell_length_b 15.087638
_cell_length_c 29.562269
_cell_angle_alpha 90.000000
_cell_angle_beta 90.000000
_cell_angle_gamma 120.000000
_cell_volume 5827.884110
_symmetry_space_group_name_H-M "P -6 2 M"
_symmetry_group_IT_number 189
_symmetry_cell_setting 'hexagonal'
loop_
_space_group_symop_operation_xyz
x,y,z
-x+y,-x,-z
-y,x-y,z
x,y,-z
-x+y,-x,z
-y,x-y,-z
x-y,-y,-z
-x,-x+y,-z
y,x,-z
y,x,z
x-y,-y,z
-x,-x+y,z
loop_
_atom_site_type_symbol
_atom_site_label
_atom_site_fract_x
_atom_site_fract_y
_atom_site_fract_z
Si Si1 0.119940 0.877611 0.354083
Si Si2 0.766347 0.882373 0.814109
Si Si3 0.883960 0.764797 0.452161
Si Si4 0.115994 0.404793 0.051564
Si Si5 0.648756 0.764741 0.270969
Si Si6 0.536860 0.116710 0.129764
Si Si7 0.545520 0.231337 0.213717
Si Si8 0.382710 0.264066 0.113140
O O1 0.139072 0.843482 0.404291
O O2 0.177726 0.841808 0.318831
O O3 0.000000 0.821990 0.342294
O O4 0.165315 0.000000 0.351074
O O5 0.814670 0.814670 0.832109
O O6 0.724507 0.851377 0.763632
O O7 0.669998 0.861277 0.844183
O O8 0.854509 0.000000 0.814759
O O9 0.868616 0.701776 0.500000
O O10 0.810678 0.810678 0.455261
O O11 0.000000 0.857329 0.449556
O O12 0.127676 0.500655 0.080113
O O13 0.194581 0.370747 0.069907
O O14 0.000000 0.309814 0.055606
O O15 0.143801 0.441469 0.000000
O O16 0.675741 0.675741 0.276363
O O17 0.531969 0.706755 0.254444
O O18 0.504274 0.179284 0.164445
O O19 0.658346 0.159291 0.126395
O O20 0.478894 0.000000 0.146979
O O21 0.649990 0.224692 0.217767
O O22 0.327782 0.327782 0.099521
#
# Coordination Sequence:
#
# PCOD8327587 Si02
#       8
#    12  12  12  12  12  12  12  12
#     4   9  16  25  39  60  91 129 165 200 236 280
#     4  10  19  31  48  70  97 127 158 190 224 265
#     4   8  12  18  30  51  81 119 161 199 234 274
#     4  10  21  36  53  72  97 126 151 179 221 271
#     4  10  19  31  45  65  93 124 156 192 234 276
#     4  10  19  34  54  75  97 119 148 185 229 278
#     4  10  21  33  51  69  90 119 151 188 231 277
#     4  10  21  35  54  76  97 121 152 191 226 266
#
# _framework density 16.472532000000001
#
# number of rings (size 3 to 8) (size 9 to 14) (size 15 to 20)
#    0.250    2.125    0.000    3.750    0.000    4.250 
#    0.750    4.375    0.000    0.250    0.000    0.000 
#    0.000    1.000    0.000    6.875    0.000    0.125 
#
# Total GULP energy -1189467.554438 kJ/mol
# GULP energy per Si atom -12390.287025 kJ/mol
# Density = 1.643504 g / cm^3
# Si number density = 16.472532 Si / 1000 Ang^3
#
#
#
# Elastic Constant Matrix: (Units=GPa)
#
#
# Indices 1 2 3 4 5 6 
#
# 1 68.4404 24.7239 46.9445 0.0000 0.0000 0.0000
# 2 24.7239 68.4404 46.9445 0.0000 0.0000 0.0000
# 3 46.9445 46.9445 147.2380 0.0000 0.0000 0.0000
# 4 0.0000 0.0000 0.0000 17.2491 0.0000 0.0000
# 5 0.0000 0.0000 0.0000 0.0000 17.2491 0.0000
# 6 0.0000 0.0000 0.0000 0.0000 0.0000 21.8582
#
#
#
# Elastic Compliance Matrix: (Units=1/GPa)
#
#
# Indices 1 2 3 4 5 6 
#
# 1 0.019345 -0.003530 -0.005043 0.000000 0.000000 0.000000
# 2 -0.003530 0.019345 -0.005043 0.000000 0.000000 0.000000
# 3 -0.005043 -0.005043 0.010007 0.000000 0.000000 0.000000
# 4 0.000000 0.000000 0.000000 0.057974 0.000000 0.000000
# 5 0.000000 0.000000 0.000000 0.000000 0.057974 0.000000
# 6 0.000000 0.000000 0.000000 0.000000 0.000000 0.045749
#
#
# Mechanical properties :
#
#
# Convention : Reuss Voigt Hill
#
# Bulk Modulus (GPa) = 46.58084 57.92719 52.25401
# Shear Modulus (GPa) = 20.42649 22.30499 21.36574
#
# Velocity S-wave (km/s) = 3.52523 3.68376 3.60537
# Velocity P-wave (km/s) = 6.70141 7.30313 7.00873
#
# Compressibility (1/GPa) = 0.02146806
#
# Stress axis : x y z
#
# Youngs Moduli (GPa) = 51.69272 51.69272 99.92830
#
# Poissons Ratio (x) = 0.18246 0.50389
# Poissons Ratio (y) = 0.18246 0.50389
# Poissons Ratio (z) = 0.26066 0.26066
#
# Static dielectric constant tensor:
#      x y z
#    x 2.982500 0.000000 0.000000 
#    y 0.000000 2.982500 0.000000 
#    z 0.000000 0.000000 3.408950 
# 
# 
# High freq. dielectric constant tensor:
#      x y z
#    x 1.617070 0.000000 0.000000 
#    y 0.000000 1.617070 0.000000 
#    z 0.000000 0.000000 1.630640 
# 
# From -- ./inp_files/3756.got.cif
#   From: 2010.03.12/outbox.cif.g09.slc.cpg/sg189_2_cif.got.tgz:3756.got - 2010.04.01 12:03:36.
