data_PCOD8327815
_publ_section_title
;
Structure prediction by ZEFSAII (Michael W. Deem and Ramdas Pophale) SiO2 
 PCOD8327815
Probable space group: P -6 2 M
;
_chemical_formula_sum "Si O2"
_cell_formula_units_Z 70
_cell_length_a 14.919630
_cell_length_b 14.919630
_cell_length_c 17.875353
_cell_angle_alpha 90.000000
_cell_angle_beta 90.000000
_cell_angle_gamma 120.000000
_cell_volume 3445.889642
_symmetry_space_group_name_H-M "P -6 2 M"
_symmetry_group_IT_number 189
_symmetry_cell_setting 'hexagonal'
loop_
_space_group_symop_operation_xyz
x,y,z
-x+y,-x,-z
-y,x-y,z
x,y,-z
-x+y,-x,z
-y,x-y,-z
x-y,-y,-z
-x,-x+y,-z
y,x,-z
y,x,z
x-y,-y,z
-x,-x+y,z
loop_
_atom_site_type_symbol
_atom_site_label
_atom_site_fract_x
_atom_site_fract_y
_atom_site_fract_z
Si Si1 0.877339 0.592850 0.416409
Si Si2 0.562464 0.444665 0.317110
Si Si3 0.357476 0.122010 0.301931
Si Si4 0.884276 0.479092 0.850454
Si Si5 0.882087 0.680416 0.852459
Si Si6 0.333334 0.666667 0.912037
Si Si7 0.118159 0.887049 0.000000
O O1 0.831315 0.579052 0.500000
O O2 0.832552 0.478260 0.379541
O O3 0.847847 0.665327 0.366997
O O4 0.000000 0.650377 0.418189
O O5 0.518621 0.518621 0.339393
O O6 0.685442 0.518956 0.310806
O O7 0.518907 0.389451 0.238190
O O8 0.334506 0.147257 0.219602
O O9 0.287302 0.000000 0.315556
O O10 0.881018 0.577867 0.880284
O O11 0.785796 0.376409 0.884646
O O12 0.000000 0.494392 0.868949
O O13 0.831777 0.706658 0.923297
O O14 0.000000 0.770586 0.834785
O O15 0.333334 0.666668 0.000000
O O16 0.000000 0.798352 0.000000
O O17 0.130621 0.000000 0.000000
#
# Coordination Sequence:
#
# PCOD8327815 Si02
#       7
#    12  12  12  12  12   4   6
#     4  10  21  39  61  85 118 158 195 235 294 365
#     4   9  19  37  60  82 108 149 192 240 295 345
#     4  11  21  35  61  92 121 152 198 250 297 357
#     4  10  21  40  63  85 117 159 207 254 302 366
#     4  10  20  37  62  86 118 165 209 250 308 371
#     4  12  27  39  60  93 124 164 208 249 315 378
#     4  10  21  36  58  88 122 160 207 268 324 368
#
# _framework density 20.314056999999998
#
# number of rings (size 3 to 8) (size 9 to 14) (size 15 to 20)
#    0.000    1.886    1.714    2.143    1.200    1.371 
#    1.029    2.571    0.000    3.771    0.000    0.000 
#    0.000    0.000    0.000    0.514    0.000    0.000 
#
# Total GULP energy -867411.565991 kJ/mol
# GULP energy per Si atom -12391.593800 kJ/mol
# Density = 2.026782 g / cm^3
# Si number density = 20.314057 Si / 1000 Ang^3
#
#
#
# Elastic Constant Matrix: (Units=GPa)
#
#
# Indices 1 2 3 4 5 6 
#
# 1 80.4812 24.7148 48.9426 0.0000 0.0000 -0.0001
# 2 24.7148 80.4810 48.9425 0.0000 0.0000 0.0000
# 3 48.9426 48.9425 166.3015 0.0000 0.0000 -0.0001
# 4 0.0000 0.0000 0.0000 23.2951 0.0000 0.0000
# 5 0.0000 0.0000 0.0000 0.0000 23.2951 0.0000
# 6 -0.0001 0.0000 -0.0001 0.0000 0.0000 27.8832
#
#
#
# Elastic Compliance Matrix: (Units=1/GPa)
#
#
# Indices 1 2 3 4 5 6 
#
# 1 0.015511 -0.002420 -0.003853 0.000000 0.000000 0.000000
# 2 -0.002420 0.015512 -0.003853 0.000000 0.000000 0.000000
# 3 -0.003853 -0.003853 0.008281 0.000000 0.000000 0.000000
# 4 0.000000 0.000000 0.000000 0.042928 0.000000 0.000000
# 5 0.000000 0.000000 0.000000 0.000000 0.042927 0.000000
# 6 0.000000 0.000000 0.000000 0.000000 0.000000 0.035864
#
#
# Mechanical properties :
#
#
# Convention : Reuss Voigt Hill
#
# Bulk Modulus (GPa) = 52.48755 63.60706 58.04730
# Shear Modulus (GPa) = 26.64887 28.53892 27.59390
#
# Velocity S-wave (km/s) = 3.62587 3.75225 3.68960
# Velocity P-wave (km/s) = 6.58964 7.08183 6.84016
#
# Compressibility (1/GPa) = 0.01905214
#
# Stress axis : x y z
#
# Youngs Moduli (GPa) = 64.46842 64.46821 120.76032
#
# Poissons Ratio (x) = 0.15604 0.46525
# Poissons Ratio (y) = 0.15605 0.46525
# Poissons Ratio (z) = 0.24838 0.24838
#
# Static dielectric constant tensor:
#      x y z
#    x 3.698760 0.000000 0.000000 
#    y 0.000000 3.698770 0.000000 
#    z 0.000000 0.000000 3.834740 
# 
# 
# High freq. dielectric constant tensor:
#      x y z
#    x 1.783940 0.000000 0.000000 
#    y 0.000000 1.783940 0.000000 
#    z 0.000000 0.000000 1.793210 
# 
# From -- ./inp_files/3153.got.cif
#   From: 2010.03.12/outbox.cif.g09.slc.cpg/sg189_2_cif.got.tgz:3153.got - 2010.04.01 12:03:36.
