data_PCOD8327070
_publ_section_title
;
Structure prediction by ZEFSAII (Michael W. Deem and Ramdas Pophale) SiO2 
 PCOD8327070
Probable space group: P -6 M 2
;
_chemical_formula_sum "Si O2"
_cell_formula_units_Z 72
_cell_length_a 12.544948
_cell_length_b 12.544948
_cell_length_c 30.662646
_cell_angle_alpha 90.000000
_cell_angle_beta 90.000000
_cell_angle_gamma 120.000000
_cell_volume 4179.054084
_symmetry_space_group_name_H-M "P -6 M 2"
_symmetry_group_IT_number 187
_symmetry_cell_setting 'hexagonal'
loop_
_space_group_symop_operation_xyz
x,y,z
-x+y,-x,-z
-y,x-y,z
x,y,-z
-x+y,-x,z
-y,x-y,-z
-y,-x,-z
-x+y,y,-z
x,x-y,-z
-x+y,y,z
x,x-y,z
-y,-x,z
loop_
_atom_site_type_symbol
_atom_site_label
_atom_site_fract_x
_atom_site_fract_y
_atom_site_fract_z
Si Si1 0.754360 0.999502 0.324419
Si Si2 0.916598 0.581524 0.835363
Si Si3 0.664980 0.582410 0.000000
Si Si4 0.333665 0.914604 0.754004
Si Si5 0.582463 0.917377 0.917362
Si Si6 0.334586 0.418129 0.500000
Si Si7 0.752951 0.000089 0.577012
O O1 0.869699 0.130301 0.311820
O O2 0.708356 0.999640 0.373557
O O3 0.796778 0.898389 0.319571
O O4 0.641388 0.969557 0.292713
O O5 0.796816 0.593631 0.839759
O O6 0.876770 0.438385 0.838739
O O7 0.982248 0.639254 0.789796
O O8 0.010767 0.658755 0.873494
O O9 0.655040 0.651369 0.042240
O O10 0.560299 0.439702 0.000000
O O11 0.795298 0.590596 0.000000
O O12 0.439561 0.879121 0.752663
O O13 0.207084 0.792917 0.765943
O O14 0.439724 0.879447 0.918187
O O15 0.590687 0.795344 0.920139
O O16 0.448062 0.551939 0.500000
O O17 0.215557 0.431114 0.500000
O O18 0.340362 0.349562 0.456404
O O19 0.876728 0.123273 0.566287
O O20 0.780428 0.890214 0.569167
#
# Coordination Sequence:
#
# PCOD8327070 Si02
#       7
#    12  12   6  12  12   6  12
#     4   9  17  30  49  73  99 125 154 191 238 289
#     4  10  20  34  53  75  99 128 163 205 249 292
#     4  10  20  34  54  78 104 134 168 208 250 292
#     4  10  20  33  50  72  99 131 165 201 239 282
#     4  10  20  34  54  78 104 134 167 205 247 293
#     4  10  20  32  46  66  94 128 162 194 232 280
#     4   9  17  30  50  74  96 119 151 195 243 286
#
# _framework density 17.22878
#
# number of rings (size 3 to 8) (size 9 to 14) (size 15 to 20)
#    0.000    2.333    0.000    3.000    0.000    2.000 
#    0.000    5.000    0.000   12.667    0.000    0.000 
#    0.000    0.000    0.000    0.000    0.000    0.000 
#
# Total GULP energy -892938.712030 kJ/mol
# GULP energy per Si atom -12401.926556 kJ/mol
# Density = 1.718957 g / cm^3
# Si number density = 17.228780 Si / 1000 Ang^3
#
#
#
# Elastic Constant Matrix: (Units=GPa)
#
#
# Indices 1 2 3 4 5 6 
#
# 1 97.6320 49.7597 48.3304 0.0000 -0.0003 0.0000
# 2 49.7597 97.6320 48.3304 0.0000 0.0003 0.0000
# 3 48.3304 48.3304 115.0913 0.0000 0.0000 0.0000
# 4 0.0000 0.0000 0.0000 22.8288 0.0000 0.0003
# 5 -0.0003 0.0003 0.0000 0.0000 22.8288 0.0000
# 6 0.0000 0.0000 0.0000 0.0003 0.0000 23.9361
#
#
#
# Elastic Compliance Matrix: (Units=1/GPa)
#
#
# Indices 1 2 3 4 5 6 
#
# 1 0.015126 -0.005763 -0.003932 0.000000 0.000000 0.000000
# 2 -0.005763 0.015126 -0.003932 0.000000 0.000000 0.000000
# 3 -0.003932 -0.003932 0.011991 0.000000 0.000000 0.000000
# 4 0.000000 0.000000 0.000000 0.043804 0.000000 -0.000001
# 5 0.000000 0.000000 0.000000 0.000000 0.043804 0.000000
# 6 0.000000 0.000000 0.000000 -0.000001 0.000000 0.041778
#
#
# Mechanical properties :
#
#
# Convention : Reuss Voigt Hill
#
# Bulk Modulus (GPa) = 66.71192 67.02183 66.86688
# Shear Modulus (GPa) = 24.52429 24.84774 24.68602
#
# Velocity S-wave (km/s) = 3.77696 3.80178 3.78939
# Velocity P-wave (km/s) = 7.60433 7.63262 7.61849
#
# Compressibility (1/GPa) = 0.01498983
#
# Stress axis : x y z
#
# Youngs Moduli (GPa) = 66.11098 66.11098 83.39574
#
# Poissons Ratio (x) = 0.38099 0.32790
# Poissons Ratio (y) = 0.38099 0.32790
# Poissons Ratio (z) = 0.25994 0.25994
#
# Static dielectric constant tensor:
#      x y z
#    x 3.095090 0.000000 0.000000 
#    y 0.000000 3.095090 0.000000 
#    z 0.000000 0.000000 3.502720 
# 
# 
# High freq. dielectric constant tensor:
#      x y z
#    x 1.657290 0.000000 0.000000 
#    y 0.000000 1.657290 0.000000 
#    z 0.000000 0.000000 1.684920 
# 
# From -- ./inp_files/4583.got.cif
#   From: 2010.03.12/outbox.cif.g09.slc.cpg/sg187_3_cif.got.tgz:4583.got - 2010.04.01 11:58:23.
