data_PCOD8327213
_publ_section_title
;
Structure prediction by ZEFSAII (Michael W. Deem and Ramdas Pophale) SiO2 
 PCOD8327213
Probable space group: P -6 M 2
;
_chemical_formula_sum "Si O2"
_cell_formula_units_Z 60
_cell_length_a 12.386505
_cell_length_b 12.386505
_cell_length_c 25.840914
_cell_angle_alpha 90.000000
_cell_angle_beta 90.000000
_cell_angle_gamma 120.000000
_cell_volume 3433.492215
_symmetry_space_group_name_H-M "P -6 M 2"
_symmetry_group_IT_number 187
_symmetry_cell_setting 'hexagonal'
loop_
_space_group_symop_operation_xyz
x,y,z
-x+y,-x,-z
-y,x-y,z
x,y,-z
-x+y,-x,z
-y,x-y,-z
-y,-x,-z
-x+y,y,-z
x,x-y,-z
-x+y,y,z
x,x-y,z
-y,-x,z
loop_
_atom_site_type_symbol
_atom_site_label
_atom_site_fract_x
_atom_site_fract_y
_atom_site_fract_z
Si Si1 0.001557 0.253557 0.400008
Si Si2 0.585567 0.920169 0.900062
Si Si3 0.414859 0.080096 0.000000
Si Si4 0.920046 0.585273 0.199400
Si Si5 0.331960 0.919269 0.500000
Si Si6 0.333380 0.919621 0.299657
O O1 0.107834 0.215667 0.401126
O O2 0.009705 0.333205 0.449950
O O3 0.012732 0.333963 0.349972
O O4 0.869977 0.130024 0.399369
O O5 0.441946 0.883891 0.899667
O O6 0.590864 0.795432 0.901797
O O7 0.655991 0.996091 0.849209
O O8 0.656423 0.001362 0.949714
O O9 0.558868 0.117736 0.000000
O O10 0.407873 0.203937 0.000000
O O11 0.796329 0.592657 0.197973
O O12 0.882896 0.441448 0.197191
O O13 0.994734 0.651210 0.250992
O O14 0.224543 0.775458 0.500000
O O15 0.462388 0.924775 0.500000
O O16 0.449509 0.899017 0.306982
O O17 0.213960 0.786041 0.290547
#
# Coordination Sequence:
#
# PCOD8327213 Si02
#       6
#    12  12   6  12   6  12
#     4  10  20  34  53  76 103 135 170 208 250 299
#     4  10  20  34  54  78 104 134 168 210 256 302
#     4  10  20  34  54  78 104 134 168 208 252 300
#     4  10  20  34  53  76 103 135 170 209 252 300
#     4  10  20  34  54  78 104 134 168 210 256 302
#     4  10  20  34  54  78 104 134 168 210 256 302
#
# _framework density 17.474920000000001
#
# number of rings (size 3 to 8) (size 9 to 14) (size 15 to 20)
#    0.000    2.000    0.000    4.000    0.000    0.000 
#    0.000    8.000    0.000   17.600    0.000    0.000 
#    0.000    0.000    0.000    0.000    0.000    0.000 
#
# Total GULP energy -744253.020116 kJ/mol
# GULP energy per Si atom -12404.217002 kJ/mol
# Density = 1.743515 g / cm^3
# Si number density = 17.474920 Si / 1000 Ang^3
#
#
#
# Elastic Constant Matrix: (Units=GPa)
#
#
# Indices 1 2 3 4 5 6 
#
# 1 127.1098 86.3581 74.3526 0.0000 -0.0005 0.0000
# 2 86.3581 127.1098 74.3526 0.0000 0.0005 0.0000
# 3 74.3526 74.3526 145.9808 0.0000 0.0000 0.0000
# 4 0.0000 0.0000 0.0000 16.0864 0.0000 0.0005
# 5 -0.0005 0.0005 0.0000 0.0000 16.0864 0.0000
# 6 0.0000 0.0000 0.0000 0.0005 0.0000 20.3759
#
#
#
# Elastic Compliance Matrix: (Units=1/GPa)
#
#
# Indices 1 2 3 4 5 6 
#
# 1 0.015900 -0.008639 -0.003698 0.000000 0.000001 0.000000
# 2 -0.008639 0.015900 -0.003698 0.000000 -0.000001 0.000000
# 3 -0.003698 -0.003698 0.010617 0.000000 0.000000 0.000000
# 4 0.000000 0.000000 0.000000 0.062164 0.000000 -0.000002
# 5 0.000001 -0.000001 0.000000 0.000000 0.062164 0.000000
# 6 0.000000 0.000000 0.000000 -0.000002 0.000000 0.049078
#
#
# Mechanical properties :
#
#
# Convention : Reuss Voigt Hill
#
# Bulk Modulus (GPa) = 96.65267 96.70303 96.67785
# Shear Modulus (GPa) = 19.89316 21.51887 20.70601
#
# Velocity S-wave (km/s) = 3.37765 3.51296 3.44597
# Velocity P-wave (km/s) = 8.40481 8.48014 8.44256
#
# Compressibility (1/GPa) = 0.01034633
#
# Stress axis : x y z
#
# Youngs Moduli (GPa) = 62.89398 62.89398 94.18559
#
# Poissons Ratio (x) = 0.54335 0.34831
# Poissons Ratio (y) = 0.54335 0.34831
# Poissons Ratio (z) = 0.23259 0.23259
#
# Static dielectric constant tensor:
#      x y z
#    x 3.181730 0.000000 0.000000 
#    y 0.000000 3.181730 0.000000 
#    z 0.000000 0.000000 3.497250 
# 
# 
# High freq. dielectric constant tensor:
#      x y z
#    x 1.676040 0.000000 0.000000 
#    y 0.000000 1.676040 0.000000 
#    z 0.000000 0.000000 1.700080 
# 
# From -- ./inp_files/4182.got.cif
#   From: 2010.03.12/outbox.cif.g09.slc.cpg/sg187_3_cif.got.tgz:4182.got - 2010.04.01 11:58:23.
