data_PCOD8327816
_publ_section_title
;
Structure prediction by ZEFSAII (Michael W. Deem and Ramdas Pophale) SiO2 
 PCOD8327816
Probable space group: P -6 2 M
;
_chemical_formula_sum "Si O2"
_cell_formula_units_Z 72
_cell_length_a 15.129140
_cell_length_b 15.129140
_cell_length_c 18.111928
_cell_angle_alpha 90.000000
_cell_angle_beta 90.000000
_cell_angle_gamma 120.000000
_cell_volume 3590.242620
_symmetry_space_group_name_H-M "P -6 2 M"
_symmetry_group_IT_number 189
_symmetry_cell_setting 'hexagonal'
loop_
_space_group_symop_operation_xyz
x,y,z
-x+y,-x,-z
-y,x-y,z
x,y,-z
-x+y,-x,z
-y,x-y,-z
x-y,-y,-z
-x,-x+y,-z
y,x,-z
y,x,z
x-y,-y,z
-x,-x+y,z
loop_
_atom_site_type_symbol
_atom_site_label
_atom_site_fract_x
_atom_site_fract_y
_atom_site_fract_z
Si Si1 0.884823 0.767960 0.084544
Si Si2 0.880000 0.293861 0.314110
Si Si3 0.883413 0.650136 0.585876
Si Si4 0.446219 0.197333 0.846904
Si Si5 0.534229 0.415750 0.085672
Si Si6 0.881363 0.446667 0.580396
O O1 0.854706 0.854706 0.093651
O O2 0.812115 0.671996 0.133240
O O3 0.000000 0.814252 0.112886
O O4 0.875179 0.732030 0.000000
O O5 0.858883 0.193350 0.360950
O O6 0.814629 0.266405 0.240058
O O7 0.837229 0.355954 0.360528
O O8 0.000000 0.359121 0.295890
O O9 0.858894 0.656767 0.500000
O O10 0.864898 0.538569 0.606133
O O11 0.000000 0.736130 0.603255
O O12 0.501756 0.316640 0.865204
O O13 0.497331 0.143717 0.891964
O O14 0.455202 0.455202 0.100801
O O15 0.533545 0.388047 0.000000
O O16 0.829662 0.404767 0.500000
O O17 0.000000 0.486061 0.572111
#
# Coordination Sequence:
#
# PCOD8327816 Si02
#       6
#    12  12  12  12  12  12
#     4  10  20  37  62  90 119 152 195 250 311 375
#     4  11  23  37  58  88 124 160 198 243 304 366
#     4   9  19  37  61  87 118 160 206 249 297 352
#     4  12  25  40  60  88 124 161 204 258 313 370
#     4  11  24  43  66  88 115 160 210 256 312 376
#     4   8  16  34  58  82 113 153 195 240 287 342
#
# _framework density 20.054354
#
# number of rings (size 3 to 8) (size 9 to 14) (size 15 to 20)
#    0.000    1.833    0.000    5.500    2.333    5.667 
#    1.000    0.000    0.000    0.333    0.000    0.000 
#    0.000    0.000    0.000    0.000    0.000    0.000 
#
# Total GULP energy -892899.802547 kJ/mol
# GULP energy per Si atom -12401.386146 kJ/mol
# Density = 2.000871 g / cm^3
# Si number density = 20.054354 Si / 1000 Ang^3
#
#
#
# Elastic Constant Matrix: (Units=GPa)
#
#
# Indices 1 2 3 4 5 6 
#
# 1 77.0658 16.5434 47.1184 0.0000 0.0000 0.0000
# 2 16.5434 77.0658 47.1184 0.0000 0.0000 0.0000
# 3 47.1184 47.1184 107.3574 0.0000 0.0000 0.0000
# 4 0.0000 0.0000 0.0000 20.6812 0.0000 0.0000
# 5 0.0000 0.0000 0.0000 0.0000 20.6812 0.0000
# 6 0.0000 0.0000 0.0000 0.0000 0.0000 30.2612
#
#
#
# Elastic Compliance Matrix: (Units=1/GPa)
#
#
# Indices 1 2 3 4 5 6 
#
# 1 0.017831 0.001308 -0.008400 0.000000 0.000000 0.000000
# 2 0.001308 0.017831 -0.008400 0.000000 0.000000 0.000000
# 3 -0.008400 -0.008400 0.016688 0.000000 0.000000 0.000000
# 4 0.000000 0.000000 0.000000 0.048353 0.000000 0.000000
# 5 0.000000 0.000000 0.000000 0.000000 0.048353 0.000000
# 6 0.000000 0.000000 0.000000 0.000000 0.000000 0.033046
#
#
# Mechanical properties :
#
#
# Convention : Reuss Voigt Hill
#
# Bulk Modulus (GPa) = 46.80293 53.67216 50.23754
# Shear Modulus (GPa) = 22.70585 24.37197 23.53891
#
# Velocity S-wave (km/s) = 3.36849 3.48989 3.42973
# Velocity P-wave (km/s) = 6.20626 6.56205 6.38664
#
# Compressibility (1/GPa) = 0.02136619
#
# Stress axis : x y z
#
# Youngs Moduli (GPa) = 56.08233 56.08233 59.92294
#
# Poissons Ratio (x) = -0.07336 0.50335
# Poissons Ratio (y) = -0.07336 0.50335
# Poissons Ratio (z) = 0.47109 0.47109
#
# Static dielectric constant tensor:
#      x y z
#    x 3.608340 0.000000 0.000000 
#    y 0.000000 3.608340 0.000000 
#    z 0.000000 0.000000 3.771430 
# 
# 
# High freq. dielectric constant tensor:
#      x y z
#    x 1.780120 0.000000 0.000000 
#    y 0.000000 1.780120 0.000000 
#    z 0.000000 0.000000 1.782010 
# 
# From -- ./inp_files/3118.got.cif
#   From: 2010.03.12/outbox.cif.g09.slc.cpg/sg189_2_cif.got.tgz:3118.got - 2010.04.01 12:03:36.
