data_PCOD8327290
_publ_section_title
;
Structure prediction by ZEFSAII (Michael W. Deem and Ramdas Pophale) SiO2 
 PCOD8327290
Probable space group: P -6 M 2
;
_chemical_formula_sum "Si O2"
_cell_formula_units_Z 72
_cell_length_a 23.339691
_cell_length_b 23.339691
_cell_length_c 9.399133
_cell_angle_alpha 90.000000
_cell_angle_beta 90.000000
_cell_angle_gamma 120.000000
_cell_volume 4434.132135
_symmetry_space_group_name_H-M "P -6 M 2"
_symmetry_group_IT_number 187
_symmetry_cell_setting 'hexagonal'
loop_
_space_group_symop_operation_xyz
x,y,z
-x+y,-x,-z
-y,x-y,z
x,y,-z
-x+y,-x,z
-y,x-y,-z
-y,-x,-z
-x+y,y,-z
x,x-y,-z
-x+y,y,z
x,x-y,z
-y,-x,z
loop_
_atom_site_type_symbol
_atom_site_label
_atom_site_fract_x
_atom_site_fract_y
_atom_site_fract_z
Si Si1 0.725783 0.138736 0.842712
Si Si2 0.591179 0.863585 0.339323
Si Si3 0.719017 0.924831 0.833322
Si Si4 0.465796 0.799423 0.835249
Si Si5 0.267693 0.070979 0.831549
Si Si6 0.535756 0.334193 0.666182
O O1 0.790256 0.209745 0.852668
O O2 0.747580 0.088153 0.776673
O O3 0.672431 0.143265 0.742533
O O4 0.694476 0.115635 0.000000
O O5 0.593102 0.888972 0.500000
O O6 0.589083 0.794542 0.340018
O O7 0.656034 0.915969 0.254104
O O8 0.526115 0.854044 0.258801
O O9 0.737719 0.868860 0.794128
O O10 0.781631 0.995789 0.789090
O O11 0.702170 0.922213 0.000000
O O12 0.400857 0.801714 0.791088
O O13 0.451986 0.725993 0.803243
O O14 0.484040 0.817585 0.000000
O O15 0.247079 0.123540 0.769214
O O16 0.273116 0.079284 0.000000
O O17 0.524757 0.337051 0.500000
O O18 0.547612 0.273806 0.704395
O O19 0.599219 0.400782 0.720961
#
# Coordination Sequence:
#
# PCOD8327290 Si02
#       6
#    12  12  12  12  12  12
#     4   8  14  25  40  57  77 103 135 169 203 237
#     4   9  17  28  41  59  85 115 144 177 218 257
#     4   9  16  27  46  69  88 109 140 173 203 242
#     4   9  16  26  41  61  85 113 146 184 224 265
#     4   8  14  26  45  67  89 111 135 166 204 244
#     4   9  16  25  37  54  78 107 136 167 206 250
#
# _framework density 16.237676
#
# number of rings (size 3 to 8) (size 9 to 14) (size 15 to 20)
#    0.000    3.333    0.000    1.833    0.000    4.000 
#    0.000    0.833    0.000    4.833    0.000    4.667 
#    0.000    0.000    0.000    0.000    0.000    0.333 
#
# Total GULP energy -892310.844885 kJ/mol
# GULP energy per Si atom -12393.206179 kJ/mol
# Density = 1.620072 g / cm^3
# Si number density = 16.237676 Si / 1000 Ang^3
#
#
#
# Elastic Constant Matrix: (Units=GPa)
#
#
# Indices 1 2 3 4 5 6 
#
# 1 99.8150 57.2074 37.6296 0.0000 0.0000 0.0000
# 2 57.2074 99.8150 37.6296 0.0000 0.0000 0.0000
# 3 37.6296 37.6296 54.1894 0.0000 0.0000 0.0000
# 4 0.0000 0.0000 0.0000 13.1307 0.0000 0.0000
# 5 0.0000 0.0000 0.0000 0.0000 13.1307 0.0000
# 6 0.0000 0.0000 0.0000 0.0000 0.0000 21.3038
#
#
#
# Elastic Compliance Matrix: (Units=1/GPa)
#
#
# Indices 1 2 3 4 5 6 
#
# 1 0.016508 -0.006962 -0.006628 0.000000 0.000000 0.000000
# 2 -0.006962 0.016508 -0.006628 0.000000 0.000000 0.000000
# 3 -0.006628 -0.006628 0.027660 0.000000 0.000000 0.000000
# 4 0.000000 0.000000 0.000000 0.076157 0.000000 0.000000
# 5 0.000000 0.000000 0.000000 0.000000 0.076157 0.000000
# 6 0.000000 0.000000 0.000000 0.000000 0.000000 0.046940
#
#
# Mechanical properties :
#
#
# Convention : Reuss Voigt Hill
#
# Bulk Modulus (GPa) = 49.41535 57.63918 53.52726
# Shear Modulus (GPa) = 16.28064 17.60325 16.94194
#
# Velocity S-wave (km/s) = 3.16989 3.29614 3.23363
# Velocity P-wave (km/s) = 6.62542 7.07533 6.85407
#
# Compressibility (1/GPa) = 0.02023663
#
# Stress axis : x y z
#
# Youngs Moduli (GPa) = 60.57772 60.57772 36.15389
#
# Poissons Ratio (x) = 0.42176 0.23964
# Poissons Ratio (y) = 0.42176 0.23964
# Poissons Ratio (z) = 0.40154 0.40154
#
# Static dielectric constant tensor:
#      x y z
#    x 3.058840 0.000000 0.000000 
#    y 0.000000 3.058840 0.000000 
#    z 0.000000 0.000000 3.053330 
# 
# 
# High freq. dielectric constant tensor:
#      x y z
#    x 1.604560 0.000000 0.000000 
#    y 0.000000 1.604560 0.000000 
#    z 0.000000 0.000000 1.607440 
# 
# From -- ./inp_files/995.got.cif
#   From: 2010.03.12/outbox.cif.g09.slc.cpg/sg187_1_cif.got.tgz:995.got - 2010.04.01 11:58:23.
