data_PCOD8327928
_publ_section_title
;
Structure prediction by ZEFSAII (Michael W. Deem and Ramdas Pophale) SiO2 
 PCOD8327928
Probable space group: P -6 2 C
;
_chemical_formula_sum "Si O2"
_cell_formula_units_Z 66
_cell_length_a 17.721372
_cell_length_b 17.721372
_cell_length_c 13.229056
_cell_angle_alpha 90.000000
_cell_angle_beta 90.000000
_cell_angle_gamma 120.000000
_cell_volume 3597.942107
_symmetry_space_group_name_H-M "P -6 2 C"
_symmetry_group_IT_number 190
_symmetry_cell_setting 'hexagonal'
loop_
_space_group_symop_operation_xyz
x,y,z
-x+y,-x,1/2-z
-y,x-y,z
x,y,1/2-z
-x+y,-x,z
-y,x-y,1/2-z
x-y,-y,-z
-x,-x+y,-z
y,x,-z
y,x,1/2+z
x-y,-y,1/2+z
-x,-x+y,1/2+z
loop_
_atom_site_type_symbol
_atom_site_label
_atom_site_fract_x
_atom_site_fract_y
_atom_site_fract_z
Si Si1 0.528563 0.673191 0.365229
Si Si2 0.476067 0.421675 0.862087
Si Si3 0.238115 0.854262 0.634255
Si Si4 0.677784 0.677784 0.500000
Si Si5 0.293126 0.476161 0.002476
Si Si6 0.557948 0.133999 0.134547
O O1 0.558944 0.706453 0.250000
O O2 0.445394 0.577002 0.362559
O O3 0.601379 0.661462 0.422897
O O4 0.502758 0.737102 0.422852
O O5 0.436700 0.393957 0.750000
O O6 0.430458 0.338550 0.935807
O O7 0.464467 0.501725 0.898393
O O8 0.213909 0.856837 0.750000
O O9 0.168162 0.764581 0.582148
O O10 0.331630 0.859764 0.618433
O O11 0.241744 0.935715 0.573317
O O12 0.363986 0.562798 0.940294
O O13 0.590114 0.156300 0.250000
#
# Coordination Sequence:
#
# PCOD8327928 Si02
#       6
#    12  12  12   6  12  12
#     4  10  20  33  48  68  90 114 153 202 247 292
#     4  10  20  35  52  66  86 122 167 204 239 299
#     4  10  20  33  48  68  90 114 153 202 247 292
#     4  10  16  28  52  68  78 110 148 188 230 288
#     4  11  20  29  46  65  90 111 142 192 250 293
#     4  10  20  35  52  66  86 122 167 204 239 299
#
# _framework density 18.343820000000001
#
# number of rings (size 3 to 8) (size 9 to 14) (size 15 to 20)
#    0.000    1.818    1.818    4.364    0.000    0.000 
#    8.727    0.000    0.000    0.000    0.000    0.000 
#    0.000    0.000    0.000    0.000    0.000    0.000 
#
# Total GULP energy -817699.534071 kJ/mol
# GULP energy per Si atom -12389.386880 kJ/mol
# Density = 1.830207 g / cm^3
# Si number density = 18.343820 Si / 1000 Ang^3
#
#
#
# Elastic Constant Matrix: (Units=GPa)
#
#
# Indices 1 2 3 4 5 6 
#
# 1 48.3317 10.3494 25.5059 0.0000 0.0000 0.0000
# 2 10.3494 48.3317 25.5059 0.0000 0.0000 0.0000
# 3 25.5059 25.5059 126.7342 0.0000 0.0000 0.0000
# 4 0.0000 0.0000 0.0000 31.2990 0.0000 0.0000
# 5 0.0000 0.0000 0.0000 0.0000 31.2990 0.0000
# 6 0.0000 0.0000 0.0000 0.0000 0.0000 18.9911
#
#
#
# Elastic Compliance Matrix: (Units=1/GPa)
#
#
# Indices 1 2 3 4 5 6 
#
# 1 0.023491 -0.002837 -0.004157 0.000000 0.000000 0.000000
# 2 -0.002837 0.023491 -0.004157 0.000000 0.000000 0.000000
# 3 -0.004157 -0.004157 0.009564 0.000000 0.000000 0.000000
# 4 0.000000 0.000000 0.000000 0.031950 0.000000 0.000000
# 5 0.000000 0.000000 0.000000 0.000000 0.031950 0.000000
# 6 0.000000 0.000000 0.000000 0.000000 0.000000 0.052656
#
#
# Mechanical properties :
#
#
# Convention : Reuss Voigt Hill
#
# Bulk Modulus (GPa) = 29.20061 38.45778 33.82919
# Shear Modulus (GPa) = 24.17577 27.12026 25.64802
#
# Velocity S-wave (km/s) = 3.63426 3.84922 3.74329
# Velocity P-wave (km/s) = 5.79340 6.38481 6.09628
#
# Compressibility (1/GPa) = 0.03424586
#
# Stress axis : x y z
#
# Youngs Moduli (GPa) = 42.56865 42.56865 104.56177
#
# Poissons Ratio (x) = 0.12075 0.43465
# Poissons Ratio (y) = 0.12075 0.43465
# Poissons Ratio (z) = 0.17695 0.17695
#
# Static dielectric constant tensor:
#      x y z
#    x 3.147260 0.000000 0.000000 
#    y 0.000000 3.147260 0.000000 
#    z 0.000000 0.000000 4.026110 
# 
# 
# High freq. dielectric constant tensor:
#      x y z
#    x 1.662080 0.000000 0.000000 
#    y 0.000000 1.662080 0.000000 
#    z 0.000000 0.000000 1.758130 
# 
# From -- ./inp_files/3021.got.cif
#   From: 2010.06.25/outbox.cif.g09.slc.cpg/sg190_2_cif.got.tgz:3021.got - 2010.06.28 13:08:06.
