data_PCOD8327578
_publ_section_title
;
Structure prediction by ZEFSAII (Michael W. Deem and Ramdas Pophale) SiO2 
 PCOD8327578
Probable space group: P -6 2 M
;
_chemical_formula_sum "Si O2"
_cell_formula_units_Z 72
_cell_length_a 23.665332
_cell_length_b 23.665332
_cell_length_c 9.184152
_cell_angle_alpha 90.000000
_cell_angle_beta 90.000000
_cell_angle_gamma 120.000000
_cell_volume 4454.458299
_symmetry_space_group_name_H-M "P -6 2 M"
_symmetry_group_IT_number 189
_symmetry_cell_setting 'hexagonal'
loop_
_space_group_symop_operation_xyz
x,y,z
-x+y,-x,-z
-y,x-y,z
x,y,-z
-x+y,-x,z
-y,x-y,-z
x-y,-y,-z
-x,-x+y,-z
y,x,-z
y,x,z
x-y,-y,z
-x,-x+y,z
loop_
_atom_site_type_symbol
_atom_site_label
_atom_site_fract_x
_atom_site_fract_y
_atom_site_fract_z
Si Si1 0.272489 0.199468 0.331914
Si Si2 0.404609 0.268575 0.829278
Si Si3 0.598540 0.075405 0.329313
Si Si4 0.409823 0.925105 0.832766
Si Si5 0.862141 0.262722 0.168547
Si Si6 0.731146 0.803094 0.669582
O O1 0.295438 0.213226 0.500000
O O2 0.213946 0.213946 0.302331
O O3 0.333331 0.246908 0.232750
O O4 0.246154 0.124078 0.289480
O O5 0.456886 0.334120 0.750604
O O6 0.423732 0.213140 0.795205
O O7 0.404815 0.281760 0.000000
O O8 0.607523 0.089388 0.500000
O O9 0.545847 0.093505 0.270563
O O10 0.575383 0.000000 0.294156
O O11 0.334773 0.877607 0.787256
O O12 0.428482 0.000000 0.808924
O O13 0.422056 0.913529 0.000000
O O14 0.911024 0.246794 0.253674
O O15 0.877104 0.260147 0.000000
O O16 0.717175 0.790930 0.500000
O O17 0.787721 0.787721 0.718708
#
# Coordination Sequence:
#
# PCOD8327578 Si02
#       6
#    12  12  12  12  12  12
#     4   9  17  29  44  62  87 119 151 184 224 267
#     4  10  19  30  46  68  92 117 147 183 221 262
#     4  10  20  32  46  66  92 120 149 181 218 260
#     4   9  17  30  48  68  90 116 145 178 217 261
#     4   9  18  31  47  68  92 117 145 179 220 264
#     4   9  17  28  43  64  89 117 149 184 222 265
#
# _framework density 16.163582999999999
#
# number of rings (size 3 to 8) (size 9 to 14) (size 15 to 20)
#    0.000    2.667    0.000    2.000    0.000    5.667 
#    0.000    1.667    0.000    1.000    0.000    4.667 
#    0.000    0.000    0.000    8.333    0.000    8.667 
#
# Total GULP energy -892783.892818 kJ/mol
# GULP energy per Si atom -12399.776289 kJ/mol
# Density = 1.612679 g / cm^3
# Si number density = 16.163583 Si / 1000 Ang^3
#
#
#
# Elastic Constant Matrix: (Units=GPa)
#
#
# Indices 1 2 3 4 5 6 
#
# 1 112.7668 66.2493 48.4820 0.0000 0.0000 0.0000
# 2 66.2493 112.7668 48.4820 0.0000 0.0000 0.0000
# 3 48.4820 48.4820 64.7804 0.0000 0.0000 0.0000
# 4 0.0000 0.0000 0.0000 23.9940 0.0000 0.0000
# 5 0.0000 0.0000 0.0000 0.0000 23.9940 0.0000
# 6 0.0000 0.0000 0.0000 0.0000 0.0000 23.2587
#
#
#
# Elastic Compliance Matrix: (Units=1/GPa)
#
#
# Indices 1 2 3 4 5 6 
#
# 1 0.015446 -0.006052 -0.007031 0.000000 0.000000 0.000000
# 2 -0.006052 0.015446 -0.007031 0.000000 0.000000 0.000000
# 3 -0.007031 -0.007031 0.025960 0.000000 0.000000 0.000000
# 4 0.000000 0.000000 0.000000 0.041677 0.000000 0.000000
# 5 0.000000 0.000000 0.000000 0.000000 0.041677 0.000000
# 6 0.000000 0.000000 0.000000 0.000000 0.000000 0.042995
#
#
# Mechanical properties :
#
#
# Convention : Reuss Voigt Hill
#
# Bulk Modulus (GPa) = 60.14643 68.52671 64.33657
# Shear Modulus (GPa) = 21.83703 22.72272 22.27988
#
# Velocity S-wave (km/s) = 3.67959 3.75346 3.71671
# Velocity P-wave (km/s) = 7.43938 7.82767 7.63599
#
# Compressibility (1/GPa) = 0.01662609
#
# Stress axis : x y z
#
# Youngs Moduli (GPa) = 64.74256 64.74256 38.52015
#
# Poissons Ratio (x) = 0.39179 0.27082
# Poissons Ratio (y) = 0.39179 0.27082
# Poissons Ratio (z) = 0.45519 0.45519
#
# Static dielectric constant tensor:
#      x y z
#    x 3.086330 0.000000 0.000000 
#    y 0.000000 3.086330 0.000000 
#    z 0.000000 0.000000 3.113000 
# 
# 
# High freq. dielectric constant tensor:
#      x y z
#    x 1.610840 0.000000 0.000000 
#    y 0.000000 1.610840 0.000000 
#    z 0.000000 0.000000 1.627730 
# 
# From -- ./inp_files/1203.got.cif
#   From: 2010.03.12/outbox.cif.g09.slc.cpg/sg189_1_cif.got.tgz:1203.got - 2010.04.01 12:03:36.
