data_PCOD8327325
_publ_section_title
;
Structure prediction by ZEFSAII (Michael W. Deem and Ramdas Pophale) SiO2 
 PCOD8327325
Probable space group: P -6 C 2
;
_chemical_formula_sum "Si O2"
_cell_formula_units_Z 72
_cell_length_a 13.593509
_cell_length_b 13.593509
_cell_length_c 27.523920
_cell_angle_alpha 90.000000
_cell_angle_beta 90.000000
_cell_angle_gamma 120.000000
_cell_volume 4404.575682
_symmetry_space_group_name_H-M "P -6 C 2"
_symmetry_group_IT_number 188
_symmetry_cell_setting 'hexagonal'
loop_
_space_group_symop_operation_xyz
x,y,z
-x+y,-x,1/2-z
-y,x-y,z
x,y,1/2-z
-x+y,-x,z
-y,x-y,1/2-z
-y,-x,-z
-x+y,y,-z
x,x-y,-z
-x+y,y,1/2+z
x,x-y,1/2+z
-y,-x,1/2+z
loop_
_atom_site_type_symbol
_atom_site_label
_atom_site_fract_x
_atom_site_fract_y
_atom_site_fract_z
Si Si1 0.192014 0.807987 0.000000
Si Si2 0.718428 0.652172 0.495306
Si Si3 0.311327 0.457195 0.398361
Si Si4 0.370315 0.563332 0.750000
Si Si5 0.446900 0.114122 0.393154
Si Si6 0.351560 0.470848 0.647599
Si Si7 0.892258 0.558927 0.098678
O O1 0.264023 0.807056 0.952933
O O2 0.060259 0.756165 0.987794
O O3 0.854640 0.709280 0.500000
O O4 0.664066 0.569721 0.450198
O O5 0.662680 0.567193 0.540481
O O6 0.427688 0.576116 0.390834
O O7 0.217437 0.439537 0.358869
O O8 0.341099 0.358430 0.385015
O O9 0.241501 0.542275 0.750000
O O10 0.392235 0.508598 0.702588
O O11 0.574308 0.140389 0.382583
O O12 0.422549 0.215357 0.378848
O O13 0.361058 0.001574 0.363240
#
# Coordination Sequence:
#
# PCOD8327325 Si02
#       7
#     6  12  12   6  12  12  12
#     4  10  18  30  44  68 110 134 166 206 250 304
#     4   9  17  29  43  64  95 136 173 208 236 289
#     4  10  19  31  48  74 104 136 164 203 254 307
#     4  10  18  32  54  74 104 124 170 208 248 318
#     4  10  18  31  49  69  98 133 171 205 245 290
#     4  11  19  32  53  74 102 131 165 208 261 305
#     4   9  19  29  48  69  99 133 173 201 240 290
#
# _framework density 16.346636
#
# number of rings (size 3 to 8) (size 9 to 14) (size 15 to 20)
#    0.167    2.000    3.333    1.167    0.000    0.667 
#    0.500    1.667    0.000    5.667    0.000    0.000 
#    0.000    0.000    0.000    0.000    0.000    0.000 
#
# Total GULP energy -892072.102125 kJ/mol
# GULP energy per Si atom -12389.890307 kJ/mol
# Density = 1.630943 g / cm^3
# Si number density = 16.346636 Si / 1000 Ang^3
#
#
#
# Elastic Constant Matrix: (Units=GPa)
#
#
# Indices 1 2 3 4 5 6 
#
# 1 96.2435 46.2823 23.9857 0.0001 0.0000 0.0000
# 2 46.2823 96.2435 23.9857 -0.0001 0.0000 0.0000
# 3 23.9857 23.9857 58.9668 0.0000 0.0000 0.0000
# 4 0.0001 -0.0001 0.0000 14.1236 0.0000 0.0000
# 5 0.0000 0.0000 0.0000 0.0000 14.1236 0.0001
# 6 0.0000 0.0000 0.0000 0.0000 0.0001 24.9806
#
#
#
# Elastic Compliance Matrix: (Units=1/GPa)
#
#
# Indices 1 2 3 4 5 6 
#
# 1 0.014072 -0.005943 -0.003307 0.000000 0.000000 0.000000
# 2 -0.005943 0.014072 -0.003307 0.000000 0.000000 0.000000
# 3 -0.003307 -0.003307 0.019649 0.000000 0.000000 0.000000
# 4 0.000000 0.000000 0.000000 0.070804 0.000000 0.000000
# 5 0.000000 0.000000 0.000000 0.000000 0.070804 0.000000
# 6 0.000000 0.000000 0.000000 0.000000 0.000000 0.040031
#
#
# Mechanical properties :
#
#
# Convention : Reuss Voigt Hill
#
# Bulk Modulus (GPa) = 44.09079 48.88460 46.48770
# Shear Modulus (GPa) = 19.07633 21.12556 20.10095
#
# Velocity S-wave (km/s) = 3.41983 3.59883 3.51047
# Velocity P-wave (km/s) = 6.52875 6.87304 6.70310
#
# Compressibility (1/GPa) = 0.02268047
#
# Stress axis : x y z
#
# Youngs Moduli (GPa) = 71.06117 71.06117 50.89367
#
# Poissons Ratio (x) = 0.42233 0.16829
# Poissons Ratio (y) = 0.42233 0.16829
# Poissons Ratio (z) = 0.23498 0.23498
#
# Static dielectric constant tensor:
#      x y z
#    x 3.117980 0.000000 0.000000 
#    y 0.000000 3.117980 0.000000 
#    z 0.000000 0.000000 2.825720 
# 
# 
# High freq. dielectric constant tensor:
#      x y z
#    x 1.622520 0.000000 0.000000 
#    y 0.000000 1.622520 0.000000 
#    z 0.000000 0.000000 1.599930 
# 
# From -- ./inp_files/4076.got.cif
#   From: 2010.03.12/outbox.cif.g09.slc.cpg/sg188_3_cif.got.tgz:4076.got - 2010.04.01 12:01:06.
