data_PCOD8327774
_publ_section_title
;
Structure prediction by ZEFSAII (Michael W. Deem and Ramdas Pophale) SiO2 
 PCOD8327774
Probable space group: P -6 2 M
;
_chemical_formula_sum "Si O2"
_cell_formula_units_Z 96
_cell_length_a 15.734767
_cell_length_b 15.734767
_cell_length_c 24.607967
_cell_angle_alpha 90.000000
_cell_angle_beta 90.000000
_cell_angle_gamma 120.000000
_cell_volume 5276.269861
_symmetry_space_group_name_H-M "P -6 2 M"
_symmetry_group_IT_number 189
_symmetry_cell_setting 'hexagonal'
loop_
_space_group_symop_operation_xyz
x,y,z
-x+y,-x,-z
-y,x-y,z
x,y,-z
-x+y,-x,z
-y,x-y,-z
x-y,-y,-z
-x,-x+y,-z
y,x,-z
y,x,z
x-y,-y,z
-x,-x+y,z
loop_
_atom_site_type_symbol
_atom_site_label
_atom_site_fract_x
_atom_site_fract_y
_atom_site_fract_z
Si Si1 0.515578 0.113791 0.259195
Si Si2 0.556073 0.817481 0.756150
Si Si3 0.384330 0.111757 0.937103
Si Si4 0.574462 0.116061 0.940092
Si Si5 0.455969 0.566453 0.382049
Si Si6 0.884278 0.266225 0.562180
Si Si7 0.730503 0.111593 0.128496
Si Si8 0.116402 0.733067 0.362256
O O1 0.629958 0.167066 0.245097
O O2 0.473162 0.178133 0.232878
O O3 0.502310 0.116429 0.323587
O O4 0.458016 0.000000 0.238251
O O5 0.621862 0.878610 0.806810
O O6 0.619094 0.858965 0.701081
O O7 0.500903 0.156528 0.925510
O O8 0.341785 0.166332 0.900972
O O9 0.324034 0.000000 0.918381
O O10 0.366609 0.123658 0.000000
O O11 0.656720 0.148093 0.893722
O O12 0.507843 0.000000 0.943484
O O13 0.623005 0.155101 0.000000
O O14 0.492489 0.492489 0.399329
O O15 0.502711 0.657048 0.424357
O O16 0.337924 0.497800 0.380884
O O17 0.859548 0.233110 0.500000
O O18 0.829305 0.170066 0.600088
O O19 0.000000 0.316726 0.574415
O O20 0.690896 0.000000 0.111547
O O21 0.000000 0.683036 0.370293
#
# Coordination Sequence:
#
# PCOD8327774 Si02
#       8
#    12  12  12  12  12  12  12  12
#     4  10  20  36  56  77 108 150 192 233 282 336
#     4  11  22  35  54  81 114 151 193 234 280 337
#     4   9  19  37  58  79 106 142 186 231 277 335
#     4   8  16  33  53  72 100 139 177 220 273 323
#     4   8  16  33  53  74 100 136 178 220 269 322
#     4  10  20  35  55  79 108 141 182 231 278 332
#     4  11  22  34  53  81 113 144 182 230 279 330
#     4  10  20  36  57  78 109 147 183 227 276 331
#
# _framework density 18.194672000000001
#
# number of rings (size 3 to 8) (size 9 to 14) (size 15 to 20)
#    0.000    2.375    1.250    3.250    1.750    2.000 
#    1.500    1.250    0.000    0.500    0.000    0.000 
#    0.000    0.000    0.000    0.000    0.000    0.000 
#
# Total GULP energy -1189869.277901 kJ/mol
# GULP energy per Si atom -12394.471645 kJ/mol
# Density = 1.815326 g / cm^3
# Si number density = 18.194672 Si / 1000 Ang^3
#
#
#
# Elastic Constant Matrix: (Units=GPa)
#
#
# Indices 1 2 3 4 5 6 
#
# 1 84.6876 38.4390 43.5976 0.0000 0.0000 0.0000
# 2 38.4390 84.6876 43.5976 0.0000 0.0000 0.0000
# 3 43.5976 43.5976 106.6757 0.0000 0.0000 0.0000
# 4 0.0000 0.0000 0.0000 25.0113 0.0000 0.0000
# 5 0.0000 0.0000 0.0000 0.0000 25.0113 0.0000
# 6 0.0000 0.0000 0.0000 0.0000 0.0000 23.1243
#
#
#
# Elastic Compliance Matrix: (Units=1/GPa)
#
#
# Indices 1 2 3 4 5 6 
#
# 1 0.016526 -0.005096 -0.004671 0.000000 0.000000 0.000000
# 2 -0.005096 0.016526 -0.004671 0.000000 0.000000 0.000000
# 3 -0.004671 -0.004671 0.013192 0.000000 0.000000 0.000000
# 4 0.000000 0.000000 0.000000 0.039982 0.000000 0.000000
# 5 0.000000 0.000000 0.000000 0.000000 0.039982 0.000000
# 6 0.000000 0.000000 0.000000 0.000000 0.000000 0.043245
#
#
# Mechanical properties :
#
#
# Convention : Reuss Voigt Hill
#
# Bulk Modulus (GPa) = 57.58068 58.59104 58.08586
# Shear Modulus (GPa) = 24.49544 24.65714 24.57629
#
# Velocity S-wave (km/s) = 3.67317 3.68528 3.67923
# Velocity P-wave (km/s) = 7.05020 7.09793 7.07410
#
# Compressibility (1/GPa) = 0.01736694
#
# Stress axis : x y z
#
# Youngs Moduli (GPa) = 60.51054 60.51054 75.80095
#
# Poissons Ratio (x) = 0.30838 0.35409
# Poissons Ratio (y) = 0.30838 0.35409
# Poissons Ratio (z) = 0.28266 0.28266
#
# Static dielectric constant tensor:
#      x y z
#    x 3.234010 0.000000 0.000000 
#    y 0.000000 3.234010 0.000000 
#    z 0.000000 0.000000 3.361410 
# 
# 
# High freq. dielectric constant tensor:
#      x y z
#    x 1.685240 0.000000 0.000000 
#    y 0.000000 1.685240 0.000000 
#    z 0.000000 0.000000 1.706390 
# 
# From -- ./inp_files/3710.got.cif
#   From: 2010.03.12/outbox.cif.g09.slc.cpg/sg189_2_cif.got.tgz:3710.got - 2010.04.01 12:03:36.
