data_PCOD8327812
_publ_section_title
;
Structure prediction by ZEFSAII (Michael W. Deem and Ramdas Pophale) SiO2 
 PCOD8327812
Probable space group: P -6 2 M
;
_chemical_formula_sum "Si O2"
_cell_formula_units_Z 96
_cell_length_a 14.140982
_cell_length_b 14.140982
_cell_length_c 27.415818
_cell_angle_alpha 90.000000
_cell_angle_beta 90.000000
_cell_angle_gamma 120.000000
_cell_volume 4747.784289
_symmetry_space_group_name_H-M "P -6 2 M"
_symmetry_group_IT_number 189
_symmetry_cell_setting 'hexagonal'
loop_
_space_group_symop_operation_xyz
x,y,z
-x+y,-x,-z
-y,x-y,z
x,y,-z
-x+y,-x,z
-y,x-y,-z
x-y,-y,-z
-x,-x+y,-z
y,x,-z
y,x,z
x-y,-y,z
-x,-x+y,z
loop_
_atom_site_type_symbol
_atom_site_label
_atom_site_fract_x
_atom_site_fract_y
_atom_site_fract_z
Si Si1 0.877849 0.450451 0.708760
Si Si2 0.574175 0.753646 0.443324
Si Si3 0.878943 0.665625 0.268752
Si Si4 0.456557 0.331850 0.942459
Si Si5 0.129911 0.463163 0.900196
Si Si6 0.122744 0.587347 0.398617
Si Si7 0.120727 0.246018 0.631850
Si Si8 0.558262 0.683395 0.209354
O O1 0.881795 0.554729 0.732578
O O2 0.822568 0.422197 0.655060
O O3 0.816965 0.351076 0.747843
O O4 0.000000 0.471739 0.700605
O O5 0.601683 0.768480 0.500000
O O6 0.511546 0.627438 0.429204
O O7 0.499909 0.805055 0.429404
O O8 0.687997 0.810502 0.415336
O O9 0.831509 0.676775 0.320544
O O10 0.801057 0.660335 0.224614
O O11 0.000000 0.768800 0.259998
O O12 0.363508 0.363508 0.927080
O O13 0.425011 0.208963 0.926095
O O14 0.573260 0.421570 0.920735
O O15 0.469844 0.338248 0.000000
O O16 0.171648 0.484027 0.844240
O O17 0.000000 0.370257 0.905978
O O18 0.000000 0.567717 0.392382
O O19 0.205694 0.205694 0.623380
O O20 0.000000 0.144357 0.639407
O O21 0.591336 0.591336 0.207047
#
# Coordination Sequence:
#
# PCOD8327812 Si02
#       8
#    12  12  12  12  12  12  12  12
#     4   9  19  36  56  80 110 145 184 226 275 339
#     4  12  25  40  61  87 111 142 186 234 294 359
#     4  10  20  37  60  84 113 153 197 238 283 340
#     4  10  21  38  62  90 120 164 219 266 311 364
#     4  10  22  38  59  90 128 166 205 255 315 371
#     4  11  23  42  62  82 111 145 182 228 281 339
#     4  11  23  41  63  88 117 153 196 240 287 343
#     4  10  21  36  55  86 123 155 190 233 291 356
#
# _framework density 20.219957999999998
#
# number of rings (size 3 to 8) (size 9 to 14) (size 15 to 20)
#    0.000    1.625    1.250    3.250    1.750    4.750 
#    0.750    0.000    0.000    1.250    0.000    0.000 
#    0.000    0.000    0.000    0.000    0.000    0.000 
#
# Total GULP energy -1190127.932701 kJ/mol
# GULP energy per Si atom -12397.165966 kJ/mol
# Density = 2.017394 g / cm^3
# Si number density = 20.219958 Si / 1000 Ang^3
#
#
#
# Elastic Constant Matrix: (Units=GPa)
#
#
# Indices 1 2 3 4 5 6 
#
# 1 82.9894 26.3972 33.4973 0.0000 0.0000 0.0000
# 2 26.3972 82.9894 33.4973 0.0000 0.0000 0.0000
# 3 33.4973 33.4973 131.5360 0.0000 0.0000 0.0000
# 4 0.0000 0.0000 0.0000 21.6830 0.0000 0.0000
# 5 0.0000 0.0000 0.0000 0.0000 21.6830 0.0000
# 6 0.0000 0.0000 0.0000 0.0000 0.0000 28.2961
#
#
#
# Elastic Compliance Matrix: (Units=1/GPa)
#
#
# Indices 1 2 3 4 5 6 
#
# 1 0.014251 -0.003420 -0.002758 0.000000 0.000000 0.000000
# 2 -0.003420 0.014251 -0.002758 0.000000 0.000000 0.000000
# 3 -0.002758 -0.002758 0.009007 0.000000 0.000000 0.000000
# 4 0.000000 0.000000 0.000000 0.046119 0.000000 0.000000
# 5 0.000000 0.000000 0.000000 0.000000 0.046119 0.000000
# 6 0.000000 0.000000 0.000000 0.000000 0.000000 0.035341
#
#
# Mechanical properties :
#
#
# Convention : Reuss Voigt Hill
#
# Bulk Modulus (GPa) = 50.92532 53.81090 52.36811
# Shear Modulus (GPa) = 26.38449 27.94063 27.16256
#
# Velocity S-wave (km/s) = 3.61622 3.72134 3.66916
# Velocity P-wave (km/s) = 6.53272 6.71826 6.62614
#
# Compressibility (1/GPa) = 0.01963660
#
# Stress axis : x y z
#
# Youngs Moduli (GPa) = 70.17170 70.17170 111.02036
#
# Poissons Ratio (x) = 0.23995 0.30623
# Poissons Ratio (y) = 0.23995 0.30623
# Poissons Ratio (z) = 0.19356 0.19356
#
# Static dielectric constant tensor:
#      x y z
#    x 3.718240 0.000000 0.000000 
#    y 0.000000 3.718240 0.000000 
#    z 0.000000 0.000000 3.810990 
# 
# 
# High freq. dielectric constant tensor:
#      x y z
#    x 1.783260 0.000000 0.000000 
#    y 0.000000 1.783260 0.000000 
#    z 0.000000 0.000000 1.789630 
# 
# From -- ./inp_files/3728.got.cif
#   From: 2010.03.12/outbox.cif.g09.slc.cpg/sg189_2_cif.got.tgz:3728.got - 2010.04.01 12:03:36.
