data_PCOD8327814
_publ_section_title
;
Structure prediction by ZEFSAII (Michael W. Deem and Ramdas Pophale) SiO2 
 PCOD8327814
Probable space group: P -6 2 M
;
_chemical_formula_sum "Si O2"
_cell_formula_units_Z 60
_cell_length_a 15.574482
_cell_length_b 15.574482
_cell_length_c 13.319749
_cell_angle_alpha 90.000000
_cell_angle_beta 90.000000
_cell_angle_gamma 120.000000
_cell_volume 2798.039847
_symmetry_space_group_name_H-M "P -6 2 M"
_symmetry_group_IT_number 189
_symmetry_cell_setting 'hexagonal'
loop_
_space_group_symop_operation_xyz
x,y,z
-x+y,-x,-z
-y,x-y,z
x,y,-z
-x+y,-x,z
-y,x-y,-z
x-y,-y,-z
-x,-x+y,-z
y,x,-z
y,x,z
x-y,-y,z
-x,-x+y,z
loop_
_atom_site_type_symbol
_atom_site_label
_atom_site_fract_x
_atom_site_fract_y
_atom_site_fract_z
Si Si1 0.746320 0.454956 0.617902
Si Si2 0.782783 0.112158 0.386063
Si Si3 0.566277 0.454389 0.879844
Si Si4 0.226597 0.113798 0.800652
Si Si5 0.443146 0.231866 0.882035
O O1 0.628409 0.406060 0.645226
O O2 0.762652 0.475528 0.500000
O O3 0.815843 0.562993 0.666799
O O4 0.821724 0.142187 0.500000
O O5 0.872921 0.121613 0.318919
O O6 0.690515 0.000000 0.381892
O O7 0.514343 0.514343 0.839219
O O8 0.505564 0.342626 0.836406
O O9 0.678143 0.508714 0.836752
O O10 0.566407 0.453429 0.000000
O O11 0.148247 0.148247 0.830155
O O12 0.327008 0.181518 0.860640
O O13 0.181639 0.000000 0.831514
O O14 0.457874 0.239321 0.000000
#
# Coordination Sequence:
#
# PCOD8327814 Si02
#       5
#    12  12  12  12  12
#     4   7  12  26  50  77 107 142 176 216 275 342
#     4   9  18  35  57  80 110 149 194 242 290 342
#     4   9  17  31  53  81 113 147 180 217 264 325
#     4  11  24  41  59  82 112 151 198 249 299 344
#     4  10  20  37  61  88 117 149 186 229 283 346
#
# _framework density 21.443581999999999
#
# number of rings (size 3 to 8) (size 9 to 14) (size 15 to 20)
#    0.400    2.400    0.000    1.800    0.000    4.400 
#    3.600    1.000    0.000    6.000    0.000    0.000 
#    0.000    0.000    0.000    0.000    0.000    0.000 
#
# Total GULP energy -743609.747943 kJ/mol
# GULP energy per Si atom -12393.495799 kJ/mol
# Density = 2.139478 g / cm^3
# Si number density = 21.443582 Si / 1000 Ang^3
#
#
#
# Elastic Constant Matrix: (Units=GPa)
#
#
# Indices 1 2 3 4 5 6 
#
# 1 129.8690 51.4666 1.9919 0.0000 0.0000 0.0000
# 2 51.4666 129.8690 1.9919 0.0000 0.0000 0.0000
# 3 1.9919 1.9919 12.5439 0.0000 0.0000 0.0000
# 4 0.0000 0.0000 0.0000 16.6768 0.0000 0.0000
# 5 0.0000 0.0000 0.0000 0.0000 16.6768 0.0000
# 6 0.0000 0.0000 0.0000 0.0000 0.0000 39.2012
#
#
#
# Elastic Compliance Matrix: (Units=1/GPa)
#
#
# Indices 1 2 3 4 5 6 
#
# 1 0.009144 -0.003610 -0.000879 0.000000 0.000000 0.000000
# 2 -0.003610 0.009144 -0.000879 0.000000 0.000000 0.000000
# 3 -0.000879 -0.000879 0.079999 0.000000 0.000000 0.000000
# 4 0.000000 0.000000 0.000000 0.059964 0.000000 0.000000
# 5 0.000000 0.000000 0.000000 0.000000 0.059964 0.000000
# 6 0.000000 0.000000 0.000000 0.000000 0.000000 0.025509
#
#
# Mechanical properties :
#
#
# Convention : Reuss Voigt Hill
#
# Bulk Modulus (GPa) = 11.42181 42.57588 26.99884
# Shear Modulus (GPa) = 17.62772 28.96638 23.29705
#
# Velocity S-wave (km/s) = 2.87025 3.67933 3.29969
# Velocity P-wave (km/s) = 4.04011 6.16019 5.20915
#
# Compressibility (1/GPa) = 0.08755181
#
# Stress axis : x y z
#
# Youngs Moduli (GPa) = 109.35741 109.35741 12.50016
#
# Poissons Ratio (x) = 0.39482 0.01098
# Poissons Ratio (y) = 0.39482 0.01098
# Poissons Ratio (z) = 0.09610 0.09610
#
# Static dielectric constant tensor:
#      x y z
#    x 3.887520 0.000000 0.000000 
#    y 0.000000 3.887520 0.000000 
#    z 0.000000 0.000000 3.686810 
# 
# 
# High freq. dielectric constant tensor:
#      x y z
#    x 1.833260 0.000000 0.000000 
#    y 0.000000 1.833260 0.000000 
#    z 0.000000 0.000000 1.841060 
# 
# From -- ./inp_files/2507.got.cif
#   From: 2010.03.12/outbox.cif.g09.slc.cpg/sg189_2_cif.got.tgz:2507.got - 2010.04.01 12:03:36.
