data_PCOD8327970
_publ_section_title
;
Structure prediction by ZEFSAII (Michael W. Deem and Ramdas Pophale) SiO2 
 PCOD8327970
Probable space group: P -6 2 C
;
_chemical_formula_sum "Si O2"
_cell_formula_units_Z 72
_cell_length_a 23.659711
_cell_length_b 23.659711
_cell_length_c 9.108844
_cell_angle_alpha 90.000000
_cell_angle_beta 90.000000
_cell_angle_gamma 120.000000
_cell_volume 4415.834284
_symmetry_space_group_name_H-M "P -6 2 C"
_symmetry_group_IT_number 190
_symmetry_cell_setting 'hexagonal'
loop_
_space_group_symop_operation_xyz
x,y,z
-x+y,-x,1/2-z
-y,x-y,z
x,y,1/2-z
-x+y,-x,z
-y,x-y,1/2-z
x-y,-y,-z
-x,-x+y,-z
y,x,-z
y,x,1/2+z
x-y,-y,1/2+z
-x,-x+y,1/2+z
loop_
_atom_site_type_symbol
_atom_site_label
_atom_site_fract_x
_atom_site_fract_y
_atom_site_fract_z
Si Si1 0.253809 0.847926 0.420897
Si Si2 0.933864 0.194863 0.920088
Si Si3 0.866890 0.934921 0.077086
Si Si4 0.473584 0.069267 0.923003
Si Si5 0.183011 0.588353 0.577218
Si Si6 0.736747 0.255627 0.421477
O O1 0.246737 0.832271 0.250000
O O2 0.207906 0.876580 0.473158
O O3 0.328191 0.900290 0.461926
O O4 0.228565 0.779658 0.502791
O O5 0.948267 0.211397 0.750000
O O6 0.912540 0.120146 0.953963
O O7 0.000000 0.244663 0.000000
O O8 0.882404 0.945434 0.250000
O O9 0.916215 0.916215 0.000000
O O10 0.876067 0.000000 0.000000
O O11 0.478558 0.061112 0.750000
O O12 0.545544 0.116383 0.987941
O O13 0.444105 0.000000 0.000000
O O14 0.167466 0.580371 0.750000
O O15 0.235723 0.566699 0.536846
O O16 0.213454 0.662617 0.523638
O O17 0.740781 0.247140 0.250000
#
# Coordination Sequence:
#
# PCOD8327970 Si02
#       6
#    12  12  12  12  12  12
#     4   9  18  31  46  67  94 120 148 185 228 271
#     4   9  18  31  47  67  91 119 149 183 223 265
#     4  10  19  31  47  67  91 118 148 181 219 262
#     4  10  19  30  46  68  93 121 151 185 227 272
#     4   9  17  30  47  68  94 121 152 188 226 269
#     4   9  17  29  47  69  92 121 153 186 224 267
#
# _framework density 16.304960000000001
#
# number of rings (size 3 to 8) (size 9 to 14) (size 15 to 20)
#    0.000    2.667    0.000    2.000    0.000    4.000 
#    0.000    0.000    0.000    3.000    0.000    4.667 
#    0.000    0.000    0.000    0.000    0.000    0.000 
#
# Total GULP energy -892880.121119 kJ/mol
# GULP energy per Si atom -12401.112793 kJ/mol
# Density = 1.626785 g / cm^3
# Si number density = 16.304960 Si / 1000 Ang^3
#
#
#
# Elastic Constant Matrix: (Units=GPa)
#
#
# Indices 1 2 3 4 5 6 
#
# 1 118.8395 66.7009 48.4660 0.0000 0.0000 0.0000
# 2 66.7009 118.8395 48.4660 0.0000 0.0000 0.0000
# 3 48.4660 48.4660 59.6122 0.0000 0.0000 0.0000
# 4 0.0000 0.0000 0.0000 27.0784 0.0000 0.0000
# 5 0.0000 0.0000 0.0000 0.0000 27.0784 0.0000
# 6 0.0000 0.0000 0.0000 0.0000 0.0000 26.0693
#
#
#
# Elastic Compliance Matrix: (Units=1/GPa)
#
#
# Indices 1 2 3 4 5 6 
#
# 1 0.014274 -0.004905 -0.007617 0.000000 0.000000 0.000000
# 2 -0.004905 0.014274 -0.007617 0.000000 0.000000 0.000000
# 3 -0.007617 -0.007617 0.029161 0.000000 0.000000 0.000000
# 4 0.000000 0.000000 0.000000 0.036930 0.000000 0.000000
# 5 0.000000 0.000000 0.000000 0.000000 0.036930 0.000000
# 6 0.000000 0.000000 0.000000 0.000000 0.000000 0.038359
#
#
# Mechanical properties :
#
#
# Convention : Reuss Voigt Hill
#
# Bulk Modulus (GPa) = 57.37165 69.39519 63.38342
# Shear Modulus (GPa) = 23.14612 24.95579 24.05095
#
# Velocity S-wave (km/s) = 3.77181 3.91649 3.84483
# Velocity P-wave (km/s) = 7.36422 7.94387 7.65953
#
# Compressibility (1/GPa) = 0.01743021
#
# Stress axis : x y z
#
# Youngs Moduli (GPa) = 70.05535 70.05535 34.29206
#
# Poissons Ratio (x) = 0.34364 0.26122
# Poissons Ratio (y) = 0.34364 0.26122
# Poissons Ratio (z) = 0.53364 0.53364
#
# Static dielectric constant tensor:
#      x y z
#    x 3.098630 0.000000 0.000000 
#    y 0.000000 3.098630 0.000000 
#    z 0.000000 0.000000 3.089580 
# 
# 
# High freq. dielectric constant tensor:
#      x y z
#    x 1.618060 0.000000 0.000000 
#    y 0.000000 1.618060 0.000000 
#    z 0.000000 0.000000 1.631490 
# 
# From -- ./inp_files/1187.got.cif
#   From: 2010.06.25/outbox.cif.g09.slc.cpg/sg190_1_cif.got.tgz:1187.got - 2010.06.28 13:08:06.
