data_PCOD8327621
_publ_section_title
;
Structure prediction by ZEFSAII (Michael W. Deem and Ramdas Pophale) SiO2 
 PCOD8327621
Probable space group: P -6 2 M
;
_chemical_formula_sum "Si O2"
_cell_formula_units_Z 96
_cell_length_a 14.921124
_cell_length_b 14.921124
_cell_length_c 27.385211
_cell_angle_alpha 90.000000
_cell_angle_beta 90.000000
_cell_angle_gamma 120.000000
_cell_volume 5280.193063
_symmetry_space_group_name_H-M "P -6 2 M"
_symmetry_group_IT_number 189
_symmetry_cell_setting 'hexagonal'
loop_
_space_group_symop_operation_xyz
x,y,z
-x+y,-x,-z
-y,x-y,z
x,y,-z
-x+y,-x,z
-y,x-y,-z
x-y,-y,-z
-x,-x+y,-z
y,x,-z
y,x,z
x-y,-y,z
-x,-x+y,z
loop_
_atom_site_type_symbol
_atom_site_label
_atom_site_fract_x
_atom_site_fract_y
_atom_site_fract_z
Si Si1 0.749977 0.631846 0.691299
Si Si2 0.879359 0.588192 0.876328
Si Si3 0.881260 0.606751 0.768477
Si Si4 0.879513 0.437622 0.946315
Si Si5 0.883082 0.460882 0.308040
Si Si6 0.434918 0.880573 0.443741
Si Si7 0.481674 0.258438 0.612631
Si Si8 0.649166 0.766858 0.943966
O O1 0.721899 0.721899 0.687104
O O2 0.825717 0.656495 0.736964
O O3 0.651550 0.519191 0.700564
O O4 0.802353 0.625887 0.639593
O O5 0.830170 0.573737 0.822348
O O6 0.829748 0.478799 0.905796
O O7 0.859602 0.668404 0.907897
O O8 0.000000 0.632790 0.869219
O O9 0.868897 0.503522 0.743503
O O10 0.000000 0.696330 0.771961
O O11 0.864227 0.327807 0.930403
O O12 0.000000 0.519890 0.950679
O O13 0.829239 0.430129 0.000000
O O14 0.795568 0.452211 0.345372
O O15 0.000000 0.537915 0.328542
O O16 0.403600 0.855652 0.500000
O O17 0.338342 0.805887 0.409658
O O18 0.526525 0.854383 0.431086
O O19 0.472663 0.000000 0.432104
O O20 0.736875 0.736875 0.934206
O O21 0.653464 0.800960 0.000000
#
# Coordination Sequence:
#
# PCOD8327621 Si02
#       8
#    12  12  12  12  12  12  12  12
#     4  10  20  34  56  78  98 133 181 219 258 315
#     4  10  19  32  50  72  98 131 165 202 253 314
#     4   9  20  34  48  71 104 132 163 212 265 311
#     4   8  15  29  48  67  91 125 163 201 244 297
#     4   9  18  33  52  75 100 133 175 220 263 312
#     4  11  23  35  49  76 112 150 192 225 259 321
#     4  11  19  32  52  73 105 141 177 219 264 300
#     4   9  18  32  50  72  97 127 164 206 251 301
#
# _framework density 18.181153999999999
#
# number of rings (size 3 to 8) (size 9 to 14) (size 15 to 20)
#    0.000    2.375    1.250    2.500    0.000    2.750 
#    1.500    2.500    0.000    0.500    0.000    0.000 
#    0.000    0.000    0.000    0.000    0.000   67.375 
#
# Total GULP energy -1189325.380613 kJ/mol
# GULP energy per Si atom -12388.806048 kJ/mol
# Density = 1.813977 g / cm^3
# Si number density = 18.181154 Si / 1000 Ang^3
#
#
#
# Elastic Constant Matrix: (Units=GPa)
#
#
# Indices 1 2 3 4 5 6 
#
# 1 55.5840 11.3981 31.6594 0.0000 0.0000 0.0000
# 2 11.3981 55.5840 31.6594 0.0000 0.0000 0.0000
# 3 31.6594 31.6594 124.1629 0.0000 0.0000 0.0000
# 4 0.0000 0.0000 0.0000 24.1712 0.0000 0.0000
# 5 0.0000 0.0000 0.0000 0.0000 24.1712 0.0000
# 6 0.0000 0.0000 0.0000 0.0000 0.0000 22.0929
#
#
#
# Elastic Compliance Matrix: (Units=1/GPa)
#
#
# Indices 1 2 3 4 5 6 
#
# 1 0.021151 -0.001480 -0.005016 0.000000 0.000000 0.000000
# 2 -0.001480 0.021151 -0.005016 0.000000 0.000000 0.000000
# 3 -0.005016 -0.005016 0.010612 0.000000 0.000000 0.000000
# 4 0.000000 0.000000 0.000000 0.041371 0.000000 0.000000
# 5 0.000000 0.000000 0.000000 0.000000 0.041371 0.000000
# 6 0.000000 0.000000 0.000000 0.000000 0.000000 0.045263
#
#
# Mechanical properties :
#
#
# Convention : Reuss Voigt Hill
#
# Bulk Modulus (GPa) = 33.45547 42.75164 38.10355
# Shear Modulus (GPa) = 23.37456 24.79468 24.08462
#
# Velocity S-wave (km/s) = 3.58948 3.69691 3.64359
# Velocity P-wave (km/s) = 5.96828 6.46438 6.22127
#
# Compressibility (1/GPa) = 0.02989048
#
# Stress axis : x y z
#
# Youngs Moduli (GPa) = 47.27859 47.27859 94.23490
#
# Poissons Ratio (x) = 0.06999 0.47266
# Poissons Ratio (y) = 0.06999 0.47266
# Poissons Ratio (z) = 0.23714 0.23714
#
# Static dielectric constant tensor:
#      x y z
#    x 3.271730 0.000000 0.000000 
#    y 0.000000 3.271730 0.000000 
#    z 0.000000 0.000000 3.682530 
# 
# 
# High freq. dielectric constant tensor:
#      x y z
#    x 1.680170 0.000000 0.000000 
#    y 0.000000 1.680170 0.000000 
#    z 0.000000 0.000000 1.715600 
# 
# From -- ./inp_files/3700.got.cif
#   From: 2010.03.12/outbox.cif.g09.slc.cpg/sg189_2_cif.got.tgz:3700.got - 2010.04.01 12:03:36.
