data_PCOD8327171
_publ_section_title
;
Structure prediction by ZEFSAII (Michael W. Deem and Ramdas Pophale) SiO2 
 PCOD8327171
Probable space group: P -6 M 2
;
_chemical_formula_sum "Si O2"
_cell_formula_units_Z 66
_cell_length_a 12.679549
_cell_length_b 12.679549
_cell_length_c 28.116942
_cell_angle_alpha 90.000000
_cell_angle_beta 90.000000
_cell_angle_gamma 120.000000
_cell_volume 3914.770702
_symmetry_space_group_name_H-M "P -6 M 2"
_symmetry_group_IT_number 187
_symmetry_cell_setting 'hexagonal'
loop_
_space_group_symop_operation_xyz
x,y,z
-x+y,-x,-z
-y,x-y,z
x,y,-z
-x+y,-x,z
-y,x-y,-z
-y,-x,-z
-x+y,y,-z
x,x-y,-z
-x+y,y,z
x,x-y,z
-y,-x,z
loop_
_atom_site_type_symbol
_atom_site_label
_atom_site_fract_x
_atom_site_fract_y
_atom_site_fract_z
Si Si1 0.246413 0.248476 0.088576
Si Si2 0.423366 0.333511 0.739130
Si Si3 0.333186 0.420443 0.176427
Si Si4 0.085770 0.417319 0.000000
Si Si5 0.910618 0.332426 0.632128
Si Si6 0.087972 0.667412 0.552857
O O1 0.257755 0.128878 0.085778
O O2 0.306398 0.319197 0.137031
O O3 0.104609 0.209218 0.085458
O O4 0.321340 0.337971 0.045808
O O5 0.409453 0.204727 0.753677
O O6 0.565609 0.434392 0.743034
O O7 0.342329 0.365221 0.773409
O O8 0.374538 0.330039 0.685730
O O9 0.226254 0.452508 0.179426
O O10 0.456936 0.543065 0.163284
O O11 0.227101 0.454202 0.000000
O O12 0.078367 0.539184 0.000000
O O13 0.899110 0.449555 0.622979
O O14 0.779725 0.220276 0.622732
O O15 0.001386 0.327612 0.593314
O O16 0.036169 0.666849 0.500000
O O17 0.102678 0.551339 0.560605
O O18 0.219035 0.780966 0.560254
#
# Coordination Sequence:
#
# PCOD8327171 Si02
#       6
#    12  12  12   6  12  12
#     4  10  20  34  53  75  99 128 163 203 242 280
#     4   9  17  30  48  69  93 122 155 190 229 275
#     4  10  20  33  50  72  99 129 159 194 236 282
#     4  10  20  34  54  78 104 134 166 200 238 284
#     4   9  17  29  46  68  93 120 150 186 229 276
#     4   9  17  29  45  65  89 118 152 189 229 273
#
# _framework density 16.859224000000001
#
# number of rings (size 3 to 8) (size 9 to 14) (size 15 to 20)
#    0.000    2.545    0.000    2.364    0.000    3.273 
#    0.000    2.727    0.000   10.182    0.000    0.000 
#    0.000    0.000    0.000    0.000    0.000    0.000 
#
# Total GULP energy -818331.356117 kJ/mol
# GULP energy per Si atom -12398.959941 kJ/mol
# Density = 1.682085 g / cm^3
# Si number density = 16.859224 Si / 1000 Ang^3
#
#
#
# Elastic Constant Matrix: (Units=GPa)
#
#
# Indices 1 2 3 4 5 6 
#
# 1 88.5479 40.7715 50.1751 0.0000 0.0002 0.0000
# 2 40.7715 88.5479 50.1751 0.0000 -0.0002 0.0000
# 3 50.1751 50.1751 115.1049 0.0000 0.0000 0.0000
# 4 0.0000 0.0000 0.0000 26.5909 0.0000 -0.0002
# 5 0.0002 -0.0002 0.0000 0.0000 26.5909 0.0000
# 6 0.0000 0.0000 0.0000 -0.0002 0.0000 23.8882
#
#
#
# Elastic Compliance Matrix: (Units=1/GPa)
#
#
# Indices 1 2 3 4 5 6 
#
# 1 0.016308 -0.004623 -0.005094 0.000000 0.000000 0.000000
# 2 -0.004623 0.016308 -0.005094 0.000000 0.000000 0.000000
# 3 -0.005094 -0.005094 0.013129 0.000000 0.000000 0.000000
# 4 0.000000 0.000000 0.000000 0.037607 0.000000 0.000000
# 5 0.000000 0.000000 0.000000 0.000000 0.037607 0.000000
# 6 0.000000 0.000000 0.000000 0.000000 0.000000 0.041862
#
#
# Mechanical properties :
#
#
# Convention : Reuss Voigt Hill
#
# Bulk Modulus (GPa) = 62.01782 63.82713 62.92248
# Shear Modulus (GPa) = 25.27602 25.48590 25.38096
#
# Velocity S-wave (km/s) = 3.87620 3.89226 3.88424
# Velocity P-wave (km/s) = 7.54313 7.62500 7.58418
#
# Compressibility (1/GPa) = 0.01612440
#
# Stress axis : x y z
#
# Youngs Moduli (GPa) = 61.31887 61.31887 76.16959
#
# Poissons Ratio (x) = 0.28346 0.38799
# Poissons Ratio (y) = 0.28346 0.38799
# Poissons Ratio (z) = 0.31235 0.31235
#
# Static dielectric constant tensor:
#      x y z
#    x 3.049290 0.000000 0.000000 
#    y 0.000000 3.049290 0.000000 
#    z 0.000000 0.000000 3.510590 
# 
# 
# High freq. dielectric constant tensor:
#      x y z
#    x 1.640700 0.000000 0.000000 
#    y 0.000000 1.640700 0.000000 
#    z 0.000000 0.000000 1.667610 
# 
# From -- ./inp_files/4445.got.cif
#   From: 2010.03.12/outbox.cif.g09.slc.cpg/sg187_3_cif.got.tgz:4445.got - 2010.04.01 11:58:23.
