data_PCOD8327130
_publ_section_title
;
Structure prediction by ZEFSAII (Michael W. Deem and Ramdas Pophale) SiO2 
 PCOD8327130
Probable space group: P -6 M 2
;
_chemical_formula_sum "Si O2"
_cell_formula_units_Z 60
_cell_length_a 12.467623
_cell_length_b 12.467623
_cell_length_c 25.876767
_cell_angle_alpha 90.000000
_cell_angle_beta 90.000000
_cell_angle_gamma 120.000000
_cell_volume 3483.437076
_symmetry_space_group_name_H-M "P -6 M 2"
_symmetry_group_IT_number 187
_symmetry_cell_setting 'hexagonal'
loop_
_space_group_symop_operation_xyz
x,y,z
-x+y,-x,-z
-y,x-y,z
x,y,-z
-x+y,-x,z
-y,x-y,-z
-y,-x,-z
-x+y,y,-z
x,x-y,-z
-x+y,y,z
x,x-y,z
-y,-x,z
loop_
_atom_site_type_symbol
_atom_site_label
_atom_site_fract_x
_atom_site_fract_y
_atom_site_fract_z
Si Si1 0.575678 0.907410 0.000000
Si Si2 0.417254 0.332571 0.793548
Si Si3 0.998415 0.749212 0.303880
Si Si4 0.916867 0.332002 0.598407
Si Si5 0.749833 0.748415 0.500000
Si Si6 0.331038 0.915511 0.888194
O O1 0.648942 0.959125 0.054491
O O2 0.472077 0.944153 0.000000
O O3 0.517634 0.758817 0.000000
O O4 0.455257 0.227629 0.794398
O O5 0.538307 0.461694 0.780786
O O6 0.315720 0.306572 0.750327
O O7 0.359083 0.333980 0.848736
O O8 0.130711 0.869290 0.309264
O O9 0.894622 0.789244 0.308037
O O10 0.982279 0.655316 0.349246
O O11 0.924265 0.462133 0.594824
O O12 0.773705 0.226296 0.597352
O O13 0.990067 0.319435 0.550359
O O14 0.742720 0.871360 0.500000
O O15 0.892872 0.785743 0.500000
O O16 0.443101 0.886201 0.889914
O O17 0.208533 0.791468 0.870019
#
# Coordination Sequence:
#
# PCOD8327130 Si02
#       6
#     6  12  12  12   6  12
#     4   8  13  22  39  64  92 120 150 186 230 280
#     4  10  20  33  49  68  93 126 162 199 236 279
#     4  10  20  34  53  75  98 124 156 198 245 291
#     4  10  20  34  54  78 104 134 167 204 242 284
#     4  10  20  34  54  78 104 134 168 208 250 290
#     4   9  16  27  45  69  95 121 151 190 237 286
#
# _framework density 17.224367999999998
#
# number of rings (size 3 to 8) (size 9 to 14) (size 15 to 20)
#    0.000    2.400    0.000    3.100    0.000    1.600 
#    0.000    5.500    0.000   11.200    0.000    1.400 
#    0.000    0.000    0.000    0.000    0.000    0.000 
#
# Total GULP energy -743809.043963 kJ/mol
# GULP energy per Si atom -12396.817399 kJ/mol
# Density = 1.718516 g / cm^3
# Si number density = 17.224368 Si / 1000 Ang^3
#
#
#
# Elastic Constant Matrix: (Units=GPa)
#
#
# Indices 1 2 3 4 5 6 
#
# 1 94.2276 58.2245 47.5043 0.0000 0.0002 0.0000
# 2 58.2245 94.2276 47.5043 0.0000 -0.0002 0.0000
# 3 47.5043 47.5043 126.9467 0.0000 0.0000 0.0000
# 4 0.0000 0.0000 0.0000 19.8744 0.0000 -0.0002
# 5 0.0002 -0.0002 0.0000 0.0000 19.8744 0.0000
# 6 0.0000 0.0000 0.0000 -0.0002 0.0000 18.0016
#
#
#
# Elastic Compliance Matrix: (Units=1/GPa)
#
#
# Indices 1 2 3 4 5 6 
#
# 1 0.018165 -0.009610 -0.003201 0.000000 0.000000 0.000000
# 2 -0.009610 0.018165 -0.003201 0.000000 0.000000 0.000000
# 3 -0.003201 -0.003201 0.010273 0.000000 0.000000 0.000000
# 4 0.000000 0.000000 0.000000 0.050316 0.000000 0.000000
# 5 0.000000 0.000000 0.000000 0.000000 0.050316 0.000000
# 6 0.000000 0.000000 0.000000 0.000000 0.000000 0.055551
#
#
# Mechanical properties :
#
#
# Convention : Reuss Voigt Hill
#
# Bulk Modulus (GPa) = 68.59930 69.09643 68.84786
# Shear Modulus (GPa) = 20.86203 22.36135 21.61169
#
# Velocity S-wave (km/s) = 3.48400 3.60702 3.54604
# Velocity P-wave (km/s) = 7.48984 7.58617 7.53816
#
# Compressibility (1/GPa) = 0.01457741
#
# Stress axis : x y z
#
# Youngs Moduli (GPa) = 55.05132 55.05132 97.34189
#
# Poissons Ratio (x) = 0.52907 0.31160
# Poissons Ratio (y) = 0.52907 0.31160
# Poissons Ratio (z) = 0.17622 0.17622
#
# Static dielectric constant tensor:
#      x y z
#    x 3.009490 0.000000 0.000000 
#    y 0.000000 3.009490 0.000000 
#    z 0.000000 0.000000 3.640370 
# 
# 
# High freq. dielectric constant tensor:
#      x y z
#    x 1.650260 0.000000 0.000000 
#    y 0.000000 1.650260 0.000000 
#    z 0.000000 0.000000 1.690730 
# 
# From -- ./inp_files/4208.got.cif
#   From: 2010.03.12/outbox.cif.g09.slc.cpg/sg187_3_cif.got.tgz:4208.got - 2010.04.01 11:58:23.
