data_PCOD8327920
_publ_section_title
;
Structure prediction by ZEFSAII (Michael W. Deem and Ramdas Pophale) SiO2 
 PCOD8327920
Probable space group: P -6 2 M
;
_chemical_formula_sum "Si O2"
_cell_formula_units_Z 60
_cell_length_a 15.293104
_cell_length_b 15.293104
_cell_length_c 18.765386
_cell_angle_alpha 90.000000
_cell_angle_beta 90.000000
_cell_angle_gamma 120.000000
_cell_volume 3800.838511
_symmetry_space_group_name_H-M "P -6 2 M"
_symmetry_group_IT_number 189
_symmetry_cell_setting 'hexagonal'
loop_
_space_group_symop_operation_xyz
x,y,z
-x+y,-x,-z
-y,x-y,z
x,y,-z
-x+y,-x,z
-y,x-y,-z
x-y,-y,-z
-x,-x+y,-z
y,x,-z
y,x,z
x-y,-y,z
-x,-x+y,z
loop_
_atom_site_type_symbol
_atom_site_label
_atom_site_fract_x
_atom_site_fract_y
_atom_site_fract_z
Si Si1 0.287991 0.884218 0.418898
Si Si2 0.116443 0.885899 0.340865
Si Si3 0.233704 0.116711 0.081202
Si Si4 0.454672 0.689656 0.707503
Si Si5 0.235254 0.883108 0.791293
O O1 0.292602 0.853704 0.500000
O O2 0.178591 0.872023 0.404617
O O3 0.305875 0.811177 0.368095
O O4 0.373463 0.000000 0.403247
O O5 0.148396 0.858133 0.266352
O O6 0.000000 0.810111 0.355342
O O7 0.137450 0.000000 0.338272
O O8 0.182294 0.182294 0.101454
O O9 0.330517 0.147975 0.131316
O O10 0.150246 0.000000 0.093999
O O11 0.272536 0.135886 0.000000
O O12 0.421012 0.775112 0.712132
O O13 0.528995 0.708246 0.773758
O O14 0.320087 0.000000 0.788137
#
# Coordination Sequence:
#
# PCOD8327920 Si02
#       5
#    12  12  12  12  12
#     4   9  18  33  49  66  93 123 146 181 237 290
#     4   9  16  26  42  64  91 124 158 187 219 266
#     4   9  16  26  44  72 105 137 164 190 224 273
#     4   9  19  33  52  70  85 112 156 198 238 274
#     4   9  17  31  48  67  95 127 154 187 235 282
#
# _framework density 15.78599
#
# number of rings (size 3 to 8) (size 9 to 14) (size 15 to 20)
#    0.400    2.600    0.000    2.800    0.000    2.000 
#    0.000   12.000    0.000    2.400    0.000    2.800 
#    0.000    0.000    0.000    0.000    0.000    0.000 
#
# Total GULP energy -743747.778196 kJ/mol
# GULP energy per Si atom -12395.796303 kJ/mol
# Density = 1.575006 g / cm^3
# Si number density = 15.785990 Si / 1000 Ang^3
#
#
#
# Elastic Constant Matrix: (Units=GPa)
#
#
# Indices 1 2 3 4 5 6 
#
# 1 94.2930 45.6295 50.1437 0.0000 0.0000 0.0000
# 2 45.6295 94.2930 50.1437 0.0000 0.0000 0.0000
# 3 50.1437 50.1437 108.0001 0.0000 0.0000 0.0000
# 4 0.0000 0.0000 0.0000 20.6854 0.0000 0.0000
# 5 0.0000 0.0000 0.0000 0.0000 20.6854 0.0000
# 6 0.0000 0.0000 0.0000 0.0000 0.0000 24.3318
#
#
#
# Elastic Compliance Matrix: (Units=1/GPa)
#
#
# Indices 1 2 3 4 5 6 
#
# 1 0.015630 -0.004919 -0.004973 0.000000 0.000000 0.000000
# 2 -0.004919 0.015630 -0.004973 0.000000 0.000000 0.000000
# 3 -0.004973 -0.004973 0.013877 0.000000 0.000000 0.000000
# 4 0.000000 0.000000 0.000000 0.048343 0.000000 0.000000
# 5 0.000000 0.000000 0.000000 0.000000 0.048343 0.000000
# 6 0.000000 0.000000 0.000000 0.000000 0.000000 0.041099
#
#
# Mechanical properties :
#
#
# Convention : Reuss Voigt Hill
#
# Bulk Modulus (GPa) = 64.90504 65.37998 65.14251
# Shear Modulus (GPa) = 22.95797 23.18513 23.07155
#
# Velocity S-wave (km/s) = 3.81770 3.83654 3.82713
# Velocity P-wave (km/s) = 7.78704 7.81868 7.80288
#
# Compressibility (1/GPa) = 0.01540712
#
# Stress axis : x y z
#
# Youngs Moduli (GPa) = 63.97846 63.97846 72.06028
#
# Poissons Ratio (x) = 0.31471 0.35837
# Poissons Ratio (y) = 0.31471 0.35837
# Poissons Ratio (z) = 0.31818 0.31818
#
# Static dielectric constant tensor:
#      x y z
#    x 2.834150 0.000000 0.000000 
#    y 0.000000 2.834150 0.000000 
#    z 0.000000 0.000000 3.078600 
# 
# 
# High freq. dielectric constant tensor:
#      x y z
#    x 1.589830 0.000000 0.000000 
#    y 0.000000 1.589830 0.000000 
#    z 0.000000 0.000000 1.604840 
# 
# From -- ./inp_files/3384.got.cif
#   From: 2010.03.12/outbox.cif.g09.slc.cpg/sg189_2_cif.got.tgz:3384.got - 2010.04.01 12:03:36.
