data_PCOD8327725
_publ_section_title
;
Structure prediction by ZEFSAII (Michael W. Deem and Ramdas Pophale) SiO2 
 PCOD8327725
Probable space group: P -6 2 M
;
_chemical_formula_sum "Si O2"
_cell_formula_units_Z 76
_cell_length_a 18.017579
_cell_length_b 18.017579
_cell_length_c 15.764241
_cell_angle_alpha 90.000000
_cell_angle_beta 90.000000
_cell_angle_gamma 120.000000
_cell_volume 4431.967502
_symmetry_space_group_name_H-M "P -6 2 M"
_symmetry_group_IT_number 189
_symmetry_cell_setting 'hexagonal'
loop_
_space_group_symop_operation_xyz
x,y,z
-x+y,-x,-z
-y,x-y,z
x,y,-z
-x+y,-x,z
-y,x-y,-z
x-y,-y,-z
-x,-x+y,-z
y,x,-z
y,x,z
x-y,-y,z
-x,-x+y,z
loop_
_atom_site_type_symbol
_atom_site_label
_atom_site_fract_x
_atom_site_fract_y
_atom_site_fract_z
Si Si1 0.634806 0.096151 0.788391
Si Si2 0.506353 0.100491 0.675782
Si Si3 0.333334 0.666667 0.100132
Si Si4 0.899188 0.632138 0.500000
Si Si5 0.640768 0.740857 0.229083
Si Si6 0.316765 0.220233 0.319068
Si Si7 0.524591 0.760005 0.900007
Si Si8 0.897411 0.464944 0.500000
O O1 0.581037 0.137347 0.747296
O O2 0.696751 0.098291 0.714202
O O3 0.688007 0.148183 0.870095
O O4 0.572833 0.000000 0.821508
O O5 0.431743 0.120524 0.700227
O O6 0.542723 0.139029 0.582825
O O7 0.472086 0.000000 0.673406
O O8 0.261916 0.571552 0.129974
O O9 0.333334 0.666668 0.000000
O O10 0.872600 0.665746 0.583063
O O11 0.859432 0.529497 0.500000
O O12 0.000000 0.670791 0.500000
O O13 0.700013 0.700013 0.209877
O O14 0.700214 0.837111 0.265112
O O15 0.593448 0.739293 0.142106
O O16 0.235262 0.235262 0.309904
O O17 0.538064 0.761830 0.000000
O O18 0.000000 0.515269 0.500000
#
# Coordination Sequence:
#
# PCOD8327725 Si02
#       8
#    12  12   4   6  12  12  12   6
#     4   9  16  28  47  71  98 126 161 203 246 294
#     4   9  16  27  44  69  98 128 156 189 236 289
#     4   9  18  33  48  66  93 124 164 202 237 288
#     4   9  14  25  47  73  95 124 167 199 229 287
#     4  10  21  34  48  71 101 130 165 213 268 310
#     4   9  17  30  49  71  95 128 169 208 244 293
#     4  10  20  33  50  69  92 129 171 211 256 304
#     4   9  14  23  44  71  98 128 160 187 224 283
#
# _framework density 17.148140000000001
#
# number of rings (size 3 to 8) (size 9 to 14) (size 15 to 20)
#    0.000    2.684    1.579    0.947    0.000    1.263 
#    0.000    1.184    0.000    6.000    0.000    0.000 
#    0.000    0.000    0.000    0.474    0.000    0.000 
#
# Total GULP energy -942015.299350 kJ/mol
# GULP energy per Si atom -12394.938149 kJ/mol
# Density = 1.710911 g / cm^3
# Si number density = 17.148140 Si / 1000 Ang^3
#
#
#
# Elastic Constant Matrix: (Units=GPa)
#
#
# Indices 1 2 3 4 5 6 
#
# 1 81.9389 39.5468 45.9419 0.0000 0.0000 0.0000
# 2 39.5468 81.9387 45.9419 0.0000 0.0000 0.0000
# 3 45.9419 45.9419 111.5874 0.0000 0.0000 0.0000
# 4 0.0000 0.0000 0.0000 18.0677 0.0000 0.0000
# 5 0.0000 0.0000 0.0000 0.0000 18.0677 0.0000
# 6 0.0000 0.0000 0.0000 0.0000 0.0000 21.1960
#
#
#
# Elastic Compliance Matrix: (Units=1/GPa)
#
#
# Indices 1 2 3 4 5 6 
#
# 1 0.017772 -0.005818 -0.004921 0.000000 0.000000 0.000000
# 2 -0.005818 0.017772 -0.004922 0.000000 0.000000 0.000000
# 3 -0.004921 -0.004922 0.013014 0.000000 0.000000 0.000000
# 4 0.000000 0.000000 0.000000 0.055347 0.000000 0.000000
# 5 0.000000 0.000000 0.000000 0.000000 0.055347 0.000000
# 6 0.000000 0.000000 0.000000 0.000000 0.000000 0.047179
#
#
# Mechanical properties :
#
#
# Convention : Reuss Voigt Hill
#
# Bulk Modulus (GPa) = 58.01968 59.81404 58.91686
# Shear Modulus (GPa) = 20.53410 21.06858 20.80134
#
# Velocity S-wave (km/s) = 3.46418 3.50897 3.48665
# Velocity P-wave (km/s) = 7.06460 7.16754 7.11626
#
# Compressibility (1/GPa) = 0.01723553
#
# Stress axis : x y z
#
# Youngs Moduli (GPa) = 56.26985 56.26967 76.83996
#
# Poissons Ratio (x) = 0.32737 0.37817
# Poissons Ratio (y) = 0.32737 0.37817
# Poissons Ratio (z) = 0.27693 0.27693
#
# Static dielectric constant tensor:
#      x y z
#    x 3.064500 0.000000 0.000000 
#    y 0.000000 3.064500 0.000000 
#    z 0.000000 0.000000 3.236130 
# 
# 
# High freq. dielectric constant tensor:
#      x y z
#    x 1.636970 0.000000 0.000000 
#    y 0.000000 1.636970 0.000000 
#    z 0.000000 0.000000 1.663040 
# 
# From -- ./inp_files/2768.got.cif
#   From: 2010.03.12/outbox.cif.g09.slc.cpg/sg189_2_cif.got.tgz:2768.got - 2010.04.01 12:03:36.
