data_PCOD8327155
_publ_section_title
;
Structure prediction by ZEFSAII (Michael W. Deem and Ramdas Pophale) SiO2 
 PCOD8327155
Probable space group: P -6 M 2
;
_chemical_formula_sum "Si O2"
_cell_formula_units_Z 78
_cell_length_a 17.333174
_cell_length_b 17.333174
_cell_length_c 17.909071
_cell_angle_alpha 90.000000
_cell_angle_beta 90.000000
_cell_angle_gamma 120.000000
_cell_volume 4659.720670
_symmetry_space_group_name_H-M "P -6 M 2"
_symmetry_group_IT_number 187
_symmetry_cell_setting 'hexagonal'
loop_
_space_group_symop_operation_xyz
x,y,z
-x+y,-x,-z
-y,x-y,z
x,y,-z
-x+y,-x,z
-y,x-y,-z
-y,-x,-z
-x+y,y,-z
x,x-y,-z
-x+y,y,z
x,x-y,z
-y,-x,z
loop_
_atom_site_type_symbol
_atom_site_label
_atom_site_fract_x
_atom_site_fract_y
_atom_site_fract_z
Si Si1 0.824263 0.825224 0.641278
Si Si2 0.667376 0.507144 0.000000
Si Si3 0.420058 0.404974 0.285032
Si Si4 0.701744 0.937673 0.220774
Si Si5 0.729272 0.634755 0.584366
Si Si6 0.819146 0.999782 0.085309
Si Si7 0.492113 0.159802 0.841145
O O1 0.813491 0.906746 0.610558
O O2 0.785974 0.798114 0.724550
O O3 0.769801 0.741094 0.587229
O O4 0.928075 0.856150 0.643516
O O5 0.684776 0.560719 0.078706
O O6 0.565191 0.434810 0.000000
O O7 0.732557 0.465114 0.000000
O O8 0.488933 0.511068 0.294206
O O9 0.323662 0.383518 0.255251
O O10 0.416203 0.356473 0.362685
O O11 0.451184 0.364294 0.221000
O O12 0.666593 0.833297 0.214275
O O13 0.738365 0.985464 0.140373
O O14 0.697503 0.602683 0.500000
O O15 0.806026 0.612052 0.608457
O O16 0.841085 0.920543 0.098797
O O17 0.788194 0.998749 0.000000
O O18 0.907472 0.092529 0.103683
O O19 0.595575 0.191150 0.855024
O O20 0.484312 0.242156 0.810770
#
# Coordination Sequence:
#
# PCOD8327155 Si02
#       7
#    12   6  12  12  12  12  12
#     4   9  16  26  43  68  98 132 165 192 215 249
#     4   8  13  22  36  56  83 116 148 174 202 242
#     4  10  20  33  50  69  87 111 149 196 240 285
#     4   9  18  32  47  63  89 122 154 192 241 289
#     4   9  18  32  48  67  94 126 155 186 228 273
#     4   9  16  26  42  67  99 135 170 198 219 247
#     4   9  16  26  41  62  89 120 150 179 212 253
#
# _framework density 16.7392
#
# number of rings (size 3 to 8) (size 9 to 14) (size 15 to 20)
#    0.000    2.923    0.000    1.462    0.000    4.308 
#    1.385    1.538    0.000    1.538    0.000    0.000 
#    0.000    0.000    0.000    0.462    0.000    0.000 
#
# Total GULP energy -966412.243009 kJ/mol
# GULP energy per Si atom -12389.900551 kJ/mol
# Density = 1.670110 g / cm^3
# Si number density = 16.739200 Si / 1000 Ang^3
#
#
#
# Elastic Constant Matrix: (Units=GPa)
#
#
# Indices 1 2 3 4 5 6 
#
# 1 67.9484 30.7737 32.9305 0.0000 -0.0001 0.0000
# 2 30.7737 67.9484 32.9305 0.0000 0.0001 0.0000
# 3 32.9305 32.9305 94.3899 0.0000 0.0000 0.0000
# 4 0.0000 0.0000 0.0000 18.8361 0.0000 0.0001
# 5 -0.0001 0.0001 0.0000 0.0000 18.8361 0.0000
# 6 0.0000 0.0000 0.0000 0.0001 0.0000 18.5873
#
#
#
# Elastic Compliance Matrix: (Units=1/GPa)
#
#
# Indices 1 2 3 4 5 6 
#
# 1 0.020051 -0.006849 -0.004606 0.000000 0.000000 0.000000
# 2 -0.006849 0.020051 -0.004606 0.000000 0.000000 0.000000
# 3 -0.004606 -0.004606 0.013808 0.000000 0.000000 0.000000
# 4 0.000000 0.000000 0.000000 0.053090 0.000000 0.000000
# 5 0.000000 0.000000 0.000000 0.000000 0.053090 0.000000
# 6 0.000000 0.000000 0.000000 0.000000 0.000000 0.053800
#
#
# Mechanical properties :
#
#
# Convention : Reuss Voigt Hill
#
# Bulk Modulus (GPa) = 45.89510 47.06178 46.47844
# Shear Modulus (GPa) = 19.74143 20.16203 19.95173
#
# Velocity S-wave (km/s) = 3.43790 3.47433 3.45616
# Velocity P-wave (km/s) = 6.57542 6.65360 6.61462
#
# Compressibility (1/GPa) = 0.02178882
#
# Stress axis : x y z
#
# Youngs Moduli (GPa) = 49.87250 49.87250 72.42082
#
# Poissons Ratio (x) = 0.34157 0.33357
# Poissons Ratio (y) = 0.34157 0.33357
# Poissons Ratio (z) = 0.22971 0.22971
#
# Static dielectric constant tensor:
#      x y z
#    x 3.074830 0.000000 0.000000 
#    y 0.000000 3.074830 0.000000 
#    z 0.000000 0.000000 3.307280 
# 
# 
# High freq. dielectric constant tensor:
#      x y z
#    x 1.617450 0.000000 0.000000 
#    y 0.000000 1.617450 0.000000 
#    z 0.000000 0.000000 1.659940 
# 
# From -- ./inp_files/3132.got.cif
#   From: 2010.03.12/outbox.cif.g09.slc.cpg/sg187_2_cif.got.tgz:3132.got - 2010.04.01 11:58:23.
