data_PCOD8327712
_publ_section_title
;
Structure prediction by ZEFSAII (Michael W. Deem and Ramdas Pophale) SiO2 
 PCOD8327712
Probable space group: P -6 2 M
;
_chemical_formula_sum "Si O2"
_cell_formula_units_Z 36
_cell_length_a 16.331904
_cell_length_b 16.331904
_cell_length_c 9.377432
_cell_angle_alpha 90.000000
_cell_angle_beta 90.000000
_cell_angle_gamma 120.000000
_cell_volume 2166.148330
_symmetry_space_group_name_H-M "P -6 2 M"
_symmetry_group_IT_number 189
_symmetry_cell_setting 'hexagonal'
loop_
_space_group_symop_operation_xyz
x,y,z
-x+y,-x,-z
-y,x-y,z
x,y,-z
-x+y,-x,z
-y,x-y,-z
x-y,-y,-z
-x,-x+y,-z
y,x,-z
y,x,z
x-y,-y,z
-x,-x+y,z
loop_
_atom_site_type_symbol
_atom_site_label
_atom_site_fract_x
_atom_site_fract_y
_atom_site_fract_z
Si Si1 0.678830 0.443416 0.840262
Si Si2 0.377070 0.109803 0.665800
Si Si3 0.217146 0.108926 0.165603
O O1 0.579752 0.344234 0.820476
O O2 0.684259 0.516927 0.724077
O O3 0.683519 0.483373 0.000000
O O4 0.377298 0.131171 0.500000
O O5 0.312414 0.144404 0.744621
O O6 0.338699 0.000000 0.696508
O O7 0.170157 0.170157 0.213929
O O8 0.142393 0.000000 0.198935
O O9 0.244732 0.123761 0.000000
#
# Coordination Sequence:
#
# PCOD8327712 Si02
#       3
#    12  12  12
#     4   8  17  34  55  75  94 121 162 205 245 289
#     4  10  20  32  48  74 105 134 164 198 242 296
#     4   9  17  30  49  71  96 129 169 210 249 290
#
# _framework density 16.619361000000001
#
# number of rings (size 3 to 8) (size 9 to 14) (size 15 to 20)
#    0.667    2.333    0.000    1.333    0.000    5.333 
#    0.000    1.667    0.000    4.000    0.000    0.000 
#    0.000    0.000    0.000    0.000    0.000    0.000 
#
# Total GULP energy -446251.223312 kJ/mol
# GULP energy per Si atom -12395.867314 kJ/mol
# Density = 1.658154 g / cm^3
# Si number density = 16.619361 Si / 1000 Ang^3
#
#
#
# Elastic Constant Matrix: (Units=GPa)
#
#
# Indices 1 2 3 4 5 6 
#
# 1 72.7049 34.8331 47.3245 0.0000 0.0000 0.0000
# 2 34.8331 72.7049 47.3245 0.0000 0.0000 0.0000
# 3 47.3245 47.3245 86.9240 0.0000 0.0000 0.0000
# 4 0.0000 0.0000 0.0000 26.0634 0.0000 0.0000
# 5 0.0000 0.0000 0.0000 0.0000 26.0634 0.0000
# 6 0.0000 0.0000 0.0000 0.0000 0.0000 18.9359
#
#
#
# Elastic Compliance Matrix: (Units=1/GPa)
#
#
# Indices 1 2 3 4 5 6 
#
# 1 0.022130 -0.004275 -0.009721 0.000000 0.000000 0.000000
# 2 -0.004275 0.022130 -0.009721 0.000000 0.000000 0.000000
# 3 -0.009721 -0.009721 0.022089 0.000000 0.000000 0.000000
# 4 0.000000 0.000000 0.000000 0.038368 0.000000 0.000000
# 5 0.000000 0.000000 0.000000 0.000000 0.038368 0.000000
# 6 0.000000 0.000000 0.000000 0.000000 0.000000 0.052810
#
#
# Mechanical properties :
#
#
# Convention : Reuss Voigt Hill
#
# Bulk Modulus (GPa) = 52.86699 54.58868 53.72783
# Shear Modulus (GPa) = 20.02945 21.06932 20.54939
#
# Velocity S-wave (km/s) = 3.47535 3.56442 3.52017
# Velocity P-wave (km/s) = 6.92702 7.06101 6.99434
#
# Compressibility (1/GPa) = 0.01891539
#
# Stress axis : x y z
#
# Youngs Moduli (GPa) = 45.18798 45.18798 45.27155
#
# Poissons Ratio (x) = 0.19318 0.44007
# Poissons Ratio (y) = 0.19318 0.44007
# Poissons Ratio (z) = 0.43926 0.43926
#
# Static dielectric constant tensor:
#      x y z
#    x 2.960860 0.000000 0.000000 
#    y 0.000000 2.960860 0.000000 
#    z 0.000000 0.000000 3.064420 
# 
# 
# High freq. dielectric constant tensor:
#      x y z
#    x 1.626430 0.000000 0.000000 
#    y 0.000000 1.626430 0.000000 
#    z 0.000000 0.000000 1.642520 
# 
# From -- ./inp_files/417.got.cif
#   From: 2010.03.12/outbox.cif.g09.slc.cpg/sg189_1_cif.got.tgz:417.got - 2010.04.01 12:03:36.
