data_PCOD8327896
_publ_section_title
;
Structure prediction by ZEFSAII (Michael W. Deem and Ramdas Pophale) SiO2 
 PCOD8327896
Probable space group: P -6 2 M
;
_chemical_formula_sum "Si O2"
_cell_formula_units_Z 48
_cell_length_a 15.444059
_cell_length_b 15.444059
_cell_length_c 13.772881
_cell_angle_alpha 90.000000
_cell_angle_beta 90.000000
_cell_angle_gamma 120.000000
_cell_volume 2844.974191
_symmetry_space_group_name_H-M "P -6 2 M"
_symmetry_group_IT_number 189
_symmetry_cell_setting 'hexagonal'
loop_
_space_group_symop_operation_xyz
x,y,z
-x+y,-x,-z
-y,x-y,z
x,y,-z
-x+y,-x,z
-y,x-y,-z
x-y,-y,-z
-x,-x+y,-z
y,x,-z
y,x,z
x-y,-y,z
-x,-x+y,z
loop_
_atom_site_type_symbol
_atom_site_label
_atom_site_fract_x
_atom_site_fract_y
_atom_site_fract_z
Si Si1 0.887898 0.775376 0.884481
Si Si2 0.380003 0.586498 0.606832
Si Si3 0.450765 0.212202 0.886370
Si Si4 0.455822 0.885219 0.805932
O O1 0.830475 0.830475 0.843284
O O2 0.832193 0.661517 0.848408
O O3 0.000000 0.830661 0.841969
O O4 0.890891 0.779699 0.000000
O O5 0.445075 0.707842 0.617206
O O6 0.398911 0.554426 0.500000
O O7 0.409123 0.533421 0.690281
O O8 0.492709 0.150898 0.829932
O O9 0.514316 0.329728 0.865820
O O10 0.454026 0.193161 0.000000
O O11 0.526329 0.000000 0.836981
#
# Coordination Sequence:
#
# PCOD8327896 Si02
#       4
#    12  12  12  12
#     4   9  17  30  47  65  87 119 161 207 248 280
#     4   8  15  33  57  74  98 130 161 203 258 310
#     4  11  22  35  47  68 103 138 173 210 241 282
#     4  12  22  34  54  77 100 135 174 205 257 308
#
# _framework density 16.871858
#
# number of rings (size 3 to 8) (size 9 to 14) (size 15 to 20)
#    0.500    1.500    2.500    3.000    0.000    5.500 
#    0.000    0.000    0.000    0.000    0.000    0.000 
#    0.000    0.000    0.000    0.000    0.000   17.750 
#
# Total GULP energy -595040.918887 kJ/mol
# GULP energy per Si atom -12396.685810 kJ/mol
# Density = 1.683346 g / cm^3
# Si number density = 16.871858 Si / 1000 Ang^3
#
#
#
# Elastic Constant Matrix: (Units=GPa)
#
#
# Indices 1 2 3 4 5 6 
#
# 1 78.9373 17.2530 10.0735 0.0000 0.0000 0.0000
# 2 17.2530 78.9373 10.0735 0.0000 0.0000 0.0000
# 3 10.0735 10.0735 51.7244 0.0000 0.0000 0.0000
# 4 0.0000 0.0000 0.0000 7.9242 0.0000 0.0000
# 5 0.0000 0.0000 0.0000 0.0000 7.9242 0.0000
# 6 0.0000 0.0000 0.0000 0.0000 0.0000 30.8422
#
#
#
# Elastic Compliance Matrix: (Units=1/GPa)
#
#
# Indices 1 2 3 4 5 6 
#
# 1 0.013525 -0.002687 -0.002111 0.000000 0.000000 0.000000
# 2 -0.002687 0.013525 -0.002111 0.000000 0.000000 0.000000
# 3 -0.002111 -0.002111 0.020155 0.000000 0.000000 0.000000
# 4 0.000000 0.000000 0.000000 0.126196 0.000000 0.000000
# 5 0.000000 0.000000 0.000000 0.000000 0.126196 0.000000
# 6 0.000000 0.000000 0.000000 0.000000 0.000000 0.032423
#
#
# Mechanical properties :
#
#
# Convention : Reuss Voigt Hill
#
# Bulk Modulus (GPa) = 29.95030 31.59988 30.77509
# Shear Modulus (GPa) = 14.00692 20.81804 17.41248
#
# Velocity S-wave (km/s) = 2.88444 3.51649 3.21603
# Velocity P-wave (km/s) = 5.37433 5.93781 5.66308
#
# Compressibility (1/GPa) = 0.03338865
#
# Stress axis : x y z
#
# Youngs Moduli (GPa) = 73.93790 73.93790 49.61448
#
# Poissons Ratio (x) = 0.19865 0.10472
# Poissons Ratio (y) = 0.19865 0.10472
# Poissons Ratio (z) = 0.15607 0.15607
#
# Static dielectric constant tensor:
#      x y z
#    x 3.129570 0.000000 0.000000 
#    y 0.000000 3.129570 0.000000 
#    z 0.000000 0.000000 2.913680 
# 
# 
# High freq. dielectric constant tensor:
#      x y z
#    x 1.645020 0.000000 0.000000 
#    y 0.000000 1.645020 0.000000 
#    z 0.000000 0.000000 1.621720 
# 
# From -- ./inp_files/2390.got.cif
#   From: 2010.03.12/outbox.cif.g09.slc.cpg/sg189_2_cif.got.tgz:2390.got - 2010.04.01 12:03:36.
