data_PCOD8327134
_publ_section_title
;
Structure prediction by ZEFSAII (Michael W. Deem and Ramdas Pophale) SiO2 
 PCOD8327134
Probable space group: P -6 M 2
;
_chemical_formula_sum "Si O2"
_cell_formula_units_Z 72
_cell_length_a 12.597668
_cell_length_b 12.597668
_cell_length_c 30.460864
_cell_angle_alpha 90.000000
_cell_angle_beta 90.000000
_cell_angle_gamma 120.000000
_cell_volume 4186.519966
_symmetry_space_group_name_H-M "P -6 M 2"
_symmetry_group_IT_number 187
_symmetry_cell_setting 'hexagonal'
loop_
_space_group_symop_operation_xyz
x,y,z
-x+y,-x,-z
-y,x-y,z
x,y,-z
-x+y,-x,z
-y,x-y,-z
-y,-x,-z
-x+y,y,-z
x,x-y,-z
-x+y,y,z
x,x-y,z
-y,-x,z
loop_
_atom_site_type_symbol
_atom_site_label
_atom_site_fract_x
_atom_site_fract_y
_atom_site_fract_z
Si Si1 0.580254 0.666492 0.581211
Si Si2 0.419535 0.332044 0.836182
Si Si3 0.248572 0.248223 0.082022
Si Si4 0.755726 0.000176 0.241360
Si Si5 0.420076 0.334853 0.500000
Si Si6 0.243617 0.000117 0.658970
Si Si7 0.582383 0.914032 0.000000
O O1 0.579977 0.789989 0.570590
O O2 0.441423 0.558578 0.583399
O O3 0.655151 0.647027 0.542946
O O4 0.643430 0.671877 0.627596
O O5 0.461334 0.230667 0.837785
O O6 0.536260 0.463741 0.843496
O O7 0.320976 0.308103 0.873501
O O8 0.358729 0.329917 0.789497
O O9 0.238631 0.119316 0.071824
O O10 0.112663 0.225325 0.086978
O O11 0.321371 0.339171 0.042598
O O12 0.898102 0.101899 0.234835
O O13 0.713940 0.001259 0.291256
O O14 0.740062 0.870031 0.228318
O O15 0.562238 0.437763 0.500000
O O16 0.408121 0.204061 0.500000
O O17 0.259474 0.129737 0.645292
O O18 0.100987 0.899014 0.653891
O O19 0.462481 0.924961 0.000000
O O20 0.543759 0.771880 0.000000
#
# Coordination Sequence:
#
# PCOD8327134 Si02
#       7
#    12  12  12  12   6  12   6
#     4  10  20  33  50  71  97 130 165 199 234 278
#     4  10  20  33  49  69  96 130 165 201 241 289
#     4  10  20  34  54  78 102 128 160 203 251 294
#     4   9  17  30  50  74  98 125 159 202 249 294
#     4  10  20  34  52  72  94 120 152 194 242 290
#     4   9  17  30  49  73  99 127 160 200 247 293
#     4  10  20  34  52  74 102 136 170 200 234 282
#
# _framework density 17.198053999999999
#
# number of rings (size 3 to 8) (size 9 to 14) (size 15 to 20)
#    0.000    2.333    0.000    3.000    0.000    2.000 
#    0.000    3.333    0.000    8.667    0.000    0.000 
#    0.000    0.000    0.000    0.000    0.000    0.000 
#
# Total GULP energy -893012.429218 kJ/mol
# GULP energy per Si atom -12402.950406 kJ/mol
# Density = 1.715891 g / cm^3
# Si number density = 17.198054 Si / 1000 Ang^3
#
#
#
# Elastic Constant Matrix: (Units=GPa)
#
#
# Indices 1 2 3 4 5 6 
#
# 1 111.8448 69.6430 60.3293 0.0000 -0.0003 0.0000
# 2 69.6430 111.8448 60.3293 0.0000 0.0003 0.0000
# 3 60.3293 60.3293 116.4105 0.0000 0.0000 0.0000
# 4 0.0000 0.0000 0.0000 19.5587 0.0000 0.0003
# 5 -0.0003 0.0003 0.0000 0.0000 19.5587 0.0000
# 6 0.0000 0.0000 0.0000 0.0003 0.0000 21.1009
#
#
#
# Elastic Compliance Matrix: (Units=1/GPa)
#
#
# Indices 1 2 3 4 5 6 
#
# 1 0.016051 -0.007645 -0.004357 0.000000 0.000000 0.000000
# 2 -0.007645 0.016051 -0.004357 0.000000 0.000000 0.000000
# 3 -0.004357 -0.004357 0.013106 0.000000 0.000000 0.000000
# 4 0.000000 0.000000 0.000000 0.051128 0.000000 -0.000001
# 5 0.000000 0.000000 0.000000 0.000000 0.051128 0.000000
# 6 0.000000 0.000000 0.000000 -0.000001 0.000000 0.047391
#
#
# Mechanical properties :
#
#
# Convention : Reuss Voigt Hill
#
# Bulk Modulus (GPa) = 80.04920 80.07816 80.06368
# Shear Modulus (GPa) = 21.57633 22.03022 21.80328
#
# Velocity S-wave (km/s) = 3.54585 3.58295 3.56445
# Velocity P-wave (km/s) = 7.96308 7.98625 7.97467
#
# Compressibility (1/GPa) = 0.01249232
#
# Stress axis : x y z
#
# Youngs Moduli (GPa) = 62.30129 62.30129 76.30175
#
# Poissons Ratio (x) = 0.47627 0.33242
# Poissons Ratio (y) = 0.47627 0.33242
# Poissons Ratio (z) = 0.27142 0.27142
#
# Static dielectric constant tensor:
#      x y z
#    x 3.094430 0.000000 0.000000 
#    y 0.000000 3.094430 0.000000 
#    z 0.000000 0.000000 3.465580 
# 
# 
# High freq. dielectric constant tensor:
#      x y z
#    x 1.660530 0.000000 0.000000 
#    y 0.000000 1.660530 0.000000 
#    z 0.000000 0.000000 1.679850 
# 
# From -- ./inp_files/4576.got.cif
#   From: 2010.03.12/outbox.cif.g09.slc.cpg/sg187_3_cif.got.tgz:4576.got - 2010.04.01 11:58:23.
