data_PCOD8327149
_publ_section_title
;
Structure prediction by ZEFSAII (Michael W. Deem and Ramdas Pophale) SiO2 
 PCOD8327149
Probable space group: P -6 M 2
;
_chemical_formula_sum "Si O2"
_cell_formula_units_Z 66
_cell_length_a 12.476747
_cell_length_b 12.476747
_cell_length_c 28.033811
_cell_angle_alpha 90.000000
_cell_angle_beta 90.000000
_cell_angle_gamma 120.000000
_cell_volume 3779.336050
_symmetry_space_group_name_H-M "P -6 M 2"
_symmetry_group_IT_number 187
_symmetry_cell_setting 'hexagonal'
loop_
_space_group_symop_operation_xyz
x,y,z
-x+y,-x,-z
-y,x-y,z
x,y,-z
-x+y,-x,z
-y,x-y,-z
-y,-x,-z
-x+y,y,-z
x,x-y,-z
-x+y,y,z
x,x-y,z
-y,-x,z
loop_
_atom_site_type_symbol
_atom_site_label
_atom_site_fract_x
_atom_site_fract_y
_atom_site_fract_z
Si Si1 0.332457 0.418230 0.139564
Si Si2 0.000334 0.249781 0.770821
Si Si3 0.246585 0.247091 0.945710
Si Si4 0.415876 0.331881 0.680987
Si Si5 0.748646 0.748612 0.590571
Si Si6 0.332176 0.917181 0.500000
O O1 0.230433 0.460865 0.140885
O O2 0.464757 0.535244 0.149631
O O3 0.304646 0.315057 0.179029
O O4 0.334266 0.361219 0.088209
O O5 0.890488 0.109513 0.773888
O O6 0.976326 0.325820 0.730502
O O7 0.124107 0.248213 0.757695
O O8 0.103727 0.207454 0.937494
O O9 0.260894 0.130447 0.932405
O O10 0.287670 0.290205 0.000000
O O11 0.454791 0.227396 0.678423
O O12 0.536319 0.463681 0.676298
O O13 0.323909 0.316656 0.638503
O O14 0.770760 0.885380 0.594608
O O15 0.662561 0.674753 0.546390
O O16 0.880061 0.760121 0.582448
O O17 0.224752 0.775248 0.500000
O O18 0.461241 0.922482 0.500000
#
# Coordination Sequence:
#
# PCOD8327149 Si02
#       6
#    12  12  12  12  12   6
#     4  10  20  33  49  70  98 132 167 202 241 288
#     4  10  20  34  54  78 102 128 160 203 252 298
#     4   9  17  30  50  75 100 126 158 200 249 296
#     4  10  20  34  52  74 102 136 171 205 242 289
#     4  10  20  34  54  78 104 134 168 210 256 300
#     4  10  20  34  52  74 102 136 172 210 252 300
#
# _framework density 17.463384999999999
#
# number of rings (size 3 to 8) (size 9 to 14) (size 15 to 20)
#    0.000    2.182    0.000    3.455    0.000    1.091 
#    0.000    4.545    0.000   12.727    0.000    0.000 
#    0.000    0.000    0.000    0.000    0.000    0.000 
#
# Total GULP energy -818635.929052 kJ/mol
# GULP energy per Si atom -12403.574683 kJ/mol
# Density = 1.742364 g / cm^3
# Si number density = 17.463385 Si / 1000 Ang^3
#
#
#
# Elastic Constant Matrix: (Units=GPa)
#
#
# Indices 1 2 3 4 5 6 
#
# 1 88.4450 47.4836 38.8706 0.0000 0.0001 0.0000
# 2 47.4836 88.4450 38.8706 0.0000 -0.0001 0.0000
# 3 38.8706 38.8706 101.1908 0.0000 0.0000 0.0000
# 4 0.0000 0.0000 0.0000 17.8368 0.0000 -0.0001
# 5 0.0001 -0.0001 0.0000 0.0000 17.8368 0.0000
# 6 0.0000 0.0000 0.0000 -0.0001 0.0000 20.4807
#
#
#
# Elastic Compliance Matrix: (Units=1/GPa)
#
#
# Indices 1 2 3 4 5 6 
#
# 1 0.016921 -0.007493 -0.003622 0.000000 0.000000 0.000000
# 2 -0.007493 0.016921 -0.003622 0.000000 0.000000 0.000000
# 3 -0.003622 -0.003622 0.012665 0.000000 0.000000 0.000000
# 4 0.000000 0.000000 0.000000 0.056064 0.000000 0.000000
# 5 0.000000 0.000000 0.000000 0.000000 0.056064 0.000000
# 6 0.000000 0.000000 0.000000 0.000000 0.000000 0.048826
#
#
# Mechanical properties :
#
#
# Convention : Reuss Voigt Hill
#
# Bulk Modulus (GPa) = 58.70484 58.72560 58.71522
# Shear Modulus (GPa) = 20.60920 21.42125 21.01522
#
# Velocity S-wave (km/s) = 3.43904 3.50614 3.47275
# Velocity P-wave (km/s) = 7.03266 7.07754 7.05513
#
# Compressibility (1/GPa) = 0.01703437
#
# Stress axis : x y z
#
# Youngs Moduli (GPa) = 59.09928 59.09928 78.95963
#
# Poissons Ratio (x) = 0.44281 0.28596
# Poissons Ratio (y) = 0.44281 0.28596
# Poissons Ratio (z) = 0.21404 0.21404
#
# Static dielectric constant tensor:
#      x y z
#    x 3.147310 0.000000 0.000000 
#    y 0.000000 3.147310 0.000000 
#    z 0.000000 0.000000 3.474560 
# 
# 
# High freq. dielectric constant tensor:
#      x y z
#    x 1.672510 0.000000 0.000000 
#    y 0.000000 1.672510 0.000000 
#    z 0.000000 0.000000 1.693190 
# 
# From -- ./inp_files/4409.got.cif
#   From: 2010.03.12/outbox.cif.g09.slc.cpg/sg187_3_cif.got.tgz:4409.got - 2010.04.01 11:58:23.
