data_PCOD8327838
_publ_section_title
;
Structure prediction by ZEFSAII (Michael W. Deem and Ramdas Pophale) SiO2 
 PCOD8327838
Probable space group: P -6 2 M
;
_chemical_formula_sum "Si O2"
_cell_formula_units_Z 60
_cell_length_a 20.846338
_cell_length_b 20.846338
_cell_length_c 7.881978
_cell_angle_alpha 90.000000
_cell_angle_beta 90.000000
_cell_angle_gamma 120.000000
_cell_volume 2966.370546
_symmetry_space_group_name_H-M "P -6 2 M"
_symmetry_group_IT_number 189
_symmetry_cell_setting 'hexagonal'
loop_
_space_group_symop_operation_xyz
x,y,z
-x+y,-x,-z
-y,x-y,z
x,y,-z
-x+y,-x,z
-y,x-y,-z
x-y,-y,-z
-x,-x+y,-z
y,x,-z
y,x,z
x-y,-y,z
-x,-x+y,z
loop_
_atom_site_type_symbol
_atom_site_label
_atom_site_fract_x
_atom_site_fract_y
_atom_site_fract_z
Si Si1 0.084697 0.811994 0.693371
Si Si2 0.865477 0.782984 0.000000
Si Si3 0.502434 0.686182 0.188034
Si Si4 0.282040 0.440783 0.307912
Si Si5 0.526447 0.443637 0.805400
Si Si6 0.634291 0.714509 0.000000
O O1 0.106168 0.844294 0.500000
O O2 0.134885 0.776913 0.754238
O O3 0.000000 0.746705 0.697114
O O4 0.093685 0.874890 0.826879
O O5 0.856070 0.856070 0.000000
O O6 0.785807 0.712670 0.000000
O O7 0.502396 0.752457 0.292899
O O8 0.462004 0.605346 0.280922
O O9 0.467267 0.681635 0.000000
O O10 0.589057 0.710910 0.168891
O O11 0.304331 0.438368 0.500000
O O12 0.356350 0.469762 0.200373
O O13 0.489136 0.489136 0.723228
O O14 0.545498 0.468471 0.000000
O O15 0.641870 0.641870 0.000000
#
# Coordination Sequence:
#
# PCOD8327838 Si02
#       6
#    12   6  12  12  12   6
#     4  10  21  38  60  89 124 157 195 243 294 352
#     4  11  21  35  60  90 121 152 189 237 291 353
#     4   9  18  35  57  80 110 143 188 236 285 348
#     4  11  22  37  55  82 118 154 193 241 295 350
#     4  10  21  36  59  86 111 147 195 244 296 352
#     4   9  16  31  56  82 110 140 173 229 290 345
#
# _framework density 20.226737
#
# number of rings (size 3 to 8) (size 9 to 14) (size 15 to 20)
#    0.600    1.400    2.000    2.100    1.400    2.400 
#    1.200    0.000    0.000    3.400    0.000    0.000 
#    0.000    0.000    0.000    0.000    0.000    0.000 
#
# Total GULP energy -743327.742783 kJ/mol
# GULP energy per Si atom -12388.795713 kJ/mol
# Density = 2.018070 g / cm^3
# Si number density = 20.226737 Si / 1000 Ang^3
#
#
#
# Elastic Constant Matrix: (Units=GPa)
#
#
# Indices 1 2 3 4 5 6 
#
# 1 99.7977 35.6552 24.8742 0.0000 0.0000 0.0000
# 2 35.6552 99.7977 24.8742 0.0000 0.0000 0.0000
# 3 24.8742 24.8742 62.9979 0.0000 0.0000 0.0000
# 4 0.0000 0.0000 0.0000 12.0471 0.0000 0.0000
# 5 0.0000 0.0000 0.0000 0.0000 12.0471 0.0000
# 6 0.0000 0.0000 0.0000 0.0000 0.0000 32.0712
#
#
#
# Elastic Compliance Matrix: (Units=1/GPa)
#
#
# Indices 1 2 3 4 5 6 
#
# 1 0.012113 -0.003478 -0.003409 0.000000 0.000000 0.000000
# 2 -0.003478 0.012113 -0.003409 0.000000 0.000000 0.000000
# 3 -0.003409 -0.003409 0.018566 0.000000 0.000000 0.000000
# 4 0.000000 0.000000 0.000000 0.083008 0.000000 0.000000
# 5 0.000000 0.000000 0.000000 0.000000 0.083008 0.000000
# 6 0.000000 0.000000 0.000000 0.000000 0.000000 0.031181
#
#
# Mechanical properties :
#
#
# Convention : Reuss Voigt Hill
#
# Bulk Modulus (GPa) = 45.04913 48.15559 46.60236
# Shear Modulus (GPa) = 18.65818 23.04573 20.85196
#
# Velocity S-wave (km/s) = 3.04048 3.37912 3.21426
# Velocity P-wave (km/s) = 5.88613 6.25173 6.07168
#
# Compressibility (1/GPa) = 0.02219799
#
# Stress axis : x y z
#
# Youngs Moduli (GPa) = 82.55897 82.55897 53.86222
#
# Poissons Ratio (x) = 0.28712 0.18364
# Poissons Ratio (y) = 0.28712 0.18364
# Poissons Ratio (z) = 0.28148 0.28148
#
# Static dielectric constant tensor:
#      x y z
#    x 3.657430 0.000000 0.000000 
#    y 0.000000 3.657430 0.000000 
#    z 0.000000 0.000000 3.390910 
# 
# 
# High freq. dielectric constant tensor:
#      x y z
#    x 1.782780 0.000000 0.000000 
#    y 0.000000 1.782780 0.000000 
#    z 0.000000 0.000000 1.760330 
# 
# From -- ./inp_files/957.got.cif
#   From: 2010.03.12/outbox.cif.g09.slc.cpg/sg189_1_cif.got.tgz:957.got - 2010.04.01 12:03:36.
