data_PCOD8327958
_publ_section_title
;
Structure prediction by ZEFSAII (Michael W. Deem and Ramdas Pophale) SiO2 
 PCOD8327958
Probable space group: P -6 2 C
;
_chemical_formula_sum "Si O2"
_cell_formula_units_Z 36
_cell_length_a 12.851386
_cell_length_b 12.851386
_cell_length_c 15.519082
_cell_angle_alpha 90.000000
_cell_angle_beta 90.000000
_cell_angle_gamma 120.000000
_cell_volume 2219.711826
_symmetry_space_group_name_H-M "P -6 2 C"
_symmetry_group_IT_number 190
_symmetry_cell_setting 'hexagonal'
loop_
_space_group_symop_operation_xyz
x,y,z
-x+y,-x,1/2-z
-y,x-y,z
x,y,1/2-z
-x+y,-x,z
-y,x-y,1/2-z
x-y,-y,-z
-x,-x+y,-z
y,x,-z
y,x,1/2+z
x-y,-y,1/2+z
-x,-x+y,1/2+z
loop_
_atom_site_type_symbol
_atom_site_label
_atom_site_fract_x
_atom_site_fract_y
_atom_site_fract_z
Si Si1 0.903035 0.571606 0.250000
Si Si2 0.758350 0.758106 0.904487
Si Si3 0.999998 0.796052 0.345825
Si Si4 0.668697 0.576586 0.250000
O O1 0.760780 0.526156 0.250000
O O2 0.930748 0.464756 0.250000
O O3 0.962292 0.655114 0.335186
O O4 0.869911 0.736760 0.888552
O O5 0.655206 0.685729 0.834745
O O6 0.806975 0.900772 0.901845
O O7 0.708300 0.708300 0.000000
O O8 0.001143 0.848160 0.250000
#
# Coordination Sequence:
#
# PCOD8327958 Si02
#       4
#     6  12  12   6
#     4   8  18  30  56  62  92 134 160 220 228 280
#     4  11  19  30  52  77 107 129 153 202 253 303
#     4   9  17  32  49  78 100 129 160 192 249 302
#     4  10  18  36  48  72  92 128 182 198 250 278
#
# _framework density 16.218323000000002
#
# number of rings (size 3 to 8) (size 9 to 14) (size 15 to 20)
#    1.000    1.333    3.333    2.000    0.000    0.000 
#    0.000    6.667    0.000    5.333    0.000    0.000 
#    0.000    0.000    0.000    0.000    0.000    0.000 
#
# Total GULP energy -446088.224610 kJ/mol
# GULP energy per Si atom -12391.339572 kJ/mol
# Density = 1.618141 g / cm^3
# Si number density = 16.218323 Si / 1000 Ang^3
#
#
#
# Elastic Constant Matrix: (Units=GPa)
#
#
# Indices 1 2 3 4 5 6 
#
# 1 98.9192 53.9802 33.1568 0.0000 0.0000 0.0000
# 2 53.9802 98.9192 33.1568 0.0000 0.0000 0.0000
# 3 33.1568 33.1568 121.1899 0.0000 0.0000 0.0000
# 4 0.0000 0.0000 0.0000 8.8577 0.0000 0.0000
# 5 0.0000 0.0000 0.0000 0.0000 8.8577 0.0000
# 6 0.0000 0.0000 0.0000 0.0000 0.0000 22.4695
#
#
#
# Elastic Compliance Matrix: (Units=1/GPa)
#
#
# Indices 1 2 3 4 5 6 
#
# 1 0.014837 -0.007416 -0.002030 0.000000 0.000000 0.000000
# 2 -0.007416 0.014837 -0.002030 0.000000 0.000000 0.000000
# 3 -0.002030 -0.002030 0.009362 0.000000 0.000000 0.000000
# 4 0.000000 0.000000 0.000000 0.112896 0.000000 0.000000
# 5 0.000000 0.000000 0.000000 0.000000 0.112896 0.000000
# 6 0.000000 0.000000 0.000000 0.000000 0.000000 0.044505
#
#
# Mechanical properties :
#
#
# Convention : Reuss Voigt Hill
#
# Bulk Modulus (GPa) = 62.17780 62.17957 62.17868
# Shear Modulus (GPa) = 14.80836 21.28593 18.04715
#
# Velocity S-wave (km/s) = 3.02497 3.62672 3.33943
# Velocity P-wave (km/s) = 7.11490 7.48063 7.30006
#
# Compressibility (1/GPa) = 0.01608291
#
# Stress axis : x y z
#
# Youngs Moduli (GPa) = 67.40092 67.40092 106.80954
#
# Poissons Ratio (x) = 0.49983 0.21685
# Poissons Ratio (y) = 0.49983 0.21685
# Poissons Ratio (z) = 0.13684 0.13684
#
# Static dielectric constant tensor:
#      x y z
#    x 2.818110 0.000000 0.000000 
#    y 0.000000 2.818110 0.000000 
#    z 0.000000 0.000000 3.012440 
# 
# 
# High freq. dielectric constant tensor:
#      x y z
#    x 1.603350 0.000000 0.000000 
#    y 0.000000 1.603350 0.000000 
#    z 0.000000 0.000000 1.618780 
# 
# From -- ./inp_files/2466.got.cif
#   From: 2010.06.25/outbox.cif.g09.slc.cpg/sg190_2_cif.got.tgz:2466.got - 2010.06.28 13:08:06.
