data_PCOD8327266
_publ_section_title
;
Structure prediction by ZEFSAII (Michael W. Deem and Ramdas Pophale) SiO2 
 PCOD8327266
Probable space group: P -6 M 2
;
_chemical_formula_sum "Si O2"
_cell_formula_units_Z 60
_cell_length_a 20.889198
_cell_length_b 20.889198
_cell_length_c 9.422831
_cell_angle_alpha 90.000000
_cell_angle_beta 90.000000
_cell_angle_gamma 120.000000
_cell_volume 3560.865472
_symmetry_space_group_name_H-M "P -6 M 2"
_symmetry_group_IT_number 187
_symmetry_cell_setting 'hexagonal'
loop_
_space_group_symop_operation_xyz
x,y,z
-x+y,-x,-z
-y,x-y,z
x,y,-z
-x+y,-x,z
-y,x-y,-z
-y,-x,-z
-x+y,y,-z
x,x-y,-z
-x+y,y,z
x,x-y,z
-y,-x,z
loop_
_atom_site_type_symbol
_atom_site_label
_atom_site_fract_x
_atom_site_fract_y
_atom_site_fract_z
Si Si1 0.794820 0.205181 0.169056
Si Si2 0.403158 0.451575 0.162087
Si Si3 0.029283 0.821389 0.336370
Si Si4 0.488727 0.370807 0.168951
Si Si5 0.880287 0.760573 0.169599
Si Si6 0.622694 0.739173 0.336017
O O1 0.711575 0.166231 0.231351
O O2 0.837396 0.162605 0.219964
O O3 0.793707 0.206294 0.000000
O O4 0.461813 0.538188 0.176544
O O5 0.437908 0.403474 0.223317
O O6 0.331901 0.434583 0.250281
O O7 0.379273 0.429619 0.000000
O O8 0.004169 0.816888 0.500000
O O9 0.096444 0.903557 0.303655
O O10 0.054033 0.761105 0.307117
O O11 0.962751 0.802682 0.230414
O O12 0.573890 0.426111 0.219309
O O13 0.487265 0.368830 0.000000
O O14 0.883314 0.766627 0.000000
O O15 0.603591 0.722345 0.500000
O O16 0.610486 0.805243 0.284573
#
# Coordination Sequence:
#
# PCOD8327266 Si02
#       6
#     6  12  12  12   6  12
#     4   9  16  25  39  63  93 123 157 197 241 277
#     4   9  17  29  46  68  95 127 158 189 233 286
#     4   9  19  36  53  69  94 128 162 196 243 301
#     4   8  14  25  39  58  88 123 157 192 228 269
#     4  11  21  31  49  75  99 125 161 207 251 291
#     4   9  18  32  50  72  96 121 153 196 241 285
#
# _framework density 16.849836
#
# number of rings (size 3 to 8) (size 9 to 14) (size 15 to 20)
#    0.000    3.000    0.000    3.900    0.000    3.600 
#    1.200    2.000    0.000    0.400    0.000    0.000 
#    0.000    0.000    0.000    0.000    1.000    0.000 
#
# Total GULP energy -743769.261655 kJ/mol
# GULP energy per Si atom -12396.154361 kJ/mol
# Density = 1.681148 g / cm^3
# Si number density = 16.849836 Si / 1000 Ang^3
#
#
#
# Elastic Constant Matrix: (Units=GPa)
#
#
# Indices 1 2 3 4 5 6 
#
# 1 98.9119 53.2678 37.3310 0.0000 -0.0002 0.0000
# 2 53.2678 98.9119 37.3310 0.0000 0.0002 0.0000
# 3 37.3310 37.3310 44.4757 0.0000 0.0000 0.0000
# 4 0.0000 0.0000 0.0000 23.1941 0.0000 0.0002
# 5 -0.0002 0.0002 0.0000 0.0000 23.1941 0.0000
# 6 0.0000 0.0000 0.0000 0.0002 0.0000 22.8220
#
#
#
# Elastic Compliance Matrix: (Units=1/GPa)
#
#
# Indices 1 2 3 4 5 6 
#
# 1 0.016540 -0.005368 -0.009377 0.000000 0.000000 0.000000
# 2 -0.005368 0.016540 -0.009377 0.000000 0.000000 0.000000
# 3 -0.009377 -0.009377 0.038226 0.000000 0.000000 0.000000
# 4 0.000000 0.000000 0.000000 0.043114 0.000000 0.000000
# 5 0.000000 0.000000 0.000000 0.000000 0.043114 0.000000
# 6 0.000000 0.000000 0.000000 0.000000 0.000000 0.043817
#
#
# Mechanical properties :
#
#
# Convention : Reuss Voigt Hill
#
# Bulk Modulus (GPa) = 43.36366 55.35101 49.35734
# Shear Modulus (GPa) = 19.43376 21.46669 20.45023
#
# Velocity S-wave (km/s) = 3.39979 3.57319 3.48756
# Velocity P-wave (km/s) = 6.41893 7.06714 6.75082
#
# Compressibility (1/GPa) = 0.02306078
#
# Stress axis : x y z
#
# Youngs Moduli (GPa) = 60.45882 60.45882 26.16050
#
# Poissons Ratio (x) = 0.32457 0.24531
# Poissons Ratio (y) = 0.32457 0.24531
# Poissons Ratio (z) = 0.56693 0.56693
#
# Static dielectric constant tensor:
#      x y z
#    x 3.191270 0.000000 0.000000 
#    y 0.000000 3.191270 0.000000 
#    z 0.000000 0.000000 2.805130 
# 
# 
# High freq. dielectric constant tensor:
#      x y z
#    x 1.648800 0.000000 0.000000 
#    y 0.000000 1.648800 0.000000 
#    z 0.000000 0.000000 1.617280 
# 
# From -- ./inp_files/661.got.cif
#   From: 2010.03.12/outbox.cif.g09.slc.cpg/sg187_1_cif.got.tgz:661.got - 2010.04.01 11:58:23.
