data_PCOD8327345
_publ_section_title
;
Structure prediction by ZEFSAII (Michael W. Deem and Ramdas Pophale) SiO2 
 PCOD8327345
Probable space group: P -6 C 2
;
_chemical_formula_sum "Si O2"
_cell_formula_units_Z 72
_cell_length_a 24.108353
_cell_length_b 24.108353
_cell_length_c 9.014720
_cell_angle_alpha 90.000000
_cell_angle_beta 90.000000
_cell_angle_gamma 120.000000
_cell_volume 4537.513785
_symmetry_space_group_name_H-M "P -6 C 2"
_symmetry_group_IT_number 188
_symmetry_cell_setting 'hexagonal'
loop_
_space_group_symop_operation_xyz
x,y,z
-x+y,-x,1/2-z
-y,x-y,z
x,y,1/2-z
-x+y,-x,z
-y,x-y,1/2-z
-y,-x,-z
-x+y,y,-z
x,x-y,-z
-x+y,y,1/2+z
x,x-y,1/2+z
-y,-x,1/2+z
loop_
_atom_site_type_symbol
_atom_site_label
_atom_site_fract_x
_atom_site_fract_y
_atom_site_fract_z
Si Si1 0.740316 0.147630 0.922610
Si Si2 0.525055 0.936660 0.078045
Si Si3 0.342922 0.003868 0.077014
Si Si4 0.286974 0.815367 0.577722
Si Si5 0.218951 0.884008 0.077779
Si Si6 0.780129 0.445519 0.924934
O O1 0.754728 0.153325 0.750000
O O2 0.711274 0.074951 0.978835
O O3 0.689608 0.170303 0.962298
O O4 0.808250 0.191751 0.000000
O O5 0.528968 0.953812 0.250000
O O6 0.496646 0.859968 0.055477
O O7 0.478257 0.956514 0.000000
O O8 0.595626 0.978216 0.012446
O O9 0.359570 0.003790 0.250000
O O10 0.265756 0.960131 0.050748
O O11 0.268698 0.806764 0.750000
O O12 0.255565 0.744436 0.500000
O O13 0.255805 0.851387 0.494466
O O14 0.207726 0.867737 0.250000
O O15 0.148114 0.851887 0.000000
O O16 0.770892 0.432637 0.750000
O O17 0.712021 0.424042 0.000000
O O18 0.808435 0.404217 0.000000
#
# Coordination Sequence:
#
# PCOD8327345 Si02
#       6
#    12  12  12  12  12  12
#     4   9  19  34  49  65  86 114 148 182 219 266
#     4  10  20  31  44  64  88 114 145 182 225 271
#     4   9  18  32  47  64  88 117 146 178 217 259
#     4   9  16  26  41  60  80 104 135 168 204 249
#     4   9  15  24  41  63  87 111 134 163 198 237
#     4  10  19  31  46  62  80 102 134 179 228 276
#
# _framework density 15.867718999999999
#
# number of rings (size 3 to 8) (size 9 to 14) (size 15 to 20)
#    0.000    2.667    0.000    3.167    0.000    4.667 
#    0.000    1.667    0.000    0.333    0.000    0.000 
#    0.000    0.000    0.000    0.500    0.000    6.000 
#
# Total GULP energy -892160.403687 kJ/mol
# GULP energy per Si atom -12391.116718 kJ/mol
# Density = 1.583160 g / cm^3
# Si number density = 15.867719 Si / 1000 Ang^3
#
#
#
# Elastic Constant Matrix: (Units=GPa)
#
#
# Indices 1 2 3 4 5 6 
#
# 1 89.0833 56.8642 45.8707 0.0000 0.0000 0.0000
# 2 56.8642 89.0833 45.8707 0.0000 0.0000 0.0000
# 3 45.8707 45.8707 92.0879 0.0000 0.0000 0.0000
# 4 0.0000 0.0000 0.0000 20.3102 0.0000 0.0000
# 5 0.0000 0.0000 0.0000 0.0000 20.3102 0.0000
# 6 0.0000 0.0000 0.0000 0.0000 0.0000 16.1096
#
#
#
# Elastic Compliance Matrix: (Units=1/GPa)
#
#
# Indices 1 2 3 4 5 6 
#
# 1 0.020506 -0.010531 -0.004969 0.000000 0.000000 0.000000
# 2 -0.010531 0.020506 -0.004969 0.000000 0.000000 0.000000
# 3 -0.004969 -0.004969 0.015809 0.000000 0.000000 0.000000
# 4 0.000000 0.000000 0.000000 0.049236 0.000000 0.000000
# 5 0.000000 0.000000 0.000000 0.000000 0.049236 0.000000
# 6 0.000000 0.000000 0.000000 0.000000 0.000000 0.062075
#
#
# Mechanical properties :
#
#
# Convention : Reuss Voigt Hill
#
# Bulk Modulus (GPa) = 62.95501 63.05173 63.00337
# Shear Modulus (GPa) = 18.96802 19.45594 19.21198
#
# Velocity S-wave (km/s) = 3.46118 3.50542 3.48337
# Velocity P-wave (km/s) = 7.46553 7.49707 7.48131
#
# Compressibility (1/GPa) = 0.01588436
#
# Stress axis : x y z
#
# Youngs Moduli (GPa) = 48.76553 48.76553 63.25394
#
# Poissons Ratio (x) = 0.51356 0.31430
# Poissons Ratio (y) = 0.51356 0.31430
# Poissons Ratio (z) = 0.24231 0.24231
#
# Static dielectric constant tensor:
#      x y z
#    x 3.228780 0.000000 0.000000 
#    y 0.000000 3.228780 0.000000 
#    z 0.000000 0.000000 3.140770 
# 
# 
# High freq. dielectric constant tensor:
#      x y z
#    x 1.583120 0.000000 0.000000 
#    y 0.000000 1.583120 0.000000 
#    z 0.000000 0.000000 1.625320 
# 
# From -- ./inp_files/1043.got.cif
#   From: 2010.03.12/outbox.cif.g09.slc.cpg/sg188_1_cif.got.tgz:1043.got - 2010.04.01 12:01:06.
