data_PCOD8327035
_publ_section_title
;
Structure prediction by ZEFSAII (Michael W. Deem and Ramdas Pophale) SiO2 
 PCOD8327035
Probable space group: P -6 M 2
;
_chemical_formula_sum "Si O2"
_cell_formula_units_Z 72
_cell_length_a 12.729162
_cell_length_b 12.729162
_cell_length_c 30.823321
_cell_angle_alpha 90.000000
_cell_angle_beta 90.000000
_cell_angle_gamma 120.000000
_cell_volume 4325.234795
_symmetry_space_group_name_H-M "P -6 M 2"
_symmetry_group_IT_number 187
_symmetry_cell_setting 'hexagonal'
loop_
_space_group_symop_operation_xyz
x,y,z
-x+y,-x,-z
-y,x-y,z
x,y,-z
-x+y,-x,z
-y,x-y,-z
-y,-x,-z
-x+y,y,-z
x,x-y,-z
-x+y,y,z
x,x-y,z
-y,-x,z
loop_
_atom_site_type_symbol
_atom_site_label
_atom_site_fract_x
_atom_site_fract_y
_atom_site_fract_z
Si Si1 0.425481 0.333224 0.075184
Si Si2 0.999167 0.755209 0.000000
Si Si3 0.913644 0.334477 0.671011
Si Si4 0.087767 0.665125 0.249007
Si Si5 0.336049 0.914817 0.594196
Si Si6 0.908728 0.333107 0.173765
Si Si7 0.094674 0.430238 0.500000
O O1 0.464889 0.232445 0.068653
O O2 0.538989 0.461012 0.062780
O O3 0.317819 0.310692 0.043193
O O4 0.381815 0.330802 0.124410
O O5 0.895394 0.790788 0.000000
O O6 0.126178 0.873823 0.000000
O O7 0.879320 0.439660 0.668087
O O8 0.792237 0.207764 0.675250
O O9 0.995963 0.351438 0.712382
O O10 0.985525 0.332254 0.628280
O O11 0.128372 0.564186 0.249933
O O12 0.204669 0.795332 0.254466
O O13 0.022426 0.661014 0.203860
O O14 0.440490 0.880979 0.603720
O O15 0.207201 0.792800 0.598955
O O16 0.353956 0.975839 0.545763
O O17 0.870067 0.435034 0.179737
O O18 0.794379 0.205622 0.187510
O O19 0.200535 0.401070 0.500000
O O20 0.149751 0.574876 0.500000
#
# Coordination Sequence:
#
# PCOD8327035 Si02
#       7
#    12   6  12  12  12  12   6
#     4   9  17  30  50  75  98 120 150 192 239 278
#     4  10  20  32  46  64  90 126 164 198 230 270
#     4  10  20  33  49  68  91 120 154 192 232 275
#     4  10  20  33  50  71  95 122 152 188 228 272
#     4   9  16  27  46  71  97 122 149 185 228 273
#     4   9  17  30  50  75 100 124 151 186 228 274
#     4   8  13  22  39  66  96 122 148 180 222 268
#
# _framework density 16.646495000000002
#
# number of rings (size 3 to 8) (size 9 to 14) (size 15 to 20)
#    0.000    2.667    0.000    2.250    0.000    3.333 
#    0.000    4.583    0.000    7.333    0.000    1.167 
#    0.000    0.000    0.000    0.000    0.000    0.000 
#
# Total GULP energy -892521.874826 kJ/mol
# GULP energy per Si atom -12396.137150 kJ/mol
# Density = 1.660861 g / cm^3
# Si number density = 16.646495 Si / 1000 Ang^3
#
#
#
# Elastic Constant Matrix: (Units=GPa)
#
#
# Indices 1 2 3 4 5 6 
#
# 1 96.9618 57.8500 60.1697 0.0000 0.0004 0.0000
# 2 57.8500 96.9618 60.1697 0.0000 -0.0004 0.0000
# 3 60.1697 60.1697 132.8204 0.0000 0.0000 0.0000
# 4 0.0000 0.0000 0.0000 20.9702 0.0000 -0.0004
# 5 0.0004 -0.0004 0.0000 0.0000 20.9702 0.0000
# 6 0.0000 0.0000 0.0000 -0.0004 0.0000 19.5559
#
#
#
# Elastic Compliance Matrix: (Units=1/GPa)
#
#
# Indices 1 2 3 4 5 6 
#
# 1 0.017769 -0.007799 -0.004517 0.000000 0.000000 0.000000
# 2 -0.007799 0.017769 -0.004517 0.000000 0.000000 0.000000
# 3 -0.004517 -0.004517 0.011621 0.000000 0.000000 0.000000
# 4 0.000000 0.000000 0.000000 0.047687 0.000000 0.000001
# 5 0.000000 0.000000 0.000000 0.000000 0.047687 0.000000
# 6 0.000000 0.000000 0.000000 0.000001 0.000000 0.051136
#
#
# Mechanical properties :
#
#
# Convention : Reuss Voigt Hill
#
# Bulk Modulus (GPa) = 74.10077 75.90252 75.00164
# Shear Modulus (GPa) = 21.56742 22.20290 21.88516
#
# Velocity S-wave (km/s) = 3.60337 3.65607 3.62981
# Velocity P-wave (km/s) = 7.86914 7.96983 7.91964
#
# Compressibility (1/GPa) = 0.01349514
#
# Stress axis : x y z
#
# Youngs Moduli (GPa) = 56.27741 56.27741 86.04899
#
# Poissons Ratio (x) = 0.43889 0.38866
# Poissons Ratio (y) = 0.43889 0.38866
# Poissons Ratio (z) = 0.25419 0.25419
#
# Static dielectric constant tensor:
#      x y z
#    x 2.876810 0.000000 0.000000 
#    y 0.000000 2.876810 0.000000 
#    z 0.000000 0.000000 3.659850 
# 
# 
# High freq. dielectric constant tensor:
#      x y z
#    x 1.618510 0.000000 0.000000 
#    y 0.000000 1.618510 0.000000 
#    z 0.000000 0.000000 1.666880 
# 
# From -- ./inp_files/4549.got.cif
#   From: 2010.03.12/outbox.cif.g09.slc.cpg/sg187_3_cif.got.tgz:4549.got - 2010.04.01 11:58:23.
