data_PCOD8327855
_publ_section_title
;
Structure prediction by ZEFSAII (Michael W. Deem and Ramdas Pophale) SiO2 
 PCOD8327855
Probable space group: P -6 2 M
;
_chemical_formula_sum "Si O2"
_cell_formula_units_Z 48
_cell_length_a 11.777517
_cell_length_b 11.777517
_cell_length_c 20.147158
_cell_angle_alpha 90.000000
_cell_angle_beta 90.000000
_cell_angle_gamma 120.000000
_cell_volume 2420.203605
_symmetry_space_group_name_H-M "P -6 2 M"
_symmetry_group_IT_number 189
_symmetry_cell_setting 'hexagonal'
loop_
_space_group_symop_operation_xyz
x,y,z
-x+y,-x,-z
-y,x-y,z
x,y,-z
-x+y,-x,z
-y,x-y,-z
x-y,-y,-z
-x,-x+y,-z
y,x,-z
y,x,z
x-y,-y,z
-x,-x+y,z
loop_
_atom_site_type_symbol
_atom_site_label
_atom_site_fract_x
_atom_site_fract_y
_atom_site_fract_z
Si Si1 0.500207 0.266176 0.310058
Si Si2 0.300988 0.150155 0.423902
Si Si3 0.266046 0.765760 0.074610
Si Si4 0.302657 0.150635 0.808756
O O1 0.578111 0.184809 0.305607
O O2 0.427938 0.239267 0.380202
O O3 0.399814 0.230329 0.250417
O O4 0.347636 0.168495 0.500000
O O5 0.192530 0.192530 0.413300
O O6 0.236107 0.000000 0.401029
O O7 0.185809 0.606978 0.085039
O O8 0.220232 0.838511 0.124839
O O9 0.243006 0.800165 0.000000
O O10 0.206854 0.206854 0.823113
O O11 0.216724 0.000000 0.787542
#
# Coordination Sequence:
#
# PCOD8327855 Si02
#       4
#    12  12  12  12
#     4  10  24  42  59  88 117 148 196 247 300 351
#     4  10  21  38  62  90 121 158 196 235 281 341
#     4   8  18  39  63  93 119 148 196 243 289 339
#     4  12  25  40  60  86 119 158 196 239 292 351
#
# _framework density 19.833043
#
# number of rings (size 3 to 8) (size 9 to 14) (size 15 to 20)
#    1.000    1.000    0.000    3.500    0.000   10.000 
#    0.000    7.500    0.000    1.500    0.000    0.000 
#    0.000    0.000    0.000    0.000    0.000    0.000 
#
# Total GULP energy -595072.260799 kJ/mol
# GULP energy per Si atom -12397.338767 kJ/mol
# Density = 1.978790 g / cm^3
# Si number density = 19.833043 Si / 1000 Ang^3
#
#
#
# Elastic Constant Matrix: (Units=GPa)
#
#
# Indices 1 2 3 4 5 6 
#
# 1 65.3882 11.2528 23.7115 0.0000 0.0000 0.0000
# 2 11.2528 65.3882 23.7115 0.0000 0.0000 0.0000
# 3 23.7115 23.7115 96.8830 0.0000 0.0000 0.0000
# 4 0.0000 0.0000 0.0000 -0.8109 0.0000 0.0000
# 5 0.0000 0.0000 0.0000 0.0000 -0.8109 0.0000
# 6 0.0000 0.0000 0.0000 0.0000 0.0000 27.0677
#
#
#
# Elastic Compliance Matrix: (Units=1/GPa)
#
#
# Indices 1 2 3 4 5 6 
#
# 1 0.016924 -0.001548 -0.003763 0.000000 0.000000 0.000000
# 2 -0.001548 0.016924 -0.003763 0.000000 0.000000 0.000000
# 3 -0.003763 -0.003763 0.012164 0.000000 0.000000 0.000000
# 4 0.000000 0.000000 0.000000 -1.233142 0.000000 0.000000
# 5 0.000000 0.000000 0.000000 0.000000 -1.233142 0.000000
# 6 0.000000 0.000000 0.000000 0.000000 0.000000 0.036944
#
#
# Mechanical properties :
#
#
# Convention : Reuss Voigt Hill
#
# Bulk Modulus (GPa) = 35.88920 38.33456 37.11188
# Shear Modulus (GPa) = -2.12234 16.35474 7.11620
#
# Velocity S-wave (km/s) = -1.03558 2.87474 1.89627
# Velocity P-wave (km/s) = 4.08718 5.51266 4.85255
#
# Compressibility (1/GPa) = 0.02786354
#
# Stress axis : x y z
#
# Youngs Moduli (GPa) = 59.08658 59.08658 82.21109
#
# Poissons Ratio (x) = 0.09146 0.30938
# Poissons Ratio (y) = 0.09146 0.30938
# Poissons Ratio (z) = 0.22236 0.22236
#
# Static dielectric constant tensor:
#      x y z
#    x 3.463600 0.000000 0.000000 
#    y 0.000000 3.463600 0.000000 
#    z 0.000000 0.000000 3.581390 
# 
# 
# High freq. dielectric constant tensor:
#      x y z
#    x 1.764030 0.000000 0.000000 
#    y 0.000000 1.764030 0.000000 
#    z 0.000000 0.000000 1.783990 
# 
# From -- ./inp_files/3332.got.cif
#   From: 2010.03.12/outbox.cif.g09.slc.cpg/sg189_2_cif.got.tgz:3332.got - 2010.04.01 12:03:36.
