data_PCOD8327229
_publ_section_title
;
Structure prediction by ZEFSAII (Michael W. Deem and Ramdas Pophale) SiO2 
 PCOD8327229
Probable space group: P -6 M 2
;
_chemical_formula_sum "Si O2"
_cell_formula_units_Z 66
_cell_length_a 22.053030
_cell_length_b 22.053030
_cell_length_c 7.799789
_cell_angle_alpha 90.000000
_cell_angle_beta 90.000000
_cell_angle_gamma 120.000000
_cell_volume 3285.110804
_symmetry_space_group_name_H-M "P -6 M 2"
_symmetry_group_IT_number 187
_symmetry_cell_setting 'hexagonal'
loop_
_space_group_symop_operation_xyz
x,y,z
-x+y,-x,-z
-y,x-y,z
x,y,-z
-x+y,-x,z
-y,x-y,-z
-y,-x,-z
-x+y,y,-z
x,x-y,-z
-x+y,y,z
x,x-y,z
-y,-x,z
loop_
_atom_site_type_symbol
_atom_site_label
_atom_site_fract_x
_atom_site_fract_y
_atom_site_fract_z
Si Si1 0.791328 0.074211 0.201772
Si Si2 0.522392 0.334186 0.500000
Si Si3 0.664670 0.573481 0.803724
Si Si4 0.469316 0.667092 0.202160
Si Si5 0.404719 0.951138 0.690956
Si Si6 0.864720 0.999305 0.299435
O O1 0.858008 0.141993 0.281872
O O2 0.723420 0.074943 0.270651
O O3 0.796242 0.006221 0.258708
O O4 0.791047 0.077784 0.000000
O O5 0.601942 0.398059 0.500000
O O6 0.521914 0.260957 0.500000
O O7 0.485682 0.340630 0.326401
O O8 0.594918 0.579038 0.812704
O O9 0.679672 0.557980 0.000000
O O10 0.479385 0.739693 0.278637
O O11 0.397485 0.602516 0.277908
O O12 0.537587 0.660883 0.251617
O O13 0.463607 0.667123 0.000000
O O14 0.392357 0.970220 0.500000
O O15 0.469953 0.939905 0.702018
O O16 0.874456 0.997757 0.500000
O O17 0.934405 0.065596 0.219025
O O18 0.854612 0.927306 0.217881
#
# Coordination Sequence:
#
# PCOD8327229 Si02
#       6
#    12   6  12  12  12  12
#     4   9  19  35  54  79 109 143 190 242 287 340
#     4  12  27  46  70 100 131 160 192 232 282 344
#     4  11  23  41  66  93 123 160 199 240 290 349
#     4   9  17  30  50  77 111 153 201 253 308 362
#     4  10  20  35  55  82 114 149 196 250 297 350
#     4   9  17  29  48  75 109 149 193 242 296 350
#
# _framework density 20.090647000000001
#
# number of rings (size 3 to 8) (size 9 to 14) (size 15 to 20)
#    0.000    2.182    0.909    2.091    1.273    5.455 
#    0.000    0.909    0.000    4.364    0.000    0.000 
#    0.000    0.000    0.000    0.000    0.000    0.000 
#
# Total GULP energy -817961.340710 kJ/mol
# GULP energy per Si atom -12393.353647 kJ/mol
# Density = 2.004492 g / cm^3
# Si number density = 20.090647 Si / 1000 Ang^3
#
#
#
# Elastic Constant Matrix: (Units=GPa)
#
#
# Indices 1 2 3 4 5 6 
#
# 1 116.4396 55.9818 30.5153 0.0000 0.0003 0.0000
# 2 55.9818 116.4396 30.5153 0.0000 -0.0003 0.0000
# 3 30.5153 30.5153 56.3322 0.0000 0.0000 0.0000
# 4 0.0000 0.0000 0.0000 23.5387 0.0000 -0.0003
# 5 0.0003 -0.0003 0.0000 0.0000 23.5387 0.0000
# 6 0.0000 0.0000 0.0000 -0.0003 0.0000 30.2289
#
#
#
# Elastic Compliance Matrix: (Units=1/GPa)
#
#
# Indices 1 2 3 4 5 6 
#
# 1 0.011858 -0.004682 -0.003887 0.000000 0.000000 0.000000
# 2 -0.004682 0.011858 -0.003887 0.000000 0.000000 0.000000
# 3 -0.003887 -0.003887 0.021963 0.000000 0.000000 0.000000
# 4 0.000000 0.000000 0.000000 0.042483 0.000000 0.000000
# 5 0.000000 0.000000 0.000000 0.000000 0.042483 0.000000
# 6 0.000000 0.000000 0.000000 0.000000 0.000000 0.033081
#
#
# Mechanical properties :
#
#
# Convention : Reuss Voigt Hill
#
# Bulk Modulus (GPa) = 48.15536 58.13736 53.14636
# Shear Modulus (GPa) = 25.56741 26.94121 26.25431
#
# Velocity S-wave (km/s) = 3.57123 3.66592 3.61888
# Velocity P-wave (km/s) = 6.40515 6.84974 6.63117
#
# Compressibility (1/GPa) = 0.02076612
#
# Stress axis : x y z
#
# Youngs Moduli (GPa) = 84.33102 84.33102 45.53099
#
# Poissons Ratio (x) = 0.39487 0.17698
# Poissons Ratio (y) = 0.39487 0.17698
# Poissons Ratio (z) = 0.32780 0.32780
#
# Static dielectric constant tensor:
#      x y z
#    x 3.804910 0.000000 0.000000 
#    y 0.000000 3.804910 0.000000 
#    z 0.000000 0.000000 3.508210 
# 
# 
# High freq. dielectric constant tensor:
#      x y z
#    x 1.776230 0.000000 0.000000 
#    y 0.000000 1.776230 0.000000 
#    z 0.000000 0.000000 1.778130 
# 
# From -- ./inp_files/741.got.cif
#   From: 2010.03.12/outbox.cif.g09.slc.cpg/sg187_1_cif.got.tgz:741.got - 2010.04.01 11:58:23.
