data_PCOD8327927
_publ_section_title
;
Structure prediction by ZEFSAII (Michael W. Deem and Ramdas Pophale) SiO2 
 PCOD8327927
Probable space group: P -6 2 C
;
_chemical_formula_sum "Si O2"
_cell_formula_units_Z 70
_cell_length_a 16.168399
_cell_length_b 16.168399
_cell_length_c 20.288157
_cell_angle_alpha 90.000000
_cell_angle_beta 90.000000
_cell_angle_gamma 120.000000
_cell_volume 4593.114425
_symmetry_space_group_name_H-M "P -6 2 C"
_symmetry_group_IT_number 190
_symmetry_cell_setting 'hexagonal'
loop_
_space_group_symop_operation_xyz
x,y,z
-x+y,-x,1/2-z
-y,x-y,z
x,y,1/2-z
-x+y,-x,z
-y,x-y,1/2-z
x-y,-y,-z
-x,-x+y,-z
y,x,-z
y,x,1/2+z
x-y,-y,1/2+z
-x,-x+y,1/2+z
loop_
_atom_site_type_symbol
_atom_site_label
_atom_site_fract_x
_atom_site_fract_y
_atom_site_fract_z
Si Si1 0.114787 0.089822 0.750000
Si Si2 0.193837 0.006466 0.573014
Si Si3 0.565973 0.442735 0.672522
Si Si4 0.333335 0.666668 0.170728
Si Si5 0.359534 0.094389 0.674551
Si Si6 0.001049 0.824321 0.113044
Si Si7 0.363683 0.289285 0.673747
O O1 0.175850 0.134507 0.814316
O O2 0.081433 0.977367 0.750000
O O3 0.274413 0.027452 0.625953
O O4 0.170158 0.092699 0.565629
O O5 0.229702 0.000000 0.500000
O O6 0.102714 0.906781 0.594898
O O7 0.569389 0.431782 0.750000
O O8 0.613831 0.386299 0.640367
O O9 0.629881 0.554283 0.653741
O O10 0.454422 0.390775 0.651317
O O11 0.333334 0.666668 0.250000
O O12 0.327251 0.061708 0.750000
O O13 0.391168 0.205831 0.666903
O O14 0.009335 0.728698 0.119709
O O15 0.335243 0.295328 0.750000
#
# Coordination Sequence:
#
# PCOD8327927 Si02
#       7
#     6  12  12   4  12  12  12
#     4  10  16  26  42  66  82 122 156 184 216 264
#     4  11  22  33  45  61  90 124 158 191 221 263
#     4   9  14  24  39  68  97 115 133 170 220 272
#     4   9  12  18  39  63  96 120 126 153 217 272
#     4   9  18  28  45  67  91 119 147 176 220 270
#     4  11  19  29  45  64  91 121 155 183 227 267
#     4   9  16  23  41  68  93 115 140 177 220 265
#
# _framework density 15.240202999999999
#
# number of rings (size 3 to 8) (size 9 to 14) (size 15 to 20)
#    0.171    2.057    4.286    0.857    2.400    0.000 
#    0.000    0.000    0.000    4.114    0.000    0.000 
#    1.714    0.000    1.029    0.000    0.000    0.000 
#
# Total GULP energy -867178.358526 kJ/mol
# GULP energy per Si atom -12388.262265 kJ/mol
# Density = 1.520552 g / cm^3
# Si number density = 15.240203 Si / 1000 Ang^3
#
#
#
# Elastic Constant Matrix: (Units=GPa)
#
#
# Indices 1 2 3 4 5 6 
#
# 1 90.8780 45.0936 27.5550 0.0000 0.0000 0.0000
# 2 45.0936 90.8782 27.5552 -0.0001 0.0000 0.0000
# 3 27.5550 27.5552 58.7056 0.0000 0.0000 0.0001
# 4 0.0000 -0.0001 0.0000 2.0379 0.0000 0.0000
# 5 0.0000 0.0000 0.0000 0.0000 2.0379 0.0000
# 6 0.0000 0.0000 0.0001 0.0000 0.0000 22.8922
#
#
#
# Elastic Compliance Matrix: (Units=1/GPa)
#
#
# Indices 1 2 3 4 5 6 
#
# 1 0.015462 -0.006380 -0.004263 0.000000 0.000000 0.000000
# 2 -0.006380 0.015462 -0.004263 0.000000 0.000000 0.000000
# 3 -0.004263 -0.004263 0.021036 0.000000 0.000000 0.000000
# 4 0.000000 0.000000 0.000000 0.490699 -0.000008 0.000000
# 5 0.000000 0.000000 0.000000 -0.000008 0.490711 0.000001
# 6 0.000000 0.000000 0.000000 0.000000 0.000001 0.043683
#
#
# Mechanical properties :
#
#
# Convention : Reuss Voigt Hill
#
# Bulk Modulus (GPa) = 45.14963 48.98548 47.06755
# Shear Modulus (GPa) = 4.48734 14.74412 9.61573
#
# Velocity S-wave (km/s) = 1.71779 3.11376 2.51459
# Velocity P-wave (km/s) = 5.79863 6.71858 6.27549
#
# Compressibility (1/GPa) = 0.02214858
#
# Stress axis : x y z
#
# Youngs Moduli (GPa) = 64.67521 64.67521 47.53735
#
# Poissons Ratio (x) = 0.41260 0.20265
# Poissons Ratio (y) = 0.41260 0.20265
# Poissons Ratio (z) = 0.27571 0.27571
#
# Static dielectric constant tensor:
#      x y z
#    x 2.977580 0.000000 0.000000 
#    y 0.000000 2.977580 0.000000 
#    z 0.000000 0.000000 2.722890 
# 
# 
# High freq. dielectric constant tensor:
#      x y z
#    x 1.568410 0.000000 0.000000 
#    y 0.000000 1.568410 0.000000 
#    z 0.000000 0.000000 1.551230 
# 
# From -- ./inp_files/3899.got.cif
#   From: 2010.06.25/outbox.cif.g09.slc.cpg/sg190_2_cif.got.tgz:3899.got - 2010.06.28 13:08:06.
