data_PCOD8327549
_publ_section_title
;
Structure prediction by ZEFSAII (Michael W. Deem and Ramdas Pophale) SiO2 
 PCOD8327549
Probable space group: P -6 2 M
;
_chemical_formula_sum "Si O2"
_cell_formula_units_Z 72
_cell_length_a 23.302359
_cell_length_b 23.302359
_cell_length_c 9.037966
_cell_angle_alpha 90.000000
_cell_angle_beta 90.000000
_cell_angle_gamma 120.000000
_cell_volume 4250.119219
_symmetry_space_group_name_H-M "P -6 2 M"
_symmetry_group_IT_number 189
_symmetry_cell_setting 'hexagonal'
loop_
_space_group_symop_operation_xyz
x,y,z
-x+y,-x,-z
-y,x-y,z
x,y,-z
-x+y,-x,z
-y,x-y,-z
x-y,-y,-z
-x,-x+y,-z
y,x,-z
y,x,z
x-y,-y,z
-x,-x+y,z
loop_
_atom_site_type_symbol
_atom_site_label
_atom_site_fract_x
_atom_site_fract_y
_atom_site_fract_z
Si Si1 0.487357 0.334748 0.326572
Si Si2 0.000000 0.289809 0.827782
Si Si3 0.482443 0.218842 0.168291
Si Si4 0.410249 0.000000 0.324817
Si Si5 0.813134 0.669672 0.168954
Si Si6 0.468108 0.588433 0.171836
Si Si7 0.665507 0.925615 0.326252
O O1 0.500607 0.350020 0.500000
O O2 0.507241 0.280268 0.279918
O O3 0.529940 0.399825 0.232155
O O4 0.411047 0.307765 0.282811
O O5 0.934511 0.219457 0.792275
O O6 0.000000 0.344968 0.725476
O O7 0.000000 0.309486 0.000000
O O8 0.406329 0.164040 0.202942
O O9 0.529102 0.187435 0.193971
O O10 0.488879 0.244604 0.000000
O O11 0.412895 0.000000 0.500000
O O12 0.410381 0.936210 0.265449
O O13 0.879611 0.693153 0.262764
O O14 0.835608 0.678589 0.000000
O O15 0.476306 0.576184 0.000000
O O16 0.673482 0.926175 0.500000
O O17 0.707919 0.000000 0.261687
#
# Coordination Sequence:
#
# PCOD8327549 Si02
#       7
#    12   6  12   6  12  12  12
#     4  10  21  35  53  76 101 130 171 220 268 314
#     4  10  18  34  54  78 110 140 166 205 258 309
#     4   9  18  35  55  71  94 131 170 211 260 313
#     4  12  24  34  52  80 108 136 170 215 268 319
#     4   9  17  31  53  77 103 132 167 204 246 300
#     4  11  22  38  56  75 102 136 176 218 265 321
#     4   9  19  35  52  72 105 141 169 206 255 299
#
# _framework density 16.9407
#
# number of rings (size 3 to 8) (size 9 to 14) (size 15 to 20)
#    0.000    2.167    1.667    1.750    1.167    3.000 
#    1.000    0.000    0.000    0.000    0.000    0.000 
#    0.833    0.000    0.500    0.000    0.667    0.000 
#
# Total GULP energy -892864.611847 kJ/mol
# GULP energy per Si atom -12400.897387 kJ/mol
# Density = 1.690214 g / cm^3
# Si number density = 16.940700 Si / 1000 Ang^3
#
#
#
# Elastic Constant Matrix: (Units=GPa)
#
#
# Indices 1 2 3 4 5 6 
#
# 1 98.9021 57.2258 49.4728 0.0000 0.0000 0.0000
# 2 57.2258 98.9021 49.4728 0.0000 0.0000 0.0000
# 3 49.4728 49.4728 82.9606 0.0000 0.0000 0.0000
# 4 0.0000 0.0000 0.0000 24.9997 0.0000 0.0000
# 5 0.0000 0.0000 0.0000 0.0000 24.9997 0.0000
# 6 0.0000 0.0000 0.0000 0.0000 0.0000 20.8382
#
#
#
# Elastic Compliance Matrix: (Units=1/GPa)
#
#
# Indices 1 2 3 4 5 6 
#
# 1 0.017145 -0.006849 -0.006140 0.000000 0.000000 0.000000
# 2 -0.006849 0.017145 -0.006140 0.000000 0.000000 0.000000
# 3 -0.006140 -0.006140 0.019377 0.000000 0.000000 0.000000
# 4 0.000000 0.000000 0.000000 0.040000 0.000000 0.000000
# 5 0.000000 0.000000 0.000000 0.000000 0.040000 0.000000
# 6 0.000000 0.000000 0.000000 0.000000 0.000000 0.047989
#
#
# Mechanical properties :
#
#
# Convention : Reuss Voigt Hill
#
# Bulk Modulus (GPa) = 64.89597 65.90084 65.39840
# Shear Modulus (GPa) = 22.21706 22.47377 22.34542
#
# Velocity S-wave (km/s) = 3.62534 3.64622 3.63580
# Velocity P-wave (km/s) = 7.47763 7.53073 7.50423
#
# Compressibility (1/GPa) = 0.01540928
#
# Stress axis : x y z
#
# Youngs Moduli (GPa) = 58.32490 58.32490 51.60735
#
# Poissons Ratio (x) = 0.39947 0.31687
# Poissons Ratio (y) = 0.39947 0.31687
# Poissons Ratio (z) = 0.35812 0.35812
#
# Static dielectric constant tensor:
#      x y z
#    x 3.198070 0.000000 0.000000 
#    y 0.000000 3.198070 0.000000 
#    z 0.000000 0.000000 3.196870 
# 
# 
# High freq. dielectric constant tensor:
#      x y z
#    x 1.640640 0.000000 0.000000 
#    y 0.000000 1.640640 0.000000 
#    z 0.000000 0.000000 1.658260 
# 
# From -- ./inp_files/1363.got.cif
#   From: 2010.03.12/outbox.cif.g09.slc.cpg/sg189_1_cif.got.tgz:1363.got - 2010.04.01 12:03:36.
