data_PCOD8327922
_publ_section_title
;
Structure prediction by ZEFSAII (Michael W. Deem and Ramdas Pophale) SiO2 
 PCOD8327922
Probable space group: P -6 2 M
;
_chemical_formula_sum "Si O2"
_cell_formula_units_Z 60
_cell_length_a 19.927856
_cell_length_b 19.927856
_cell_length_c 9.993138
_cell_angle_alpha 90.000000
_cell_angle_beta 90.000000
_cell_angle_gamma 120.000000
_cell_volume 3436.795327
_symmetry_space_group_name_H-M "P -6 2 M"
_symmetry_group_IT_number 189
_symmetry_cell_setting 'hexagonal'
loop_
_space_group_symop_operation_xyz
x,y,z
-x+y,-x,-z
-y,x-y,z
x,y,-z
-x+y,-x,z
-y,x-y,-z
x-y,-y,-z
-x,-x+y,-z
y,x,-z
y,x,z
x-y,-y,z
-x,-x+y,z
loop_
_atom_site_type_symbol
_atom_site_label
_atom_site_fract_x
_atom_site_fract_y
_atom_site_fract_z
Si Si1 0.088064 0.176166 0.341130
Si Si2 0.203354 0.716795 0.154344
Si Si3 0.809634 0.162672 0.656765
Si Si4 0.618914 0.454677 0.152080
Si Si5 0.660822 0.573822 0.644380
O O1 0.084483 0.177014 0.500000
O O2 0.120137 0.120137 0.291655
O O3 0.149280 0.263818 0.293209
O O4 0.000000 0.142642 0.284780
O O5 0.149221 0.737203 0.249151
O O6 0.185241 0.631209 0.188826
O O7 0.294940 0.766180 0.183318
O O8 0.184669 0.725324 0.000000
O O9 0.784499 0.145386 0.500000
O O10 0.870888 0.250721 0.686718
O O11 0.605228 0.511019 0.247953
O O12 0.611126 0.474694 0.000000
O O13 0.650274 0.532478 0.500000
O O14 0.640515 0.640515 0.633465
#
# Coordination Sequence:
#
# PCOD8327922 Si02
#       5
#    12  12  12  12  12
#     4   9  16  27  46  72  98 122 151 190 234 278
#     4   9  17  30  47  67  91 120 154 191 230 270
#     4   9  17  29  46  68  94 122 151 185 227 275
#     4   9  17  29  46  66  88 115 149 188 226 264
#     4   9  17  29  44  63  88 117 148 183 224 267
#
# _framework density 17.458124000000002
#
# number of rings (size 3 to 8) (size 9 to 14) (size 15 to 20)
#    0.000    3.000    0.000    1.200    0.000    6.000 
#    0.000    1.000    0.000    8.400    0.000    0.000 
#    0.000    1.600    0.000    0.000    0.000    0.000 
#
# Total GULP energy -743369.188096 kJ/mol
# GULP energy per Si atom -12389.486468 kJ/mol
# Density = 1.741839 g / cm^3
# Si number density = 17.458124 Si / 1000 Ang^3
#
#
#
# Elastic Constant Matrix: (Units=GPa)
#
#
# Indices 1 2 3 4 5 6 
#
# 1 79.9804 28.7156 33.3532 0.0000 0.0000 0.0000
# 2 28.7156 79.9804 33.3532 0.0000 0.0000 0.0000
# 3 33.3532 33.3532 53.2466 0.0000 0.0000 0.0000
# 4 0.0000 0.0000 0.0000 19.5587 0.0000 0.0000
# 5 0.0000 0.0000 0.0000 0.0000 19.5587 0.0000
# 6 0.0000 0.0000 0.0000 0.0000 0.0000 25.6324
#
#
#
# Elastic Compliance Matrix: (Units=1/GPa)
#
#
# Indices 1 2 3 4 5 6 
#
# 1 0.017226 -0.002281 -0.009361 0.000000 0.000000 0.000000
# 2 -0.002281 0.017226 -0.009361 0.000000 0.000000 0.000000
# 3 -0.009361 -0.009361 0.030508 0.000000 0.000000 0.000000
# 4 0.000000 0.000000 0.000000 0.051128 0.000000 0.000000
# 5 0.000000 0.000000 0.000000 0.000000 0.051128 0.000000
# 6 0.000000 0.000000 0.000000 0.000000 0.000000 0.039013
#
#
# Mechanical properties :
#
#
# Convention : Reuss Voigt Hill
#
# Bulk Modulus (GPa) = 43.56784 44.89460 44.23122
# Shear Modulus (GPa) = 19.53980 20.80230 20.17105
#
# Velocity S-wave (km/s) = 3.34913 3.45563 3.40280
# Velocity P-wave (km/s) = 6.32182 6.45703 6.38978
#
# Compressibility (1/GPa) = 0.02295271
#
# Stress axis : x y z
#
# Youngs Moduli (GPa) = 58.05240 58.05240 32.77784
#
# Poissons Ratio (x) = 0.13240 0.30685
# Poissons Ratio (y) = 0.13240 0.30685
# Poissons Ratio (z) = 0.54346 0.54346
#
# Static dielectric constant tensor:
#      x y z
#    x 3.313470 0.000000 0.000000 
#    y 0.000000 3.313470 0.000000 
#    z 0.000000 0.000000 3.320080 
# 
# 
# High freq. dielectric constant tensor:
#      x y z
#    x 1.667710 0.000000 0.000000 
#    y 0.000000 1.667710 0.000000 
#    z 0.000000 0.000000 1.652440 
# 
# From -- ./inp_files/1886.got.cif
#   From: 2010.03.12/outbox.cif.g09.slc.cpg/sg189_1_cif.got.tgz:1886.got - 2010.04.01 12:03:36.
