data_PCOD8327678
_publ_section_title
;
Structure prediction by ZEFSAII (Michael W. Deem and Ramdas Pophale) SiO2 
 PCOD8327678
Probable space group: P -6 2 M
;
_chemical_formula_sum "Si O2"
_cell_formula_units_Z 84
_cell_length_a 14.051429
_cell_length_b 14.051429
_cell_length_c 26.215410
_cell_angle_alpha 90.000000
_cell_angle_beta 90.000000
_cell_angle_gamma 120.000000
_cell_volume 4482.582307
_symmetry_space_group_name_H-M "P -6 2 M"
_symmetry_group_IT_number 189
_symmetry_cell_setting 'hexagonal'
loop_
_space_group_symop_operation_xyz
x,y,z
-x+y,-x,-z
-y,x-y,z
x,y,-z
-x+y,-x,z
-y,x-y,-z
x-y,-y,-z
-x,-x+y,-z
y,x,-z
y,x,z
x-y,-y,z
-x,-x+y,z
loop_
_atom_site_type_symbol
_atom_site_label
_atom_site_fract_x
_atom_site_fract_y
_atom_site_fract_z
Si Si1 0.169759 0.433537 0.640606
Si Si2 0.334858 0.874830 0.059656
Si Si3 0.426097 0.300007 0.217638
Si Si4 0.000000 0.326525 0.439396
Si Si5 0.116960 0.000000 0.440233
Si Si6 0.875094 0.483621 0.681089
Si Si7 0.130676 0.670488 0.895475
Si Si8 0.750477 0.873894 0.282211
O O1 0.112373 0.423684 0.585319
O O2 0.302521 0.497913 0.636687
O O3 0.131162 0.499851 0.676382
O O4 0.127510 0.317591 0.667877
O O5 0.421502 0.848299 0.087148
O O6 0.209081 0.783859 0.073948
O O7 0.363659 0.000000 0.073758
O O8 0.350825 0.866570 0.000000
O O9 0.391234 0.391234 0.213238
O O10 0.514435 0.338150 0.263764
O O11 0.473895 0.297776 0.162535
O O12 0.325061 0.180861 0.232780
O O13 0.000000 0.342842 0.500000
O O14 0.000000 0.219816 0.416517
O O15 0.134228 0.000000 0.500000
O O16 0.000000 0.891826 0.424991
O O17 0.000000 0.583636 0.676851
O O18 0.000000 0.632671 0.901943
O O19 0.833573 0.833573 0.265723
O O20 0.818452 0.000000 0.298353
#
# Coordination Sequence:
#
# PCOD8327678 Si02
#       8
#    12  12  12   6   6  12  12  12
#     4  11  21  38  58  82 105 149 185 229 281 328
#     4  10  21  35  54  81 112 151 199 242 288 349
#     4   8  18  33  52  79 111 143 182 229 273 334
#     4  11  22  38  58  83 115 141 183 240 281 332
#     4   7  14  30  50  75 109 143 167 202 272 334
#     4  10  20  37  58  80 112 142 183 227 271 339
#     4  10  20  36  56  81 114 151 189 240 303 350
#     4  10  19  34  55  86 121 154 190 225 283 350
#
# _framework density 18.739197999999998
#
# number of rings (size 3 to 8) (size 9 to 14) (size 15 to 20)
#    0.143    2.143    1.429    2.429    0.000    4.857 
#    0.000    2.143    0.000    0.286    0.000    0.000 
#    0.000    0.000    0.000    0.000    0.000    0.000 
#
# Total GULP energy -1040614.917303 kJ/mol
# GULP energy per Si atom -12388.272825 kJ/mol
# Density = 1.869655 g / cm^3
# Si number density = 18.739198 Si / 1000 Ang^3
#
#
#
# Elastic Constant Matrix: (Units=GPa)
#
#
# Indices 1 2 3 4 5 6 
#
# 1 101.1581 44.4952 44.7851 0.0000 0.0000 0.0000
# 2 44.4952 101.1581 44.7851 0.0000 0.0000 0.0000
# 3 44.7851 44.7851 112.0915 0.0000 0.0000 0.0000
# 4 0.0000 0.0000 0.0000 22.8075 0.0000 0.0000
# 5 0.0000 0.0000 0.0000 0.0000 22.8075 0.0000
# 6 0.0000 0.0000 0.0000 0.0000 0.0000 28.3314
#
#
#
# Elastic Compliance Matrix: (Units=1/GPa)
#
#
# Indices 1 2 3 4 5 6 
#
# 1 0.013375 -0.004273 -0.003637 0.000000 0.000000 0.000000
# 2 -0.004273 0.013375 -0.003637 0.000000 0.000000 0.000000
# 3 -0.003637 -0.003637 0.011827 0.000000 0.000000 0.000000
# 4 0.000000 0.000000 0.000000 0.043845 0.000000 0.000000
# 5 0.000000 0.000000 0.000000 0.000000 0.043845 0.000000
# 6 0.000000 0.000000 0.000000 0.000000 0.000000 0.035296
#
#
# Mechanical properties :
#
#
# Convention : Reuss Voigt Hill
#
# Bulk Modulus (GPa) = 64.57973 64.72651 64.65312
# Shear Modulus (GPa) = 26.34095 26.81212 26.57653
#
# Velocity S-wave (km/s) = 3.75328 3.78670 3.77003
# Velocity P-wave (km/s) = 7.30206 7.33038 7.31623
#
# Compressibility (1/GPa) = 0.01548474
#
# Stress axis : x y z
#
# Youngs Moduli (GPa) = 74.76583 74.76583 84.55077
#
# Poissons Ratio (x) = 0.31948 0.30748
# Poissons Ratio (y) = 0.31948 0.30748
# Poissons Ratio (z) = 0.27189 0.27189
#
# Static dielectric constant tensor:
#      x y z
#    x 3.918920 0.000000 0.000000 
#    y 0.000000 3.918920 0.000000 
#    z 0.000000 0.000000 3.374300 
# 
# 
# High freq. dielectric constant tensor:
#      x y z
#    x 1.724900 0.000000 0.000000 
#    y 0.000000 1.724900 0.000000 
#    z 0.000000 0.000000 1.712520 
# 
# From -- ./inp_files/3695.got.cif
#   From: 2010.03.12/outbox.cif.g09.slc.cpg/sg189_2_cif.got.tgz:3695.got - 2010.04.01 12:03:36.
