data_PCOD8327082
_publ_section_title
;
Structure prediction by ZEFSAII (Michael W. Deem and Ramdas Pophale) SiO2 
 PCOD8327082
Probable space group: P -6 M 2
;
_chemical_formula_sum "Si O2"
_cell_formula_units_Z 38
_cell_length_a 11.733773
_cell_length_b 11.733773
_cell_length_c 17.043212
_cell_angle_alpha 90.000000
_cell_angle_beta 90.000000
_cell_angle_gamma 120.000000
_cell_volume 2032.157864
_symmetry_space_group_name_H-M "P -6 M 2"
_symmetry_group_IT_number 187
_symmetry_cell_setting 'hexagonal'
loop_
_space_group_symop_operation_xyz
x,y,z
-x+y,-x,-z
-y,x-y,z
x,y,-z
-x+y,-x,z
-y,x-y,-z
-y,-x,-z
-x+y,y,-z
x,x-y,-z
-x+y,y,z
x,x-y,z
-y,-x,z
loop_
_atom_site_type_symbol
_atom_site_label
_atom_site_fract_x
_atom_site_fract_y
_atom_site_fract_z
Si Si1 0.037700 0.518850 0.406946
Si Si2 0.263854 0.002097 0.147688
Si Si3 0.589116 0.926781 0.000000
Si Si4 0.270474 0.002045 0.675483
Si Si5 0.333334 0.666667 0.593015
O O1 0.027661 0.513831 0.500000
O O2 0.186240 0.593120 0.374394
O O3 0.973424 0.369089 0.376631
O O4 0.228200 0.114100 0.134340
O O5 0.319375 0.008667 0.235045
O O6 0.132111 0.867889 0.137084
O O7 0.364657 0.013338 0.079351
O O8 0.434059 0.868118 0.000000
O O9 0.619470 0.809735 0.000000
O O10 0.240235 0.120118 0.658288
O O11 0.137056 0.862945 0.656908
O O12 0.333334 0.666667 0.500000
#
# Coordination Sequence:
#
# PCOD8327082 Si02
#       5
#     6  12   6  12   2
#     4  11  22  38  60  85 115 150 190 237 286 342
#     4   9  18  33  55  81 107 137 175 223 273 324
#     4  10  20  32  48  74 110 146 180 218 262 312
#     4  10  21  38  61  88 117 149 189 237 289 341
#     4   9  18  36  60  84 111 142 188 238 276 330
#
# _framework density 18.699334
#
# number of rings (size 3 to 8) (size 9 to 14) (size 15 to 20)
#    0.000    2.211    1.579    1.263    2.211    3.158 
#    0.947    1.579    0.000    4.421    0.000    0.000 
#    0.000    0.000    0.000    0.000    0.000    0.000 
#
# Total GULP energy -470910.099126 kJ/mol
# GULP energy per Si atom -12392.371030 kJ/mol
# Density = 1.865677 g / cm^3
# Si number density = 18.699334 Si / 1000 Ang^3
#
#
#
# Elastic Constant Matrix: (Units=GPa)
#
#
# Indices 1 2 3 4 5 6 
#
# 1 78.0071 13.3127 47.1324 -0.0006 0.0079 0.0000
# 2 13.3127 78.0071 47.1324 -0.0002 -0.0084 0.0000
# 3 47.1324 47.1324 120.5406 -0.0005 -0.0003 0.0000
# 4 -0.0006 -0.0002 -0.0005 -331.6641 -0.0012 -0.0079
# 5 0.0079 -0.0084 -0.0003 -0.0012 -331.6641 0.0002
# 6 0.0000 0.0000 0.0000 -0.0079 0.0002 32.3472
#
#
#
# Elastic Compliance Matrix: (Units=1/GPa)
#
#
# Indices 1 2 3 4 5 6 
#
# 1 0.016909 0.001452 -0.007180 0.000000 0.000000 0.000000
# 2 0.001452 0.016909 -0.007180 0.000000 0.000000 0.000000
# 3 -0.007180 -0.007180 0.013911 0.000000 0.000000 0.000000
# 4 0.000000 0.000000 0.000000 -0.003015 0.000000 -0.000001
# 5 0.000000 0.000000 0.000000 0.000000 -0.003015 0.000000
# 6 0.000000 0.000000 0.000000 -0.000001 0.000000 0.030915
#
#
# Mechanical properties :
#
#
# Convention : Reuss Voigt Hill
#
# Bulk Modulus (GPa) = 45.62973 54.63442 50.13208
# Shear Modulus (GPa) = 47.28896 -114.93104 -33.82104
#
# Velocity S-wave (km/s) = 5.03428 -7.84832 -4.25747
# Velocity P-wave (km/s) = 7.63196 7.26962 1.64308
#
# Compressibility (1/GPa) = 0.02191554
#
# Stress axis : x y z
#
# Youngs Moduli (GPa) = 59.13846 59.13848 71.88810
#
# Poissons Ratio (x) = -0.08588 0.51613
# Poissons Ratio (y) = -0.08588 0.51613
# Poissons Ratio (z) = 0.42459 0.42459
#
# Static dielectric constant tensor:
#      x y z
#    x 3.264740 0.000000 0.000000 
#    y 0.000000 3.264740 0.000000 
#    z 0.000000 0.000000 3.905070 
# 
# 
# High freq. dielectric constant tensor:
#      x y z
#    x 1.711320 0.000000 0.000000 
#    y 0.000000 1.711320 0.000000 
#    z 0.000000 0.000000 1.736870 
# 
# From -- ./inp_files/2878.got.cif
#   From: 2010.03.12/outbox.cif.g09.slc.cpg/sg187_2_cif.got.tgz:2878.got - 2010.04.01 11:58:23.
