data_PCOD8327804
_publ_section_title
;
Structure prediction by ZEFSAII (Michael W. Deem and Ramdas Pophale) SiO2 
 PCOD8327804
Probable space group: P -6 2 M
;
_chemical_formula_sum "Si O2"
_cell_formula_units_Z 78
_cell_length_a 24.510054
_cell_length_b 24.510054
_cell_length_c 8.045162
_cell_angle_alpha 90.000000
_cell_angle_beta 90.000000
_cell_angle_gamma 120.000000
_cell_volume 4185.563754
_symmetry_space_group_name_H-M "P -6 2 M"
_symmetry_group_IT_number 189
_symmetry_cell_setting 'hexagonal'
loop_
_space_group_symop_operation_xyz
x,y,z
-x+y,-x,-z
-y,x-y,z
x,y,-z
-x+y,-x,z
-y,x-y,-z
x-y,-y,-z
-x,-x+y,-z
y,x,-z
y,x,z
x-y,-y,z
-x,-x+y,z
loop_
_atom_site_type_symbol
_atom_site_label
_atom_site_fract_x
_atom_site_fract_y
_atom_site_fract_z
Si Si1 0.360305 0.289522 0.196966
Si Si2 0.385821 0.190493 0.310514
Si Si3 0.070777 0.374599 0.802456
Si Si4 0.515656 0.135584 0.191166
Si Si5 0.588788 0.070720 0.802855
Si Si6 0.260594 0.738558 0.185550
Si Si7 0.321701 0.592050 0.500000
O O1 0.310784 0.310784 0.258730
O O2 0.342357 0.221956 0.276328
O O3 0.431077 0.341070 0.259847
O O4 0.357634 0.284389 0.000000
O O5 0.407957 0.199618 0.500000
O O6 0.348827 0.116236 0.264526
O O7 0.446701 0.226048 0.192742
O O8 0.097044 0.445401 0.730257
O O9 0.000000 0.329408 0.735779
O O10 0.072277 0.375017 0.000000
O O11 0.563737 0.115619 0.273700
O O12 0.544429 0.210219 0.211143
O O13 0.508073 0.115383 0.000000
O O14 0.539911 0.000000 0.745062
O O15 0.592407 0.075128 0.000000
O O16 0.239199 0.686182 0.330261
O O17 0.249692 0.707562 0.000000
O O18 0.266194 0.610742 0.500000
#
# Coordination Sequence:
#
# PCOD8327804 Si02
#       7
#    12  12  12  12  12  12   6
#     4   9  18  32  50  74 101 131 173 220 265 319
#     4  11  21  34  53  75 104 140 175 215 260 313
#     4   9  17  30  50  76 104 135 172 212 259 320
#     4   8  14  25  46  74  98 126 161 200 254 315
#     4   8  13  23  42  70  96 116 152 205 254 302
#     4  10  20  37  56  74  98 131 171 211 265 326
#     4  10  24  40  52  72  98 120 169 224 272 324
#
# _framework density 18.635483000000001
#
# number of rings (size 3 to 8) (size 9 to 14) (size 15 to 20)
#    0.154    2.615    0.769    3.692    0.000    4.308 
#    0.000    1.538    0.000    0.000    0.000    0.000 
#    0.000    0.000    0.000    0.462    0.000    8.923 
#
# Total GULP energy -966541.850311 kJ/mol
# GULP energy per Si atom -12391.562183 kJ/mol
# Density = 1.859307 g / cm^3
# Si number density = 18.635483 Si / 1000 Ang^3
#
#
#
# Elastic Constant Matrix: (Units=GPa)
#
#
# Indices 1 2 3 4 5 6 
#
# 1 76.5737 24.4867 15.8833 0.0000 0.0000 0.0000
# 2 24.4867 76.5737 15.8833 0.0000 0.0000 0.0000
# 3 15.8833 15.8833 69.5619 0.0000 0.0000 0.0000
# 4 0.0000 0.0000 0.0000 13.6332 0.0000 0.0000
# 5 0.0000 0.0000 0.0000 0.0000 13.6332 0.0000
# 6 0.0000 0.0000 0.0000 0.0000 0.0000 26.0435
#
#
#
# Elastic Compliance Matrix: (Units=1/GPa)
#
#
# Indices 1 2 3 4 5 6 
#
# 1 0.014929 -0.004269 -0.002434 0.000000 0.000000 0.000000
# 2 -0.004269 0.014929 -0.002434 0.000000 0.000000 0.000000
# 3 -0.002434 -0.002434 0.015487 0.000000 0.000000 0.000000
# 4 0.000000 0.000000 0.000000 0.073350 0.000000 0.000000
# 5 0.000000 0.000000 0.000000 0.000000 0.073350 0.000000
# 6 0.000000 0.000000 0.000000 0.000000 0.000000 0.038397
#
#
# Mechanical properties :
#
#
# Convention : Reuss Voigt Hill
#
# Bulk Modulus (GPa) = 36.93948 37.24622 37.09285
# Shear Modulus (GPa) = 19.39919 21.75904 20.57911
#
# Velocity S-wave (km/s) = 3.22992 3.42074 3.32670
# Velocity P-wave (km/s) = 5.81163 5.96926 5.89097
#
# Compressibility (1/GPa) = 0.02707131
#
# Stress axis : x y z
#
# Youngs Moduli (GPa) = 66.98185 66.98185 64.56922
#
# Poissons Ratio (x) = 0.28596 0.15717
# Poissons Ratio (y) = 0.28596 0.15717
# Poissons Ratio (z) = 0.16304 0.16304
#
# Static dielectric constant tensor:
#      x y z
#    x 3.409820 0.000000 0.000000 
#    y 0.000000 3.409820 0.000000 
#    z 0.000000 0.000000 3.106660 
# 
# 
# High freq. dielectric constant tensor:
#      x y z
#    x 1.692500 0.000000 0.000000 
#    y 0.000000 1.692500 0.000000 
#    z 0.000000 0.000000 1.706730 
# 
# From -- ./inp_files/1417.got.cif
#   From: 2010.03.12/outbox.cif.g09.slc.cpg/sg189_1_cif.got.tgz:1417.got - 2010.04.01 12:03:36.
