data_PCOD8327656
_publ_section_title
;
Structure prediction by ZEFSAII (Michael W. Deem and Ramdas Pophale) SiO2 
 PCOD8327656
Probable space group: P -6 2 M
;
_chemical_formula_sum "Si O2"
_cell_formula_units_Z 84
_cell_length_a 23.925053
_cell_length_b 23.925053
_cell_length_c 9.922453
_cell_angle_alpha 90.000000
_cell_angle_beta 90.000000
_cell_angle_gamma 120.000000
_cell_volume 4918.758489
_symmetry_space_group_name_H-M "P -6 2 M"
_symmetry_group_IT_number 189
_symmetry_cell_setting 'hexagonal'
loop_
_space_group_symop_operation_xyz
x,y,z
-x+y,-x,-z
-y,x-y,z
x,y,-z
-x+y,-x,z
-y,x-y,-z
x-y,-y,-z
-x,-x+y,-z
y,x,-z
y,x,z
x-y,-y,z
-x,-x+y,z
loop_
_atom_site_type_symbol
_atom_site_label
_atom_site_fract_x
_atom_site_fract_y
_atom_site_fract_z
Si Si1 0.241435 0.715145 0.660060
Si Si2 0.073678 0.468082 0.152247
Si Si3 0.819339 0.073708 0.342023
Si Si4 0.817465 0.613398 0.349491
Si Si5 0.384652 0.815306 0.339329
Si Si6 0.655450 0.726698 0.247727
Si Si7 0.072760 0.223299 0.850702
O O1 0.240796 0.717401 0.500000
O O2 0.203329 0.749129 0.725264
O O3 0.315515 0.756638 0.706569
O O4 0.206897 0.641709 0.709267
O O5 0.119409 0.521006 0.260972
O O6 0.079928 0.404155 0.158552
O O7 0.000000 0.449305 0.184754
O O8 0.092512 0.495528 0.000000
O O9 0.837222 0.086155 0.500000
O O10 0.789558 0.117279 0.286779
O O11 0.884852 0.096324 0.259392
O O12 0.767948 0.000000 0.311702
O O13 0.834595 0.604933 0.500000
O O14 0.758514 0.628682 0.354290
O O15 0.388111 0.828635 0.500000
O O16 0.690637 0.690637 0.318816
O O17 0.706829 0.784749 0.155072
O O18 0.000000 0.167482 0.822725
O O19 0.095115 0.216410 0.000000
#
# Coordination Sequence:
#
# PCOD8327656 Si02
#       7
#    12  12  12  12  12  12  12
#     4   9  17  30  49  73  97 124 161 209 254 292
#     4  10  20  33  49  71 102 134 160 194 244 298
#     4   9  18  31  47  68  96 130 165 202 244 288
#     4   9  16  28  46  71 100 127 159 201 246 289
#     4  10  19  33  53  74  98 130 168 208 252 300
#     4   9  16  27  46  71  98 128 156 186 234 297
#     4   9  17  29  47  72  99 125 156 195 238 286
#
# _framework density 17.077480999999999
#
# number of rings (size 3 to 8) (size 9 to 14) (size 15 to 20)
#    0.000    2.714    1.429    0.714    0.000    4.000 
#    0.000    5.714    0.000    2.857    0.000    0.000 
#    0.000    0.000    0.000    0.000    0.000    0.000 
#
# Total GULP energy -1040793.807602 kJ/mol
# GULP energy per Si atom -12390.402471 kJ/mol
# Density = 1.703861 g / cm^3
# Si number density = 17.077481 Si / 1000 Ang^3
#
#
#
# Elastic Constant Matrix: (Units=GPa)
#
#
# Indices 1 2 3 4 5 6 
#
# 1 115.6147 69.5289 39.4164 0.0000 0.0000 0.0000
# 2 69.5289 115.6147 39.4164 0.0000 0.0000 0.0000
# 3 39.4164 39.4164 54.3509 0.0000 0.0000 0.0000
# 4 0.0000 0.0000 0.0000 16.8759 0.0000 0.0000
# 5 0.0000 0.0000 0.0000 0.0000 16.8759 0.0000
# 6 0.0000 0.0000 0.0000 0.0000 0.0000 23.0429
#
#
#
# Elastic Compliance Matrix: (Units=1/GPa)
#
#
# Indices 1 2 3 4 5 6 
#
# 1 0.014756 -0.006942 -0.005667 0.000000 0.000000 0.000000
# 2 -0.006942 0.014756 -0.005667 0.000000 0.000000 0.000000
# 3 -0.005667 -0.005667 0.026619 0.000000 0.000000 0.000000
# 4 0.000000 0.000000 0.000000 0.059256 0.000000 0.000000
# 5 0.000000 0.000000 0.000000 0.000000 0.059256 0.000000
# 6 0.000000 0.000000 0.000000 0.000000 0.000000 0.043397
#
#
# Mechanical properties :
#
#
# Convention : Reuss Voigt Hill
#
# Bulk Modulus (GPa) = 51.07522 64.70041 57.88782
# Shear Modulus (GPa) = 19.14827 20.50682 19.82754
#
# Velocity S-wave (km/s) = 3.35215 3.46903 3.41109
# Velocity P-wave (km/s) = 6.70488 7.34944 7.03454
#
# Compressibility (1/GPa) = 0.01957897
#
# Stress axis : x y z
#
# Youngs Moduli (GPa) = 67.76706 67.76706 37.56761
#
# Poissons Ratio (x) = 0.47046 0.21290
# Poissons Ratio (y) = 0.47046 0.21290
# Poissons Ratio (z) = 0.38404 0.38404
#
# Static dielectric constant tensor:
#      x y z
#    x 3.304700 0.000000 0.000000 
#    y 0.000000 3.304700 0.000000 
#    z 0.000000 0.000000 2.878660 
# 
# 
# High freq. dielectric constant tensor:
#      x y z
#    x 1.653880 0.000000 0.000000 
#    y 0.000000 1.653880 0.000000 
#    z 0.000000 0.000000 1.625630 
# 
# From -- ./inp_files/2221.got.cif
#   From: 2010.03.12/outbox.cif.g09.slc.cpg/sg189_2_cif.got.tgz:2221.got - 2010.04.01 12:03:36.
