data_PCOD8327642
_publ_section_title
;
Structure prediction by ZEFSAII (Michael W. Deem and Ramdas Pophale) SiO2 
 PCOD8327642
Probable space group: P -6 2 M
;
_chemical_formula_sum "Si O2"
_cell_formula_units_Z 72
_cell_length_a 23.226706
_cell_length_b 23.226706
_cell_length_c 8.816215
_cell_angle_alpha 90.000000
_cell_angle_beta 90.000000
_cell_angle_gamma 120.000000
_cell_volume 4118.964509
_symmetry_space_group_name_H-M "P -6 2 M"
_symmetry_group_IT_number 189
_symmetry_cell_setting 'hexagonal'
loop_
_space_group_symop_operation_xyz
x,y,z
-x+y,-x,-z
-y,x-y,z
x,y,-z
-x+y,-x,z
-y,x-y,-z
x-y,-y,-z
-x,-x+y,-z
y,x,-z
y,x,z
x-y,-y,z
-x,-x+y,z
loop_
_atom_site_type_symbol
_atom_site_label
_atom_site_fract_x
_atom_site_fract_y
_atom_site_fract_z
Si Si1 0.075073 0.343432 0.825522
Si Si2 0.595547 0.127779 0.178765
Si Si3 0.518426 0.660606 0.325324
Si Si4 0.410392 0.410392 0.321986
Si Si5 0.665123 0.865550 0.822740
Si Si6 0.000000 0.724180 0.323121
Si Si7 0.795522 0.523581 0.675979
O O1 0.091072 0.406071 0.721139
O O2 0.124316 0.315104 0.787333
O O3 0.000000 0.285200 0.792670
O O4 0.084531 0.367176 0.000000
O O5 0.529842 0.129787 0.220534
O O6 0.592516 0.063667 0.249520
O O7 0.660229 0.192573 0.246269
O O8 0.601380 0.126251 0.000000
O O9 0.508710 0.638197 0.500000
O O10 0.501691 0.719091 0.298439
O O11 0.422143 0.422143 0.500000
O O12 0.343159 0.343159 0.283685
O O13 0.720699 0.934515 0.749147
O O14 0.594126 0.844511 0.750833
O O15 0.660857 0.875907 0.000000
O O16 0.000000 0.736965 0.500000
O O17 0.814454 0.529830 0.500000
#
# Coordination Sequence:
#
# PCOD8327642 Si02
#       7
#    12  12  12   6  12   6  12
#     4   9  19  36  56  79 109 141 174 214 259 306
#     4  12  24  37  56  79 105 135 174 225 275 323
#     4  10  22  38  56  76 102 138 178 220 266 320
#     4  11  23  37  55  77 106 140 174 215 266 325
#     4  10  19  32  54  80 107 138 171 210 256 308
#     4  11  21  33  53  79 110 144 172 211 256 311
#     4  10  20  37  56  74  99 134 173 216 268 321
#
# _framework density 17.480121
#
# number of rings (size 3 to 8) (size 9 to 14) (size 15 to 20)
#    0.000    1.667    1.667    3.500    1.167    3.667 
#    1.000    0.000    0.000    0.000    0.000    0.000 
#    0.833    0.000    1.500    0.000    0.500    0.000 
#
# Total GULP energy -893061.527526 kJ/mol
# GULP energy per Si atom -12403.632327 kJ/mol
# Density = 1.744034 g / cm^3
# Si number density = 17.480121 Si / 1000 Ang^3
#
#
#
# Elastic Constant Matrix: (Units=GPa)
#
#
# Indices 1 2 3 4 5 6 
#
# 1 92.2567 52.3963 51.0964 0.0000 0.0000 0.0000
# 2 52.3963 92.2567 51.0964 0.0000 0.0000 0.0000
# 3 51.0964 51.0964 105.3978 0.0000 0.0000 0.0000
# 4 0.0000 0.0000 0.0000 27.1413 0.0000 0.0000
# 5 0.0000 0.0000 0.0000 0.0000 27.1413 0.0000
# 6 0.0000 0.0000 0.0000 0.0000 0.0000 19.9302
#
#
#
# Elastic Compliance Matrix: (Units=1/GPa)
#
#
# Indices 1 2 3 4 5 6 
#
# 1 0.017801 -0.007287 -0.005097 0.000000 0.000000 0.000000
# 2 -0.007287 0.017801 -0.005097 0.000000 0.000000 0.000000
# 3 -0.005097 -0.005097 0.014430 0.000000 0.000000 0.000000
# 4 0.000000 0.000000 0.000000 0.036844 0.000000 0.000000
# 5 0.000000 0.000000 0.000000 0.000000 0.036844 0.000000
# 6 0.000000 0.000000 0.000000 0.000000 0.000000 0.050175
#
#
# Mechanical properties :
#
#
# Convention : Reuss Voigt Hill
#
# Bulk Modulus (GPa) = 66.35924 66.56550 66.46237
# Shear Modulus (GPa) = 23.37752 23.86402 23.62077
#
# Velocity S-wave (km/s) = 3.66098 3.69888 3.67998
# Velocity P-wave (km/s) = 7.47767 7.51037 7.49404
#
# Compressibility (1/GPa) = 0.01506949
#
# Stress axis : x y z
#
# Youngs Moduli (GPa) = 56.17720 56.17720 69.29976
#
# Poissons Ratio (x) = 0.40935 0.35323
# Poissons Ratio (y) = 0.40935 0.35323
# Poissons Ratio (z) = 0.28635 0.28635
#
# Static dielectric constant tensor:
#      x y z
#    x 3.271650 0.000000 0.000000 
#    y 0.000000 3.271650 0.000000 
#    z 0.000000 0.000000 3.400250 
# 
# 
# High freq. dielectric constant tensor:
#      x y z
#    x 1.662970 0.000000 0.000000 
#    y 0.000000 1.662970 0.000000 
#    z 0.000000 0.000000 1.693750 
# 
# From -- ./inp_files/1337.got.cif
#   From: 2010.03.12/outbox.cif.g09.slc.cpg/sg189_1_cif.got.tgz:1337.got - 2010.04.01 12:03:36.
