data_PCOD8327416
_publ_section_title
;
Structure prediction by ZEFSAII (Michael W. Deem and Ramdas Pophale) SiO2 
 PCOD8327416
Probable space group: P -6 C 2
;
_chemical_formula_sum "Si O2"
_cell_formula_units_Z 72
_cell_length_a 15.380475
_cell_length_b 15.380475
_cell_length_c 17.378772
_cell_angle_alpha 90.000000
_cell_angle_beta 90.000000
_cell_angle_gamma 120.000000
_cell_volume 3560.321472
_symmetry_space_group_name_H-M "P -6 C 2"
_symmetry_group_IT_number 188
_symmetry_cell_setting 'hexagonal'
loop_
_space_group_symop_operation_xyz
x,y,z
-x+y,-x,1/2-z
-y,x-y,z
x,y,1/2-z
-x+y,-x,z
-y,x-y,1/2-z
-y,-x,-z
-x+y,y,-z
x,x-y,-z
-x+y,y,1/2+z
x,x-y,1/2+z
-y,-x,1/2+z
loop_
_atom_site_type_symbol
_atom_site_label
_atom_site_fract_x
_atom_site_fract_y
_atom_site_fract_z
Si Si1 0.346729 0.076371 0.660603
Si Si2 0.144865 0.637087 0.664122
Si Si3 0.493763 0.790366 0.428801
Si Si4 0.400934 0.261946 0.929787
Si Si5 0.527634 0.080024 0.337015
Si Si6 0.052581 0.750087 0.021854
O O1 0.317312 0.048056 0.750000
O O2 0.364153 0.186524 0.642963
O O3 0.448174 0.073218 0.639466
O O4 0.256233 0.999376 0.604924
O O5 0.184205 0.660868 0.750000
O O6 0.196900 0.580035 0.626339
O O7 0.191337 0.743515 0.619860
O O8 0.026562 0.573419 0.660113
O O9 0.433877 0.716939 0.500000
O O10 0.577781 0.893396 0.467043
O O11 0.502252 0.361137 0.900035
O O12 0.435029 0.217515 0.000000
O O13 0.307292 0.275480 0.956369
O O14 0.542733 0.124537 0.250000
O O15 0.133097 0.866904 0.000000
#
# Coordination Sequence:
#
# PCOD8327416 Si02
#       6
#    12  12  12  12  12  12
#     4  10  21  40  65  90 124 163 205 253 309 372
#     4  11  22  35  54  81 119 163 204 246 288 343
#     4  11  21  34  51  78 116 161 202 241 284 341
#     4  10  22  39  61  90 119 156 205 258 316 369
#     4  10  20  37  60  87 122 162 202 249 303 359
#     4  10  21  38  60  88 119 156 201 252 305 364
#
# _framework density 20.222894
#
# number of rings (size 3 to 8) (size 9 to 14) (size 15 to 20)
#    0.000    1.667    1.667    3.833    0.000    3.333 
#    1.000    1.667    0.000    9.000    0.000    0.000 
#    0.000    0.000    0.000    0.000    0.000    0.000 
#
# Total GULP energy -892019.209052 kJ/mol
# GULP energy per Si atom -12389.155681 kJ/mol
# Density = 2.017687 g / cm^3
# Si number density = 20.222894 Si / 1000 Ang^3
#
#
#
# Elastic Constant Matrix: (Units=GPa)
#
#
# Indices 1 2 3 4 5 6 
#
# 1 78.4533 25.8163 42.9021 0.0000 0.0000 0.0000
# 2 25.8163 78.4533 42.9021 0.0000 0.0000 0.0000
# 3 42.9021 42.9021 124.9471 0.0000 0.0000 0.0000
# 4 0.0000 0.0000 0.0000 35.4853 0.0000 0.0000
# 5 0.0000 0.0000 0.0000 0.0000 35.4853 0.0000
# 6 0.0000 0.0000 0.0000 0.0000 0.0000 26.3185
#
#
#
# Elastic Compliance Matrix: (Units=1/GPa)
#
#
# Indices 1 2 3 4 5 6 
#
# 1 0.016183 -0.002815 -0.004590 0.000000 0.000000 0.000000
# 2 -0.002815 0.016183 -0.004590 0.000000 0.000000 0.000000
# 3 -0.004590 -0.004590 0.011155 0.000000 0.000000 0.000000
# 4 0.000000 0.000000 0.000000 0.028181 0.000000 0.000000
# 5 0.000000 0.000000 0.000000 0.000000 0.028181 0.000000
# 6 0.000000 0.000000 0.000000 0.000000 0.000000 0.037996
#
#
# Mechanical properties :
#
#
# Convention : Reuss Voigt Hill
#
# Bulk Modulus (GPa) = 51.20090 56.12162 53.66126
# Shear Modulus (GPa) = 29.69491 30.80669 30.25080
#
# Velocity S-wave (km/s) = 3.83610 3.90725 3.87184
# Velocity P-wave (km/s) = 6.70777 6.94027 6.82501
#
# Compressibility (1/GPa) = 0.01953091
#
# Stress axis : x y z
#
# Youngs Moduli (GPa) = 61.79390 61.79390 89.64272
#
# Poissons Ratio (x) = 0.17396 0.41145
# Poissons Ratio (y) = 0.17396 0.41145
# Poissons Ratio (z) = 0.28363 0.28363
#
# Static dielectric constant tensor:
#      x y z
#    x 3.846780 0.000000 0.000000 
#    y 0.000000 3.846780 0.000000 
#    z 0.000000 0.000000 4.070050 
# 
# 
# High freq. dielectric constant tensor:
#      x y z
#    x 1.769940 0.000000 0.000000 
#    y 0.000000 1.769940 0.000000 
#    z 0.000000 0.000000 1.813640 
# 
# From -- ./inp_files/3190.got.cif
#   From: 2010.03.12/outbox.cif.g09.slc.cpg/sg188_2_cif.got.tgz:3190.got - 2010.04.01 12:01:06.
