data_PCOD8327347
_publ_section_title
;
Structure prediction by ZEFSAII (Michael W. Deem and Ramdas Pophale) SiO2 
 PCOD8327347
Probable space group: P -6 C 2
;
_chemical_formula_sum "Si O2"
_cell_formula_units_Z 52
_cell_length_a 12.835834
_cell_length_b 12.835834
_cell_length_c 21.696636
_cell_angle_alpha 90.000000
_cell_angle_beta 90.000000
_cell_angle_gamma 120.000000
_cell_volume 3095.788043
_symmetry_space_group_name_H-M "P -6 C 2"
_symmetry_group_IT_number 188
_symmetry_cell_setting 'hexagonal'
loop_
_space_group_symop_operation_xyz
x,y,z
-x+y,-x,1/2-z
-y,x-y,z
x,y,1/2-z
-x+y,-x,z
-y,x-y,1/2-z
-y,-x,-z
-x+y,y,-z
x,x-y,-z
-x+y,y,1/2+z
x,x-y,1/2+z
-y,-x,1/2+z
loop_
_atom_site_type_symbol
_atom_site_label
_atom_site_fract_x
_atom_site_fract_y
_atom_site_fract_z
Si Si1 0.335388 0.907427 0.927166
Si Si2 0.000000 0.000000 0.929778
Si Si3 0.203867 0.194677 0.856280
Si Si4 0.004240 0.250276 0.683142
Si Si5 0.577760 0.668399 0.432632
O O1 0.319453 0.988092 0.875224
O O2 0.228267 0.770941 0.922514
O O3 0.461296 0.915742 0.913310
O O4 0.334859 0.953089 0.996771
O O5 0.131269 0.102722 0.910579
O O6 0.000000 0.000000 0.000000
O O7 0.111613 0.219312 0.817686
O O8 0.310900 0.315340 0.886657
O O9 0.257178 0.127323 0.815730
O O10 0.015417 0.313384 0.750000
#
# Coordination Sequence:
#
# PCOD8327347 Si02
#       5
#    12   4  12  12  12
#     4   9  18  30  49  70  96 126 154 198 232 279
#     4   9  18  24  43  74 106 120 150 196 236 289
#     4   9  19  29  48  70  96 129 153 195 239 286
#     4  10  19  32  46  69  98 128 158 189 236 292
#     4   9  17  31  49  72  96 122 162 193 242 279
#
# _framework density 16.797014999999998
#
# number of rings (size 3 to 8) (size 9 to 14) (size 15 to 20)
#    0.000    2.769    0.000    1.615    9.692    1.846 
#    0.000    5.769    0.000    0.923    0.000    0.000 
#    0.000    0.000    0.000    0.000    0.000    0.000 
#
# Total GULP energy -644383.274734 kJ/mol
# GULP energy per Si atom -12391.986053 kJ/mol
# Density = 1.675878 g / cm^3
# Si number density = 16.797015 Si / 1000 Ang^3
#
#
#
# Elastic Constant Matrix: (Units=GPa)
#
#
# Indices 1 2 3 4 5 6 
#
# 1 79.3926 26.2153 38.1338 0.0000 0.0000 0.0000
# 2 26.2153 79.3926 38.1338 0.0000 0.0000 0.0000
# 3 38.1338 38.1338 110.0101 0.0000 0.0000 0.0000
# 4 0.0000 0.0000 0.0000 14.8227 0.0000 0.0000
# 5 0.0000 0.0000 0.0000 0.0000 14.8227 0.0000
# 6 0.0000 0.0000 0.0000 0.0000 0.0000 26.5887
#
#
#
# Elastic Compliance Matrix: (Units=1/GPa)
#
#
# Indices 1 2 3 4 5 6 
#
# 1 0.015718 -0.003087 -0.004378 0.000000 0.000000 0.000000
# 2 -0.003087 0.015718 -0.004378 0.000000 0.000000 0.000000
# 3 -0.004378 -0.004378 0.012126 0.000000 0.000000 0.000000
# 4 0.000000 0.000000 0.000000 0.067464 0.000000 0.000000
# 5 0.000000 0.000000 0.000000 0.000000 0.067464 0.000000
# 6 0.000000 0.000000 0.000000 0.000000 0.000000 0.037610
#
#
# Mechanical properties :
#
#
# Convention : Reuss Voigt Hill
#
# Bulk Modulus (GPa) = 50.31729 52.64014 51.47872
# Shear Modulus (GPa) = 20.29121 22.33430 21.31275
#
# Velocity S-wave (km/s) = 3.47944 3.65040 3.56594
# Velocity P-wave (km/s) = 6.79434 7.01244 6.90425
#
# Compressibility (1/GPa) = 0.01987389
#
# Stress axis : x y z
#
# Youngs Moduli (GPa) = 63.62140 63.62140 82.47069
#
# Poissons Ratio (x) = 0.19640 0.36109
# Poissons Ratio (y) = 0.19640 0.36109
# Poissons Ratio (z) = 0.27856 0.27856
#
# Static dielectric constant tensor:
#      x y z
#    x 2.987250 0.000000 0.000000 
#    y 0.000000 2.987250 0.000000 
#    z 0.000000 0.000000 3.167390 
# 
# 
# High freq. dielectric constant tensor:
#      x y z
#    x 1.624400 0.000000 0.000000 
#    y 0.000000 1.624400 0.000000 
#    z 0.000000 0.000000 1.653090 
# 
# From -- ./inp_files/3618.got.cif
#   From: 2010.03.12/outbox.cif.g09.slc.cpg/sg188_2_cif.got.tgz:3618.got - 2010.04.01 12:01:06.
