data_PCOD8327499
_publ_section_title
;
Structure prediction by ZEFSAII (Michael W. Deem and Ramdas Pophale) SiO2 
 PCOD8327499
Probable space group: P -6 2 M
;
_chemical_formula_sum "Si O2"
_cell_formula_units_Z 72
_cell_length_a 22.819948
_cell_length_b 22.819948
_cell_length_c 9.628366
_cell_angle_alpha 90.000000
_cell_angle_beta 90.000000
_cell_angle_gamma 120.000000
_cell_volume 4342.226998
_symmetry_space_group_name_H-M "P -6 2 M"
_symmetry_group_IT_number 189
_symmetry_cell_setting 'hexagonal'
loop_
_space_group_symop_operation_xyz
x,y,z
-x+y,-x,-z
-y,x-y,z
x,y,-z
-x+y,-x,z
-y,x-y,-z
x-y,-y,-z
-x,-x+y,-z
y,x,-z
y,x,z
x-y,-y,z
-x,-x+y,z
loop_
_atom_site_type_symbol
_atom_site_label
_atom_site_fract_x
_atom_site_fract_y
_atom_site_fract_z
Si Si1 0.436002 0.356981 0.656775
Si Si2 0.697960 0.697960 0.164597
Si Si3 0.172113 0.000000 0.165409
Si Si4 0.435664 0.129992 0.162115
Si Si5 0.776179 0.923928 0.165254
Si Si6 0.152671 0.774163 0.162508
Si Si7 0.077740 0.508105 0.661303
O O1 0.431261 0.330309 0.500000
O O2 0.385660 0.385660 0.676223
O O3 0.414858 0.297136 0.763391
O O4 0.512252 0.414956 0.689761
O O5 0.762670 0.762670 0.228102
O O6 0.697150 0.631728 0.217595
O O7 0.702808 0.702808 0.000000
O O8 0.176615 0.069784 0.217533
O O9 0.173840 0.000000 0.000000
O O10 0.425740 0.193478 0.193421
O O11 0.496157 0.130883 0.249669
O O12 0.449206 0.125163 0.000000
O O13 0.698669 0.877545 0.217392
O O14 0.808073 0.000000 0.225398
O O15 0.776457 0.925236 0.000000
O O16 0.137689 0.761725 0.000000
O O17 0.086310 0.496902 0.500000
O O18 0.000000 0.457947 0.708054
#
# Coordination Sequence:
#
# PCOD8327499 Si02
#       7
#    12   6   6  12  12  12  12
#     4   9  19  35  51  68  95 129 160 193 238 289
#     4   9  14  24  41  63  93 123 150 185 234 288
#     4   9  14  24  38  55  87 129 162 195 242 288
#     4  10  18  28  47  73  98 125 156 191 237 290
#     4   9  16  25  38  59  89 124 163 204 242 280
#     4  10  19  30  47  72  98 125 161 202 241 284
#     4   9  18  32  49  70  96 123 151 187 232 282
#
# _framework density 16.581354000000001
#
# number of rings (size 3 to 8) (size 9 to 14) (size 15 to 20)
#    0.000    2.667    2.500    1.500    0.000    2.333 
#    0.500    1.667    0.000    0.667    0.000    0.000 
#    0.000    0.000    0.000    0.000    0.167    0.333 
#
# Total GULP energy -892399.933610 kJ/mol
# GULP energy per Si atom -12394.443522 kJ/mol
# Density = 1.654361 g / cm^3
# Si number density = 16.581354 Si / 1000 Ang^3
#
#
#
# Elastic Constant Matrix: (Units=GPa)
#
#
# Indices 1 2 3 4 5 6 
#
# 1 102.8626 54.6297 41.8935 0.0000 0.0000 0.0000
# 2 54.6297 102.8626 41.8935 0.0000 0.0000 0.0000
# 3 41.8935 41.8935 39.9357 0.0000 0.0000 0.0000
# 4 0.0000 0.0000 0.0000 20.7006 0.0000 0.0000
# 5 0.0000 0.0000 0.0000 0.0000 20.7006 0.0000
# 6 0.0000 0.0000 0.0000 0.0000 0.0000 24.1164
#
#
#
# Elastic Compliance Matrix: (Units=1/GPa)
#
#
# Indices 1 2 3 4 5 6 
#
# 1 0.017551 -0.003182 -0.015073 0.000000 0.000000 0.000000
# 2 -0.003182 0.017551 -0.015073 0.000000 0.000000 0.000000
# 3 -0.015073 -0.015073 0.056663 0.000000 0.000000 0.000000
# 4 0.000000 0.000000 0.000000 0.048308 0.000000 0.000000
# 5 0.000000 0.000000 0.000000 0.000000 0.048308 0.000000
# 6 0.000000 0.000000 0.000000 0.000000 0.000000 0.041465
#
#
# Mechanical properties :
#
#
# Convention : Reuss Voigt Hill
#
# Bulk Modulus (GPa) = 39.82582 58.05491 48.94037
# Shear Modulus (GPa) = 16.40043 20.25316 18.32679
#
# Velocity S-wave (km/s) = 3.14839 3.49870 3.32816
# Velocity P-wave (km/s) = 6.10631 7.17004 6.65945
#
# Compressibility (1/GPa) = 0.02510934
#
# Stress axis : x y z
#
# Youngs Moduli (GPa) = 56.97843 56.97843 17.64808
#
# Poissons Ratio (x) = 0.18132 0.26600
# Poissons Ratio (y) = 0.18132 0.26600
# Poissons Ratio (z) = 0.85882 0.85882
#
# Static dielectric constant tensor:
#      x y z
#    x 3.143150 0.000000 0.000000 
#    y 0.000000 3.143150 0.000000 
#    z 0.000000 0.000000 2.746560 
# 
# 
# High freq. dielectric constant tensor:
#      x y z
#    x 1.634540 0.000000 0.000000 
#    y 0.000000 1.634540 0.000000 
#    z 0.000000 0.000000 1.599530 
# 
# From -- ./inp_files/1376.got.cif
#   From: 2010.03.12/outbox.cif.g09.slc.cpg/sg189_1_cif.got.tgz:1376.got - 2010.04.01 12:03:36.
