data_PCOD8327810
_publ_section_title
;
Structure prediction by ZEFSAII (Michael W. Deem and Ramdas Pophale) SiO2 
 PCOD8327810
Probable space group: P -6 2 M
;
_chemical_formula_sum "Si O2"
_cell_formula_units_Z 84
_cell_length_a 18.795348
_cell_length_b 18.795348
_cell_length_c 14.156706
_cell_angle_alpha 90.000000
_cell_angle_beta 90.000000
_cell_angle_gamma 120.000000
_cell_volume 4331.053884
_symmetry_space_group_name_H-M "P -6 2 M"
_symmetry_group_IT_number 189
_symmetry_cell_setting 'hexagonal'
loop_
_space_group_symop_operation_xyz
x,y,z
-x+y,-x,-z
-y,x-y,z
x,y,-z
-x+y,-x,z
-y,x-y,-z
x-y,-y,-z
-x,-x+y,-z
y,x,-z
y,x,z
x-y,-y,z
-x,-x+y,z
loop_
_atom_site_type_symbol
_atom_site_label
_atom_site_fract_x
_atom_site_fract_y
_atom_site_fract_z
Si Si1 0.906061 0.092513 0.611107
Si Si2 0.229933 0.903892 0.716678
Si Si3 0.183236 0.491921 0.605795
Si Si4 0.405637 0.907741 0.106590
Si Si5 0.815438 0.216526 0.108392
Si Si6 0.093548 0.644481 0.797820
Si Si7 0.839512 0.483724 0.606128
O O1 0.897916 0.097287 0.500000
O O2 0.870866 0.146223 0.657964
O O3 0.000000 0.125803 0.641085
O O4 0.852797 0.000000 0.648633
O O5 0.280468 0.861558 0.680166
O O6 0.204185 0.878668 0.825761
O O7 0.286828 0.000000 0.704403
O O8 0.154509 0.456513 0.500000
O O9 0.281334 0.534756 0.614599
O O10 0.158427 0.559808 0.628363
O O11 0.311075 0.838707 0.120596
O O12 0.460075 0.886955 0.175176
O O13 0.421405 0.000000 0.128090
O O14 0.433382 0.904641 0.000000
O O15 0.723760 0.155800 0.143162
O O16 0.825911 0.197114 0.000000
O O17 0.106021 0.657869 0.684593
O O18 0.000000 0.619028 0.823196
O O19 0.874039 0.516194 0.500000
#
# Coordination Sequence:
#
# PCOD8327810 Si02
#       7
#    12  12  12  12  12  12  12
#     4   9  18  34  58  87 118 152 189 233 291 359
#     4  11  22  37  58  88 121 152 191 245 301 348
#     4  10  20  37  59  87 120 156 197 240 283 341
#     4   9  19  38  62  86 112 144 188 244 299 346
#     4  11  23  40  60  83 111 151 199 245 294 351
#     4  11  23  39  59  85 119 156 193 239 297 352
#     4  10  21  37  58  83 115 154 196 239 286 339
#
# _framework density 19.394817
#
# number of rings (size 3 to 8) (size 9 to 14) (size 15 to 20)
#    0.000    1.857    1.429    2.571    0.000    6.857 
#    0.857    1.429    0.000    0.000    0.000    0.000 
#    0.000    1.143    0.000    0.000    0.000    0.000 
#
# Total GULP energy -1041515.398981 kJ/mol
# GULP energy per Si atom -12398.992845 kJ/mol
# Density = 1.935067 g / cm^3
# Si number density = 19.394817 Si / 1000 Ang^3
#
#
#
# Elastic Constant Matrix: (Units=GPa)
#
#
# Indices 1 2 3 4 5 6 
#
# 1 91.5084 35.2004 38.4764 0.0000 0.0000 0.0000
# 2 35.2004 91.5084 38.4764 0.0000 0.0000 0.0000
# 3 38.4764 38.4764 106.4764 0.0000 0.0000 0.0000
# 4 0.0000 0.0000 0.0000 26.4975 0.0000 0.0000
# 5 0.0000 0.0000 0.0000 0.0000 26.4975 0.0000
# 6 0.0000 0.0000 0.0000 0.0000 0.0000 28.1540
#
#
#
# Elastic Compliance Matrix: (Units=1/GPa)
#
#
# Indices 1 2 3 4 5 6 
#
# 1 0.013935 -0.003824 -0.003654 0.000000 0.000000 0.000000
# 2 -0.003824 0.013935 -0.003654 0.000000 0.000000 0.000000
# 3 -0.003654 -0.003654 0.012032 0.000000 0.000000 0.000000
# 4 0.000000 0.000000 0.000000 0.037739 0.000000 0.000000
# 5 0.000000 0.000000 0.000000 0.000000 0.037739 0.000000
# 6 0.000000 0.000000 0.000000 0.000000 0.000000 0.035519
#
#
# Mechanical properties :
#
#
# Convention : Reuss Voigt Hill
#
# Bulk Modulus (GPa) = 56.69065 57.08884 56.88975
# Shear Modulus (GPa) = 27.92608 28.05245 27.98926
#
# Velocity S-wave (km/s) = 3.79868 3.80727 3.80298
# Velocity P-wave (km/s) = 6.96658 6.98756 6.97708
#
# Compressibility (1/GPa) = 0.01763959
#
# Stress axis : x y z
#
# Youngs Moduli (GPa) = 71.76026 71.76026 83.10888
#
# Poissons Ratio (x) = 0.27442 0.30366
# Poissons Ratio (y) = 0.27442 0.30366
# Poissons Ratio (z) = 0.26220 0.26220
#
# Static dielectric constant tensor:
#      x y z
#    x 3.459630 0.000000 0.000000 
#    y 0.000000 3.459630 0.000000 
#    z 0.000000 0.000000 3.800190 
# 
# 
# High freq. dielectric constant tensor:
#      x y z
#    x 1.744570 0.000000 0.000000 
#    y 0.000000 1.744570 0.000000 
#    z 0.000000 0.000000 1.766980 
# 
# From -- ./inp_files/2794.got.cif
#   From: 2010.03.12/outbox.cif.g09.slc.cpg/sg189_2_cif.got.tgz:2794.got - 2010.04.01 12:03:36.
