data_PCOD8327792
_publ_section_title
;
Structure prediction by ZEFSAII (Michael W. Deem and Ramdas Pophale) SiO2 
 PCOD8327792
Probable space group: P -6 2 M
;
_chemical_formula_sum "Si O2"
_cell_formula_units_Z 72
_cell_length_a 23.261876
_cell_length_b 23.261876
_cell_length_c 8.867412
_cell_angle_alpha 90.000000
_cell_angle_beta 90.000000
_cell_angle_gamma 120.000000
_cell_volume 4155.439767
_symmetry_space_group_name_H-M "P -6 2 M"
_symmetry_group_IT_number 189
_symmetry_cell_setting 'hexagonal'
loop_
_space_group_symop_operation_xyz
x,y,z
-x+y,-x,-z
-y,x-y,z
x,y,-z
-x+y,-x,z
-y,x-y,-z
x-y,-y,-z
-x,-x+y,-z
y,x,-z
y,x,z
x-y,-y,z
-x,-x+y,z
loop_
_atom_site_type_symbol
_atom_site_label
_atom_site_fract_x
_atom_site_fract_y
_atom_site_fract_z
Si Si1 0.477181 0.325562 0.174049
Si Si2 0.000000 0.284832 0.823062
Si Si3 0.483581 0.209895 0.325730
Si Si4 0.409098 0.000000 0.323124
Si Si5 0.802498 0.670995 0.327124
Si Si6 0.472180 0.595231 0.174019
Si Si7 0.658297 0.924566 0.324449
O O1 0.498828 0.281494 0.270556
O O2 0.531600 0.401178 0.199865
O O3 0.406876 0.315366 0.230077
O O4 0.471218 0.304721 0.000000
O O5 0.000000 0.348006 0.755663
O O6 0.933998 0.217917 0.770789
O O7 0.000000 0.289133 0.000000
O O8 0.503553 0.214801 0.500000
O O9 0.406372 0.155832 0.300995
O O10 0.528609 0.189578 0.227221
O O11 0.397805 0.000000 0.500000
O O12 0.477353 0.063706 0.278391
O O13 0.803259 0.690824 0.500000
O O14 0.875497 0.685630 0.275958
O O15 0.494045 0.602329 0.000000
O O16 0.637689 0.912324 0.500000
O O17 0.715173 0.000000 0.292398
#
# Coordination Sequence:
#
# PCOD8327792 Si02
#       7
#    12   6  12   6  12  12  12
#     4  10  22  37  54  76 104 138 175 220 271 323
#     4  12  22  32  52  80 110 142 174 211 258 317
#     4  10  20  36  57  76  98 132 175 221 269 322
#     4  12  24  36  54  78 106 140 176 221 272 325
#     4   9  18  33  53  77 107 137 170 210 256 309
#     4  11  23  38  55  77 106 138 176 224 275 328
#     4   9  19  36  57  80 106 140 178 216 258 307
#
# _framework density 17.326687
#
# number of rings (size 3 to 8) (size 9 to 14) (size 15 to 20)
#    0.000    1.833    1.667    4.000    1.167    5.667 
#    1.000    0.000    0.000    0.000    0.000    0.000 
#    0.833    0.000    1.500    0.000    0.500    0.000 
#
# Total GULP energy -893031.585078 kJ/mol
# GULP energy per Si atom -12403.216459 kJ/mol
# Density = 1.728725 g / cm^3
# Si number density = 17.326687 Si / 1000 Ang^3
#
#
#
# Elastic Constant Matrix: (Units=GPa)
#
#
# Indices 1 2 3 4 5 6 
#
# 1 92.6901 56.7341 48.2265 0.0000 0.0000 0.0000
# 2 56.7341 92.6901 48.2265 0.0000 0.0000 0.0000
# 3 48.2265 48.2265 92.4885 0.0000 0.0000 0.0000
# 4 0.0000 0.0000 0.0000 26.5789 0.0000 0.0000
# 5 0.0000 0.0000 0.0000 0.0000 26.5789 0.0000
# 6 0.0000 0.0000 0.0000 0.0000 0.0000 17.9780
#
#
#
# Elastic Compliance Matrix: (Units=1/GPa)
#
#
# Indices 1 2 3 4 5 6 
#
# 1 0.018950 -0.008862 -0.005260 0.000000 0.000000 0.000000
# 2 -0.008862 0.018950 -0.005260 0.000000 0.000000 0.000000
# 3 -0.005260 -0.005260 0.016298 0.000000 0.000000 0.000000
# 4 0.000000 0.000000 0.000000 0.037624 0.000000 0.000000
# 5 0.000000 0.000000 0.000000 0.000000 0.037624 0.000000
# 6 0.000000 0.000000 0.000000 0.000000 0.000000 0.055624
#
#
# Mechanical properties :
#
#
# Convention : Reuss Voigt Hill
#
# Bulk Modulus (GPa) = 64.79675 64.91587 64.85631
# Shear Modulus (GPa) = 21.83625 22.53927 22.18776
#
# Velocity S-wave (km/s) = 3.55388 3.61063 3.58237
# Velocity P-wave (km/s) = 7.37010 7.41144 7.39079
#
# Compressibility (1/GPa) = 0.01543287
#
# Stress axis : x y z
#
# Youngs Moduli (GPa) = 52.77114 52.77114 61.35842
#
# Poissons Ratio (x) = 0.46766 0.32275
# Poissons Ratio (y) = 0.46766 0.32275
# Poissons Ratio (z) = 0.27758 0.27758
#
# Static dielectric constant tensor:
#      x y z
#    x 3.208000 0.000000 0.000000 
#    y 0.000000 3.208000 0.000000 
#    z 0.000000 0.000000 3.350900 
# 
# 
# High freq. dielectric constant tensor:
#      x y z
#    x 1.656310 0.000000 0.000000 
#    y 0.000000 1.656310 0.000000 
#    z 0.000000 0.000000 1.680710 
# 
# From -- ./inp_files/1366.got.cif
#   From: 2010.03.12/outbox.cif.g09.slc.cpg/sg189_1_cif.got.tgz:1366.got - 2010.04.01 12:03:36.
