data_PCOD8327917
_publ_section_title
;
Structure prediction by ZEFSAII (Michael W. Deem and Ramdas Pophale) SiO2 
 PCOD8327917
Probable space group: P -6 2 M
;
_chemical_formula_sum "Si O2"
_cell_formula_units_Z 48
_cell_length_a 18.484738
_cell_length_b 18.484738
_cell_length_c 9.969267
_cell_angle_alpha 90.000000
_cell_angle_beta 90.000000
_cell_angle_gamma 120.000000
_cell_volume 2949.989417
_symmetry_space_group_name_H-M "P -6 2 M"
_symmetry_group_IT_number 189
_symmetry_cell_setting 'hexagonal'
loop_
_space_group_symop_operation_xyz
x,y,z
-x+y,-x,-z
-y,x-y,z
x,y,-z
-x+y,-x,z
-y,x-y,-z
x-y,-y,-z
-x,-x+y,-z
y,x,-z
y,x,z
x-y,-y,z
-x,-x+y,z
loop_
_atom_site_type_symbol
_atom_site_label
_atom_site_fract_x
_atom_site_fract_y
_atom_site_fract_z
Si Si1 0.478693 0.096340 0.155982
Si Si2 0.375415 0.772536 0.349401
Si Si3 0.099047 0.316952 0.148190
Si Si4 0.193787 0.097491 0.654074
O O1 0.560627 0.152715 0.243378
O O2 0.410804 0.124435 0.189943
O O3 0.443369 0.000000 0.194575
O O4 0.503050 0.111017 0.000000
O O5 0.276560 0.703820 0.329440
O O6 0.389619 0.809772 0.500000
O O7 0.133965 0.277296 0.256021
O O8 0.000000 0.263451 0.143261
O O9 0.134772 0.316239 0.000000
O O10 0.222616 0.113730 0.500000
O O11 0.145271 0.145271 0.695759
O O12 0.131493 0.000000 0.681126
#
# Coordination Sequence:
#
# PCOD8327917 Si02
#       4
#    12  12  12  12
#     4   9  17  29  47  72  97 120 151 191 232 276
#     4   8  17  32  48  70  99 125 152 187 227 272
#     4   8  15  27  40  57  83 110 138 178 223 264
#     4   9  16  25  37  54  77 106 142 184 228 273
#
# _framework density 16.271245
#
# number of rings (size 3 to 8) (size 9 to 14) (size 15 to 20)
#    0.500    3.000    0.000    1.750    0.000    4.000 
#    0.000    2.500    0.000    3.000    0.000    0.000 
#    0.000    0.000    0.000    0.000    0.000    0.000 
#
# Total GULP energy -594783.665871 kJ/mol
# GULP energy per Si atom -12391.326372 kJ/mol
# Density = 1.623421 g / cm^3
# Si number density = 16.271245 Si / 1000 Ang^3
#
#
#
# Elastic Constant Matrix: (Units=GPa)
#
#
# Indices 1 2 3 4 5 6 
#
# 1 46.7026 13.5696 35.5964 0.0000 0.0000 0.0000
# 2 13.5696 46.7026 35.5964 0.0000 0.0000 0.0000
# 3 35.5964 35.5964 79.9228 0.0000 0.0000 0.0000
# 4 0.0000 0.0000 0.0000 29.2137 0.0000 0.0000
# 5 0.0000 0.0000 0.0000 0.0000 29.2137 0.0000
# 6 0.0000 0.0000 0.0000 0.0000 0.0000 16.5665
#
#
#
# Elastic Compliance Matrix: (Units=1/GPa)
#
#
# Indices 1 2 3 4 5 6 
#
# 1 0.032595 0.002414 -0.015592 0.000000 0.000000 0.000000
# 2 0.002414 0.032595 -0.015592 0.000000 0.000000 0.000000
# 3 -0.015592 -0.015592 0.026401 0.000000 0.000000 0.000000
# 4 0.000000 0.000000 0.000000 0.034231 0.000000 0.000000
# 5 0.000000 0.000000 0.000000 0.000000 0.034231 0.000000
# 6 0.000000 0.000000 0.000000 0.000000 0.000000 0.060363
#
#
# Mechanical properties :
#
#
# Convention : Reuss Voigt Hill
#
# Bulk Modulus (GPa) = 29.36898 38.09475 33.73187
# Shear Modulus (GPa) = 17.28264 20.90315 19.09290
#
# Velocity S-wave (km/s) = 3.26261 3.58812 3.42923
# Velocity P-wave (km/s) = 5.68170 6.37411 6.03783
#
# Compressibility (1/GPa) = 0.03404953
#
# Stress axis : x y z
#
# Youngs Moduli (GPa) = 30.67936 30.67936 37.87685
#
# Poissons Ratio (x) = -0.07405 0.59059
# Poissons Ratio (y) = -0.07405 0.59059
# Poissons Ratio (z) = 0.47837 0.47837
#
# Static dielectric constant tensor:
#      x y z
#    x 2.828860 0.000000 0.000000 
#    y 0.000000 2.828860 0.000000 
#    z 0.000000 0.000000 3.166460 
# 
# 
# High freq. dielectric constant tensor:
#      x y z
#    x 1.597400 0.000000 0.000000 
#    y 0.000000 1.597400 0.000000 
#    z 0.000000 0.000000 1.632170 
# 
# From -- ./inp_files/758.got.cif
#   From: 2010.03.12/outbox.cif.g09.slc.cpg/sg189_1_cif.got.tgz:758.got - 2010.04.01 12:03:36.
