data_PCOD8327365
_publ_section_title
;
Structure prediction by ZEFSAII (Michael W. Deem and Ramdas Pophale) SiO2 
 PCOD8327365
Probable space group: P -6 C 2
;
_chemical_formula_sum "Si O2"
_cell_formula_units_Z 72
_cell_length_a 15.479188
_cell_length_b 15.479188
_cell_length_c 16.977372
_cell_angle_alpha 90.000000
_cell_angle_beta 90.000000
_cell_angle_gamma 120.000000
_cell_volume 3522.876725
_symmetry_space_group_name_H-M "P -6 C 2"
_symmetry_group_IT_number 188
_symmetry_cell_setting 'hexagonal'
loop_
_space_group_symop_operation_xyz
x,y,z
-x+y,-x,1/2-z
-y,x-y,z
x,y,1/2-z
-x+y,-x,z
-y,x-y,1/2-z
-y,-x,-z
-x+y,y,-z
x,x-y,-z
-x+y,y,1/2+z
x,x-y,1/2+z
-y,-x,1/2+z
loop_
_atom_site_type_symbol
_atom_site_label
_atom_site_fract_x
_atom_site_fract_y
_atom_site_fract_z
Si Si1 0.427511 0.540082 0.656348
Si Si2 0.546513 0.435516 0.656003
Si Si3 0.235164 0.797744 0.656245
Si Si4 0.104290 0.885022 0.407154
Si Si5 0.440985 0.229574 0.156209
Si Si6 0.886853 0.784757 0.343272
O O1 0.425661 0.540280 0.750000
O O2 0.480095 0.480672 0.623528
O O3 0.314791 0.484383 0.624242
O O4 0.489104 0.653173 0.625646
O O5 0.547884 0.436023 0.750000
O O6 0.499210 0.323765 0.623047
O O7 0.658186 0.502943 0.623071
O O8 0.231071 0.803344 0.750000
O O9 0.197338 0.868668 0.620965
O O10 0.108314 0.891687 0.500000
O O11 0.993828 0.856008 0.380818
O O12 0.181952 0.990363 0.369048
O O13 0.442489 0.229012 0.250000
O O14 0.327638 0.172791 0.125728
O O15 0.897777 0.790957 0.250000
#
# Coordination Sequence:
#
# PCOD8327365 Si02
#       6
#    12  12  12  12  12  12
#     4   9  17  29  51  80 109 138 181 236 281 322
#     4   9  15  25  41  71 109 138 163 206 264 320
#     4  10  19  35  58  85 114 149 191 239 290 339
#     4  12  25  40  57  83 117 152 189 238 294 352
#     4   9  17  28  49  79 111 141 173 215 269 326
#     4  11  22  39  61  84 110 148 193 236 282 341
#
# _framework density 20.437840999999999
#
# number of rings (size 3 to 8) (size 9 to 14) (size 15 to 20)
#    0.000    2.000    0.000    5.000    0.000    8.000 
#    0.000    0.833    0.000    0.000    0.000    3.500 
#    0.000    0.000    0.000    0.000    0.000    0.000 
#
# Total GULP energy -893008.420797 kJ/mol
# GULP energy per Si atom -12402.894733 kJ/mol
# Density = 2.039132 g / cm^3
# Si number density = 20.437841 Si / 1000 Ang^3
#
#
#
# Elastic Constant Matrix: (Units=GPa)
#
#
# Indices 1 2 3 4 5 6 
#
# 1 128.9060 27.9057 9.2564 -0.0001 0.0000 0.0000
# 2 27.9057 128.9060 9.2564 0.0001 0.0000 0.0000
# 3 9.2564 9.2564 42.1650 0.0000 0.0000 0.0000
# 4 -0.0001 0.0001 0.0000 5.2811 0.0000 0.0000
# 5 0.0000 0.0000 0.0000 0.0000 5.2811 -0.0001
# 6 0.0000 0.0000 0.0000 0.0000 -0.0001 50.5001
#
#
#
# Elastic Compliance Matrix: (Units=1/GPa)
#
#
# Indices 1 2 3 4 5 6 
#
# 1 0.008224 -0.001677 -0.001437 0.000000 0.000000 0.000000
# 2 -0.001677 0.008224 -0.001437 0.000000 0.000000 0.000000
# 3 -0.001437 -0.001437 0.024347 0.000000 0.000000 0.000000
# 4 0.000000 0.000000 0.000000 0.189353 0.000000 0.000000
# 5 0.000000 0.000000 0.000000 0.000000 0.189353 0.000000
# 6 0.000000 0.000000 0.000000 0.000000 0.000000 0.019802
#
#
# Mechanical properties :
#
#
# Convention : Reuss Voigt Hill
#
# Bulk Modulus (GPa) = 31.55362 43.64598 37.59980
# Shear Modulus (GPa) = 10.89396 29.11638 20.00517
#
# Velocity S-wave (km/s) = 2.31125 3.77852 3.13202
# Velocity P-wave (km/s) = 4.75340 6.35910 5.61395
#
# Compressibility (1/GPa) = 0.03169208
#
# Stress axis : x y z
#
# Youngs Moduli (GPa) = 121.59745 121.59745 41.07226
#
# Poissons Ratio (x) = 0.20393 0.05903
# Poissons Ratio (y) = 0.20393 0.05903
# Poissons Ratio (z) = 0.17476 0.17476
#
# Static dielectric constant tensor:
#      x y z
#    x 3.954560 0.000000 0.000000 
#    y 0.000000 3.954560 0.000000 
#    z 0.000000 0.000000 3.093080 
# 
# 
# High freq. dielectric constant tensor:
#      x y z
#    x 1.818300 0.000000 0.000000 
#    y 0.000000 1.818300 0.000000 
#    z 0.000000 0.000000 1.740020 
# 
# From -- ./inp_files/3167.got.cif
#   From: 2010.03.12/outbox.cif.g09.slc.cpg/sg188_2_cif.got.tgz:3167.got - 2010.04.01 12:01:06.
