data_PCOD8327786
_publ_section_title
;
Structure prediction by ZEFSAII (Michael W. Deem and Ramdas Pophale) SiO2 
 PCOD8327786
Probable space group: P -6 2 M
;
_chemical_formula_sum "Si O2"
_cell_formula_units_Z 78
_cell_length_a 24.617405
_cell_length_b 24.617405
_cell_length_c 8.114635
_cell_angle_alpha 90.000000
_cell_angle_beta 90.000000
_cell_angle_gamma 120.000000
_cell_volume 4258.769771
_symmetry_space_group_name_H-M "P -6 2 M"
_symmetry_group_IT_number 189
_symmetry_cell_setting 'hexagonal'
loop_
_space_group_symop_operation_xyz
x,y,z
-x+y,-x,-z
-y,x-y,z
x,y,-z
-x+y,-x,z
-y,x-y,-z
x-y,-y,-z
-x,-x+y,-z
y,x,-z
y,x,z
x-y,-y,z
-x,-x+y,z
loop_
_atom_site_type_symbol
_atom_site_label
_atom_site_fract_x
_atom_site_fract_y
_atom_site_fract_z
Si Si1 0.364409 0.295078 0.693497
Si Si2 0.483148 0.624875 0.197178
Si Si3 0.928779 0.517270 0.193711
Si Si4 0.262412 0.740579 0.314573
Si Si5 0.682250 0.273221 0.000000
Si Si6 0.808727 0.625952 0.688094
Si Si7 0.624539 0.693331 0.808669
O O1 0.354162 0.289091 0.500000
O O2 0.320343 0.320343 0.773894
O O3 0.437779 0.343833 0.726011
O O4 0.346318 0.225820 0.762267
O O5 0.439918 0.553526 0.257081
O O6 0.455890 0.664622 0.285318
O O7 0.554360 0.651305 0.262878
O O8 0.483631 0.631779 0.000000
O O9 0.000000 0.540401 0.246613
O O10 0.922616 0.520520 0.000000
O O11 0.254170 0.711895 0.500000
O O12 0.222614 0.774536 0.291269
O O13 0.240994 0.688562 0.168061
O O14 0.734813 0.347817 0.000000
O O15 0.812235 0.645931 0.500000
O O16 0.767661 0.651333 0.778633
O O17 0.670253 0.670253 0.728396
O O18 0.621965 0.681463 0.000000
#
# Coordination Sequence:
#
# PCOD8327786 Si02
#       7
#    12  12  12  12   6  12  12
#     4   9  18  33  49  67  94 125 161 202 242 292
#     4   9  16  29  48  69  97 127 155 195 245 297
#     4   9  17  28  43  67  94 119 151 193 242 289
#     4  10  20  36  54  72  94 120 160 205 247 304
#     4  10  24  40  52  68  88 118 165 204 256 308
#     4   9  19  33  50  73  96 127 162 195 246 297
#     4   9  17  29  48  73  98 129 163 194 238 292
#
# _framework density 18.315148000000001
#
# number of rings (size 3 to 8) (size 9 to 14) (size 15 to 20)
#    0.154    2.615    0.769    0.462    1.077    5.231 
#    0.000    1.538    0.000    2.769    0.000    0.000 
#    0.000    0.000    0.000    0.462    0.000    7.077 
#
# Total GULP energy -966435.322576 kJ/mol
# GULP energy per Si atom -12390.196443 kJ/mol
# Density = 1.827346 g / cm^3
# Si number density = 18.315148 Si / 1000 Ang^3
#
#
#
# Elastic Constant Matrix: (Units=GPa)
#
#
# Indices 1 2 3 4 5 6 
#
# 1 70.9368 29.1435 7.9707 0.0000 0.0000 0.0000
# 2 29.1435 70.9368 7.9707 0.0000 0.0000 0.0000
# 3 7.9707 7.9707 49.5532 0.0000 0.0000 0.0000
# 4 0.0000 0.0000 0.0000 17.7582 0.0000 0.0000
# 5 0.0000 0.0000 0.0000 0.0000 17.7582 0.0000
# 6 0.0000 0.0000 0.0000 0.0000 0.0000 20.8966
#
#
#
# Elastic Compliance Matrix: (Units=1/GPa)
#
#
# Indices 1 2 3 4 5 6 
#
# 1 0.017091 -0.006836 -0.001649 0.000000 0.000000 0.000000
# 2 -0.006836 0.017091 -0.001649 0.000000 0.000000 0.000000
# 3 -0.001649 -0.001649 0.020711 0.000000 0.000000 0.000000
# 4 0.000000 0.000000 0.000000 0.056312 0.000000 0.000000
# 5 0.000000 0.000000 0.000000 0.000000 0.056312 0.000000
# 6 0.000000 0.000000 0.000000 0.000000 0.000000 0.047855
#
#
# Mechanical properties :
#
#
# Convention : Reuss Voigt Hill
#
# Bulk Modulus (GPa) = 28.88301 31.28853 30.08577
# Shear Modulus (GPa) = 20.22795 21.03875 20.63335
#
# Velocity S-wave (km/s) = 3.32691 3.39294 3.36009
# Velocity P-wave (km/s) = 5.52830 5.69823 5.61391
#
# Compressibility (1/GPa) = 0.03462243
#
# Stress axis : x y z
#
# Youngs Moduli (GPa) = 58.51030 58.51030 48.28361
#
# Poissons Ratio (x) = 0.39999 0.07964
# Poissons Ratio (y) = 0.39999 0.07964
# Poissons Ratio (z) = 0.09651 0.09651
#
# Static dielectric constant tensor:
#      x y z
#    x 3.533830 0.000000 0.000000 
#    y 0.000000 3.533830 0.000000 
#    z 0.000000 0.000000 3.261830 
# 
# 
# High freq. dielectric constant tensor:
#      x y z
#    x 1.685260 0.000000 0.000000 
#    y 0.000000 1.685260 0.000000 
#    z 0.000000 0.000000 1.698420 
# 
# From -- ./inp_files/1409.got.cif
#   From: 2010.03.12/outbox.cif.g09.slc.cpg/sg189_1_cif.got.tgz:1409.got - 2010.04.01 12:03:36.
