data_PCOD8327044
_publ_section_title
;
Structure prediction by ZEFSAII (Michael W. Deem and Ramdas Pophale) SiO2 
 PCOD8327044
Probable space group: P -6 M 2
;
_chemical_formula_sum "Si O2"
_cell_formula_units_Z 66
_cell_length_a 13.029977
_cell_length_b 13.029977
_cell_length_c 28.018032
_cell_angle_alpha 90.000000
_cell_angle_beta 90.000000
_cell_angle_gamma 120.000000
_cell_volume 4119.604813
_symmetry_space_group_name_H-M "P -6 M 2"
_symmetry_group_IT_number 187
_symmetry_cell_setting 'hexagonal'
loop_
_space_group_symop_operation_xyz
x,y,z
-x+y,-x,-z
-y,x-y,z
x,y,-z
-x+y,-x,z
-y,x-y,-z
-y,-x,-z
-x+y,y,-z
x,x-y,-z
-x+y,y,z
x,x-y,z
-y,-x,z
loop_
_atom_site_type_symbol
_atom_site_label
_atom_site_fract_x
_atom_site_fract_y
_atom_site_fract_z
Si Si1 0.334802 0.908490 0.633152
Si Si2 0.760922 0.002160 0.103260
Si Si3 0.429479 0.096052 0.178798
Si Si4 0.430549 0.097116 0.554861
Si Si5 0.903495 0.333091 0.287508
Si Si6 0.234000 0.231769 0.000000
O O1 0.436379 0.872758 0.632826
O O2 0.208616 0.791385 0.633563
O O3 0.343375 0.983986 0.586328
O O4 0.345313 0.985212 0.679712
O O5 0.894169 0.105832 0.113737
O O6 0.674073 0.003014 0.143511
O O7 0.758005 0.879003 0.106318
O O8 0.717017 0.020400 0.050364
O O9 0.546220 0.092439 0.166652
O O10 0.456907 0.228454 0.168918
O O11 0.387854 0.058267 0.233190
O O12 0.394588 0.062197 0.500000
O O13 0.566396 0.132793 0.564124
O O14 0.417250 0.208625 0.570012
O O15 0.866883 0.433441 0.294053
O O16 0.791209 0.208792 0.302826
O O17 0.181068 0.090534 0.000000
O O18 0.129484 0.258968 0.000000
#
# Coordination Sequence:
#
# PCOD8327044 Si02
#       6
#    12  12  12  12  12   6
#     4  10  20  32  46  65  91 122 152 181 215 258
#     4   9  16  26  42  63  86 111 141 179 220 259
#     4   9  17  29  45  65  89 116 144 175 214 262
#     4   9  17  30  50  75  98 118 144 184 231 268
#     4   9  17  30  49  70  88 109 142 185 228 264
#     4   8  13  22  37  58  82 108 140 178 218 254
#
# _framework density 16.020955000000001
#
# number of rings (size 3 to 8) (size 9 to 14) (size 15 to 20)
#    0.000    2.909    0.000    1.545    0.000    4.727 
#    0.000    2.273    0.000    4.364    0.000    1.273 
#    0.000    0.000    0.000    0.000    0.000    0.000 
#
# Total GULP energy -818030.274271 kJ/mol
# GULP energy per Si atom -12394.398095 kJ/mol
# Density = 1.598449 g / cm^3
# Si number density = 16.020955 Si / 1000 Ang^3
#
#
#
# Elastic Constant Matrix: (Units=GPa)
#
#
# Indices 1 2 3 4 5 6 
#
# 1 94.0968 50.8857 63.3081 0.0000 0.0000 0.0000
# 2 50.8857 94.0968 63.3081 0.0000 0.0000 0.0000
# 3 63.3081 63.3081 124.6332 0.0000 0.0000 0.0000
# 4 0.0000 0.0000 0.0000 24.5751 0.0000 0.0000
# 5 0.0000 0.0000 0.0000 0.0000 24.5751 0.0000
# 6 0.0000 0.0000 0.0000 0.0000 0.0000 21.6056
#
#
#
# Elastic Compliance Matrix: (Units=1/GPa)
#
#
# Indices 1 2 3 4 5 6 
#
# 1 0.017769 -0.005373 -0.006297 0.000000 0.000000 0.000000
# 2 -0.005373 0.017769 -0.006297 0.000000 0.000000 0.000000
# 3 -0.006297 -0.006297 0.014421 0.000000 0.000000 0.000000
# 4 0.000000 0.000000 0.000000 0.040692 0.000000 0.000000
# 5 0.000000 0.000000 0.000000 0.000000 0.040692 0.000000
# 6 0.000000 0.000000 0.000000 0.000000 0.000000 0.046284
#
#
# Mechanical properties :
#
#
# Convention : Reuss Voigt Hill
#
# Bulk Modulus (GPa) = 71.29523 74.20340 72.74932
# Shear Modulus (GPa) = 22.91101 23.17282 23.04191
#
# Velocity S-wave (km/s) = 3.78572 3.80729 3.79652
# Velocity P-wave (km/s) = 7.98165 8.10829 8.04522
#
# Compressibility (1/GPa) = 0.01402618
#
# Stress axis : x y z
#
# Youngs Moduli (GPa) = 56.27654 56.27654 69.34491
#
# Poissons Ratio (x) = 0.30236 0.43666
# Poissons Ratio (y) = 0.30236 0.43666
# Poissons Ratio (z) = 0.35437 0.35437
#
# Static dielectric constant tensor:
#      x y z
#    x 2.814490 0.000000 0.000000 
#    y 0.000000 2.814490 0.000000 
#    z 0.000000 0.000000 3.496290 
# 
# 
# High freq. dielectric constant tensor:
#      x y z
#    x 1.592330 0.000000 0.000000 
#    y 0.000000 1.592330 0.000000 
#    z 0.000000 0.000000 1.637310 
# 
# From -- ./inp_files/4406.got.cif
#   From: 2010.03.12/outbox.cif.g09.slc.cpg/sg187_3_cif.got.tgz:4406.got - 2010.04.01 11:58:23.
