data_PCOD8327259
_publ_section_title
;
Structure prediction by ZEFSAII (Michael W. Deem and Ramdas Pophale) SiO2 
 PCOD8327259
Probable space group: P -6 M 2
;
_chemical_formula_sum "Si O2"
_cell_formula_units_Z 66
_cell_length_a 22.140159
_cell_length_b 22.140159
_cell_length_c 7.775140
_cell_angle_alpha 90.000000
_cell_angle_beta 90.000000
_cell_angle_gamma 120.000000
_cell_volume 3300.656430
_symmetry_space_group_name_H-M "P -6 M 2"
_symmetry_group_IT_number 187
_symmetry_cell_setting 'hexagonal'
loop_
_space_group_symop_operation_xyz
x,y,z
-x+y,-x,-z
-y,x-y,z
x,y,-z
-x+y,-x,z
-y,x-y,-z
-y,-x,-z
-x+y,y,-z
x,x-y,-z
-x+y,y,z
x,x-y,z
-y,-x,z
loop_
_atom_site_type_symbol
_atom_site_label
_atom_site_fract_x
_atom_site_fract_y
_atom_site_fract_z
Si Si1 0.926295 0.312052 0.306983
Si Si2 0.200190 0.667104 0.204641
Si Si3 0.999810 0.856155 0.500000
Si Si4 0.947798 0.191184 0.807780
Si Si5 0.666416 0.197006 0.704764
Si Si6 0.547522 0.954244 0.199135
O O1 0.906730 0.282122 0.500000
O O2 0.945280 0.262240 0.200038
O O3 0.862265 0.317760 0.222839
O O4 0.993069 0.388614 0.314600
O O5 0.215631 0.607816 0.277004
O O6 0.257929 0.742072 0.279124
O O7 0.123487 0.650307 0.261271
O O8 0.203010 0.666028 0.000000
O O9 0.935052 0.870104 0.500000
O O10 0.999192 0.812978 0.331121
O O11 0.070293 0.929708 0.500000
O O12 0.870155 0.129846 0.769382
O O13 0.972808 0.185317 0.000000
O O14 0.662679 0.192351 0.500000
O O15 0.592923 0.185846 0.777896
O O16 0.727818 0.272183 0.766659
O O17 0.483634 0.967268 0.231515
O O18 0.569639 0.965642 0.000000
#
# Coordination Sequence:
#
# PCOD8327259 Si02
#       6
#    12  12   6  12  12  12
#     4  11  20  32  52  76 106 148 196 239 281 340
#     4   8  13  23  42  67  92 119 156 208 271 336
#     4  10  21  40  66  96 127 156 188 230 282 342
#     4  10  21  38  61  89 121 156 194 237 282 331
#     4   9  17  28  45  71 103 138 181 237 299 356
#     4   9  18  31  46  68 101 137 178 234 293 348
#
# _framework density 19.996022
#
# number of rings (size 3 to 8) (size 9 to 14) (size 15 to 20)
#    0.000    2.545    0.909    3.182    0.000    3.636 
#    0.000    0.909    0.000    3.273    0.000    0.000 
#    0.000   10.182    0.000    0.000    0.000    0.000 
#
# Total GULP energy -818232.392397 kJ/mol
# GULP energy per Si atom -12397.460491 kJ/mol
# Density = 1.995051 g / cm^3
# Si number density = 19.996022 Si / 1000 Ang^3
#
#
#
# Elastic Constant Matrix: (Units=GPa)
#
#
# Indices 1 2 3 4 5 6 
#
# 1 123.0186 54.9518 26.7165 0.0000 0.0000 0.0000
# 2 54.9518 123.0186 26.7165 0.0000 0.0000 0.0000
# 3 26.7165 26.7165 68.3416 0.0000 0.0000 0.0000
# 4 0.0000 0.0000 0.0000 16.6230 0.0000 0.0000
# 5 0.0000 0.0000 0.0000 0.0000 16.6230 0.0000
# 6 0.0000 0.0000 0.0000 0.0000 0.0000 34.0334
#
#
#
# Elastic Compliance Matrix: (Units=1/GPa)
#
#
# Indices 1 2 3 4 5 6 
#
# 1 0.010529 -0.004163 -0.002489 0.000000 0.000000 0.000000
# 2 -0.004163 0.010529 -0.002489 0.000000 0.000000 0.000000
# 3 -0.002489 -0.002489 0.016578 0.000000 0.000000 0.000000
# 4 0.000000 0.000000 0.000000 0.060157 0.000000 0.000000
# 5 0.000000 0.000000 0.000000 0.000000 0.060157 0.000000
# 6 0.000000 0.000000 0.000000 0.000000 0.000000 0.029383
#
#
# Mechanical properties :
#
#
# Convention : Reuss Voigt Hill
#
# Bulk Modulus (GPa) = 51.66448 59.01648 55.34048
# Shear Modulus (GPa) = 23.57762 27.18883 25.38322
#
# Velocity S-wave (km/s) = 3.43755 3.69143 3.56675
# Velocity P-wave (km/s) = 6.45361 6.90992 6.68566
#
# Compressibility (1/GPa) = 0.01935566
#
# Stress axis : x y z
#
# Youngs Moduli (GPa) = 94.97781 94.97781 60.32038
#
# Poissons Ratio (x) = 0.39536 0.15012
# Poissons Ratio (y) = 0.39536 0.15012
# Poissons Ratio (z) = 0.23637 0.23637
#
# Static dielectric constant tensor:
#      x y z
#    x 3.666950 0.000000 0.000000 
#    y 0.000000 3.666950 0.000000 
#    z 0.000000 0.000000 3.330400 
# 
# 
# High freq. dielectric constant tensor:
#      x y z
#    x 1.773580 0.000000 0.000000 
#    y 0.000000 1.773580 0.000000 
#    z 0.000000 0.000000 1.757790 
# 
# From -- ./inp_files/770.got.cif
#   From: 2010.03.12/outbox.cif.g09.slc.cpg/sg187_1_cif.got.tgz:770.got - 2010.04.01 11:58:23.
