data_PCOD8327075
_publ_section_title
;
Structure prediction by ZEFSAII (Michael W. Deem and Ramdas Pophale) SiO2 
 PCOD8327075
Probable space group: P -6 M 2
;
_chemical_formula_sum "Si O2"
_cell_formula_units_Z 60
_cell_length_a 20.978337
_cell_length_b 20.978337
_cell_length_c 9.309086
_cell_angle_alpha 90.000000
_cell_angle_beta 90.000000
_cell_angle_gamma 120.000000
_cell_volume 3547.968780
_symmetry_space_group_name_H-M "P -6 M 2"
_symmetry_group_IT_number 187
_symmetry_cell_setting 'hexagonal'
loop_
_space_group_symop_operation_xyz
x,y,z
-x+y,-x,-z
-y,x-y,z
x,y,-z
-x+y,-x,z
-y,x-y,-z
-y,-x,-z
-x+y,y,-z
x,x-y,-z
-x+y,y,z
x,x-y,z
-y,-x,z
loop_
_atom_site_type_symbol
_atom_site_label
_atom_site_fract_x
_atom_site_fract_y
_atom_site_fract_z
Si Si1 0.040433 0.814803 0.832133
Si Si2 0.247467 0.123734 0.169925
Si Si3 0.884908 0.512642 0.170670
Si Si4 0.792710 0.585420 0.828157
Si Si5 0.260216 0.886496 0.334450
Si Si6 0.051868 0.452715 0.835511
O O1 0.099847 0.900154 0.799866
O O2 0.059290 0.760641 0.746652
O O3 0.960666 0.797958 0.777336
O O4 0.039281 0.796719 0.000000
O O5 0.330874 0.165437 0.231234
O O6 0.252122 0.126061 0.000000
O O7 0.859733 0.429867 0.227436
O O8 0.832720 0.542101 0.232806
O O9 0.968392 0.568051 0.218634
O O10 0.881722 0.510597 0.000000
O O11 0.792861 0.585722 0.000000
O O12 0.273432 0.909703 0.500000
O O13 0.197638 0.802363 0.314436
O O14 0.333529 0.894137 0.265094
O O15 0.075112 0.537556 0.819519
O O16 0.060227 0.434391 0.000000
#
# Coordination Sequence:
#
# PCOD8327075 Si02
#       6
#    12   6  12   6  12  12
#     4   9  17  30  47  67  91 121 158 196 235 285
#     4   9  16  26  43  67  89 115 153 193 241 287
#     4   8  14  24  37  58  86 115 149 185 221 259
#     4   9  14  20  34  55  83 117 147 179 219 267
#     4  10  20  32  47  69  96 123 151 188 234 281
#     4   9  17  30  49  70  92 120 154 191 229 272
#
# _framework density 16.911085
#
# number of rings (size 3 to 8) (size 9 to 14) (size 15 to 20)
#    0.000    3.000    0.000    3.000    0.000    4.800 
#    1.200    0.500    0.000    0.400    0.000    0.000 
#    0.000    0.000    0.000    0.000    0.200    0.000 
#
# Total GULP energy -743829.414602 kJ/mol
# GULP energy per Si atom -12397.156910 kJ/mol
# Density = 1.687259 g / cm^3
# Si number density = 16.911085 Si / 1000 Ang^3
#
#
#
# Elastic Constant Matrix: (Units=GPa)
#
#
# Indices 1 2 3 4 5 6 
#
# 1 114.1562 67.7122 37.6725 0.0000 -0.0003 0.0000
# 2 67.7122 114.1562 37.6725 0.0000 0.0003 0.0000
# 3 37.6725 37.6725 48.3745 0.0000 0.0000 0.0000
# 4 0.0000 0.0000 0.0000 10.3279 0.0000 0.0003
# 5 -0.0003 0.0003 0.0000 0.0000 10.3279 0.0000
# 6 0.0000 0.0000 0.0000 0.0003 0.0000 23.2220
#
#
#
# Elastic Compliance Matrix: (Units=1/GPa)
#
#
# Indices 1 2 3 4 5 6 
#
# 1 0.014824 -0.006707 -0.006322 0.000000 0.000001 0.000000
# 2 -0.006707 0.014824 -0.006322 0.000000 -0.000001 0.000000
# 3 -0.006322 -0.006322 0.030518 0.000000 0.000000 0.000000
# 4 0.000000 0.000000 0.000000 0.096825 0.000000 -0.000001
# 5 0.000001 -0.000001 0.000000 0.000000 0.096825 0.000000
# 6 0.000000 0.000000 0.000000 -0.000001 0.000000 0.043063
#
#
# Mechanical properties :
#
#
# Convention : Reuss Voigt Hill
#
# Bulk Modulus (GPa) = 46.58388 62.53345 54.55867
# Shear Modulus (GPa) = 14.58848 17.68419 16.13634
#
# Velocity S-wave (km/s) = 2.94029 3.23726 3.09234
# Velocity P-wave (km/s) = 6.25566 7.14361 6.71433
#
# Compressibility (1/GPa) = 0.02146665
#
# Stress axis : x y z
#
# Youngs Moduli (GPa) = 67.45657 67.45657 32.76741
#
# Poissons Ratio (x) = 0.45243 0.20714
# Poissons Ratio (y) = 0.45243 0.20714
# Poissons Ratio (z) = 0.42643 0.42643
#
# Static dielectric constant tensor:
#      x y z
#    x 3.278850 0.000000 0.000000 
#    y 0.000000 3.278850 0.000000 
#    z 0.000000 0.000000 2.792850 
# 
# 
# High freq. dielectric constant tensor:
#      x y z
#    x 1.651780 0.000000 0.000000 
#    y 0.000000 1.651780 0.000000 
#    z 0.000000 0.000000 1.606620 
# 
# From -- ./inp_files/676.got.cif
#   From: 2010.03.12/outbox.cif.g09.slc.cpg/sg187_1_cif.got.tgz:676.got - 2010.04.01 11:58:23.
