data_PCOD8327666
_publ_section_title
;
Structure prediction by ZEFSAII (Michael W. Deem and Ramdas Pophale) SiO2 
 PCOD8327666
Probable space group: P -6 2 M
;
_chemical_formula_sum "Si O2"
_cell_formula_units_Z 76
_cell_length_a 18.776636
_cell_length_b 18.776636
_cell_length_c 13.297063
_cell_angle_alpha 90.000000
_cell_angle_beta 90.000000
_cell_angle_gamma 120.000000
_cell_volume 4059.961661
_symmetry_space_group_name_H-M "P -6 2 M"
_symmetry_group_IT_number 189
_symmetry_cell_setting 'hexagonal'
loop_
_space_group_symop_operation_xyz
x,y,z
-x+y,-x,-z
-y,x-y,z
x,y,-z
-x+y,-x,z
-y,x-y,-z
x-y,-y,-z
-x,-x+y,-z
y,x,-z
y,x,z
x-y,-y,z
-x,-x+y,z
loop_
_atom_site_type_symbol
_atom_site_label
_atom_site_fract_x
_atom_site_fract_y
_atom_site_fract_z
Si Si1 0.333334 0.666668 0.619244
Si Si2 0.906095 0.168889 0.111162
Si Si3 0.906380 0.811384 0.310294
Si Si4 0.751584 0.094276 0.616340
Si Si5 0.724720 0.550253 0.113460
Si Si6 0.541671 0.447866 0.111526
Si Si7 0.689826 0.201367 0.266846
O O1 0.333334 0.666668 0.500000
O O2 0.414516 0.748838 0.655760
O O3 0.892537 0.098861 0.190525
O O4 0.855371 0.212262 0.146291
O O5 0.000000 0.240546 0.108568
O O6 0.878437 0.128545 0.000000
O O7 0.847216 0.847216 0.342764
O O8 0.878278 0.725956 0.368241
O O9 0.000000 0.878847 0.336613
O O10 0.736281 0.102269 0.500000
O O11 0.727179 0.152530 0.675738
O O12 0.695638 0.000000 0.653740
O O13 0.630905 0.529290 0.122059
O O14 0.734227 0.489043 0.188375
O O15 0.744975 0.535750 0.000000
O O16 0.472739 0.472739 0.121688
O O17 0.526916 0.387915 0.202797
O O18 0.534665 0.408109 0.000000
#
# Coordination Sequence:
#
# PCOD8327666 Si02
#       7
#     4  12  12  12  12  12  12
#     4  12  27  42  61  86 115 156 204 252 295 344
#     4   9  17  31  52  77 107 145 185 223 269 331
#     4  10  20  35  56  83 115 150 191 238 292 350
#     4  10  22  40  62  84 108 144 191 243 297 350
#     4  10  19  33  55  83 115 148 186 225 279 346
#     4  10  21  36  57  88 122 153 189 236 287 346
#     4  12  21  40  59  86 113 155 192 238 293 347
#
# _framework density 18.719389
#
# number of rings (size 3 to 8) (size 9 to 14) (size 15 to 20)
#    0.000    1.737    3.158    2.053    0.000    2.526 
#    0.000    0.000    0.000    1.895    0.000    0.000 
#    0.000    0.000    0.000    0.000    0.000    0.000 
#
# Total GULP energy -942192.934486 kJ/mol
# GULP energy per Si atom -12397.275454 kJ/mol
# Density = 1.867678 g / cm^3
# Si number density = 18.719389 Si / 1000 Ang^3
#
#
#
# Elastic Constant Matrix: (Units=GPa)
#
#
# Indices 1 2 3 4 5 6 
#
# 1 95.9502 43.6073 41.3287 0.0000 0.0001 0.0000
# 2 43.6073 95.9508 41.3287 0.0000 0.0001 0.0001
# 3 41.3287 41.3287 91.4563 0.0000 0.0000 0.0000
# 4 0.0000 0.0000 0.0000 25.9511 0.0000 0.0000
# 5 0.0001 0.0001 0.0000 0.0000 25.9510 0.0000
# 6 0.0000 0.0001 0.0000 0.0000 0.0000 26.1717
#
#
#
# Elastic Compliance Matrix: (Units=1/GPa)
#
#
# Indices 1 2 3 4 5 6 
#
# 1 0.014444 -0.004660 -0.004421 0.000000 0.000000 0.000000
# 2 -0.004660 0.014444 -0.004421 0.000000 0.000000 0.000000
# 3 -0.004421 -0.004421 0.014930 0.000000 0.000000 0.000000
# 4 0.000000 0.000000 0.000000 0.038534 0.000000 0.000000
# 5 0.000000 0.000000 0.000000 0.000000 0.038534 0.000000
# 6 0.000000 0.000000 0.000000 0.000000 0.000000 0.038209
#
#
# Mechanical properties :
#
#
# Convention : Reuss Voigt Hill
#
# Bulk Modulus (GPa) = 59.47810 59.54296 59.51053
# Shear Modulus (GPa) = 26.08146 26.08760 26.08453
#
# Velocity S-wave (km/s) = 3.73672 3.73716 3.73694
# Velocity P-wave (km/s) = 7.10352 7.10627 7.10489
#
# Compressibility (1/GPa) = 0.01681291
#
# Stress axis : x y z
#
# Youngs Moduli (GPa) = 69.23051 69.23097 66.97812
#
# Poissons Ratio (x) = 0.32263 0.29614
# Poissons Ratio (y) = 0.32263 0.29614
# Poissons Ratio (z) = 0.30610 0.30610
#
# Static dielectric constant tensor:
#      x y z
#    x 3.348500 0.000000 0.000000 
#    y 0.000000 3.348500 0.000000 
#    z 0.000000 0.000000 3.468950 
# 
# 
# High freq. dielectric constant tensor:
#      x y z
#    x 1.723310 0.000000 0.000000 
#    y 0.000000 1.723310 0.000000 
#    z 0.000000 0.000000 1.728420 
# 
# From -- ./inp_files/2715.got.cif
#   From: 2010.03.12/outbox.cif.g09.slc.cpg/sg189_2_cif.got.tgz:2715.got - 2010.04.01 12:03:36.
