data_PCOD8327691
_publ_section_title
;
Structure prediction by ZEFSAII (Michael W. Deem and Ramdas Pophale) SiO2 
 PCOD8327691
Probable space group: P -6 2 M
;
_chemical_formula_sum "Si O2"
_cell_formula_units_Z 60
_cell_length_a 14.588238
_cell_length_b 14.588238
_cell_length_c 15.619813
_cell_angle_alpha 90.000000
_cell_angle_beta 90.000000
_cell_angle_gamma 120.000000
_cell_volume 2878.804295
_symmetry_space_group_name_H-M "P -6 2 M"
_symmetry_group_IT_number 189
_symmetry_cell_setting 'hexagonal'
loop_
_space_group_symop_operation_xyz
x,y,z
-x+y,-x,-z
-y,x-y,z
x,y,-z
-x+y,-x,z
-y,x-y,-z
x-y,-y,-z
-x,-x+y,-z
y,x,-z
y,x,z
x-y,-y,z
-x,-x+y,z
loop_
_atom_site_type_symbol
_atom_site_label
_atom_site_fract_x
_atom_site_fract_y
_atom_site_fract_z
Si Si1 0.660952 0.877029 0.592609
Si Si2 0.450006 0.782495 0.331464
Si Si3 0.769355 0.575348 0.904908
Si Si4 0.587190 0.123655 0.847357
Si Si5 0.245858 0.120515 0.764984
O O1 0.668906 0.829350 0.500000
O O2 0.541218 0.856901 0.602444
O O3 0.691246 0.830052 0.674575
O O4 0.741780 0.000000 0.590174
O O5 0.335089 0.772130 0.344510
O O6 0.487901 0.829076 0.237400
O O7 0.849233 0.528916 0.915894
O O8 0.658858 0.480672 0.869999
O O9 0.814616 0.676361 0.843333
O O10 0.753790 0.609979 0.000000
O O11 0.508170 0.000000 0.838194
O O12 0.198550 0.198550 0.774872
O O13 0.150867 0.000000 0.766644
#
# Coordination Sequence:
#
# PCOD8327691 Si02
#       5
#    12  12  12  12  12
#     4  10  21  39  64  94 127 163 206 261 325 390
#     4  10  19  36  61  89 123 162 206 250 304 368
#     4  12  25  41  62  96 134 167 212 267 321 386
#     4  12  22  39  64  90 125 170 213 258 315 378
#     4  11  24  44  67  91 123 168 221 276 330 385
#
# _framework density 20.841985000000001
#
# number of rings (size 3 to 8) (size 9 to 14) (size 15 to 20)
#    0.400    0.600    4.000    3.000    0.000    5.200 
#    0.000    1.000    0.000    2.400    0.000    0.000 
#    0.000    0.000    0.000    0.000    0.000    0.000 
#
# Total GULP energy -743473.745551 kJ/mol
# GULP energy per Si atom -12391.229093 kJ/mol
# Density = 2.079455 g / cm^3
# Si number density = 20.841985 Si / 1000 Ang^3
#
#
#
# Elastic Constant Matrix: (Units=GPa)
#
#
# Indices 1 2 3 4 5 6 
#
# 1 79.8850 9.2420 35.8990 0.0000 0.0000 0.0000
# 2 9.2420 79.8850 35.8990 0.0000 0.0000 0.0000
# 3 35.8990 35.8990 137.1302 0.0000 0.0000 0.0000
# 4 0.0000 0.0000 0.0000 13.3470 0.0000 0.0000
# 5 0.0000 0.0000 0.0000 0.0000 13.3470 0.0000
# 6 0.0000 0.0000 0.0000 0.0000 0.0000 35.3215
#
#
#
# Elastic Compliance Matrix: (Units=1/GPa)
#
#
# Indices 1 2 3 4 5 6 
#
# 1 0.014187 0.000031 -0.003722 0.000000 0.000000 0.000000
# 2 0.000031 0.014187 -0.003722 0.000000 0.000000 0.000000
# 3 -0.003722 -0.003722 0.009241 0.000000 0.000000 0.000000
# 4 0.000000 0.000000 0.000000 0.074923 0.000000 0.000000
# 5 0.000000 0.000000 0.000000 0.000000 0.074923 0.000000
# 6 0.000000 0.000000 0.000000 0.000000 0.000000 0.028311
#
#
# Mechanical properties :
#
#
# Convention : Reuss Voigt Hill
#
# Bulk Modulus (GPa) = 43.88035 50.99780 47.43907
# Shear Modulus (GPa) = 20.99119 26.79379 23.89249
#
# Velocity S-wave (km/s) = 3.17702 3.58937 3.38947
# Velocity P-wave (km/s) = 5.87856 6.45756 6.17485
#
# Compressibility (1/GPa) = 0.02278924
#
# Stress axis : x y z
#
# Youngs Moduli (GPa) = 70.48669 70.48669 108.21108
#
# Poissons Ratio (x) = -0.00221 0.40278
# Poissons Ratio (y) = -0.00221 0.40278
# Poissons Ratio (z) = 0.26237 0.26237
#
# Static dielectric constant tensor:
#      x y z
#    x 3.604430 0.000000 0.000000 
#    y 0.000000 3.604430 0.000000 
#    z 0.000000 0.000000 4.090200 
# 
# 
# High freq. dielectric constant tensor:
#      x y z
#    x 1.806490 0.000000 0.000000 
#    y 0.000000 1.806490 0.000000 
#    z 0.000000 0.000000 1.820740 
# 
# From -- ./inp_files/2537.got.cif
#   From: 2010.03.12/outbox.cif.g09.slc.cpg/sg189_2_cif.got.tgz:2537.got - 2010.04.01 12:03:36.
