data_PCOD8327478
_publ_section_title
;
Structure prediction by ZEFSAII (Michael W. Deem and Ramdas Pophale) SiO2 
 PCOD8327478
Probable space group: P -6 2 M
;
_chemical_formula_sum "Si O2"
_cell_formula_units_Z 60
_cell_length_a 20.369249
_cell_length_b 20.369249
_cell_length_c 8.349162
_cell_angle_alpha 90.000000
_cell_angle_beta 90.000000
_cell_angle_gamma 120.000000
_cell_volume 3000.015882
_symmetry_space_group_name_H-M "P -6 2 M"
_symmetry_group_IT_number 189
_symmetry_cell_setting 'hexagonal'
loop_
_space_group_symop_operation_xyz
x,y,z
-x+y,-x,-z
-y,x-y,z
x,y,-z
-x+y,-x,z
-y,x-y,-z
x-y,-y,-z
-x,-x+y,-z
y,x,-z
y,x,z
x-y,-y,z
-x,-x+y,z
loop_
_atom_site_type_symbol
_atom_site_label
_atom_site_fract_x
_atom_site_fract_y
_atom_site_fract_z
Si Si1 0.171666 0.086162 0.691681
Si Si2 0.189063 0.853029 0.314337
Si Si3 0.346076 0.000000 0.682909
Si Si4 0.484825 0.000000 0.816343
Si Si5 0.255424 0.754622 0.312144
Si Si6 0.411257 0.577159 0.811512
O O1 0.172748 0.085030 0.500000
O O2 0.124265 0.124265 0.756281
O O3 0.257815 0.135737 0.761571
O O4 0.132462 0.000000 0.755998
O O5 0.171053 0.839368 0.500000
O O6 0.266679 0.928188 0.278587
O O7 0.197642 0.782736 0.248132
O O8 0.371625 0.000000 0.500000
O O9 0.406854 0.000000 0.801370
O O10 0.552211 0.079209 0.743436
O O11 0.503990 0.000000 0.000000
O O12 0.272041 0.772028 0.500000
O O13 0.218251 0.665961 0.281447
O O14 0.334438 0.801952 0.220262
O O15 0.395321 0.564698 0.000000
#
# Coordination Sequence:
#
# PCOD8327478 Si02
#       6
#    12  12   6   6  12  12
#     4   9  15  24  40  66 103 145 181 211 251 306
#     4   9  17  29  48  74 104 138 176 218 265 311
#     4  10  16  30  56  80 106 137 172 222 274 317
#     4  10  22  38  58  82 108 139 180 224 272 329
#     4  11  22  37  57  82 108 140 182 226 272 326
#     4  11  23  40  59  81 110 145 181 224 276 330
#
# _framework density 19.999894000000001
#
# number of rings (size 3 to 8) (size 9 to 14) (size 15 to 20)
#    0.000    2.000    3.000    1.800    0.000    1.600 
#    1.800    0.000    0.000    0.000    0.000    0.000 
#    0.000    0.000    0.000    0.000    0.000    0.000 
#
# Total GULP energy -743562.326709 kJ/mol
# GULP energy per Si atom -12392.705445 kJ/mol
# Density = 1.995437 g / cm^3
# Si number density = 19.999894 Si / 1000 Ang^3
#
#
#
# Elastic Constant Matrix: (Units=GPa)
#
#
# Indices 1 2 3 4 5 6 
#
# 1 131.1844 40.7685 7.6016 0.0000 0.0000 0.0000
# 2 40.7685 131.1844 7.6016 0.0000 0.0000 0.0000
# 3 7.6016 7.6016 20.7515 0.0000 0.0000 0.0000
# 4 0.0000 0.0000 0.0000 10.1316 0.0000 0.0000
# 5 0.0000 0.0000 0.0000 0.0000 10.1316 0.0000
# 6 0.0000 0.0000 0.0000 0.0000 0.0000 45.2080
#
#
#
# Elastic Compliance Matrix: (Units=1/GPa)
#
#
# Indices 1 2 3 4 5 6 
#
# 1 0.008535 -0.002525 -0.002202 0.000000 0.000000 0.000000
# 2 -0.002525 0.008535 -0.002202 0.000000 0.000000 0.000000
# 3 -0.002202 -0.002202 0.049802 0.000000 0.000000 0.000000
# 4 0.000000 0.000000 0.000000 0.098701 0.000000 0.000000
# 5 0.000000 0.000000 0.000000 0.000000 0.098701 0.000000
# 6 0.000000 0.000000 0.000000 0.000000 0.000000 0.022120
#
#
# Mechanical properties :
#
#
# Convention : Reuss Voigt Hill
#
# Bulk Modulus (GPa) = 18.86221 43.89600 31.37911
# Shear Modulus (GPa) = 15.72712 28.23749 21.98230
#
# Velocity S-wave (km/s) = 2.80725 3.76158 3.31890
# Velocity P-wave (km/s) = 4.46757 6.39232 5.51457
#
# Compressibility (1/GPa) = 0.05301605
#
# Stress axis : x y z
#
# Youngs Moduli (GPa) = 117.16323 117.16323 20.07944
#
# Poissons Ratio (x) = 0.29583 0.04421
# Poissons Ratio (y) = 0.29583 0.04421
# Poissons Ratio (z) = 0.25795 0.25795
#
# Static dielectric constant tensor:
#      x y z
#    x 3.914080 0.000000 0.000000 
#    y 0.000000 3.914080 0.000000 
#    z 0.000000 0.000000 3.171410 
# 
# 
# High freq. dielectric constant tensor:
#      x y z
#    x 1.786740 0.000000 0.000000 
#    y 0.000000 1.786740 0.000000 
#    z 0.000000 0.000000 1.733040 
# 
# From -- ./inp_files/935.got.cif
#   From: 2010.03.12/outbox.cif.g09.slc.cpg/sg189_1_cif.got.tgz:935.got - 2010.04.01 12:03:36.
