data_PCOD8327298
_publ_section_title
;
Structure prediction by ZEFSAII (Michael W. Deem and Ramdas Pophale) SiO2 
 PCOD8327298
Probable space group: P -6 M 2
;
_chemical_formula_sum "Si O2"
_cell_formula_units_Z 72
_cell_length_a 17.196108
_cell_length_b 17.196108
_cell_length_c 17.898984
_cell_angle_alpha 90.000000
_cell_angle_beta 90.000000
_cell_angle_gamma 120.000000
_cell_volume 4583.733288
_symmetry_space_group_name_H-M "P -6 M 2"
_symmetry_group_IT_number 187
_symmetry_cell_setting 'hexagonal'
loop_
_space_group_symop_operation_xyz
x,y,z
-x+y,-x,-z
-y,x-y,z
x,y,-z
-x+y,-x,z
-y,x-y,-z
-y,-x,-z
-x+y,y,-z
x,x-y,-z
-x+y,y,z
x,x-y,z
-y,-x,z
loop_
_atom_site_type_symbol
_atom_site_label
_atom_site_fract_x
_atom_site_fract_y
_atom_site_fract_z
Si Si1 0.664880 0.510005 0.820748
Si Si2 0.177310 0.177182 0.718933
Si Si3 0.581648 0.598040 0.914195
Si Si4 0.272039 0.366041 0.215155
Si Si5 0.304962 0.241122 0.584285
Si Si6 0.974442 0.576105 0.683303
O O1 0.765521 0.531041 0.828903
O O2 0.596540 0.403461 0.825371
O O3 0.645859 0.560109 0.887965
O O4 0.653362 0.547560 0.742113
O O5 0.072573 0.145146 0.714478
O O6 0.228894 0.258221 0.777604
O O7 0.218407 0.210308 0.636506
O O8 0.188824 0.094412 0.746519
O O9 0.478199 0.521802 0.901269
O O10 0.602720 0.685981 0.867040
O O11 0.601848 0.626882 0.000000
O O12 0.197230 0.394459 0.227930
O O13 0.348639 0.415389 0.278080
O O14 0.277480 0.249834 0.500000
O O15 0.339077 0.169539 0.588843
O O16 0.386355 0.337211 0.609983
O O17 0.986519 0.493260 0.658818
#
# Coordination Sequence:
#
# PCOD8327298 Si02
#       6
#    12  12  12  12  12  12
#     4   9  16  26  41  61  85 114 147 179 208 240
#     4   9  17  29  45  65  89 116 145 176 211 251
#     4   9  18  31  45  63  88 115 141 172 212 256
#     4   9  17  29  46  66  85 108 140 178 218 258
#     4   9  17  28  42  63  91 118 144 177 212 246
#     4   9  17  29  45  63  84 113 147 180 215 257
#
# _framework density 15.70772
#
# number of rings (size 3 to 8) (size 9 to 14) (size 15 to 20)
#    0.000    3.000    0.000    2.333    0.000    5.333 
#    0.000    0.000    0.000    5.000    0.000    0.000 
#    0.000    1.333    0.000    1.000    0.000    0.000 
#
# Total GULP energy -892678.963361 kJ/mol
# GULP energy per Si atom -12398.318936 kJ/mol
# Density = 1.567197 g / cm^3
# Si number density = 15.707720 Si / 1000 Ang^3
#
#
#
# Elastic Constant Matrix: (Units=GPa)
#
#
# Indices 1 2 3 4 5 6 
#
# 1 74.3486 31.4439 23.5593 0.0000 -0.0001 0.0000
# 2 31.4439 74.3486 23.5593 0.0000 0.0001 0.0000
# 3 23.5593 23.5593 78.8560 0.0000 0.0000 0.0000
# 4 0.0000 0.0000 0.0000 17.1175 0.0000 0.0001
# 5 -0.0001 0.0001 0.0000 0.0000 17.1175 0.0000
# 6 0.0000 0.0000 0.0000 0.0001 0.0000 21.4524
#
#
#
# Elastic Compliance Matrix: (Units=1/GPa)
#
#
# Indices 1 2 3 4 5 6 
#
# 1 0.017105 -0.006202 -0.003258 0.000000 0.000000 0.000000
# 2 -0.006202 0.017105 -0.003258 0.000000 0.000000 0.000000
# 3 -0.003258 -0.003258 0.014628 0.000000 0.000000 0.000000
# 4 0.000000 0.000000 0.000000 0.058420 0.000000 0.000000
# 5 0.000000 0.000000 0.000000 0.000000 0.058420 0.000000
# 6 0.000000 0.000000 0.000000 0.000000 0.000000 0.046615
#
#
# Mechanical properties :
#
#
# Convention : Reuss Voigt Hill
#
# Bulk Modulus (GPa) = 42.72702 42.74200 42.73451
# Shear Modulus (GPa) = 20.36422 21.07019 20.71721
#
# Velocity S-wave (km/s) = 3.60453 3.66647 3.63563
# Velocity P-wave (km/s) = 6.67711 6.72264 6.69992
#
# Compressibility (1/GPa) = 0.02340439
#
# Stress axis : x y z
#
# Youngs Moduli (GPa) = 58.46113 58.46113 68.36302
#
# Poissons Ratio (x) = 0.36258 0.22269
# Poissons Ratio (y) = 0.36258 0.22269
# Poissons Ratio (z) = 0.19044 0.19044
#
# Static dielectric constant tensor:
#      x y z
#    x 2.958410 0.000000 0.000000 
#    y 0.000000 2.958410 0.000000 
#    z 0.000000 0.000000 2.923890 
# 
# 
# High freq. dielectric constant tensor:
#      x y z
#    x 1.596650 0.000000 0.000000 
#    y 0.000000 1.596650 0.000000 
#    z 0.000000 0.000000 1.589080 
# 
# From -- ./inp_files/3058.got.cif
#   From: 2010.03.12/outbox.cif.g09.slc.cpg/sg187_2_cif.got.tgz:3058.got - 2010.04.01 11:58:23.
