data_PCOD8327393
_publ_section_title
;
Structure prediction by ZEFSAII (Michael W. Deem and Ramdas Pophale) SiO2 
 PCOD8327393
Probable space group: P -6 C 2
;
_chemical_formula_sum "Si O2"
_cell_formula_units_Z 48
_cell_length_a 18.643939
_cell_length_b 18.643939
_cell_length_c 8.567442
_cell_angle_alpha 90.000000
_cell_angle_beta 90.000000
_cell_angle_gamma 120.000000
_cell_volume 2579.034497
_symmetry_space_group_name_H-M "P -6 C 2"
_symmetry_group_IT_number 188
_symmetry_cell_setting 'hexagonal'
loop_
_space_group_symop_operation_xyz
x,y,z
-x+y,-x,1/2-z
-y,x-y,z
x,y,1/2-z
-x+y,-x,z
-y,x-y,1/2-z
-y,-x,-z
-x+y,y,-z
x,x-y,-z
-x+y,y,1/2+z
x,x-y,1/2+z
-y,-x,1/2+z
loop_
_atom_site_type_symbol
_atom_site_label
_atom_site_fract_x
_atom_site_fract_y
_atom_site_fract_z
Si Si1 0.091270 0.335451 0.065659
Si Si2 0.326686 0.240308 0.434565
Si Si3 0.486665 0.665897 0.934741
Si Si4 0.818381 0.484120 0.067088
O O1 0.102259 0.346785 0.250000
O O2 0.152963 0.305926 0.000000
O O3 0.111376 0.422070 0.989004
O O4 0.999277 0.266818 0.019993
O O5 0.313137 0.236510 0.250000
O O6 0.300313 0.150157 0.500000
O O7 0.421649 0.304684 0.480951
O O8 0.482869 0.666008 0.750000
O O9 0.424685 0.575316 0.000000
O O10 0.460949 0.730475 0.000000
O O11 0.809779 0.473630 0.250000
O O12 0.727874 0.455748 0.000000
O O13 0.852000 0.426000 0.000000
#
# Coordination Sequence:
#
# PCOD8327393 Si02
#       4
#    12  12  12  12
#     4  11  22  38  59  83 110 142 178 221 270 324
#     4  10  21  38  58  82 109 141 179 222 270 324
#     4  11  21  35  53  77 109 147 189 231 272 318
#     4  10  20  33  51  74 106 144 185 226 266 310
#
# _framework density 18.611616999999999
#
# number of rings (size 3 to 8) (size 9 to 14) (size 15 to 20)
#    0.000    1.500    0.000    8.000    0.000    4.000 
#    0.000    2.500    0.000    0.500    0.000    3.500 
#    0.000    0.000    0.000    0.000    0.000    0.000 
#
# Total GULP energy -595472.675682 kJ/mol
# GULP energy per Si atom -12405.680743 kJ/mol
# Density = 1.856926 g / cm^3
# Si number density = 18.611617 Si / 1000 Ang^3
#
#
#
# Elastic Constant Matrix: (Units=GPa)
#
#
# Indices 1 2 3 4 5 6 
#
# 1 109.7628 72.7535 48.8403 0.0003 0.0000 0.0000
# 2 72.7535 109.7628 48.8403 -0.0003 0.0000 0.0000
# 3 48.8403 48.8403 144.4572 0.0000 0.0000 0.0000
# 4 0.0003 -0.0003 0.0000 32.1144 0.0000 0.0000
# 5 0.0000 0.0000 0.0000 0.0000 32.1144 0.0003
# 6 0.0000 0.0000 0.0000 0.0000 0.0003 18.5047
#
#
#
# Elastic Compliance Matrix: (Units=1/GPa)
#
#
# Indices 1 2 3 4 5 6 
#
# 1 0.016855 -0.010165 -0.002262 0.000000 0.000000 0.000000
# 2 -0.010165 0.016855 -0.002262 0.000000 0.000000 0.000000
# 3 -0.002262 -0.002262 0.008452 0.000000 0.000000 0.000000
# 4 0.000000 0.000000 0.000000 0.031139 0.000000 0.000000
# 5 0.000000 0.000000 0.000000 0.000000 0.031139 0.000000
# 6 0.000000 0.000000 0.000000 0.000000 0.000000 0.054040
#
#
# Mechanical properties :
#
#
# Convention : Reuss Voigt Hill
#
# Bulk Modulus (GPa) = 78.22323 78.31680 78.27002
# Shear Modulus (GPa) = 26.02568 29.44994 27.73781
#
# Velocity S-wave (km/s) = 3.74352 3.98218 3.86469
# Velocity P-wave (km/s) = 7.79780 7.95704 7.87783
#
# Compressibility (1/GPa) = 0.01278393
#
# Stress axis : x y z
#
# Youngs Moduli (GPa) = 59.33028 59.33028 118.31841
#
# Poissons Ratio (x) = 0.60312 0.26759
# Poissons Ratio (y) = 0.60312 0.26759
# Poissons Ratio (z) = 0.13418 0.13418
#
# Static dielectric constant tensor:
#      x y z
#    x 3.239300 0.000000 0.000000 
#    y 0.000000 3.239300 0.000000 
#    z 0.000000 0.000000 3.568200 
# 
# 
# High freq. dielectric constant tensor:
#      x y z
#    x 1.712780 0.000000 0.000000 
#    y 0.000000 1.712780 0.000000 
#    z 0.000000 0.000000 1.746200 
# 
# From -- ./inp_files/354.got.cif
#   From: 2010.03.12/outbox.cif.g09.slc.cpg/sg188_1_cif.got.tgz:354.got - 2010.04.01 12:01:06.
