data_PCOD8327881
_publ_section_title
;
Structure prediction by ZEFSAII (Michael W. Deem and Ramdas Pophale) SiO2 
 PCOD8327881
Probable space group: P -6 2 M
;
_chemical_formula_sum "Si O2"
_cell_formula_units_Z 33
_cell_length_a 15.217256
_cell_length_b 15.217256
_cell_length_c 8.052358
_cell_angle_alpha 90.000000
_cell_angle_beta 90.000000
_cell_angle_gamma 120.000000
_cell_volume 1614.828480
_symmetry_space_group_name_H-M "P -6 2 M"
_symmetry_group_IT_number 189
_symmetry_cell_setting 'hexagonal'
loop_
_space_group_symop_operation_xyz
x,y,z
-x+y,-x,-z
-y,x-y,z
x,y,-z
-x+y,-x,z
-y,x-y,-z
x-y,-y,-z
-x,-x+y,-z
y,x,-z
y,x,z
x-y,-y,z
-x,-x+y,z
loop_
_atom_site_type_symbol
_atom_site_label
_atom_site_fract_x
_atom_site_fract_y
_atom_site_fract_z
Si Si1 0.818011 0.276983 0.812389
Si Si2 0.111331 0.000000 0.500000
Si Si3 0.115307 0.606059 0.689375
Si Si4 0.760328 0.760328 0.806638
O O1 0.707760 0.178929 0.793922
O O2 0.832623 0.369200 0.697702
O O3 0.900657 0.246047 0.766086
O O4 0.833054 0.316960 0.000000
O O5 0.100780 0.100780 0.500000
O O6 0.162496 0.000000 0.673536
O O7 0.115845 0.637555 0.500000
O O8 0.000000 0.544616 0.758829
O O9 0.793404 0.793404 0.000000
#
# Coordination Sequence:
#
# PCOD8327881 Si02
#       4
#    12   3  12   6
#     4  11  23  41  65  94 133 176 217 271 329 396
#     4  10  26  46  70 100 126 174 216 282 342 410
#     4  11  24  40  63  96 130 172 218 270 325 395
#     4  10  24  44  72  99 133 178 223 277 338 396
#
# _framework density 20.435607000000001
#
# number of rings (size 3 to 8) (size 9 to 14) (size 15 to 20)
#    0.182    1.091    1.818    2.909    5.091    4.364 
#    0.000    3.636    0.000    0.000    0.000    0.000 
#    0.000    0.000    0.000    0.000    0.000    0.000 
#
# Total GULP energy -409294.390504 kJ/mol
# GULP energy per Si atom -12402.860318 kJ/mol
# Density = 2.038909 g / cm^3
# Si number density = 20.435607 Si / 1000 Ang^3
#
#
#
# Elastic Constant Matrix: (Units=GPa)
#
#
# Indices 1 2 3 4 5 6 
#
# 1 141.9222 64.3110 38.2924 0.0000 0.0000 0.0000
# 2 64.3110 141.9222 38.2924 0.0000 0.0000 0.0000
# 3 38.2924 38.2924 81.9152 0.0000 0.0000 0.0000
# 4 0.0000 0.0000 0.0000 34.4611 0.0000 0.0000
# 5 0.0000 0.0000 0.0000 0.0000 34.4611 0.0000
# 6 0.0000 0.0000 0.0000 0.0000 0.0000 38.8056
#
#
#
# Elastic Compliance Matrix: (Units=1/GPa)
#
#
# Indices 1 2 3 4 5 6 
#
# 1 0.009376 -0.003509 -0.002743 0.000000 0.000000 0.000000
# 2 -0.003509 0.009376 -0.002743 0.000000 0.000000 0.000000
# 3 -0.002743 -0.002743 0.014772 0.000000 0.000000 0.000000
# 4 0.000000 0.000000 0.000000 0.029018 0.000000 0.000000
# 5 0.000000 0.000000 0.000000 0.000000 0.029018 0.000000
# 6 0.000000 0.000000 0.000000 0.000000 0.000000 0.025769
#
#
# Mechanical properties :
#
#
# Convention : Reuss Voigt Hill
#
# Bulk Modulus (GPa) = 64.36794 71.95013 68.15903
# Shear Modulus (GPa) = 35.58786 36.53646 36.06216
#
# Velocity S-wave (km/s) = 4.17761 4.23292 4.20536
# Velocity P-wave (km/s) = 7.40515 7.69252 7.55020
#
# Compressibility (1/GPa) = 0.01553568
#
# Stress axis : x y z
#
# Youngs Moduli (GPa) = 106.65439 106.65439 67.69532
#
# Poissons Ratio (x) = 0.37421 0.18568
# Poissons Ratio (y) = 0.37421 0.18568
# Poissons Ratio (z) = 0.29253 0.29253
#
# Static dielectric constant tensor:
#      x y z
#    x 3.698150 0.000000 0.000000 
#    y 0.000000 3.698150 0.000000 
#    z 0.000000 0.000000 3.613410 
# 
# 
# High freq. dielectric constant tensor:
#      x y z
#    x 1.801450 0.000000 0.000000 
#    y 0.000000 1.801450 0.000000 
#    z 0.000000 0.000000 1.807580 
# 
# From -- ./inp_files/381.got.cif
#   From: 2010.03.12/outbox.cif.g09.slc.cpg/sg189_1_cif.got.tgz:381.got - 2010.04.01 12:03:36.
