data_PCOD8327987
_publ_section_title
;
Structure prediction by ZEFSAII (Michael W. Deem and Ramdas Pophale) SiO2 
 PCOD8327987
Probable space group: P -6 2 C
;
_chemical_formula_sum "Si O2"
_cell_formula_units_Z 66
_cell_length_a 17.412786
_cell_length_b 17.412786
_cell_length_c 14.149246
_cell_angle_alpha 90.000000
_cell_angle_beta 90.000000
_cell_angle_gamma 120.000000
_cell_volume 3715.356178
_symmetry_space_group_name_H-M "P -6 2 C"
_symmetry_group_IT_number 190
_symmetry_cell_setting 'hexagonal'
loop_
_space_group_symop_operation_xyz
x,y,z
-x+y,-x,1/2-z
-y,x-y,z
x,y,1/2-z
-x+y,-x,z
-y,x-y,1/2-z
x-y,-y,-z
-x,-x+y,-z
y,x,-z
y,x,1/2+z
x-y,-y,1/2+z
-x,-x+y,1/2+z
loop_
_atom_site_type_symbol
_atom_site_label
_atom_site_fract_x
_atom_site_fract_y
_atom_site_fract_z
Si Si1 0.332138 0.129876 0.000626
Si Si2 0.000000 0.396984 0.500000
Si Si3 0.207970 0.740847 0.858611
Si Si4 0.131464 0.201158 0.356987
Si Si5 0.808486 0.875010 0.643596
Si Si6 0.588697 0.462208 0.357340
O O1 0.388637 0.216683 0.065058
O O2 0.259471 0.058663 0.073377
O O3 0.385194 0.082020 0.961449
O O4 0.289242 0.158483 0.917089
O O5 0.959745 0.430219 0.417875
O O6 0.183163 0.750736 0.750000
O O7 0.162460 0.638569 0.888091
O O8 0.313640 0.789773 0.869567
O O9 0.160756 0.233840 0.250000
O O10 0.177850 0.146635 0.393704
O O11 0.027264 0.129223 0.361629
O O12 0.770535 0.856025 0.750000
O O13 0.571372 0.478638 0.250000
#
# Coordination Sequence:
#
# PCOD8327987 Si02
#       6
#    12   6  12  12  12  12
#     4  11  19  32  49  73 104 139 172 211 263 314
#     4  10  20  32  50  80 108 134 168 210 264 320
#     4   9  18  33  56  80 101 129 164 212 266 317
#     4  10  20  32  48  70 100 142 186 223 255 292
#     4  10  19  32  48  69  99 138 185 225 253 291
#     4   9  18  34  56  81 106 131 168 213 262 317
#
# _framework density 17.764111
#
# number of rings (size 3 to 8) (size 9 to 14) (size 15 to 20)
#    0.000    2.182    1.818    1.818    0.000    4.364 
#    3.273    1.818    0.000    0.000    0.000    0.000 
#    0.000    2.909    0.000    0.000    0.000    0.000 
#
# Total GULP energy -818058.510725 kJ/mol
# GULP energy per Si atom -12394.825920 kJ/mol
# Density = 1.772368 g / cm^3
# Si number density = 17.764111 Si / 1000 Ang^3
#
#
#
# Elastic Constant Matrix: (Units=GPa)
#
#
# Indices 1 2 3 4 5 6 
#
# 1 88.5835 31.4429 50.2375 0.0000 0.0000 0.0000
# 2 31.4429 88.5835 50.2375 0.0000 0.0000 0.0000
# 3 50.2375 50.2375 89.8064 0.0000 0.0000 0.0000
# 4 0.0000 0.0000 0.0000 30.8861 0.0000 0.0000
# 5 0.0000 0.0000 0.0000 0.0000 30.8861 0.0000
# 6 0.0000 0.0000 0.0000 0.0000 0.0000 28.5703
#
#
#
# Elastic Compliance Matrix: (Units=1/GPa)
#
#
# Indices 1 2 3 4 5 6 
#
# 1 0.016585 -0.000916 -0.008765 0.000000 0.000000 0.000000
# 2 -0.000916 0.016585 -0.008765 0.000000 0.000000 0.000000
# 3 -0.008765 -0.008765 0.020941 0.000000 0.000000 0.000000
# 4 0.000000 0.000000 0.000000 0.032377 0.000000 0.000000
# 5 0.000000 0.000000 0.000000 0.000000 0.032377 0.000000
# 6 0.000000 0.000000 0.000000 0.000000 0.000000 0.035001
#
#
# Mechanical properties :
#
#
# Convention : Reuss Voigt Hill
#
# Bulk Modulus (GPa) = 58.07655 58.97882 58.52769
# Shear Modulus (GPa) = 25.44551 27.07220 26.25886
#
# Velocity S-wave (km/s) = 3.78883 3.90806 3.84890
# Velocity P-wave (km/s) = 7.20447 7.32373 7.26435
#
# Compressibility (1/GPa) = 0.01721865
#
# Stress axis : x y z
#
# Youngs Moduli (GPa) = 60.29627 60.29627 47.75215
#
# Poissons Ratio (x) = 0.05523 0.41855
# Poissons Ratio (y) = 0.05523 0.41855
# Poissons Ratio (z) = 0.52850 0.52850
#
# Static dielectric constant tensor:
#      x y z
#    x 3.199730 0.000000 0.000000 
#    y 0.000000 3.199730 0.000000 
#    z 0.000000 0.000000 3.359310 
# 
# 
# High freq. dielectric constant tensor:
#      x y z
#    x 1.674810 0.000000 0.000000 
#    y 0.000000 1.674810 0.000000 
#    z 0.000000 0.000000 1.685770 
# 
# From -- ./inp_files/2983.got.cif
#   From: 2010.06.25/outbox.cif.g09.slc.cpg/sg190_2_cif.got.tgz:2983.got - 2010.06.28 13:08:06.
