data_PCOD8327013
_publ_section_title
;
Structure prediction by ZEFSAII (Michael W. Deem and Ramdas Pophale) SiO2 
 PCOD8327013
Probable space group: P -6 M 2
;
_chemical_formula_sum "Si O2"
_cell_formula_units_Z 66
_cell_length_a 12.869733
_cell_length_b 12.869733
_cell_length_c 28.454443
_cell_angle_alpha 90.000000
_cell_angle_beta 90.000000
_cell_angle_gamma 120.000000
_cell_volume 4081.499938
_symmetry_space_group_name_H-M "P -6 M 2"
_symmetry_group_IT_number 187
_symmetry_cell_setting 'hexagonal'
loop_
_space_group_symop_operation_xyz
x,y,z
-x+y,-x,-z
-y,x-y,z
x,y,-z
-x+y,-x,z
-y,x-y,-z
-y,-x,-z
-x+y,y,-z
x,x-y,-z
-x+y,y,z
x,x-y,z
-y,-x,z
loop_
_atom_site_type_symbol
_atom_site_label
_atom_site_fract_x
_atom_site_fract_y
_atom_site_fract_z
Si Si1 0.244157 0.241704 0.214699
Si Si2 0.239010 0.239372 0.946278
Si Si3 0.997564 0.241864 0.418451
Si Si4 0.577400 0.667603 0.133291
Si Si5 0.332407 0.422120 0.500000
Si Si6 0.998367 0.232996 0.316549
O O1 0.240223 0.120112 0.198538
O O2 0.325930 0.346167 0.178840
O O3 0.305403 0.283216 0.267031
O O4 0.108132 0.216263 0.214944
O O5 0.251890 0.125945 0.932670
O O6 0.326253 0.350112 0.913594
O O7 0.101323 0.202646 0.937420
O O8 0.276993 0.278977 0.000000
O O9 0.879625 0.120376 0.434607
O O10 0.977869 0.283130 0.366079
O O11 0.108046 0.216091 0.418480
O O12 0.020987 0.347314 0.453958
O O13 0.544623 0.772312 0.133929
O O14 0.457404 0.542597 0.133817
O O15 0.456931 0.543070 0.500000
O O16 0.226812 0.453624 0.500000
O O17 0.910945 0.089056 0.316516
O O18 0.134182 0.268363 0.316576
#
# Coordination Sequence:
#
# PCOD8327013 Si02
#       6
#    12  12  12  12   6  12
#     4   9  16  27  46  71  95 116 140 175 221 270
#     4   9  17  30  50  75  98 116 136 171 223 277
#     4   9  16  27  46  71  95 114 134 169 220 274
#     4  10  20  32  45  62  88 123 159 190 217 248
#     4  10  20  32  44  58  82 118 156 188 214 246
#     4   8  13  22  39  66  96 118 134 160 210 273
#
# _framework density 16.170525999999999
#
# number of rings (size 3 to 8) (size 9 to 14) (size 15 to 20)
#    0.000    2.909    0.000    1.818    0.000    4.000 
#    0.000    3.636    0.000    5.455    0.000    2.545 
#    0.000    0.000    0.000    0.000    0.000    0.000 
#
# Total GULP energy -817719.357071 kJ/mol
# GULP energy per Si atom -12389.687228 kJ/mol
# Density = 1.613372 g / cm^3
# Si number density = 16.170526 Si / 1000 Ang^3
#
#
#
# Elastic Constant Matrix: (Units=GPa)
#
#
# Indices 1 2 3 4 5 6 
#
# 1 91.2042 46.2057 64.8627 0.0000 0.0001 0.0000
# 2 46.2057 91.2042 64.8627 0.0000 -0.0001 0.0000
# 3 64.8627 64.8627 147.9256 0.0000 0.0000 0.0000
# 4 0.0000 0.0000 0.0000 16.8621 0.0000 -0.0001
# 5 0.0001 -0.0001 0.0000 0.0000 16.8621 0.0000
# 6 0.0000 0.0000 0.0000 -0.0001 0.0000 22.4993
#
#
#
# Elastic Compliance Matrix: (Units=1/GPa)
#
#
# Indices 1 2 3 4 5 6 
#
# 1 0.017321 -0.004902 -0.005445 0.000000 0.000000 0.000000
# 2 -0.004902 0.017321 -0.005445 0.000000 0.000000 0.000000
# 3 -0.005445 -0.005445 0.011535 0.000000 0.000000 0.000000
# 4 0.000000 0.000000 0.000000 0.059305 0.000000 0.000000
# 5 0.000000 0.000000 0.000000 0.000000 0.059305 0.000000
# 6 0.000000 0.000000 0.000000 0.000000 0.000000 0.044446
#
#
# Mechanical properties :
#
#
# Convention : Reuss Voigt Hill
#
# Bulk Modulus (GPa) = 68.53507 75.79957 72.16732
# Shear Modulus (GPa) = 20.35165 21.53823 20.94494
#
# Velocity S-wave (km/s) = 3.55147 3.65354 3.60287
# Velocity P-wave (km/s) = 7.70013 8.04827 7.87613
#
# Compressibility (1/GPa) = 0.01459107
#
# Stress axis : x y z
#
# Youngs Moduli (GPa) = 57.73497 57.73497 86.69026
#
# Poissons Ratio (x) = 0.28304 0.47204
# Poissons Ratio (y) = 0.28304 0.47204
# Poissons Ratio (z) = 0.31437 0.31437
#
# Static dielectric constant tensor:
#      x y z
#    x 2.723420 0.000000 0.000000 
#    y 0.000000 2.723420 0.000000 
#    z 0.000000 0.000000 3.714370 
# 
# 
# High freq. dielectric constant tensor:
#      x y z
#    x 1.587380 0.000000 0.000000 
#    y 0.000000 1.587380 0.000000 
#    z 0.000000 0.000000 1.652060 
# 
# From -- ./inp_files/4479.got.cif
#   From: 2010.03.12/outbox.cif.g09.slc.cpg/sg187_3_cif.got.tgz:4479.got - 2010.04.01 11:58:23.
