data_PCOD8327648
_publ_section_title
;
Structure prediction by ZEFSAII (Michael W. Deem and Ramdas Pophale) SiO2 
 PCOD8327648
Probable space group: P -6 2 M
;
_chemical_formula_sum "Si O2"
_cell_formula_units_Z 72
_cell_length_a 22.370558
_cell_length_b 22.370558
_cell_length_c 10.148881
_cell_angle_alpha 90.000000
_cell_angle_beta 90.000000
_cell_angle_gamma 120.000000
_cell_volume 4398.478020
_symmetry_space_group_name_H-M "P -6 2 M"
_symmetry_group_IT_number 189
_symmetry_cell_setting 'hexagonal'
loop_
_space_group_symop_operation_xyz
x,y,z
-x+y,-x,-z
-y,x-y,z
x,y,-z
-x+y,-x,z
-y,x-y,-z
x-y,-y,-z
-x,-x+y,-z
y,x,-z
y,x,z
x-y,-y,z
-x,-x+y,z
loop_
_atom_site_type_symbol
_atom_site_label
_atom_site_fract_x
_atom_site_fract_y
_atom_site_fract_z
Si Si1 0.653928 0.735162 0.000000
Si Si2 0.710467 0.791385 0.273233
Si Si3 0.434619 0.516862 0.771168
Si Si4 0.917552 0.430341 0.500000
Si Si5 0.918131 0.612384 0.147239
Si Si6 0.205260 0.283879 0.347835
Si Si7 0.081009 0.378931 0.500000
Si Si8 0.479934 0.082298 0.000000
O O1 0.679976 0.783700 0.872566
O O2 0.570970 0.685212 0.000000
O O3 0.685664 0.685664 0.000000
O O4 0.766725 0.766725 0.284784
O O5 0.747809 0.871845 0.316005
O O6 0.645470 0.748712 0.369385
O O7 0.473675 0.473675 0.773640
O O8 0.437959 0.547916 0.626982
O O9 0.354986 0.467398 0.811909
O O10 0.471608 0.580779 0.871617
O O11 0.885886 0.347398 0.500000
O O12 0.000000 0.468710 0.500000
O O13 0.894616 0.648728 0.255779
O O14 0.000000 0.649552 0.146014
O O15 0.891290 0.616050 0.000000
O O16 0.222204 0.306851 0.500000
O O17 0.225910 0.225910 0.314210
O O18 0.000000 0.346344 0.500000
O O19 0.436174 0.000000 0.000000
#
# Coordination Sequence:
#
# PCOD8327648 Si02
#       8
#     6  12  12   6  12  12   6   6
#     4   9  18  28  44  69  95 121 152 184 224 286
#     4  10  19  33  50  68  92 123 158 201 253 309
#     4   9  15  23  37  58  87 122 153 176 201 239
#     4   9  16  22  35  61  89 119 152 176 200 244
#     4   9  17  29  43  61  87 120 155 186 222 272
#     4  10  21  34  49  68  89 119 161 206 252 306
#     4   9  16  28  44  63  89 123 156 184 226 284
#     4   9  14  24  39  59  89 123 152 174 196 238
#
# _framework density 16.369298000000001
#
# number of rings (size 3 to 8) (size 9 to 14) (size 15 to 20)
#    0.000    2.667    1.667    1.000    2.333    4.000 
#    0.000    0.000    0.000    0.333    0.000    0.000 
#    0.000    0.000    0.000   20.000    0.000   13.333 
#
# Total GULP energy -892454.844668 kJ/mol
# GULP energy per Si atom -12395.206176 kJ/mol
# Density = 1.633204 g / cm^3
# Si number density = 16.369298 Si / 1000 Ang^3
#
#
#
# Elastic Constant Matrix: (Units=GPa)
#
#
# Indices 1 2 3 4 5 6 
#
# 1 61.6288 31.9909 37.1324 0.0000 0.0000 0.0000
# 2 31.9909 61.6288 37.1324 0.0000 0.0000 0.0000
# 3 37.1324 37.1324 148.8570 0.0000 0.0000 0.0000
# 4 0.0000 0.0000 0.0000 24.6744 0.0000 0.0000
# 5 0.0000 0.0000 0.0000 0.0000 24.6744 0.0000
# 6 0.0000 0.0000 0.0000 0.0000 0.0000 14.8189
#
#
#
# Elastic Compliance Matrix: (Units=1/GPa)
#
#
# Indices 1 2 3 4 5 6 
#
# 1 0.023529 -0.010212 -0.003322 0.000000 0.000000 0.000000
# 2 -0.010212 0.023529 -0.003322 0.000000 0.000000 0.000000
# 3 -0.003322 -0.003322 0.008375 0.000000 0.000000 0.000000
# 4 0.000000 0.000000 0.000000 0.040528 0.000000 0.000000
# 5 0.000000 0.000000 0.000000 0.000000 0.040528 0.000000
# 6 0.000000 0.000000 0.000000 0.000000 0.000000 0.067481
#
#
# Mechanical properties :
#
#
# Convention : Reuss Voigt Hill
#
# Bulk Modulus (GPa) = 46.03840 53.84734 49.94287
# Shear Modulus (GPa) = 20.41476 23.89081 22.15279
#
# Velocity S-wave (km/s) = 3.53531 3.82447 3.68273
# Velocity P-wave (km/s) = 6.69705 7.24354 6.97565
#
# Compressibility (1/GPa) = 0.02172100
#
# Stress axis : x y z
#
# Youngs Moduli (GPa) = 42.50145 42.50145 119.40129
#
# Poissons Ratio (x) = 0.43403 0.39663
# Poissons Ratio (y) = 0.43403 0.39663
# Poissons Ratio (z) = 0.14118 0.14118
#
# Static dielectric constant tensor:
#      x y z
#    x 2.841750 0.000000 0.000000 
#    y 0.000000 2.841750 0.000000 
#    z 0.000000 0.000000 3.130920 
# 
# 
# High freq. dielectric constant tensor:
#      x y z
#    x 1.588810 0.000000 0.000000 
#    y 0.000000 1.588810 0.000000 
#    z 0.000000 0.000000 1.655440 
# 
# From -- ./inp_files/1379.got.cif
#   From: 2010.03.12/outbox.cif.g09.slc.cpg/sg189_1_cif.got.tgz:1379.got - 2010.04.01 12:03:36.
