data_PCOD8327201
_publ_section_title
;
Structure prediction by ZEFSAII (Michael W. Deem and Ramdas Pophale) SiO2 
 PCOD8327201
Probable space group: P -6 M 2
;
_chemical_formula_sum "Si O2"
_cell_formula_units_Z 60
_cell_length_a 21.105530
_cell_length_b 21.105530
_cell_length_c 8.744630
_cell_angle_alpha 90.000000
_cell_angle_beta 90.000000
_cell_angle_gamma 120.000000
_cell_volume 3373.374792
_symmetry_space_group_name_H-M "P -6 M 2"
_symmetry_group_IT_number 187
_symmetry_cell_setting 'hexagonal'
loop_
_space_group_symop_operation_xyz
x,y,z
-x+y,-x,-z
-y,x-y,z
x,y,-z
-x+y,-x,z
-y,x-y,-z
-y,-x,-z
-x+y,y,-z
x,x-y,-z
-x+y,y,z
x,x-y,z
-y,-x,z
loop_
_atom_site_type_symbol
_atom_site_label
_atom_site_fract_x
_atom_site_fract_y
_atom_site_fract_z
Si Si1 0.296492 0.843761 0.680039
Si Si2 0.699899 0.919917 0.824403
Si Si3 0.915906 0.457953 0.179385
Si Si4 0.457540 0.301441 0.322066
Si Si5 0.305374 0.082269 0.824738
Si Si6 0.460926 0.921851 0.682587
O O1 0.299687 0.838342 0.500000
O O2 0.237556 0.762445 0.745366
O O3 0.270313 0.900780 0.720902
O O4 0.377989 0.875985 0.746757
O O5 0.731276 0.865638 0.788321
O O6 0.762962 0.001879 0.785437
O O7 0.674628 0.912539 0.000000
O O8 0.867302 0.493797 0.224913
O O9 0.995249 0.497625 0.258032
O O10 0.929355 0.464678 0.000000
O O11 0.470942 0.321303 0.500000
O O12 0.478069 0.239035 0.279170
O O13 0.373068 0.272432 0.284565
O O14 0.275190 0.137595 0.794283
O O15 0.331758 0.087586 0.000000
O O16 0.463200 0.926400 0.500000
#
# Coordination Sequence:
#
# PCOD8327201 Si02
#       6
#    12  12   6  12  12   6
#     4   9  18  32  48  69  96 126 162 203 248 294
#     4   9  17  29  46  68  94 125 159 195 238 287
#     4  12  24  36  54  78 104 134 170 210 252 302
#     4  10  21  37  55  75 100 130 164 204 251 301
#     4   9  17  30  49  72  98 127 161 203 247 292
#     4  10  20  34  52  74 102 134 170 214 260 306
#
# _framework density 17.786344
#
# number of rings (size 3 to 8) (size 9 to 14) (size 15 to 20)
#    0.000    2.400    0.000    2.700    0.000    6.000 
#    1.200    0.000    0.000    0.400    0.000    2.800 
#    0.000    0.000    0.000   10.000    0.000   10.400 
#
# Total GULP energy -743807.848279 kJ/mol
# GULP energy per Si atom -12396.797471 kJ/mol
# Density = 1.774586 g / cm^3
# Si number density = 17.786344 Si / 1000 Ang^3
#
#
#
# Elastic Constant Matrix: (Units=GPa)
#
#
# Indices 1 2 3 4 5 6 
#
# 1 128.8297 81.0975 22.9026 0.0000 0.0002 0.0000
# 2 81.0975 128.8297 22.9026 0.0000 -0.0002 0.0000
# 3 22.9026 22.9026 33.1191 0.0000 0.0000 0.0000
# 4 0.0000 0.0000 0.0000 20.7820 0.0000 -0.0002
# 5 0.0002 -0.0002 0.0000 0.0000 20.7820 0.0000
# 6 0.0000 0.0000 0.0000 -0.0002 0.0000 23.8661
#
#
#
# Elastic Compliance Matrix: (Units=1/GPa)
#
#
# Indices 1 2 3 4 5 6 
#
# 1 0.013280 -0.007670 -0.003879 0.000000 0.000000 0.000000
# 2 -0.007670 0.013280 -0.003879 0.000000 0.000000 0.000000
# 3 -0.003879 -0.003879 0.035559 0.000000 0.000000 0.000000
# 4 0.000000 0.000000 0.000000 0.048119 0.000000 0.000000
# 5 0.000000 0.000000 0.000000 0.000000 0.048119 0.000000
# 6 0.000000 0.000000 0.000000 0.000000 0.000000 0.041900
#
#
# Mechanical properties :
#
#
# Convention : Reuss Voigt Hill
#
# Bulk Modulus (GPa) = 31.98800 60.50932 46.24866
# Shear Modulus (GPa) = 20.70086 24.01108 22.35597
#
# Velocity S-wave (km/s) = 3.41524 3.67818 3.54915
# Velocity P-wave (km/s) = 5.79444 7.22030 6.54630
#
# Compressibility (1/GPa) = 0.03126172
#
# Stress axis : x y z
#
# Youngs Moduli (GPa) = 75.30042 75.30042 28.12189
#
# Poissons Ratio (x) = 0.57756 0.10910
# Poissons Ratio (y) = 0.57756 0.10910
# Poissons Ratio (z) = 0.29212 0.29212
#
# Static dielectric constant tensor:
#      x y z
#    x 3.452150 0.000000 0.000000 
#    y 0.000000 3.452150 0.000000 
#    z 0.000000 0.000000 3.254980 
# 
# 
# High freq. dielectric constant tensor:
#      x y z
#    x 1.685080 0.000000 0.000000 
#    y 0.000000 1.685080 0.000000 
#    z 0.000000 0.000000 1.682170 
# 
# From -- ./inp_files/675.got.cif
#   From: 2010.03.12/outbox.cif.g09.slc.cpg/sg187_1_cif.got.tgz:675.got - 2010.04.01 11:58:23.
