data_PCOD8327170
_publ_section_title
;
Structure prediction by ZEFSAII (Michael W. Deem and Ramdas Pophale) SiO2 
 PCOD8327170
Probable space group: P -6 M 2
;
_chemical_formula_sum "Si O2"
_cell_formula_units_Z 54
_cell_length_a 12.813252
_cell_length_b 12.813252
_cell_length_c 22.916351
_cell_angle_alpha 90.000000
_cell_angle_beta 90.000000
_cell_angle_gamma 120.000000
_cell_volume 3258.328239
_symmetry_space_group_name_H-M "P -6 M 2"
_symmetry_group_IT_number 187
_symmetry_cell_setting 'hexagonal'
loop_
_space_group_symop_operation_xyz
x,y,z
-x+y,-x,-z
-y,x-y,z
x,y,-z
-x+y,-x,z
-y,x-y,-z
-y,-x,-z
-x+y,y,-z
x,x-y,-z
-x+y,y,z
x,x-y,z
-y,-x,z
loop_
_atom_site_type_symbol
_atom_site_label
_atom_site_fract_x
_atom_site_fract_y
_atom_site_fract_z
Si Si1 0.086400 0.421839 0.500000
Si Si2 0.332760 0.907855 0.840011
Si Si3 0.091372 0.666319 0.292302
Si Si4 0.666466 0.576118 0.934908
Si Si5 0.912613 0.577615 0.606645
O O1 0.206061 0.412122 0.500000
O O2 0.124414 0.562207 0.500000
O O3 0.006776 0.354142 0.443886
O O4 0.444976 0.889952 0.851895
O O5 0.217714 0.782287 0.853209
O O6 0.332538 0.950701 0.773868
O O7 0.332285 0.002057 0.886077
O O8 0.129449 0.564725 0.300738
O O9 0.206404 0.793597 0.309649
O O10 0.977560 0.637538 0.332458
O O11 0.783541 0.567082 0.926274
O O12 0.555864 0.444137 0.923680
O O13 0.660545 0.622510 0.000000
O O14 0.793961 0.587921 0.599792
O O15 0.874616 0.437308 0.603599
#
# Coordination Sequence:
#
# PCOD8327170 Si02
#       5
#     6  12  12  12  12
#     4  10  20  34  54  78 100 122 152 194 238 276
#     4   9  17  29  46  69  95 121 149 184 230 281
#     4   9  17  30  49  71  94 121 153 191 233 275
#     4   9  17  29  45  65  89 118 152 189 229 273
#     4  10  20  33  50  72  99 129 158 189 227 273
#
# _framework density 16.572914999999998
#
# number of rings (size 3 to 8) (size 9 to 14) (size 15 to 20)
#    0.000    2.667    0.000    2.000    0.000    4.000 
#    0.000    3.333    0.000   10.667    0.000    0.000 
#    0.000    0.000    0.000    0.000    0.000    0.000 
#
# Total GULP energy -669520.769649 kJ/mol
# GULP energy per Si atom -12398.532771 kJ/mol
# Density = 1.653519 g / cm^3
# Si number density = 16.572915 Si / 1000 Ang^3
#
#
#
# Elastic Constant Matrix: (Units=GPa)
#
#
# Indices 1 2 3 4 5 6 
#
# 1 82.2462 54.0375 58.5653 0.0000 0.0013 0.0000
# 2 54.0375 82.2462 58.5653 0.0000 -0.0013 0.0000
# 3 58.5653 58.5653 119.5265 0.0000 0.0000 0.0000
# 4 0.0000 0.0000 0.0000 24.1403 0.0000 -0.0013
# 5 0.0013 -0.0013 0.0000 0.0000 24.1403 0.0000
# 6 0.0000 0.0000 0.0000 -0.0013 0.0000 14.1044
#
#
#
# Elastic Compliance Matrix: (Units=1/GPa)
#
#
# Indices 1 2 3 4 5 6 
#
# 1 0.024063 -0.011387 -0.006211 0.000000 -0.000002 0.000000
# 2 -0.011387 0.024063 -0.006211 0.000000 0.000002 0.000000
# 3 -0.006211 -0.006211 0.014453 0.000000 0.000000 0.000000
# 4 0.000000 0.000000 0.000000 0.041425 0.000000 0.000004
# 5 -0.000002 0.000002 0.000000 0.000000 0.041425 0.000000
# 6 0.000000 0.000000 0.000000 0.000004 0.000000 0.070900
#
#
# Mechanical properties :
#
#
# Convention : Reuss Voigt Hill
#
# Bulk Modulus (GPa) = 66.84166 69.59499 68.21833
# Shear Modulus (GPa) = 18.59209 20.00037 19.29623
#
# Velocity S-wave (km/s) = 3.35302 3.47769 3.41592
# Velocity P-wave (km/s) = 7.44377 7.62956 7.53723
#
# Compressibility (1/GPa) = 0.01496073
#
# Stress axis : x y z
#
# Youngs Moduli (GPa) = 41.55797 41.55797 69.19181
#
# Poissons Ratio (x) = 0.47323 0.42973
# Poissons Ratio (y) = 0.47323 0.42973
# Poissons Ratio (z) = 0.25810 0.25810
#
# Static dielectric constant tensor:
#      x y z
#    x 2.973260 0.000000 0.000000 
#    y 0.000000 2.973260 0.000000 
#    z 0.000000 0.000000 3.491120 
# 
# 
# High freq. dielectric constant tensor:
#      x y z
#    x 1.622770 0.000000 0.000000 
#    y 0.000000 1.622770 0.000000 
#    z 0.000000 0.000000 1.657260 
# 
# From -- ./inp_files/3851.got.cif
#   From: 2010.03.12/outbox.cif.g09.slc.cpg/sg187_2_cif.got.tgz:3851.got - 2010.04.01 11:58:23.
