data_PCOD8327821
_publ_section_title
;
Structure prediction by ZEFSAII (Michael W. Deem and Ramdas Pophale) SiO2 
 PCOD8327821
Probable space group: P -6 2 M
;
_chemical_formula_sum "Si O2"
_cell_formula_units_Z 33
_cell_length_a 15.572229
_cell_length_b 15.572229
_cell_length_c 7.577832
_cell_angle_alpha 90.000000
_cell_angle_beta 90.000000
_cell_angle_gamma 120.000000
_cell_volume 1591.391990
_symmetry_space_group_name_H-M "P -6 2 M"
_symmetry_group_IT_number 189
_symmetry_cell_setting 'hexagonal'
loop_
_space_group_symop_operation_xyz
x,y,z
-x+y,-x,-z
-y,x-y,z
x,y,-z
-x+y,-x,z
-y,x-y,-z
x-y,-y,-z
-x,-x+y,-z
y,x,-z
y,x,z
x-y,-y,z
-x,-x+y,z
loop_
_atom_site_type_symbol
_atom_site_label
_atom_site_fract_x
_atom_site_fract_y
_atom_site_fract_z
Si Si1 0.398012 0.887677 0.210632
Si Si2 0.000000 0.891480 0.500000
Si Si3 0.545803 0.816757 0.791548
Si Si4 0.000000 0.754082 0.792601
O O1 0.464801 0.842795 0.284174
O O2 0.287059 0.816939 0.284717
O O3 0.441012 0.000000 0.281553
O O4 0.399613 0.889211 0.000000
O O5 0.000000 0.840061 0.681548
O O6 0.901572 0.901572 0.500000
O O7 0.653124 0.903394 0.735253
O O8 0.535163 0.809147 0.000000
O O9 0.000000 0.776265 0.000000
#
# Coordination Sequence:
#
# PCOD8327821 Si02
#       4
#    12   3  12   6
#     4   9  15  24  40  71 113 148 186 236 288 346
#     4  10  26  46  62  84 114 148 192 252 310 362
#     4   9  16  27  48  80 117 156 195 241 294 350
#     4  10  20  38  64  87 115 157 201 246 298 356
#
# _framework density 20.736563
#
# number of rings (size 3 to 8) (size 9 to 14) (size 15 to 20)
#    0.182    2.545    1.818    0.727    0.000    5.091 
#    0.000    3.636    0.000    2.182    0.000    0.000 
#    0.000    0.000    0.000    0.000    0.000    0.000 
#
# Total GULP energy -409071.684893 kJ/mol
# GULP energy per Si atom -12396.111663 kJ/mol
# Density = 2.068937 g / cm^3
# Si number density = 20.736563 Si / 1000 Ang^3
#
#
#
# Elastic Constant Matrix: (Units=GPa)
#
#
# Indices 1 2 3 4 5 6 
#
# 1 211.5034 117.6960 26.3139 0.0000 0.0000 0.0000
# 2 117.6960 211.5034 26.3139 0.0000 0.0000 0.0000
# 3 26.3139 26.3139 41.2361 0.0000 0.0000 0.0000
# 4 0.0000 0.0000 0.0000 -1.9644 0.0000 0.0000
# 5 0.0000 0.0000 0.0000 0.0000 -1.9644 0.0000
# 6 0.0000 0.0000 0.0000 0.0000 0.0000 46.9037
#
#
#
# Elastic Compliance Matrix: (Units=1/GPa)
#
#
# Indices 1 2 3 4 5 6 
#
# 1 0.007021 -0.003639 -0.002159 0.000000 0.000000 0.000000
# 2 -0.003639 0.007021 -0.002159 0.000000 0.000000 0.000000
# 3 -0.002159 -0.002159 0.027006 0.000000 0.000000 0.000000
# 4 0.000000 0.000000 0.000000 -0.509062 0.000000 0.000000
# 5 0.000000 0.000000 0.000000 0.000000 -0.509062 0.000000
# 6 0.000000 0.000000 0.000000 0.000000 0.000000 0.021320
#
#
# Mechanical properties :
#
#
# Convention : Reuss Voigt Hill
#
# Bulk Modulus (GPa) = 39.78271 89.43225 64.60748
# Shear Modulus (GPa) = -5.36789 28.18959 11.41085
#
# Velocity S-wave (km/s) = -1.61066 3.69102 2.34834
# Velocity P-wave (km/s) = 3.97083 7.83494 6.21103
#
# Compressibility (1/GPa) = 0.02513655
#
# Stress axis : x y z
#
# Youngs Moduli (GPa) = 142.42067 142.42067 37.02942
#
# Poissons Ratio (x) = 0.51822 0.07993
# Poissons Ratio (y) = 0.51822 0.07993
# Poissons Ratio (z) = 0.30743 0.30743
#
# Static dielectric constant tensor:
#      x y z
#    x 3.977630 0.000000 0.000000 
#    y 0.000000 3.977630 0.000000 
#    z 0.000000 0.000000 3.066920 
# 
# 
# High freq. dielectric constant tensor:
#      x y z
#    x 1.817660 0.000000 0.000000 
#    y 0.000000 1.817660 0.000000 
#    z 0.000000 0.000000 1.770190 
# 
# From -- ./inp_files/372.got.cif
#   From: 2010.03.12/outbox.cif.g09.slc.cpg/sg189_1_cif.got.tgz:372.got - 2010.04.01 12:03:36.
