data_PCOD8327550
_publ_section_title
;
Structure prediction by ZEFSAII (Michael W. Deem and Ramdas Pophale) SiO2 
 PCOD8327550
Probable space group: P -6 2 M
;
_chemical_formula_sum "Si O2"
_cell_formula_units_Z 72
_cell_length_a 23.602052
_cell_length_b 23.602052
_cell_length_c 8.886533
_cell_angle_alpha 90.000000
_cell_angle_beta 90.000000
_cell_angle_gamma 120.000000
_cell_volume 4287.089156
_symmetry_space_group_name_H-M "P -6 2 M"
_symmetry_group_IT_number 189
_symmetry_cell_setting 'hexagonal'
loop_
_space_group_symop_operation_xyz
x,y,z
-x+y,-x,-z
-y,x-y,z
x,y,-z
-x+y,-x,z
-y,x-y,-z
x-y,-y,-z
-x,-x+y,-z
y,x,-z
y,x,z
x-y,-y,z
-x,-x+y,z
loop_
_atom_site_type_symbol
_atom_site_label
_atom_site_fract_x
_atom_site_fract_y
_atom_site_fract_z
Si Si1 0.925034 0.262083 0.175332
Si Si2 0.475198 0.141439 0.679045
Si Si3 0.475825 0.266130 0.322990
Si Si4 0.714300 0.000000 0.675029
Si Si5 0.470942 0.878836 0.320844
Si Si6 0.186628 0.328660 0.324661
Si Si7 0.000000 0.593404 0.822279
O O1 0.909404 0.314060 0.254579
O O2 0.880450 0.187959 0.235900
O O3 0.000000 0.283552 0.209263
O O4 0.911719 0.263099 0.000000
O O5 0.469247 0.136052 0.500000
O O6 0.496941 0.214826 0.736875
O O7 0.530503 0.126308 0.738042
O O8 0.477813 0.265788 0.500000
O O9 0.525280 0.339991 0.268084
O O10 0.401334 0.241780 0.272007
O O11 0.695679 0.000000 0.500000
O O12 0.719246 0.935105 0.711064
O O13 0.658394 0.000000 0.774193
O O14 0.477629 0.888061 0.500000
O O15 0.530147 0.938688 0.242131
O O16 0.170317 0.327610 0.500000
O O17 0.000000 0.589996 0.000000
#
# Coordination Sequence:
#
# PCOD8327550 Si02
#       7
#    12  12  12   6  12  12   6
#     4  10  21  35  50  70 102 138 167 201 245 289
#     4   9  19  33  51  72  91 124 172 215 253 299
#     4   8  14  29  49  69  91 118 155 203 253 294
#     4  10  18  34  56  78 104 132 160 197 248 297
#     4  10  19  34  52  69  96 129 165 210 259 307
#     4   9  17  31  54  77 100 127 160 198 240 293
#     4  12  24  32  46  74 104 130 164 203 250 315
#
# _framework density 16.794612999999998
#
# number of rings (size 3 to 8) (size 9 to 14) (size 15 to 20)
#    0.000    2.500    1.667    2.250    1.167    2.667 
#    1.000    0.000    0.000    0.000    0.000    0.000 
#    0.833    0.000    0.500    0.000    0.667    0.000 
#
# Total GULP energy -892348.701664 kJ/mol
# GULP energy per Si atom -12393.731968 kJ/mol
# Density = 1.675639 g / cm^3
# Si number density = 16.794613 Si / 1000 Ang^3
#
#
#
# Elastic Constant Matrix: (Units=GPa)
#
#
# Indices 1 2 3 4 5 6 
#
# 1 91.5207 69.4466 32.2411 0.0000 0.0000 0.0000
# 2 69.4466 91.5207 32.2411 0.0000 0.0000 0.0000
# 3 32.2411 32.2411 41.6027 0.0000 0.0000 0.0000
# 4 0.0000 0.0000 0.0000 7.1770 0.0000 0.0000
# 5 0.0000 0.0000 0.0000 0.0000 7.1770 0.0000
# 6 0.0000 0.0000 0.0000 0.0000 0.0000 11.0370
#
#
#
# Elastic Compliance Matrix: (Units=1/GPa)
#
#
# Indices 1 2 3 4 5 6 
#
# 1 0.027156 -0.018146 -0.006982 0.000000 0.000000 0.000000
# 2 -0.018146 0.027156 -0.006982 0.000000 0.000000 0.000000
# 3 -0.006982 -0.006982 0.034859 0.000000 0.000000 0.000000
# 4 0.000000 0.000000 0.000000 0.139335 0.000000 0.000000
# 5 0.000000 0.000000 0.000000 0.000000 0.139335 0.000000
# 6 0.000000 0.000000 0.000000 0.000000 0.000000 0.090604
#
#
# Mechanical properties :
#
#
# Convention : Reuss Voigt Hill
#
# Bulk Modulus (GPa) = 40.08131 54.72240 47.40185
# Shear Modulus (GPa) = 9.41653 11.12588 10.27120
#
# Velocity S-wave (km/s) = 2.37045 2.57664 2.47569
# Velocity P-wave (km/s) = 5.60441 6.44252 6.03803
#
# Compressibility (1/GPa) = 0.02494929
#
# Stress axis : x y z
#
# Youngs Moduli (GPa) = 36.82468 36.82468 28.68722
#
# Poissons Ratio (x) = 0.66823 0.20030
# Poissons Ratio (y) = 0.66823 0.20030
# Poissons Ratio (z) = 0.25711 0.25711
#
# Static dielectric constant tensor:
#      x y z
#    x 3.266890 0.000000 0.000000 
#    y 0.000000 3.266890 0.000000 
#    z 0.000000 0.000000 2.975250 
# 
# 
# High freq. dielectric constant tensor:
#      x y z
#    x 1.638500 0.000000 0.000000 
#    y 0.000000 1.638500 0.000000 
#    z 0.000000 0.000000 1.627790 
# 
# From -- ./inp_files/1318.got.cif
#   From: 2010.03.12/outbox.cif.g09.slc.cpg/sg189_1_cif.got.tgz:1318.got - 2010.04.01 12:03:36.
