data_PCOD8327127
_publ_section_title
;
Structure prediction by ZEFSAII (Michael W. Deem and Ramdas Pophale) SiO2 
 PCOD8327127
Probable space group: P -6 M 2
;
_chemical_formula_sum "Si O2"
_cell_formula_units_Z 72
_cell_length_a 12.444511
_cell_length_b 12.444511
_cell_length_c 30.995180
_cell_angle_alpha 90.000000
_cell_angle_beta 90.000000
_cell_angle_gamma 120.000000
_cell_volume 4157.004229
_symmetry_space_group_name_H-M "P -6 M 2"
_symmetry_group_IT_number 187
_symmetry_cell_setting 'hexagonal'
loop_
_space_group_symop_operation_xyz
x,y,z
-x+y,-x,-z
-y,x-y,z
x,y,-z
-x+y,-x,z
-y,x-y,-z
-y,-x,-z
-x+y,y,-z
x,x-y,-z
-x+y,y,z
x,x-y,z
-y,-x,z
loop_
_atom_site_type_symbol
_atom_site_label
_atom_site_fract_x
_atom_site_fract_y
_atom_site_fract_z
Si Si1 0.669013 0.083538 0.906562
Si Si2 0.748544 0.000932 0.500000
Si Si3 0.666541 0.585284 0.582099
Si Si4 0.917759 0.582906 0.746028
Si Si5 0.423762 0.092059 0.000000
Si Si6 0.334112 0.916476 0.172583
Si Si7 0.583787 0.665397 0.664376
O O1 0.556285 0.112569 0.907049
O O2 0.791750 0.208251 0.891640
O O3 0.689266 0.039973 0.954505
O O4 0.641082 0.973270 0.873812
O O5 0.745804 0.872902 0.500000
O O6 0.677060 0.006469 0.457984
O O7 0.890057 0.109944 0.500000
O O8 0.782045 0.564090 0.585418
O O9 0.546934 0.453067 0.575105
O O10 0.659809 0.650726 0.625517
O O11 0.797756 0.595512 0.740587
O O12 0.877218 0.438609 0.742517
O O13 0.980415 0.639270 0.791720
O O14 0.014680 0.661456 0.708883
O O15 0.527993 0.055986 0.000000
O O16 0.481638 0.240819 0.000000
O O17 0.437828 0.875655 0.174381
O O18 0.202395 0.797606 0.181520
O O19 0.592492 0.796246 0.660064
O O20 0.440328 0.559673 0.663029
#
# Coordination Sequence:
#
# PCOD8327127 Si02
#       7
#    12   6  12  12   6  12  12
#     4   9  16  27  46  71  97 122 150 190 239 289
#     4  10  20  34  52  74 102 136 172 208 248 298
#     4  10  20  34  54  78 104 134 168 210 256 300
#     4  10  20  34  54  78 102 126 154 195 245 294
#     4   8  13  22  39  66  96 122 148 182 232 288
#     4  10  20  33  49  68  93 126 162 198 234 278
#     4  10  20  34  53  76 103 135 169 204 240 283
#
# _framework density 17.320166
#
# number of rings (size 3 to 8) (size 9 to 14) (size 15 to 20)
#    0.000    2.333    0.000    3.250    0.000    1.333 
#    0.000    6.250    0.000   12.667    0.000    1.167 
#    0.000    0.000    0.000    0.000    0.000    0.000 
#
# Total GULP energy -892664.153908 kJ/mol
# GULP energy per Si atom -12398.113249 kJ/mol
# Density = 1.728074 g / cm^3
# Si number density = 17.320166 Si / 1000 Ang^3
#
#
#
# Elastic Constant Matrix: (Units=GPa)
#
#
# Indices 1 2 3 4 5 6 
#
# 1 70.2115 36.6393 30.3844 0.0000 0.0148 0.0000
# 2 36.6393 70.2115 30.3844 0.0000 -0.0148 0.0000
# 3 30.3844 30.3844 114.3424 0.0000 0.0000 0.0000
# 4 0.0000 0.0000 0.0000 105.0148 0.0001 -0.0148
# 5 0.0148 -0.0148 0.0000 0.0001 105.0147 0.0000
# 6 0.0000 0.0000 0.0000 -0.0148 0.0000 16.7861
#
#
#
# Elastic Compliance Matrix: (Units=1/GPa)
#
#
# Indices 1 2 3 4 5 6 
#
# 1 0.020406 -0.009381 -0.002930 0.000000 -0.000004 0.000000
# 2 -0.009381 0.020406 -0.002930 0.000000 0.000004 0.000000
# 3 -0.002930 -0.002930 0.010303 0.000000 0.000000 0.000000
# 4 0.000000 0.000000 0.000000 0.009522 0.000000 0.000008
# 5 -0.000004 0.000004 0.000000 0.000000 0.009522 0.000000
# 6 0.000000 0.000000 0.000000 0.000008 0.000000 0.059573
#
#
# Mechanical properties :
#
#
# Convention : Reuss Voigt Hill
#
# Bulk Modulus (GPa) = 48.46379 49.95352 49.20866
# Shear Modulus (GPa) = 29.92384 55.85361 42.88872
#
# Velocity S-wave (km/s) = 4.16106 5.68487 4.98157
# Velocity P-wave (km/s) = 7.15037 8.48494 7.84608
#
# Compressibility (1/GPa) = 0.02063396
#
# Stress axis : x y z
#
# Youngs Moduli (GPa) = 49.00562 49.00562 97.06199
#
# Poissons Ratio (x) = 0.45971 0.28436
# Poissons Ratio (y) = 0.45971 0.28436
# Poissons Ratio (z) = 0.14357 0.14357
#
# Static dielectric constant tensor:
#      x y z
#    x 3.024960 0.000000 0.000000 
#    y 0.000000 3.024960 0.000000 
#    z 0.000000 0.000000 3.606330 
# 
# 
# High freq. dielectric constant tensor:
#      x y z
#    x 1.654080 0.000000 0.000000 
#    y 0.000000 1.654080 0.000000 
#    z 0.000000 0.000000 1.695130 
# 
# From -- ./inp_files/4538.got.cif
#   From: 2010.03.12/outbox.cif.g09.slc.cpg/sg187_3_cif.got.tgz:4538.got - 2010.04.01 11:58:23.
