data_PCOD8327868
_publ_section_title
;
Structure prediction by ZEFSAII (Michael W. Deem and Ramdas Pophale) SiO2 
 PCOD8327868
Probable space group: P -6 2 M
;
_chemical_formula_sum "Si O2"
_cell_formula_units_Z 48
_cell_length_a 18.161853
_cell_length_b 18.161853
_cell_length_c 8.949308
_cell_angle_alpha 90.000000
_cell_angle_beta 90.000000
_cell_angle_gamma 120.000000
_cell_volume 2556.468225
_symmetry_space_group_name_H-M "P -6 2 M"
_symmetry_group_IT_number 189
_symmetry_cell_setting 'hexagonal'
loop_
_space_group_symop_operation_xyz
x,y,z
-x+y,-x,-z
-y,x-y,z
x,y,-z
-x+y,-x,z
-y,x-y,-z
x-y,-y,-z
-x,-x+y,-z
y,x,-z
y,x,z
x-y,-y,z
-x,-x+y,z
loop_
_atom_site_type_symbol
_atom_site_label
_atom_site_fract_x
_atom_site_fract_y
_atom_site_fract_z
Si Si1 0.000000 0.093796 0.666020
Si Si2 0.431703 0.332872 0.173773
Si Si3 0.607154 0.768456 0.674564
Si Si4 0.759443 0.759443 0.174298
Si Si5 0.482342 0.579814 0.670329
O O1 0.000000 0.130328 0.500000
O O2 0.083675 0.083675 0.682952
O O3 0.000000 0.153594 0.795443
O O4 0.367600 0.367600 0.210493
O O5 0.401885 0.248019 0.266309
O O6 0.526943 0.402754 0.221467
O O7 0.431936 0.313250 0.000000
O O8 0.627806 0.780788 0.500000
O O9 0.683807 0.767722 0.756509
O O10 0.521236 0.679260 0.706163
O O11 0.743817 0.743817 0.000000
O O12 0.449572 0.559175 0.500000
O O13 0.555499 0.555499 0.698354
#
# Coordination Sequence:
#
# PCOD8327868 Si02
#       5
#     6  12  12   6  12
#     4   8  18  38  60  80 109 154 201 244 292 348
#     4  10  22  39  59  87 121 154 191 239 296 353
#     4  11  22  39  62  88 117 155 202 245 286 347
#     4  12  24  36  58  90 123 156 195 246 300 352
#     4   9  18  37  62  85 111 148 192 238 285 340
#
# _framework density 18.775905000000002
#
# number of rings (size 3 to 8) (size 9 to 14) (size 15 to 20)
#    0.250    1.750    1.250    2.625    0.000    5.000 
#    1.500    0.000    0.000    0.000    0.000    0.000 
#    0.000    0.000    0.000    0.000    0.000    0.000 
#
# Total GULP energy -595234.600939 kJ/mol
# GULP energy per Si atom -12400.720853 kJ/mol
# Density = 1.873317 g / cm^3
# Si number density = 18.775905 Si / 1000 Ang^3
#
#
#
# Elastic Constant Matrix: (Units=GPa)
#
#
# Indices 1 2 3 4 5 6 
#
# 1 107.9041 57.0157 66.3375 0.0000 0.0000 0.0000
# 2 57.0157 107.9041 66.3375 0.0000 0.0000 0.0000
# 3 66.3375 66.3375 126.7242 0.0000 0.0000 0.0000
# 4 0.0000 0.0000 0.0000 71.2029 0.0000 0.0000
# 5 0.0000 0.0000 0.0000 0.0000 71.2029 0.0000
# 6 0.0000 0.0000 0.0000 0.0000 0.0000 25.4442
#
#
#
# Elastic Compliance Matrix: (Units=1/GPa)
#
#
# Indices 1 2 3 4 5 6 
#
# 1 0.015063 -0.004588 -0.005483 0.000000 0.000000 0.000000
# 2 -0.004588 0.015063 -0.005483 0.000000 0.000000 0.000000
# 3 -0.005483 -0.005483 0.013632 0.000000 0.000000 0.000000
# 4 0.000000 0.000000 0.000000 0.014044 0.000000 0.000000
# 5 0.000000 0.000000 0.000000 0.000000 0.014044 0.000000
# 6 0.000000 0.000000 0.000000 0.000000 0.000000 0.039302
#
#
# Mechanical properties :
#
#
# Convention : Reuss Voigt Hill
#
# Bulk Modulus (GPa) = 79.06249 80.21263 79.63756
# Shear Modulus (GPa) = 34.13586 43.75946 38.94766
#
# Velocity S-wave (km/s) = 4.26851 4.83288 4.55944
# Velocity P-wave (km/s) = 8.15435 8.59978 8.38002
#
# Compressibility (1/GPa) = 0.01264822
#
# Stress axis : x y z
#
# Youngs Moduli (GPa) = 66.38863 66.38863 73.35690
#
# Poissons Ratio (x) = 0.30459 0.40224
# Poissons Ratio (y) = 0.30459 0.40224
# Poissons Ratio (z) = 0.36403 0.36403
#
# Static dielectric constant tensor:
#      x y z
#    x 2.285830 0.000000 0.000000 
#    y 0.000000 2.285830 0.000000 
#    z 0.000000 0.000000 3.467150 
# 
# 
# High freq. dielectric constant tensor:
#      x y z
#    x 1.725600 0.000000 0.000000 
#    y 0.000000 1.725600 0.000000 
#    z 0.000000 0.000000 1.735840 
# 
# From -- ./inp_files/646.got.cif
#   From: 2010.03.12/outbox.cif.g09.slc.cpg/sg189_1_cif.got.tgz:646.got - 2010.04.01 12:03:36.
