data_PCOD8327230
_publ_section_title
;
Structure prediction by ZEFSAII (Michael W. Deem and Ramdas Pophale) SiO2 
 PCOD8327230
Probable space group: P -6 M 2
;
_chemical_formula_sum "Si O2"
_cell_formula_units_Z 60
_cell_length_a 17.010112
_cell_length_b 17.010112
_cell_length_c 12.637289
_cell_angle_alpha 90.000000
_cell_angle_beta 90.000000
_cell_angle_gamma 120.000000
_cell_volume 3166.641473
_symmetry_space_group_name_H-M "P -6 M 2"
_symmetry_group_IT_number 187
_symmetry_cell_setting 'hexagonal'
loop_
_space_group_symop_operation_xyz
x,y,z
-x+y,-x,-z
-y,x-y,z
x,y,-z
-x+y,-x,z
-y,x-y,-z
-y,-x,-z
-x+y,y,-z
x,x-y,-z
-x+y,y,z
x,x-y,z
-y,-x,z
loop_
_atom_site_type_symbol
_atom_site_label
_atom_site_fract_x
_atom_site_fract_y
_atom_site_fract_z
Si Si1 0.817247 0.002600 0.268981
Si Si2 0.332707 0.488542 0.877782
Si Si3 0.970127 0.336027 0.195773
Si Si4 0.484296 0.333082 0.621628
Si Si5 0.480311 0.332156 0.000000
Si Si6 0.825190 0.823588 0.500000
O O1 0.919617 0.080384 0.242053
O O2 0.748575 0.011842 0.189894
O O3 0.810756 0.905378 0.255556
O O4 0.788550 0.017731 0.388485
O O5 0.236677 0.473353 0.836240
O O6 0.406372 0.593629 0.861737
O O7 0.362405 0.427935 0.811962
O O8 0.325818 0.460169 0.000000
O O9 0.929982 0.341248 0.307853
O O10 0.901978 0.325288 0.103208
O O11 0.455590 0.330795 0.500000
O O12 0.485273 0.242637 0.653381
O O13 0.584044 0.415957 0.644059
O O14 0.573227 0.426774 0.000000
O O15 0.502878 0.251439 0.000000
O O16 0.797649 0.898825 0.500000
O O17 0.934265 0.868530 0.500000
#
# Coordination Sequence:
#
# PCOD8327230 Si02
#       6
#    12  12  12  12   6   6
#     4  10  20  35  55  82 116 156 197 237 282 335
#     4  10  20  37  61  88 116 148 187 233 284 339
#     4  12  23  37  58  87 118 149 187 237 294 339
#     4  10  21  37  58  83 114 153 196 240 286 339
#     4  12  25  42  61  84 114 152 194 236 285 344
#     4   8  15  28  50  76 107 144 188 234 276 322
#
# _framework density 18.947519
#
# number of rings (size 3 to 8) (size 9 to 14) (size 15 to 20)
#    0.000    1.600    1.000    5.000    1.400    3.200 
#    0.000    2.000    0.000    0.000    0.000    1.400 
#    0.000    1.600    0.000    0.000    0.000    0.000 
#
# Total GULP energy -743868.234901 kJ/mol
# GULP energy per Si atom -12397.803915 kJ/mol
# Density = 1.890439 g / cm^3
# Si number density = 18.947519 Si / 1000 Ang^3
#
#
#
# Elastic Constant Matrix: (Units=GPa)
#
#
# Indices 1 2 3 4 5 6 
#
# 1 128.8263 55.3959 55.9895 0.0000 -0.0001 0.0000
# 2 55.3959 128.8263 55.9895 0.0000 0.0001 0.0000
# 3 55.9895 55.9895 69.3047 0.0000 0.0000 0.0000
# 4 0.0000 0.0000 0.0000 29.2424 0.0000 0.0001
# 5 -0.0001 0.0001 0.0000 0.0000 29.2424 0.0000
# 6 0.0000 0.0000 0.0000 0.0001 0.0000 36.7152
#
#
#
# Elastic Compliance Matrix: (Units=1/GPa)
#
#
# Indices 1 2 3 4 5 6 
#
# 1 0.012142 -0.001476 -0.008617 0.000000 0.000000 0.000000
# 2 -0.001476 0.012142 -0.008617 0.000000 0.000000 0.000000
# 3 -0.008617 -0.008617 0.028351 0.000000 0.000000 0.000000
# 4 0.000000 0.000000 0.000000 0.034197 0.000000 0.000000
# 5 0.000000 0.000000 0.000000 0.000000 0.034197 0.000000
# 6 0.000000 0.000000 0.000000 0.000000 0.000000 0.027237
#
#
# Mechanical properties :
#
#
# Convention : Reuss Voigt Hill
#
# Bulk Modulus (GPa) = 65.71838 73.52298 69.62068
# Shear Modulus (GPa) = 26.21129 29.67880 27.94504
#
# Velocity S-wave (km/s) = 3.72339 3.96203 3.84456
# Velocity P-wave (km/s) = 7.29689 7.73421 7.51873
#
# Compressibility (1/GPa) = 0.01521644
#
# Stress axis : x y z
#
# Youngs Moduli (GPa) = 82.35812 82.35812 35.27162
#
# Poissons Ratio (x) = 0.12158 0.30392
# Poissons Ratio (y) = 0.12158 0.30392
# Poissons Ratio (z) = 0.70965 0.70965
#
# Static dielectric constant tensor:
#      x y z
#    x 3.476550 0.000000 0.000000 
#    y 0.000000 3.476550 0.000000 
#    z 0.000000 0.000000 3.572950 
# 
# 
# High freq. dielectric constant tensor:
#      x y z
#    x 1.741950 0.000000 0.000000 
#    y 0.000000 1.741950 0.000000 
#    z 0.000000 0.000000 1.725840 
# 
# From -- ./inp_files/1665.got.cif
#   From: 2010.03.12/outbox.cif.g09.slc.cpg/sg187_1_cif.got.tgz:1665.got - 2010.04.01 11:58:23.
