data_PCOD8327904
_publ_section_title
;
Structure prediction by ZEFSAII (Michael W. Deem and Ramdas Pophale) SiO2 
 PCOD8327904
Probable space group: P -6 2 M
;
_chemical_formula_sum "Si O2"
_cell_formula_units_Z 32
_cell_length_a 14.327461
_cell_length_b 14.327461
_cell_length_c 8.463958
_cell_angle_alpha 90.000000
_cell_angle_beta 90.000000
_cell_angle_gamma 120.000000
_cell_volume 1504.674640
_symmetry_space_group_name_H-M "P -6 2 M"
_symmetry_group_IT_number 189
_symmetry_cell_setting 'hexagonal'
loop_
_space_group_symop_operation_xyz
x,y,z
-x+y,-x,-z
-y,x-y,z
x,y,-z
-x+y,-x,z
-y,x-y,-z
x-y,-y,-z
-x,-x+y,-z
y,x,-z
y,x,z
x-y,-y,z
-x,-x+y,z
loop_
_atom_site_type_symbol
_atom_site_label
_atom_site_fract_x
_atom_site_fract_y
_atom_site_fract_z
Si Si1 0.390655 0.878518 0.178820
Si Si2 0.000000 0.000000 0.312950
Si Si3 0.565899 0.833872 0.683159
Si Si4 0.000000 0.791014 0.812852
O O1 0.497518 0.876954 0.226386
O O2 0.294018 0.804934 0.295496
O O3 0.413916 0.000000 0.191624
O O4 0.358484 0.835366 0.000000
O O5 0.000000 0.894999 0.251692
O O6 0.000000 0.000000 0.500000
O O7 0.569583 0.861678 0.500000
O O8 0.685874 0.892652 0.752569
O O9 0.000000 0.793122 0.000000
#
# Coordination Sequence:
#
# PCOD8327904 Si02
#       4
#    12   2  12   6
#     4  11  24  43  68  97 133 177 225 272 332 404
#     4  12  28  50  73 102 133 176 232 288 340 392
#     4  12  25  43  69 101 139 177 222 281 337 397
#     4  12  26  48  73 100 137 182 228 278 338 408
#
# _framework density 21.267056
#
# number of rings (size 3 to 8) (size 9 to 14) (size 15 to 20)
#    0.000    0.375    1.875    7.500    2.625    2.250 
#    0.000    0.000    0.000    0.000    0.000    0.000 
#    0.000    0.000    0.000    0.000    0.000    0.000 
#
# Total GULP energy -397071.313423 kJ/mol
# GULP energy per Si atom -12408.478544 kJ/mol
# Density = 2.121865 g / cm^3
# Si number density = 21.267056 Si / 1000 Ang^3
#
#
#
# Elastic Constant Matrix: (Units=GPa)
#
#
# Indices 1 2 3 4 5 6 
#
# 1 119.5596 36.5423 23.4981 0.0000 0.0000 0.0000
# 2 36.5423 119.5596 23.4981 0.0000 0.0000 0.0000
# 3 23.4981 23.4981 114.7470 0.0000 0.0000 0.0000
# 4 0.0000 0.0000 0.0000 28.9440 0.0000 0.0000
# 5 0.0000 0.0000 0.0000 0.0000 28.9440 0.0000
# 6 0.0000 0.0000 0.0000 0.0000 0.0000 41.5086
#
#
#
# Elastic Compliance Matrix: (Units=1/GPa)
#
#
# Indices 1 2 3 4 5 6 
#
# 1 0.009436 -0.002609 -0.001398 0.000000 0.000000 0.000000
# 2 -0.002609 0.009436 -0.001398 0.000000 0.000000 0.000000
# 3 -0.001398 -0.001398 0.009287 0.000000 0.000000 0.000000
# 4 0.000000 0.000000 0.000000 0.034550 0.000000 0.000000
# 5 0.000000 0.000000 0.000000 0.000000 0.034550 0.000000
# 6 0.000000 0.000000 0.000000 0.000000 0.000000 0.024091
#
#
# Mechanical properties :
#
#
# Convention : Reuss Voigt Hill
#
# Bulk Modulus (GPa) = 57.63958 57.88258 57.76108
# Shear Modulus (GPa) = 36.24647 37.90114 37.07380
#
# Velocity S-wave (km/s) = 4.13285 4.22613 4.17975
# Velocity P-wave (km/s) = 7.06651 7.14771 7.10722
#
# Compressibility (1/GPa) = 0.01734919
#
# Stress axis : x y z
#
# Youngs Moduli (GPa) = 105.97339 105.97339 107.67258
#
# Poissons Ratio (x) = 0.27652 0.15053
# Poissons Ratio (y) = 0.27652 0.15053
# Poissons Ratio (z) = 0.14816 0.14816
#
# Static dielectric constant tensor:
#      x y z
#    x 4.040130 0.000000 0.000000 
#    y 0.000000 4.040130 0.000000 
#    z 0.000000 0.000000 3.965360 
# 
# 
# High freq. dielectric constant tensor:
#      x y z
#    x 1.844260 0.000000 0.000000 
#    y 0.000000 1.844260 0.000000 
#    z 0.000000 0.000000 1.851340 
# 
# From -- ./inp_files/373.got.cif
#   From: 2010.03.12/outbox.cif.g09.slc.cpg/sg189_1_cif.got.tgz:373.got - 2010.04.01 12:03:36.
