data_PCOD8327242
_publ_section_title
;
Structure prediction by ZEFSAII (Michael W. Deem and Ramdas Pophale) SiO2 
 PCOD8327242
Probable space group: P -6 M 2
;
_chemical_formula_sum "Si O2"
_cell_formula_units_Z 66
_cell_length_a 22.126515
_cell_length_b 22.126515
_cell_length_c 7.879619
_cell_angle_alpha 90.000000
_cell_angle_beta 90.000000
_cell_angle_gamma 120.000000
_cell_volume 3340.887745
_symmetry_space_group_name_H-M "P -6 M 2"
_symmetry_group_IT_number 187
_symmetry_cell_setting 'hexagonal'
loop_
_space_group_symop_operation_xyz
x,y,z
-x+y,-x,-z
-y,x-y,z
x,y,-z
-x+y,-x,z
-y,x-y,-z
-y,-x,-z
-x+y,y,-z
x,x-y,-z
-x+y,y,z
x,x-y,z
-y,-x,z
loop_
_atom_site_type_symbol
_atom_site_label
_atom_site_fract_x
_atom_site_fract_y
_atom_site_fract_z
Si Si1 0.058040 0.407511 0.190407
Si Si2 0.466884 0.666519 0.695627
Si Si3 0.999403 0.863494 0.799442
Si Si4 0.810356 0.476763 0.500000
Si Si5 0.073933 0.285624 0.693859
Si Si6 0.615592 0.526770 0.194488
O O1 0.123501 0.465648 0.292517
O O2 0.058039 0.335191 0.191972
O O3 0.984119 0.393500 0.262706
O O4 0.065889 0.435270 0.000000
O O5 0.450945 0.667704 0.500000
O O6 0.479283 0.739642 0.778023
O O7 0.399525 0.600475 0.781734
O O8 0.926518 0.853035 0.731408
O O9 0.010991 0.804386 0.713157
O O10 0.998586 0.854851 0.000000
O O11 0.059963 0.940038 0.743725
O O12 0.737106 0.474211 0.500000
O O13 0.796506 0.398253 0.500000
O O14 0.851711 0.516996 0.671423
O O15 0.080839 0.310015 0.500000
O O16 0.145199 0.290398 0.759305
O O17 0.540168 0.459833 0.197654
O O18 0.646068 0.539576 0.000000
#
# Coordination Sequence:
#
# PCOD8327242 Si02
#       6
#    12  12  12   6  12  12
#     4  11  22  36  56  80 107 144 191 235 278 333
#     4  10  21  36  55  80 112 149 189 234 285 339
#     4   9  17  31  52  76 101 131 169 215 269 328
#     4  10  21  38  64  94 123 154 188 228 280 340
#     4  10  21  35  51  74 105 139 180 229 278 331
#     4   9  20  38  59  87 121 153 190 237 283 332
#
# _framework density 19.755229
#
# number of rings (size 3 to 8) (size 9 to 14) (size 15 to 20)
#    0.000    2.182    0.000    2.636    2.545    6.909 
#    0.000    0.909    0.000    4.364    0.000    0.000 
#    0.000    0.000    0.000    0.000    0.000    0.000 
#
# Total GULP energy -818288.427230 kJ/mol
# GULP energy per Si atom -12398.309503 kJ/mol
# Density = 1.971027 g / cm^3
# Si number density = 19.755229 Si / 1000 Ang^3
#
#
#
# Elastic Constant Matrix: (Units=GPa)
#
#
# Indices 1 2 3 4 5 6 
#
# 1 118.7590 62.0854 33.7247 0.0000 -0.0002 0.0000
# 2 62.0854 118.7590 33.7247 0.0000 0.0002 0.0000
# 3 33.7247 33.7247 60.0890 0.0000 0.0000 0.0000
# 4 0.0000 0.0000 0.0000 20.9818 0.0000 0.0002
# 5 -0.0002 0.0002 0.0000 0.0000 20.9818 0.0000
# 6 0.0000 0.0000 0.0000 0.0002 0.0000 28.3368
#
#
#
# Elastic Compliance Matrix: (Units=1/GPa)
#
#
# Indices 1 2 3 4 5 6 
#
# 1 0.012319 -0.005326 -0.003925 0.000000 0.000000 0.000000
# 2 -0.005326 0.012319 -0.003925 0.000000 0.000000 0.000000
# 3 -0.003925 -0.003925 0.021048 0.000000 0.000000 0.000000
# 4 0.000000 0.000000 0.000000 0.047660 0.000000 0.000000
# 5 0.000000 0.000000 0.000000 0.000000 0.047660 0.000000
# 6 0.000000 0.000000 0.000000 0.000000 0.000000 0.035290
#
#
# Mechanical properties :
#
#
# Convention : Reuss Voigt Hill
#
# Bulk Modulus (GPa) = 51.72080 61.85295 56.78688
# Shear Modulus (GPa) = 23.91277 25.26492 24.58884
#
# Velocity S-wave (km/s) = 3.48293 3.58005 3.53182
# Velocity P-wave (km/s) = 6.51245 6.96180 6.74087
#
# Compressibility (1/GPa) = 0.01933458
#
# Stress axis : x y z
#
# Youngs Moduli (GPa) = 81.17400 81.17400 47.51072
#
# Poissons Ratio (x) = 0.43230 0.18648
# Poissons Ratio (y) = 0.43230 0.18648
# Poissons Ratio (z) = 0.31862 0.31862
#
# Static dielectric constant tensor:
#      x y z
#    x 3.573630 0.000000 0.000000 
#    y 0.000000 3.573630 0.000000 
#    z 0.000000 0.000000 3.608830 
# 
# 
# High freq. dielectric constant tensor:
#      x y z
#    x 1.764850 0.000000 0.000000 
#    y 0.000000 1.764850 0.000000 
#    z 0.000000 0.000000 1.765040 
# 
# From -- ./inp_files/737.got.cif
#   From: 2010.03.12/outbox.cif.g09.slc.cpg/sg187_1_cif.got.tgz:737.got - 2010.04.01 11:58:23.
