data_PCOD8327623
_publ_section_title
;
Structure prediction by ZEFSAII (Michael W. Deem and Ramdas Pophale) SiO2 
 PCOD8327623
Probable space group: P -6 2 M
;
_chemical_formula_sum "Si O2"
_cell_formula_units_Z 72
_cell_length_a 22.956383
_cell_length_b 22.956383
_cell_length_c 9.209584
_cell_angle_alpha 90.000000
_cell_angle_beta 90.000000
_cell_angle_gamma 120.000000
_cell_volume 4203.175933
_symmetry_space_group_name_H-M "P -6 2 M"
_symmetry_group_IT_number 189
_symmetry_cell_setting 'hexagonal'
loop_
_space_group_symop_operation_xyz
x,y,z
-x+y,-x,-z
-y,x-y,z
x,y,-z
-x+y,-x,z
-y,x-y,-z
x-y,-y,-z
-x,-x+y,-z
y,x,-z
y,x,z
x-y,-y,z
-x,-x+y,z
loop_
_atom_site_type_symbol
_atom_site_label
_atom_site_fract_x
_atom_site_fract_y
_atom_site_fract_z
Si Si1 0.450201 0.373529 0.669254
Si Si2 0.698052 0.698052 0.337222
Si Si3 0.164725 0.000000 0.339423
Si Si4 0.413880 0.125861 0.170961
Si Si5 0.777188 0.923713 0.326430
Si Si6 0.158418 0.781067 0.328296
Si Si7 0.076831 0.514134 0.832166
O O1 0.464649 0.381802 0.500000
O O2 0.402528 0.402528 0.718319
O O3 0.412132 0.296433 0.715922
O O4 0.522382 0.415592 0.746953
O O5 0.670674 0.670674 0.500000
O O6 0.766555 0.766555 0.351685
O O7 0.712081 0.647648 0.248407
O O8 0.136935 0.000000 0.500000
O O9 0.109802 0.930009 0.262276
O O10 0.420461 0.192618 0.241623
O O11 0.481663 0.123295 0.202132
O O12 0.399396 0.122624 0.000000
O O13 0.777685 0.922087 0.500000
O O14 0.699946 0.881677 0.273728
O O15 0.810740 0.000000 0.268320
O O16 0.172714 0.791630 0.500000
O O17 0.000000 0.461508 0.783606
O O18 0.078861 0.531221 0.000000
#
# Coordination Sequence:
#
# PCOD8327623 Si02
#       7
#    12   6   6  12  12  12  12
#     4   9  18  32  51  76 102 130 168 210 251 298
#     4  11  19  31  51  75 103 131 164 209 258 310
#     4   9  16  27  43  69  97 129 170 209 260 310
#     4  11  21  33  50  76 106 135 167 204 251 309
#     4   9  16  27  44  66  96 133 171 214 261 304
#     4  10  19  32  50  74 102 133 169 211 257 302
#     4   9  18  33  50  70 100 132 159 195 244 297
#
# _framework density 17.129902999999999
#
# number of rings (size 3 to 8) (size 9 to 14) (size 15 to 20)
#    0.000    2.333    2.500    1.250    0.000    4.000 
#    0.500    0.000    0.000    2.167    0.000    0.000 
#    0.000    0.000    0.000    0.000    0.000    0.000 
#
# Total GULP energy -892548.971776 kJ/mol
# GULP energy per Si atom -12396.513497 kJ/mol
# Density = 1.709091 g / cm^3
# Si number density = 17.129903 Si / 1000 Ang^3
#
#
#
# Elastic Constant Matrix: (Units=GPa)
#
#
# Indices 1 2 3 4 5 6 
#
# 1 123.0270 63.2420 40.9557 0.0000 0.0000 0.0000
# 2 63.2420 123.0270 40.9557 0.0000 0.0000 0.0000
# 3 40.9557 40.9557 47.0945 0.0000 0.0000 0.0000
# 4 0.0000 0.0000 0.0000 21.0747 0.0000 0.0000
# 5 0.0000 0.0000 0.0000 0.0000 21.0747 0.0000
# 6 0.0000 0.0000 0.0000 0.0000 0.0000 29.8925
#
#
#
# Elastic Compliance Matrix: (Units=1/GPa)
#
#
# Indices 1 2 3 4 5 6 
#
# 1 0.012710 -0.004017 -0.007560 0.000000 0.000000 0.000000
# 2 -0.004017 0.012710 -0.007560 0.000000 0.000000 0.000000
# 3 -0.007560 -0.007560 0.034383 0.000000 0.000000 0.000000
# 4 0.000000 0.000000 0.000000 0.047450 0.000000 0.000000
# 5 0.000000 0.000000 0.000000 0.000000 0.047450 0.000000
# 6 0.000000 0.000000 0.000000 0.000000 0.000000 0.033453
#
#
# Mechanical properties :
#
#
# Convention : Reuss Voigt Hill
#
# Bulk Modulus (GPa) = 46.44827 64.82837 55.63832
# Shear Modulus (GPa) = 21.40355 24.27468 22.83912
#
# Velocity S-wave (km/s) = 3.53864 3.76851 3.65538
# Velocity P-wave (km/s) = 6.62345 7.54075 7.09694
#
# Compressibility (1/GPa) = 0.02152933
#
# Stress axis : x y z
#
# Youngs Moduli (GPa) = 78.67927 78.67927 29.08425
#
# Poissons Ratio (x) = 0.31604 0.21987
# Poissons Ratio (y) = 0.31604 0.21987
# Poissons Ratio (z) = 0.59481 0.59481
#
# Static dielectric constant tensor:
#      x y z
#    x 3.373850 0.000000 0.000000 
#    y 0.000000 3.373850 0.000000 
#    z 0.000000 0.000000 3.006740 
# 
# 
# High freq. dielectric constant tensor:
#      x y z
#    x 1.656070 0.000000 0.000000 
#    y 0.000000 1.656070 0.000000 
#    z 0.000000 0.000000 1.635290 
# 
# From -- ./inp_files/1370.got.cif
#   From: 2010.03.12/outbox.cif.g09.slc.cpg/sg189_1_cif.got.tgz:1370.got - 2010.04.01 12:03:36.
