data_PCOD8327626
_publ_section_title
;
Structure prediction by ZEFSAII (Michael W. Deem and Ramdas Pophale) SiO2 
 PCOD8327626
Probable space group: P -6 2 M
;
_chemical_formula_sum "Si O2"
_cell_formula_units_Z 60
_cell_length_a 20.652104
_cell_length_b 20.652104
_cell_length_c 8.984516
_cell_angle_alpha 90.000000
_cell_angle_beta 90.000000
_cell_angle_gamma 120.000000
_cell_volume 3318.592482
_symmetry_space_group_name_H-M "P -6 2 M"
_symmetry_group_IT_number 189
_symmetry_cell_setting 'hexagonal'
loop_
_space_group_symop_operation_xyz
x,y,z
-x+y,-x,-z
-y,x-y,z
x,y,-z
-x+y,-x,z
-y,x-y,-z
x-y,-y,-z
-x,-x+y,-z
y,x,-z
y,x,z
x-y,-y,z
-x,-x+y,z
loop_
_atom_site_type_symbol
_atom_site_label
_atom_site_fract_x
_atom_site_fract_y
_atom_site_fract_z
Si Si1 0.645566 0.797748 0.174759
Si Si2 0.917399 0.917399 0.668309
Si Si3 0.808963 0.450499 0.324987
Si Si4 0.212066 0.522879 0.824035
Si Si5 0.704219 0.084321 0.326483
Si Si6 0.000000 0.217116 0.824038
O O1 0.564757 0.727996 0.216602
O O2 0.657282 0.873744 0.245674
O O3 0.709548 0.782439 0.239285
O O4 0.653611 0.810601 0.000000
O O5 0.890377 0.890377 0.500000
O O6 0.857972 0.857972 0.780326
O O7 0.000000 0.926650 0.693663
O O8 0.794595 0.435043 0.500000
O O9 0.734521 0.440669 0.248209
O O10 0.829830 0.392568 0.249956
O O11 0.877978 0.532253 0.290454
O O12 0.220082 0.536282 0.000000
O O13 0.720822 0.087336 0.500000
O O14 0.659112 0.000000 0.266333
O O15 0.000000 0.220973 0.000000
#
# Coordination Sequence:
#
# PCOD8327626 Si02
#       6
#    12   6  12  12  12   6
#     4   9  20  36  53  74 104 138 172 211 253 306
#     4   8  18  36  54  76 106 133 164 209 254 301
#     4  10  19  32  52  75 102 134 171 214 259 305
#     4  10  19  33  51  74 103 136 174 213 257 305
#     4   9  19  36  55  76 103 135 171 213 259 305
#     4  10  20  36  56  78 106 139 172 209 256 307
#
# _framework density 18.079955000000002
#
# number of rings (size 3 to 8) (size 9 to 14) (size 15 to 20)
#    0.200    2.400    0.000    1.600    0.000    4.000 
#    1.800    4.000    0.000    0.000    0.000    0.000 
#    0.000    0.000    0.000    0.000    0.000    0.000 
#
# Total GULP energy -743999.012427 kJ/mol
# GULP energy per Si atom -12399.983540 kJ/mol
# Density = 1.803880 g / cm^3
# Si number density = 18.079955 Si / 1000 Ang^3
#
#
#
# Elastic Constant Matrix: (Units=GPa)
#
#
# Indices 1 2 3 4 5 6 
#
# 1 129.7387 80.8383 43.2534 0.0000 0.0000 0.0000
# 2 80.8383 129.7387 43.2534 0.0000 0.0000 0.0000
# 3 43.2534 43.2534 55.6464 0.0000 0.0000 0.0000
# 4 0.0000 0.0000 0.0000 27.1226 0.0000 0.0000
# 5 0.0000 0.0000 0.0000 0.0000 27.1226 0.0000
# 6 0.0000 0.0000 0.0000 0.0000 0.0000 24.4502
#
#
#
# Elastic Compliance Matrix: (Units=1/GPa)
#
#
# Indices 1 2 3 4 5 6 
#
# 1 0.013713 -0.006737 -0.005423 0.000000 0.000000 0.000000
# 2 -0.006737 0.013713 -0.005423 0.000000 0.000000 0.000000
# 3 -0.005423 -0.005423 0.026401 0.000000 0.000000 0.000000
# 4 0.000000 0.000000 0.000000 0.036870 0.000000 0.000000
# 5 0.000000 0.000000 0.000000 0.000000 0.036870 0.000000
# 6 0.000000 0.000000 0.000000 0.000000 0.000000 0.040899
#
#
# Mechanical properties :
#
#
# Convention : Reuss Voigt Hill
#
# Bulk Modulus (GPa) = 53.58284 72.20155 62.89220
# Shear Modulus (GPa) = 23.82640 25.59100 24.70870
#
# Velocity S-wave (km/s) = 3.63414 3.76631 3.70081
# Velocity P-wave (km/s) = 6.87824 7.67690 7.28852
#
# Compressibility (1/GPa) = 0.01866269
#
# Stress axis : x y z
#
# Youngs Moduli (GPa) = 72.92268 72.92268 37.87757
#
# Poissons Ratio (x) = 0.49125 0.20540
# Poissons Ratio (y) = 0.49125 0.20540
# Poissons Ratio (z) = 0.39545 0.39545
#
# Static dielectric constant tensor:
#      x y z
#    x 3.395990 0.000000 0.000000 
#    y 0.000000 3.395990 0.000000 
#    z 0.000000 0.000000 3.271460 
# 
# 
# High freq. dielectric constant tensor:
#      x y z
#    x 1.696820 0.000000 0.000000 
#    y 0.000000 1.696820 0.000000 
#    z 0.000000 0.000000 1.700380 
# 
# From -- ./inp_files/941.got.cif
#   From: 2010.03.12/outbox.cif.g09.slc.cpg/sg189_1_cif.got.tgz:941.got - 2010.04.01 12:03:36.
