data_PCOD8327336
_publ_section_title
;
Structure prediction by ZEFSAII (Michael W. Deem and Ramdas Pophale) SiO2 
 PCOD8327336
Probable space group: P -6 C 2
;
_chemical_formula_sum "Si O2"
_cell_formula_units_Z 34
_cell_length_a 8.400283
_cell_length_b 8.400283
_cell_length_c 28.484802
_cell_angle_alpha 90.000000
_cell_angle_beta 90.000000
_cell_angle_gamma 120.000000
_cell_volume 1740.731032
_symmetry_space_group_name_H-M "P -6 C 2"
_symmetry_group_IT_number 188
_symmetry_cell_setting 'hexagonal'
loop_
_space_group_symop_operation_xyz
x,y,z
-x+y,-x,1/2-z
-y,x-y,z
x,y,1/2-z
-x+y,-x,z
-y,x-y,1/2-z
-y,-x,-z
-x+y,y,-z
x,x-y,-z
-x+y,y,1/2+z
x,x-y,1/2+z
-y,-x,1/2+z
loop_
_atom_site_type_symbol
_atom_site_label
_atom_site_fract_x
_atom_site_fract_y
_atom_site_fract_z
Si Si1 0.293114 0.335440 0.652305
Si Si2 0.366867 0.037222 0.618465
Si Si3 0.666668 0.333334 0.444706
Si Si4 0.143348 0.911354 0.250000
O O1 0.276092 0.137767 0.646397
O O2 0.505432 0.485817 0.649917
O O3 0.221645 0.355146 0.703313
O O4 0.170117 0.363209 0.611565
O O5 0.474842 0.155153 0.572215
O O6 0.666668 0.333334 0.500000
O O7 0.208146 0.129640 0.250000
#
# Coordination Sequence:
#
# PCOD8327336 Si02
#       4
#    12  12   4   6
#     4  11  20  36  56  85 114 161 191 245 291 341
#     4  10  21  37  59  84 121 152 198 244 306 356
#     4   9  21  42  66  91 116 151 198 255 312 381
#     4  10  18  32  56  80 116 154 204 236 278 350
#
# _framework density 19.532022999999999
#
# number of rings (size 3 to 8) (size 9 to 14) (size 15 to 20)
#    0.353    1.412    3.529    2.118    0.000    2.824 
#    0.000    7.059    0.000    0.000    0.000    0.000 
#    0.000    0.000    0.000    0.000    0.000    0.000 
#
# Total GULP energy -421210.148649 kJ/mol
# GULP energy per Si atom -12388.533784 kJ/mol
# Density = 1.948757 g / cm^3
# Si number density = 19.532023 Si / 1000 Ang^3
#
#
#
# Elastic Constant Matrix: (Units=GPa)
#
#
# Indices 1 2 3 4 5 6 
#
# 1 95.2547 13.1918 35.9583 -0.0001 0.0000 0.0000
# 2 13.1918 95.2551 35.9584 -0.0001 0.0000 0.0001
# 3 35.9583 35.9584 111.8585 -0.0001 0.0000 0.0000
# 4 -0.0001 -0.0001 -0.0001 19.0095 0.0000 0.0000
# 5 0.0000 0.0000 0.0000 0.0000 19.0093 0.0000
# 6 0.0000 0.0001 0.0000 0.0000 0.0000 41.0316
#
#
#
# Elastic Compliance Matrix: (Units=1/GPa)
#
#
# Indices 1 2 3 4 5 6 
#
# 1 0.011953 -0.000233 -0.003767 0.000000 0.000000 0.000000
# 2 -0.000233 0.011953 -0.003767 0.000000 0.000000 0.000000
# 3 -0.003767 -0.003767 0.011362 0.000000 0.000000 0.000000
# 4 0.000000 0.000000 0.000000 0.052605 0.000000 0.000000
# 5 0.000000 0.000000 0.000000 0.000000 0.052606 0.000000
# 6 0.000000 0.000000 0.000000 0.000000 0.000000 0.024371
#
#
# Mechanical properties :
#
#
# Convention : Reuss Voigt Hill
#
# Bulk Modulus (GPa) = 50.68051 52.50946 51.59499
# Shear Modulus (GPa) = 26.74331 30.29407 28.51869
#
# Velocity S-wave (km/s) = 3.70429 3.94254 3.82527
# Velocity P-wave (km/s) = 6.65578 6.90413 6.78109
#
# Compressibility (1/GPa) = 0.01973145
#
# Stress axis : x y z
#
# Youngs Moduli (GPa) = 83.66359 83.66398 88.01269
#
# Poissons Ratio (x) = 0.01951 0.33158
# Poissons Ratio (y) = 0.01951 0.33158
# Poissons Ratio (z) = 0.31519 0.31519
#
# Static dielectric constant tensor:
#      x y z
#    x 3.723050 0.000000 0.000000 
#    y 0.000000 3.723040 0.000000 
#    z 0.000000 0.000000 3.060890 
# 
# 
# High freq. dielectric constant tensor:
#      x y z
#    x 1.770100 0.000000 0.000000 
#    y 0.000000 1.770100 0.000000 
#    z 0.000000 0.000000 1.706180 
# 
# From -- ./inp_files/4162.got.cif
#   From: 2010.03.12/outbox.cif.g09.slc.cpg/sg188_3_cif.got.tgz:4162.got - 2010.04.01 12:01:06.
