data_PCOD8327183
_publ_section_title
;
Structure prediction by ZEFSAII (Michael W. Deem and Ramdas Pophale) SiO2 
 PCOD8327183
Probable space group: P -6 M 2
;
_chemical_formula_sum "Si O2"
_cell_formula_units_Z 54
_cell_length_a 12.473822
_cell_length_b 12.473822
_cell_length_c 22.986489
_cell_angle_alpha 90.000000
_cell_angle_beta 90.000000
_cell_angle_gamma 120.000000
_cell_volume 3097.436116
_symmetry_space_group_name_H-M "P -6 M 2"
_symmetry_group_IT_number 187
_symmetry_cell_setting 'hexagonal'
loop_
_space_group_symop_operation_xyz
x,y,z
-x+y,-x,-z
-y,x-y,z
x,y,-z
-x+y,-x,z
-y,x-y,-z
-y,-x,-z
-x+y,y,-z
x,x-y,-z
-x+y,y,z
x,x-y,z
-y,-x,z
loop_
_atom_site_type_symbol
_atom_site_label
_atom_site_fract_x
_atom_site_fract_y
_atom_site_fract_z
Si Si1 0.251355 0.001350 0.889428
Si Si2 0.913088 0.580165 0.433793
Si Si3 0.415150 0.331970 0.000000
Si Si4 0.248858 0.000865 0.329563
Si Si5 0.668234 0.084370 0.779528
O O1 0.213816 0.106908 0.891110
O O2 0.321125 0.006710 0.830236
O O3 0.337604 0.013769 0.943277
O O4 0.128808 0.871193 0.893492
O O5 0.954838 0.622763 0.500000
O O6 0.769870 0.539740 0.424342
O O7 0.927844 0.463922 0.416962
O O8 0.999761 0.695050 0.392592
O O9 0.538334 0.461667 0.000000
O O10 0.451970 0.225985 0.000000
O O11 0.131194 0.868807 0.317655
O O12 0.206982 0.103491 0.326306
O O13 0.352401 0.027351 0.281794
O O14 0.535986 0.071971 0.786245
O O15 0.771722 0.228279 0.784021
#
# Coordination Sequence:
#
# PCOD8327183 Si02
#       5
#    12  12   6  12  12
#     4  10  20  34  54  78 104 134 167 205 247 293
#     4   9  17  30  50  75 100 126 158 200 249 296
#     4  10  20  34  54  78 104 134 168 210 256 298
#     4  10  20  33  50  72  99 131 165 202 244 291
#     4  10  20  34  54  78 102 128 160 203 252 298
#
# _framework density 17.433774
#
# number of rings (size 3 to 8) (size 9 to 14) (size 15 to 20)
#    0.000    2.222    0.000    3.333    0.000    1.333 
#    0.000    7.778    0.000   16.444    0.000    0.000 
#    0.000    0.000    0.000    0.000    0.000    0.000 
#
# Total GULP energy -669780.131082 kJ/mol
# GULP energy per Si atom -12403.335761 kJ/mol
# Density = 1.739409 g / cm^3
# Si number density = 17.433774 Si / 1000 Ang^3
#
#
#
# Elastic Constant Matrix: (Units=GPa)
#
#
# Indices 1 2 3 4 5 6 
#
# 1 107.9211 67.1921 43.8808 0.0000 0.0001 0.0000
# 2 67.1921 107.9211 43.8808 0.0000 -0.0001 0.0000
# 3 43.8808 43.8808 107.1709 0.0000 0.0000 0.0000
# 4 0.0000 0.0000 0.0000 15.1695 0.0000 -0.0001
# 5 0.0001 -0.0001 0.0000 0.0000 15.1695 0.0000
# 6 0.0000 0.0000 0.0000 -0.0001 0.0000 20.3645
#
#
#
# Elastic Compliance Matrix: (Units=1/GPa)
#
#
# Indices 1 2 3 4 5 6 
#
# 1 0.015869 -0.008684 -0.002942 0.000000 0.000000 0.000000
# 2 -0.008684 0.015869 -0.002942 0.000000 0.000000 0.000000
# 3 -0.002942 -0.002942 0.011740 0.000000 0.000000 0.000000
# 4 0.000000 0.000000 0.000000 0.065922 0.000000 0.000000
# 5 0.000000 0.000000 0.000000 0.000000 0.065922 0.000000
# 6 0.000000 0.000000 0.000000 0.000000 0.000000 0.049105
#
#
# Mechanical properties :
#
#
# Convention : Reuss Voigt Hill
#
# Bulk Modulus (GPa) = 69.72309 70.32448 70.02379
# Shear Modulus (GPa) = 19.35418 21.34465 20.34941
#
# Velocity S-wave (km/s) = 3.33551 3.50284 3.42020
# Velocity P-wave (km/s) = 7.41041 7.53561 7.47327
#
# Compressibility (1/GPa) = 0.01434245
#
# Stress axis : x y z
#
# Youngs Moduli (GPa) = 63.01697 63.01697 85.17916
#
# Poissons Ratio (x) = 0.54723 0.25059
# Poissons Ratio (y) = 0.54723 0.25059
# Poissons Ratio (z) = 0.18539 0.18539
#
# Static dielectric constant tensor:
#      x y z
#    x 3.052580 0.000000 0.000000 
#    y 0.000000 3.052580 0.000000 
#    z 0.000000 0.000000 3.547120 
# 
# 
# High freq. dielectric constant tensor:
#      x y z
#    x 1.662810 0.000000 0.000000 
#    y 0.000000 1.662810 0.000000 
#    z 0.000000 0.000000 1.696250 
# 
# From -- ./inp_files/3452.got.cif
#   From: 2010.03.12/outbox.cif.g09.slc.cpg/sg187_2_cif.got.tgz:3452.got - 2010.04.01 11:58:23.
