data_PCOD8327457
_publ_section_title
;
Structure prediction by ZEFSAII (Michael W. Deem and Ramdas Pophale) SiO2 
 PCOD8327457
Probable space group: P -6 C 2
;
_chemical_formula_sum "Si O2"
_cell_formula_units_Z 54
_cell_length_a 15.129788
_cell_length_b 15.129788
_cell_length_c 15.115815
_cell_angle_alpha 90.000000
_cell_angle_beta 90.000000
_cell_angle_gamma 120.000000
_cell_volume 2996.593858
_symmetry_space_group_name_H-M "P -6 C 2"
_symmetry_group_IT_number 188
_symmetry_cell_setting 'hexagonal'
loop_
_space_group_symop_operation_xyz
x,y,z
-x+y,-x,1/2-z
-y,x-y,z
x,y,1/2-z
-x+y,-x,z
-y,x-y,1/2-z
-y,-x,-z
-x+y,y,-z
x,x-y,-z
-x+y,y,1/2+z
x,x-y,1/2+z
-y,-x,1/2+z
loop_
_atom_site_type_symbol
_atom_site_label
_atom_site_fract_x
_atom_site_fract_y
_atom_site_fract_z
Si Si1 0.799520 0.799586 0.649699
Si Si2 0.032224 0.516112 0.500000
Si Si3 0.719042 0.640087 0.500000
Si Si4 0.202556 0.601278 0.351150
Si Si5 0.000067 0.200480 0.149699
O O1 0.762560 0.765413 0.750000
O O2 0.733134 0.704477 0.587787
O O3 0.919016 0.838032 0.639389
O O4 0.782555 0.891278 0.619897
O O5 0.104948 0.552474 0.414312
O O6 0.950530 0.397127 0.500000
O O7 0.798510 0.597020 0.500000
O O8 0.733134 0.704477 0.412214
O O9 0.275642 0.551284 0.367420
O O10 0.162963 0.581482 0.250000
O O11 0.002853 0.237440 0.250000
#
# Coordination Sequence:
#
# PCOD8327457 Si02
#       5
#    12   6  12  12  12
#     4   9  17  31  52  79 111 141 165 198 250 317
#     4  12  22  36  60  76  98 148 188 224 282 326
#     4  10  23  38  49  73 104 133 182 236 267 300
#     4   8  18  36  56  86 122 142 164 210 267 342
#     4   9  17  31  52  79 111 141 165 198 250 317
#
# _framework density 18.020461999999998
#
# number of rings (size 3 to 8) (size 9 to 14) (size 15 to 20)
#    0.444    2.222    0.000    1.778    0.000    7.111 
#    0.667    6.667    0.000    0.000    0.000    0.000 
#    0.000    0.000    0.000    0.000    0.000    0.000 
#
# Total GULP energy -669241.110106 kJ/mol
# GULP energy per Si atom -12393.353891 kJ/mol
# Density = 1.797945 g / cm^3
# Si number density = 18.020462 Si / 1000 Ang^3
#
#
#
# Elastic Constant Matrix: (Units=GPa)
#
#
# Indices 1 2 3 4 5 6 
#
# 1 112.1432 77.5364 58.2527 0.0000 0.0000 0.0000
# 2 77.5364 112.1432 58.2527 0.0000 0.0000 0.0000
# 3 58.2527 58.2527 108.8005 0.0000 0.0000 0.0000
# 4 0.0000 0.0000 0.0000 7.7742 0.0000 0.0000
# 5 0.0000 0.0000 0.0000 0.0000 7.7742 0.0000
# 6 0.0000 0.0000 0.0000 0.0000 0.0000 17.3034
#
#
#
# Elastic Compliance Matrix: (Units=1/GPa)
#
#
# Indices 1 2 3 4 5 6 
#
# 1 0.018376 -0.010520 -0.004206 0.000000 0.000000 0.000000
# 2 -0.010520 0.018376 -0.004206 0.000000 0.000000 0.000000
# 3 -0.004206 -0.004206 0.013695 0.000000 0.000000 0.000000
# 4 0.000000 0.000000 0.000000 0.128630 0.000000 0.000000
# 5 0.000000 0.000000 0.000000 0.000000 0.128630 0.000000
# 6 0.000000 0.000000 0.000000 0.000000 0.000000 0.057792
#
#
# Mechanical properties :
#
#
# Convention : Reuss Voigt Hill
#
# Bulk Modulus (GPa) = 79.47725 80.13007 79.80366
# Shear Modulus (GPa) = 12.26825 15.84006 14.05415
#
# Velocity S-wave (km/s) = 2.61204 2.96802 2.79570
# Velocity P-wave (km/s) = 7.30045 7.50388 7.40286
#
# Compressibility (1/GPa) = 0.01258222
#
# Stress axis : x y z
#
# Youngs Moduli (GPa) = 54.41976 54.41976 73.02036
#
# Poissons Ratio (x) = 0.57251 0.30711
# Poissons Ratio (y) = 0.57251 0.30711
# Poissons Ratio (z) = 0.22888 0.22888
#
# Static dielectric constant tensor:
#      x y z
#    x 3.092150 0.000000 0.000000 
#    y 0.000000 3.092150 0.000000 
#    z 0.000000 0.000000 3.701730 
# 
# 
# High freq. dielectric constant tensor:
#      x y z
#    x 1.672960 0.000000 0.000000 
#    y 0.000000 1.672960 0.000000 
#    z 0.000000 0.000000 1.716250 
# 
# From -- ./inp_files/2183.got.cif
#   From: 2010.03.12/outbox.cif.g09.slc.cpg/sg188_2_cif.got.tgz:2183.got - 2010.04.01 12:01:06.
