data_PCOD8327615
_publ_section_title
;
Structure prediction by ZEFSAII (Michael W. Deem and Ramdas Pophale) SiO2 
 PCOD8327615
Probable space group: P -6 2 M
;
_chemical_formula_sum "Si O2"
_cell_formula_units_Z 66
_cell_length_a 22.581378
_cell_length_b 22.581378
_cell_length_c 8.062052
_cell_angle_alpha 90.000000
_cell_angle_beta 90.000000
_cell_angle_gamma 120.000000
_cell_volume 3560.222234
_symmetry_space_group_name_H-M "P -6 2 M"
_symmetry_group_IT_number 189
_symmetry_cell_setting 'hexagonal'
loop_
_space_group_symop_operation_xyz
x,y,z
-x+y,-x,-z
-y,x-y,z
x,y,-z
-x+y,-x,z
-y,x-y,-z
x-y,-y,-z
-x,-x+y,-z
y,x,-z
y,x,z
x-y,-y,z
-x,-x+y,z
loop_
_atom_site_type_symbol
_atom_site_label
_atom_site_fract_x
_atom_site_fract_y
_atom_site_fract_z
Si Si1 0.657957 0.582154 0.307036
Si Si2 0.239866 0.162035 0.188898
Si Si3 0.182367 0.383897 0.808037
Si Si4 0.920460 0.078115 0.500000
Si Si5 0.701691 0.228485 0.809530
Si Si6 0.807315 0.368272 0.691195
O O1 0.643734 0.578328 0.500000
O O2 0.618983 0.618983 0.222687
O O3 0.739565 0.626686 0.275652
O O4 0.628585 0.504814 0.236936
O O5 0.223519 0.223519 0.207598
O O6 0.319672 0.192614 0.224459
O O7 0.200106 0.105852 0.329517
O O8 0.220985 0.131120 0.000000
O O9 0.249263 0.450614 0.736029
O O10 0.175887 0.396375 0.000000
O O11 0.000000 0.126993 0.500000
O O12 0.902362 0.000000 0.500000
O O13 0.740664 0.310451 0.786718
O O14 0.630087 0.189848 0.712388
O O15 0.684068 0.208892 0.000000
O O16 0.799130 0.347044 0.500000
#
# Coordination Sequence:
#
# PCOD8327615 Si02
#       6
#    12  12  12   6  12  12
#     4   9  19  34  51  71 100 135 166 203 254 307
#     4   9  19  37  57  78 109 144 177 217 263 312
#     4   9  19  34  52  75 100 131 172 215 258 306
#     4  10  21  36  56  82 110 140 174 212 258 310
#     4  10  19  32  50  72  98 129 168 214 260 306
#     4  10  19  32  49  71  98 130 166 206 254 307
#
# _framework density 18.538169
#
# number of rings (size 3 to 8) (size 9 to 14) (size 15 to 20)
#    0.000    2.545    0.000    1.545    1.273    2.909 
#    0.000    2.727    0.000    2.182    0.000    0.000 
#    0.000    0.000    0.000    0.000    0.000    0.000 
#
# Total GULP energy -818131.620609 kJ/mol
# GULP energy per Si atom -12395.933646 kJ/mol
# Density = 1.849598 g / cm^3
# Si number density = 18.538169 Si / 1000 Ang^3
#
#
#
# Elastic Constant Matrix: (Units=GPa)
#
#
# Indices 1 2 3 4 5 6 
#
# 1 123.1698 78.8379 32.9598 0.0000 0.0000 0.0000
# 2 78.8379 123.1698 32.9598 0.0000 0.0000 0.0000
# 3 32.9598 32.9598 59.5498 0.0000 0.0000 0.0000
# 4 0.0000 0.0000 0.0000 21.0836 0.0000 0.0000
# 5 0.0000 0.0000 0.0000 0.0000 21.0836 0.0000
# 6 0.0000 0.0000 0.0000 0.0000 0.0000 22.1660
#
#
#
# Elastic Compliance Matrix: (Units=1/GPa)
#
#
# Indices 1 2 3 4 5 6 
#
# 1 0.014299 -0.008258 -0.003344 0.000000 0.000000 0.000000
# 2 -0.008258 0.014299 -0.003344 0.000000 0.000000 0.000000
# 3 -0.003344 -0.003344 0.020494 0.000000 0.000000 0.000000
# 4 0.000000 0.000000 0.000000 0.047430 0.000000 0.000000
# 5 0.000000 0.000000 0.000000 0.000000 0.047430 0.000000
# 6 0.000000 0.000000 0.000000 0.000000 0.000000 0.045114
#
#
# Mechanical properties :
#
#
# Convention : Reuss Voigt Hill
#
# Bulk Modulus (GPa) = 52.07862 66.15606 59.11734
# Shear Modulus (GPa) = 22.18683 23.60877 22.89780
#
# Velocity S-wave (km/s) = 3.46326 3.57252 3.51831
# Velocity P-wave (km/s) = 6.64423 7.26506 6.96157
#
# Compressibility (1/GPa) = 0.01920174
#
# Stress axis : x y z
#
# Youngs Moduli (GPa) = 69.93353 69.93353 48.79422
#
# Poissons Ratio (x) = 0.57750 0.16316
# Poissons Ratio (y) = 0.57750 0.16316
# Poissons Ratio (z) = 0.23385 0.23385
#
# Static dielectric constant tensor:
#      x y z
#    x 3.433550 0.000000 0.000000 
#    y 0.000000 3.433550 0.000000 
#    z 0.000000 0.000000 3.442690 
# 
# 
# High freq. dielectric constant tensor:
#      x y z
#    x 1.709510 0.000000 0.000000 
#    y 0.000000 1.709510 0.000000 
#    z 0.000000 0.000000 1.722010 
# 
# From -- ./inp_files/1029.got.cif
#   From: 2010.03.12/outbox.cif.g09.slc.cpg/sg189_1_cif.got.tgz:1029.got - 2010.04.01 12:03:36.
