data_PCOD8327466
_publ_section_title
;
Structure prediction by ZEFSAII (Michael W. Deem and Ramdas Pophale) SiO2 
 PCOD8327466
Probable space group: P -6 C 2
;
_chemical_formula_sum "Si O2"
_cell_formula_units_Z 34
_cell_length_a 10.581424
_cell_length_b 10.581424
_cell_length_c 15.264448
_cell_angle_alpha 90.000000
_cell_angle_beta 90.000000
_cell_angle_gamma 120.000000
_cell_volume 1480.130369
_symmetry_space_group_name_H-M "P -6 C 2"
_symmetry_group_IT_number 188
_symmetry_cell_setting 'hexagonal'
loop_
_space_group_symop_operation_xyz
x,y,z
-x+y,-x,1/2-z
-y,x-y,z
x,y,1/2-z
-x+y,-x,z
-y,x-y,1/2-z
-y,-x,-z
-x+y,y,-z
x,x-y,-z
-x+y,y,1/2+z
x,x-y,1/2+z
-y,-x,1/2+z
loop_
_atom_site_type_symbol
_atom_site_label
_atom_site_fract_x
_atom_site_fract_y
_atom_site_fract_z
Si Si1 0.746662 0.638963 0.088092
Si Si2 0.500816 0.680331 0.149766
Si Si3 0.186154 0.094753 0.250000
Si Si4 0.666668 0.333335 0.854207
O O1 0.626533 0.691467 0.085360
O O2 0.864708 0.715529 0.164206
O O3 0.654538 0.467321 0.107104
O O4 0.840238 0.680476 0.000000
O O5 0.470305 0.815023 0.133767
O O6 0.550479 0.679125 0.250000
O O7 0.082581 0.167064 0.250000
O O8 0.666667 0.333334 0.750000
#
# Coordination Sequence:
#
# PCOD8327466 Si02
#       4
#    12  12   6   4
#     4  12  24  45  75 114 154 193 251 318 381 461
#     4   8  17  38  73 115 142 190 251 310 389 436
#     4  10  26  48  70 104 142 204 256 292 380 442
#     4  12  25  47  76 109 146 208 250 311 391 445
#
# _framework density 22.970949999999998
#
# number of rings (size 3 to 8) (size 9 to 14) (size 15 to 20)
#    1.059    0.706    3.529    1.059    0.000    4.235 
#    0.000    3.529    0.000    0.000    0.000    0.000 
#    0.000    0.000    0.000    0.000    0.000    0.000 
#
# Total GULP energy -421456.926007 kJ/mol
# GULP energy per Si atom -12395.791941 kJ/mol
# Density = 2.291867 g / cm^3
# Si number density = 22.970950 Si / 1000 Ang^3
#
#
#
# Elastic Constant Matrix: (Units=GPa)
#
#
# Indices 1 2 3 4 5 6 
#
# 1 97.1338 28.1845 58.4514 -0.0002 0.0002 0.0001
# 2 28.1845 97.1338 58.4519 0.0005 -0.0002 0.0000
# 3 58.4514 58.4519 165.0483 -0.0001 -0.0001 0.0002
# 4 -0.0002 0.0005 -0.0001 30.8508 -0.0001 0.0002
# 5 0.0002 -0.0002 -0.0001 -0.0001 30.8511 0.0002
# 6 0.0001 0.0000 0.0002 0.0002 0.0002 34.4755
#
#
#
# Elastic Compliance Matrix: (Units=1/GPa)
#
#
# Indices 1 2 3 4 5 6 
#
# 1 0.013210 -0.001293 -0.004220 0.000000 0.000000 0.000000
# 2 -0.001293 0.013210 -0.004220 0.000000 0.000000 0.000000
# 3 -0.004220 -0.004220 0.009048 0.000000 0.000000 0.000000
# 4 0.000000 0.000000 0.000000 0.032414 0.000000 0.000000
# 5 0.000000 0.000000 0.000000 0.000000 0.032414 0.000000
# 6 0.000000 0.000000 0.000000 0.000000 0.000000 0.029006
#
#
# Mechanical properties :
#
#
# Convention : Reuss Voigt Hill
#
# Bulk Modulus (GPa) = 62.49936 72.16573 67.33254
# Shear Modulus (GPa) = 32.44581 33.51733 32.98157
#
# Velocity S-wave (km/s) = 3.76236 3.82398 3.79330
# Velocity P-wave (km/s) = 6.79271 7.14013 6.96858
#
# Compressibility (1/GPa) = 0.01600016
#
# Stress axis : x y z
#
# Youngs Moduli (GPa) = 75.70054 75.70022 110.52147
#
# Poissons Ratio (x) = 0.09791 0.46642
# Poissons Ratio (y) = 0.09791 0.46643
# Poissons Ratio (z) = 0.31947 0.31947
#
# Static dielectric constant tensor:
#      x y z
#    x 3.935900 0.000000 0.000000 
#    y 0.000000 3.935880 0.000000 
#    z 0.000000 0.000000 3.892680 
# 
# 
# High freq. dielectric constant tensor:
#      x y z
#    x 1.902720 0.000000 0.000000 
#    y 0.000000 1.902720 0.000000 
#    z 0.000000 0.000000 1.894760 
# 
# From -- ./inp_files/1959.got.cif
#   From: 2010.03.12/outbox.cif.g09.slc.cpg/sg188_1_cif.got.tgz:1959.got - 2010.04.01 12:01:06.
