data_PCOD8327705
_publ_section_title
;
Structure prediction by ZEFSAII (Michael W. Deem and Ramdas Pophale) SiO2 
 PCOD8327705
Probable space group: P -6 2 M
;
_chemical_formula_sum "Si O2"
_cell_formula_units_Z 66
_cell_length_a 18.074054
_cell_length_b 18.074054
_cell_length_c 13.951062
_cell_angle_alpha 90.000000
_cell_angle_beta 90.000000
_cell_angle_gamma 120.000000
_cell_volume 3946.835733
_symmetry_space_group_name_H-M "P -6 2 M"
_symmetry_group_IT_number 189
_symmetry_cell_setting 'hexagonal'
loop_
_space_group_symop_operation_xyz
x,y,z
-x+y,-x,-z
-y,x-y,z
x,y,-z
-x+y,-x,z
-y,x-y,-z
x-y,-y,-z
-x,-x+y,-z
y,x,-z
y,x,z
x-y,-y,z
-x,-x+y,z
loop_
_atom_site_type_symbol
_atom_site_label
_atom_site_fract_x
_atom_site_fract_y
_atom_site_fract_z
Si Si1 0.799205 0.181562 0.797650
Si Si2 0.094263 0.619009 0.887082
Si Si3 0.907252 0.811111 0.500000
Si Si4 0.901302 0.099102 0.111869
Si Si5 0.331908 0.235604 0.605235
Si Si6 0.642658 0.541485 0.891775
O O1 0.713530 0.158613 0.853489
O O2 0.841991 0.126504 0.831007
O O3 0.774422 0.164155 0.685408
O O4 0.862514 0.281076 0.815548
O O5 0.128732 0.554673 0.858235
O O6 0.000000 0.585819 0.842367
O O7 0.086513 0.618052 0.000000
O O8 0.831734 0.831734 0.500000
O O9 0.899623 0.755480 0.405682
O O10 0.000000 0.896957 0.500000
O O11 0.000000 0.154401 0.144986
O O12 0.868617 0.000000 0.132851
O O13 0.893182 0.114485 0.000000
O O14 0.378617 0.260066 0.500000
O O15 0.307379 0.307379 0.635396
O O16 0.598642 0.598642 0.890641
O O17 0.676463 0.542127 0.000000
#
# Coordination Sequence:
#
# PCOD8327705 Si02
#       6
#    12  12   6  12  12  12
#     4  12  19  30  55  76  92 131 181 215 251 316
#     4   9  18  32  49  72 102 130 158 200 251 306
#     4   8  15  28  44  64  94 132 170 212 262 304
#     4  10  20  31  44  68 103 138 171 209 252 302
#     4   8  18  33  46  68  99 126 164 216 259 290
#     4   9  19  34  48  70 107 137 158 203 266 314
#
# _framework density 16.722256000000002
#
# number of rings (size 3 to 8) (size 9 to 14) (size 15 to 20)
#    0.545    2.000    0.000    5.182    0.000    5.091 
#    1.091    0.000    0.000    3.273    0.000    2.545 
#    0.000    0.000    0.000    0.000    0.000    0.000 
#
# Total GULP energy -817897.862096 kJ/mol
# GULP energy per Si atom -12392.391850 kJ/mol
# Density = 1.668420 g / cm^3
# Si number density = 16.722256 Si / 1000 Ang^3
#
#
#
# Elastic Constant Matrix: (Units=GPa)
#
#
# Indices 1 2 3 4 5 6 
#
# 1 76.5776 26.5125 31.6555 0.0000 0.0000 0.0000
# 2 26.5125 76.5776 31.6555 0.0000 0.0000 0.0000
# 3 31.6555 31.6555 57.2900 0.0000 0.0000 0.0000
# 4 0.0000 0.0000 0.0000 13.7375 0.0000 0.0000
# 5 0.0000 0.0000 0.0000 0.0000 13.7375 0.0000
# 6 0.0000 0.0000 0.0000 0.0000 0.0000 25.0325
#
#
#
# Elastic Compliance Matrix: (Units=1/GPa)
#
#
# Indices 1 2 3 4 5 6 
#
# 1 0.017328 -0.002646 -0.008113 0.000000 0.000000 0.000000
# 2 -0.002646 0.017328 -0.008113 0.000000 0.000000 0.000000
# 3 -0.008113 -0.008113 0.026421 0.000000 0.000000 0.000000
# 4 0.000000 0.000000 0.000000 0.072794 0.000000 0.000000
# 5 0.000000 0.000000 0.000000 0.000000 0.072794 0.000000
# 6 0.000000 0.000000 0.000000 0.000000 0.000000 0.039948
#
#
# Mechanical properties :
#
#
# Convention : Reuss Voigt Hill
#
# Bulk Modulus (GPa) = 42.85528 43.34359 43.09944
# Shear Modulus (GPa) = 17.11548 18.54295 17.82922
#
# Velocity S-wave (km/s) = 3.20271 3.33359 3.26881
# Velocity P-wave (km/s) = 6.27374 6.38695 6.33060
#
# Compressibility (1/GPa) = 0.02333435
#
# Stress axis : x y z
#
# Youngs Moduli (GPa) = 57.70902 57.70902 37.84935
#
# Poissons Ratio (x) = 0.15268 0.30707
# Poissons Ratio (y) = 0.15268 0.30707
# Poissons Ratio (z) = 0.46818 0.46818
#
# Static dielectric constant tensor:
#      x y z
#    x 3.130910 0.000000 0.000000 
#    y 0.000000 3.130910 0.000000 
#    z 0.000000 0.000000 2.943900 
# 
# 
# High freq. dielectric constant tensor:
#      x y z
#    x 1.633050 0.000000 0.000000 
#    y 0.000000 1.633050 0.000000 
#    z 0.000000 0.000000 1.619480 
# 
# From -- ./inp_files/2673.got.cif
#   From: 2010.03.12/outbox.cif.g09.slc.cpg/sg189_2_cif.got.tgz:2673.got - 2010.04.01 12:03:36.
