data_PCOD8327991
_publ_section_title
;
Structure prediction by ZEFSAII (Michael W. Deem and Ramdas Pophale) SiO2 
 PCOD8327991
Probable space group: P -6 2 C
;
_chemical_formula_sum "Si O2"
_cell_formula_units_Z 72
_cell_length_a 23.646597
_cell_length_b 23.646597
_cell_length_c 8.911987
_cell_angle_alpha 90.000000
_cell_angle_beta 90.000000
_cell_angle_gamma 120.000000
_cell_volume 4315.612833
_symmetry_space_group_name_H-M "P -6 2 C"
_symmetry_group_IT_number 190
_symmetry_cell_setting 'hexagonal'
loop_
_space_group_symop_operation_xyz
x,y,z
-x+y,-x,1/2-z
-y,x-y,z
x,y,1/2-z
-x+y,-x,z
-y,x-y,1/2-z
x-y,-y,-z
-x,-x+y,-z
y,x,-z
y,x,1/2+z
x-y,-y,1/2+z
-x,-x+y,1/2+z
loop_
_atom_site_type_symbol
_atom_site_label
_atom_site_fract_x
_atom_site_fract_y
_atom_site_fract_z
Si Si1 0.257061 0.854885 0.426292
Si Si2 0.404328 0.934257 0.422968
Si Si3 0.264798 0.067586 0.073121
Si Si4 0.410085 0.265696 0.428414
Si Si5 0.194812 0.262015 0.923469
Si Si6 0.530465 0.931577 0.427775
O O1 0.240951 0.848494 0.250000
O O2 0.332072 0.875659 0.458157
O O3 0.243798 0.909635 0.496421
O O4 0.215210 0.785861 0.508071
O O5 0.414138 0.951697 0.250000
O O6 0.457546 0.914385 0.474879
O O7 0.415622 0.000000 0.500000
O O8 0.271548 0.059652 0.250000
O O9 0.241909 0.120277 0.040805
O O10 0.210824 0.000000 0.000000
O O11 0.417260 0.268720 0.250000
O O12 0.335994 0.242869 0.479095
O O13 0.459423 0.334564 0.501962
O O14 0.205868 0.257930 0.750000
O O15 0.210894 0.210894 0.000000
O O16 0.541077 0.934947 0.250000
O O17 0.583347 0.000000 0.500000
#
# Coordination Sequence:
#
# PCOD8327991 Si02
#       6
#    12  12  12  12  12  12
#     4  10  19  32  50  72  97 128 161 197 241 288
#     4   9  19  32  48  71  98 126 159 195 236 284
#     4  10  20  33  48  71  99 127 159 197 238 285
#     4  10  20  33  48  71  99 127 160 199 239 286
#     4   9  19  32  47  68  95 122 153 191 232 277
#     4  10  19  32  49  71  98 128 160 197 239 286
#
# _framework density 16.683610000000002
#
# number of rings (size 3 to 8) (size 9 to 14) (size 15 to 20)
#    0.000    2.333    0.000    4.000    0.000    8.667 
#    0.000    0.000    0.000    1.000    0.000    2.333 
#    0.000    0.000    0.000    0.000    0.000    0.000 
#
# Total GULP energy -892872.800276 kJ/mol
# GULP energy per Si atom -12401.011115 kJ/mol
# Density = 1.664564 g / cm^3
# Si number density = 16.683610 Si / 1000 Ang^3
#
#
#
# Elastic Constant Matrix: (Units=GPa)
#
#
# Indices 1 2 3 4 5 6 
#
# 1 103.0434 57.6676 47.2388 0.0000 0.0000 0.0000
# 2 57.6676 103.0434 47.2388 0.0000 0.0000 0.0000
# 3 47.2388 47.2388 81.2161 0.0000 0.0000 0.0000
# 4 0.0000 0.0000 0.0000 29.5073 0.0000 0.0000
# 5 0.0000 0.0000 0.0000 0.0000 29.5073 0.0000
# 6 0.0000 0.0000 0.0000 0.0000 0.0000 22.6879
#
#
#
# Elastic Compliance Matrix: (Units=1/GPa)
#
#
# Indices 1 2 3 4 5 6 
#
# 1 0.015747 -0.006291 -0.005500 0.000000 0.000000 0.000000
# 2 -0.006291 0.015747 -0.005500 0.000000 0.000000 0.000000
# 3 -0.005500 -0.005500 0.018711 0.000000 0.000000 0.000000
# 4 0.000000 0.000000 0.000000 0.033890 0.000000 0.000000
# 5 0.000000 0.000000 0.000000 0.000000 0.033890 0.000000
# 6 0.000000 0.000000 0.000000 0.000000 0.000000 0.044076
#
#
# Mechanical properties :
#
#
# Convention : Reuss Voigt Hill
#
# Bulk Modulus (GPa) = 64.00954 65.73258 64.87106
# Shear Modulus (GPa) = 24.77091 25.35100 25.06096
#
# Velocity S-wave (km/s) = 3.85742 3.90233 3.87994
# Velocity P-wave (km/s) = 7.63476 7.73235 7.68371
#
# Compressibility (1/GPa) = 0.01562267
#
# Stress axis : x y z
#
# Youngs Moduli (GPa) = 63.50479 63.50479 53.44564
#
# Poissons Ratio (x) = 0.39953 0.29394
# Poissons Ratio (y) = 0.39953 0.29394
# Poissons Ratio (z) = 0.34926 0.34926
#
# Static dielectric constant tensor:
#      x y z
#    x 3.139960 0.000000 0.000000 
#    y 0.000000 3.139960 0.000000 
#    z 0.000000 0.000000 3.219520 
# 
# 
# High freq. dielectric constant tensor:
#      x y z
#    x 1.632420 0.000000 0.000000 
#    y 0.000000 1.632420 0.000000 
#    z 0.000000 0.000000 1.657190 
# 
# From -- ./inp_files/1215.got.cif
#   From: 2010.06.25/outbox.cif.g09.slc.cpg/sg190_1_cif.got.tgz:1215.got - 2010.06.28 13:08:06.
