data_PCOD8327284
_publ_section_title
;
Structure prediction by ZEFSAII (Michael W. Deem and Ramdas Pophale) SiO2 
 PCOD8327284
Probable space group: P -6 M 2
;
_chemical_formula_sum "Si O2"
_cell_formula_units_Z 84
_cell_length_a 26.321138
_cell_length_b 26.321138
_cell_length_c 9.834243
_cell_angle_alpha 90.000000
_cell_angle_beta 90.000000
_cell_angle_gamma 120.000000
_cell_volume 5900.392351
_symmetry_space_group_name_H-M "P -6 M 2"
_symmetry_group_IT_number 187
_symmetry_cell_setting 'hexagonal'
loop_
_space_group_symop_operation_xyz
x,y,z
-x+y,-x,-z
-y,x-y,z
x,y,-z
-x+y,-x,z
-y,x-y,-z
-y,-x,-z
-x+y,y,-z
x,x-y,-z
-x+y,y,z
x,x-y,z
-y,-x,z
loop_
_atom_site_type_symbol
_atom_site_label
_atom_site_fract_x
_atom_site_fract_y
_atom_site_fract_z
Si Si1 0.894536 0.390807 0.347019
Si Si2 0.426949 0.966181 0.348524
Si Si3 0.034979 0.373093 0.157652
Si Si4 0.404164 0.301542 0.842081
Si Si5 0.030009 0.858173 0.161624
Si Si6 0.898959 0.797918 0.837258
Si Si7 0.696981 0.904373 0.161113
Si Si8 0.335114 0.167557 0.838899
O O1 0.873021 0.366949 0.500000
O O2 0.871388 0.435694 0.305031
O O3 0.871640 0.336546 0.242397
O O4 0.964147 0.426329 0.342455
O O5 0.401091 0.945422 0.500000
O O6 0.471151 0.942301 0.311666
O O7 0.374960 0.941374 0.239327
O O8 0.071881 0.344355 0.217967
O O9 0.966423 0.328110 0.182448
O O10 0.048043 0.389622 0.000000
O O11 0.369504 0.234769 0.788669
O O12 0.421505 0.305246 0.000000
O O13 0.073937 0.926064 0.205534
O O14 0.055503 0.817995 0.219236
O O15 0.965041 0.833150 0.221342
O O16 0.026973 0.854031 0.000000
O O17 0.865629 0.731257 0.780525
O O18 0.898637 0.797274 0.000000
O O19 0.672819 0.836410 0.203238
O O20 0.699792 0.910825 0.000000
O O21 0.331265 0.165633 0.000000
#
# Coordination Sequence:
#
# PCOD8327284 Si02
#       8
#    12  12  12  12  12   6  12   6
#     4   8  14  25  39  53  71  95 120 142 167 206
#     4   8  14  24  36  50  71  98 119 135 164 207
#     4   9  15  22  35  54  70  90 124 159 182 204
#     4   9  16  24  35  53  75  96 122 155 185 215
#     4   8  13  20  28  40  58  84 120 160 200 240
#     4   9  14  20  30  41  59  91 125 157 201 249
#     4   8  13  21  32  45  64  88 117 155 193 225
#     4   9  16  24  33  47  71  99 121 149 193 239
#
# _framework density 14.236340999999999
#
# number of rings (size 3 to 8) (size 9 to 14) (size 15 to 20)
#    0.000    3.571    0.000    2.571    0.000    4.000 
#    0.429    3.214    0.000    0.429    0.000    0.000 
#    0.714    0.000    0.429    0.429    0.571    7.714 
#
# Total GULP energy -1040828.853174 kJ/mol
# GULP energy per Si atom -12390.819681 kJ/mol
# Density = 1.420394 g / cm^3
# Si number density = 14.236341 Si / 1000 Ang^3
#
#
#
# Elastic Constant Matrix: (Units=GPa)
#
#
# Indices 1 2 3 4 5 6 
#
# 1 100.0578 54.6417 35.5617 0.0000 0.0001 0.0000
# 2 54.6417 100.0578 35.5617 0.0000 -0.0001 0.0000
# 3 35.5617 35.5617 37.6053 0.0000 0.0000 0.0000
# 4 0.0000 0.0000 0.0000 6.3270 0.0000 -0.0001
# 5 0.0001 -0.0001 0.0000 0.0000 6.3270 0.0000
# 6 0.0000 0.0000 0.0000 -0.0001 0.0000 22.7081
#
#
#
# Elastic Compliance Matrix: (Units=1/GPa)
#
#
# Indices 1 2 3 4 5 6 
#
# 1 0.016727 -0.005291 -0.010815 0.000000 0.000000 0.000000
# 2 -0.005291 0.016727 -0.010815 0.000000 0.000000 0.000000
# 3 -0.010815 -0.010815 0.047046 0.000000 0.000000 0.000000
# 4 0.000000 0.000000 0.000000 0.158054 0.000000 0.000000
# 5 0.000000 0.000000 0.000000 0.000000 0.158054 0.000000
# 6 0.000000 0.000000 0.000000 0.000000 0.000000 0.044037
#
#
# Mechanical properties :
#
#
# Convention : Reuss Voigt Hill
#
# Bulk Modulus (GPa) = 37.51002 54.36124 45.93563
# Shear Modulus (GPa) = 9.93298 14.53611 12.23454
#
# Velocity S-wave (km/s) = 2.64430 3.19886 2.93471
# Velocity P-wave (km/s) = 5.97732 7.20496 6.61966
#
# Compressibility (1/GPa) = 0.02665954
#
# Stress axis : x y z
#
# Youngs Moduli (GPa) = 59.78195 59.78195 21.25569
#
# Poissons Ratio (x) = 0.31632 0.22988
# Poissons Ratio (y) = 0.31632 0.22988
# Poissons Ratio (z) = 0.64653 0.64653
#
# Static dielectric constant tensor:
#      x y z
#    x 2.885780 0.000000 0.000000 
#    y 0.000000 2.885780 0.000000 
#    z 0.000000 0.000000 2.515060 
# 
# 
# High freq. dielectric constant tensor:
#      x y z
#    x 1.527670 0.000000 0.000000 
#    y 0.000000 1.527670 0.000000 
#    z 0.000000 0.000000 1.503010 
# 
# From -- ./inp_files/2066.got.cif
#   From: 2010.03.12/outbox.cif.g09.slc.cpg/sg187_2_cif.got.tgz:2066.got - 2010.04.01 11:58:23.
