data_PCOD8327402
_publ_section_title
;
Structure prediction by ZEFSAII (Michael W. Deem and Ramdas Pophale) SiO2 
 PCOD8327402
Probable space group: P -6 C 2
;
_chemical_formula_sum "Si O2"
_cell_formula_units_Z 60
_cell_length_a 19.717884
_cell_length_b 19.717884
_cell_length_c 9.936377
_cell_angle_alpha 90.000000
_cell_angle_beta 90.000000
_cell_angle_gamma 120.000000
_cell_volume 3345.640766
_symmetry_space_group_name_H-M "P -6 C 2"
_symmetry_group_IT_number 188
_symmetry_cell_setting 'hexagonal'
loop_
_space_group_symop_operation_xyz
x,y,z
-x+y,-x,1/2-z
-y,x-y,z
x,y,1/2-z
-x+y,-x,z
-y,x-y,1/2-z
-y,-x,-z
-x+y,y,-z
x,x-y,-z
-x+y,y,1/2+z
x,x-y,1/2+z
-y,-x,1/2+z
loop_
_atom_site_type_symbol
_atom_site_label
_atom_site_fract_x
_atom_site_fract_y
_atom_site_fract_z
Si Si1 0.137347 0.274694 0.500000
Si Si2 0.429311 0.417012 0.004771
Si Si3 0.098606 0.470143 0.750000
Si Si4 0.962142 0.799949 0.405028
Si Si5 0.200828 0.389583 0.750000
Si Si6 0.531773 0.909928 0.750000
Si Si7 0.385636 0.133574 0.903475
O O1 0.172325 0.218142 0.471758
O O2 0.178007 0.331956 0.624356
O O3 0.382493 0.429345 0.122300
O O4 0.423599 0.334892 0.024248
O O5 0.520655 0.479345 0.000000
O O6 0.387956 0.422361 0.872380
O O7 0.166518 0.448459 0.750000
O O8 0.125648 0.562866 0.750000
O O9 0.969417 0.831049 0.250000
O O10 0.914872 0.829743 0.500000
O O11 0.918113 0.707181 0.402849
O O12 0.291664 0.454428 0.750000
O O13 0.416209 0.158018 0.750000
O O14 0.415419 0.207710 0.000000
#
# Coordination Sequence:
#
# PCOD8327402 Si02
#       7
#     6  12   6  12   6   6  12
#     4  12  24  38  60  90 114 156 208 246 300 360
#     4  10  20  36  58  80 114 152 192 238 283 348
#     4  10  20  38  55  80 117 157 200 240 306 355
#     4  10  22  39  58  82 114 147 186 237 293 347
#     4  12  22  36  60  86 120 156 200 264 306 354
#     4  10  22  34  55  88 111 153 206 246 294 355
#     4  10  20  35  56  84 114 143 176 228 287 340
#
# _framework density 17.933783999999999
#
# number of rings (size 3 to 8) (size 9 to 14) (size 15 to 20)
#    0.000    1.600    2.000    3.600    2.800    0.000 
#    1.200    0.000    0.000    0.400    0.000    0.000 
#    0.000    0.000    0.000    0.000    0.000    0.000 
#
# Total GULP energy -743752.075409 kJ/mol
# GULP energy per Si atom -12395.867923 kJ/mol
# Density = 1.789297 g / cm^3
# Si number density = 17.933784 Si / 1000 Ang^3
#
#
#
# Elastic Constant Matrix: (Units=GPa)
#
#
# Indices 1 2 3 4 5 6 
#
# 1 115.1476 70.3502 63.3562 0.0005 0.0000 0.0000
# 2 70.3502 115.1476 63.3562 -0.0005 0.0000 0.0000
# 3 63.3562 63.3562 160.6282 0.0000 0.0000 0.0000
# 4 0.0005 -0.0005 0.0000 10.6796 0.0000 0.0000
# 5 0.0000 0.0000 0.0000 0.0000 10.6796 0.0005
# 6 0.0000 0.0000 0.0000 0.0000 0.0005 22.3987
#
#
#
# Elastic Compliance Matrix: (Units=1/GPa)
#
#
# Indices 1 2 3 4 5 6 
#
# 1 0.014851 -0.007472 -0.002910 -0.000001 0.000000 0.000000
# 2 -0.007472 0.014851 -0.002910 0.000001 0.000000 0.000000
# 3 -0.002910 -0.002910 0.008522 0.000000 0.000000 0.000000
# 4 -0.000001 0.000001 0.000000 0.093637 0.000000 0.000000
# 5 0.000000 0.000000 0.000000 0.000000 0.093637 -0.000002
# 6 0.000000 0.000000 0.000000 0.000000 -0.000002 0.044645
#
#
# Mechanical properties :
#
#
# Convention : Reuss Voigt Hill
#
# Bulk Modulus (GPa) = 85.92827 87.22760 86.57793
# Shear Modulus (GPa) = 16.63301 21.67564 19.15433
#
# Velocity S-wave (km/s) = 3.04874 3.48033 3.27166
# Velocity P-wave (km/s) = 7.77247 8.05572 7.91536
#
# Compressibility (1/GPa) = 0.01163761
#
# Stress axis : x y z
#
# Youngs Moduli (GPa) = 67.33616 67.33616 117.35005
#
# Poissons Ratio (x) = 0.50312 0.34155
# Poissons Ratio (y) = 0.50312 0.34155
# Poissons Ratio (z) = 0.19598 0.19598
#
# Static dielectric constant tensor:
#      x y z
#    x 3.469510 0.000000 0.000000 
#    y 0.000000 3.469510 0.000000 
#    z 0.000000 0.000000 3.713660 
# 
# 
# High freq. dielectric constant tensor:
#      x y z
#    x 1.686100 0.000000 0.000000 
#    y 0.000000 1.686100 0.000000 
#    z 0.000000 0.000000 1.721380 
# 
# From -- ./inp_files/738.got.cif
#   From: 2010.03.12/outbox.cif.g09.slc.cpg/sg188_1_cif.got.tgz:738.got - 2010.04.01 12:01:06.
