data_PCOD8327460
_publ_section_title
;
Structure prediction by ZEFSAII (Michael W. Deem and Ramdas Pophale) SiO2 
 PCOD8327460
Probable space group: P -6 C 2
;
_chemical_formula_sum "Si O2"
_cell_formula_units_Z 48
_cell_length_a 16.477305
_cell_length_b 16.477305
_cell_length_c 9.147113
_cell_angle_alpha 90.000000
_cell_angle_beta 90.000000
_cell_angle_gamma 120.000000
_cell_volume 2150.735667
_symmetry_space_group_name_H-M "P -6 C 2"
_symmetry_group_IT_number 188
_symmetry_cell_setting 'hexagonal'
loop_
_space_group_symop_operation_xyz
x,y,z
-x+y,-x,1/2-z
-y,x-y,z
x,y,1/2-z
-x+y,-x,z
-y,x-y,1/2-z
-y,-x,-z
-x+y,y,-z
x,x-y,-z
-x+y,y,1/2+z
x,x-y,1/2+z
-y,-x,1/2+z
loop_
_atom_site_type_symbol
_atom_site_label
_atom_site_fract_x
_atom_site_fract_y
_atom_site_fract_z
Si Si1 0.336845 0.821748 0.915113
Si Si2 0.332043 0.996855 0.588219
Si Si3 0.639891 0.420759 0.250000
Si Si4 0.544894 0.089788 0.500000
Si Si5 0.000248 0.827480 0.926721
O O1 0.352714 0.800403 0.750000
O O2 0.287339 0.884907 0.919983
O O3 0.273891 0.726109 0.000000
O O4 0.436566 0.873131 0.000000
O O5 0.316393 0.027329 0.750000
O O6 0.442291 0.033002 0.569220
O O7 0.279063 0.026123 0.469042
O O8 0.744700 0.436242 0.250000
O O9 0.625387 0.469577 0.111692
O O10 0.002449 0.837723 0.750000
O O11 0.099711 0.900290 0.000000
O O12 0.924417 0.848833 0.000000
#
# Coordination Sequence:
#
# PCOD8327460 Si02
#       5
#    12  12   6   6  12
#     4  11  23  40  63  91 129 173 226 283 348 422
#     4  11  25  44  68 104 142 187 237 294 361 434
#     4  10  24  42  64  96 130 186 238 290 356 418
#     4  12  22  44  70  98 148 186 240 304 360 434
#     4  12  27  49  78 110 148 191 241 300 364 433
#
# _framework density 22.317947
#
# number of rings (size 3 to 8) (size 9 to 14) (size 15 to 20)
#    0.250    0.500    2.500    5.000    1.750    6.000 
#    0.000    0.000    0.000    0.000    0.000    0.000 
#    0.000    0.000    0.000    0.000    0.000    0.000 
#
# Total GULP energy -594881.421194 kJ/mol
# GULP energy per Si atom -12393.362942 kJ/mol
# Density = 2.226715 g / cm^3
# Si number density = 22.317947 Si / 1000 Ang^3
#
#
#
# Elastic Constant Matrix: (Units=GPa)
#
#
# Indices 1 2 3 4 5 6 
#
# 1 78.0690 16.3628 38.2539 0.0001 0.0000 0.0000
# 2 16.3628 78.0690 38.2539 -0.0001 0.0000 0.0000
# 3 38.2539 38.2539 195.3793 0.0000 0.0000 0.0000
# 4 0.0001 -0.0001 0.0000 35.4965 0.0000 0.0000
# 5 0.0000 0.0000 0.0000 0.0000 35.4965 0.0001
# 6 0.0000 0.0000 0.0000 0.0000 0.0001 30.8531
#
#
#
# Elastic Compliance Matrix: (Units=1/GPa)
#
#
# Indices 1 2 3 4 5 6 
#
# 1 0.014396 -0.001810 -0.002464 0.000000 0.000000 0.000000
# 2 -0.001810 0.014396 -0.002464 0.000000 0.000000 0.000000
# 3 -0.002464 -0.002464 0.006083 0.000000 0.000000 0.000000
# 4 0.000000 0.000000 0.000000 0.028172 0.000000 0.000000
# 5 0.000000 0.000000 0.000000 0.000000 0.028172 0.000000
# 6 0.000000 0.000000 0.000000 0.000000 0.000000 0.032412
#
#
# Mechanical properties :
#
#
# Convention : Reuss Voigt Hill
#
# Bulk Modulus (GPa) = 46.73230 59.69536 53.21383
# Shear Modulus (GPa) = 34.66445 37.61236 36.13841
#
# Velocity S-wave (km/s) = 3.94535 4.10969 4.02836
# Velocity P-wave (km/s) = 6.46059 7.02319 6.74775
#
# Compressibility (1/GPa) = 0.02139848
#
# Stress axis : x y z
#
# Youngs Moduli (GPa) = 69.46371 69.46371 164.38637
#
# Poissons Ratio (x) = 0.12572 0.40510
# Poissons Ratio (y) = 0.12572 0.40510
# Poissons Ratio (z) = 0.17118 0.17118
#
# Static dielectric constant tensor:
#      x y z
#    x 3.838660 0.000000 0.000000 
#    y 0.000000 3.838660 0.000000 
#    z 0.000000 0.000000 4.030850 
# 
# 
# High freq. dielectric constant tensor:
#      x y z
#    x 1.878070 0.000000 0.000000 
#    y 0.000000 1.878070 0.000000 
#    z 0.000000 0.000000 1.889540 
# 
# From -- ./inp_files/412.got.cif
#   From: 2010.03.12/outbox.cif.g09.slc.cpg/sg188_1_cif.got.tgz:412.got - 2010.04.01 12:01:06.
