data_PCOD8327220
_publ_section_title
;
Structure prediction by ZEFSAII (Michael W. Deem and Ramdas Pophale) SiO2 
 PCOD8327220
Probable space group: P -6 M 2
;
_chemical_formula_sum "Si O2"
_cell_formula_units_Z 50
_cell_length_a 11.694063
_cell_length_b 11.694063
_cell_length_c 21.883748
_cell_angle_alpha 90.000000
_cell_angle_beta 90.000000
_cell_angle_gamma 120.000000
_cell_volume 2591.690848
_symmetry_space_group_name_H-M "P -6 M 2"
_symmetry_group_IT_number 187
_symmetry_cell_setting 'hexagonal'
loop_
_space_group_symop_operation_xyz
x,y,z
-x+y,-x,-z
-y,x-y,z
x,y,-z
-x+y,-x,z
-y,x-y,-z
-y,-x,-z
-x+y,y,-z
x,x-y,-z
-x+y,y,z
x,x-y,z
-y,-x,z
loop_
_atom_site_type_symbol
_atom_site_label
_atom_site_fract_x
_atom_site_fract_y
_atom_site_fract_z
Si Si1 0.667014 0.071827 0.255026
Si Si2 0.000000 0.000000 0.927568
Si Si3 0.851414 0.702828 0.927502
Si Si4 0.669371 0.601008 0.500000
Si Si5 0.068016 0.665728 0.867474
Si Si6 0.331322 0.933254 0.377551
O O1 0.559148 0.118295 0.260083
O O2 0.804621 0.195380 0.234450
O O3 0.622625 0.956520 0.204954
O O4 0.685960 0.019772 0.320057
O O5 0.926074 0.852148 0.902301
O O6 0.000000 0.000000 0.000000
O O7 0.701801 0.636537 0.903019
O O8 0.846592 0.693184 0.000000
O O9 0.531542 0.468459 0.500000
O O10 0.780533 0.561066 0.500000
O O11 0.682813 0.685597 0.560325
O O12 0.096794 0.548397 0.884711
O O13 0.194803 0.805198 0.886689
O O14 0.461986 0.923971 0.379222
O O15 0.212613 0.787388 0.370259
#
# Coordination Sequence:
#
# PCOD8327220 Si02
#       6
#    12   2   6   6  12  12
#     4  10  20  35  57  84 115 150 191 240 291 344
#     4   9  18  36  66  90 114 153 198 244 290 349
#     4  11  22  40  64  90 120 156 200 246 294 354
#     4  10  20  34  54  78 106 140 180 228 280 336
#     4  11  23  40  63  91 124 160 200 247 300 357
#     4  10  20  34  54  79 109 145 185 231 281 337
#
# _framework density 19.292425999999999
#
# number of rings (size 3 to 8) (size 9 to 14) (size 15 to 20)
#    0.000    1.680    2.400    2.640    0.000    0.480 
#    0.720    6.000    0.000    9.600    0.000    0.000 
#    0.000    0.000    0.000    0.000    0.000    0.000 
#
# Total GULP energy -620096.604685 kJ/mol
# GULP energy per Si atom -12401.932094 kJ/mol
# Density = 1.924852 g / cm^3
# Si number density = 19.292426 Si / 1000 Ang^3
#
#
#
# Elastic Constant Matrix: (Units=GPa)
#
#
# Indices 1 2 3 4 5 6 
#
# 1 75.5136 18.3095 32.7452 0.0000 -0.0001 0.0000
# 2 18.3095 75.5136 32.7452 0.0000 0.0001 0.0000
# 3 32.7452 32.7452 96.3122 0.0000 0.0000 0.0000
# 4 0.0000 0.0000 0.0000 23.4975 0.0000 0.0001
# 5 -0.0001 0.0001 0.0000 0.0000 23.4975 0.0000
# 6 0.0000 0.0000 0.0000 0.0001 0.0000 28.6021
#
#
#
# Elastic Compliance Matrix: (Units=1/GPa)
#
#
# Indices 1 2 3 4 5 6 
#
# 1 0.015728 -0.001753 -0.004751 0.000000 0.000000 0.000000
# 2 -0.001753 0.015728 -0.004751 0.000000 0.000000 0.000000
# 3 -0.004751 -0.004751 0.013614 0.000000 0.000000 0.000000
# 4 0.000000 0.000000 0.000000 0.042558 0.000000 0.000000
# 5 0.000000 0.000000 0.000000 0.000000 0.042558 0.000000
# 6 0.000000 0.000000 0.000000 0.000000 0.000000 0.034963
#
#
# Mechanical properties :
#
#
# Convention : Reuss Voigt Hill
#
# Bulk Modulus (GPa) = 44.32981 46.10433 45.21707
# Shear Modulus (GPa) = 25.61754 26.02206 25.81980
#
# Velocity S-wave (km/s) = 3.64793 3.67662 3.66230
# Velocity P-wave (km/s) = 6.38521 6.47865 6.43210
#
# Compressibility (1/GPa) = 0.02255818
#
# Stress axis : x y z
#
# Youngs Moduli (GPa) = 63.58063 63.58063 73.45546
#
# Poissons Ratio (x) = 0.11147 0.34901
# Poissons Ratio (y) = 0.11147 0.34901
# Poissons Ratio (z) = 0.30209 0.30209
#
# Static dielectric constant tensor:
#      x y z
#    x 3.376080 0.000000 0.000000 
#    y 0.000000 3.376080 0.000000 
#    z 0.000000 0.000000 3.731100 
# 
# 
# High freq. dielectric constant tensor:
#      x y z
#    x 1.743720 0.000000 0.000000 
#    y 0.000000 1.743720 0.000000 
#    z 0.000000 0.000000 1.759080 
# 
# From -- ./inp_files/3470.got.cif
#   From: 2010.03.12/outbox.cif.g09.slc.cpg/sg187_2_cif.got.tgz:3470.got - 2010.04.01 11:58:23.
