data_PCOD8327238
_publ_section_title
;
Structure prediction by ZEFSAII (Michael W. Deem and Ramdas Pophale) SiO2 
 PCOD8327238
Probable space group: P -6 M 2
;
_chemical_formula_sum "Si O2"
_cell_formula_units_Z 84
_cell_length_a 17.710445
_cell_length_b 17.710445
_cell_length_c 14.167319
_cell_angle_alpha 90.000000
_cell_angle_beta 90.000000
_cell_angle_gamma 120.000000
_cell_volume 3848.373822
_symmetry_space_group_name_H-M "P -6 M 2"
_symmetry_group_IT_number 187
_symmetry_cell_setting 'hexagonal'
loop_
_space_group_symop_operation_xyz
x,y,z
-x+y,-x,-z
-y,x-y,z
x,y,-z
-x+y,-x,z
-y,x-y,-z
-y,-x,-z
-x+y,y,-z
x,x-y,-z
-x+y,y,z
x,x-y,z
-y,-x,z
loop_
_atom_site_type_symbol
_atom_site_label
_atom_site_fract_x
_atom_site_fract_y
_atom_site_fract_z
Si Si1 0.221871 0.195562 0.897956
Si Si2 0.625609 0.604216 0.106801
Si Si3 0.664029 0.156145 0.734585
Si Si4 0.829121 0.831690 0.695232
Si Si5 0.167720 0.667591 0.890638
Si Si6 0.984772 0.657903 0.388101
Si Si7 0.503608 0.666302 0.611737
O O1 0.258758 0.129379 0.893037
O O2 0.303716 0.289309 0.890072
O O3 0.159966 0.178536 0.808575
O O4 0.174087 0.185544 0.000000
O O5 0.636495 0.534698 0.168220
O O6 0.552821 0.623442 0.153223
O O7 0.601286 0.566982 0.000000
O O8 0.590632 0.181264 0.709024
O O9 0.756538 0.243463 0.746723
O O10 0.668588 0.097867 0.650257
O O11 0.922572 0.845143 0.667118
O O12 0.756453 0.739845 0.655979
O O13 0.819424 0.909712 0.648923
O O14 0.205509 0.602754 0.876140
O O15 0.238377 0.761624 0.845651
O O16 0.157215 0.682729 0.000000
O O17 0.976779 0.659224 0.500000
O O18 0.073741 0.661708 0.355880
O O19 0.497377 0.664361 0.500000
O O20 0.509564 0.754782 0.651047
O O21 0.417078 0.582923 0.654180
#
# Coordination Sequence:
#
# PCOD8327238 Si02
#       7
#    12  12  12  12  12  12  12
#     4   9  18  35  60  90 124 162 205 254 310 373
#     4  10  20  37  63  93 127 165 209 256 309 378
#     4  12  26  45  68  96 127 161 204 261 327 391
#     4  11  23  40  63  94 129 168 214 269 330 388
#     4   9  17  30  50  79 118 165 213 258 303 353
#     4  11  24  44  68  92 123 167 219 267 317 384
#     4   9  17  32  58  93 129 162 197 243 302 367
#
# _framework density 21.827400000000001
#
# number of rings (size 3 to 8) (size 9 to 14) (size 15 to 20)
#    0.000    1.857    1.429    2.714    0.000    6.571 
#    0.000    1.429    0.000    3.429    0.000    2.000 
#    0.000    0.000    0.000    0.000    0.000    0.286 
#
# Total GULP energy -1041144.040813 kJ/mol
# GULP energy per Si atom -12394.571914 kJ/mol
# Density = 2.177772 g / cm^3
# Si number density = 21.827400 Si / 1000 Ang^3
#
#
#
# Elastic Constant Matrix: (Units=GPa)
#
#
# Indices 1 2 3 4 5 6 
#
# 1 128.6471 88.2278 29.3329 0.0000 0.0000 0.0000
# 2 88.2278 128.6471 29.3329 0.0000 0.0000 0.0000
# 3 29.3329 29.3329 93.2497 0.0000 0.0000 0.0000
# 4 0.0000 0.0000 0.0000 0.4614 0.0000 0.0000
# 5 0.0000 0.0000 0.0000 0.0000 0.4614 0.0000
# 6 0.0000 0.0000 0.0000 0.0000 0.0000 20.2096
#
#
#
# Elastic Compliance Matrix: (Units=1/GPa)
#
#
# Indices 1 2 3 4 5 6 
#
# 1 0.014890 -0.009850 -0.001585 0.000000 -0.000002 0.000000
# 2 -0.009850 0.014890 -0.001585 0.000000 0.000002 0.000000
# 3 -0.001585 -0.001585 0.011721 0.000000 0.000000 0.000000
# 4 0.000000 0.000000 0.000000 2.167106 0.000000 0.000003
# 5 -0.000002 0.000002 0.000000 0.000000 2.167106 0.000000
# 6 0.000000 0.000000 0.000000 0.000003 0.000000 0.049481
#
#
# Mechanical properties :
#
#
# Convention : Reuss Voigt Hill
#
# Bulk Modulus (GPa) = 64.68501 71.59233 68.13867
# Shear Modulus (GPa) = 1.12198 17.80320 9.46259
#
# Velocity S-wave (km/s) = 0.71773 2.85903 2.08437
# Velocity P-wave (km/s) = 5.51235 6.61583 6.08914
#
# Compressibility (1/GPa) = 0.01545953
#
# Stress axis : x y z
#
# Youngs Moduli (GPa) = 67.15812 67.15812 85.31503
#
# Poissons Ratio (x) = 0.66154 0.13525
# Poissons Ratio (y) = 0.66154 0.13525
# Poissons Ratio (z) = 0.10647 0.10647
#
# Static dielectric constant tensor:
#      x y z
#    x 3.987740 0.000000 0.000000 
#    y 0.000000 3.987740 0.000000 
#    z 0.000000 0.000000 4.028620 
# 
# 
# High freq. dielectric constant tensor:
#      x y z
#    x 1.861560 0.000000 0.000000 
#    y 0.000000 1.861560 0.000000 
#    z 0.000000 0.000000 1.851880 
# 
# From -- ./inp_files/2639.got.cif
#   From: 2010.03.12/outbox.cif.g09.slc.cpg/sg187_2_cif.got.tgz:2639.got - 2010.04.01 11:58:23.
