data_PCOD8327857
_publ_section_title
;
Structure prediction by ZEFSAII (Michael W. Deem and Ramdas Pophale) SiO2 
 PCOD8327857
Probable space group: P -6 2 M
;
_chemical_formula_sum "Si O2"
_cell_formula_units_Z 84
_cell_length_a 14.665227
_cell_length_b 14.665227
_cell_length_c 24.587897
_cell_angle_alpha 90.000000
_cell_angle_beta 90.000000
_cell_angle_gamma 120.000000
_cell_volume 4579.621613
_symmetry_space_group_name_H-M "P -6 2 M"
_symmetry_group_IT_number 189
_symmetry_cell_setting 'hexagonal'
loop_
_space_group_symop_operation_xyz
x,y,z
-x+y,-x,-z
-y,x-y,z
x,y,-z
-x+y,-x,z
-y,x-y,-z
x-y,-y,-z
-x,-x+y,-z
y,x,-z
y,x,z
x-y,-y,z
-x,-x+y,z
loop_
_atom_site_type_symbol
_atom_site_label
_atom_site_fract_x
_atom_site_fract_y
_atom_site_fract_z
Si Si1 0.116847 0.566435 0.291899
Si Si2 0.126738 0.252687 0.750185
Si Si3 0.283394 0.750816 0.439761
Si Si4 0.884782 0.463697 0.167089
Si Si5 0.225520 0.811223 0.850218
Si Si6 0.119915 0.879443 0.937217
Si Si7 0.567337 0.775752 0.331404
O O1 0.125490 0.604326 0.230600
O O2 0.176670 0.667279 0.329165
O O3 0.159932 0.486372 0.294034
O O4 0.000000 0.505843 0.314219
O O5 0.178345 0.178345 0.756116
O O6 0.167958 0.338558 0.798411
O O7 0.164444 0.314887 0.692171
O O8 0.000000 0.180952 0.751863
O O9 0.215681 0.622686 0.433136
O O10 0.263709 0.782396 0.500000
O O11 0.251943 0.813671 0.395756
O O12 0.806951 0.496782 0.139450
O O13 0.869468 0.350258 0.154528
O O14 0.000000 0.547527 0.145996
O O15 0.196793 0.852972 0.903707
O O16 0.000000 0.807925 0.917055
O O17 0.151617 0.000000 0.927627
O O18 0.131606 0.857819 0.000000
#
# Coordination Sequence:
#
# PCOD8327857 Si02
#       7
#    12  12  12  12  12  12  12
#     4  11  20  31  50  79 110 142 183 218 263 333
#     4  12  25  40  58  81 111 148 192 244 293 335
#     4   8  15  29  50  80 115 151 180 215 270 333
#     4  11  21  35  53  81 116 147 179 218 269 335
#     4  12  23  38  60  85 116 153 188 228 281 344
#     4  10  21  39  63  89 116 149 194 248 299 339
#     4  12  19  33  56  82 114 152 183 222 277 341
#
# _framework density 18.342126
#
# number of rings (size 3 to 8) (size 9 to 14) (size 15 to 20)
#    0.286    0.857    4.286    4.286    0.000    0.571 
#    0.000    2.143    0.000    6.857    0.000    0.000 
#    0.000    1.143    0.000    0.000    0.000    0.000 
#
# Total GULP energy -1041042.223135 kJ/mol
# GULP energy per Si atom -12393.359799 kJ/mol
# Density = 1.830038 g / cm^3
# Si number density = 18.342126 Si / 1000 Ang^3
#
#
#
# Elastic Constant Matrix: (Units=GPa)
#
#
# Indices 1 2 3 4 5 6 
#
# 1 92.1889 22.8737 30.3533 0.0000 0.0000 0.0000
# 2 22.8737 92.1889 30.3533 0.0000 0.0000 0.0000
# 3 30.3533 30.3533 78.6041 0.0000 0.0000 0.0000
# 4 0.0000 0.0000 0.0000 16.3437 0.0000 0.0000
# 5 0.0000 0.0000 0.0000 0.0000 16.3437 0.0000
# 6 0.0000 0.0000 0.0000 0.0000 0.0000 34.6576
#
#
#
# Elastic Compliance Matrix: (Units=1/GPa)
#
#
# Indices 1 2 3 4 5 6 
#
# 1 0.012671 -0.001756 -0.004215 0.000000 0.000000 0.000000
# 2 -0.001756 0.012671 -0.004215 0.000000 0.000000 0.000000
# 3 -0.004215 -0.004215 0.015977 0.000000 0.000000 0.000000
# 4 0.000000 0.000000 0.000000 0.061186 0.000000 0.000000
# 5 0.000000 0.000000 0.000000 0.000000 0.061186 0.000000
# 6 0.000000 0.000000 0.000000 0.000000 0.000000 0.028854
#
#
# Mechanical properties :
#
#
# Convention : Reuss Voigt Hill
#
# Bulk Modulus (GPa) = 47.73872 47.79362 47.76617
# Shear Modulus (GPa) = 22.73792 25.42911 24.08352
#
# Velocity S-wave (km/s) = 3.52469 3.72745 3.62749
# Velocity P-wave (km/s) = 6.53054 6.68120 6.60630
#
# Compressibility (1/GPa) = 0.02094736
#
# Stress axis : x y z
#
# Youngs Moduli (GPa) = 78.92213 78.92213 62.58986
#
# Poissons Ratio (x) = 0.13860 0.26380
# Poissons Ratio (y) = 0.13860 0.26380
# Poissons Ratio (z) = 0.33263 0.33263
#
# Static dielectric constant tensor:
#      x y z
#    x 3.353880 0.000000 0.000000 
#    y 0.000000 3.353880 0.000000 
#    z 0.000000 0.000000 3.250720 
# 
# 
# High freq. dielectric constant tensor:
#      x y z
#    x 1.706310 0.000000 0.000000 
#    y 0.000000 1.706310 0.000000 
#    z 0.000000 0.000000 1.695330 
# 
# From -- ./inp_files/3690.got.cif
#   From: 2010.03.12/outbox.cif.g09.slc.cpg/sg189_2_cif.got.tgz:3690.got - 2010.04.01 12:03:36.
