data_PCOD8327511
_publ_section_title
;
Structure prediction by ZEFSAII (Michael W. Deem and Ramdas Pophale) SiO2 
 PCOD8327511
Probable space group: P -6 2 M
;
_chemical_formula_sum "Si O2"
_cell_formula_units_Z 84
_cell_length_a 13.782395
_cell_length_b 13.782395
_cell_length_c 28.211084
_cell_angle_alpha 90.000000
_cell_angle_beta 90.000000
_cell_angle_gamma 120.000000
_cell_volume 4640.874143
_symmetry_space_group_name_H-M "P -6 2 M"
_symmetry_group_IT_number 189
_symmetry_cell_setting 'hexagonal'
loop_
_space_group_symop_operation_xyz
x,y,z
-x+y,-x,-z
-y,x-y,z
x,y,-z
-x+y,-x,z
-y,x-y,-z
x-y,-y,-z
-x,-x+y,-z
y,x,-z
y,x,z
x-y,-y,z
-x,-x+y,z
loop_
_atom_site_type_symbol
_atom_site_label
_atom_site_fract_x
_atom_site_fract_y
_atom_site_fract_z
Si Si1 0.476552 0.743443 0.447692
Si Si2 0.131103 0.695503 0.205125
Si Si3 0.126981 0.339848 0.279929
Si Si4 0.590523 0.872867 0.360884
Si Si5 0.336867 0.873166 0.054914
Si Si6 0.439332 0.872803 0.712240
Si Si7 0.457629 0.325821 0.099025
O O1 0.391906 0.793928 0.442729
O O2 0.533299 0.773633 0.500000
O O3 0.571558 0.797191 0.407367
O O4 0.160989 0.813744 0.229720
O O5 0.181520 0.634973 0.238876
O O6 0.179568 0.711701 0.152382
O O7 0.000000 0.618614 0.198870
O O8 0.188061 0.320115 0.324630
O O9 0.136477 0.457829 0.292033
O O10 0.000000 0.239737 0.276014
O O11 0.469961 0.822494 0.333518
O O12 0.640373 0.000000 0.378017
O O13 0.207940 0.785142 0.067877
O O14 0.420844 0.846703 0.084273
O O15 0.363998 0.000000 0.065934
O O16 0.357178 0.860330 0.000000
O O17 0.539976 0.000000 0.713858
O O18 0.364106 0.364106 0.092666
#
# Coordination Sequence:
#
# PCOD8327511 Si02
#       7
#    12  12  12  12  12  12  12
#     4   8  16  29  46  69  97 128 162 199 243 300
#     4   9  19  34  48  71 102 128 162 201 247 300
#     4  10  19  31  49  69  95 132 168 205 246 296
#     4  10  18  30  47  68  97 128 163 207 249 294
#     4  10  21  36  55  80 107 139 180 219 263 325
#     4   8  16  29  43  64  93 123 158 196 237 290
#     4  10  21  36  56  79 110 144 175 223 274 320
#
# _framework density 18.100038000000001
#
# number of rings (size 3 to 8) (size 9 to 14) (size 15 to 20)
#    0.286    2.429    0.000    2.857    2.000    1.714 
#    6.857    0.000    0.000    3.857    0.000    0.000 
#    0.000    0.000    0.000    0.000    0.000    0.000 
#
# Total GULP energy -1040797.573635 kJ/mol
# GULP energy per Si atom -12390.447305 kJ/mol
# Density = 1.805884 g / cm^3
# Si number density = 18.100038 Si / 1000 Ang^3
#
#
#
# Elastic Constant Matrix: (Units=GPa)
#
#
# Indices 1 2 3 4 5 6 
#
# 1 54.0972 8.3058 24.3368 0.0000 0.0000 0.0000
# 2 8.3058 54.0972 24.3368 0.0000 0.0000 0.0000
# 3 24.3368 24.3368 126.1716 0.0000 0.0000 0.0000
# 4 0.0000 0.0000 0.0000 17.1292 0.0000 0.0000
# 5 0.0000 0.0000 0.0000 0.0000 17.1292 0.0000
# 6 0.0000 0.0000 0.0000 0.0000 0.0000 22.8957
#
#
#
# Elastic Compliance Matrix: (Units=1/GPa)
#
#
# Indices 1 2 3 4 5 6 
#
# 1 0.020350 -0.001488 -0.003638 0.000000 0.000000 0.000000
# 2 -0.001488 0.020350 -0.003638 0.000000 0.000000 0.000000
# 3 -0.003638 -0.003638 0.009329 0.000000 0.000000 0.000000
# 4 0.000000 0.000000 0.000000 0.058380 0.000000 0.000000
# 5 0.000000 0.000000 0.000000 0.000000 0.058380 0.000000
# 6 0.000000 0.000000 0.000000 0.000000 0.000000 0.043676
#
#
# Mechanical properties :
#
#
# Convention : Reuss Voigt Hill
#
# Bulk Modulus (GPa) = 30.76796 38.70274 34.73535
# Shear Modulus (GPa) = 20.93548 23.25659 22.09604
#
# Velocity S-wave (km/s) = 3.40465 3.58843 3.49775
# Velocity P-wave (km/s) = 5.70011 6.21274 5.96194
#
# Compressibility (1/GPa) = 0.03250135
#
# Stress axis : x y z
#
# Youngs Moduli (GPa) = 49.13891 49.13891 107.18925
#
# Poissons Ratio (x) = 0.07310 0.38999
# Poissons Ratio (y) = 0.07310 0.38999
# Poissons Ratio (z) = 0.17879 0.17879
#
# Static dielectric constant tensor:
#      x y z
#    x 3.137780 0.000000 0.000000 
#    y 0.000000 3.137780 0.000000 
#    z 0.000000 0.000000 3.489800 
# 
# 
# High freq. dielectric constant tensor:
#      x y z
#    x 1.672250 0.000000 0.000000 
#    y 0.000000 1.672250 0.000000 
#    z 0.000000 0.000000 1.712100 
# 
# From -- ./inp_files/3679.got.cif
#   From: 2010.03.12/outbox.cif.g09.slc.cpg/sg189_2_cif.got.tgz:3679.got - 2010.04.01 12:03:36.
