data_PCOD8327414
_publ_section_title
;
Structure prediction by ZEFSAII (Michael W. Deem and Ramdas Pophale) SiO2 
 PCOD8327414
Probable space group: P -6 C 2
;
_chemical_formula_sum "Si O2"
_cell_formula_units_Z 22
_cell_length_a 6.875224
_cell_length_b 6.875224
_cell_length_c 24.134281
_cell_angle_alpha 90.000000
_cell_angle_beta 90.000000
_cell_angle_gamma 120.000000
_cell_volume 987.958499
_symmetry_space_group_name_H-M "P -6 C 2"
_symmetry_group_IT_number 188
_symmetry_cell_setting 'hexagonal'
loop_
_space_group_symop_operation_xyz
x,y,z
-x+y,-x,1/2-z
-y,x-y,z
x,y,1/2-z
-x+y,-x,z
-y,x-y,1/2-z
-y,-x,-z
-x+y,y,-z
x,x-y,-z
-x+y,y,1/2+z
x,x-y,1/2+z
-y,-x,1/2+z
loop_
_atom_site_type_symbol
_atom_site_label
_atom_site_fract_x
_atom_site_fract_y
_atom_site_fract_z
Si Si1 0.735399 0.126280 0.140277
Si Si2 0.278692 0.885054 0.750000
Si Si3 0.000000 0.000000 0.065377
O O1 0.912934 0.395185 0.137747
O O2 0.785164 0.011832 0.088202
O O3 0.758112 0.011937 0.196533
O O4 0.528153 0.907992 0.750000
O O5 0.000000 0.000000 0.000000
#
# Coordination Sequence:
#
# PCOD8327414 Si02
#       3
#    12   6   4
#     4  10  23  43  70 102 136 177 226 278 346 417
#     4  10  20  36  72 104 142 176 208 272 350 420
#     4  12  27  46  68  97 135 186 244 296 331 381
#
# _framework density 22.268139999999999
#
# number of rings (size 3 to 8) (size 9 to 14) (size 15 to 20)
#    1.636    0.000    0.000    4.909    0.000    4.364 
#    3.273    0.000    0.000    0.000    0.000    0.000 
#    0.000    0.000    0.000    0.000    0.000    0.000 
#
# Total GULP energy -272607.807256 kJ/mol
# GULP energy per Si atom -12391.263966 kJ/mol
# Density = 2.221746 g / cm^3
# Si number density = 22.268140 Si / 1000 Ang^3
#
#
#
# Elastic Constant Matrix: (Units=GPa)
#
#
# Indices 1 2 3 4 5 6 
#
# 1 83.4708 20.4529 56.2820 0.0000 0.0000 0.0000
# 2 20.4529 83.4708 56.2820 0.0000 0.0000 0.0000
# 3 56.2820 56.2820 233.4650 0.0000 0.0000 0.0000
# 4 0.0000 0.0000 0.0000 27.1174 0.0000 0.0000
# 5 0.0000 0.0000 0.0000 0.0000 27.1174 0.0000
# 6 0.0000 0.0000 0.0000 0.0000 0.0000 31.5090
#
#
#
# Elastic Compliance Matrix: (Units=1/GPa)
#
#
# Indices 1 2 3 4 5 6 
#
# 1 0.014446 -0.001423 -0.003139 0.000000 0.000000 0.000000
# 2 -0.001423 0.014446 -0.003139 0.000000 0.000000 0.000000
# 3 -0.003139 -0.003139 0.005797 0.000000 0.000000 0.000000
# 4 0.000000 0.000000 0.000000 0.036877 0.000000 0.000000
# 5 0.000000 0.000000 0.000000 0.000000 0.036877 0.000000
# 6 0.000000 0.000000 0.000000 0.000000 0.000000 0.031737
#
#
# Mechanical properties :
#
#
# Convention : Reuss Voigt Hill
#
# Bulk Modulus (GPa) = 51.85389 74.04895 62.95142
# Shear Modulus (GPa) = 30.86221 34.97476 32.91848
#
# Velocity S-wave (km/s) = 3.72685 3.96740 3.84901
# Velocity P-wave (km/s) = 6.46962 7.36970 6.93428
#
# Compressibility (1/GPa) = 0.01928496
#
# Stress axis : x y z
#
# Youngs Moduli (GPa) = 69.22470 69.22470 172.50368
#
# Poissons Ratio (x) = 0.09849 0.54157
# Poissons Ratio (y) = 0.09849 0.54157
# Poissons Ratio (z) = 0.21733 0.21733
#
# Static dielectric constant tensor:
#      x y z
#    x 3.781380 0.000000 0.000000 
#    y 0.000000 3.781380 0.000000 
#    z 0.000000 0.000000 3.455950 
# 
# 
# High freq. dielectric constant tensor:
#      x y z
#    x 1.874610 0.000000 0.000000 
#    y 0.000000 1.874610 0.000000 
#    z 0.000000 0.000000 1.838230 
# 
# From -- ./inp_files/2735.got.cif
#   From: 2010.03.12/outbox.cif.g09.slc.cpg/sg188_2_cif.got.tgz:2735.got - 2010.04.01 12:01:06.
