data_PCOD8327088
_publ_section_title
;
Structure prediction by ZEFSAII (Michael W. Deem and Ramdas Pophale) SiO2 
 PCOD8327088
Probable space group: P -6 M 2
;
_chemical_formula_sum "Si O2"
_cell_formula_units_Z 60
_cell_length_a 12.749200
_cell_length_b 12.749200
_cell_length_c 25.903280
_cell_angle_alpha 90.000000
_cell_angle_beta 90.000000
_cell_angle_gamma 120.000000
_cell_volume 3646.290449
_symmetry_space_group_name_H-M "P -6 M 2"
_symmetry_group_IT_number 187
_symmetry_cell_setting 'hexagonal'
loop_
_space_group_symop_operation_xyz
x,y,z
-x+y,-x,-z
-y,x-y,z
x,y,-z
-x+y,-x,z
-y,x-y,-z
-y,-x,-z
-x+y,y,-z
x,x-y,-z
-x+y,y,z
x,x-y,z
-y,-x,z
loop_
_atom_site_type_symbol
_atom_site_label
_atom_site_fract_x
_atom_site_fract_y
_atom_site_fract_z
Si Si1 0.331930 0.419928 0.666391
Si Si2 0.911371 0.332468 0.242045
Si Si3 0.574135 0.666617 0.941132
Si Si4 0.244561 0.244029 0.147678
Si Si5 0.331166 0.905852 0.554575
O O1 0.210189 0.420377 0.681946
O O2 0.441896 0.558105 0.666643
O O3 0.354061 0.338079 0.706528
O O4 0.319491 0.358099 0.609298
O O5 0.909066 0.454533 0.232367
O O6 0.775335 0.224666 0.248645
O O7 0.977491 0.313365 0.193819
O O8 0.534992 0.767496 0.933734
O O9 0.460864 0.539137 0.924694
O O10 0.687599 0.694465 0.905459
O O11 0.613157 0.663889 0.000000
O O12 0.214675 0.107338 0.141951
O O13 0.121556 0.243111 0.159825
O O14 0.307597 0.958423 0.500000
O O15 0.464163 0.928326 0.550755
O O16 0.237324 0.762677 0.557505
#
# Coordination Sequence:
#
# PCOD8327088 Si02
#       5
#    12  12  12  12  12
#     4   9  16  26  42  65  91 115 139 172 217 267
#     4  10  20  33  48  64  84 114 152 191 227 264
#     4   9  17  30  49  72  96 121 149 181 216 254
#     4  10  20  33  49  69  93 120 149 183 225 272
#     4   8  12  18  31  54  84 114 139 164 201 254
#
# _framework density 16.455079999999999
#
# number of rings (size 3 to 8) (size 9 to 14) (size 15 to 20)
#    0.000    2.800    0.000    2.200    0.000    3.600 
#    0.000    0.000    0.000    9.000    0.000    0.000 
#    0.000    1.600    0.000    0.000    0.000    0.000 
#
# Total GULP energy -743387.591953 kJ/mol
# GULP energy per Si atom -12389.793199 kJ/mol
# Density = 1.641763 g / cm^3
# Si number density = 16.455080 Si / 1000 Ang^3
#
#
#
# Elastic Constant Matrix: (Units=GPa)
#
#
# Indices 1 2 3 4 5 6 
#
# 1 77.5650 44.6200 57.7306 0.0000 -0.0005 0.0000
# 2 44.6200 77.5650 57.7306 0.0000 0.0005 0.0000
# 3 57.7306 57.7306 131.2662 0.0000 0.0000 0.0000
# 4 0.0000 0.0000 0.0000 19.9919 0.0000 0.0005
# 5 -0.0005 0.0005 0.0000 0.0000 19.9919 0.0000
# 6 0.0000 0.0000 0.0000 0.0005 0.0000 16.4725
#
#
#
# Elastic Compliance Matrix: (Units=1/GPa)
#
#
# Indices 1 2 3 4 5 6 
#
# 1 0.022179 -0.008175 -0.006159 0.000000 0.000001 0.000000
# 2 -0.008175 0.022179 -0.006159 0.000000 -0.000001 0.000000
# 3 -0.006159 -0.006159 0.013036 0.000000 0.000000 0.000000
# 4 0.000000 0.000000 0.000000 0.050020 0.000000 -0.000001
# 5 0.000001 -0.000001 0.000000 0.000000 0.050020 0.000000
# 6 0.000000 0.000000 0.000000 -0.000001 0.000000 0.060707
#
#
# Mechanical properties :
#
#
# Convention : Reuss Voigt Hill
#
# Bulk Modulus (GPa) = 60.94549 67.39540 64.17045
# Shear Modulus (GPa) = 18.89667 19.71225 19.30446
#
# Velocity S-wave (km/s) = 3.39245 3.46489 3.42886
# Velocity P-wave (km/s) = 7.24313 7.55337 7.39987
#
# Compressibility (1/GPa) = 0.01640810
#
# Stress axis : x y z
#
# Youngs Moduli (GPa) = 45.08754 45.08754 76.71246
#
# Poissons Ratio (x) = 0.36857 0.47249
# Poissons Ratio (y) = 0.36857 0.47249
# Poissons Ratio (z) = 0.27770 0.27770
#
# Static dielectric constant tensor:
#      x y z
#    x 2.875820 0.000000 0.000000 
#    y 0.000000 2.875820 0.000000 
#    z 0.000000 0.000000 3.633240 
# 
# 
# High freq. dielectric constant tensor:
#      x y z
#    x 1.610160 0.000000 0.000000 
#    y 0.000000 1.610160 0.000000 
#    z 0.000000 0.000000 1.659310 
# 
# From -- ./inp_files/4141.got.cif
#   From: 2010.03.12/outbox.cif.g09.slc.cpg/sg187_3_cif.got.tgz:4141.got - 2010.04.01 11:58:23.
