data_PCOD8327683
_publ_section_title
;
Structure prediction by ZEFSAII (Michael W. Deem and Ramdas Pophale) SiO2 
 PCOD8327683
Probable space group: P -6 2 M
;
_chemical_formula_sum "Si O2"
_cell_formula_units_Z 48
_cell_length_a 17.719070
_cell_length_b 17.719070
_cell_length_c 9.259814
_cell_angle_alpha 90.000000
_cell_angle_beta 90.000000
_cell_angle_gamma 120.000000
_cell_volume 2517.762394
_symmetry_space_group_name_H-M "P -6 2 M"
_symmetry_group_IT_number 189
_symmetry_cell_setting 'hexagonal'
loop_
_space_group_symop_operation_xyz
x,y,z
-x+y,-x,-z
-y,x-y,z
x,y,-z
-x+y,-x,z
-y,x-y,-z
x-y,-y,-z
-x,-x+y,-z
y,x,-z
y,x,z
x-y,-y,z
-x,-x+y,z
loop_
_atom_site_type_symbol
_atom_site_label
_atom_site_fract_x
_atom_site_fract_y
_atom_site_fract_z
Si Si1 0.851197 0.386521 0.666648
Si Si2 0.175009 0.277253 0.668192
Si Si3 0.806779 0.526797 0.334126
Si Si4 0.204090 0.000000 0.833181
Si Si5 0.000000 0.381889 0.836031
O O1 0.881122 0.402669 0.500000
O O2 0.760950 0.296548 0.683270
O O3 0.846113 0.468914 0.730903
O O4 0.916259 0.371838 0.760478
O O5 0.150536 0.276927 0.500000
O O6 0.239694 0.239694 0.689533
O O7 0.223583 0.376244 0.734405
O O8 0.086489 0.215910 0.755306
O O9 0.834271 0.544013 0.500000
O O10 0.293163 0.000000 0.818466
O O11 0.177770 0.000000 0.000000
O O12 0.000000 0.408260 0.000000
#
# Coordination Sequence:
#
# PCOD8327683 Si02
#       5
#    12  12  12   6   6
#     4  10  19  34  58  84 113 150 191 236 284 335
#     4  10  21  38  61  90 119 146 186 241 300 353
#     4   9  18  32  56  88 116 146 189 236 281 334
#     4  11  23  41  63  83 112 153 200 241 287 352
#     4  11  23  37  53  81 114 151 198 237 275 336
#
# _framework density 19.064547000000001
#
# number of rings (size 3 to 8) (size 9 to 14) (size 15 to 20)
#    0.000    2.000    2.500    1.250    1.750    3.500 
#    0.750    2.500    0.000    0.000    0.000    0.000 
#    0.000    0.000    0.000    0.000    0.000    0.000 
#
# Total GULP energy -595002.566856 kJ/mol
# GULP energy per Si atom -12395.886809 kJ/mol
# Density = 1.902115 g / cm^3
# Si number density = 19.064547 Si / 1000 Ang^3
#
#
#
# Elastic Constant Matrix: (Units=GPa)
#
#
# Indices 1 2 3 4 5 6 
#
# 1 245.6375 -128.6604 30.9434 0.0000 0.0000 0.0000
# 2 -128.6604 245.6375 30.9434 0.0000 0.0000 0.0000
# 3 30.9434 30.9434 68.2715 0.0000 0.0000 0.0000
# 4 0.0000 0.0000 0.0000 12.9519 0.0000 0.0000
# 5 0.0000 0.0000 0.0000 0.0000 12.9519 0.0000
# 6 0.0000 0.0000 0.0000 0.0000 0.0000 187.1490
#
#
#
# Elastic Compliance Matrix: (Units=1/GPa)
#
#
# Indices 1 2 3 4 5 6 
#
# 1 0.006958 0.004287 -0.005097 0.000000 0.000000 0.000000
# 2 0.004287 0.006958 -0.005097 0.000000 0.000000 0.000000
# 3 -0.005097 -0.005097 0.019267 0.000000 0.000000 0.000000
# 4 0.000000 0.000000 0.000000 0.077209 0.000000 0.000000
# 5 0.000000 0.000000 0.000000 0.000000 0.077209 0.000000
# 6 0.000000 0.000000 0.000000 0.000000 0.000000 0.005343
#
#
# Mechanical properties :
#
#
# Convention : Reuss Voigt Hill
#
# Bulk Modulus (GPa) = 46.79289 47.33325 47.06307
# Shear Modulus (GPa) = 23.59806 84.36525 53.98165
#
# Velocity S-wave (km/s) = 3.52205 6.65947 5.32698
# Velocity P-wave (km/s) = 6.41386 9.16587 7.91046
#
# Compressibility (1/GPa) = 0.02137077
#
# Stress axis : x y z
#
# Youngs Moduli (GPa) = 143.71142 143.71142 51.90093
#
# Poissons Ratio (x) = -0.61605 0.26453
# Poissons Ratio (y) = -0.61605 0.26453
# Poissons Ratio (z) = 0.73246 0.73246
#
# Static dielectric constant tensor:
#      x y z
#    x 3.298510 0.000000 0.000000 
#    y 0.000000 3.298510 0.000000 
#    z 0.000000 0.000000 3.276520 
# 
# 
# High freq. dielectric constant tensor:
#      x y z
#    x 1.749500 0.000000 0.000000 
#    y 0.000000 1.749500 0.000000 
#    z 0.000000 0.000000 1.701830 
# 
# From -- ./inp_files/630.got.cif
#   From: 2010.03.12/outbox.cif.g09.slc.cpg/sg189_1_cif.got.tgz:630.got - 2010.04.01 12:03:36.
