data_PCOD8327444
_publ_section_title
;
Structure prediction by ZEFSAII (Michael W. Deem and Ramdas Pophale) SiO2 
 PCOD8327444
Probable space group: P -6 C 2
;
_chemical_formula_sum "Si O2"
_cell_formula_units_Z 60
_cell_length_a 15.235944
_cell_length_b 15.235944
_cell_length_c 15.587100
_cell_angle_alpha 90.000000
_cell_angle_beta 90.000000
_cell_angle_gamma 120.000000
_cell_volume 3133.536002
_symmetry_space_group_name_H-M "P -6 C 2"
_symmetry_group_IT_number 188
_symmetry_cell_setting 'hexagonal'
loop_
_space_group_symop_operation_xyz
x,y,z
-x+y,-x,1/2-z
-y,x-y,z
x,y,1/2-z
-x+y,-x,z
-y,x-y,1/2-z
-y,-x,-z
-x+y,y,-z
x,x-y,-z
-x+y,y,1/2+z
x,x-y,1/2+z
-y,-x,1/2+z
loop_
_atom_site_type_symbol
_atom_site_label
_atom_site_fract_x
_atom_site_fract_y
_atom_site_fract_z
Si Si1 0.075318 0.724525 0.346276
Si Si2 0.602346 0.204694 0.651669
Si Si3 0.491237 0.982472 0.097069
Si Si4 0.649207 0.724524 0.346276
Si Si5 0.794152 0.794666 0.000000
O O1 0.043618 0.737800 0.250000
O O2 0.062657 0.614448 0.354020
O O3 0.192190 0.807811 0.364780
O O4 0.003554 0.736438 0.414943
O O5 0.724052 0.275947 0.633860
O O6 0.584154 0.168309 0.750000
O O7 0.552580 0.105162 0.593967
O O8 0.385554 0.937344 0.145980
O O9 0.471573 0.943145 0.000000
O O10 0.694181 0.737798 0.250000
O O11 0.732885 0.736438 0.414943
O O12 0.896858 0.793716 0.000000
O O13 0.819616 0.909808 0.000000
#
# Coordination Sequence:
#
# PCOD8327444 Si02
#       5
#    12  12  12  12  12
#     4  10  22  41  62  86 121 158 200 251 297 357
#     4   8  18  36  54  78 116 157 199 246 287 344
#     4  12  22  36  62  87 121 162 199 249 310 356
#     4  10  22  41  62  86 121 158 200 251 297 357
#     4  10  21  39  62  90 122 154 198 245 301 354
#
# _framework density 19.147696
#
# number of rings (size 3 to 8) (size 9 to 14) (size 15 to 20)
#    0.400    1.600    2.000    2.000    0.000    3.200 
#    1.200    0.000    0.000    2.400    0.000    0.000 
#    0.000    0.000    0.000    0.000    0.000    0.000 
#
# Total GULP energy -743871.895401 kJ/mol
# GULP energy per Si atom -12397.864923 kJ/mol
# Density = 1.910412 g / cm^3
# Si number density = 19.147696 Si / 1000 Ang^3
#
#
#
# Elastic Constant Matrix: (Units=GPa)
#
#
# Indices 1 2 3 4 5 6 
#
# 1 97.3752 63.4353 43.0529 0.0000 0.0000 0.0000
# 2 63.4353 97.3752 43.0529 0.0000 0.0000 0.0000
# 3 43.0529 43.0529 138.4111 0.0000 0.0000 0.0000
# 4 0.0000 0.0000 0.0000 21.6159 0.0000 0.0000
# 5 0.0000 0.0000 0.0000 0.0000 21.6159 0.0000
# 6 0.0000 0.0000 0.0000 0.0000 0.0000 16.9700
#
#
#
# Elastic Compliance Matrix: (Units=1/GPa)
#
#
# Indices 1 2 3 4 5 6 
#
# 1 0.018463 -0.011001 -0.002321 0.000000 0.000000 0.000000
# 2 -0.011001 0.018463 -0.002321 0.000000 0.000000 0.000000
# 3 -0.002321 -0.002321 0.008669 0.000000 0.000000 0.000000
# 4 0.000000 0.000000 0.000000 0.046262 0.000000 0.000000
# 5 0.000000 0.000000 0.000000 0.000000 0.046262 0.000000
# 6 0.000000 0.000000 0.000000 0.000000 0.000000 0.058928
#
#
# Mechanical properties :
#
#
# Convention : Reuss Voigt Hill
#
# Bulk Modulus (GPa) = 69.89213 70.24927 70.07070
# Shear Modulus (GPa) = 21.44994 24.28171 22.86582
#
# Velocity S-wave (km/s) = 3.35062 3.56494 3.45944
# Velocity P-wave (km/s) = 7.17981 7.32890 7.25474
#
# Compressibility (1/GPa) = 0.01430776
#
# Stress axis : x y z
#
# Youngs Moduli (GPa) = 54.16382 54.16382 115.35850
#
# Poissons Ratio (x) = 0.59587 0.26772
# Poissons Ratio (y) = 0.59587 0.26772
# Poissons Ratio (z) = 0.12570 0.12570
#
# Static dielectric constant tensor:
#      x y z
#    x 3.359680 0.000000 0.000000 
#    y 0.000000 3.359680 0.000000 
#    z 0.000000 0.000000 3.710260 
# 
# 
# High freq. dielectric constant tensor:
#      x y z
#    x 1.733350 0.000000 0.000000 
#    y 0.000000 1.733350 0.000000 
#    z 0.000000 0.000000 1.762040 
# 
# From -- ./inp_files/2270.got.cif
#   From: 2010.03.12/outbox.cif.g09.slc.cpg/sg188_2_cif.got.tgz:2270.got - 2010.04.01 12:01:06.
