data_PCOD8327551
_publ_section_title
;
Structure prediction by ZEFSAII (Michael W. Deem and Ramdas Pophale) SiO2 
 PCOD8327551
Probable space group: P -6 2 M
;
_chemical_formula_sum "Si O2"
_cell_formula_units_Z 72
_cell_length_a 22.560406
_cell_length_b 22.560406
_cell_length_c 9.204068
_cell_angle_alpha 90.000000
_cell_angle_beta 90.000000
_cell_angle_gamma 120.000000
_cell_volume 4056.993130
_symmetry_space_group_name_H-M "P -6 2 M"
_symmetry_group_IT_number 189
_symmetry_cell_setting 'hexagonal'
loop_
_space_group_symop_operation_xyz
x,y,z
-x+y,-x,-z
-y,x-y,z
x,y,-z
-x+y,-x,z
-y,x-y,-z
x-y,-y,-z
-x,-x+y,-z
y,x,-z
y,x,z
x-y,-y,z
-x,-x+y,z
loop_
_atom_site_type_symbol
_atom_site_label
_atom_site_fract_x
_atom_site_fract_y
_atom_site_fract_z
Si Si1 0.773521 0.615748 0.339867
Si Si2 0.450650 0.812508 0.168824
Si Si3 0.228676 0.077680 0.672930
Si Si4 0.790830 0.305688 0.166938
Si Si5 0.688182 0.110002 0.339408
Si Si6 0.000000 0.697660 0.830818
Si Si7 0.179821 0.179821 0.327771
O O1 0.745140 0.618493 0.500000
O O2 0.809534 0.692487 0.268783
O O3 0.712329 0.556713 0.245473
O O4 0.827192 0.590448 0.355673
O O5 0.378330 0.802328 0.219463
O O6 0.456087 0.745139 0.195703
O O7 0.503942 0.869906 0.277795
O O8 0.465668 0.834803 0.000000
O O9 0.231200 0.079523 0.500000
O O10 0.184509 0.113396 0.725460
O O11 0.189822 0.000000 0.732540
O O12 0.809054 0.306974 0.000000
O O13 0.663974 0.075487 0.500000
O O14 0.691592 0.064617 0.211762
O O15 0.000000 0.755200 0.733685
O O16 0.000000 0.713744 0.000000
O O17 0.184865 0.184865 0.500000
#
# Coordination Sequence:
#
# PCOD8327551 Si02
#       7
#    12  12  12  12  12   6   6
#     4   9  17  30  49  72  98 130 171 213 253 298
#     4   9  17  30  47  72 102 136 172 213 260 311
#     4   9  17  31  53  79 106 135 167 208 256 306
#     4   9  17  29  48  71 101 135 173 213 259 306
#     4  10  19  32  50  73 100 131 166 212 263 308
#     4  12  22  32  52  78 102 130 167 210 259 318
#     4  10  18  34  56  80 110 138 167 208 259 310
#
# _framework density 17.747133000000002
#
# number of rings (size 3 to 8) (size 9 to 14) (size 15 to 20)
#    0.000    2.500    1.667    1.583    0.000    2.667 
#    0.500    0.000    1.833    4.000    0.000    0.000 
#    0.000    0.000    0.000    0.000    0.000    0.000 
#
# Total GULP energy -892013.331336 kJ/mol
# GULP energy per Si atom -12389.074046 kJ/mol
# Density = 1.770674 g / cm^3
# Si number density = 17.747133 Si / 1000 Ang^3
#
#
#
# Elastic Constant Matrix: (Units=GPa)
#
#
# Indices 1 2 3 4 5 6 
#
# 1 109.0038 48.1514 23.1386 0.0000 0.0000 0.0000
# 2 48.1514 109.0038 23.1386 0.0000 0.0000 0.0000
# 3 23.1386 23.1386 18.1584 0.0000 0.0000 0.0000
# 4 0.0000 0.0000 0.0000 18.1816 0.0000 0.0000
# 5 0.0000 0.0000 0.0000 0.0000 18.1816 0.0000
# 6 0.0000 0.0000 0.0000 0.0000 0.0000 30.4262
#
#
#
# Elastic Compliance Matrix: (Units=1/GPa)
#
#
# Indices 1 2 3 4 5 6 
#
# 1 0.013309 -0.003124 -0.012978 0.000000 0.000000 0.000000
# 2 -0.003124 0.013309 -0.012978 0.000000 0.000000 0.000000
# 3 -0.012978 -0.012978 0.088146 0.000000 0.000000 0.000000
# 4 0.000000 0.000000 0.000000 0.055001 0.000000 0.000000
# 5 0.000000 0.000000 0.000000 0.000000 0.055001 0.000000
# 6 0.000000 0.000000 0.000000 0.000000 0.000000 0.032866
#
#
# Mechanical properties :
#
#
# Convention : Reuss Voigt Hill
#
# Bulk Modulus (GPa) = 17.66689 47.22481 32.44585
# Shear Modulus (GPa) = 14.94052 22.80703 18.87378
#
# Velocity S-wave (km/s) = 2.90462 3.58873 3.26465
# Velocity P-wave (km/s) = 4.60711 6.62115 5.70373
#
# Compressibility (1/GPa) = 0.05660306
#
# Stress axis : x y z
#
# Youngs Moduli (GPa) = 75.13711 75.13711 11.34482
#
# Poissons Ratio (x) = 0.23474 0.14723
# Poissons Ratio (y) = 0.23474 0.14723
# Poissons Ratio (z) = 0.97514 0.97514
#
# Static dielectric constant tensor:
#      x y z
#    x 3.402580 0.000000 0.000000 
#    y 0.000000 3.402580 0.000000 
#    z 0.000000 0.000000 3.308640 
# 
# 
# High freq. dielectric constant tensor:
#      x y z
#    x 1.676680 0.000000 0.000000 
#    y 0.000000 1.676680 0.000000 
#    z 0.000000 0.000000 1.667330 
# 
# From -- ./inp_files/1329.got.cif
#   From: 2010.03.12/outbox.cif.g09.slc.cpg/sg189_1_cif.got.tgz:1329.got - 2010.04.01 12:03:36.
