data_PCOD8327714
_publ_section_title
;
Structure prediction by ZEFSAII (Michael W. Deem and Ramdas Pophale) SiO2 
 PCOD8327714
Probable space group: P -6 2 M
;
_chemical_formula_sum "Si O2"
_cell_formula_units_Z 60
_cell_length_a 13.769275
_cell_length_b 13.769275
_cell_length_c 18.400226
_cell_angle_alpha 90.000000
_cell_angle_beta 90.000000
_cell_angle_gamma 120.000000
_cell_volume 3021.175377
_symmetry_space_group_name_H-M "P -6 2 M"
_symmetry_group_IT_number 189
_symmetry_cell_setting 'hexagonal'
loop_
_space_group_symop_operation_xyz
x,y,z
-x+y,-x,-z
-y,x-y,z
x,y,-z
-x+y,-x,z
-y,x-y,-z
x-y,-y,-z
-x,-x+y,-z
y,x,-z
y,x,z
x-y,-y,z
-x,-x+y,z
loop_
_atom_site_type_symbol
_atom_site_label
_atom_site_fract_x
_atom_site_fract_y
_atom_site_fract_z
Si Si1 0.449967 0.577534 0.078378
Si Si2 0.530554 0.657016 0.416590
Si Si3 0.323347 0.125369 0.082650
Si Si4 0.875237 0.570484 0.809898
Si Si5 0.131644 0.679985 0.351136
O O1 0.476430 0.476430 0.072551
O O2 0.562050 0.688819 0.099336
O O3 0.353027 0.541634 0.139363
O O4 0.403029 0.589310 0.000000
O O5 0.491790 0.630464 0.500000
O O6 0.631605 0.631605 0.400990
O O7 0.423186 0.575284 0.367630
O O8 0.574150 0.787897 0.401195
O O9 0.322879 0.206090 0.145690
O O10 0.218516 0.000000 0.092295
O O11 0.321462 0.166818 0.000000
O O12 0.822030 0.550213 0.730079
O O13 0.000000 0.595143 0.793899
O O14 0.000000 0.642146 0.363909
#
# Coordination Sequence:
#
# PCOD8327714 Si02
#       5
#    12  12  12  12  12
#     4   8  15  29  46  64  92 130 170 211 251 295
#     4  10  21  38  61  85 110 147 186 222 277 343
#     4   9  18  32  50  71  98 138 183 223 264 307
#     4  10  20  32  49  74 103 136 172 210 263 317
#     4  10  22  37  56  86 118 147 184 231 282 336
#
# _framework density 19.859819999999999
#
# number of rings (size 3 to 8) (size 9 to 14) (size 15 to 20)
#    0.000    2.600    0.000    2.800    2.800    3.200 
#    1.200    0.000    0.000    0.800    0.000    0.000 
#    0.000    0.000    0.000    0.000    0.000    0.000 
#
# Total GULP energy -743315.480805 kJ/mol
# GULP energy per Si atom -12388.591347 kJ/mol
# Density = 1.981462 g / cm^3
# Si number density = 19.859820 Si / 1000 Ang^3
#
#
#
# Elastic Constant Matrix: (Units=GPa)
#
#
# Indices 1 2 3 4 5 6 
#
# 1 74.3051 22.2052 29.5726 0.0000 0.0000 0.0000
# 2 22.2052 74.3051 29.5726 0.0000 0.0000 0.0000
# 3 29.5726 29.5726 111.6881 0.0000 0.0000 0.0000
# 4 0.0000 0.0000 0.0000 24.4361 0.0000 0.0000
# 5 0.0000 0.0000 0.0000 0.0000 24.4361 0.0000
# 6 0.0000 0.0000 0.0000 0.0000 0.0000 26.0500
#
#
#
# Elastic Compliance Matrix: (Units=1/GPa)
#
#
# Indices 1 2 3 4 5 6 
#
# 1 0.015781 -0.003413 -0.003275 0.000000 0.000000 0.000000
# 2 -0.003413 0.015781 -0.003275 0.000000 0.000000 0.000000
# 3 -0.003275 -0.003275 0.010688 0.000000 0.000000 0.000000
# 4 0.000000 0.000000 0.000000 0.040923 0.000000 0.000000
# 5 0.000000 0.000000 0.000000 0.000000 0.040923 0.000000
# 6 0.000000 0.000000 0.000000 0.000000 0.000000 0.038388
#
#
# Mechanical properties :
#
#
# Convention : Reuss Voigt Hill
#
# Bulk Modulus (GPa) = 44.79239 46.99988 45.89614
# Shear Modulus (GPa) = 26.33646 26.91430 26.62538
#
# Velocity S-wave (km/s) = 3.64554 3.68532 3.66548
# Velocity P-wave (km/s) = 6.35005 6.46730 6.40894
#
# Compressibility (1/GPa) = 0.02232522
#
# Stress axis : x y z
#
# Youngs Moduli (GPa) = 63.36638 63.36638 93.56484
#
# Poissons Ratio (x) = 0.21625 0.30642
# Poissons Ratio (y) = 0.21625 0.30642
# Poissons Ratio (z) = 0.20752 0.20752
#
# Static dielectric constant tensor:
#      x y z
#    x 3.512830 0.000000 0.000000 
#    y 0.000000 3.512830 0.000000 
#    z 0.000000 0.000000 3.876420 
# 
# 
# High freq. dielectric constant tensor:
#      x y z
#    x 1.751800 0.000000 0.000000 
#    y 0.000000 1.751800 0.000000 
#    z 0.000000 0.000000 1.780190 
# 
# From -- ./inp_files/2542.got.cif
#   From: 2010.03.12/outbox.cif.g09.slc.cpg/sg189_2_cif.got.tgz:2542.got - 2010.04.01 12:03:36.
