data_PCOD8327497
_publ_section_title
;
Structure prediction by ZEFSAII (Michael W. Deem and Ramdas Pophale) SiO2 
 PCOD8327497
Probable space group: P -6 2 M
;
_chemical_formula_sum "Si O2"
_cell_formula_units_Z 78
_cell_length_a 24.944880
_cell_length_b 24.944880
_cell_length_c 8.335983
_cell_angle_alpha 90.000000
_cell_angle_beta 90.000000
_cell_angle_gamma 120.000000
_cell_volume 4492.109045
_symmetry_space_group_name_H-M "P -6 2 M"
_symmetry_group_IT_number 189
_symmetry_cell_setting 'hexagonal'
loop_
_space_group_symop_operation_xyz
x,y,z
-x+y,-x,-z
-y,x-y,z
x,y,-z
-x+y,-x,z
-y,x-y,-z
x-y,-y,-z
-x,-x+y,-z
y,x,-z
y,x,z
x-y,-y,z
-x,-x+y,z
loop_
_atom_site_type_symbol
_atom_site_label
_atom_site_fract_x
_atom_site_fract_y
_atom_site_fract_z
Si Si1 0.807774 0.880927 0.323027
Si Si2 0.443018 0.929801 0.689913
Si Si3 0.708502 0.455542 0.680385
Si Si4 0.699793 0.769820 0.180923
Si Si5 0.696084 0.570981 0.681417
Si Si6 0.068028 0.928727 0.000000
Si Si7 0.195027 0.619318 0.184310
O O1 0.813240 0.912298 0.500000
O O2 0.853995 0.853995 0.321977
O O3 0.737100 0.826351 0.302659
O O4 0.823805 0.925772 0.167310
O O5 0.444953 0.925968 0.500000
O O6 0.374422 0.912903 0.745842
O O7 0.455651 0.876509 0.757619
O O8 0.492696 0.000000 0.749410
O O9 0.688786 0.430193 0.500000
O O10 0.723990 0.525750 0.691948
O O11 0.649558 0.413502 0.791337
O O12 0.770671 0.455664 0.727195
O O13 0.716676 0.716676 0.214121
O O14 0.627156 0.739684 0.204789
O O15 0.717938 0.795682 0.000000
O O16 0.698395 0.594340 0.500000
O O17 0.000000 0.920343 0.000000
O O18 0.120298 0.000000 0.000000
O O19 0.193321 0.633147 0.000000
#
# Coordination Sequence:
#
# PCOD8327497 Si02
#       7
#    12  12  12  12  12   6  12
#     4   9  17  30  47  66  93 127 162 197 231 279
#     4   9  18  33  50  69  97 133 168 198 235 292
#     4  10  20  35  50  66  93 129 167 201 241 295
#     4  10  18  28  44  68  98 130 159 189 232 286
#     4   9  18  30  46  69  95 124 159 197 235 282
#     4  10  19  32  48  70  98 126 160 198 240 282
#     4  11  21  32  49  72  98 126 162 208 255 297
#
# _framework density 17.363782
#
# number of rings (size 3 to 8) (size 9 to 14) (size 15 to 20)
#    0.000    2.308    0.769    4.077    0.000    5.231 
#    0.000    0.000    0.000    0.923    0.000    1.077 
#    0.000    1.231    0.000    0.000    0.000    0.000 
#
# Total GULP energy -966689.645381 kJ/mol
# GULP energy per Si atom -12393.456992 kJ/mol
# Density = 1.732426 g / cm^3
# Si number density = 17.363782 Si / 1000 Ang^3
#
#
#
# Elastic Constant Matrix: (Units=GPa)
#
#
# Indices 1 2 3 4 5 6 
#
# 1 74.5697 28.0162 26.2814 0.0000 0.0000 0.0000
# 2 28.0162 74.5697 26.2814 0.0000 0.0000 0.0000
# 3 26.2814 26.2814 94.0047 0.0000 0.0000 0.0000
# 4 0.0000 0.0000 0.0000 18.7553 0.0000 0.0000
# 5 0.0000 0.0000 0.0000 0.0000 18.7553 0.0000
# 6 0.0000 0.0000 0.0000 0.0000 0.0000 23.2767
#
#
#
# Elastic Compliance Matrix: (Units=1/GPa)
#
#
# Indices 1 2 3 4 5 6 
#
# 1 0.016429 -0.005051 -0.003181 0.000000 0.000000 0.000000
# 2 -0.005051 0.016429 -0.003181 0.000000 0.000000 0.000000
# 3 -0.003181 -0.003181 0.012416 0.000000 0.000000 0.000000
# 4 0.000000 0.000000 0.000000 0.053318 0.000000 0.000000
# 5 0.000000 0.000000 0.000000 0.000000 0.053318 0.000000
# 6 0.000000 0.000000 0.000000 0.000000 0.000000 0.042961
#
#
# Mechanical properties :
#
#
# Convention : Reuss Voigt Hill
#
# Bulk Modulus (GPa) = 44.54707 44.92245 44.73476
# Shear Modulus (GPa) = 22.20426 22.99515 22.59971
#
# Velocity S-wave (km/s) = 3.57987 3.64306 3.61160
# Velocity P-wave (km/s) = 6.54203 6.60480 6.57349
#
# Compressibility (1/GPa) = 0.02244817
#
# Stress axis : x y z
#
# Youngs Moduli (GPa) = 60.86714 60.86714 80.53869
#
# Poissons Ratio (x) = 0.30747 0.25619
# Poissons Ratio (y) = 0.30747 0.25619
# Poissons Ratio (z) = 0.19362 0.19362
#
# Static dielectric constant tensor:
#      x y z
#    x 3.046840 0.000000 0.000000 
#    y 0.000000 3.046840 0.000000 
#    z 0.000000 0.000000 3.453710 
# 
# 
# High freq. dielectric constant tensor:
#      x y z
#    x 1.643740 0.000000 0.000000 
#    y 0.000000 1.643740 0.000000 
#    z 0.000000 0.000000 1.684890 
# 
# From -- ./inp_files/1403.got.cif
#   From: 2010.03.12/outbox.cif.g09.slc.cpg/sg189_1_cif.got.tgz:1403.got - 2010.04.01 12:03:36.
