data_PCOD8327773
_publ_section_title
;
Structure prediction by ZEFSAII (Michael W. Deem and Ramdas Pophale) SiO2 
 PCOD8327773
Probable space group: P -6 2 M
;
_chemical_formula_sum "Si O2"
_cell_formula_units_Z 60
_cell_length_a 14.106788
_cell_length_b 14.106788
_cell_length_c 17.195183
_cell_angle_alpha 90.000000
_cell_angle_beta 90.000000
_cell_angle_gamma 120.000000
_cell_volume 2963.423451
_symmetry_space_group_name_H-M "P -6 2 M"
_symmetry_group_IT_number 189
_symmetry_cell_setting 'hexagonal'
loop_
_space_group_symop_operation_xyz
x,y,z
-x+y,-x,-z
-y,x-y,z
x,y,-z
-x+y,-x,z
-y,x-y,-z
x-y,-y,-z
-x,-x+y,-z
y,x,-z
y,x,z
x-y,-y,z
-x,-x+y,z
loop_
_atom_site_type_symbol
_atom_site_label
_atom_site_fract_x
_atom_site_fract_y
_atom_site_fract_z
Si Si1 0.459594 0.125297 0.408241
Si Si2 0.540877 0.872497 0.657558
Si Si3 0.825120 0.548250 0.834750
Si Si4 0.608491 0.486001 0.912443
Si Si5 0.879336 0.119792 0.913103
O O1 0.472436 0.135971 0.500000
O O2 0.577273 0.154591 0.373898
O O3 0.424042 0.212335 0.378745
O O4 0.367999 0.000000 0.384630
O O5 0.527715 0.852494 0.749053
O O6 0.631768 0.000000 0.638703
O O7 0.695465 0.492564 0.849491
O O8 0.878576 0.503275 0.895837
O O9 0.879965 0.676175 0.850816
O O10 0.588472 0.588472 0.902761
O O11 0.647957 0.483444 0.000000
O O12 0.000000 0.204250 0.883889
O O13 0.865208 0.000000 0.915444
O O14 0.860155 0.153061 0.000000
#
# Coordination Sequence:
#
# PCOD8327773 Si02
#       5
#    12  12  12  12  12
#     4  10  22  41  65  92 121 154 193 237 286 346
#     4  11  23  39  62  93 126 158 192 236 294 356
#     4  12  23  37  55  80 115 151 188 234 289 345
#     4  11  23  38  56  78 108 151 201 248 291 337
#     4  10  20  35  55  78 106 145 196 250 297 339
#
# _framework density 20.246853000000002
#
# number of rings (size 3 to 8) (size 9 to 14) (size 15 to 20)
#    0.000    1.200    0.000    7.000    0.000    8.400 
#    0.000    0.000    0.000    0.400    0.000    0.000 
#    0.000    0.000    0.000    0.000    0.000    0.000 
#
# Total GULP energy -743836.373876 kJ/mol
# GULP energy per Si atom -12397.272898 kJ/mol
# Density = 2.020077 g / cm^3
# Si number density = 20.246853 Si / 1000 Ang^3
#
#
#
# Elastic Constant Matrix: (Units=GPa)
#
#
# Indices 1 2 3 4 5 6 
#
# 1 119.3844 61.8863 42.2694 0.0000 0.0000 0.0000
# 2 61.8863 119.3844 42.2694 0.0000 0.0000 0.0000
# 3 42.2694 42.2694 83.9729 0.0000 0.0000 0.0000
# 4 0.0000 0.0000 0.0000 17.2624 0.0000 0.0000
# 5 0.0000 0.0000 0.0000 0.0000 17.2624 0.0000
# 6 0.0000 0.0000 0.0000 0.0000 0.0000 28.7490
#
#
#
# Elastic Compliance Matrix: (Units=1/GPa)
#
#
# Indices 1 2 3 4 5 6 
#
# 1 0.012300 -0.005091 -0.003629 0.000000 0.000000 0.000000
# 2 -0.005091 0.012300 -0.003629 0.000000 0.000000 0.000000
# 3 -0.003629 -0.003629 0.015562 0.000000 0.000000 0.000000
# 4 0.000000 0.000000 0.000000 0.057929 0.000000 0.000000
# 5 0.000000 0.000000 0.000000 0.000000 0.057929 0.000000
# 6 0.000000 0.000000 0.000000 0.000000 0.000000 0.034784
#
#
# Mechanical properties :
#
#
# Convention : Reuss Voigt Hill
#
# Bulk Modulus (GPa) = 64.66356 68.39910 66.53133
# Shear Modulus (GPa) = 22.65952 24.40922 23.53437
#
# Velocity S-wave (km/s) = 3.34902 3.47591 3.41306
# Velocity P-wave (km/s) = 6.85284 7.06861 6.96156
#
# Compressibility (1/GPa) = 0.01546466
#
# Stress axis : x y z
#
# Youngs Moduli (GPa) = 81.29802 81.29802 64.25983
#
# Poissons Ratio (x) = 0.41393 0.23318
# Poissons Ratio (y) = 0.41393 0.23318
# Poissons Ratio (z) = 0.29501 0.29501
#
# Static dielectric constant tensor:
#      x y z
#    x 3.899530 0.000000 0.000000 
#    y 0.000000 3.899530 0.000000 
#    z 0.000000 0.000000 3.607840 
# 
# 
# High freq. dielectric constant tensor:
#      x y z
#    x 1.798440 0.000000 0.000000 
#    y 0.000000 1.798440 0.000000 
#    z 0.000000 0.000000 1.778820 
# 
# From -- ./inp_files/2516.got.cif
#   From: 2010.03.12/outbox.cif.g09.slc.cpg/sg189_2_cif.got.tgz:2516.got - 2010.04.01 12:03:36.
