data_PCOD8327005
_publ_section_title
;
Structure prediction by ZEFSAII (Michael W. Deem and Ramdas Pophale) SiO2 
 PCOD8327005
Probable space group: P -6 M 2
;
_chemical_formula_sum "Si O2"
_cell_formula_units_Z 66
_cell_length_a 17.780992
_cell_length_b 17.780992
_cell_length_c 15.224538
_cell_angle_alpha 90.000000
_cell_angle_beta 90.000000
_cell_angle_gamma 120.000000
_cell_volume 4168.566435
_symmetry_space_group_name_H-M "P -6 M 2"
_symmetry_group_IT_number 187
_symmetry_cell_setting 'hexagonal'
loop_
_space_group_symop_operation_xyz
x,y,z
-x+y,-x,-z
-y,x-y,z
x,y,-z
-x+y,-x,z
-y,x-y,-z
-y,-x,-z
-x+y,y,-z
x,x-y,-z
-x+y,y,z
x,x-y,z
-y,-x,z
loop_
_atom_site_type_symbol
_atom_site_label
_atom_site_fract_x
_atom_site_fract_y
_atom_site_fract_z
Si Si1 0.358916 0.091403 0.100521
Si Si2 0.330673 0.841632 0.308755
Si Si3 0.168469 0.667935 0.500000
Si Si4 0.666702 0.508711 0.600320
Si Si5 0.425616 0.027930 0.250757
Si Si6 0.834525 0.834938 0.895575
O O1 0.378977 0.189489 0.110434
O O2 0.420900 0.074742 0.162781
O O3 0.261301 0.023917 0.133059
O O4 0.373712 0.073487 0.000000
O O5 0.411841 0.823682 0.307043
O O6 0.244350 0.755651 0.272787
O O7 0.313280 0.864526 0.408193
O O8 0.350264 0.926434 0.252622
O O9 0.273671 0.726329 0.500000
O O10 0.134431 0.567216 0.500000
O O11 0.667064 0.538189 0.500000
O O12 0.755684 0.511367 0.624259
O O13 0.589240 0.410761 0.615221
O O14 0.656738 0.576433 0.663236
O O15 0.516425 0.032850 0.247516
O O16 0.810735 0.905368 0.857739
O O17 0.928585 0.857170 0.858711
O O18 0.839093 0.838317 0.000000
#
# Coordination Sequence:
#
# PCOD8327005 Si02
#       6
#    12  12   6  12  12  12
#     4   9  18  32  47  62  84 115 147 178 216 263
#     4   9  17  28  43  63  89 121 155 188 224 263
#     4   8  13  22  38  58  81 110 144 180 216 256
#     4   9  17  29  46  66  88 112 138 170 213 267
#     4  10  20  30  44  66  88 113 146 185 226 262
#     4   8  13  22  39  63  87 109 133 164 204 249
#
# _framework density 15.832781000000001
#
# number of rings (size 3 to 8) (size 9 to 14) (size 15 to 20)
#    0.000    3.091    0.000    2.273    1.273    4.000 
#    0.000    0.000    0.000    0.364    0.000    0.000 
#    0.000    1.455    0.000    0.000    0.000    1.273 
#
# Total GULP energy -817668.634028 kJ/mol
# GULP energy per Si atom -12388.918697 kJ/mol
# Density = 1.579674 g / cm^3
# Si number density = 15.832781 Si / 1000 Ang^3
#
#
#
# Elastic Constant Matrix: (Units=GPa)
#
#
# Indices 1 2 3 4 5 6 
#
# 1 59.2664 31.3229 34.6857 0.0000 0.0000 0.0000
# 2 31.3229 59.2664 34.6857 0.0000 0.0000 0.0000
# 3 34.6857 34.6857 69.5583 0.0000 0.0000 0.0000
# 4 0.0000 0.0000 0.0000 19.2253 0.0000 0.0000
# 5 0.0000 0.0000 0.0000 0.0000 19.2253 0.0000
# 6 0.0000 0.0000 0.0000 0.0000 0.0000 13.9718
#
#
#
# Elastic Compliance Matrix: (Units=1/GPa)
#
#
# Indices 1 2 3 4 5 6 
#
# 1 0.026822 -0.008964 -0.008905 0.000000 0.000000 0.000000
# 2 -0.008964 0.026822 -0.008905 0.000000 0.000000 0.000000
# 3 -0.008905 -0.008905 0.023258 0.000000 0.000000 0.000000
# 4 0.000000 0.000000 0.000000 0.052015 0.000000 0.000000
# 5 0.000000 0.000000 0.000000 0.000000 0.052015 0.000000
# 6 0.000000 0.000000 0.000000 0.000000 0.000000 0.071573
#
#
# Mechanical properties :
#
#
# Convention : Reuss Voigt Hill
#
# Bulk Modulus (GPa) = 42.82004 43.27554 43.04779
# Shear Modulus (GPa) = 15.93180 16.31093 16.12136
#
# Velocity S-wave (km/s) = 3.17559 3.21315 3.19443
# Velocity P-wave (km/s) = 6.36787 6.41545 6.39170
#
# Compressibility (1/GPa) = 0.02335355
#
# Stress axis : x y z
#
# Youngs Moduli (GPa) = 37.28241 37.28241 42.99671
#
# Poissons Ratio (x) = 0.33420 0.38289
# Poissons Ratio (y) = 0.33420 0.38289
# Poissons Ratio (z) = 0.33200 0.33200
#
# Static dielectric constant tensor:
#      x y z
#    x 3.027240 0.000000 0.000000 
#    y 0.000000 3.027240 0.000000 
#    z 0.000000 0.000000 2.823610 
# 
# 
# High freq. dielectric constant tensor:
#      x y z
#    x 1.597320 0.000000 0.000000 
#    y 0.000000 1.597320 0.000000 
#    z 0.000000 0.000000 1.582320 
# 
# From -- ./inp_files/2496.got.cif
#   From: 2010.03.12/outbox.cif.g09.slc.cpg/sg187_2_cif.got.tgz:2496.got - 2010.04.01 11:58:23.
