data_PCOD8327908
_publ_section_title
;
Structure prediction by ZEFSAII (Michael W. Deem and Ramdas Pophale) SiO2 
 PCOD8327908
Probable space group: P -6 2 M
;
_chemical_formula_sum "Si O2"
_cell_formula_units_Z 16
_cell_length_a 9.655882
_cell_length_b 9.655882
_cell_length_c 8.644091
_cell_angle_alpha 90.000000
_cell_angle_beta 90.000000
_cell_angle_gamma 120.000000
_cell_volume 697.965348
_symmetry_space_group_name_H-M "P -6 2 M"
_symmetry_group_IT_number 189
_symmetry_cell_setting 'hexagonal'
loop_
_space_group_symop_operation_xyz
x,y,z
-x+y,-x,-z
-y,x-y,z
x,y,-z
-x+y,-x,z
-y,x-y,-z
x-y,-y,-z
-x,-x+y,-z
y,x,-z
y,x,z
x-y,-y,z
-x,-x+y,z
loop_
_atom_site_type_symbol
_atom_site_label
_atom_site_fract_x
_atom_site_fract_y
_atom_site_fract_z
Si Si1 0.666668 0.333334 0.817501
Si Si2 0.823630 0.000000 0.174548
Si Si3 0.534737 0.000000 0.320003
O O1 0.611446 0.455312 0.756450
O O2 0.666667 0.333334 0.000000
O O3 0.000000 0.157029 0.197592
O O4 0.700390 0.000000 0.296299
O O5 0.761174 0.000000 0.000000
O O6 0.500447 0.000000 0.500000
#
# Coordination Sequence:
#
# PCOD8327908 Si02
#       3
#     4   6   6
#     4  12  28  50  76 102 142 194 244 291 358 440
#     4   8  18  37  64  95 134 182 234 278 336 421
#     4  12  26  45  70 105 146 184 236 302 364 417
#
# _framework density 22.923772
#
# number of rings (size 3 to 8) (size 9 to 14) (size 15 to 20)
#    0.750    0.750    0.000    5.625    5.250    1.500 
#    0.000    0.000    0.000    0.000    0.000    0.000 
#    0.000    0.000    0.000    0.000    0.000    0.000 
#
# Total GULP energy -198397.093260 kJ/mol
# GULP energy per Si atom -12399.818329 kJ/mol
# Density = 2.287160 g / cm^3
# Si number density = 22.923772 Si / 1000 Ang^3
#
#
#
# Elastic Constant Matrix: (Units=GPa)
#
#
# Indices 1 2 3 4 5 6 
#
# 1 85.2473 12.6417 36.4687 0.0000 0.0001 0.0000
# 2 12.6417 85.2441 36.4695 -0.0003 0.0001 -0.0009
# 3 36.4687 36.4695 191.0092 0.0002 0.0001 0.0004
# 4 0.0000 -0.0003 0.0002 40.5508 -0.0001 0.0000
# 5 0.0001 0.0001 0.0001 -0.0001 40.5513 -0.0001
# 6 0.0000 -0.0009 0.0004 0.0000 -0.0001 36.3021
#
#
#
# Elastic Compliance Matrix: (Units=1/GPa)
#
#
# Indices 1 2 3 4 5 6 
#
# 1 0.012842 -0.000932 -0.002274 0.000000 0.000000 0.000000
# 2 -0.000932 0.012842 -0.002274 0.000000 0.000000 0.000000
# 3 -0.002274 -0.002274 0.006104 0.000000 0.000000 0.000000
# 4 0.000000 0.000000 0.000000 0.024660 0.000000 0.000000
# 5 0.000000 0.000000 0.000000 0.000000 0.024660 0.000000
# 6 0.000000 0.000000 0.000000 0.000000 0.000000 0.027547
#
#
# Mechanical properties :
#
#
# Convention : Reuss Voigt Hill
#
# Bulk Modulus (GPa) = 48.01195 59.18447 53.59821
# Shear Modulus (GPa) = 39.50811 41.87555 40.69183
#
# Velocity S-wave (km/s) = 4.15596 4.27866 4.21776
# Velocity P-wave (km/s) = 6.63468 7.09107 6.86667
#
# Compressibility (1/GPa) = 0.02082815
#
# Stress axis : x y z
#
# Youngs Moduli (GPa) = 77.87249 77.86904 163.83528
#
# Poissons Ratio (x) = 0.07254 0.37255
# Poissons Ratio (y) = 0.07254 0.37257
# Poissons Ratio (z) = 0.17708 0.17708
#
# Static dielectric constant tensor:
#      x y z
#    x 3.907200 0.000030 -0.000010 
#    y 0.000030 3.907210 0.000030 
#    z -0.000010 0.000030 3.847150 
# 
# 
# High freq. dielectric constant tensor:
#      x y z
#    x 1.906370 0.000000 0.000000 
#    y 0.000000 1.906370 0.000000 
#    z 0.000000 0.000000 1.897090 
# 
# From -- ./inp_files/137.got.cif
#   From: 2010.03.12/outbox.cif.g09.slc.cpg/sg189_1_cif.got.tgz:137.got - 2010.04.01 12:03:36.
