data_PCOD8327098
_publ_section_title
;
Structure prediction by ZEFSAII (Michael W. Deem and Ramdas Pophale) SiO2 
 PCOD8327098
Probable space group: P -6 M 2
;
_chemical_formula_sum "Si O2"
_cell_formula_units_Z 72
_cell_length_a 12.470889
_cell_length_b 12.470889
_cell_length_c 30.893976
_cell_angle_alpha 90.000000
_cell_angle_beta 90.000000
_cell_angle_gamma 120.000000
_cell_volume 4161.014833
_symmetry_space_group_name_H-M "P -6 M 2"
_symmetry_group_IT_number 187
_symmetry_cell_setting 'hexagonal'
loop_
_space_group_symop_operation_xyz
x,y,z
-x+y,-x,-z
-y,x-y,z
x,y,-z
-x+y,-x,z
-y,x-y,-z
-y,-x,-z
-x+y,y,-z
x,x-y,-z
-x+y,y,z
x,x-y,z
-y,-x,z
loop_
_atom_site_type_symbol
_atom_site_label
_atom_site_fract_x
_atom_site_fract_y
_atom_site_fract_z
Si Si1 0.415749 0.331767 0.081920
Si Si2 0.749417 0.748273 0.000000
Si Si3 0.915645 0.334211 0.672716
Si Si4 0.083674 0.666362 0.245558
Si Si5 0.330926 0.916210 0.593772
Si Si6 0.999923 0.249653 0.164069
Si Si7 0.092458 0.424142 0.500000
O O1 0.454609 0.227305 0.078911
O O2 0.536847 0.463154 0.079539
O O3 0.346423 0.322600 0.126357
O O4 0.328674 0.320714 0.042264
O O5 0.744929 0.872465 0.000000
O O6 0.891711 0.783421 0.000000
O O7 0.874026 0.437013 0.672975
O O8 0.797482 0.202519 0.681720
O O9 0.016858 0.361842 0.709212
O O10 0.974423 0.331338 0.626698
O O11 0.085638 0.542819 0.233486
O O12 0.223576 0.776425 0.249270
O O13 0.008206 0.690780 0.208843
O O14 0.444249 0.888498 0.593627
O O15 0.208819 0.791182 0.608486
O O16 0.311018 0.959711 0.545634
O O17 0.890835 0.109166 0.167588
O O18 0.124521 0.249041 0.153073
O O19 0.240849 0.481697 0.500000
O O20 0.056972 0.528486 0.500000
#
# Coordination Sequence:
#
# PCOD8327098 Si02
#       7
#    12   6  12  12  12  12   6
#     4  10  20  34  53  76 102 132 167 208 252 295
#     4  10  20  34  54  78 104 134 168 208 252 300
#     4  10  20  33  48  66  91 124 161 198 235 277
#     4  10  20  34  53  76 101 127 156 194 241 292
#     4   9  16  27  46  71  97 122 150 189 237 287
#     4  10  20  34  53  76 103 135 169 204 240 282
#     4   8  13  22  39  66  96 122 148 182 230 284
#
# _framework density 17.303471999999999
#
# number of rings (size 3 to 8) (size 9 to 14) (size 15 to 20)
#    0.000    2.333    0.000    3.250    0.000    1.333 
#    0.000    4.583    0.000   14.667    0.000    1.167 
#    0.000    0.000    0.000    0.000    0.000    0.000 
#
# Total GULP energy -892668.476196 kJ/mol
# GULP energy per Si atom -12398.173280 kJ/mol
# Density = 1.726409 g / cm^3
# Si number density = 17.303472 Si / 1000 Ang^3
#
#
#
# Elastic Constant Matrix: (Units=GPa)
#
#
# Indices 1 2 3 4 5 6 
#
# 1 88.0305 48.7030 39.5658 0.0000 -0.0004 0.0000
# 2 48.7030 88.0305 39.5658 0.0000 0.0004 0.0000
# 3 39.5658 39.5658 104.9906 0.0000 0.0000 0.0000
# 4 0.0000 0.0000 0.0000 24.3467 0.0000 0.0004
# 5 -0.0004 0.0004 0.0000 0.0000 24.3467 0.0000
# 6 0.0000 0.0000 0.0000 0.0004 0.0000 19.6637
#
#
#
# Elastic Compliance Matrix: (Units=1/GPa)
#
#
# Indices 1 2 3 4 5 6 
#
# 1 0.017390 -0.008037 -0.003525 0.000000 0.000000 0.000000
# 2 -0.008037 0.017390 -0.003525 0.000000 0.000000 0.000000
# 3 -0.003525 -0.003525 0.012181 0.000000 0.000000 0.000000
# 4 0.000000 0.000000 0.000000 0.041073 0.000000 -0.000001
# 5 0.000000 0.000000 0.000000 0.000000 0.041073 0.000000
# 6 0.000000 0.000000 0.000000 -0.000001 0.000000 0.050855
#
#
# Mechanical properties :
#
#
# Convention : Reuss Voigt Hill
#
# Bulk Modulus (GPa) = 59.56352 59.63568 59.59960
# Shear Modulus (GPa) = 23.17673 23.88590 23.53132
#
# Velocity S-wave (km/s) = 3.66379 3.71942 3.69171
# Velocity P-wave (km/s) = 7.23847 7.27907 7.25880
#
# Compressibility (1/GPa) = 0.01678880
#
# Stress axis : x y z
#
# Youngs Moduli (GPa) = 57.50277 57.50277 82.09270
#
# Poissons Ratio (x) = 0.46215 0.28936
# Poissons Ratio (y) = 0.46215 0.28936
# Poissons Ratio (z) = 0.20269 0.20269
#
# Static dielectric constant tensor:
#      x y z
#    x 3.060040 0.000000 0.000000 
#    y 0.000000 3.060040 0.000000 
#    z 0.000000 0.000000 3.592570 
# 
# 
# High freq. dielectric constant tensor:
#      x y z
#    x 1.656910 0.000000 0.000000 
#    y 0.000000 1.656910 0.000000 
#    z 0.000000 0.000000 1.691710 
# 
# From -- ./inp_files/4550.got.cif
#   From: 2010.03.12/outbox.cif.g09.slc.cpg/sg187_3_cif.got.tgz:4550.got - 2010.04.01 11:58:23.
