data_PCOD8327879
_publ_section_title
;
Structure prediction by ZEFSAII (Michael W. Deem and Ramdas Pophale) SiO2 
 PCOD8327879
Probable space group: P -6 2 M
;
_chemical_formula_sum "Si O2"
_cell_formula_units_Z 48
_cell_length_a 17.700816
_cell_length_b 17.700816
_cell_length_c 8.385835
_cell_angle_alpha 90.000000
_cell_angle_beta 90.000000
_cell_angle_gamma 120.000000
_cell_volume 2275.430211
_symmetry_space_group_name_H-M "P -6 2 M"
_symmetry_group_IT_number 189
_symmetry_cell_setting 'hexagonal'
loop_
_space_group_symop_operation_xyz
x,y,z
-x+y,-x,-z
-y,x-y,z
x,y,-z
-x+y,-x,z
-y,x-y,-z
x-y,-y,-z
-x,-x+y,-z
y,x,-z
y,x,z
x-y,-y,z
-x,-x+y,z
loop_
_atom_site_type_symbol
_atom_site_label
_atom_site_fract_x
_atom_site_fract_y
_atom_site_fract_z
Si Si1 0.225072 0.000000 0.314897
Si Si2 0.899835 0.718929 0.188544
Si Si3 0.161962 0.551578 0.683171
Si Si4 0.518422 0.792282 0.815457
Si Si5 0.386626 0.000000 0.815596
O O1 0.248119 0.000000 0.500000
O O2 0.222161 0.087676 0.274398
O O3 0.296866 0.000000 0.198926
O O4 0.845029 0.618098 0.247110
O O5 0.000000 0.756879 0.239540
O O6 0.891420 0.724656 0.000000
O O7 0.161356 0.575450 0.500000
O O8 0.151996 0.622375 0.788290
O O9 0.246581 0.543320 0.720518
O O10 0.082954 0.458300 0.724906
O O11 0.518706 0.769828 0.000000
O O12 0.410082 0.000000 0.000000
#
# Coordination Sequence:
#
# PCOD8327879 Si02
#       5
#     6  12  12  12   6
#     4  12  24  42  70 100 131 168 211 268 340 398
#     4  10  23  44  70  98 128 169 220 269 322 389
#     4  12  25  41  62  94 131 169 215 269 322 377
#     4  11  23  41  66  94 129 174 219 266 321 384
#     4  12  24  42  66  92 123 168 221 266 316 392
#
# _framework density 21.094913999999999
#
# number of rings (size 3 to 8) (size 9 to 14) (size 15 to 20)
#    0.000    0.750    2.500    5.750    1.750    1.500 
#    0.750    0.000    0.000    0.000    0.000    0.000 
#    0.000    0.000    0.000    0.000    0.000    0.000 
#
# Total GULP energy -595423.728468 kJ/mol
# GULP energy per Si atom -12404.661010 kJ/mol
# Density = 2.104690 g / cm^3
# Si number density = 21.094914 Si / 1000 Ang^3
#
#
#
# Elastic Constant Matrix: (Units=GPa)
#
#
# Indices 1 2 3 4 5 6 
#
# 1 108.1191 52.8508 28.2200 0.0000 0.0000 0.0000
# 2 52.8508 108.1191 28.2200 0.0000 0.0000 0.0000
# 3 28.2200 28.2200 73.9258 0.0000 0.0000 0.0000
# 4 0.0000 0.0000 0.0000 30.2487 0.0000 0.0000
# 5 0.0000 0.0000 0.0000 0.0000 30.2487 0.0000
# 6 0.0000 0.0000 0.0000 0.0000 0.0000 27.6341
#
#
#
# Elastic Compliance Matrix: (Units=1/GPa)
#
#
# Indices 1 2 3 4 5 6 
#
# 1 0.012633 -0.005461 -0.002738 0.000000 0.000000 0.000000
# 2 -0.005461 0.012633 -0.002738 0.000000 0.000000 0.000000
# 3 -0.002738 -0.002738 0.015617 0.000000 0.000000 0.000000
# 4 0.000000 0.000000 0.000000 0.033059 0.000000 0.000000
# 5 0.000000 0.000000 0.000000 0.000000 0.033059 0.000000
# 6 0.000000 0.000000 0.000000 0.000000 0.000000 0.036187
#
#
# Mechanical properties :
#
#
# Convention : Reuss Voigt Hill
#
# Bulk Modulus (GPa) = 52.60291 56.52730 54.56511
# Shear Modulus (GPa) = 29.17177 29.68453 29.42815
#
# Velocity S-wave (km/s) = 3.72275 3.75532 3.73907
# Velocity P-wave (km/s) = 6.59309 6.75708 6.67559
#
# Compressibility (1/GPa) = 0.01901035
#
# Stress axis : x y z
#
# Youngs Moduli (GPa) = 79.15812 79.15812 64.03111
#
# Poissons Ratio (x) = 0.43225 0.17531
# Poissons Ratio (y) = 0.43225 0.17531
# Poissons Ratio (z) = 0.21673 0.21673
#
# Static dielectric constant tensor:
#      x y z
#    x 3.857960 0.000000 0.000000 
#    y 0.000000 3.857960 0.000000 
#    z 0.000000 0.000000 3.642070 
# 
# 
# High freq. dielectric constant tensor:
#      x y z
#    x 1.830850 0.000000 0.000000 
#    y 0.000000 1.830850 0.000000 
#    z 0.000000 0.000000 1.824810 
# 
# From -- ./inp_files/625.got.cif
#   From: 2010.03.12/outbox.cif.g09.slc.cpg/sg189_1_cif.got.tgz:625.got - 2010.04.01 12:03:36.
