data_PCOD8327064
_publ_section_title
;
Structure prediction by ZEFSAII (Michael W. Deem and Ramdas Pophale) SiO2 
 PCOD8327064
Probable space group: P -6 M 2
;
_chemical_formula_sum "Si O2"
_cell_formula_units_Z 66
_cell_length_a 12.800892
_cell_length_b 12.800892
_cell_length_c 27.713174
_cell_angle_alpha 90.000000
_cell_angle_beta 90.000000
_cell_angle_gamma 120.000000
_cell_volume 3932.759304
_symmetry_space_group_name_H-M "P -6 M 2"
_symmetry_group_IT_number 187
_symmetry_cell_setting 'hexagonal'
loop_
_space_group_symop_operation_xyz
x,y,z
-x+y,-x,-z
-y,x-y,z
x,y,-z
-x+y,-x,z
-y,x-y,-z
-y,-x,-z
-x+y,y,-z
x,x-y,-z
-x+y,y,z
x,x-y,z
-y,-x,z
loop_
_atom_site_type_symbol
_atom_site_label
_atom_site_fract_x
_atom_site_fract_y
_atom_site_fract_z
Si Si1 0.573575 0.906632 0.692440
Si Si2 0.244180 0.000445 0.775141
Si Si3 0.422189 0.331838 0.137318
Si Si4 0.573765 0.666683 0.417549
Si Si5 0.243809 0.244494 0.500000
Si Si6 0.240474 0.000204 0.055335
O O1 0.460862 0.921723 0.707131
O O2 0.533887 0.766944 0.699592
O O3 0.613976 0.947640 0.637476
O O4 0.686449 0.991877 0.725845
O O5 0.216418 0.108209 0.769498
O O6 0.334141 0.021466 0.818631
O O7 0.120204 0.879797 0.786265
O O8 0.461769 0.230885 0.137129
O O9 0.538870 0.461131 0.142436
O O10 0.354546 0.328231 0.087819
O O11 0.538185 0.769093 0.425824
O O12 0.458906 0.541095 0.431763
O O13 0.682528 0.688096 0.452126
O O14 0.248121 0.124061 0.500000
O O15 0.105987 0.211973 0.500000
O O16 0.126895 0.873106 0.070109
O O17 0.203403 0.101702 0.064589
O O18 0.277877 0.000293 0.000000
#
# Coordination Sequence:
#
# PCOD8327064 Si02
#       6
#    12  12  12  12   6  12
#     4   9  17  30  49  73  99 125 153 187 230 279
#     4  10  20  33  50  72  97 125 157 194 235 278
#     4  10  20  33  49  69  94 125 160 197 236 278
#     4   9  17  30  50  74  96 119 151 194 239 278
#     4  10  20  32  46  66  94 128 162 194 232 280
#     4   9  17  30  50  75 100 126 157 194 235 278
#
# _framework density 16.782108999999998
#
# number of rings (size 3 to 8) (size 9 to 14) (size 15 to 20)
#    0.000    2.545    0.000    2.364    0.000    3.273 
#    0.000    2.727    0.000    9.091    0.000    0.000 
#    0.000    0.000    0.000    0.000    0.000    0.000 
#
# Total GULP energy -818515.252930 kJ/mol
# GULP energy per Si atom -12401.746257 kJ/mol
# Density = 1.674391 g / cm^3
# Si number density = 16.782109 Si / 1000 Ang^3
#
#
#
# Elastic Constant Matrix: (Units=GPa)
#
#
# Indices 1 2 3 4 5 6 
#
# 1 116.8357 70.2467 67.0386 0.0000 -0.0002 0.0000
# 2 70.2467 116.8357 67.0386 0.0000 0.0002 0.0000
# 3 67.0386 67.0386 109.9010 0.0000 0.0000 0.0000
# 4 0.0000 0.0000 0.0000 25.7036 0.0000 0.0002
# 5 -0.0002 0.0002 0.0000 0.0000 25.7036 0.0000
# 6 0.0000 0.0000 0.0000 0.0002 0.0000 23.2945
#
#
#
# Elastic Compliance Matrix: (Units=1/GPa)
#
#
# Indices 1 2 3 4 5 6 
#
# 1 0.015481 -0.005984 -0.005793 0.000000 0.000000 0.000000
# 2 -0.005984 0.015481 -0.005793 0.000000 0.000000 0.000000
# 3 -0.005793 -0.005793 0.016167 0.000000 0.000000 0.000000
# 4 0.000000 0.000000 0.000000 0.038905 0.000000 0.000000
# 5 0.000000 0.000000 0.000000 0.000000 0.038905 0.000000
# 6 0.000000 0.000000 0.000000 0.000000 0.000000 0.042929
#
#
# Mechanical properties :
#
#
# Convention : Reuss Voigt Hill
#
# Bulk Modulus (GPa) = 83.41525 83.58004 83.49764
# Shear Modulus (GPa) = 24.15433 24.22357 24.18895
#
# Velocity S-wave (km/s) = 3.79791 3.80335 3.80063
# Velocity P-wave (km/s) = 8.30933 8.31856 8.31395
#
# Compressibility (1/GPa) = 0.01198822
#
# Stress axis : x y z
#
# Youngs Moduli (GPa) = 64.59682 64.59682 61.85613
#
# Poissons Ratio (x) = 0.38652 0.35834
# Poissons Ratio (y) = 0.38652 0.35834
# Poissons Ratio (z) = 0.37421 0.37421
#
# Static dielectric constant tensor:
#      x y z
#    x 3.013020 0.000000 0.000000 
#    y 0.000000 3.013020 0.000000 
#    z 0.000000 0.000000 3.432520 
# 
# 
# High freq. dielectric constant tensor:
#      x y z
#    x 1.637410 0.000000 0.000000 
#    y 0.000000 1.637410 0.000000 
#    z 0.000000 0.000000 1.662250 
# 
# From -- ./inp_files/4391.got.cif
#   From: 2010.03.12/outbox.cif.g09.slc.cpg/sg187_3_cif.got.tgz:4391.got - 2010.04.01 11:58:23.
