data_PCOD8327287
_publ_section_title
;
Structure prediction by ZEFSAII (Michael W. Deem and Ramdas Pophale) SiO2 
 PCOD8327287
Probable space group: P -6 M 2
;
_chemical_formula_sum "Si O2"
_cell_formula_units_Z 84
_cell_length_a 13.476768
_cell_length_b 13.476768
_cell_length_c 35.047400
_cell_angle_alpha 90.000000
_cell_angle_beta 90.000000
_cell_angle_gamma 120.000000
_cell_volume 5512.618538
_symmetry_space_group_name_H-M "P -6 M 2"
_symmetry_group_IT_number 187
_symmetry_cell_setting 'hexagonal'
loop_
_space_group_symop_operation_xyz
x,y,z
-x+y,-x,-z
-y,x-y,z
x,y,-z
-x+y,-x,z
-y,x-y,-z
-y,-x,-z
-x+y,y,-z
x,x-y,-z
-x+y,y,z
x,x-y,z
-y,-x,z
loop_
_atom_site_type_symbol
_atom_site_label
_atom_site_fract_x
_atom_site_fract_y
_atom_site_fract_z
Si Si1 0.666399 0.561671 0.095294
Si Si2 0.895169 0.333010 0.816719
Si Si3 0.102127 0.669392 0.763136
Si Si4 0.894925 0.561943 0.544138
Si Si5 0.000333 0.771550 0.956001
Si Si6 0.330559 0.432671 0.402641
Si Si7 0.111660 0.668293 0.319753
O O1 0.766131 0.532262 0.087031
O O2 0.547659 0.452341 0.083475
O O3 0.667458 0.595036 0.139284
O O4 0.681257 0.666501 0.069612
O O5 0.865042 0.432521 0.808894
O O6 0.786041 0.213960 0.804503
O O7 0.002555 0.350723 0.791891
O O8 0.123040 0.561520 0.763510
O O9 0.218952 0.781049 0.776357
O O10 0.064453 0.688719 0.720411
O O11 0.925335 0.593487 0.500000
O O12 0.785489 0.570977 0.556584
O O13 0.866308 0.433154 0.552571
O O14 0.003005 0.652715 0.568498
O O15 0.899931 0.799862 0.947786
O O16 0.000639 0.738818 0.000000
O O17 0.118434 0.881567 0.944070
O O18 0.219237 0.438474 0.415820
O O19 0.438729 0.561272 0.403121
O O20 0.311240 0.375702 0.359913
O O21 0.076316 0.538158 0.319783
O O22 0.249381 0.750620 0.319747
#
# Coordination Sequence:
#
# PCOD8327287 Si02
#       7
#    12  12  12  12  12  12  12
#     4   9  17  29  45  64  85 110 141 176 212 247
#     4   9  17  29  44  61  83 113 145 174 205 245
#     4   9  16  26  42  63  85 108 136 172 210 245
#     4   9  17  29  44  60  79 107 142 175 204 237
#     4   9  17  29  45  64  85 109 136 167 205 249
#     4   9  16  26  42  64  88 110 131 160 203 253
#     4   8  13  22  37  58  83 109 135 162 197 243
#
# _framework density 15.237769
#
# number of rings (size 3 to 8) (size 9 to 14) (size 15 to 20)
#    0.000    3.143    0.000    1.000    0.000    5.714 
#    0.000    0.714    0.000    2.571    0.000    2.000 
#    0.000    0.000    0.000    0.000    0.000    0.000 
#
# Total GULP energy -1040940.929115 kJ/mol
# GULP energy per Si atom -12392.153918 kJ/mol
# Density = 1.520309 g / cm^3
# Si number density = 15.237769 Si / 1000 Ang^3
#
#
#
# Elastic Constant Matrix: (Units=GPa)
#
#
# Indices 1 2 3 4 5 6 
#
# 1 91.9021 48.8804 60.4076 0.0000 0.0002 0.0000
# 2 48.8804 91.9021 60.4076 0.0000 -0.0002 0.0000
# 3 60.4076 60.4076 90.7590 0.0000 0.0000 0.0000
# 4 0.0000 0.0000 0.0000 23.4939 0.0000 -0.0002
# 5 0.0002 -0.0002 0.0000 0.0000 23.4939 0.0000
# 6 0.0000 0.0000 0.0000 -0.0002 0.0000 21.5108
#
#
#
# Elastic Compliance Matrix: (Units=1/GPa)
#
#
# Indices 1 2 3 4 5 6 
#
# 1 0.019904 -0.003340 -0.011025 0.000000 0.000000 0.000000
# 2 -0.003340 0.019904 -0.011025 0.000000 0.000000 0.000000
# 3 -0.011025 -0.011025 0.025694 0.000000 0.000000 0.000000
# 4 0.000000 0.000000 0.000000 0.042564 0.000000 0.000000
# 5 0.000000 0.000000 0.000000 0.000000 0.042564 0.000000
# 6 0.000000 0.000000 0.000000 0.000000 0.000000 0.046488
#
#
# Mechanical properties :
#
#
# Convention : Reuss Voigt Hill
#
# Bulk Modulus (GPa) = 67.92012 68.21716 68.06864
# Shear Modulus (GPa) = 19.77792 20.69090 20.23441
#
# Velocity S-wave (km/s) = 3.60662 3.68893 3.64801
# Velocity P-wave (km/s) = 7.87489 7.93788 7.90645
#
# Compressibility (1/GPa) = 0.01472318
#
# Stress axis : x y z
#
# Youngs Moduli (GPa) = 50.24036 50.24036 38.91903
#
# Poissons Ratio (x) = 0.16779 0.42908
# Poissons Ratio (y) = 0.16779 0.42908
# Poissons Ratio (z) = 0.55390 0.55390
#
# Static dielectric constant tensor:
#      x y z
#    x 2.753950 0.000000 0.000000 
#    y 0.000000 2.753950 0.000000 
#    z 0.000000 0.000000 3.178120 
# 
# 
# High freq. dielectric constant tensor:
#      x y z
#    x 1.562410 0.000000 0.000000 
#    y 0.000000 1.562410 0.000000 
#    z 0.000000 0.000000 1.594870 
# 
# From -- ./inp_files/4633.got.cif
#   From: 2010.03.12/outbox.cif.g09.slc.cpg/sg187_3_cif.got.tgz:4633.got - 2010.04.01 11:58:23.
