data_PCOD8327589
_publ_section_title
;
Structure prediction by ZEFSAII (Michael W. Deem and Ramdas Pophale) SiO2 
 PCOD8327589
Probable space group: P -6 2 M
;
_chemical_formula_sum "Si O2"
_cell_formula_units_Z 66
_cell_length_a 23.092746
_cell_length_b 23.092746
_cell_length_c 7.976357
_cell_angle_alpha 90.000000
_cell_angle_beta 90.000000
_cell_angle_gamma 120.000000
_cell_volume 3683.717970
_symmetry_space_group_name_H-M "P -6 2 M"
_symmetry_group_IT_number 189
_symmetry_cell_setting 'hexagonal'
loop_
_space_group_symop_operation_xyz
x,y,z
-x+y,-x,-z
-y,x-y,z
x,y,-z
-x+y,-x,z
-y,x-y,-z
x-y,-y,-z
-x,-x+y,-z
y,x,-z
y,x,z
x-y,-y,z
-x,-x+y,z
loop_
_atom_site_type_symbol
_atom_site_label
_atom_site_fract_x
_atom_site_fract_y
_atom_site_fract_z
Si Si1 0.838836 0.076909 0.688838
Si Si2 0.237929 0.383682 0.191131
Si Si3 0.478025 0.737362 0.809108
Si Si4 0.808105 0.405344 0.690681
Si Si5 0.920671 0.078155 0.000000
Si Si6 0.382182 0.457004 0.695566
O O1 0.869129 0.085517 0.500000
O O2 0.806536 0.124442 0.699732
O O3 0.895414 0.097425 0.830753
O O4 0.781252 0.000000 0.718931
O O5 0.228795 0.445582 0.256983
O O6 0.315796 0.405922 0.205308
O O7 0.214430 0.365243 0.000000
O O8 0.425809 0.750925 0.707229
O O9 0.453397 0.659190 0.797257
O O10 0.476611 0.758081 0.000000
O O11 0.813074 0.387577 0.500000
O O12 0.877547 0.467140 0.756983
O O13 0.000000 0.120041 0.000000
O O14 0.897092 0.000000 0.000000
O O15 0.363352 0.450680 0.500000
O O16 0.439640 0.439640 0.734338
#
# Coordination Sequence:
#
# PCOD8327589 Si02
#       6
#    12  12  12  12   6  12
#     4  10  20  34  55  83 114 145 176 215 263 312
#     4  10  19  31  49  75 103 134 171 214 262 311
#     4  10  20  32  47  67  96 130 169 215 263 311
#     4  10  19  31  47  67  92 125 165 205 254 309
#     4  10  21  38  60  86 116 146 178 212 252 304
#     4   9  18  31  47  69  97 127 159 201 254 310
#
# _framework density 17.916682999999999
#
# number of rings (size 3 to 8) (size 9 to 14) (size 15 to 20)
#    0.000    2.182    0.909    2.636    0.000    5.818 
#    0.000    0.000    0.000    2.182    0.000    2.545 
#    0.000    0.000    0.000    0.000    0.000    0.000 
#
# Total GULP energy -818321.819433 kJ/mol
# GULP energy per Si atom -12398.815446 kJ/mol
# Density = 1.787590 g / cm^3
# Si number density = 17.916683 Si / 1000 Ang^3
#
#
#
# Elastic Constant Matrix: (Units=GPa)
#
#
# Indices 1 2 3 4 5 6 
#
# 1 110.7081 57.2915 32.8467 0.0000 0.0000 0.0000
# 2 57.2915 110.7081 32.8467 0.0000 0.0000 0.0000
# 3 32.8467 32.8467 77.6684 0.0000 0.0000 0.0000
# 4 0.0000 0.0000 0.0000 21.0354 0.0000 0.0000
# 5 0.0000 0.0000 0.0000 0.0000 21.0354 0.0000
# 6 0.0000 0.0000 0.0000 0.0000 0.0000 26.7083
#
#
#
# Elastic Compliance Matrix: (Units=1/GPa)
#
#
# Indices 1 2 3 4 5 6 
#
# 1 0.012926 -0.005794 -0.003016 0.000000 0.000000 0.000000
# 2 -0.005794 0.012926 -0.003016 0.000000 0.000000 0.000000
# 3 -0.003016 -0.003016 0.015426 0.000000 0.000000 0.000000
# 4 0.000000 0.000000 0.000000 0.047539 0.000000 0.000000
# 5 0.000000 0.000000 0.000000 0.000000 0.047539 0.000000
# 6 0.000000 0.000000 0.000000 0.000000 0.000000 0.037442
#
#
# Mechanical properties :
#
#
# Convention : Reuss Voigt Hill
#
# Bulk Modulus (GPa) = 56.73598 60.56161 58.64879
# Shear Modulus (GPa) = 24.59095 25.49580 25.04337
#
# Velocity S-wave (km/s) = 3.70877 3.77639 3.74273
# Velocity P-wave (km/s) = 7.07639 7.27255 7.17514
#
# Compressibility (1/GPa) = 0.01762550
#
# Stress axis : x y z
#
# Youngs Moduli (GPa) = 77.36180 77.36180 64.82418
#
# Poissons Ratio (x) = 0.44827 0.19552
# Poissons Ratio (y) = 0.44827 0.19552
# Poissons Ratio (z) = 0.23333 0.23333
#
# Static dielectric constant tensor:
#      x y z
#    x 3.167740 0.000000 0.000000 
#    y 0.000000 3.167740 0.000000 
#    z 0.000000 0.000000 3.360760 
# 
# 
# High freq. dielectric constant tensor:
#      x y z
#    x 1.674050 0.000000 0.000000 
#    y 0.000000 1.674050 0.000000 
#    z 0.000000 0.000000 1.703690 
# 
# From -- ./inp_files/1037.got.cif
#   From: 2010.03.12/outbox.cif.g09.slc.cpg/sg189_1_cif.got.tgz:1037.got - 2010.04.01 12:03:36.
