data_PCOD8327614
_publ_section_title
;
Structure prediction by ZEFSAII (Michael W. Deem and Ramdas Pophale) SiO2 
 PCOD8327614
Probable space group: P -6 2 M
;
_chemical_formula_sum "Si O2"
_cell_formula_units_Z 48
_cell_length_a 18.885214
_cell_length_b 18.885214
_cell_length_c 8.531823
_cell_angle_alpha 90.000000
_cell_angle_beta 90.000000
_cell_angle_gamma 120.000000
_cell_volume 2635.216431
_symmetry_space_group_name_H-M "P -6 2 M"
_symmetry_group_IT_number 189
_symmetry_cell_setting 'hexagonal'
loop_
_space_group_symop_operation_xyz
x,y,z
-x+y,-x,-z
-y,x-y,z
x,y,-z
-x+y,-x,z
-y,x-y,-z
x-y,-y,-z
-x,-x+y,-z
y,x,-z
y,x,z
x-y,-y,z
-x,-x+y,z
loop_
_atom_site_type_symbol
_atom_site_label
_atom_site_fract_x
_atom_site_fract_y
_atom_site_fract_z
Si Si1 0.484900 0.814086 0.818021
Si Si2 0.342070 0.249923 0.684342
Si Si3 0.754947 0.665319 0.685436
Si Si4 0.180777 0.519597 0.683143
O O1 0.574656 0.886681 0.772202
O O2 0.459334 0.732098 0.720088
O O3 0.420773 0.843724 0.778702
O O4 0.481955 0.793635 0.000000
O O5 0.361628 0.258190 0.500000
O O6 0.272881 0.272881 0.726342
O O7 0.310098 0.156625 0.741310
O O8 0.753987 0.670503 0.500000
O O9 0.726627 0.726627 0.758955
O O10 0.691657 0.572937 0.738645
O O11 0.172940 0.531634 0.500000
#
# Coordination Sequence:
#
# PCOD8327614 Si02
#       4
#    12  12  12  12
#     4  11  21  32  47  70 100 132 167 209 251 286
#     4   9  18  33  52  72  95 128 167 202 243 301
#     4   8  15  29  50  73  93 117 154 199 242 285
#     4  10  19  32  49  69  96 132 170 204 240 290
#
# _framework density 18.214822999999999
#
# number of rings (size 3 to 8) (size 9 to 14) (size 15 to 20)
#    0.000    2.500    0.000    5.000    0.000    1.500 
#    0.000    2.500    0.000   18.500    0.000    3.500 
#    0.000    0.000    0.000    0.750    0.000    4.000 
#
# Total GULP energy -595116.349366 kJ/mol
# GULP energy per Si atom -12398.257278 kJ/mol
# Density = 1.817337 g / cm^3
# Si number density = 18.214823 Si / 1000 Ang^3
#
#
#
# Elastic Constant Matrix: (Units=GPa)
#
#
# Indices 1 2 3 4 5 6 
#
# 1 124.9085 86.8638 16.2195 0.0000 0.0000 0.0000
# 2 86.8638 124.9085 16.2195 0.0000 0.0000 0.0000
# 3 16.2195 16.2195 39.0456 0.0000 0.0000 0.0000
# 4 0.0000 0.0000 0.0000 7.0367 0.0000 0.0000
# 5 0.0000 0.0000 0.0000 0.0000 7.0367 0.0000
# 6 0.0000 0.0000 0.0000 0.0000 0.0000 19.0224
#
#
#
# Elastic Compliance Matrix: (Units=1/GPa)
#
#
# Indices 1 2 3 4 5 6 
#
# 1 0.015664 -0.010621 -0.002095 0.000000 0.000000 0.000000
# 2 -0.010621 0.015664 -0.002095 0.000000 0.000000 0.000000
# 3 -0.002095 -0.002095 0.027351 0.000000 0.000000 0.000000
# 4 0.000000 0.000000 0.000000 0.142112 0.000000 0.000000
# 5 0.000000 0.000000 0.000000 0.000000 0.142112 0.000000
# 6 0.000000 0.000000 0.000000 0.000000 0.000000 0.052570
#
#
# Mechanical properties :
#
#
# Convention : Reuss Voigt Hill
#
# Bulk Modulus (GPa) = 34.41394 58.60760 46.51077
# Shear Modulus (GPa) = 11.50007 17.92314 14.71160
#
# Velocity S-wave (km/s) = 2.51541 3.14026 2.84504
# Velocity P-wave (km/s) = 5.23171 6.73750 6.03178
#
# Compressibility (1/GPa) = 0.02905799
#
# Stress axis : x y z
#
# Youngs Moduli (GPa) = 63.84107 63.84107 36.56111
#
# Poissons Ratio (x) = 0.67805 0.07659
# Poissons Ratio (y) = 0.67805 0.07659
# Poissons Ratio (z) = 0.13374 0.13374
#
# Static dielectric constant tensor:
#      x y z
#    x 3.491770 0.000000 0.000000 
#    y 0.000000 3.491770 0.000000 
#    z 0.000000 0.000000 3.104930 
# 
# 
# High freq. dielectric constant tensor:
#      x y z
#    x 1.695070 0.000000 0.000000 
#    y 0.000000 1.695070 0.000000 
#    z 0.000000 0.000000 1.685350 
# 
# From -- ./inp_files/537.got.cif
#   From: 2010.03.12/outbox.cif.g09.slc.cpg/sg189_1_cif.got.tgz:537.got - 2010.04.01 12:03:36.
