data_PCOD8327208
_publ_section_title
;
Structure prediction by ZEFSAII (Michael W. Deem and Ramdas Pophale) SiO2 
 PCOD8327208
Probable space group: P -6 M 2
;
_chemical_formula_sum "Si O2"
_cell_formula_units_Z 50
_cell_length_a 11.686636
_cell_length_b 11.686636
_cell_length_c 21.881251
_cell_angle_alpha 90.000000
_cell_angle_beta 90.000000
_cell_angle_gamma 120.000000
_cell_volume 2588.104539
_symmetry_space_group_name_H-M "P -6 M 2"
_symmetry_group_IT_number 187
_symmetry_cell_setting 'hexagonal'
loop_
_space_group_symop_operation_xyz
x,y,z
-x+y,-x,-z
-y,x-y,z
x,y,-z
-x+y,-x,z
-y,x-y,-z
-y,-x,-z
-x+y,y,-z
x,x-y,-z
-x+y,y,z
x,x-y,z
-y,-x,z
loop_
_atom_site_type_symbol
_atom_site_label
_atom_site_fract_x
_atom_site_fract_y
_atom_site_fract_z
Si Si1 0.667519 0.598498 0.132444
Si Si2 0.932603 0.601148 0.622339
Si Si3 0.330759 0.932563 0.500000
Si Si4 0.184636 0.369272 0.072509
Si Si5 0.738736 0.999782 0.745493
Si Si6 0.333334 0.666667 0.072433
O O1 0.784733 0.569465 0.115224
O O2 0.527999 0.472002 0.112972
O O3 0.697170 0.732135 0.097042
O O4 0.666664 0.622433 0.204966
O O5 0.781743 0.563485 0.628351
O O6 0.937447 0.468724 0.621724
O O7 0.016336 0.687967 0.679727
O O8 0.994908 0.682394 0.560063
O O9 0.218219 0.781782 0.500000
O O10 0.468693 0.937385 0.500000
O O11 0.259353 0.518706 0.097687
O O12 0.179794 0.359588 0.000000
O O13 0.893817 0.106184 0.742106
O O14 0.721186 0.860593 0.765910
O O15 0.333334 0.666667 0.000000
#
# Coordination Sequence:
#
# PCOD8327208 Si02
#       6
#    12  12   6   6  12   2
#     4  11  23  40  63  91 124 160 200 247 300 357
#     4  10  20  34  54  79 109 145 185 231 281 337
#     4  10  20  34  52  74 104 142 184 230 282 336
#     4  11  22  40  64  90 120 156 200 248 296 354
#     4  10  20  35  56  82 114 151 193 240 290 344
#     4   9  18  36  66  90 114 153 198 244 296 349
#
# _framework density 19.319158999999999
#
# number of rings (size 3 to 8) (size 9 to 14) (size 15 to 20)
#    0.000    1.680    2.400    2.640    0.000    0.480 
#    0.720    3.600    0.000    6.720    0.000    0.000 
#    0.000    0.000    0.000    0.000    0.000    0.000 
#
# Total GULP energy -620116.038426 kJ/mol
# GULP energy per Si atom -12402.320769 kJ/mol
# Density = 1.927519 g / cm^3
# Si number density = 19.319159 Si / 1000 Ang^3
#
#
#
# Elastic Constant Matrix: (Units=GPa)
#
#
# Indices 1 2 3 4 5 6 
#
# 1 86.9370 30.3364 26.8099 0.0000 -0.0002 0.0001
# 2 30.3364 86.9371 26.8099 0.0000 0.0002 0.0000
# 3 26.8099 26.8099 100.3255 0.0000 0.0000 0.0000
# 4 0.0000 0.0000 0.0000 27.2892 0.0000 0.0002
# 5 -0.0002 0.0002 0.0000 0.0000 27.2892 0.0000
# 6 0.0001 0.0000 0.0000 0.0002 0.0000 28.3003
#
#
#
# Elastic Compliance Matrix: (Units=1/GPa)
#
#
# Indices 1 2 3 4 5 6 
#
# 1 0.013691 -0.003977 -0.002596 0.000000 0.000000 0.000000
# 2 -0.003977 0.013691 -0.002596 0.000000 0.000000 0.000000
# 3 -0.002596 -0.002596 0.011355 0.000000 0.000000 0.000000
# 4 0.000000 0.000000 0.000000 0.036645 0.000000 0.000000
# 5 0.000000 0.000000 0.000000 0.000000 0.036645 0.000000
# 6 0.000000 0.000000 0.000000 0.000000 0.000000 0.035335
#
#
# Mechanical properties :
#
#
# Convention : Reuss Voigt Hill
#
# Bulk Modulus (GPa) = 49.02098 49.12356 49.07227
# Shear Modulus (GPa) = 28.98585 29.25861 29.12223
#
# Velocity S-wave (km/s) = 3.87766 3.89586 3.88677
# Velocity P-wave (km/s) = 6.74372 6.76163 6.75268
#
# Compressibility (1/GPa) = 0.02039943
#
# Stress axis : x y z
#
# Youngs Moduli (GPa) = 73.04168 73.04178 88.06749
#
# Poissons Ratio (x) = 0.29048 0.22861
# Poissons Ratio (y) = 0.29048 0.22861
# Poissons Ratio (z) = 0.18961 0.18961
#
# Static dielectric constant tensor:
#      x y z
#    x 3.396710 0.000000 0.000000 
#    y 0.000000 3.396710 0.000000 
#    z 0.000000 0.000000 3.705450 
# 
# 
# High freq. dielectric constant tensor:
#      x y z
#    x 1.747480 0.000000 0.000000 
#    y 0.000000 1.747480 0.000000 
#    z 0.000000 0.000000 1.759730 
# 
# From -- ./inp_files/3462.got.cif
#   From: 2010.03.12/outbox.cif.g09.slc.cpg/sg187_2_cif.got.tgz:3462.got - 2010.04.01 11:58:23.
