data_PCOD8327351
_publ_section_title
;
Structure prediction by ZEFSAII (Michael W. Deem and Ramdas Pophale) SiO2 
 PCOD8327351
Probable space group: P -6 C 2
;
_chemical_formula_sum "Si O2"
_cell_formula_units_Z 72
_cell_length_a 23.836052
_cell_length_b 23.836052
_cell_length_c 8.681163
_cell_angle_alpha 90.000000
_cell_angle_beta 90.000000
_cell_angle_gamma 120.000000
_cell_volume 4271.468331
_symmetry_space_group_name_H-M "P -6 C 2"
_symmetry_group_IT_number 188
_symmetry_cell_setting 'hexagonal'
loop_
_space_group_symop_operation_xyz
x,y,z
-x+y,-x,1/2-z
-y,x-y,z
x,y,1/2-z
-x+y,-x,z
-y,x-y,1/2-z
-y,-x,-z
-x+y,y,-z
x,x-y,-z
-x+y,y,1/2+z
x,x-y,1/2+z
-y,-x,1/2+z
loop_
_atom_site_type_symbol
_atom_site_label
_atom_site_fract_x
_atom_site_fract_y
_atom_site_fract_z
Si Si1 0.401691 0.921793 0.067382
Si Si2 0.739171 0.144894 0.567321
Si Si3 0.258817 0.072038 0.431504
Si Si4 0.074166 0.266236 0.433055
Si Si5 0.594277 0.737741 0.932876
Si Si6 0.476704 0.406439 0.931382
O O1 0.395087 0.912247 0.250000
O O2 0.427866 0.996273 0.019651
O O3 0.449314 0.898627 0.000000
O O4 0.333733 0.877020 0.986519
O O5 0.740098 0.148535 0.750000
O O6 0.782925 0.217076 0.500000
O O7 0.767040 0.099168 0.508647
O O8 0.666148 0.114720 0.503820
O O9 0.258386 0.076574 0.250000
O O10 0.229712 0.114856 0.500000
O O11 0.214065 0.998439 0.486793
O O12 0.080977 0.272537 0.250000
O O13 0.120598 0.241196 0.500000
O O14 0.092398 0.335625 0.500975
O O15 0.597828 0.742940 0.750000
O O16 0.570989 0.785495 0.000000
O O17 0.483644 0.407711 0.750000
O O18 0.547907 0.452094 0.000000
#
# Coordination Sequence:
#
# PCOD8327351 Si02
#       6
#    12  12  12  12  12  12
#     4  10  19  33  51  73 100 129 160 197 239 287
#     4   9  17  30  46  67  93 122 152 188 231 276
#     4   9  18  31  48  69  95 124 155 191 236 283
#     4  10  19  32  49  71  98 128 159 197 241 287
#     4  11  21  33  50  73  99 130 164 200 240 284
#     4   9  18  31  48  69  96 125 155 191 234 279
#
# _framework density 16.856031000000002
#
# number of rings (size 3 to 8) (size 9 to 14) (size 15 to 20)
#    0.000    2.333    0.000    4.500    0.000    5.333 
#    0.000    3.333    0.000    1.000    0.000    2.333 
#    0.000    0.000    0.000    0.000    0.000    0.000 
#
# Total GULP energy -892884.228235 kJ/mol
# GULP energy per Si atom -12401.169837 kJ/mol
# Density = 1.681767 g / cm^3
# Si number density = 16.856031 Si / 1000 Ang^3
#
#
#
# Elastic Constant Matrix: (Units=GPa)
#
#
# Indices 1 2 3 4 5 6 
#
# 1 136.6528 80.8912 39.5378 0.0001 0.0000 0.0000
# 2 80.8912 136.6528 39.5378 -0.0001 0.0000 0.0000
# 3 39.5378 39.5378 64.2454 0.0000 0.0000 0.0000
# 4 0.0001 -0.0001 0.0000 28.2178 0.0000 0.0000
# 5 0.0000 0.0000 0.0000 0.0000 28.2178 0.0001
# 6 0.0000 0.0000 0.0000 0.0000 0.0001 27.8808
#
#
#
# Elastic Compliance Matrix: (Units=1/GPa)
#
#
# Indices 1 2 3 4 5 6 
#
# 1 0.011927 -0.006006 -0.003644 0.000000 0.000000 0.000000
# 2 -0.006006 0.011927 -0.003644 0.000000 0.000000 0.000000
# 3 -0.003644 -0.003644 0.020051 0.000000 0.000000 0.000000
# 4 0.000000 0.000000 0.000000 0.035439 0.000000 0.000000
# 5 0.000000 0.000000 0.000000 0.000000 0.035439 0.000000
# 6 0.000000 0.000000 0.000000 0.000000 0.000000 0.035867
#
#
# Mechanical properties :
#
#
# Convention : Reuss Voigt Hill
#
# Bulk Modulus (GPa) = 57.74706 73.05383 65.40045
# Shear Modulus (GPa) = 27.32083 28.70224 28.01153
#
# Velocity S-wave (km/s) = 4.03033 4.13096 4.08095
# Velocity P-wave (km/s) = 7.48274 8.13554 7.81596
#
# Compressibility (1/GPa) = 0.01731690
#
# Stress axis : x y z
#
# Youngs Moduli (GPa) = 83.84042 83.84042 49.87378
#
# Poissons Ratio (x) = 0.50355 0.18175
# Poissons Ratio (y) = 0.50355 0.18175
# Poissons Ratio (z) = 0.30552 0.30552
#
# Static dielectric constant tensor:
#      x y z
#    x 3.245940 0.000000 0.000000 
#    y 0.000000 3.245940 0.000000 
#    z 0.000000 0.000000 3.142080 
# 
# 
# High freq. dielectric constant tensor:
#      x y z
#    x 1.641650 0.000000 0.000000 
#    y 0.000000 1.641650 0.000000 
#    z 0.000000 0.000000 1.655230 
# 
# From -- ./inp_files/985.got.cif
#   From: 2010.03.12/outbox.cif.g09.slc.cpg/sg188_1_cif.got.tgz:985.got - 2010.04.01 12:01:06.
