data_PCOD8327413
_publ_section_title
;
Structure prediction by ZEFSAII (Michael W. Deem and Ramdas Pophale) SiO2 
 PCOD8327413
Probable space group: P -6 C 2
;
_chemical_formula_sum "Si O2"
_cell_formula_units_Z 52
_cell_length_a 11.585039
_cell_length_b 11.585039
_cell_length_c 20.227482
_cell_angle_alpha 90.000000
_cell_angle_beta 90.000000
_cell_angle_gamma 120.000000
_cell_volume 2351.080261
_symmetry_space_group_name_H-M "P -6 C 2"
_symmetry_group_IT_number 188
_symmetry_cell_setting 'hexagonal'
loop_
_space_group_symop_operation_xyz
x,y,z
-x+y,-x,1/2-z
-y,x-y,z
x,y,1/2-z
-x+y,-x,z
-y,x-y,1/2-z
-y,-x,-z
-x+y,y,-z
x,x-y,-z
-x+y,y,1/2+z
x,x-y,1/2+z
-y,-x,1/2+z
loop_
_atom_site_type_symbol
_atom_site_label
_atom_site_fract_x
_atom_site_fract_y
_atom_site_fract_z
Si Si1 0.995393 0.262271 0.500000
Si Si2 0.668324 0.601244 0.862685
Si Si3 0.398753 0.067086 0.362685
Si Si4 0.212738 0.425486 0.321482
Si Si5 0.333335 0.666668 0.582074
O O1 0.147031 0.294062 0.500000
O O2 0.963476 0.329432 0.560589
O O3 0.963471 0.329427 0.439411
O O4 0.897760 0.102241 0.500000
O O5 0.538120 0.461874 0.846197
O O6 0.796617 0.593241 0.839962
O O7 0.666809 0.720243 0.822593
O O8 0.279749 0.946576 0.322593
O O9 0.250616 0.501249 0.250000
O O10 0.259573 0.519189 0.386708
O O11 0.333334 0.666667 0.500000
#
# Coordination Sequence:
#
# PCOD8327413 Si02
#       5
#    12  12  12  12   4
#     4  10  20  36  62  98 138 181 235 298 360 422
#     4  11  24  42  68  99 140 186 237 292 356 427
#     4  11  24  42  68  99 140 186 237 292 356 427
#     4  12  26  46  72 106 146 183 232 297 360 421
#     4  12  28  44  82 108 142 179 238 291 358 431
#
# _framework density 22.117494000000001
#
# number of rings (size 3 to 8) (size 9 to 14) (size 15 to 20)
#    0.000    0.923    4.615    2.077    3.231    0.923 
#    1.385    2.308    0.000    2.769    0.000    0.000 
#    0.000    0.000    0.000    0.000    0.000    0.000 
#
# Total GULP energy -644556.631443 kJ/mol
# GULP energy per Si atom -12395.319835 kJ/mol
# Density = 2.206715 g / cm^3
# Si number density = 22.117494 Si / 1000 Ang^3
#
#
#
# Elastic Constant Matrix: (Units=GPa)
#
#
# Indices 1 2 3 4 5 6 
#
# 1 161.2374 97.8476 27.2030 0.0000 -0.0001 0.0000
# 2 97.8476 161.2372 27.2029 0.0002 0.0000 0.0000
# 3 27.2030 27.2029 127.6691 -0.0003 0.0001 0.0000
# 4 0.0000 0.0002 -0.0003 -11.6263 -0.0002 0.0000
# 5 -0.0001 0.0000 0.0001 -0.0002 -11.6270 0.0001
# 6 0.0000 0.0000 0.0000 0.0000 0.0001 31.6949
#
#
#
# Elastic Compliance Matrix: (Units=1/GPa)
#
#
# Indices 1 2 3 4 5 6 
#
# 1 0.009908 -0.005867 -0.000861 0.000000 0.000000 0.000000
# 2 -0.005867 0.009908 -0.000861 0.000000 0.000000 0.000000
# 3 -0.000861 -0.000861 0.008200 0.000000 0.000000 0.000000
# 4 0.000000 0.000000 0.000000 -0.086012 0.000001 0.000000
# 5 0.000000 0.000000 0.000000 0.000001 -0.086007 0.000000
# 6 0.000000 0.000000 0.000000 0.000000 0.000000 0.031551
#
#
# Mechanical properties :
#
#
# Convention : Reuss Voigt Hill
#
# Bulk Modulus (GPa) = 77.90005 83.85009 80.87507
# Shear Modulus (GPa) = -53.76638 21.54768 -16.10935
#
# Velocity S-wave (km/s) = -4.93581 3.12466 -2.70173
# Velocity P-wave (km/s) = 1.67765 7.14224 5.18778
#
# Compressibility (1/GPa) = 0.01283696
#
# Stress axis : x y z
#
# Youngs Moduli (GPa) = 100.92879 100.92873 121.95671
#
# Poissons Ratio (x) = 0.59219 0.10500
# Poissons Ratio (y) = 0.59219 0.10500
# Poissons Ratio (z) = 0.08689 0.08689
#
# Static dielectric constant tensor:
#      x y z
#    x 4.052630 0.000000 0.000000 
#    y 0.000000 4.052630 0.000000 
#    z 0.000000 0.000000 4.049900 
# 
# 
# High freq. dielectric constant tensor:
#      x y z
#    x 1.872270 0.000000 0.000000 
#    y 0.000000 1.872270 0.000000 
#    z 0.000000 0.000000 1.873970 
# 
# From -- ./inp_files/3617.got.cif
#   From: 2010.03.12/outbox.cif.g09.slc.cpg/sg188_2_cif.got.tgz:3617.got - 2010.04.01 12:01:06.
