data_PCOD8327947
_publ_section_title
;
Structure prediction by ZEFSAII (Michael W. Deem and Ramdas Pophale) SiO2 
 PCOD8327947
Probable space group: P -6 2 C
;
_chemical_formula_sum "Si O2"
_cell_formula_units_Z 76
_cell_length_a 17.436463
_cell_length_b 17.436463
_cell_length_c 15.958271
_cell_angle_alpha 90.000000
_cell_angle_beta 90.000000
_cell_angle_gamma 120.000000
_cell_volume 4201.779450
_symmetry_space_group_name_H-M "P -6 2 C"
_symmetry_group_IT_number 190
_symmetry_cell_setting 'hexagonal'
loop_
_space_group_symop_operation_xyz
x,y,z
-x+y,-x,1/2-z
-y,x-y,z
x,y,1/2-z
-x+y,-x,z
-y,x-y,1/2-z
x-y,-y,-z
-x,-x+y,-z
y,x,-z
y,x,1/2+z
x-y,-y,1/2+z
-x,-x+y,1/2+z
loop_
_atom_site_type_symbol
_atom_site_label
_atom_site_fract_x
_atom_site_fract_y
_atom_site_fract_z
Si Si1 0.350828 0.500365 0.378150
Si Si2 0.333334 0.666668 0.848208
Si Si3 0.099408 0.366260 0.997170
Si Si4 0.486211 0.170135 0.655634
Si Si5 0.496620 0.643978 0.850073
Si Si6 0.950175 0.553110 0.160070
Si Si7 0.632239 0.902048 0.521032
O O1 0.419799 0.604613 0.375740
O O2 0.262455 0.487679 0.335100
O O3 0.389295 0.445389 0.330947
O O4 0.328688 0.459812 0.471151
O O5 0.333334 0.666668 0.750000
O O6 0.421008 0.666291 0.878992
O O7 0.109647 0.418210 0.083960
O O8 0.120092 0.420761 0.910857
O O9 0.165986 0.327410 0.995152
O O10 0.000000 0.284616 0.000000
O O11 0.462868 0.126721 0.750000
O O12 0.520385 0.662370 0.750000
O O13 0.465719 0.543116 0.876505
O O14 0.904707 0.536289 0.250000
O O15 0.905612 0.603231 0.115146
O O16 0.709853 0.000000 0.500000
#
# Coordination Sequence:
#
# PCOD8327947 Si02
#       7
#    12   4  12  12  12  12  12
#     4  10  20  33  49  70 100 138 178 210 242 287
#     4   9  18  33  51  75 103 134 172 213 255 300
#     4  11  23  36  52  75 100 128 163 202 251 308
#     4  11  21  33  48  70 102 139 174 208 240 278
#     4  10  20  33  51  75 106 138 170 209 251 291
#     4  10  18  31  51  74  99 132 172 211 250 294
#     4   9  20  37  54  71  95 127 163 207 253 298
#
# _framework density 18.087575000000001
#
# number of rings (size 3 to 8) (size 9 to 14) (size 15 to 20)
#    0.000    1.895    0.000    4.579    0.000    6.316 
#    0.000    0.000    0.000    0.316    0.000    0.000 
#    0.000    0.000    0.000    4.737    0.000    0.000 
#
# Total GULP energy -941656.991984 kJ/mol
# GULP energy per Si atom -12390.223579 kJ/mol
# Density = 1.804641 g / cm^3
# Si number density = 18.087575 Si / 1000 Ang^3
#
#
#
# Elastic Constant Matrix: (Units=GPa)
#
#
# Indices 1 2 3 4 5 6 
#
# 1 89.7346 43.4366 43.2943 -0.0001 0.0002 -0.0001
# 2 43.4366 89.7340 43.2943 -0.0002 -0.0002 -0.0001
# 3 43.2943 43.2943 80.1119 0.0010 -0.0002 0.0000
# 4 -0.0001 -0.0002 0.0010 63.4038 0.0296 0.0002
# 5 0.0002 -0.0002 -0.0002 0.0296 63.3326 0.0000
# 6 -0.0001 -0.0001 0.0000 0.0002 0.0000 23.1487
#
#
#
# Elastic Compliance Matrix: (Units=1/GPa)
#
#
# Indices 1 2 3 4 5 6 
#
# 1 0.016588 -0.005011 -0.006257 0.000000 0.000000 0.000000
# 2 -0.005011 0.016588 -0.006257 0.000000 0.000000 0.000000
# 3 -0.006257 -0.006257 0.019245 0.000000 0.000000 0.000000
# 4 0.000000 0.000000 0.000000 0.015772 -0.000007 0.000000
# 5 0.000000 0.000000 0.000000 -0.000007 0.015790 0.000000
# 6 0.000000 0.000000 0.000000 0.000000 0.000000 0.043199
#
#
# Mechanical properties :
#
#
# Convention : Reuss Voigt Hill
#
# Bulk Modulus (GPa) = 57.56052 57.73677 57.64864
# Shear Modulus (GPa) = 29.75808 38.61404 34.18606
#
# Velocity S-wave (km/s) = 4.06053 4.62544 4.35216
# Velocity P-wave (km/s) = 7.34004 7.77922 7.56282
#
# Compressibility (1/GPa) = 0.01737302
#
# Stress axis : x y z
#
# Youngs Moduli (GPa) = 60.28372 60.28322 51.96166
#
# Poissons Ratio (x) = 0.30208 0.32510
# Poissons Ratio (y) = 0.30209 0.32510
# Poissons Ratio (z) = 0.37717 0.37717
#
# Static dielectric constant tensor:
#      x y z
#    x 3.320830 0.000000 0.000000 
#    y 0.000000 3.320840 0.000000 
#    z 0.000000 0.000000 3.555620 
# 
# 
# High freq. dielectric constant tensor:
#      x y z
#    x 1.680820 0.000000 0.000000 
#    y 0.000000 1.680820 0.000000 
#    z 0.000000 0.000000 1.716390 
# 
# From -- ./inp_files/3095.got.cif
#   From: 2010.06.25/outbox.cif.g09.slc.cpg/sg190_2_cif.got.tgz:3095.got - 2010.06.28 13:08:06.
