data_PCOD8327650
_publ_section_title
;
Structure prediction by ZEFSAII (Michael W. Deem and Ramdas Pophale) SiO2 
 PCOD8327650
Probable space group: P -6 2 M
;
_chemical_formula_sum "Si O2"
_cell_formula_units_Z 72
_cell_length_a 23.545655
_cell_length_b 23.545655
_cell_length_c 8.731661
_cell_angle_alpha 90.000000
_cell_angle_beta 90.000000
_cell_angle_gamma 120.000000
_cell_volume 4192.268119
_symmetry_space_group_name_H-M "P -6 2 M"
_symmetry_group_IT_number 189
_symmetry_cell_setting 'hexagonal'
loop_
_space_group_symop_operation_xyz
x,y,z
-x+y,-x,-z
-y,x-y,z
x,y,-z
-x+y,-x,z
-y,x-y,-z
x-y,-y,-z
-x,-x+y,-z
y,x,-z
y,x,z
x-y,-y,z
-x,-x+y,z
loop_
_atom_site_type_symbol
_atom_site_label
_atom_site_fract_x
_atom_site_fract_y
_atom_site_fract_z
Si Si1 0.792553 0.265108 0.180287
Si Si2 0.275999 0.000000 0.318623
Si Si3 0.335097 0.259455 0.321572
Si Si4 0.405404 0.000000 0.319350
Si Si5 0.325624 0.135122 0.181733
Si Si6 0.474213 0.333490 0.182262
Si Si7 0.407941 0.878078 0.181543
O O1 0.842808 0.242053 0.241181
O O2 0.719268 0.214424 0.237501
O O3 0.814044 0.339056 0.231232
O O4 0.793831 0.260883 0.000000
O O5 0.272173 0.000000 0.500000
O O6 0.211991 0.935566 0.254478
O O7 0.340939 0.000000 0.257750
O O8 0.344135 0.251153 0.500000
O O9 0.282362 0.282362 0.291662
O O10 0.307905 0.189551 0.238484
O O11 0.404716 0.315354 0.254536
O O12 0.405705 0.000000 0.500000
O O13 0.469690 0.061634 0.258575
O O14 0.319020 0.129937 0.000000
O O15 0.531045 0.403311 0.244040
O O16 0.467405 0.333927 0.000000
O O17 0.412462 0.887505 0.000000
#
# Coordination Sequence:
#
# PCOD8327650 Si02
#       7
#    12   6  12   6  12  12  12
#     4   8  15  30  48  68  93 123 162 212 265 306
#     4  11  21  33  51  79 111 141 169 204 255 312
#     4  10  21  36  53  74 104 139 172 210 258 308
#     4  11  23  33  47  73 103 131 165 208 259 320
#     4  10  19  33  55  78 104 134 170 210 251 303
#     4   9  19  33  50  72  95 129 175 220 262 310
#     4  10  19  33  51  70  97 130 169 215 263 315
#
# _framework density 17.174475000000001
#
# number of rings (size 3 to 8) (size 9 to 14) (size 15 to 20)
#    0.000    2.333    1.667    2.500    1.167    2.667 
#    1.000    0.000    0.000    0.000    0.000    0.000 
#    0.833    0.000    1.500    0.000    1.500    0.000 
#
# Total GULP energy -892549.068322 kJ/mol
# GULP energy per Si atom -12396.514838 kJ/mol
# Density = 1.713539 g / cm^3
# Si number density = 17.174475 Si / 1000 Ang^3
#
#
#
# Elastic Constant Matrix: (Units=GPa)
#
#
# Indices 1 2 3 4 5 6 
#
# 1 100.7881 55.0792 35.3270 0.0000 0.0000 0.0000
# 2 55.0792 100.7881 35.3270 0.0000 0.0000 0.0000
# 3 35.3270 35.3270 57.5593 0.0000 0.0000 0.0000
# 4 0.0000 0.0000 0.0000 17.6624 0.0000 0.0000
# 5 0.0000 0.0000 0.0000 0.0000 17.6624 0.0000
# 6 0.0000 0.0000 0.0000 0.0000 0.0000 22.8544
#
#
#
# Elastic Compliance Matrix: (Units=1/GPa)
#
#
# Indices 1 2 3 4 5 6 
#
# 1 0.015383 -0.006494 -0.005455 0.000000 0.000000 0.000000
# 2 -0.006494 0.015383 -0.005455 0.000000 0.000000 0.000000
# 3 -0.005455 -0.005455 0.024070 0.000000 0.000000 0.000000
# 4 0.000000 0.000000 0.000000 0.056617 0.000000 0.000000
# 5 0.000000 0.000000 0.000000 0.000000 0.056617 0.000000
# 6 0.000000 0.000000 0.000000 0.000000 0.000000 0.043755
#
#
# Mechanical properties :
#
#
# Convention : Reuss Voigt Hill
#
# Bulk Modulus (GPa) = 49.93620 56.73357 53.33489
# Shear Modulus (GPa) = 19.73852 20.52934 20.13393
#
# Velocity S-wave (km/s) = 3.39380 3.46112 3.42763
# Velocity P-wave (km/s) = 6.67054 7.00556 6.84010
#
# Compressibility (1/GPa) = 0.02002555
#
# Stress axis : x y z
#
# Youngs Moduli (GPa) = 65.00641 65.00641 41.54571
#
# Poissons Ratio (x) = 0.42218 0.22665
# Poissons Ratio (y) = 0.42218 0.22665
# Poissons Ratio (z) = 0.35464 0.35464
#
# Static dielectric constant tensor:
#      x y z
#    x 3.323100 0.000000 0.000000 
#    y 0.000000 3.323100 0.000000 
#    z 0.000000 0.000000 3.091850 
# 
# 
# High freq. dielectric constant tensor:
#      x y z
#    x 1.653470 0.000000 0.000000 
#    y 0.000000 1.653470 0.000000 
#    z 0.000000 0.000000 1.653850 
# 
# From -- ./inp_files/1313.got.cif
#   From: 2010.03.12/outbox.cif.g09.slc.cpg/sg189_1_cif.got.tgz:1313.got - 2010.04.01 12:03:36.
