data_PCOD8327475
_publ_section_title
;
Structure prediction by ZEFSAII (Michael W. Deem and Ramdas Pophale) SiO2 
 PCOD8327475
Probable space group: P -6 C 2
;
_chemical_formula_sum "Si O2"
_cell_formula_units_Z 96
_cell_length_a 28.448381
_cell_length_b 28.448381
_cell_length_c 10.003164
_cell_angle_alpha 90.000000
_cell_angle_beta 90.000000
_cell_angle_gamma 120.000000
_cell_volume 7011.051094
_symmetry_space_group_name_H-M "P -6 C 2"
_symmetry_group_IT_number 188
_symmetry_cell_setting 'hexagonal'
loop_
_space_group_symop_operation_xyz
x,y,z
-x+y,-x,1/2-z
-y,x-y,z
x,y,1/2-z
-x+y,-x,z
-y,x-y,1/2-z
-y,-x,-z
-x+y,y,-z
x,x-y,-z
-x+y,y,1/2+z
x,x-y,1/2+z
-y,-x,1/2+z
loop_
_atom_site_type_symbol
_atom_site_label
_atom_site_fract_x
_atom_site_fract_y
_atom_site_fract_z
Si Si1 0.053855 0.564639 0.397460
Si Si2 0.054814 0.383442 0.595111
Si Si3 0.779851 0.932166 0.594982
Si Si4 0.150642 0.113147 0.602310
Si Si5 0.822549 0.720519 0.102541
Si Si6 0.278520 0.995296 0.095110
Si Si7 0.446480 0.629174 0.602309
Si Si8 0.553482 0.734502 0.905017
O O1 0.030619 0.541852 0.250000
O O2 0.028300 0.514150 0.500000
O O3 0.038161 0.609599 0.439788
O O4 0.118305 0.592324 0.393984
O O5 0.042318 0.365941 0.750000
O O6 0.019021 0.333334 0.499999
O O7 0.117989 0.406492 0.564956
O O8 0.775709 0.914938 0.750000
O O9 0.761157 0.880579 0.500000
O O10 0.739825 0.955170 0.564954
O O11 0.841717 0.977027 0.558570
O O12 0.127256 0.090704 0.750000
O O13 0.124998 0.062499 0.500000
O O14 0.215031 0.140686 0.606018
O O15 0.822099 0.697282 0.250000
O O16 0.761895 0.704826 0.060211
O O17 0.847482 0.694963 0.000000
O O18 0.291015 0.990290 0.250000
O O19 0.424038 0.630117 0.750000
O O20 0.395832 0.604169 0.500000
O O21 0.491616 0.689642 0.558570
O O22 0.557624 0.751730 0.750000
O O23 0.572178 0.786089 0.000000
#
# Coordination Sequence:
#
# PCOD8327475 Si02
#       8
#    12  12  12  12  12  12  12  12
#     4   8  14  25  40  57  75  93 116 147 180 214
#     4   9  18  30  41  56  79 103 127 156 188 223
#     4   9  18  30  41  55  75  97 122 151 182 222
#     4   8  14  25  40  56  71  85 105 138 177 213
#     4   8  14  25  40  57  75  93 116 147 180 214
#     4   9  18  30  41  56  79 103 127 156 188 223
#     4   8  14  25  40  56  71  85 105 138 177 213
#     4   9  18  30  41  55  75  97 122 151 182 222
#
# _framework density 13.692669
#
# number of rings (size 3 to 8) (size 9 to 14) (size 15 to 20)
#    0.000    3.500    0.000    3.000    0.000    3.500 
#    0.000    7.500    0.000    0.500    0.000    0.000 
#    0.000    0.000    0.000    0.000    0.000    0.000 
#
# Total GULP energy -1189794.786826 kJ/mol
# GULP energy per Si atom -12393.695696 kJ/mol
# Density = 1.366150 g / cm^3
# Si number density = 13.692669 Si / 1000 Ang^3
#
#
#
# Elastic Constant Matrix: (Units=GPa)
#
#
# Indices 1 2 3 4 5 6 
#
# 1 55.1224 33.4450 51.8061 0.0000 0.0000 0.0000
# 2 33.4450 55.1224 51.8061 0.0000 0.0000 0.0000
# 3 51.8061 51.8061 92.8747 0.0000 0.0000 0.0000
# 4 0.0000 0.0000 0.0000 22.4611 0.0000 0.0000
# 5 0.0000 0.0000 0.0000 0.0000 22.4611 0.0000
# 6 0.0000 0.0000 0.0000 0.0000 0.0000 10.8387
#
#
#
# Elastic Compliance Matrix: (Units=1/GPa)
#
#
# Indices 1 2 3 4 5 6 
#
# 1 0.039314 -0.006817 -0.018127 0.000000 0.000000 0.000000
# 2 -0.006817 0.039314 -0.018127 0.000000 0.000000 0.000000
# 3 -0.018127 -0.018127 0.030990 0.000000 0.000000 0.000000
# 4 0.000000 0.000000 0.000000 0.044521 0.000000 0.000000
# 5 0.000000 0.000000 0.000000 0.000000 0.044521 0.000000
# 6 0.000000 0.000000 0.000000 0.000000 0.000000 0.092262
#
#
# Mechanical properties :
#
#
# Convention : Reuss Voigt Hill
#
# Bulk Modulus (GPa) = 42.59682 53.02597 47.81140
# Shear Modulus (GPa) = 12.99068 15.55632 14.27350
#
# Velocity S-wave (km/s) = 3.08349 3.37427 3.23215
# Velocity P-wave (km/s) = 6.62223 7.34785 6.99446
#
# Compressibility (1/GPa) = 0.02347593
#
# Stress axis : x y z
#
# Youngs Moduli (GPa) = 25.43612 25.43612 32.26833
#
# Poissons Ratio (x) = 0.17339 0.58493
# Poissons Ratio (y) = 0.17339 0.58493
# Poissons Ratio (z) = 0.46109 0.46109
#
# Static dielectric constant tensor:
#      x y z
#    x 2.484110 0.000000 0.000000 
#    y 0.000000 2.484110 0.000000 
#    z 0.000000 0.000000 3.014520 
# 
# 
# High freq. dielectric constant tensor:
#      x y z
#    x 1.486010 0.000000 0.000000 
#    y 0.000000 1.486010 0.000000 
#    z 0.000000 0.000000 1.533550 
# 
# From -- ./inp_files/1809.got.cif
#   From: 2010.03.12/outbox.cif.g09.slc.cpg/sg188_1_cif.got.tgz:1809.got - 2010.04.01 12:01:06.
