data_PCOD8327771
_publ_section_title
;
Structure prediction by ZEFSAII (Michael W. Deem and Ramdas Pophale) SiO2 
 PCOD8327771
Probable space group: P -6 2 M
;
_chemical_formula_sum "Si O2"
_cell_formula_units_Z 84
_cell_length_a 19.430619
_cell_length_b 19.430619
_cell_length_c 14.387579
_cell_angle_alpha 90.000000
_cell_angle_beta 90.000000
_cell_angle_gamma 120.000000
_cell_volume 4704.263341
_symmetry_space_group_name_H-M "P -6 2 M"
_symmetry_group_IT_number 189
_symmetry_cell_setting 'hexagonal'
loop_
_space_group_symop_operation_xyz
x,y,z
-x+y,-x,-z
-y,x-y,z
x,y,-z
-x+y,-x,z
-y,x-y,-z
x-y,-y,-z
-x,-x+y,-z
y,x,-z
y,x,z
x-y,-y,z
-x,-x+y,z
loop_
_atom_site_type_symbol
_atom_site_label
_atom_site_fract_x
_atom_site_fract_y
_atom_site_fract_z
Si Si1 0.332211 0.160763 0.889280
Si Si2 0.658636 0.093907 0.897730
Si Si3 0.147116 0.323382 0.609472
Si Si4 0.910023 0.577935 0.606648
Si Si5 0.403142 0.092145 0.247923
Si Si6 0.537589 0.443155 0.743796
Si Si7 0.094413 0.906167 0.246683
O O1 0.376633 0.253001 0.861409
O O2 0.385052 0.127371 0.843725
O O3 0.245186 0.118466 0.843285
O O4 0.323815 0.145696 0.000000
O O5 0.610671 0.124537 0.836133
O O6 0.615568 0.000000 0.896490
O O7 0.661514 0.127885 0.000000
O O8 0.126943 0.310393 0.500000
O O9 0.239733 0.379834 0.629320
O O10 0.104163 0.366645 0.657110
O O11 0.117129 0.238371 0.657545
O O12 0.906848 0.556739 0.500000
O O13 0.874422 0.493602 0.658642
O O14 0.000000 0.638209 0.639958
O O15 0.498562 0.131189 0.259971
O O16 0.364887 0.000000 0.228083
O O17 0.495447 0.495447 0.739547
O O18 0.000000 0.863045 0.242988
O O19 0.129177 0.000000 0.244278
#
# Coordination Sequence:
#
# PCOD8327771 Si02
#       7
#    12  12  12  12  12  12  12
#     4  10  20  35  55  77 103 136 174 217 264 315
#     4   9  17  30  51  77  98 120 157 204 252 299
#     4  10  20  35  55  77 103 136 174 217 264 315
#     4   9  17  30  51  77  98 120 157 204 252 299
#     4  10  21  33  48  74 103 134 170 205 249 306
#     4   9  17  30  48  71  99 125 151 191 240 287
#     4  11  23  37  53  75 105 143 186 230 276 325
#
# _framework density 17.856144
#
# number of rings (size 3 to 8) (size 9 to 14) (size 15 to 20)
#    0.000    2.286    0.000    4.429    0.000    6.286 
#    0.000    2.857    0.000    6.286    0.000    0.000 
#    0.000    0.000    0.000    0.000    0.000    0.000 
#
# Total GULP energy -1041355.067992 kJ/mol
# GULP energy per Si atom -12397.084143 kJ/mol
# Density = 1.781550 g / cm^3
# Si number density = 17.856144 Si / 1000 Ang^3
#
#
#
# Elastic Constant Matrix: (Units=GPa)
#
#
# Indices 1 2 3 4 5 6 
#
# 1 93.1252 28.4067 35.9105 0.0000 0.0000 0.0000
# 2 28.4067 93.1252 35.9105 0.0000 0.0000 0.0000
# 3 35.9105 35.9105 103.9088 0.0000 0.0000 0.0000
# 4 0.0000 0.0000 0.0000 14.3449 0.0000 0.0000
# 5 0.0000 0.0000 0.0000 0.0000 14.3449 0.0000
# 6 0.0000 0.0000 0.0000 0.0000 0.0000 32.3592
#
#
#
# Elastic Compliance Matrix: (Units=1/GPa)
#
#
# Indices 1 2 3 4 5 6 
#
# 1 0.012896 -0.002556 -0.003574 0.000000 0.000000 0.000000
# 2 -0.002556 0.012896 -0.003574 0.000000 0.000000 0.000000
# 3 -0.003574 -0.003574 0.012094 0.000000 0.000000 0.000000
# 4 0.000000 0.000000 0.000000 0.069711 0.000000 0.000000
# 5 0.000000 0.000000 0.000000 0.000000 0.069711 0.000000
# 6 0.000000 0.000000 0.000000 0.000000 0.000000 0.030903
#
#
# Mechanical properties :
#
#
# Convention : Reuss Voigt Hill
#
# Bulk Modulus (GPa) = 54.11255 54.51274 54.31264
# Shear Modulus (GPa) = 21.38798 24.87191 23.12994
#
# Velocity S-wave (km/s) = 3.46467 3.73621 3.60300
# Velocity P-wave (km/s) = 6.80998 7.01481 6.91315
#
# Compressibility (1/GPa) = 0.01848000
#
# Stress axis : x y z
#
# Youngs Moduli (GPa) = 77.54450 77.54450 82.68693
#
# Poissons Ratio (x) = 0.19818 0.29548
# Poissons Ratio (y) = 0.19818 0.29548
# Poissons Ratio (z) = 0.27711 0.27711
#
# Static dielectric constant tensor:
#      x y z
#    x 3.351990 0.000000 0.000000 
#    y 0.000000 3.351990 0.000000 
#    z 0.000000 0.000000 3.701750 
# 
# 
# High freq. dielectric constant tensor:
#      x y z
#    x 1.681780 0.000000 0.000000 
#    y 0.000000 1.681780 0.000000 
#    z 0.000000 0.000000 1.701680 
# 
# From -- ./inp_files/2815.got.cif
#   From: 2010.03.12/outbox.cif.g09.slc.cpg/sg189_2_cif.got.tgz:2815.got - 2010.04.01 12:03:36.
