data_PCOD8327919
_publ_section_title
;
Structure prediction by ZEFSAII (Michael W. Deem and Ramdas Pophale) SiO2 
 PCOD8327919
Probable space group: P -6 2 M
;
_chemical_formula_sum "Si O2"
_cell_formula_units_Z 40
_cell_length_a 12.850357
_cell_length_b 12.850357
_cell_length_c 17.452459
_cell_angle_alpha 90.000000
_cell_angle_beta 90.000000
_cell_angle_gamma 120.000000
_cell_volume 2495.845193
_symmetry_space_group_name_H-M "P -6 2 M"
_symmetry_group_IT_number 189
_symmetry_cell_setting 'hexagonal'
loop_
_space_group_symop_operation_xyz
x,y,z
-x+y,-x,-z
-y,x-y,z
x,y,-z
-x+y,-x,z
-y,x-y,-z
x-y,-y,-z
-x,-x+y,-z
y,x,-z
y,x,z
x-y,-y,z
-x,-x+y,z
loop_
_atom_site_type_symbol
_atom_site_label
_atom_site_fract_x
_atom_site_fract_y
_atom_site_fract_z
Si Si1 0.576770 0.864754 0.777639
Si Si2 0.666668 0.333334 0.409540
Si Si3 0.368903 0.864561 0.301936
Si Si4 0.862304 0.724296 0.912692
O O1 0.582582 0.768854 0.721783
O O2 0.443323 0.849041 0.769396
O O3 0.608367 0.839711 0.862964
O O4 0.675087 0.000000 0.751444
O O5 0.666667 0.333334 0.500000
O O6 0.800171 0.381077 0.377390
O O7 0.420334 0.000000 0.326463
O O8 0.777479 0.777479 0.885311
O O9 0.000000 0.830568 0.904763
O O10 0.832385 0.679022 0.000000
#
# Coordination Sequence:
#
# PCOD8327919 Si02
#       4
#    12   4  12  12
#     4   9  17  29  45  64  87 117 151 184 220 263
#     4   9  18  30  45  69  94 113 142 180 216 261
#     4   9  17  30  47  65  89 119 147 180 221 261
#     4   9  16  26  41  62  88 117 150 189 229 265
#
# _framework density 16.026636
#
# number of rings (size 3 to 8) (size 9 to 14) (size 15 to 20)
#    0.000    3.000    0.000    1.800    0.000    1.800 
#    0.000    1.500    0.000    6.000    0.000    0.000 
#    0.000    0.000    0.000    1.800    0.000    0.000 
#
# Total GULP energy -495600.799916 kJ/mol
# GULP energy per Si atom -12390.019998 kJ/mol
# Density = 1.599016 g / cm^3
# Si number density = 16.026636 Si / 1000 Ang^3
#
#
#
# Elastic Constant Matrix: (Units=GPa)
#
#
# Indices 1 2 3 4 5 6 
#
# 1 92.1222 54.3344 49.3738 -0.0001 0.0000 -0.0001
# 2 54.3344 92.1223 49.3735 0.0000 0.0000 0.0001
# 3 49.3738 49.3735 96.6273 -0.0002 0.0000 -0.0001
# 4 -0.0001 0.0000 -0.0002 15.2837 0.0000 0.0000
# 5 0.0000 0.0000 0.0000 0.0000 15.2840 0.0000
# 6 -0.0001 0.0001 -0.0001 0.0000 0.0000 18.8941
#
#
#
# Elastic Compliance Matrix: (Units=1/GPa)
#
#
# Indices 1 2 3 4 5 6 
#
# 1 0.018440 -0.008023 -0.005323 0.000000 0.000000 0.000000
# 2 -0.008023 0.018440 -0.005323 0.000000 0.000000 0.000000
# 3 -0.005323 -0.005323 0.015788 0.000000 0.000000 0.000000
# 4 0.000000 0.000000 0.000000 0.065429 0.000000 0.000000
# 5 0.000000 0.000000 0.000000 0.000000 0.065428 0.000000
# 6 0.000000 0.000000 0.000000 0.000000 0.000000 0.052927
#
#
# Mechanical properties :
#
#
# Convention : Reuss Voigt Hill
#
# Bulk Modulus (GPa) = 65.22580 65.22613 65.22596
# Shear Modulus (GPa) = 17.92756 18.41169 18.16963
#
# Velocity S-wave (km/s) = 3.34819 3.39310 3.37072
# Velocity P-wave (km/s) = 7.46551 7.49251 7.47903
#
# Compressibility (1/GPa) = 0.01533136
#
# Stress axis : x y z
#
# Youngs Moduli (GPa) = 54.22944 54.22981 63.33740
#
# Poissons Ratio (x) = 0.43511 0.33713
# Poissons Ratio (y) = 0.43510 0.33712
# Poissons Ratio (z) = 0.28865 0.28864
#
# Static dielectric constant tensor:
#      x y z
#    x 3.159350 0.000000 0.000000 
#    y 0.000000 3.159360 0.000000 
#    z 0.000000 0.000000 2.763880 
# 
# 
# High freq. dielectric constant tensor:
#      x y z
#    x 1.618140 0.000000 0.000000 
#    y 0.000000 1.618140 0.000000 
#    z 0.000000 0.000000 1.580790 
# 
# From -- ./inp_files/2364.got.cif
#   From: 2010.03.12/outbox.cif.g09.slc.cpg/sg189_2_cif.got.tgz:2364.got - 2010.04.01 12:03:36.
