data_PCOD8327409
_publ_section_title
;
Structure prediction by ZEFSAII (Michael W. Deem and Ramdas Pophale) SiO2 
 PCOD8327409
Probable space group: P -6 C 2
;
_chemical_formula_sum "Si O2"
_cell_formula_units_Z 64
_cell_length_a 16.019916
_cell_length_b 16.019916
_cell_length_c 16.590264
_cell_angle_alpha 90.000000
_cell_angle_beta 90.000000
_cell_angle_gamma 120.000000
_cell_volume 3687.265397
_symmetry_space_group_name_H-M "P -6 C 2"
_symmetry_group_IT_number 188
_symmetry_cell_setting 'hexagonal'
loop_
_space_group_symop_operation_xyz
x,y,z
-x+y,-x,1/2-z
-y,x-y,z
x,y,1/2-z
-x+y,-x,z
-y,x-y,1/2-z
-y,-x,-z
-x+y,y,-z
x,x-y,-z
-x+y,y,1/2+z
x,x-y,1/2+z
-y,-x,1/2+z
loop_
_atom_site_type_symbol
_atom_site_label
_atom_site_fract_x
_atom_site_fract_y
_atom_site_fract_z
Si Si1 0.155491 0.967162 0.342489
Si Si2 0.696833 0.066547 0.842627
Si Si3 0.666668 0.333334 0.344393
Si Si4 0.964718 0.143400 0.917583
Si Si5 0.562531 0.437451 0.405820
Si Si6 0.372638 0.112036 0.843511
O O1 0.135677 0.928526 0.250000
O O2 0.078638 0.895563 0.408080
O O3 0.261723 0.991963 0.375120
O O4 0.155678 0.068219 0.344263
O O5 0.675866 0.043751 0.750000
O O6 0.597604 0.049279 0.882178
O O7 0.778077 0.177657 0.857654
O O8 0.666667 0.333334 0.250000
O O9 0.641461 0.412563 0.373776
O O10 0.952613 0.236291 0.903227
O O11 0.915252 0.084749 0.000000
O O12 0.564795 0.435206 0.500000
O O13 0.458665 0.364977 0.368847
O O14 0.346627 0.082223 0.750000
#
# Coordination Sequence:
#
# PCOD8327409 Si02
#       6
#    12  12   4  12  12  12
#     4  10  20  36  55  73 105 144 184 222 270 338
#     4   9  19  34  52  72 101 143 182 219 268 328
#     4  12  22  32  49  66  97 140 184 210 259 326
#     4  11  22  34  55  81 107 139 181 232 280 326
#     4  12  23  32  50  75 103 140 179 232 270 318
#     4  10  21  35  52  73 106 144 179 221 273 336
#
# _framework density 17.357036000000001
#
# number of rings (size 3 to 8) (size 9 to 14) (size 15 to 20)
#    0.000    1.500    1.875    6.000    5.250    0.000 
#    0.000    0.000    0.000    0.000    0.000    0.000 
#    1.875    0.000    2.250    0.000    0.750    0.000 
#
# Total GULP energy -793139.896979 kJ/mol
# GULP energy per Si atom -12392.810890 kJ/mol
# Density = 1.731753 g / cm^3
# Si number density = 17.357036 Si / 1000 Ang^3
#
#
#
# Elastic Constant Matrix: (Units=GPa)
#
#
# Indices 1 2 3 4 5 6 
#
# 1 107.8924 53.5928 48.7413 0.0000 0.0000 -0.0001
# 2 53.5928 107.8921 48.7412 0.0001 0.0000 -0.0001
# 3 48.7413 48.7412 87.1188 0.0000 0.0000 0.0000
# 4 0.0000 0.0001 0.0000 26.1119 0.0000 0.0000
# 5 0.0000 0.0000 0.0000 0.0000 26.1120 0.0000
# 6 -0.0001 -0.0001 0.0000 0.0000 0.0000 27.1498
#
#
#
# Elastic Compliance Matrix: (Units=1/GPa)
#
#
# Indices 1 2 3 4 5 6 
#
# 1 0.013883 -0.004533 -0.005231 0.000000 0.000000 0.000000
# 2 -0.004533 0.013883 -0.005231 0.000000 0.000000 0.000000
# 3 -0.005231 -0.005231 0.017332 0.000000 0.000000 0.000000
# 4 0.000000 0.000000 0.000000 0.038297 0.000000 0.000000
# 5 0.000000 0.000000 0.000000 0.000000 0.038297 0.000000
# 6 0.000000 0.000000 0.000000 0.000000 0.000000 0.036833
#
#
# Mechanical properties :
#
#
# Convention : Reuss Voigt Hill
#
# Bulk Modulus (GPa) = 66.19155 67.22823 66.70989
# Shear Modulus (GPa) = 25.83275 25.99661 25.91468
#
# Velocity S-wave (km/s) = 3.86205 3.87428 3.86817
# Velocity P-wave (km/s) = 7.62269 7.67008 7.64642
#
# Compressibility (1/GPa) = 0.01510767
#
# Stress axis : x y z
#
# Youngs Moduli (GPa) = 72.02816 72.02796 57.69554
#
# Poissons Ratio (x) = 0.32650 0.30183
# Poissons Ratio (y) = 0.32650 0.30183
# Poissons Ratio (z) = 0.37681 0.37681
#
# Static dielectric constant tensor:
#      x y z
#    x 3.309790 0.000000 0.000000 
#    y 0.000000 3.309800 0.000000 
#    z 0.000000 0.000000 3.272170 
# 
# 
# High freq. dielectric constant tensor:
#      x y z
#    x 1.644160 0.000000 0.000000 
#    y 0.000000 1.644160 0.000000 
#    z 0.000000 0.000000 1.684360 
# 
# From -- ./inp_files/3064.got.cif
#   From: 2010.03.12/outbox.cif.g09.slc.cpg/sg188_2_cif.got.tgz:3064.got - 2010.04.01 12:01:06.
