data_PCOD8327824
_publ_section_title
;
Structure prediction by ZEFSAII (Michael W. Deem and Ramdas Pophale) SiO2 
 PCOD8327824
Probable space group: P -6 2 M
;
_chemical_formula_sum "Si O2"
_cell_formula_units_Z 60
_cell_length_a 17.885966
_cell_length_b 17.885966
_cell_length_c 13.773171
_cell_angle_alpha 90.000000
_cell_angle_beta 90.000000
_cell_angle_gamma 120.000000
_cell_volume 3815.833117
_symmetry_space_group_name_H-M "P -6 2 M"
_symmetry_group_IT_number 189
_symmetry_cell_setting 'hexagonal'
loop_
_space_group_symop_operation_xyz
x,y,z
-x+y,-x,-z
-y,x-y,z
x,y,-z
-x+y,-x,z
-y,x-y,-z
x-y,-y,-z
-x,-x+y,-z
y,x,-z
y,x,z
x-y,-y,z
-x,-x+y,z
loop_
_atom_site_type_symbol
_atom_site_label
_atom_site_fract_x
_atom_site_fract_y
_atom_site_fract_z
Si Si1 0.480661 0.272908 0.195200
Si Si2 0.216022 0.000000 0.114723
Si Si3 0.556809 0.291039 0.607290
Si Si4 0.381390 0.000000 0.115304
Si Si5 0.163073 0.552882 0.114245
Si Si6 0.810245 0.098615 0.884777
O O1 0.482901 0.262383 0.311602
O O2 0.544006 0.245377 0.142375
O O3 0.525774 0.372999 0.167259
O O4 0.381549 0.221899 0.162359
O O5 0.131287 0.910080 0.146868
O O6 0.298744 0.000000 0.160375
O O7 0.221651 0.000000 0.000000
O O8 0.607124 0.236603 0.618700
O O9 0.513893 0.274529 0.500000
O O10 0.465392 0.083207 0.153676
O O11 0.377464 0.000000 0.000000
O O12 0.161532 0.566546 0.000000
O O13 0.752035 0.000000 0.849075
O O14 0.803534 0.105450 0.000000
#
# Coordination Sequence:
#
# PCOD8327824 Si02
#       6
#    12   6  12   6  12  12
#     4  12  19  30  46  70  97 132 166 203 238 287
#     4   9  16  34  52  62  87 129 171 202 240 294
#     4   8  15  30  47  66  92 126 173 212 235 269
#     4   9  18  30  42  60  89 131 163 184 220 276
#     4  11  20  28  41  66  98 130 161 189 224 280
#     4  10  21  34  49  72 101 130 164 210 258 304
#
# _framework density 15.723959000000001
#
# number of rings (size 3 to 8) (size 9 to 14) (size 15 to 20)
#    0.400    1.600    4.000    2.200    1.400    0.000 
#    0.600    0.000    0.000    0.600    0.000    4.200 
#    0.000    0.000    0.000    0.000    0.200    0.000 
#
# Total GULP energy -743456.987313 kJ/mol
# GULP energy per Si atom -12390.949789 kJ/mol
# Density = 1.568817 g / cm^3
# Si number density = 15.723959 Si / 1000 Ang^3
#
#
#
# Elastic Constant Matrix: (Units=GPa)
#
#
# Indices 1 2 3 4 5 6 
#
# 1 73.9977 30.6864 25.0228 0.0000 0.0000 0.0000
# 2 30.6864 73.9977 25.0228 0.0000 0.0000 0.0000
# 3 25.0228 25.0228 71.1440 0.0000 0.0000 0.0000
# 4 0.0000 0.0000 0.0000 7.3185 0.0000 0.0000
# 5 0.0000 0.0000 0.0000 0.0000 7.3185 0.0000
# 6 0.0000 0.0000 0.0000 0.0000 0.0000 21.6557
#
#
#
# Elastic Compliance Matrix: (Units=1/GPa)
#
#
# Indices 1 2 3 4 5 6 
#
# 1 0.017286 -0.005803 -0.004039 0.000000 0.000000 0.000000
# 2 -0.005803 0.017286 -0.004039 0.000000 0.000000 0.000000
# 3 -0.004039 -0.004039 0.016897 0.000000 0.000000 0.000000
# 4 0.000000 0.000000 0.000000 0.136639 0.000000 0.000000
# 5 0.000000 0.000000 0.000000 0.000000 0.136639 0.000000
# 6 0.000000 0.000000 0.000000 0.000000 0.000000 0.046177
#
#
# Mechanical properties :
#
#
# Convention : Reuss Voigt Hill
#
# Bulk Modulus (GPa) = 42.17949 42.28925 42.23437
# Shear Modulus (GPa) = 12.29742 16.48571 14.39157
#
# Velocity S-wave (km/s) = 2.79961 3.24148 3.02861
# Velocity P-wave (km/s) = 6.11012 6.40022 6.25685
#
# Compressibility (1/GPa) = 0.02370820
#
# Stress axis : x y z
#
# Youngs Moduli (GPa) = 57.85019 57.85019 59.18157
#
# Poissons Ratio (x) = 0.33568 0.23903
# Poissons Ratio (y) = 0.33568 0.23903
# Poissons Ratio (z) = 0.23365 0.23365
#
# Static dielectric constant tensor:
#      x y z
#    x 3.018890 0.000000 0.000000 
#    y 0.000000 3.018890 0.000000 
#    z 0.000000 0.000000 2.709780 
# 
# 
# High freq. dielectric constant tensor:
#      x y z
#    x 1.593610 0.000000 0.000000 
#    y 0.000000 1.593610 0.000000 
#    z 0.000000 0.000000 1.564690 
# 
# From -- ./inp_files/1964.got.cif
#   From: 2010.03.12/outbox.cif.g09.slc.cpg/sg189_1_cif.got.tgz:1964.got - 2010.04.01 12:03:36.
