data_PCOD8327293
_publ_section_title
;
Structure prediction by ZEFSAII (Michael W. Deem and Ramdas Pophale) SiO2 
 PCOD8327293
Probable space group: P -6 M 2
;
_chemical_formula_sum "Si O2"
_cell_formula_units_Z 48
_cell_length_a 25.788864
_cell_length_b 25.788864
_cell_length_c 7.739627
_cell_angle_alpha 90.000000
_cell_angle_beta 90.000000
_cell_angle_gamma 120.000000
_cell_volume 4457.743613
_symmetry_space_group_name_H-M "P -6 M 2"
_symmetry_group_IT_number 187
_symmetry_cell_setting 'hexagonal'
loop_
_space_group_symop_operation_xyz
x,y,z
-x+y,-x,-z
-y,x-y,z
x,y,-z
-x+y,-x,z
-y,x-y,-z
-y,-x,-z
-x+y,y,-z
x,x-y,-z
-x+y,y,z
x,x-y,z
-y,-x,z
loop_
_atom_site_type_symbol
_atom_site_label
_atom_site_fract_x
_atom_site_fract_y
_atom_site_fract_z
Si Si1 0.666449 0.450151 0.705035
Si Si2 0.850919 0.271896 0.808389
Si Si3 0.120889 0.120755 0.803942
Si Si4 0.205902 0.164363 0.500000
Si Si5 0.892098 0.231962 0.500000
O O1 0.667449 0.452438 0.500000
O O2 0.720283 0.440566 0.773088
O O3 0.604143 0.395858 0.775211
O O4 0.673213 0.512094 0.775816
O O5 0.788062 0.211939 0.785989
O O6 0.896796 0.270742 0.669534
O O7 0.877857 0.277154 0.000000
O O8 0.060766 0.121531 0.763106
O O9 0.171839 0.166276 0.672789
O O10 0.106798 0.053399 0.773221
O O11 0.143123 0.141699 0.000000
O O12 0.210366 0.105183 0.500000
O O13 0.272707 0.221399 0.500000
O O14 0.830686 0.169315 0.500000
#
# Coordination Sequence:
#
# PCOD8327293 Si02
#       5
#    12  12  12   6   6
#     4   9  15  23  34  47  62  77  93 114 142 178
#     4   9  16  25  36  46  56  73  94 115 142 173
#     4   9  16  25  36  50  67  84  99 114 135 165
#     4   9  17  25  35  48  61  77  98 121 140 160
#     4   9  16  27  36  44  58  73  93 121 144 162
#
# _framework density 10.76778
#
# number of rings (size 3 to 8) (size 9 to 14) (size 15 to 20)
#    0.000    3.000    1.250    0.875    0.000    3.500 
#    0.000    6.250    0.000    1.500    0.000    0.000 
#    0.000    0.000    0.000    0.000    0.000    0.000 
#
# Total GULP energy -594974.489871 kJ/mol
# GULP energy per Si atom -12395.301872 kJ/mol
# Density = 1.074327 g / cm^3
# Si number density = 10.767780 Si / 1000 Ang^3
#
#
#
# Elastic Constant Matrix: (Units=GPa)
#
#
# Indices 1 2 3 4 5 6 
#
# 1 45.6200 31.2028 35.0539 0.0000 0.0000 0.0000
# 2 31.2028 45.6200 35.0539 0.0000 0.0000 0.0000
# 3 35.0539 35.0539 81.2256 0.0000 0.0000 0.0000
# 4 0.0000 0.0000 0.0000 7.9446 0.0000 0.0000
# 5 0.0000 0.0000 0.0000 0.0000 7.9446 0.0000
# 6 0.0000 0.0000 0.0000 0.0000 0.0000 7.2086
#
#
#
# Elastic Compliance Matrix: (Units=1/GPa)
#
#
# Indices 1 2 3 4 5 6 
#
# 1 0.045418 -0.023944 -0.009268 0.000000 0.000000 0.000000
# 2 -0.023944 0.045418 -0.009268 0.000000 0.000000 0.000000
# 3 -0.009268 -0.009268 0.020310 0.000000 0.000000 0.000000
# 4 0.000000 0.000000 0.000000 0.125872 0.000000 0.000000
# 5 0.000000 0.000000 0.000000 0.000000 0.125872 0.000000
# 6 0.000000 0.000000 0.000000 0.000000 0.000000 0.138724
#
#
# Mechanical properties :
#
#
# Convention : Reuss Voigt Hill
#
# Bulk Modulus (GPa) = 38.18378 41.67629 39.93003
# Shear Modulus (GPa) = 8.39911 9.36321 8.88116
#
# Velocity S-wave (km/s) = 2.79592 2.95203 2.87503
# Velocity P-wave (km/s) = 6.77945 7.09985 6.94150
#
# Compressibility (1/GPa) = 0.02618913
#
# Stress axis : x y z
#
# Youngs Moduli (GPa) = 22.01762 22.01762 49.23570
#
# Poissons Ratio (x) = 0.52718 0.45630
# Poissons Ratio (y) = 0.52718 0.45630
# Poissons Ratio (z) = 0.20405 0.20405
#
# Static dielectric constant tensor:
#      x y z
#    x 2.167070 0.000000 0.000000 
#    y 0.000000 2.167070 0.000000 
#    z 0.000000 0.000000 2.482650 
# 
# 
# High freq. dielectric constant tensor:
#      x y z
#    x 1.365980 0.000000 0.000000 
#    y 0.000000 1.365980 0.000000 
#    z 0.000000 0.000000 1.424750 
# 
# From -- ./inp_files/534.got.cif
#   From: 2010.03.12/outbox.cif.g09.slc.cpg/sg187_1_cif.got.tgz:534.got - 2010.04.01 11:58:23.
