data_PCOD8327912
_publ_section_title
;
Structure prediction by ZEFSAII (Michael W. Deem and Ramdas Pophale) SiO2 
 PCOD8327912
Probable space group: P -6 2 M
;
_chemical_formula_sum "Si O2"
_cell_formula_units_Z 84
_cell_length_a 26.518919
_cell_length_b 26.518919
_cell_length_c 9.608271
_cell_angle_alpha 90.000000
_cell_angle_beta 90.000000
_cell_angle_gamma 120.000000
_cell_volume 5851.773516
_symmetry_space_group_name_H-M "P -6 2 M"
_symmetry_group_IT_number 189
_symmetry_cell_setting 'hexagonal'
loop_
_space_group_symop_operation_xyz
x,y,z
-x+y,-x,-z
-y,x-y,z
x,y,-z
-x+y,-x,z
-y,x-y,-z
x-y,-y,-z
-x,-x+y,-z
y,x,-z
y,x,z
x-y,-y,z
-x,-x+y,z
loop_
_atom_site_type_symbol
_atom_site_label
_atom_site_fract_x
_atom_site_fract_y
_atom_site_fract_z
Si Si1 0.561102 0.931954 0.162282
Si Si2 0.825062 0.761151 0.164980
Si Si3 0.757195 0.627960 0.836742
Si Si4 0.935689 0.761862 0.833772
Si Si5 0.357075 0.933022 0.336327
Si Si6 0.530835 0.461876 0.653287
Si Si7 0.872696 0.631926 0.835957
O O1 0.499234 0.907933 0.238840
O O2 0.589583 0.894891 0.223379
O O3 0.605181 0.000000 0.192369
O O4 0.547022 0.920548 0.000000
O O5 0.801850 0.801850 0.231435
O O6 0.782413 0.694681 0.209104
O O7 0.890801 0.782767 0.217853
O O8 0.825315 0.765052 0.000000
O O9 0.699735 0.588975 0.748956
O O10 0.805052 0.608867 0.799652
O O11 0.741988 0.619413 0.000000
O O12 0.913417 0.696926 0.775629
O O13 0.000000 0.805602 0.774225
O O14 0.936353 0.760665 0.000000
O O15 0.343345 0.926068 0.500000
O O16 0.404117 0.913258 0.298875
O O17 0.380932 0.000000 0.290895
O O18 0.532165 0.437325 0.500000
O O19 0.494270 0.494270 0.645310
O O20 0.881386 0.635835 0.000000
#
# Coordination Sequence:
#
# PCOD8327912 Si02
#       7
#    12  12  12  12  12  12  12
#     4   9  15  23  38  58  78 100 126 155 184 216
#     4   8  13  20  30  46  67  90 120 159 195 223
#     4   9  16  25  38  55  75 100 128 156 187 225
#     4   8  12  18  29  44  64  93 124 151 186 231
#     4   9  17  28  40  54  76 104 128 153 186 220
#     4   8  15  27  39  52  74 102 126 147 176 216
#     4   8  14  23  34  52  77  98 119 153 191 221
#
# _framework density 14.354623
#
# number of rings (size 3 to 8) (size 9 to 14) (size 15 to 20)
#    0.000    3.571    0.000    3.429    0.000    3.143 
#    0.000    2.143    0.000    0.286    0.000    2.000 
#    1.429    5.143    0.857    0.000    1.143    0.000 
#
# Total GULP energy -1040825.793476 kJ/mol
# GULP energy per Si atom -12390.783256 kJ/mol
# Density = 1.432195 g / cm^3
# Si number density = 14.354623 Si / 1000 Ang^3
#
#
#
# Elastic Constant Matrix: (Units=GPa)
#
#
# Indices 1 2 3 4 5 6 
#
# 1 110.6731 60.4272 33.7483 0.0000 0.0000 0.0000
# 2 60.4272 110.6731 33.7483 0.0000 0.0000 0.0000
# 3 33.7483 33.7483 29.6676 0.0000 0.0000 0.0000
# 4 0.0000 0.0000 0.0000 9.8814 0.0000 0.0000
# 5 0.0000 0.0000 0.0000 0.0000 9.8814 0.0000
# 6 0.0000 0.0000 0.0000 0.0000 0.0000 25.1229
#
#
#
# Elastic Compliance Matrix: (Units=1/GPa)
#
#
# Indices 1 2 3 4 5 6 
#
# 1 0.015252 -0.004650 -0.012061 0.000000 0.000000 0.000000
# 2 -0.004650 0.015252 -0.012061 0.000000 0.000000 0.000000
# 3 -0.012061 -0.012061 0.061146 0.000000 0.000000 0.000000
# 4 0.000000 0.000000 0.000000 0.101200 0.000000 0.000000
# 5 0.000000 0.000000 0.000000 0.000000 0.101200 0.000000
# 6 0.000000 0.000000 0.000000 0.000000 0.000000 0.039804
#
#
# Mechanical properties :
#
#
# Convention : Reuss Voigt Hill
#
# Bulk Modulus (GPa) = 29.31865 56.31795 42.81830
# Shear Modulus (GPa) = 12.41414 17.18314 14.79864
#
# Velocity S-wave (km/s) = 2.94397 3.46359 3.21430
# Velocity P-wave (km/s) = 5.65905 7.43732 6.60827
#
# Compressibility (1/GPa) = 0.03410798
#
# Stress axis : x y z
#
# Youngs Moduli (GPa) = 65.56434 65.56434 16.35435
#
# Poissons Ratio (x) = 0.30487 0.19724
# Poissons Ratio (y) = 0.30487 0.19724
# Poissons Ratio (z) = 0.79074 0.79074
#
# Static dielectric constant tensor:
#      x y z
#    x 2.931900 0.000000 0.000000 
#    y 0.000000 2.931900 0.000000 
#    z 0.000000 0.000000 2.490630 
# 
# 
# High freq. dielectric constant tensor:
#      x y z
#    x 1.536430 0.000000 0.000000 
#    y 0.000000 1.536430 0.000000 
#    z 0.000000 0.000000 1.508770 
# 
# From -- ./inp_files/2235.got.cif
#   From: 2010.03.12/outbox.cif.g09.slc.cpg/sg189_2_cif.got.tgz:2235.got - 2010.04.01 12:03:36.
