data_PCOD8327136
_publ_section_title
;
Structure prediction by ZEFSAII (Michael W. Deem and Ramdas Pophale) SiO2 
 PCOD8327136
Probable space group: P -6 M 2
;
_chemical_formula_sum "Si O2"
_cell_formula_units_Z 84
_cell_length_a 17.378221
_cell_length_b 17.378221
_cell_length_c 18.019453
_cell_angle_alpha 90.000000
_cell_angle_beta 90.000000
_cell_angle_gamma 120.000000
_cell_volume 4712.841856
_symmetry_space_group_name_H-M "P -6 M 2"
_symmetry_group_IT_number 187
_symmetry_cell_setting 'hexagonal'
loop_
_space_group_symop_operation_xyz
x,y,z
-x+y,-x,-z
-y,x-y,z
x,y,-z
-x+y,-x,z
-y,x-y,-z
-y,-x,-z
-x+y,y,-z
x,x-y,-z
-x+y,y,z
x,x-y,z
-y,-x,z
loop_
_atom_site_type_symbol
_atom_site_label
_atom_site_fract_x
_atom_site_fract_y
_atom_site_fract_z
Si Si1 0.510827 0.842863 0.644044
Si Si2 0.605192 0.031962 0.583110
Si Si3 0.328182 0.252495 0.694575
Si Si4 0.572541 0.607684 0.914635
Si Si5 0.096001 0.729392 0.217750
Si Si6 0.829346 0.998999 0.583892
Si Si7 0.835679 0.332993 0.911904
O O1 0.408599 0.817198 0.647476
O O2 0.516171 0.758086 0.613995
O O3 0.551508 0.869529 0.726124
O O4 0.568109 0.926201 0.590340
O O5 0.646345 0.061005 0.500000
O O6 0.526263 0.052525 0.594026
O O7 0.673257 0.087724 0.650014
O O8 0.341485 0.170743 0.721993
O O9 0.295669 0.290520 0.762101
O O10 0.255978 0.223948 0.631169
O O11 0.472054 0.527947 0.903953
O O12 0.593381 0.691158 0.863476
O O13 0.641220 0.575672 0.887970
O O14 0.588948 0.639183 0.000000
O O15 0.163852 0.836149 0.216739
O O16 0.795292 0.990022 0.500000
O O17 0.934519 0.065482 0.588644
O O18 0.809245 0.904623 0.615671
O O19 0.812659 0.406330 0.880734
O O20 0.763629 0.236372 0.879548
O O21 0.831194 0.333285 0.000000
#
# Coordination Sequence:
#
# PCOD8327136 Si02
#       7
#    12  12  12  12  12  12  12
#     4   9  17  29  46  68  95 129 165 198 233 279
#     4   9  18  32  48  68  96 128 161 199 243 286
#     4  10  20  33  50  71  94 124 164 207 247 289
#     4   9  18  32  50  72  97 125 157 194 236 283
#     4  10  20  33  49  70  96 126 161 201 247 296
#     4   9  16  26  42  66  96 127 158 196 245 298
#     4   8  13  22  39  65  95 123 148 176 216 269
#
# _framework density 17.823640999999999
#
# number of rings (size 3 to 8) (size 9 to 14) (size 15 to 20)
#    0.000    2.857    0.000    2.571    0.000    4.286 
#    0.000    0.000    0.000    1.714    0.000    1.000 
#    0.000    0.000    0.000    0.000    0.000    0.000 
#
# Total GULP energy -1040983.400044 kJ/mol
# GULP energy per Si atom -12392.659524 kJ/mol
# Density = 1.778307 g / cm^3
# Si number density = 17.823641 Si / 1000 Ang^3
#
#
#
# Elastic Constant Matrix: (Units=GPa)
#
#
# Indices 1 2 3 4 5 6 
#
# 1 65.8059 27.9227 26.0487 0.0000 0.0003 0.0000
# 2 27.9227 65.8059 26.0487 0.0000 -0.0003 0.0000
# 3 26.0487 26.0487 65.9213 0.0000 0.0000 0.0000
# 4 0.0000 0.0000 0.0000 19.5723 0.0000 -0.0003
# 5 0.0003 -0.0003 0.0000 0.0000 19.5723 0.0000
# 6 0.0000 0.0000 0.0000 -0.0003 0.0000 18.9416
#
#
#
# Elastic Compliance Matrix: (Units=1/GPa)
#
#
# Indices 1 2 3 4 5 6 
#
# 1 0.020034 -0.006362 -0.005402 0.000000 0.000000 0.000000
# 2 -0.006362 0.020034 -0.005402 0.000000 0.000000 0.000000
# 3 -0.005402 -0.005402 0.019439 0.000000 0.000000 0.000000
# 4 0.000000 0.000000 0.000000 0.051093 0.000000 0.000001
# 5 0.000000 0.000000 0.000000 0.000000 0.051093 0.000000
# 6 0.000000 0.000000 0.000000 0.000001 0.000000 0.052794
#
#
# Mechanical properties :
#
#
# Convention : Reuss Voigt Hill
#
# Bulk Modulus (GPa) = 39.72472 39.73038 39.72755
# Shear Modulus (GPa) = 19.43916 19.45145 19.44531
#
# Velocity S-wave (km/s) = 3.30607 3.30711 3.30659
# Velocity P-wave (km/s) = 6.07532 6.07634 6.07583
#
# Compressibility (1/GPa) = 0.02517324
#
# Stress axis : x y z
#
# Youngs Moduli (GPa) = 49.91409 49.91409 51.44259
#
# Poissons Ratio (x) = 0.31758 0.27792
# Poissons Ratio (y) = 0.31758 0.27792
# Poissons Ratio (z) = 0.26966 0.26966
#
# Static dielectric constant tensor:
#      x y z
#    x 3.411150 0.000000 0.000000 
#    y 0.000000 3.411150 0.000000 
#    z 0.000000 0.000000 3.069070 
# 
# 
# High freq. dielectric constant tensor:
#      x y z
#    x 1.681280 0.000000 0.000000 
#    y 0.000000 1.681280 0.000000 
#    z 0.000000 0.000000 1.669440 
# 
# From -- ./inp_files/2627.got.cif
#   From: 2010.03.12/outbox.cif.g09.slc.cpg/sg187_2_cif.got.tgz:2627.got - 2010.04.01 11:58:23.
