data_PCOD8327875
_publ_section_title
;
Structure prediction by ZEFSAII (Michael W. Deem and Ramdas Pophale) SiO2 
 PCOD8327875
Probable space group: P -6 2 M
;
_chemical_formula_sum "Si O2"
_cell_formula_units_Z 54
_cell_length_a 17.301411
_cell_length_b 17.301411
_cell_length_c 10.259514
_cell_angle_alpha 90.000000
_cell_angle_beta 90.000000
_cell_angle_gamma 120.000000
_cell_volume 2659.625365
_symmetry_space_group_name_H-M "P -6 2 M"
_symmetry_group_IT_number 189
_symmetry_cell_setting 'hexagonal'
loop_
_space_group_symop_operation_xyz
x,y,z
-x+y,-x,-z
-y,x-y,z
x,y,-z
-x+y,-x,z
-y,x-y,-z
x-y,-y,-z
-x,-x+y,-z
y,x,-z
y,x,z
x-y,-y,z
-x,-x+y,z
loop_
_atom_site_type_symbol
_atom_site_label
_atom_site_fract_x
_atom_site_fract_y
_atom_site_fract_z
Si Si1 0.233610 0.667594 0.500000
Si Si2 0.794303 0.153740 0.848864
Si Si3 0.203564 0.102600 0.352388
Si Si4 0.101577 0.616896 0.272508
Si Si5 0.644130 0.545550 0.152729
O O1 0.333755 0.754819 0.500000
O O2 0.175900 0.669921 0.380373
O O3 0.834612 0.110017 0.753404
O O4 0.687905 0.104637 0.831675
O O5 0.834536 0.255681 0.804201
O O6 0.816511 0.144856 0.000000
O O7 0.244033 0.122210 0.500000
O O8 0.122121 0.122121 0.346569
O O9 0.166661 0.000000 0.314688
O O10 0.131708 0.552428 0.206917
O O11 0.000000 0.560514 0.327786
O O12 0.615657 0.615657 0.206241
O O13 0.634170 0.537881 0.000000
#
# Coordination Sequence:
#
# PCOD8327875 Si02
#       5
#     6  12  12  12  12
#     4  10  23  40  60  82 116 156 201 258 306 356
#     4  11  23  39  63  94 126 163 208 259 313 371
#     4  10  22  41  65  92 125 167 212 258 310 374
#     4  11  22  38  60  87 121 160 202 250 310 372
#     4   9  19  37  59  83 117 161 206 252 302 362
#
# _framework density 20.303609999999999
#
# number of rings (size 3 to 8) (size 9 to 14) (size 15 to 20)
#    0.222    1.556    0.000    3.889    1.556    4.889 
#    3.333    0.000    0.000    1.333    0.000    0.000 
#    0.000    0.000    0.000    0.000    0.000    0.000 
#
# Total GULP energy -669429.499448 kJ/mol
# GULP energy per Si atom -12396.842582 kJ/mol
# Density = 2.025740 g / cm^3
# Si number density = 20.303610 Si / 1000 Ang^3
#
#
#
# Elastic Constant Matrix: (Units=GPa)
#
#
# Indices 1 2 3 4 5 6 
#
# 1 90.9032 23.7665 41.0153 0.0000 0.0000 0.0000
# 2 23.7665 90.9032 41.0153 0.0000 0.0000 0.0000
# 3 41.0153 41.0153 69.3474 0.0000 0.0000 0.0000
# 4 0.0000 0.0000 0.0000 25.2638 0.0000 0.0000
# 5 0.0000 0.0000 0.0000 0.0000 25.2638 0.0000
# 6 0.0000 0.0000 0.0000 0.0000 0.0000 33.5684
#
#
#
# Elastic Compliance Matrix: (Units=1/GPa)
#
#
# Indices 1 2 3 4 5 6 
#
# 1 0.015006 0.000111 -0.008941 0.000000 0.000000 0.000000
# 2 0.000111 0.015006 -0.008941 0.000000 0.000000 0.000000
# 3 -0.008941 -0.008941 0.024996 0.000000 0.000000 0.000000
# 4 0.000000 0.000000 0.000000 0.039582 0.000000 0.000000
# 5 0.000000 0.000000 0.000000 0.000000 0.039582 0.000000
# 6 0.000000 0.000000 0.000000 0.000000 0.000000 0.029790
#
#
# Mechanical properties :
#
#
# Convention : Reuss Voigt Hill
#
# Bulk Modulus (GPa) = 51.37029 51.41645 51.39337
# Shear Modulus (GPa) = 24.27284 26.50966 25.39125
#
# Velocity S-wave (km/s) = 3.46134 3.61731 3.54019
# Velocity P-wave (km/s) = 6.42888 6.54411 6.48675
#
# Compressibility (1/GPa) = 0.01946651
#
# Stress axis : x y z
#
# Youngs Moduli (GPa) = 66.64127 66.64127 40.00659
#
# Poissons Ratio (x) = -0.00738 0.35768
# Poissons Ratio (y) = -0.00738 0.35768
# Poissons Ratio (z) = 0.59581 0.59581
#
# Static dielectric constant tensor:
#      x y z
#    x 3.741650 0.000000 0.000000 
#    y 0.000000 3.741650 0.000000 
#    z 0.000000 0.000000 3.571390 
# 
# 
# High freq. dielectric constant tensor:
#      x y z
#    x 1.797060 0.000000 0.000000 
#    y 0.000000 1.797060 0.000000 
#    z 0.000000 0.000000 1.785900 
# 
# From -- ./inp_files/1825.got.cif
#   From: 2010.03.12/outbox.cif.g09.slc.cpg/sg189_1_cif.got.tgz:1825.got - 2010.04.01 12:03:36.
