data_PCOD8327473
_publ_section_title
;
Structure prediction by ZEFSAII (Michael W. Deem and Ramdas Pophale) SiO2 
 PCOD8327473
Probable space group: P -6 C 2
;
_chemical_formula_sum "Si O2"
_cell_formula_units_Z 40
_cell_length_a 10.998365
_cell_length_b 10.998365
_cell_length_c 15.986950
_cell_angle_alpha 90.000000
_cell_angle_beta 90.000000
_cell_angle_gamma 120.000000
_cell_volume 1674.759713
_symmetry_space_group_name_H-M "P -6 C 2"
_symmetry_group_IT_number 188
_symmetry_cell_setting 'hexagonal'
loop_
_space_group_symop_operation_xyz
x,y,z
-x+y,-x,1/2-z
-y,x-y,z
x,y,1/2-z
-x+y,-x,z
-y,x-y,1/2-z
-y,-x,-z
-x+y,y,-z
x,x-y,-z
-x+y,y,1/2+z
x,x-y,1/2+z
-y,-x,1/2+z
loop_
_atom_site_type_symbol
_atom_site_label
_atom_site_fract_x
_atom_site_fract_y
_atom_site_fract_z
Si Si1 0.121575 0.382948 0.656882
Si Si2 0.541665 0.947041 0.590541
Si Si3 0.666668 0.333334 0.349370
Si Si4 0.375772 0.203323 0.095458
O O1 0.168068 0.366683 0.750000
O O2 0.090256 0.510808 0.657433
O O3 0.243076 0.421956 0.587946
O O4 0.976671 0.237572 0.634475
O O5 0.486688 0.973375 0.500000
O O6 0.686205 0.072145 0.630848
O O7 0.666667 0.333334 0.250000
O O8 0.806588 0.468945 0.386640
O O9 0.336762 0.168381 0.000000
#
# Coordination Sequence:
#
# PCOD8327473 Si02
#       4
#    12  12   4  12
#     4  12  27  45  72 111 153 195 250 322 394 458
#     4  12  25  48  77 104 148 200 257 311 379 467
#     4  12  22  38  67 102 142 182 235 315 385 440
#     4  12  24  44  72 105 139 189 253 312 374 458
#
# _framework density 23.884024
#
# number of rings (size 3 to 8) (size 9 to 14) (size 15 to 20)
#    0.000    0.000    6.000    4.200    0.000    3.600 
#    1.800    0.000    0.000    0.000    0.000    0.000 
#    0.000    0.000    0.000    0.000    0.000    0.000 
#
# Total GULP energy -495560.798130 kJ/mol
# GULP energy per Si atom -12389.019953 kJ/mol
# Density = 2.382966 g / cm^3
# Si number density = 23.884024 Si / 1000 Ang^3
#
#
#
# Elastic Constant Matrix: (Units=GPa)
#
#
# Indices 1 2 3 4 5 6 
#
# 1 122.6869 47.5477 16.3755 0.0000 -0.0001 -0.0001
# 2 47.5477 122.6875 16.3752 0.0000 0.0000 0.0003
# 3 16.3755 16.3752 108.7420 0.0001 -0.0001 -0.0001
# 4 0.0000 0.0000 0.0001 27.6924 0.0000 -0.0001
# 5 -0.0001 0.0000 -0.0001 0.0000 27.6923 0.0000
# 6 -0.0001 0.0003 -0.0001 -0.0001 0.0000 37.5701
#
#
#
# Elastic Compliance Matrix: (Units=1/GPa)
#
#
# Indices 1 2 3 4 5 6 
#
# 1 0.009679 -0.003630 -0.000911 0.000000 0.000000 0.000000
# 2 -0.003630 0.009679 -0.000911 0.000000 0.000000 0.000000
# 3 -0.000911 -0.000911 0.009470 0.000000 0.000000 0.000000
# 4 0.000000 0.000000 0.000000 0.036111 0.000000 0.000000
# 5 0.000000 0.000000 0.000000 0.000000 0.036111 0.000000
# 6 0.000000 0.000000 0.000000 0.000000 0.000000 0.026617
#
#
# Mechanical properties :
#
#
# Convention : Reuss Voigt Hill
#
# Bulk Modulus (GPa) = 55.78648 57.19036 56.48842
# Shear Modulus (GPa) = 34.59113 36.84549 35.71831
#
# Velocity S-wave (km/s) = 3.80978 3.93196 3.87135
# Velocity P-wave (km/s) = 6.53915 6.67913 6.60951
#
# Compressibility (1/GPa) = 0.01792549
#
# Stress axis : x y z
#
# Youngs Moduli (GPa) = 103.31576 103.31640 105.59163
#
# Poissons Ratio (x) = 0.37499 0.09620
# Poissons Ratio (y) = 0.37499 0.09619
# Poissons Ratio (z) = 0.09412 0.09412
#
# Static dielectric constant tensor:
#      x y z
#    x 4.862730 -0.000010 0.000000 
#    y -0.000010 4.862720 0.000000 
#    z 0.000000 0.000000 3.892190 
# 
# 
# High freq. dielectric constant tensor:
#      x y z
#    x 1.948870 0.000000 0.000000 
#    y 0.000000 1.948870 0.000000 
#    z 0.000000 0.000000 1.934050 
# 
# From -- ./inp_files/2846.got.cif
#   From: 2010.03.12/outbox.cif.g09.slc.cpg/sg188_2_cif.got.tgz:2846.got - 2010.04.01 12:01:06.
