data_PCOD8327628
_publ_section_title
;
Structure prediction by ZEFSAII (Michael W. Deem and Ramdas Pophale) SiO2 
 PCOD8327628
Probable space group: P -6 2 M
;
_chemical_formula_sum "Si O2"
_cell_formula_units_Z 54
_cell_length_a 14.581225
_cell_length_b 14.581225
_cell_length_c 16.721481
_cell_angle_alpha 90.000000
_cell_angle_beta 90.000000
_cell_angle_gamma 120.000000
_cell_volume 3078.884480
_symmetry_space_group_name_H-M "P -6 2 M"
_symmetry_group_IT_number 189
_symmetry_cell_setting 'hexagonal'
loop_
_space_group_symop_operation_xyz
x,y,z
-x+y,-x,-z
-y,x-y,z
x,y,-z
-x+y,-x,z
-y,x-y,-z
x-y,-y,-z
-x,-x+y,-z
y,x,-z
y,x,z
x-y,-y,z
-x,-x+y,z
loop_
_atom_site_type_symbol
_atom_site_label
_atom_site_fract_x
_atom_site_fract_y
_atom_site_fract_z
Si Si1 0.533130 0.291196 0.500000
Si Si2 0.125475 0.365625 0.219658
Si Si3 0.288312 0.410503 0.346106
Si Si4 0.125862 0.722497 0.090575
Si Si5 0.567897 0.120721 0.790242
O O1 0.629521 0.414161 0.500000
O O2 0.458187 0.264939 0.576023
O O3 0.179833 0.343404 0.295770
O O4 0.165229 0.339148 0.136952
O O5 0.171475 0.493036 0.218071
O O6 0.000000 0.292865 0.227813
O O7 0.332500 0.332500 0.369895
O O8 0.373411 0.507680 0.293299
O O9 0.166236 0.650675 0.135967
O O10 0.000000 0.668263 0.094386
O O11 0.168002 0.741841 0.000000
O O12 0.489078 0.000000 0.811163
#
# Coordination Sequence:
#
# PCOD8327628 Si02
#       5
#     6  12  12  12  12
#     4  10  21  32  52  84 109 130 166 208 244 292
#     4  10  19  32  52  76  99 131 177 218 250 297
#     4  10  19  35  54  74 106 142 168 201 256 309
#     4   9  18  33  50  70 101 137 169 209 266 319
#     4   8  16  30  48  68  95 132 169 205 249 301
#
# _framework density 17.538819
#
# number of rings (size 3 to 8) (size 9 to 14) (size 15 to 20)
#    0.222    2.444    0.000    3.667    0.000    1.333 
#   10.667    3.889    0.000    3.556    0.000    0.000 
#    0.000    0.000    0.000    0.000    0.000    0.000 
#
# Total GULP energy -669218.239814 kJ/mol
# GULP energy per Si atom -12392.930367 kJ/mol
# Density = 1.749890 g / cm^3
# Si number density = 17.538819 Si / 1000 Ang^3
#
#
#
# Elastic Constant Matrix: (Units=GPa)
#
#
# Indices 1 2 3 4 5 6 
#
# 1 56.5564 14.7591 24.0996 0.0000 0.0000 0.0000
# 2 14.7591 56.5564 24.0996 0.0000 0.0000 0.0000
# 3 24.0996 24.0996 120.6650 0.0000 0.0000 0.0000
# 4 0.0000 0.0000 0.0000 21.1077 0.0000 0.0000
# 5 0.0000 0.0000 0.0000 0.0000 21.1077 0.0000
# 6 0.0000 0.0000 0.0000 0.0000 0.0000 20.8987
#
#
#
# Elastic Compliance Matrix: (Units=1/GPa)
#
#
# Indices 1 2 3 4 5 6 
#
# 1 0.020068 -0.003857 -0.003238 0.000000 0.000000 0.000000
# 2 -0.003857 0.020068 -0.003238 0.000000 0.000000 0.000000
# 3 -0.003238 -0.003238 0.009581 0.000000 0.000000 0.000000
# 4 0.000000 0.000000 0.000000 0.047376 0.000000 0.000000
# 5 0.000000 0.000000 0.000000 0.000000 0.047376 0.000000
# 6 0.000000 0.000000 0.000000 0.000000 0.000000 0.047850
#
#
# Mechanical properties :
#
#
# Convention : Reuss Voigt Hill
#
# Bulk Modulus (GPa) = 34.42221 39.96606 37.19414
# Shear Modulus (GPa) = 22.45512 24.01081 23.23296
#
# Velocity S-wave (km/s) = 3.58202 3.70403 3.64354
# Velocity P-wave (km/s) = 6.06438 6.41325 6.24125
#
# Compressibility (1/GPa) = 0.02905101
#
# Stress axis : x y z
#
# Youngs Moduli (GPa) = 49.83146 49.83146 104.37709
#
# Poissons Ratio (x) = 0.19221 0.33793
# Poissons Ratio (y) = 0.19221 0.33793
# Poissons Ratio (z) = 0.16133 0.16133
#
# Static dielectric constant tensor:
#      x y z
#    x 3.178620 0.000000 0.000000 
#    y 0.000000 3.178620 0.000000 
#    z 0.000000 0.000000 3.289950 
# 
# 
# High freq. dielectric constant tensor:
#      x y z
#    x 1.661960 0.000000 0.000000 
#    y 0.000000 1.661960 0.000000 
#    z 0.000000 0.000000 1.681070 
# 
# From -- ./inp_files/2996.got.cif
#   From: 2010.03.12/outbox.cif.g09.slc.cpg/sg189_2_cif.got.tgz:2996.got - 2010.04.01 12:03:36.
