data_PCOD8327491
_publ_section_title
;
Structure prediction by ZEFSAII (Michael W. Deem and Ramdas Pophale) SiO2 
 PCOD8327491
Probable space group: P -6 2 M
;
_chemical_formula_sum "Si O2"
_cell_formula_units_Z 96
_cell_length_a 20.766060
_cell_length_b 20.766060
_cell_length_c 20.603803
_cell_angle_alpha 90.000000
_cell_angle_beta 90.000000
_cell_angle_gamma 120.000000
_cell_volume 7694.603212
_symmetry_space_group_name_H-M "P -6 2 M"
_symmetry_group_IT_number 189
_symmetry_cell_setting 'hexagonal'
loop_
_space_group_symop_operation_xyz
x,y,z
-x+y,-x,-z
-y,x-y,z
x,y,-z
-x+y,-x,z
-y,x-y,-z
x-y,-y,-z
-x,-x+y,-z
y,x,-z
y,x,z
x-y,-y,z
-x,-x+y,z
loop_
_atom_site_type_symbol
_atom_site_label
_atom_site_fract_x
_atom_site_fract_y
_atom_site_fract_z
Si Si1 0.818694 0.486043 0.809827
Si Si2 0.534905 0.618028 0.927886
Si Si3 0.534897 0.617680 0.310221
Si Si4 0.917217 0.534898 0.310221
Si Si5 0.333446 0.517202 0.573515
Si Si6 0.816244 0.333446 0.573515
Si Si7 0.534905 0.916877 0.927886
Si Si8 0.513957 0.181306 0.809827
O O1 0.867433 0.535124 0.749251
O O2 0.858754 0.532035 0.875023
O O3 0.810303 0.405152 0.809802
O O4 0.737580 0.475160 0.805046
O O5 0.602382 0.602382 0.912387
O O6 0.459280 0.540720 0.924553
O O7 0.532035 0.673281 0.875023
O O8 0.545139 0.653072 0.000000
O O9 0.606292 0.606292 0.305647
O O10 0.461395 0.538605 0.306668
O O11 0.538686 0.657637 0.378352
O O12 0.535124 0.667690 0.250749
O O13 0.881049 0.538687 0.378352
O O14 0.000000 0.606292 0.305647
O O15 0.334592 0.491177 0.500000
O O16 0.398612 0.601388 0.584861
O O17 0.257471 0.514943 0.590025
O O18 0.843415 0.334592 0.500000
O O19 0.602382 0.000000 0.912387
O O20 0.545139 0.892067 0.000000
#
# Coordination Sequence:
#
# PCOD8327491 Si02
#       8
#    12  12  12  12  12  12  12  12
#     4  10  18  26  36  50  68  87 107 135 173 213
#     4   8  14  25  39  51  63  83 110 135 160 196
#     4   9  17  27  37  48  62  83 111 139 165 196
#     4   9  17  27  37  48  62  83 111 139 165 196
#     4   9  16  25  37  52  69  87 106 131 167 210
#     4   9  16  25  37  52  69  87 106 131 167 210
#     4   8  14  25  39  51  63  83 110 135 160 196
#     4  10  18  26  36  50  68  87 107 135 173 213
#
# _framework density 12.476277
#
# number of rings (size 3 to 8) (size 9 to 14) (size 15 to 20)
#    0.000    3.000    0.000    2.750    0.000    5.000 
#    0.000    5.000    0.000    1.500    0.000    0.000 
#    0.000    0.000    0.000    0.000    0.000    0.000 
#
# Total GULP energy -1189940.861350 kJ/mol
# GULP energy per Si atom -12395.217306 kJ/mol
# Density = 1.244788 g / cm^3
# Si number density = 12.476277 Si / 1000 Ang^3
#
#
#
# Elastic Constant Matrix: (Units=GPa)
#
#
# Indices 1 2 3 4 5 6 
#
# 1 47.6098 26.8288 40.4470 0.0000 0.0000 0.0000
# 2 26.8288 47.6098 40.4470 0.0000 0.0000 0.0000
# 3 40.4470 40.4470 107.6355 0.0000 0.0000 0.0000
# 4 0.0000 0.0000 0.0000 18.1505 0.0000 0.0000
# 5 0.0000 0.0000 0.0000 0.0000 18.1505 0.0000
# 6 0.0000 0.0000 0.0000 0.0000 0.0000 10.3905
#
#
#
# Elastic Compliance Matrix: (Units=1/GPa)
#
#
# Indices 1 2 3 4 5 6 
#
# 1 0.035414 -0.012707 -0.008533 0.000000 0.000000 0.000000
# 2 -0.012707 0.035414 -0.008533 0.000000 0.000000 0.000000
# 3 -0.008533 -0.008533 0.015703 0.000000 0.000000 0.000000
# 4 0.000000 0.000000 0.000000 0.055095 0.000000 0.000000
# 5 0.000000 0.000000 0.000000 0.000000 0.055095 0.000000
# 6 0.000000 0.000000 0.000000 0.000000 0.000000 0.096242
#
#
# Mechanical properties :
#
#
# Convention : Reuss Voigt Hill
#
# Bulk Modulus (GPa) = 37.05639 46.47786 41.76713
# Shear Modulus (GPa) = 13.83116 15.68043 14.75579
#
# Velocity S-wave (km/s) = 3.33317 3.54901 3.44278
# Velocity P-wave (km/s) = 6.67678 7.35716 7.02521
#
# Compressibility (1/GPa) = 0.02698590
#
# Stress axis : x y z
#
# Youngs Moduli (GPa) = 28.23768 28.23768 63.68073
#
# Poissons Ratio (x) = 0.35882 0.54336
# Poissons Ratio (y) = 0.35882 0.54336
# Poissons Ratio (z) = 0.24094 0.24094
#
# Static dielectric constant tensor:
#      x y z
#    x 2.349900 0.000000 0.000000 
#    y 0.000000 2.349900 0.000000 
#    z 0.000000 0.000000 2.874540 
# 
# 
# High freq. dielectric constant tensor:
#      x y z
#    x 1.434800 0.000000 0.000000 
#    y 0.000000 1.434800 0.000000 
#    z 0.000000 0.000000 1.497140 
# 
# From -- ./inp_files/3658.got.cif
#   From: 2010.03.12/outbox.cif.g09.slc.cpg/sg189_2_cif.got.tgz:3658.got - 2010.04.01 12:03:36.
