data_PCOD8327022
_publ_section_title
;
Structure prediction by ZEFSAII (Michael W. Deem and Ramdas Pophale) SiO2 
 PCOD8327022
Probable space group: P -6 M 2
;
_chemical_formula_sum "Si O2"
_cell_formula_units_Z 66
_cell_length_a 13.040354
_cell_length_b 13.040354
_cell_length_c 28.023867
_cell_angle_alpha 90.000000
_cell_angle_beta 90.000000
_cell_angle_gamma 120.000000
_cell_volume 4127.028397
_symmetry_space_group_name_H-M "P -6 M 2"
_symmetry_group_IT_number 187
_symmetry_cell_setting 'hexagonal'
loop_
_space_group_symop_operation_xyz
x,y,z
-x+y,-x,-z
-y,x-y,z
x,y,-z
-x+y,-x,z
-y,x-y,-z
-y,-x,-z
-x+y,y,-z
x,x-y,-z
-x+y,y,z
x,x-y,z
-y,-x,z
loop_
_atom_site_type_symbol
_atom_site_label
_atom_site_fract_x
_atom_site_fract_y
_atom_site_fract_z
Si Si1 0.425840 0.334793 0.684326
Si Si2 0.095829 0.429660 0.763533
Si Si3 0.428957 0.333753 0.946238
Si Si4 0.570228 0.903330 0.127604
Si Si5 0.094383 0.668976 0.396407
Si Si6 0.331718 0.895746 0.500000
O O1 0.418420 0.209210 0.683964
O O2 0.562699 0.437302 0.684164
O O3 0.359097 0.343533 0.731108
O O4 0.357787 0.344360 0.638252
O O5 0.208639 0.417277 0.749728
O O6 0.131949 0.565975 0.754934
O O7 0.056262 0.391067 0.817989
O O8 0.429430 0.214715 0.936814
O O9 0.560806 0.439195 0.936732
O O10 0.338826 0.337210 0.908308
O O11 0.387357 0.339719 0.000000
O O12 0.439425 0.878849 0.117533
O O13 0.569694 0.784847 0.115386
O O14 0.121539 0.560770 0.396261
O O15 0.213205 0.786795 0.379291
O O16 0.055470 0.689350 0.449744
O O17 0.246535 0.753466 0.500000
O O18 0.466317 0.932634 0.500000
#
# Coordination Sequence:
#
# PCOD8327022 Si02
#       6
#    12  12  12  12  12   6
#     4  10  20  32  45  62  88 121 153 183 215 254
#     4   9  17  30  49  71  92 113 139 176 222 269
#     4   9  17  29  45  65  89 118 152 188 222 253
#     4   9  17  29  46  69  95 119 141 170 215 270
#     4   9  16  27  46  71  95 116 140 176 222 268
#     4   8  13  22  39  66  96 118 136 166 216 270
#
# _framework density 15.992136
#
# number of rings (size 3 to 8) (size 9 to 14) (size 15 to 20)
#    0.000    2.909    0.000    1.545    0.000    4.727 
#    0.000    2.273    0.000    6.545    0.000    1.273 
#    0.000    0.000    0.000    0.000    0.000    0.000 
#
# Total GULP energy -818003.214260 kJ/mol
# GULP energy per Si atom -12393.988095 kJ/mol
# Density = 1.595574 g / cm^3
# Si number density = 15.992136 Si / 1000 Ang^3
#
#
#
# Elastic Constant Matrix: (Units=GPa)
#
#
# Indices 1 2 3 4 5 6 
#
# 1 91.8357 47.1588 65.0310 0.0000 0.0000 0.0000
# 2 47.1588 91.8357 65.0310 0.0000 0.0000 0.0000
# 3 65.0310 65.0310 126.7550 0.0000 0.0000 0.0000
# 4 0.0000 0.0000 0.0000 22.9989 0.0000 0.0000
# 5 0.0000 0.0000 0.0000 0.0000 22.9989 0.0000
# 6 0.0000 0.0000 0.0000 0.0000 0.0000 22.3384
#
#
#
# Elastic Compliance Matrix: (Units=1/GPa)
#
#
# Indices 1 2 3 4 5 6 
#
# 1 0.018110 -0.004273 -0.007099 0.000000 0.000000 0.000000
# 2 -0.004273 0.018110 -0.007099 0.000000 0.000000 0.000000
# 3 -0.007099 -0.007099 0.015174 0.000000 0.000000 0.000000
# 4 0.000000 0.000000 0.000000 0.043480 0.000000 0.000000
# 5 0.000000 0.000000 0.000000 0.000000 0.043480 0.000000
# 6 0.000000 0.000000 0.000000 0.000000 0.000000 0.044766
#
#
# Mechanical properties :
#
#
# Convention : Reuss Voigt Hill
#
# Bulk Modulus (GPa) = 69.19587 73.87421 71.53504
# Shear Modulus (GPa) = 22.23401 22.54762 22.39082
#
# Velocity S-wave (km/s) = 3.73273 3.75896 3.74587
# Velocity P-wave (km/s) = 7.87022 8.07057 7.97102
#
# Compressibility (1/GPa) = 0.01445173
#
# Stress axis : x y z
#
# Youngs Moduli (GPa) = 55.21726 55.21726 65.90326
#
# Poissons Ratio (x) = 0.23593 0.46787
# Poissons Ratio (y) = 0.23593 0.46787
# Poissons Ratio (z) = 0.39200 0.39200
#
# Static dielectric constant tensor:
#      x y z
#    x 2.809960 0.000000 0.000000 
#    y 0.000000 2.809960 0.000000 
#    z 0.000000 0.000000 3.461090 
# 
# 
# High freq. dielectric constant tensor:
#      x y z
#    x 1.589680 0.000000 0.000000 
#    y 0.000000 1.589680 0.000000 
#    z 0.000000 0.000000 1.636070 
# 
# From -- ./inp_files/4474.got.cif
#   From: 2010.03.12/outbox.cif.g09.slc.cpg/sg187_3_cif.got.tgz:4474.got - 2010.04.01 11:58:23.
