data_PCOD8327348
_publ_section_title
;
Structure prediction by ZEFSAII (Michael W. Deem and Ramdas Pophale) SiO2 
 PCOD8327348
Probable space group: P -6 C 2
;
_chemical_formula_sum "Si O2"
_cell_formula_units_Z 72
_cell_length_a 23.901817
_cell_length_b 23.901817
_cell_length_c 8.985103
_cell_angle_alpha 90.000000
_cell_angle_beta 90.000000
_cell_angle_gamma 120.000000
_cell_volume 4445.447909
_symmetry_space_group_name_H-M "P -6 C 2"
_symmetry_group_IT_number 188
_symmetry_cell_setting 'hexagonal'
loop_
_space_group_symop_operation_xyz
x,y,z
-x+y,-x,1/2-z
-y,x-y,z
x,y,1/2-z
-x+y,-x,z
-y,x-y,1/2-z
-y,-x,-z
-x+y,y,-z
x,x-y,-z
-x+y,y,1/2+z
x,x-y,1/2+z
-y,-x,1/2+z
loop_
_atom_site_type_symbol
_atom_site_label
_atom_site_fract_x
_atom_site_fract_y
_atom_site_fract_z
Si Si1 0.224219 0.339926 0.582782
Si Si2 0.479987 0.408045 0.077867
Si Si3 0.997598 0.667714 0.074376
Si Si4 0.145687 0.959110 0.413073
Si Si5 0.551121 0.332247 0.073328
Si Si6 0.806107 0.078012 0.928505
O O1 0.242744 0.368507 0.750000
O O2 0.184857 0.369713 0.500000
O O3 0.288592 0.358241 0.489591
O O4 0.179417 0.263407 0.591720
O O5 0.493213 0.421944 0.250000
O O6 0.405821 0.382087 0.037397
O O7 0.500760 0.355897 0.029247
O O8 0.523251 0.476750 0.000000
O O9 0.996982 0.680451 0.250000
O O10 0.946504 0.681825 0.992189
O O11 0.126249 0.969658 0.250000
O O12 0.077961 0.922040 0.500000
O O13 0.197815 0.028630 0.480836
O O14 0.558607 0.329000 0.250000
O O15 0.620285 0.379716 0.000000
O O16 0.523702 0.261851 0.000000
O O17 0.804135 0.081485 0.750000
O O18 0.852666 0.147335 0.000000
#
# Coordination Sequence:
#
# PCOD8327348 Si02
#       6
#    12  12  12  12  12  12
#     4   9  16  27  44  68  93 118 145 175 211 253
#     4   9  20  35  50  67  89 119 156 192 232 282
#     4  10  19  32  48  68  93 121 152 189 230 277
#     4   8  15  26  41  60  81 105 137 171 209 257
#     4  10  19  32  47  64  83 107 142 189 243 296
#     4  10  20  32  45  65  90 118 151 190 236 285
#
# _framework density 16.196342000000001
#
# number of rings (size 3 to 8) (size 9 to 14) (size 15 to 20)
#    0.000    2.667    0.000    3.167    0.000    7.333 
#    0.000    1.667    0.000    0.333    0.000    0.000 
#    0.000    0.000    0.000    0.500    0.000    8.000 
#
# Total GULP energy -892549.135432 kJ/mol
# GULP energy per Si atom -12396.515770 kJ/mol
# Density = 1.615948 g / cm^3
# Si number density = 16.196342 Si / 1000 Ang^3
#
#
#
# Elastic Constant Matrix: (Units=GPa)
#
#
# Indices 1 2 3 4 5 6 
#
# 1 80.5844 49.6916 45.1753 0.0001 0.0000 0.0000
# 2 49.6916 80.5844 45.1753 -0.0001 0.0000 0.0000
# 3 45.1753 45.1753 93.1102 0.0000 0.0000 0.0000
# 4 0.0001 -0.0001 0.0000 23.5450 0.0000 0.0000
# 5 0.0000 0.0000 0.0000 0.0000 23.5450 0.0001
# 6 0.0000 0.0000 0.0000 0.0000 0.0001 15.4464
#
#
#
# Elastic Compliance Matrix: (Units=1/GPa)
#
#
# Indices 1 2 3 4 5 6 
#
# 1 0.021969 -0.010401 -0.005613 0.000000 0.000000 0.000000
# 2 -0.010401 0.021969 -0.005613 0.000000 0.000000 0.000000
# 3 -0.005613 -0.005613 0.016187 0.000000 0.000000 0.000000
# 4 0.000000 0.000000 0.000000 0.042472 0.000000 0.000000
# 5 0.000000 0.000000 0.000000 0.000000 0.042472 0.000000
# 6 0.000000 0.000000 0.000000 0.000000 0.000000 0.064740
#
#
# Mechanical properties :
#
#
# Convention : Reuss Voigt Hill
#
# Bulk Modulus (GPa) = 59.26871 59.37369 59.32120
# Shear Modulus (GPa) = 19.32843 20.12306 19.72575
#
# Velocity S-wave (km/s) = 3.45828 3.52866 3.49365
# Velocity P-wave (km/s) = 7.25394 7.30344 7.27873
#
# Compressibility (1/GPa) = 0.01687231
#
# Stress axis : x y z
#
# Youngs Moduli (GPa) = 45.51784 45.51784 61.77969
#
# Poissons Ratio (x) = 0.47341 0.34677
# Poissons Ratio (y) = 0.47341 0.34677
# Poissons Ratio (z) = 0.25549 0.25549
#
# Static dielectric constant tensor:
#      x y z
#    x 2.921860 0.000000 0.000000 
#    y 0.000000 2.921860 0.000000 
#    z 0.000000 0.000000 3.244790 
# 
# 
# High freq. dielectric constant tensor:
#      x y z
#    x 1.594300 0.000000 0.000000 
#    y 0.000000 1.594300 0.000000 
#    z 0.000000 0.000000 1.638030 
# 
# From -- ./inp_files/987.got.cif
#   From: 2010.03.12/outbox.cif.g09.slc.cpg/sg188_1_cif.got.tgz:987.got - 2010.04.01 12:01:06.
