data_PCOD8327159
_publ_section_title
;
Structure prediction by ZEFSAII (Michael W. Deem and Ramdas Pophale) SiO2 
 PCOD8327159
Probable space group: P -6 M 2
;
_chemical_formula_sum "Si O2"
_cell_formula_units_Z 54
_cell_length_a 12.827338
_cell_length_b 12.827338
_cell_length_c 22.900381
_cell_angle_alpha 90.000000
_cell_angle_beta 90.000000
_cell_angle_gamma 120.000000
_cell_volume 3263.220470
_symmetry_space_group_name_H-M "P -6 M 2"
_symmetry_group_IT_number 187
_symmetry_cell_setting 'hexagonal'
loop_
_space_group_symop_operation_xyz
x,y,z
-x+y,-x,-z
-y,x-y,z
x,y,-z
-x+y,-x,z
-y,x-y,-z
-y,-x,-z
-x+y,y,-z
x,x-y,-z
-x+y,y,z
x,x-y,z
-y,-x,z
loop_
_atom_site_type_symbol
_atom_site_label
_atom_site_fract_x
_atom_site_fract_y
_atom_site_fract_z
Si Si1 0.756038 0.754277 0.106510
Si Si2 0.911392 0.580162 0.000000
Si Si3 0.907466 0.333496 0.339584
Si Si4 0.334286 0.909287 0.565009
Si Si5 0.908165 0.333731 0.792719
O O1 0.896267 0.792533 0.103006
O O2 0.680718 0.659864 0.056112
O O3 0.697096 0.689254 0.167533
O O4 0.745212 0.872606 0.099880
O O5 0.771168 0.542336 0.000000
O O6 0.920942 0.460471 0.000000
O O7 0.880651 0.440326 0.351869
O O8 0.787213 0.212788 0.352012
O O9 0.953674 0.339975 0.273466
O O10 0.002628 0.335914 0.385672
O O11 0.344893 0.964094 0.500000
O O12 0.441227 0.882454 0.576910
O O13 0.213628 0.786373 0.572110
O O14 0.919274 0.459637 0.811979
O O15 0.768448 0.231553 0.799344
#
# Coordination Sequence:
#
# PCOD8327159 Si02
#       5
#    12   6  12  12  12
#     4  10  20  33  50  71  96 126 158 192 228 268
#     4  10  20  34  54  78 100 122 152 194 238 276
#     4   9  17  29  46  69  95 121 149 184 230 281
#     4   9  17  29  45  64  86 115 152 192 230 268
#     4   9  17  30  49  71  94 121 153 191 233 275
#
# _framework density 16.548069000000002
#
# number of rings (size 3 to 8) (size 9 to 14) (size 15 to 20)
#    0.000    2.667    0.000    2.000    0.000    4.000 
#    0.000    3.333    0.000    8.000    0.000    0.000 
#    0.000    0.000    0.000    0.000    0.000    0.000 
#
# Total GULP energy -669527.191331 kJ/mol
# GULP energy per Si atom -12398.651691 kJ/mol
# Density = 1.651041 g / cm^3
# Si number density = 16.548069 Si / 1000 Ang^3
#
#
#
# Elastic Constant Matrix: (Units=GPa)
#
#
# Indices 1 2 3 4 5 6 
#
# 1 92.6641 52.3826 60.5749 0.0000 -0.0005 0.0000
# 2 52.3826 92.6641 60.5749 0.0000 0.0005 0.0000
# 3 60.5749 60.5749 122.2788 0.0000 0.0000 0.0000
# 4 0.0000 0.0000 0.0000 25.7459 0.0000 0.0005
# 5 -0.0005 0.0005 0.0000 0.0000 25.7459 0.0000
# 6 0.0000 0.0000 0.0000 0.0005 0.0000 20.1407
#
#
#
# Elastic Compliance Matrix: (Units=1/GPa)
#
#
# Indices 1 2 3 4 5 6 
#
# 1 0.018293 -0.006532 -0.005826 0.000000 0.000000 0.000000
# 2 -0.006532 0.018293 -0.005826 0.000000 0.000000 0.000000
# 3 -0.005826 -0.005826 0.013950 0.000000 0.000000 0.000000
# 4 0.000000 0.000000 0.000000 0.038841 0.000000 -0.000001
# 5 0.000000 0.000000 0.000000 0.000000 0.038841 0.000000
# 6 0.000000 0.000000 0.000000 -0.000001 0.000000 0.049651
#
#
# Mechanical properties :
#
#
# Convention : Reuss Voigt Hill
#
# Bulk Modulus (GPa) = 70.58498 72.74130 71.66314
# Shear Modulus (GPa) = 22.83526 23.26483 23.05004
#
# Velocity S-wave (km/s) = 3.71878 3.75359 3.73623
# Velocity P-wave (km/s) = 7.82216 7.92710 7.87481
#
# Compressibility (1/GPa) = 0.01416732
#
# Stress axis : x y z
#
# Youngs Moduli (GPa) = 54.66613 54.66613 71.68388
#
# Poissons Ratio (x) = 0.35710 0.41762
# Poissons Ratio (y) = 0.35710 0.41762
# Poissons Ratio (z) = 0.31848 0.31848
#
# Static dielectric constant tensor:
#      x y z
#    x 2.971520 0.000000 0.000000 
#    y 0.000000 2.971520 0.000000 
#    z 0.000000 0.000000 3.460550 
# 
# 
# High freq. dielectric constant tensor:
#      x y z
#    x 1.623230 0.000000 0.000000 
#    y 0.000000 1.623230 0.000000 
#    z 0.000000 0.000000 1.655470 
# 
# From -- ./inp_files/3858.got.cif
#   From: 2010.03.12/outbox.cif.g09.slc.cpg/sg187_2_cif.got.tgz:3858.got - 2010.04.01 11:58:23.
