data_PCOD8327741
_publ_section_title
;
Structure prediction by ZEFSAII (Michael W. Deem and Ramdas Pophale) SiO2 
 PCOD8327741
Probable space group: P -6 2 M
;
_chemical_formula_sum "Si O2"
_cell_formula_units_Z 60
_cell_length_a 22.914387
_cell_length_b 22.914387
_cell_length_c 7.570362
_cell_angle_alpha 90.000000
_cell_angle_beta 90.000000
_cell_angle_gamma 120.000000
_cell_volume 3442.419284
_symmetry_space_group_name_H-M "P -6 2 M"
_symmetry_group_IT_number 189
_symmetry_cell_setting 'hexagonal'
loop_
_space_group_symop_operation_xyz
x,y,z
-x+y,-x,-z
-y,x-y,z
x,y,-z
-x+y,-x,z
-y,x-y,-z
x-y,-y,-z
-x,-x+y,-z
y,x,-z
y,x,z
x-y,-y,z
-x,-x+y,z
loop_
_atom_site_type_symbol
_atom_site_label
_atom_site_fract_x
_atom_site_fract_y
_atom_site_fract_z
Si Si1 0.075436 0.925597 0.707985
Si Si2 0.172493 0.579188 0.500000
Si Si3 0.426011 0.504106 0.797921
Si Si4 0.724670 0.925541 0.795021
Si Si5 0.487254 0.751801 0.500000
Si Si6 0.424840 0.270339 0.796211
O O1 0.072471 0.930800 0.500000
O O2 0.107198 0.878969 0.759860
O O3 0.000000 0.893164 0.788177
O O4 0.121873 0.000000 0.789761
O O5 0.124839 0.557859 0.327306
O O6 0.213323 0.540198 0.500000
O O7 0.228789 0.657727 0.500000
O O8 0.471931 0.471931 0.743931
O O9 0.348438 0.446703 0.773338
O O10 0.440142 0.530040 0.000000
O O11 0.650620 0.877701 0.717796
O O12 0.759713 0.000000 0.705795
O O13 0.715595 0.933033 0.000000
O O14 0.530227 0.780369 0.321660
O O15 0.431046 0.253177 0.000000
#
# Coordination Sequence:
#
# PCOD8327741 Si02
#       6
#    12   6  12  12   6  12
#     4   9  17  28  42  61  87 121 160 200 240 283
#     4  10  20  34  50  75 104 134 168 202 234 285
#     4   9  17  31  53  78 102 128 159 201 252 297
#     4   9  17  29  46  69  96 122 151 195 247 293
#     4  10  21  34  52  73 102 136 166 194 236 279
#     4   9  18  32  50  75 104 130 158 195 243 298
#
# _framework density 17.429601999999999
#
# number of rings (size 3 to 8) (size 9 to 14) (size 15 to 20)
#    0.000    2.800    0.000    1.300    1.400    4.400 
#    0.000    1.000    0.000    6.000    0.000    0.000 
#    0.000    0.000    0.000    0.000    0.000    0.000 
#
# Total GULP energy -743803.055727 kJ/mol
# GULP energy per Si atom -12396.717595 kJ/mol
# Density = 1.738993 g / cm^3
# Si number density = 17.429602 Si / 1000 Ang^3
#
#
#
# Elastic Constant Matrix: (Units=GPa)
#
#
# Indices 1 2 3 4 5 6 
#
# 1 129.0124 76.1941 46.7833 0.0000 0.0000 0.0000
# 2 76.1941 129.0124 46.7833 0.0000 0.0000 0.0000
# 3 46.7833 46.7833 76.6136 0.0000 0.0000 0.0000
# 4 0.0000 0.0000 0.0000 20.1803 0.0000 0.0000
# 5 0.0000 0.0000 0.0000 0.0000 20.1803 0.0000
# 6 0.0000 0.0000 0.0000 0.0000 0.0000 26.4091
#
#
#
# Elastic Compliance Matrix: (Units=1/GPa)
#
#
# Indices 1 2 3 4 5 6 
#
# 1 0.012843 -0.006090 -0.004124 0.000000 0.000000 0.000000
# 2 -0.006090 0.012843 -0.004124 0.000000 0.000000 0.000000
# 3 -0.004124 -0.004124 0.018089 0.000000 0.000000 0.000000
# 4 0.000000 0.000000 0.000000 0.049553 0.000000 0.000000
# 5 0.000000 0.000000 0.000000 0.000000 0.049553 0.000000
# 6 0.000000 0.000000 0.000000 0.000000 0.000000 0.037866
#
#
# Mechanical properties :
#
#
# Convention : Reuss Voigt Hill
#
# Bulk Modulus (GPa) = 66.22430 74.90666 70.56548
# Shear Modulus (GPa) = 23.31478 24.34578 23.83028
#
# Velocity S-wave (km/s) = 3.66136 3.74144 3.70162
# Velocity P-wave (km/s) = 7.48010 7.85713 7.67093
#
# Compressibility (1/GPa) = 0.01510020
#
# Stress axis : x y z
#
# Youngs Moduli (GPa) = 77.86232 77.86232 55.28209
#
# Poissons Ratio (x) = 0.47416 0.22798
# Poissons Ratio (y) = 0.47416 0.22798
# Poissons Ratio (z) = 0.32110 0.32110
#
# Static dielectric constant tensor:
#      x y z
#    x 3.151410 0.000000 0.000000 
#    y 0.000000 3.151410 0.000000 
#    z 0.000000 0.000000 3.337340 
# 
# 
# High freq. dielectric constant tensor:
#      x y z
#    x 1.655220 0.000000 0.000000 
#    y 0.000000 1.655220 0.000000 
#    z 0.000000 0.000000 1.680170 
# 
# From -- ./inp_files/909.got.cif
#   From: 2010.03.12/outbox.cif.g09.slc.cpg/sg189_1_cif.got.tgz:909.got - 2010.04.01 12:03:36.
