data_PCOD8327244
_publ_section_title
;
Structure prediction by ZEFSAII (Michael W. Deem and Ramdas Pophale) SiO2 
 PCOD8327244
Probable space group: P -6 M 2
;
_chemical_formula_sum "Si O2"
_cell_formula_units_Z 66
_cell_length_a 22.110779
_cell_length_b 22.110779
_cell_length_c 7.751117
_cell_angle_alpha 90.000000
_cell_angle_beta 90.000000
_cell_angle_gamma 120.000000
_cell_volume 3281.731243
_symmetry_space_group_name_H-M "P -6 M 2"
_symmetry_group_IT_number 187
_symmetry_cell_setting 'hexagonal'
loop_
_space_group_symop_operation_xyz
x,y,z
-x+y,-x,-z
-y,x-y,z
x,y,-z
-x+y,-x,z
-y,x-y,-z
-y,-x,-z
-x+y,y,-z
x,x-y,-z
-x+y,y,z
x,x-y,z
-y,-x,z
loop_
_atom_site_type_symbol
_atom_site_label
_atom_site_fract_x
_atom_site_fract_y
_atom_site_fract_z
Si Si1 0.425753 0.096666 0.802622
Si Si2 0.128052 0.387469 0.695594
Si Si3 0.808700 0.476959 0.500000
Si Si4 0.411142 0.956595 0.703294
Si Si5 0.000263 0.864953 0.297993
Si Si6 0.992704 0.729884 0.804952
O O1 0.478255 0.156109 0.672509
O O2 0.345467 0.070967 0.743699
O O3 0.437246 0.030382 0.795172
O O4 0.440061 0.125789 0.000000
O O5 0.149252 0.410059 0.500000
O O6 0.196618 0.393235 0.790511
O O7 0.102192 0.438039 0.778398
O O8 0.063508 0.308458 0.697841
O O9 0.727607 0.455213 0.500000
O O10 0.815241 0.407621 0.500000
O O11 0.406098 0.968213 0.500000
O O12 0.465075 0.930149 0.744611
O O13 0.005081 0.855491 0.500000
O O14 0.944593 0.889185 0.254842
O O15 0.972906 0.790076 0.209439
O O16 0.075374 0.924627 0.225689
O O17 0.009749 0.720242 0.000000
#
# Coordination Sequence:
#
# PCOD8327244 Si02
#       6
#    12  12   6  12  12  12
#     4  10  22  40  63  92 122 149 184 236 293 342
#     4   9  17  29  47  72 105 143 182 225 278 338
#     4  12  27  46  68  92 121 156 192 226 268 330
#     4   9  16  29  52  80 109 145 190 237 285 339
#     4  10  21  36  54  75 104 146 194 239 283 336
#     4  10  21  35  54  82 111 139 179 233 290 342
#
# _framework density 20.111336999999999
#
# number of rings (size 3 to 8) (size 9 to 14) (size 15 to 20)
#    0.000    2.182    0.909    1.909    2.545    6.545 
#    0.000    1.818    0.000    2.545    0.000    2.545 
#    0.000    0.000    0.000    9.091    0.000    9.455 
#
# Total GULP energy -818036.829029 kJ/mol
# GULP energy per Si atom -12394.497410 kJ/mol
# Density = 2.006556 g / cm^3
# Si number density = 20.111337 Si / 1000 Ang^3
#
#
#
# Elastic Constant Matrix: (Units=GPa)
#
#
# Indices 1 2 3 4 5 6 
#
# 1 114.4181 57.4089 29.9122 0.0000 0.0001 0.0000
# 2 57.4089 114.4181 29.9122 0.0000 -0.0001 0.0000
# 3 29.9122 29.9122 62.5015 0.0000 0.0000 0.0000
# 4 0.0000 0.0000 0.0000 9.7079 0.0000 -0.0001
# 5 0.0001 -0.0001 0.0000 0.0000 9.7079 0.0000
# 6 0.0000 0.0000 0.0000 -0.0001 0.0000 28.5046
#
#
#
# Elastic Compliance Matrix: (Units=1/GPa)
#
#
# Indices 1 2 3 4 5 6 
#
# 1 0.012262 -0.005279 -0.003342 0.000000 0.000000 0.000000
# 2 -0.005279 0.012262 -0.003342 0.000000 0.000000 0.000000
# 3 -0.003342 -0.003342 0.019199 0.000000 0.000000 0.000000
# 4 0.000000 0.000000 0.000000 0.103009 0.000000 0.000000
# 5 0.000000 0.000000 0.000000 0.000000 0.103009 0.000000
# 6 0.000000 0.000000 0.000000 0.000000 0.000000 0.035082
#
#
# Mechanical properties :
#
#
# Convention : Reuss Voigt Hill
#
# Bulk Modulus (GPa) = 50.51307 58.42270 54.46788
# Shear Modulus (GPa) = 15.85547 21.19104 18.52325
#
# Velocity S-wave (km/s) = 2.81086 3.24957 3.03815
# Velocity P-wave (km/s) = 5.97544 6.57209 6.28085
#
# Compressibility (1/GPa) = 0.01979686
#
# Stress axis : x y z
#
# Youngs Moduli (GPa) = 81.55126 81.55126 52.08710
#
# Poissons Ratio (x) = 0.43049 0.17408
# Poissons Ratio (y) = 0.43049 0.17408
# Poissons Ratio (z) = 0.27256 0.27256
#
# Static dielectric constant tensor:
#      x y z
#    x 3.693490 0.000000 0.000000 
#    y 0.000000 3.693490 0.000000 
#    z 0.000000 0.000000 3.554050 
# 
# 
# High freq. dielectric constant tensor:
#      x y z
#    x 1.774560 0.000000 0.000000 
#    y 0.000000 1.774560 0.000000 
#    z 0.000000 0.000000 1.776020 
# 
# From -- ./inp_files/780.got.cif
#   From: 2010.03.12/outbox.cif.g09.slc.cpg/sg187_1_cif.got.tgz:780.got - 2010.04.01 11:58:23.
