data_PCOD8327080
_publ_section_title
;
Structure prediction by ZEFSAII (Michael W. Deem and Ramdas Pophale) SiO2 
 PCOD8327080
Probable space group: P -6 M 2
;
_chemical_formula_sum "Si O2"
_cell_formula_units_Z 72
_cell_length_a 22.648723
_cell_length_b 22.648723
_cell_length_c 9.243828
_cell_angle_alpha 90.000000
_cell_angle_beta 90.000000
_cell_angle_gamma 120.000000
_cell_volume 4106.482044
_symmetry_space_group_name_H-M "P -6 M 2"
_symmetry_group_IT_number 187
_symmetry_cell_setting 'hexagonal'
loop_
_space_group_symop_operation_xyz
x,y,z
-x+y,-x,-z
-y,x-y,z
x,y,-z
-x+y,-x,z
-y,x-y,-z
-y,-x,-z
-x+y,y,-z
x,x-y,-z
-x+y,y,z
x,x-y,z
-y,-x,z
loop_
_atom_site_type_symbol
_atom_site_label
_atom_site_fract_x
_atom_site_fract_y
_atom_site_fract_z
Si Si1 0.534797 0.201150 0.328007
Si Si2 0.197186 0.666802 0.167997
Si Si3 0.794555 0.074525 0.832490
Si Si4 0.714046 0.922888 0.166157
Si Si5 0.675340 0.601945 0.669230
Si Si6 0.325491 0.406836 0.329568
O O1 0.538138 0.204649 0.500000
O O2 0.604801 0.209603 0.264550
O O3 0.524435 0.262218 0.266888
O O4 0.473744 0.127629 0.277496
O O5 0.214174 0.607087 0.197935
O O6 0.262198 0.737802 0.217906
O O7 0.130772 0.651051 0.259331
O O8 0.181263 0.669926 0.000000
O O9 0.873109 0.126892 0.790010
O O10 0.745990 0.093628 0.745250
O O11 0.776517 0.997667 0.794241
O O12 0.781550 0.081005 0.000000
O O13 0.740993 0.870497 0.194828
O O14 0.648872 0.901721 0.266085
O O15 0.690825 0.919850 0.000000
O O16 0.690433 0.610793 0.500000
O O17 0.615548 0.618541 0.708785
O O18 0.317963 0.412038 0.500000
#
# Coordination Sequence:
#
# PCOD8327080 Si02
#       6
#    12  12  12  12  12  12
#     4   9  16  26  42  64  89 117 150 187 223 260
#     4  10  21  37  55  72  92 122 159 194 228 273
#     4   9  17  29  46  68  93 120 152 191 231 271
#     4   9  17  30  48  68  92 124 158 190 229 280
#     4   9  18  31  47  68  94 123 152 185 229 279
#     4  10  20  32  48  72  98 122 151 191 238 282
#
# _framework density 17.533256000000002
#
# number of rings (size 3 to 8) (size 9 to 14) (size 15 to 20)
#    0.000    2.667    0.000    1.833    0.000    6.667 
#    0.000    1.667    0.000    1.833    0.000    2.333 
#    0.000    1.333    0.000    8.333    0.000    8.667 
#
# Total GULP energy -892693.677655 kJ/mol
# GULP energy per Si atom -12398.523301 kJ/mol
# Density = 1.749335 g / cm^3
# Si number density = 17.533256 Si / 1000 Ang^3
#
#
#
# Elastic Constant Matrix: (Units=GPa)
#
#
# Indices 1 2 3 4 5 6 
#
# 1 123.9712 71.5510 34.9382 0.0000 0.0000 0.0000
# 2 71.5510 123.9712 34.9382 0.0000 0.0000 0.0000
# 3 34.9382 34.9382 41.3145 0.0000 0.0000 0.0000
# 4 0.0000 0.0000 0.0000 20.4112 0.0000 0.0000
# 5 0.0000 0.0000 0.0000 0.0000 20.4112 0.0000
# 6 0.0000 0.0000 0.0000 0.0000 0.0000 26.2101
#
#
#
# Elastic Compliance Matrix: (Units=1/GPa)
#
#
# Indices 1 2 3 4 5 6 
#
# 1 0.013203 -0.005873 -0.006199 0.000000 0.000000 0.000000
# 2 -0.005873 0.013203 -0.006199 0.000000 0.000000 0.000000
# 3 -0.006199 -0.006199 0.034688 0.000000 0.000000 0.000000
# 4 0.000000 0.000000 0.000000 0.048993 0.000000 0.000000
# 5 0.000000 0.000000 0.000000 0.000000 0.048993 0.000000
# 6 0.000000 0.000000 0.000000 0.000000 0.000000 0.038153
#
#
# Mechanical properties :
#
#
# Convention : Reuss Voigt Hill
#
# Bulk Modulus (GPa) = 40.72695 63.56794 52.14745
# Shear Modulus (GPa) = 20.66468 23.26180 21.96324
#
# Velocity S-wave (km/s) = 3.43680 3.64637 3.54314
# Velocity P-wave (km/s) = 6.24721 7.35271 6.82239
#
# Compressibility (1/GPa) = 0.02455376
#
# Stress axis : x y z
#
# Youngs Moduli (GPa) = 75.73928 75.73928 28.82817
#
# Poissons Ratio (x) = 0.44485 0.17869
# Poissons Ratio (y) = 0.44485 0.17869
# Poissons Ratio (z) = 0.46947 0.46947
#
# Static dielectric constant tensor:
#      x y z
#    x 3.374970 0.000000 0.000000 
#    y 0.000000 3.374970 0.000000 
#    z 0.000000 0.000000 3.114890 
# 
# 
# High freq. dielectric constant tensor:
#      x y z
#    x 1.677530 0.000000 0.000000 
#    y 0.000000 1.677530 0.000000 
#    z 0.000000 0.000000 1.657690 
# 
# From -- ./inp_files/1008.got.cif
#   From: 2010.03.12/outbox.cif.g09.slc.cpg/sg187_1_cif.got.tgz:1008.got - 2010.04.01 11:58:23.
