data_PCOD8327873
_publ_section_title
;
Structure prediction by ZEFSAII (Michael W. Deem and Ramdas Pophale) SiO2 
 PCOD8327873
Probable space group: P -6 2 M
;
_chemical_formula_sum "Si O2"
_cell_formula_units_Z 56
_cell_length_a 15.680540
_cell_length_b 15.680540
_cell_length_c 13.050761
_cell_angle_alpha 90.000000
_cell_angle_beta 90.000000
_cell_angle_gamma 120.000000
_cell_volume 2778.999685
_symmetry_space_group_name_H-M "P -6 2 M"
_symmetry_group_IT_number 189
_symmetry_cell_setting 'hexagonal'
loop_
_space_group_symop_operation_xyz
x,y,z
-x+y,-x,-z
-y,x-y,z
x,y,-z
-x+y,-x,z
-y,x-y,-z
x-y,-y,-z
-x,-x+y,-z
y,x,-z
y,x,z
x-y,-y,z
-x,-x+y,z
loop_
_atom_site_type_symbol
_atom_site_label
_atom_site_fract_x
_atom_site_fract_y
_atom_site_fract_z
Si Si1 0.718970 0.112717 0.886266
Si Si2 0.191749 0.191749 0.622016
Si Si3 0.502733 0.882539 0.687828
Si Si4 0.813087 0.704275 0.746597
Si Si5 0.000000 0.000000 0.379507
Si Si6 0.533256 0.709039 0.382242
O O1 0.647004 0.127030 0.808714
O O2 0.833674 0.175888 0.852255
O O3 0.692328 0.000000 0.888332
O O4 0.708557 0.147722 0.000000
O O5 0.205451 0.205451 0.500000
O O6 0.278577 0.182865 0.674208
O O7 0.095036 0.095036 0.660100
O O8 0.530583 0.810852 0.625837
O O9 0.386744 0.830422 0.668606
O O10 0.566471 0.000000 0.653885
O O11 0.797514 0.797514 0.768318
O O12 0.720062 0.626307 0.680915
O O13 0.000000 0.000000 0.500000
O O14 0.541610 0.686333 0.500000
#
# Coordination Sequence:
#
# PCOD8327873 Si02
#       6
#    12   6  12  12   2  12
#     4   9  19  39  64  85 111 153 203 261 323 371
#     4  11  20  32  49  77 120 169 217 253 293 349
#     4  10  22  41  62  89 124 162 206 262 322 387
#     4  11  22  35  54  86 123 162 206 254 301 361
#     4   9  18  30  48  69 106 173 220 249 288 339
#     4  11  23  37  59  88 121 160 203 250 309 379
#
# _framework density 20.151136000000001
#
# number of rings (size 3 to 8) (size 9 to 14) (size 15 to 20)
#    0.000    1.714    2.143    2.357    1.500    4.286 
#    0.000    4.286    0.000    5.143    0.000    0.000 
#    0.000    0.000    0.000    0.000    0.000    0.000 
#
# Total GULP energy -693751.302905 kJ/mol
# GULP energy per Si atom -12388.416123 kJ/mol
# Density = 2.010527 g / cm^3
# Si number density = 20.151136 Si / 1000 Ang^3
#
#
#
# Elastic Constant Matrix: (Units=GPa)
#
#
# Indices 1 2 3 4 5 6 
#
# 1 80.9430 18.1612 24.1182 0.0000 0.0000 0.0000
# 2 18.1612 80.9430 24.1182 0.0000 0.0000 0.0000
# 3 24.1182 24.1182 137.0112 0.0000 0.0000 0.0000
# 4 0.0000 0.0000 0.0000 22.2065 0.0000 0.0000
# 5 0.0000 0.0000 0.0000 0.0000 22.2065 0.0000
# 6 0.0000 0.0000 0.0000 0.0000 0.0000 31.3909
#
#
#
# Elastic Compliance Matrix: (Units=1/GPa)
#
#
# Indices 1 2 3 4 5 6 
#
# 1 0.013482 -0.002446 -0.001943 0.000000 0.000000 0.000000
# 2 -0.002446 0.013482 -0.001943 0.000000 0.000000 0.000000
# 3 -0.001943 -0.001943 0.007983 0.000000 0.000000 0.000000
# 4 0.000000 0.000000 0.000000 0.045032 0.000000 0.000000
# 5 0.000000 0.000000 0.000000 0.000000 0.045032 0.000000
# 6 0.000000 0.000000 0.000000 0.000000 0.000000 0.031856
#
#
# Mechanical properties :
#
#
# Convention : Reuss Voigt Hill
#
# Bulk Modulus (GPa) = 44.87561 47.96582 46.42071
# Shear Modulus (GPa) = 28.25533 30.66074 29.45803
#
# Velocity S-wave (km/s) = 3.74862 3.90492 3.82757
# Velocity P-wave (km/s) = 6.40734 6.64725 6.52840
#
# Compressibility (1/GPa) = 0.02228382
#
# Stress axis : x y z
#
# Youngs Moduli (GPa) = 74.17264 74.17264 125.27223
#
# Poissons Ratio (x) = 0.18144 0.24336
# Poissons Ratio (y) = 0.18144 0.24336
# Poissons Ratio (z) = 0.14409 0.14409
#
# Static dielectric constant tensor:
#      x y z
#    x 3.667850 0.000000 0.000000 
#    y 0.000000 3.667850 0.000000 
#    z 0.000000 0.000000 3.616290 
# 
# 
# High freq. dielectric constant tensor:
#      x y z
#    x 1.789010 0.000000 0.000000 
#    y 0.000000 1.789010 0.000000 
#    z 0.000000 0.000000 1.770390 
# 
# From -- ./inp_files/2546.got.cif
#   From: 2010.03.12/outbox.cif.g09.slc.cpg/sg189_2_cif.got.tgz:2546.got - 2010.04.01 12:03:36.
