data_PCOD8327054
_publ_section_title
;
Structure prediction by ZEFSAII (Michael W. Deem and Ramdas Pophale) SiO2 
 PCOD8327054
Probable space group: P -6 M 2
;
_chemical_formula_sum "Si O2"
_cell_formula_units_Z 60
_cell_length_a 13.067313
_cell_length_b 13.067313
_cell_length_c 25.086544
_cell_angle_alpha 90.000000
_cell_angle_beta 90.000000
_cell_angle_gamma 120.000000
_cell_volume 3709.744973
_symmetry_space_group_name_H-M "P -6 M 2"
_symmetry_group_IT_number 187
_symmetry_cell_setting 'hexagonal'
loop_
_space_group_symop_operation_xyz
x,y,z
-x+y,-x,-z
-y,x-y,z
x,y,-z
-x+y,-x,z
-y,x-y,-z
-y,-x,-z
-x+y,y,-z
x,x-y,-z
-x+y,y,z
x,x-y,z
-y,-x,z
loop_
_atom_site_type_symbol
_atom_site_label
_atom_site_fract_x
_atom_site_fract_y
_atom_site_fract_z
Si Si1 0.333740 0.903548 0.736304
Si Si2 0.429499 0.333694 0.060149
Si Si3 0.097909 0.666650 0.561343
Si Si4 0.569821 0.667006 0.142078
Si Si5 0.908273 0.334844 0.351742
O O1 0.433771 0.867541 0.727113
O O2 0.208947 0.791054 0.720555
O O3 0.333887 0.942667 0.797128
O O4 0.359081 0.014610 0.699989
O O5 0.429479 0.214740 0.071162
O O6 0.561173 0.438828 0.070751
O O7 0.339356 0.337892 0.102149
O O8 0.388325 0.339161 0.000000
O O9 0.064282 0.668688 0.500000
O O10 0.133594 0.566797 0.571595
O O11 0.208826 0.791175 0.578752
O O12 0.983920 0.639547 0.595923
O O13 0.569413 0.784707 0.128057
O O14 0.439192 0.560809 0.131067
O O15 0.872964 0.436482 0.351446
O O16 0.790988 0.209013 0.351593
#
# Coordination Sequence:
#
# PCOD8327054 Si02
#       5
#    12  12  12  12  12
#     4   9  17  30  49  71  92 115 145 184 229 273
#     4   9  17  29  45  65  89 118 152 188 223 259
#     4   9  17  30  50  75  98 118 144 184 232 274
#     4   9  17  29  46  69  95 119 143 176 223 277
#     4  10  20  32  46  66  94 126 156 185 219 262
#
# _framework density 16.17362
#
# number of rings (size 3 to 8) (size 9 to 14) (size 15 to 20)
#    0.000    2.800    0.000    1.600    0.000    4.800 
#    0.000    2.000    0.000    8.400    0.000    0.000 
#    0.000    0.000    0.000    0.000    0.000    0.000 
#
# Total GULP energy -743988.346091 kJ/mol
# GULP energy per Si atom -12399.805768 kJ/mol
# Density = 1.613681 g / cm^3
# Si number density = 16.173620 Si / 1000 Ang^3
#
#
#
# Elastic Constant Matrix: (Units=GPa)
#
#
# Indices 1 2 3 4 5 6 
#
# 1 106.8689 57.9222 66.8674 0.0000 0.0000 0.0000
# 2 57.9222 106.8689 66.8674 0.0000 0.0000 0.0000
# 3 66.8674 66.8674 111.1649 0.0000 0.0000 0.0000
# 4 0.0000 0.0000 0.0000 26.7476 0.0000 0.0000
# 5 0.0000 0.0000 0.0000 0.0000 26.7476 0.0000
# 6 0.0000 0.0000 0.0000 0.0000 0.0000 24.4734
#
#
#
# Elastic Compliance Matrix: (Units=1/GPa)
#
#
# Indices 1 2 3 4 5 6 
#
# 1 0.016143 -0.004287 -0.007131 0.000000 0.000000 0.000000
# 2 -0.004287 0.016143 -0.007131 0.000000 0.000000 0.000000
# 3 -0.007131 -0.007131 0.017575 0.000000 0.000000 0.000000
# 4 0.000000 0.000000 0.000000 0.037387 0.000000 0.000000
# 5 0.000000 0.000000 0.000000 0.000000 0.037387 0.000000
# 6 0.000000 0.000000 0.000000 0.000000 0.000000 0.040861
#
#
# Mechanical properties :
#
#
# Convention : Reuss Voigt Hill
#
# Bulk Modulus (GPa) = 78.36510 78.69073 78.52792
# Shear Modulus (GPa) = 24.17228 24.47678 24.32453
#
# Velocity S-wave (km/s) = 3.87014 3.89443 3.88230
# Velocity P-wave (km/s) = 8.27818 8.30551 8.29186
#
# Compressibility (1/GPa) = 0.01276078
#
# Stress axis : x y z
#
# Youngs Moduli (GPa) = 61.94626 61.94626 56.89928
#
# Poissons Ratio (x) = 0.26558 0.40577
# Poissons Ratio (y) = 0.26558 0.40577
# Poissons Ratio (z) = 0.44176 0.44176
#
# Static dielectric constant tensor:
#      x y z
#    x 2.904130 0.000000 0.000000 
#    y 0.000000 2.904130 0.000000 
#    z 0.000000 0.000000 3.346600 
# 
# 
# High freq. dielectric constant tensor:
#      x y z
#    x 1.605580 0.000000 0.000000 
#    y 0.000000 1.605580 0.000000 
#    z 0.000000 0.000000 1.637850 
# 
# From -- ./inp_files/3502.got.cif
#   From: 2010.03.12/outbox.cif.g09.slc.cpg/sg187_2_cif.got.tgz:3502.got - 2010.04.01 11:58:23.
