data_PCOD8327166
_publ_section_title
;
Structure prediction by ZEFSAII (Michael W. Deem and Ramdas Pophale) SiO2 
 PCOD8327166
Probable space group: P -6 M 2
;
_chemical_formula_sum "Si O2"
_cell_formula_units_Z 66
_cell_length_a 12.796398
_cell_length_b 12.796398
_cell_length_c 28.621312
_cell_angle_alpha 90.000000
_cell_angle_beta 90.000000
_cell_angle_gamma 120.000000
_cell_volume 4058.781275
_symmetry_space_group_name_H-M "P -6 M 2"
_symmetry_group_IT_number 187
_symmetry_cell_setting 'hexagonal'
loop_
_space_group_symop_operation_xyz
x,y,z
-x+y,-x,-z
-y,x-y,z
x,y,-z
-x+y,-x,z
-y,x-y,-z
-y,-x,-z
-x+y,y,-z
x,x-y,-z
-x+y,y,z
x,x-y,z
-y,-x,z
loop_
_atom_site_type_symbol
_atom_site_label
_atom_site_fract_x
_atom_site_fract_y
_atom_site_fract_z
Si Si1 0.333096 0.424581 0.833504
Si Si2 0.997869 0.240110 0.549423
Si Si3 0.333975 0.425172 0.727520
Si Si4 0.755955 0.753697 0.650198
Si Si5 0.088357 0.668726 0.000000
Si Si6 0.753946 0.998384 0.085476
O O1 0.231277 0.462553 0.840148
O O2 0.460273 0.539728 0.847589
O O3 0.334954 0.382931 0.780513
O O4 0.304245 0.310693 0.865691
O O5 0.978340 0.295182 0.500000
O O6 0.128232 0.256464 0.546955
O O7 0.987286 0.296950 0.598924
O O8 0.901455 0.098545 0.551470
O O9 0.222175 0.444350 0.718584
O O10 0.450001 0.550000 0.716277
O O11 0.332282 0.328968 0.691165
O O12 0.886466 0.772932 0.659998
O O13 0.767209 0.883605 0.652118
O O14 0.020686 0.680498 0.044989
O O15 0.228863 0.771138 0.000000
O O16 0.078563 0.539282 0.000000
O O17 0.872594 0.127407 0.079900
O O18 0.792036 0.896018 0.083038
#
# Coordination Sequence:
#
# PCOD8327166 Si02
#       6
#    12  12  12  12   6  12
#     4   9  17  30  49  70  89 111 144 189 233 265
#     4   8  12  18  30  50  77 107 136 166 203 251
#     4   9  17  29  45  64  85 112 147 184 220 257
#     4   9  16  25  39  61  87 112 137 169 214 265
#     4  10  20  34  54  78 100 122 152 194 236 264
#     4  10  20  33  50  72  99 129 156 181 214 263
#
# _framework density 16.261037999999999
#
# number of rings (size 3 to 8) (size 9 to 14) (size 15 to 20)
#    0.000    2.909    0.000    1.818    0.000    4.364 
#    0.000    2.727    0.000    8.182    0.000    0.000 
#    0.000    1.455    0.000    0.000    0.000    0.000 
#
# Total GULP energy -817633.010439 kJ/mol
# GULP energy per Si atom -12388.378946 kJ/mol
# Density = 1.622403 g / cm^3
# Si number density = 16.261038 Si / 1000 Ang^3
#
#
#
# Elastic Constant Matrix: (Units=GPa)
#
#
# Indices 1 2 3 4 5 6 
#
# 1 72.9871 32.9603 53.6107 0.0000 0.0002 0.0000
# 2 32.9603 72.9871 53.6107 0.0000 -0.0002 0.0000
# 3 53.6107 53.6107 138.5812 0.0000 0.0000 0.0000
# 4 0.0000 0.0000 0.0000 19.8688 0.0000 -0.0002
# 5 0.0002 -0.0002 0.0000 0.0000 19.8688 0.0000
# 6 0.0000 0.0000 0.0000 -0.0002 0.0000 20.0134
#
#
#
# Elastic Compliance Matrix: (Units=1/GPa)
#
#
# Indices 1 2 3 4 5 6 
#
# 1 0.020247 -0.004736 -0.006001 0.000000 0.000000 0.000000
# 2 -0.004736 0.020247 -0.006001 0.000000 0.000000 0.000000
# 3 -0.006001 -0.006001 0.011859 0.000000 0.000000 0.000000
# 4 0.000000 0.000000 0.000000 0.050330 0.000000 0.000000
# 5 0.000000 0.000000 0.000000 0.000000 0.050330 0.000000
# 6 0.000000 0.000000 0.000000 0.000000 0.000000 0.049966
#
#
# Mechanical properties :
#
#
# Convention : Reuss Voigt Hill
#
# Bulk Modulus (GPa) = 52.96890 62.76875 57.86883
# Shear Modulus (GPa) = 20.59754 21.57514 21.08634
#
# Velocity S-wave (km/s) = 3.56291 3.64648 3.60493
# Velocity P-wave (km/s) = 7.04064 7.51090 7.27957
#
# Compressibility (1/GPa) = 0.01887900
#
# Stress axis : x y z
#
# Youngs Moduli (GPa) = 49.38920 49.38920 84.32595
#
# Poissons Ratio (x) = 0.23390 0.50601
# Poissons Ratio (y) = 0.23390 0.50601
# Poissons Ratio (z) = 0.29637 0.29637
#
# Static dielectric constant tensor:
#      x y z
#    x 2.807840 0.000000 0.000000 
#    y 0.000000 2.807840 0.000000 
#    z 0.000000 0.000000 3.773210 
# 
# 
# High freq. dielectric constant tensor:
#      x y z
#    x 1.593670 0.000000 0.000000 
#    y 0.000000 1.593670 0.000000 
#    z 0.000000 0.000000 1.656220 
# 
# From -- ./inp_files/4475.got.cif
#   From: 2010.03.12/outbox.cif.g09.slc.cpg/sg187_3_cif.got.tgz:4475.got - 2010.04.01 11:58:23.
