data_PCOD8327435
_publ_section_title
;
Structure prediction by ZEFSAII (Michael W. Deem and Ramdas Pophale) SiO2 
 PCOD8327435
Probable space group: P -6 C 2
;
_chemical_formula_sum "Si O2"
_cell_formula_units_Z 84
_cell_length_a 15.724162
_cell_length_b 15.724162
_cell_length_c 17.228427
_cell_angle_alpha 90.000000
_cell_angle_beta 90.000000
_cell_angle_gamma 120.000000
_cell_volume 3689.022277
_symmetry_space_group_name_H-M "P -6 C 2"
_symmetry_group_IT_number 188
_symmetry_cell_setting 'hexagonal'
loop_
_space_group_symop_operation_xyz
x,y,z
-x+y,-x,1/2-z
-y,x-y,z
x,y,1/2-z
-x+y,-x,z
-y,x-y,1/2-z
-y,-x,-z
-x+y,y,-z
x,x-y,-z
-x+y,y,1/2+z
x,x-y,1/2+z
-y,-x,1/2+z
loop_
_atom_site_type_symbol
_atom_site_label
_atom_site_fract_x
_atom_site_fract_y
_atom_site_fract_z
Si Si1 0.117146 0.850173 0.659992
Si Si2 0.871235 0.476898 0.159171
Si Si3 0.728791 0.527266 0.412533
Si Si4 0.022809 0.341001 0.917742
Si Si5 0.171106 0.484160 0.161715
Si Si6 0.799350 0.739158 0.444528
Si Si7 0.185485 0.546564 0.925142
O O1 0.099577 0.865469 0.750000
O O2 0.218243 0.945371 0.632332
O O3 0.121252 0.751574 0.646489
O O4 0.022141 0.827413 0.608141
O O5 0.886384 0.462012 0.250000
O O6 0.866320 0.387503 0.107391
O O7 0.770022 0.477839 0.147307
O O8 0.957930 0.583874 0.131554
O O9 0.753060 0.506120 0.500000
O O10 0.788226 0.645952 0.395190
O O11 0.120006 0.434431 0.949406
O O12 0.973760 0.291471 0.997650
O O13 0.173876 0.507113 0.250000
O O14 0.281492 0.551196 0.129667
O O15 0.115576 0.535248 0.120474
O O16 0.895213 0.790425 0.500000
O O17 0.230951 0.615476 0.000000
#
# Coordination Sequence:
#
# PCOD8327435 Si02
#       7
#    12  12  12  12  12  12  12
#     4  10  23  43  67  97 136 175 224 290 357 422
#     4  12  25  42  67 102 146 191 240 294 352 417
#     4  11  24  43  67  98 145 191 242 293 347 421
#     4  11  24  43  67 101 138 178 227 288 354 418
#     4  10  21  37  54  82 126 175 220 273 334 392
#     4  11  23  45  70 100 130 180 235 292 357 436
#     4  11  22  34  58  85 124 171 231 278 323 389
#
# _framework density 22.770261999999999
#
# number of rings (size 3 to 8) (size 9 to 14) (size 15 to 20)
#    0.000    1.143    2.857    4.000    4.000    5.143 
#    0.000    0.000    0.000    2.286    0.000    0.000 
#    0.000    0.000    0.000    0.000    0.000    0.000 
#
# Total GULP energy -1040707.908692 kJ/mol
# GULP energy per Si atom -12389.379865 kJ/mol
# Density = 2.271844 g / cm^3
# Si number density = 22.770262 Si / 1000 Ang^3
#
#
#
# Elastic Constant Matrix: (Units=GPa)
#
#
# Indices 1 2 3 4 5 6 
#
# 1 83.6738 8.8186 20.3398 0.0001 0.0000 0.0000
# 2 8.8186 83.6738 20.3398 -0.0001 0.0000 0.0000
# 3 20.3398 20.3398 94.3342 0.0000 0.0000 0.0000
# 4 0.0001 -0.0001 0.0000 31.3739 0.0000 0.0000
# 5 0.0000 0.0000 0.0000 0.0000 31.3739 0.0001
# 6 0.0000 0.0000 0.0000 0.0000 0.0001 37.4276
#
#
#
# Elastic Compliance Matrix: (Units=1/GPa)
#
#
# Indices 1 2 3 4 5 6 
#
# 1 0.012652 -0.000707 -0.002575 0.000000 0.000000 0.000000
# 2 -0.000707 0.012652 -0.002575 0.000000 0.000000 0.000000
# 3 -0.002575 -0.002575 0.011711 0.000000 0.000000 0.000000
# 4 0.000000 0.000000 0.000000 0.031874 0.000000 0.000000
# 5 0.000000 0.000000 0.000000 0.000000 0.031874 0.000000
# 6 0.000000 0.000000 0.000000 0.000000 0.000000 0.026718
#
#
# Mechanical properties :
#
#
# Convention : Reuss Voigt Hill
#
# Bulk Modulus (GPa) = 39.52814 40.07538 39.80176
# Shear Modulus (GPa) = 33.86861 34.18065 34.02463
#
# Velocity S-wave (km/s) = 3.86087 3.87862 3.86976
# Velocity P-wave (km/s) = 6.10511 6.13973 6.12245
#
# Compressibility (1/GPa) = 0.02529843
#
# Stress axis : x y z
#
# Youngs Moduli (GPa) = 79.04040 79.04040 85.38843
#
# Poissons Ratio (x) = 0.05591 0.21991
# Poissons Ratio (y) = 0.05591 0.21991
# Poissons Ratio (z) = 0.20356 0.20356
#
# Static dielectric constant tensor:
#      x y z
#    x 4.176030 0.000000 0.000000 
#    y 0.000000 4.176030 0.000000 
#    z 0.000000 0.000000 4.079470 
# 
# 
# High freq. dielectric constant tensor:
#      x y z
#    x 1.892300 0.000000 0.000000 
#    y 0.000000 1.892300 0.000000 
#    z 0.000000 0.000000 1.897500 
# 
# From -- ./inp_files/2594.got.cif
#   From: 2010.03.12/outbox.cif.g09.slc.cpg/sg188_2_cif.got.tgz:2594.got - 2010.04.01 12:01:06.
