data_PCOD8327432
_publ_section_title
;
Structure prediction by ZEFSAII (Michael W. Deem and Ramdas Pophale) SiO2 
 PCOD8327432
Probable space group: P -6 C 2
;
_chemical_formula_sum "Si O2"
_cell_formula_units_Z 84
_cell_length_a 16.452401
_cell_length_b 16.452401
_cell_length_c 17.235137
_cell_angle_alpha 90.000000
_cell_angle_beta 90.000000
_cell_angle_gamma 120.000000
_cell_volume 4040.210044
_symmetry_space_group_name_H-M "P -6 C 2"
_symmetry_group_IT_number 188
_symmetry_cell_setting 'hexagonal'
loop_
_space_group_symop_operation_xyz
x,y,z
-x+y,-x,1/2-z
-y,x-y,z
x,y,1/2-z
-x+y,-x,z
-y,x-y,1/2-z
-y,-x,-z
-x+y,y,-z
x,x-y,-z
-x+y,y,1/2+z
x,x-y,1/2+z
-y,-x,1/2+z
loop_
_atom_site_type_symbol
_atom_site_label
_atom_site_fract_x
_atom_site_fract_y
_atom_site_fract_z
Si Si1 0.179695 0.177265 0.986586
Si Si2 0.375417 0.275630 0.430703
Si Si3 0.149705 0.586226 0.338869
Si Si4 0.259358 0.291692 0.660775
Si Si5 0.876931 0.313805 0.405268
Si Si6 0.936568 0.495475 0.336360
Si Si7 0.243104 0.460749 0.908960
O O1 0.264248 0.221272 0.050386
O O2 0.106276 0.212551 0.000000
O O3 0.212966 0.202534 0.897531
O O4 0.131085 0.065543 0.000000
O O5 0.416922 0.209195 0.404670
O O6 0.424174 0.336377 0.506978
O O7 0.407017 0.351815 0.363843
O O8 0.184979 0.595575 0.250000
O O9 0.204589 0.550201 0.393574
O O10 0.166843 0.685389 0.370187
O O11 0.040277 0.510127 0.343770
O O12 0.225366 0.263331 0.750000
O O13 0.369510 0.327249 0.655387
O O14 0.234406 0.369273 0.632064
O O15 0.860095 0.399702 0.381012
O O16 0.899199 0.481013 0.250000
O O17 0.221016 0.442031 0.000000
#
# Coordination Sequence:
#
# PCOD8327432 Si02
#       7
#    12  12  12  12  12  12  12
#     4  11  23  45  70  99 132 175 228 283 352 420
#     4  10  22  42  65  99 130 170 219 281 338 413
#     4  11  24  41  59  87 130 173 218 277 335 387
#     4  11  22  40  66  94 128 174 224 276 340 411
#     4  10  20  42  69  89 127 175 223 266 341 405
#     4  11  24  39  64  98 131 171 220 276 336 398
#     4  12  25  39  61  91 126 176 231 275 333 406
#
# _framework density 20.790997000000001
#
# number of rings (size 3 to 8) (size 9 to 14) (size 15 to 20)
#    0.000    1.143    4.286    3.429    6.000    2.286 
#    0.857    0.714    0.000    0.000    0.000    0.000 
#    0.000    0.000    0.000    0.000    0.000    0.000 
#
# Total GULP energy -1040917.887444 kJ/mol
# GULP energy per Si atom -12391.879612 kJ/mol
# Density = 2.074368 g / cm^3
# Si number density = 20.790997 Si / 1000 Ang^3
#
#
#
# Elastic Constant Matrix: (Units=GPa)
#
#
# Indices 1 2 3 4 5 6 
#
# 1 84.7167 32.7984 47.9918 -0.0001 0.0000 0.0000
# 2 32.7984 84.7167 47.9918 0.0001 0.0000 0.0000
# 3 47.9918 47.9918 118.2381 0.0000 0.0000 0.0000
# 4 -0.0001 0.0001 0.0000 27.2941 0.0000 0.0000
# 5 0.0000 0.0000 0.0000 0.0000 27.2941 -0.0001
# 6 0.0000 0.0000 0.0000 0.0000 -0.0001 25.9592
#
#
#
# Elastic Compliance Matrix: (Units=1/GPa)
#
#
# Indices 1 2 3 4 5 6 
#
# 1 0.015995 -0.003266 -0.005167 0.000000 0.000000 0.000000
# 2 -0.003266 0.015995 -0.005167 0.000000 0.000000 0.000000
# 3 -0.005167 -0.005167 0.012652 0.000000 0.000000 0.000000
# 4 0.000000 0.000000 0.000000 0.036638 0.000000 0.000000
# 5 0.000000 0.000000 0.000000 0.000000 0.036638 0.000000
# 6 0.000000 0.000000 0.000000 0.000000 0.000000 0.038522
#
#
# Mechanical properties :
#
#
# Convention : Reuss Voigt Hill
#
# Bulk Modulus (GPa) = 57.32689 60.58173 58.95431
# Shear Modulus (GPa) = 26.39160 26.70209 26.54685
#
# Velocity S-wave (km/s) = 3.56670 3.58762 3.57717
# Velocity P-wave (km/s) = 6.67792 6.80904 6.74380
#
# Compressibility (1/GPa) = 0.01744382
#
# Stress axis : x y z
#
# Youngs Moduli (GPa) = 62.51804 62.51804 79.03940
#
# Poissons Ratio (x) = 0.20416 0.40839
# Poissons Ratio (y) = 0.20416 0.40839
# Poissons Ratio (z) = 0.32302 0.32302
#
# Static dielectric constant tensor:
#      x y z
#    x 3.679180 0.000000 0.000000 
#    y 0.000000 3.679180 0.000000 
#    z 0.000000 0.000000 3.825030 
# 
# 
# High freq. dielectric constant tensor:
#      x y z
#    x 1.808760 0.000000 0.000000 
#    y 0.000000 1.808760 0.000000 
#    z 0.000000 0.000000 1.812430 
# 
# From -- ./inp_files/2610.got.cif
#   From: 2010.03.12/outbox.cif.g09.slc.cpg/sg188_2_cif.got.tgz:2610.got - 2010.04.01 12:01:06.
