data_PCOD8327107
_publ_section_title
;
Structure prediction by ZEFSAII (Michael W. Deem and Ramdas Pophale) SiO2 
 PCOD8327107
Probable space group: P -6 M 2
;
_chemical_formula_sum "Si O2"
_cell_formula_units_Z 96
_cell_length_a 17.100985
_cell_length_b 17.100985
_cell_length_c 22.965813
_cell_angle_alpha 90.000000
_cell_angle_beta 90.000000
_cell_angle_gamma 120.000000
_cell_volume 5816.405923
_symmetry_space_group_name_H-M "P -6 M 2"
_symmetry_group_IT_number 187
_symmetry_cell_setting 'hexagonal'
loop_
_space_group_symop_operation_xyz
x,y,z
-x+y,-x,-z
-y,x-y,z
x,y,-z
-x+y,-x,z
-y,x-y,-z
-y,-x,-z
-x+y,y,-z
x,x-y,-z
-x+y,y,z
x,x-y,z
-y,-x,z
loop_
_atom_site_type_symbol
_atom_site_label
_atom_site_fract_x
_atom_site_fract_y
_atom_site_fract_z
Si Si1 0.410993 0.411432 0.751210
Si Si2 0.593273 0.592723 0.065227
Si Si3 0.665341 0.149557 0.153946
Si Si4 0.180159 0.000464 0.566543
Si Si5 0.667373 0.510348 0.433303
Si Si6 0.149416 0.665393 0.846804
Si Si7 0.663010 0.664538 0.369088
Si Si8 0.509769 0.843510 0.566399
O O1 0.499092 0.500909 0.726473
O O2 0.443540 0.353410 0.788254
O O3 0.352468 0.442189 0.789274
O O4 0.346526 0.347257 0.700247
O O5 0.500497 0.499503 0.065191
O O6 0.666081 0.575471 0.098962
O O7 0.575029 0.665561 0.097997
O O8 0.628394 0.627174 0.000000
O O9 0.588571 0.177141 0.146041
O O10 0.761671 0.238330 0.159091
O O11 0.211762 0.999480 0.500000
O O12 0.151053 0.075527 0.573484
O O13 0.260734 0.024079 0.611780
O O14 0.095269 0.904732 0.583063
O O15 0.675627 0.541455 0.500000
O O16 0.762491 0.524982 0.410301
O O17 0.594463 0.405538 0.426264
O O18 0.636660 0.568040 0.395562
O O19 0.176792 0.588396 0.854085
O O20 0.238329 0.761672 0.842078
O O21 0.595747 0.696583 0.393156
O O22 0.536217 0.876237 0.500000
O O23 0.429119 0.858238 0.588163
O O24 0.476845 0.738423 0.572386
#
# Coordination Sequence:
#
# PCOD8327107 Si02
#       8
#    12  12  12  12  12  12  12  12
#     4   9  20  35  46  62  93 128 156 191 243 283
#     4   8  15  28  44  66  99 129 148 178 228 270
#     4   9  17  30  48  68  91 123 163 199 227 261
#     4  10  21  37  55  74  95 117 142 180 236 297
#     4  10  20  33  48  67  92 120 149 186 236 290
#     4   9  17  30  48  68  91 123 163 199 227 261
#     4  12  21  32  51  72  91 116 156 198 232 279
#     4  10  20  33  48  67  92 120 149 186 236 290
#
# _framework density 16.505037000000002
#
# number of rings (size 3 to 8) (size 9 to 14) (size 15 to 20)
#    0.000    2.375    0.000    5.125    0.000    7.000 
#    0.000    0.000    0.000    4.500    0.000    0.000 
#    0.000    0.000    0.000   12.375    0.000   26.000 
#
# Total GULP energy -1190385.676737 kJ/mol
# GULP energy per Si atom -12399.850799 kJ/mol
# Density = 1.646747 g / cm^3
# Si number density = 16.505037 Si / 1000 Ang^3
#
#
#
# Elastic Constant Matrix: (Units=GPa)
#
#
# Indices 1 2 3 4 5 6 
#
# 1 91.1201 35.0487 39.6139 0.0000 0.0003 0.0000
# 2 35.0487 91.1201 39.6139 0.0000 -0.0003 0.0000
# 3 39.6139 39.6139 101.0196 0.0000 0.0000 0.0000
# 4 0.0000 0.0000 0.0000 11.4045 0.0000 -0.0003
# 5 0.0003 -0.0003 0.0000 0.0000 11.4045 0.0000
# 6 0.0000 0.0000 0.0000 -0.0003 0.0000 28.0357
#
#
#
# Elastic Compliance Matrix: (Units=1/GPa)
#
#
# Indices 1 2 3 4 5 6 
#
# 1 0.014175 -0.003660 -0.004123 0.000000 0.000000 0.000000
# 2 -0.003660 0.014175 -0.004123 0.000000 0.000000 0.000000
# 3 -0.004123 -0.004123 0.013133 0.000000 0.000000 0.000000
# 4 0.000000 0.000000 0.000000 0.087685 0.000000 0.000001
# 5 0.000000 0.000000 0.000000 0.000000 0.087685 0.000000
# 6 0.000000 0.000000 0.000000 0.000001 0.000000 0.035669
#
#
# Mechanical properties :
#
#
# Convention : Reuss Voigt Hill
#
# Bulk Modulus (GPa) = 56.59418 56.86808 56.73113
# Shear Modulus (GPa) = 17.71642 21.43449 19.57545
#
# Velocity S-wave (km/s) = 3.27982 3.60761 3.44761
# Velocity P-wave (km/s) = 6.97900 7.20298 7.09187
#
# Compressibility (1/GPa) = 0.01766966
#
# Stress axis : x y z
#
# Youngs Moduli (GPa) = 70.54772 70.54772 76.14407
#
# Poissons Ratio (x) = 0.25818 0.31398
# Poissons Ratio (y) = 0.25818 0.31398
# Poissons Ratio (z) = 0.29090 0.29090
#
# Static dielectric constant tensor:
#      x y z
#    x 2.966320 0.000000 0.000000 
#    y 0.000000 2.966320 0.000000 
#    z 0.000000 0.000000 3.124290 
# 
# 
# High freq. dielectric constant tensor:
#      x y z
#    x 1.628580 0.000000 0.000000 
#    y 0.000000 1.628580 0.000000 
#    z 0.000000 0.000000 1.621100 
# 
# From -- ./inp_files/3764.got.cif
#   From: 2010.03.12/outbox.cif.g09.slc.cpg/sg187_2_cif.got.tgz:3764.got - 2010.04.01 11:58:23.
