data_PCOD8327368
_publ_section_title
;
Structure prediction by ZEFSAII (Michael W. Deem and Ramdas Pophale) SiO2 
 PCOD8327368
Probable space group: P -6 C 2
;
_chemical_formula_sum "Si O2"
_cell_formula_units_Z 64
_cell_length_a 14.550104
_cell_length_b 14.550104
_cell_length_c 16.809698
_cell_angle_alpha 90.000000
_cell_angle_beta 90.000000
_cell_angle_gamma 120.000000
_cell_volume 3081.929769
_symmetry_space_group_name_H-M "P -6 C 2"
_symmetry_group_IT_number 188
_symmetry_cell_setting 'hexagonal'
loop_
_space_group_symop_operation_xyz
x,y,z
-x+y,-x,1/2-z
-y,x-y,z
x,y,1/2-z
-x+y,-x,z
-y,x-y,1/2-z
-y,-x,-z
-x+y,y,-z
x,x-y,-z
-x+y,y,1/2+z
x,x-y,1/2+z
-y,-x,1/2+z
loop_
_atom_site_type_symbol
_atom_site_label
_atom_site_fract_x
_atom_site_fract_y
_atom_site_fract_z
Si Si1 0.196528 0.747316 0.409203
Si Si2 0.768746 0.835823 0.655391
Si Si3 0.656106 0.119283 0.844486
Si Si4 0.107481 0.523999 0.158247
Si Si5 0.666667 0.333333 0.345024
Si Si6 0.930879 0.166866 0.344610
O O1 0.225806 0.774195 0.500000
O O2 0.091746 0.750908 0.385223
O O3 0.289958 0.831942 0.352615
O O4 0.170377 0.627885 0.395303
O O5 0.758669 0.826773 0.750000
O O6 0.854463 0.805889 0.623939
O O7 0.798489 0.951985 0.624053
O O8 0.663479 0.124860 0.750000
O O9 0.659546 0.225181 0.877885
O O10 0.755114 0.109478 0.878213
O O11 0.546686 0.014722 0.870156
O O12 0.112285 0.556456 0.250000
O O13 0.666667 0.333334 0.250000
O O14 0.932282 0.169546 0.250000
#
# Coordination Sequence:
#
# PCOD8327368 Si02
#       6
#    12  12  12  12   4  12
#     4  12  25  40  58  89 124 161 195 246 313 378
#     4  10  19  35  60  89 120 155 203 253 306 362
#     4   9  18  32  54  85 121 154 192 252 307 351
#     4  11  22  40  64  87 117 157 205 252 301 368
#     4   9  18  30  48  84 124 152 187 243 310 347
#     4   9  17  31  55  87 118 152 197 255 303 348
#
# _framework density 20.766210999999998
#
# number of rings (size 3 to 8) (size 9 to 14) (size 15 to 20)
#    0.000    1.875    1.875    3.000    2.625    1.500 
#    0.000    0.938    0.000    0.000    0.000    0.000 
#    0.000    0.000    0.000    0.000    0.000    0.000 
#
# Total GULP energy -793716.628377 kJ/mol
# GULP energy per Si atom -12401.822318 kJ/mol
# Density = 2.071895 g / cm^3
# Si number density = 20.766211 Si / 1000 Ang^3
#
#
#
# Elastic Constant Matrix: (Units=GPa)
#
#
# Indices 1 2 3 4 5 6 
#
# 1 139.3325 52.4394 22.6162 0.0000 0.0000 0.0001
# 2 52.4394 139.3325 22.6161 0.0000 0.0000 0.0000
# 3 22.6162 22.6161 39.2410 0.0000 0.0000 0.0000
# 4 0.0000 0.0000 0.0000 9.7352 0.0000 0.0000
# 5 0.0000 0.0000 0.0000 0.0000 9.7352 0.0000
# 6 0.0001 0.0000 0.0000 0.0000 0.0000 43.4465
#
#
#
# Elastic Compliance Matrix: (Units=1/GPa)
#
#
# Indices 1 2 3 4 5 6 
#
# 1 0.008772 -0.002737 -0.003478 0.000000 0.000000 0.000000
# 2 -0.002737 0.008772 -0.003478 0.000000 0.000000 0.000000
# 3 -0.003478 -0.003478 0.029493 0.000000 0.000000 0.000000
# 4 0.000000 0.000000 0.000000 0.102720 0.000000 0.000000
# 5 0.000000 0.000000 0.000000 0.000000 0.102720 0.000000
# 6 0.000000 0.000000 0.000000 0.000000 0.000000 0.023017
#
#
# Mechanical properties :
#
#
# Convention : Reuss Voigt Hill
#
# Bulk Modulus (GPa) = 36.16648 57.02771 46.59709
# Shear Modulus (GPa) = 16.44216 27.26565 21.85390
#
# Velocity S-wave (km/s) = 2.81690 3.62744 3.24756
# Velocity P-wave (km/s) = 5.29469 6.71311 6.04564
#
# Compressibility (1/GPa) = 0.02764991
#
# Stress axis : x y z
#
# Youngs Moduli (GPa) = 114.00365 114.00372 33.90668
#
# Poissons Ratio (x) = 0.31200 0.11793
# Poissons Ratio (y) = 0.31200 0.11793
# Poissons Ratio (z) = 0.39652 0.39652
#
# Static dielectric constant tensor:
#      x y z
#    x 3.945740 0.000000 0.000000 
#    y 0.000000 3.945740 0.000000 
#    z 0.000000 0.000000 3.104520 
# 
# 
# High freq. dielectric constant tensor:
#      x y z
#    x 1.824910 0.000000 0.000000 
#    y 0.000000 1.824910 0.000000 
#    z 0.000000 0.000000 1.757390 
# 
# From -- ./inp_files/3081.got.cif
#   From: 2010.03.12/outbox.cif.g09.slc.cpg/sg188_2_cif.got.tgz:3081.got - 2010.04.01 12:01:06.
