data_PCOD8327556
_publ_section_title
;
Structure prediction by ZEFSAII (Michael W. Deem and Ramdas Pophale) SiO2 
 PCOD8327556
Probable space group: P -6 2 M
;
_chemical_formula_sum "Si O2"
_cell_formula_units_Z 78
_cell_length_a 20.228613
_cell_length_b 20.228613
_cell_length_c 16.700224
_cell_angle_alpha 90.000000
_cell_angle_beta 90.000000
_cell_angle_gamma 120.000000
_cell_volume 5918.138707
_symmetry_space_group_name_H-M "P -6 2 M"
_symmetry_group_IT_number 189
_symmetry_cell_setting 'hexagonal'
loop_
_space_group_symop_operation_xyz
x,y,z
-x+y,-x,-z
-y,x-y,z
x,y,-z
-x+y,-x,z
-y,x-y,-z
x-y,-y,-z
-x,-x+y,-z
y,x,-z
y,x,z
x-y,-y,z
-x,-x+y,z
loop_
_atom_site_type_symbol
_atom_site_label
_atom_site_fract_x
_atom_site_fract_y
_atom_site_fract_z
Si Si1 0.842849 0.755191 0.168701
Si Si2 0.087911 0.910521 0.672753
Si Si3 0.755514 0.589525 0.094694
Si Si4 0.913239 0.415031 0.095132
Si Si5 0.325506 0.325506 0.904461
Si Si6 0.087119 0.172801 0.500000
Si Si7 0.823271 0.000000 0.905433
Si Si8 0.523978 0.857674 0.094131
O O1 0.780663 0.780663 0.150375
O O2 0.859505 0.757289 0.263722
O O3 0.810369 0.669588 0.137236
O O4 0.921899 0.817062 0.126250
O O5 0.097426 0.879898 0.584651
O O6 0.000000 0.863965 0.700971
O O7 0.113446 0.000000 0.667989
O O8 0.669939 0.551946 0.129167
O O9 0.781075 0.526595 0.114270
O O10 0.761276 0.606474 0.000000
O O11 0.861204 0.450347 0.127669
O O12 0.000000 0.468850 0.124221
O O13 0.909081 0.409043 0.000000
O O14 0.251419 0.251419 0.871993
O O15 0.326348 0.399431 0.869147
O O16 0.324359 0.324359 0.000000
O O17 0.100439 0.100439 0.500000
O O18 0.000000 0.147332 0.500000
O O19 0.828246 0.000000 0.000000
O O20 0.524706 0.870033 0.000000
#
# Coordination Sequence:
#
# PCOD8327556 Si02
#       8
#    12  12  12  12   6   6   6  12
#     4  11  21  30  39  52  73 101 134 169 200 222
#     4   9  16  26  39  54  72  94 123 162 202 237
#     4  10  19  29  40  54  73  98 127 156 191 236
#     4   9  16  26  39  53  68  88 117 153 190 227
#     4   9  14  24  42  54  61  80 120 166 192 214
#     4   8  13  22  38  56  70  88 116 152 200 248
#     4  11  20  30  40  49  67 100 142 177 196 216
#     4   9  15  25  40  54  66  83 114 156 193 223
#
# _framework density 13.179819999999999
#
# number of rings (size 3 to 8) (size 9 to 14) (size 15 to 20)
#    0.000    2.462    3.077    1.154    0.000    3.077 
#    1.385    0.000    0.000    0.000    0.000    0.000 
#    0.000    0.000    0.000    1.385    0.000   19.462 
#
# Total GULP energy -966272.406261 kJ/mol
# GULP energy per Si atom -12388.107773 kJ/mol
# Density = 1.314982 g / cm^3
# Si number density = 13.179820 Si / 1000 Ang^3
#
#
#
# Elastic Constant Matrix: (Units=GPa)
#
#
# Indices 1 2 3 4 5 6 
#
# 1 67.5529 26.0012 20.7679 0.0000 0.0000 0.0000
# 2 26.0012 67.5529 20.7679 0.0000 0.0000 0.0000
# 3 20.7679 20.7679 48.9304 0.0000 0.0000 0.0000
# 4 0.0000 0.0000 0.0000 6.0876 0.0000 0.0000
# 5 0.0000 0.0000 0.0000 0.0000 6.0876 0.0000
# 6 0.0000 0.0000 0.0000 0.0000 0.0000 20.7759
#
#
#
# Elastic Compliance Matrix: (Units=1/GPa)
#
#
# Indices 1 2 3 4 5 6 
#
# 1 0.018619 -0.005448 -0.005590 0.000000 0.000000 0.000000
# 2 -0.005448 0.018619 -0.005590 0.000000 0.000000 0.000000
# 3 -0.005590 -0.005590 0.025183 0.000000 0.000000 0.000000
# 4 0.000000 0.000000 0.000000 0.164268 0.000000 0.000000
# 5 0.000000 0.000000 0.000000 0.000000 0.164268 0.000000
# 6 0.000000 0.000000 0.000000 0.000000 0.000000 0.048133
#
#
# Mechanical properties :
#
#
# Convention : Reuss Voigt Hill
#
# Bulk Modulus (GPa) = 34.28944 35.45671 34.87307
# Shear Modulus (GPa) = 10.37202 14.35684 12.36443
#
# Velocity S-wave (km/s) = 2.80833 3.30404 3.06622
# Velocity P-wave (km/s) = 6.04886 6.44331 6.24920
#
# Compressibility (1/GPa) = 0.02916350
#
# Stress axis : x y z
#
# Youngs Moduli (GPa) = 53.70955 53.70955 39.70995
#
# Poissons Ratio (x) = 0.29259 0.22199
# Poissons Ratio (y) = 0.29259 0.22199
# Poissons Ratio (z) = 0.30025 0.30025
#
# Static dielectric constant tensor:
#      x y z
#    x 2.675260 0.000000 0.000000 
#    y 0.000000 2.675260 0.000000 
#    z 0.000000 0.000000 2.486320 
# 
# 
# High freq. dielectric constant tensor:
#      x y z
#    x 1.494870 0.000000 0.000000 
#    y 0.000000 1.494870 0.000000 
#    z 0.000000 0.000000 1.448590 
# 
# From -- ./inp_files/2880.got.cif
#   From: 2010.03.12/outbox.cif.g09.slc.cpg/sg189_2_cif.got.tgz:2880.got - 2010.04.01 12:03:36.
