data_PCOD8327024
_publ_section_title
;
Structure prediction by ZEFSAII (Michael W. Deem and Ramdas Pophale) SiO2 
 PCOD8327024
Probable space group: P -6 M 2
;
_chemical_formula_sum "Si O2"
_cell_formula_units_Z 48
_cell_length_a 13.130745
_cell_length_b 13.130745
_cell_length_c 20.383834
_cell_angle_alpha 90.000000
_cell_angle_beta 90.000000
_cell_angle_gamma 120.000000
_cell_volume 3043.653718
_symmetry_space_group_name_H-M "P -6 M 2"
_symmetry_group_IT_number 187
_symmetry_cell_setting 'hexagonal'
loop_
_space_group_symop_operation_xyz
x,y,z
-x+y,-x,-z
-y,x-y,z
x,y,-z
-x+y,-x,z
-y,x-y,-z
-y,-x,-z
-x+y,y,-z
x,x-y,-z
-x+y,y,z
x,x-y,z
-y,-x,z
loop_
_atom_site_type_symbol
_atom_site_label
_atom_site_fract_x
_atom_site_fract_y
_atom_site_fract_z
Si Si1 0.427132 0.330462 0.641989
Si Si2 0.568596 0.666575 0.893034
Si Si3 0.567937 0.901136 0.743012
Si Si4 0.668389 0.104071 0.500000
Si Si5 0.758991 0.760768 0.000000
O O1 0.438963 0.219482 0.662359
O O2 0.556721 0.443280 0.641921
O O3 0.344430 0.341140 0.695658
O O4 0.366249 0.312045 0.569135
O O5 0.532542 0.766271 0.903516
O O6 0.457436 0.542565 0.914303
O O7 0.604389 0.663638 0.817965
O O8 0.681607 0.694430 0.936281
O O9 0.435562 0.871124 0.729938
O O10 0.575038 0.787519 0.724790
O O11 0.755075 0.244926 0.500000
O O12 0.536016 0.072032 0.500000
O O13 0.875556 0.751111 0.000000
O O14 0.794939 0.897470 0.000000
#
# Coordination Sequence:
#
# PCOD8327024 Si02
#       5
#    12  12  12   6   6
#     4   9  16  26  42  63  86 111 141 179 220 260
#     4   9  17  30  49  70  88 109 142 184 222 250
#     4   9  17  29  45  65  89 116 144 175 213 256
#     4   8  13  22  37  58  82 108 140 178 218 254
#     4  10  20  32  46  64  88 116 142 170 208 256
#
# _framework density 15.770519
#
# number of rings (size 3 to 8) (size 9 to 14) (size 15 to 20)
#    0.000    3.000    0.000    1.375    0.000    5.000 
#    0.000    1.875    0.000    2.500    0.000    1.750 
#    0.000    0.000    0.000    0.000    0.000    0.000 
#
# Total GULP energy -594827.392692 kJ/mol
# GULP energy per Si atom -12392.237348 kJ/mol
# Density = 1.573462 g / cm^3
# Si number density = 15.770519 Si / 1000 Ang^3
#
#
#
# Elastic Constant Matrix: (Units=GPa)
#
#
# Indices 1 2 3 4 5 6 
#
# 1 88.3858 45.8118 62.1677 0.0000 -0.0001 0.0000
# 2 45.8118 88.3858 62.1677 0.0000 0.0001 0.0000
# 3 62.1677 62.1677 122.8207 0.0000 0.0000 0.0000
# 4 0.0000 0.0000 0.0000 24.5041 0.0000 0.0001
# 5 -0.0001 0.0001 0.0000 0.0000 24.5041 0.0000
# 6 0.0000 0.0000 0.0000 0.0001 0.0000 21.2870
#
#
#
# Elastic Compliance Matrix: (Units=1/GPa)
#
#
# Indices 1 2 3 4 5 6 
#
# 1 0.018760 -0.004728 -0.007103 0.000000 0.000000 0.000000
# 2 -0.004728 0.018760 -0.007103 0.000000 0.000000 0.000000
# 3 -0.007103 -0.007103 0.015332 0.000000 0.000000 0.000000
# 4 0.000000 0.000000 0.000000 0.040809 0.000000 0.000000
# 5 0.000000 0.000000 0.000000 0.000000 0.040809 0.000000
# 6 0.000000 0.000000 0.000000 0.000000 0.000000 0.046977
#
#
# Mechanical properties :
#
#
# Convention : Reuss Voigt Hill
#
# Bulk Modulus (GPa) = 66.72807 71.09853 68.91330
# Shear Modulus (GPa) = 22.29041 22.68872 22.48957
#
# Velocity S-wave (km/s) = 3.76363 3.79711 3.78041
# Velocity P-wave (km/s) = 7.82881 8.02528 7.92765
#
# Compressibility (1/GPa) = 0.01498620
#
# Stress axis : x y z
#
# Youngs Moduli (GPa) = 53.30351 53.30351 65.22178
#
# Poissons Ratio (x) = 0.25202 0.46325
# Poissons Ratio (y) = 0.25202 0.46325
# Poissons Ratio (z) = 0.37860 0.37860
#
# Static dielectric constant tensor:
#      x y z
#    x 2.774820 0.000000 0.000000 
#    y 0.000000 2.774820 0.000000 
#    z 0.000000 0.000000 3.421230 
# 
# 
# High freq. dielectric constant tensor:
#      x y z
#    x 1.581270 0.000000 0.000000 
#    y 0.000000 1.581270 0.000000 
#    z 0.000000 0.000000 1.625610 
# 
# From -- ./inp_files/3391.got.cif
#   From: 2010.03.12/outbox.cif.g09.slc.cpg/sg187_2_cif.got.tgz:3391.got - 2010.04.01 11:58:23.
