data_PCOD8327028
_publ_section_title
;
Structure prediction by ZEFSAII (Michael W. Deem and Ramdas Pophale) SiO2 
 PCOD8327028
Probable space group: P -6 M 2
;
_chemical_formula_sum "Si O2"
_cell_formula_units_Z 72
_cell_length_a 12.848424
_cell_length_b 12.848424
_cell_length_c 30.465572
_cell_angle_alpha 90.000000
_cell_angle_beta 90.000000
_cell_angle_gamma 120.000000
_cell_volume 4355.516749
_symmetry_space_group_name_H-M "P -6 M 2"
_symmetry_group_IT_number 187
_symmetry_cell_setting 'hexagonal'
loop_
_space_group_symop_operation_xyz
x,y,z
-x+y,-x,-z
-y,x-y,z
x,y,-z
-x+y,-x,z
-y,x-y,-z
-y,-x,-z
-x+y,y,-z
x,x-y,-z
-x+y,y,z
x,x-y,z
-y,-x,z
loop_
_atom_site_type_symbol
_atom_site_label
_atom_site_fract_x
_atom_site_fract_y
_atom_site_fract_z
Si Si1 0.000279 0.241382 0.844382
Si Si2 0.002193 0.755518 0.000000
Si Si3 0.759795 0.759076 0.744819
Si Si4 0.910778 0.576430 0.500000
Si Si5 0.574316 0.907619 0.424424
Si Si6 0.578983 0.910554 0.080006
Si Si7 0.574083 0.908049 0.674591
O O1 0.873441 0.126560 0.857670
O O2 0.101830 0.203659 0.850688
O O3 0.998304 0.282568 0.794566
O O4 0.029564 0.355664 0.874267
O O5 0.014459 0.687810 0.957897
O O6 0.104397 0.895604 0.000000
O O7 0.872938 0.745875 0.000000
O O8 0.777280 0.888640 0.736142
O O9 0.666367 0.665407 0.709962
O O10 0.884932 0.769864 0.734604
O O11 0.791577 0.583154 0.500000
O O12 0.876681 0.438341 0.500000
O O13 0.985317 0.644022 0.456770
O O14 0.435689 0.871378 0.429872
O O15 0.583924 0.791962 0.436967
O O16 0.619868 0.952073 0.374921
O O17 0.460423 0.920845 0.074978
O O18 0.541068 0.770534 0.077662
O O19 0.450351 0.900702 0.684387
O O20 0.552648 0.776324 0.682487
#
# Coordination Sequence:
#
# PCOD8327028 Si02
#       7
#    12   6  12   6  12  12  12
#     4   9  17  30  49  71  93 119 154 198 242 277
#     4  10  20  34  54  78 100 122 152 194 238 274
#     4   9  17  29  46  68  93 122 156 193 232 274
#     4  10  20  32  46  64  88 118 150 184 222 266
#     4   9  17  30  49  71  92 115 147 189 232 271
#     4  10  20  33  50  72  99 129 158 189 228 278
#     4   9  17  29  46  69  95 121 149 184 229 276
#
# _framework density 16.530760000000001
#
# number of rings (size 3 to 8) (size 9 to 14) (size 15 to 20)
#    0.000    2.667    0.000    2.000    0.000    4.000 
#    0.000    3.333    0.000    8.333    0.000    0.000 
#    0.000    0.000    0.000    0.000    0.000    0.000 
#
# Total GULP energy -892738.525227 kJ/mol
# GULP energy per Si atom -12399.146184 kJ/mol
# Density = 1.649314 g / cm^3
# Si number density = 16.530760 Si / 1000 Ang^3
#
#
#
# Elastic Constant Matrix: (Units=GPa)
#
#
# Indices 1 2 3 4 5 6 
#
# 1 93.7610 51.7597 61.4918 0.0000 0.0000 0.0000
# 2 51.7597 93.7610 61.4918 0.0000 0.0000 0.0000
# 3 61.4918 61.4918 119.2882 0.0000 0.0000 0.0000
# 4 0.0000 0.0000 0.0000 26.2102 0.0000 0.0000
# 5 0.0000 0.0000 0.0000 0.0000 26.2102 0.0000
# 6 0.0000 0.0000 0.0000 0.0000 0.0000 21.0007
#
#
#
# Elastic Compliance Matrix: (Units=1/GPa)
#
#
# Indices 1 2 3 4 5 6 
#
# 1 0.017993 -0.005816 -0.006277 0.000000 0.000000 0.000000
# 2 -0.005816 0.017993 -0.006277 0.000000 0.000000 0.000000
# 3 -0.006277 -0.006277 0.014855 0.000000 0.000000 0.000000
# 4 0.000000 0.000000 0.000000 0.038153 0.000000 0.000000
# 5 0.000000 0.000000 0.000000 0.000000 0.038153 0.000000
# 6 0.000000 0.000000 0.000000 0.000000 0.000000 0.047618
#
#
# Mechanical properties :
#
#
# Convention : Reuss Voigt Hill
#
# Bulk Modulus (GPa) = 70.92179 72.92188 71.92183
# Shear Modulus (GPa) = 23.12634 23.48867 23.30751
#
# Velocity S-wave (km/s) = 3.74436 3.77358 3.75900
# Velocity P-wave (km/s) = 7.85428 7.94954 7.90205
#
# Compressibility (1/GPa) = 0.01410004
#
# Stress axis : x y z
#
# Youngs Moduli (GPa) = 55.57794 55.57794 67.31965
#
# Poissons Ratio (x) = 0.32324 0.42256
# Poissons Ratio (y) = 0.32324 0.42256
# Poissons Ratio (z) = 0.34886 0.34886
#
# Static dielectric constant tensor:
#      x y z
#    x 2.969440 0.000000 0.000000 
#    y 0.000000 2.969440 0.000000 
#    z 0.000000 0.000000 3.468090 
# 
# 
# High freq. dielectric constant tensor:
#      x y z
#    x 1.622060 0.000000 0.000000 
#    y 0.000000 1.622060 0.000000 
#    z 0.000000 0.000000 1.654680 
# 
# From -- ./inp_files/4518.got.cif
#   From: 2010.03.12/outbox.cif.g09.slc.cpg/sg187_3_cif.got.tgz:4518.got - 2010.04.01 11:58:23.
