data_PCOD8327864
_publ_section_title
;
Structure prediction by ZEFSAII (Michael W. Deem and Ramdas Pophale) SiO2 
 PCOD8327864
Probable space group: P -6 2 M
;
_chemical_formula_sum "Si O2"
_cell_formula_units_Z 84
_cell_length_a 19.254780
_cell_length_b 19.254780
_cell_length_c 13.889574
_cell_angle_alpha 90.000000
_cell_angle_beta 90.000000
_cell_angle_gamma 120.000000
_cell_volume 4459.607933
_symmetry_space_group_name_H-M "P -6 2 M"
_symmetry_group_IT_number 189
_symmetry_cell_setting 'hexagonal'
loop_
_space_group_symop_operation_xyz
x,y,z
-x+y,-x,-z
-y,x-y,z
x,y,-z
-x+y,-x,z
-y,x-y,-z
x-y,-y,-z
-x,-x+y,-z
y,x,-z
y,x,z
x-y,-y,z
-x,-x+y,z
loop_
_atom_site_type_symbol
_atom_site_label
_atom_site_fract_x
_atom_site_fract_y
_atom_site_fract_z
Si Si1 0.910778 0.747165 0.608329
Si Si2 0.700973 0.790031 0.248152
Si Si3 0.768191 0.092332 0.886676
Si Si4 0.292020 0.845128 0.610847
Si Si5 0.387697 0.482719 0.895163
Si Si6 0.453604 0.909242 0.707215
Si Si7 0.297446 0.424968 0.608287
O O1 0.876346 0.730642 0.500000
O O2 0.854721 0.765371 0.676302
O O3 0.905817 0.665307 0.648884
O O4 0.000000 0.821379 0.612118
O O5 0.738681 0.738681 0.203525
O O6 0.688839 0.839801 0.163732
O O7 0.623235 0.730224 0.311393
O O8 0.702345 0.118885 0.864468
O O9 0.737327 0.000000 0.851632
O O10 0.785178 0.096796 0.000000
O O11 0.300148 0.877253 0.500000
O O12 0.375525 0.852657 0.644733
O O13 0.224526 0.751492 0.613805
O O14 0.437141 0.437141 0.902039
O O15 0.430677 0.554365 0.816912
O O16 0.388196 0.520258 0.000000
O O17 0.531730 0.910070 0.667151
O O18 0.469850 0.000000 0.704894
O O19 0.321793 0.418437 0.500000
#
# Coordination Sequence:
#
# PCOD8327864 Si02
#       7
#    12  12  12  12  12  12  12
#     4   9  17  30  50  74  97 124 168 227 277 310
#     4  11  21  32  49  73 105 143 176 207 252 315
#     4   9  18  35  60  85 105 127 163 218 277 323
#     4  10  22  37  49  70 108 148 182 216 259 311
#     4   8  15  29  51  79 103 121 152 205 263 308
#     4  11  20  31  53  78 100 134 178 220 262 310
#     4   9  18  32  49  72 100 129 168 217 265 309
#
# _framework density 18.835735
#
# number of rings (size 3 to 8) (size 9 to 14) (size 15 to 20)
#    0.000    2.429    0.000    5.571    0.000    4.857 
#    0.857    0.714    0.000    4.857    0.000    0.000 
#    0.000    0.000    0.000    0.000    0.000    0.000 
#
# Total GULP energy -1040787.130871 kJ/mol
# GULP energy per Si atom -12390.322987 kJ/mol
# Density = 1.879286 g / cm^3
# Si number density = 18.835735 Si / 1000 Ang^3
#
#
#
# Elastic Constant Matrix: (Units=GPa)
#
#
# Indices 1 2 3 4 5 6 
#
# 1 60.9668 15.8039 34.3641 0.0000 0.0000 0.0000
# 2 15.8039 60.9668 34.3641 0.0000 0.0000 0.0000
# 3 34.3641 34.3641 77.9278 0.0000 0.0000 0.0000
# 4 0.0000 0.0000 0.0000 25.5614 0.0000 0.0000
# 5 0.0000 0.0000 0.0000 0.0000 25.5614 0.0000
# 6 0.0000 0.0000 0.0000 0.0000 0.0000 22.5814
#
#
#
# Elastic Compliance Matrix: (Units=1/GPa)
#
#
# Indices 1 2 3 4 5 6 
#
# 1 0.021832 -0.000310 -0.009491 0.000000 0.000000 0.000000
# 2 -0.000310 0.021832 -0.009491 0.000000 0.000000 0.000000
# 3 -0.009491 -0.009491 0.021203 0.000000 0.000000 0.000000
# 4 0.000000 0.000000 0.000000 0.039121 0.000000 0.000000
# 5 0.000000 0.000000 0.000000 0.000000 0.039121 0.000000
# 6 0.000000 0.000000 0.000000 0.000000 0.000000 0.044284
#
#
# Mechanical properties :
#
#
# Convention : Reuss Voigt Hill
#
# Bulk Modulus (GPa) = 38.04551 40.99174 39.51863
# Shear Modulus (GPa) = 21.30028 22.42947 21.86487
#
# Velocity S-wave (km/s) = 3.36645 3.45453 3.41078
# Velocity P-wave (km/s) = 5.94585 6.14180 6.04462
#
# Compressibility (1/GPa) = 0.02628431
#
# Stress axis : x y z
#
# Youngs Moduli (GPa) = 45.80385 45.80385 47.16359
#
# Poissons Ratio (x) = 0.01419 0.44762
# Poissons Ratio (y) = 0.01419 0.44762
# Poissons Ratio (z) = 0.43472 0.43472
#
# Static dielectric constant tensor:
#      x y z
#    x 3.225750 0.000000 0.000000 
#    y 0.000000 3.225750 0.000000 
#    z 0.000000 0.000000 3.933840 
# 
# 
# High freq. dielectric constant tensor:
#      x y z
#    x 1.702180 0.000000 0.000000 
#    y 0.000000 1.702180 0.000000 
#    z 0.000000 0.000000 1.746020 
# 
# From -- ./inp_files/2799.got.cif
#   From: 2010.03.12/outbox.cif.g09.slc.cpg/sg189_2_cif.got.tgz:2799.got - 2010.04.01 12:03:36.
