data_PCOD8327910
_publ_section_title
;
Structure prediction by ZEFSAII (Michael W. Deem and Ramdas Pophale) SiO2 
 PCOD8327910
Probable space group: P -6 2 M
;
_chemical_formula_sum "Si O2"
_cell_formula_units_Z 72
_cell_length_a 24.106095
_cell_length_b 24.106095
_cell_length_c 9.344141
_cell_angle_alpha 90.000000
_cell_angle_beta 90.000000
_cell_angle_gamma 120.000000
_cell_volume 4702.445191
_symmetry_space_group_name_H-M "P -6 2 M"
_symmetry_group_IT_number 189
_symmetry_cell_setting 'hexagonal'
loop_
_space_group_symop_operation_xyz
x,y,z
-x+y,-x,-z
-y,x-y,z
x,y,-z
-x+y,-x,z
-y,x-y,-z
x-y,-y,-z
-x,-x+y,-z
y,x,-z
y,x,z
x-y,-y,z
-x,-x+y,z
loop_
_atom_site_type_symbol
_atom_site_label
_atom_site_fract_x
_atom_site_fract_y
_atom_site_fract_z
Si Si1 0.929552 0.402821 0.170468
Si Si2 0.808453 0.404423 0.829780
Si Si3 0.522629 0.262547 0.829703
Si Si4 0.073683 0.146860 0.667051
Si Si5 0.600518 0.740967 0.829998
Si Si6 0.074323 0.256010 0.832596
O O1 0.880825 0.426823 0.221732
O O2 0.905645 0.331086 0.227197
O O3 0.000000 0.450548 0.233629
O O4 0.931229 0.402078 0.000000
O O5 0.761689 0.332153 0.774842
O O6 0.786158 0.452610 0.765839
O O7 0.805609 0.405066 0.000000
O O8 0.449542 0.213377 0.779438
O O9 0.524309 0.264480 0.000000
O O10 0.082513 0.162955 0.500000
O O11 0.115682 0.115682 0.717640
O O12 0.097924 0.212844 0.751840
O O13 0.000000 0.096782 0.704108
O O14 0.671774 0.787896 0.770776
O O15 0.603896 0.740313 0.000000
O O16 0.000000 0.231456 0.800378
O O17 0.086177 0.252747 0.000000
#
# Coordination Sequence:
#
# PCOD8327910 Si02
#       6
#    12  12  12  12  12  12
#     4   8  12  17  25  37  53  75 105 140 174 206
#     4   8  12  16  23  35  51  74 106 142 174 207
#     4   8  12  17  25  38  57  83 115 148 181 215
#     4   9  17  29  44  60  77  97 120 147 181 219
#     4   8  13  20  30  44  63  88 116 145 177 213
#     4   9  16  25  38  56  76  98 124 152 181 216
#
# _framework density 15.311183
#
# number of rings (size 3 to 8) (size 9 to 14) (size 15 to 20)
#    0.000    3.667    0.000    3.000    0.000    4.333 
#    0.000    0.000    0.000    2.000    0.000    4.667 
#    0.000    0.000    0.000    6.000    0.000   40.500 
#
# Total GULP energy -892080.089037 kJ/mol
# GULP energy per Si atom -12390.001237 kJ/mol
# Density = 1.527633 g / cm^3
# Si number density = 15.311183 Si / 1000 Ang^3
#
#
#
# Elastic Constant Matrix: (Units=GPa)
#
#
# Indices 1 2 3 4 5 6 
#
# 1 142.8994 84.5077 17.2285 0.0000 0.0000 0.0000
# 2 84.5077 142.8994 17.2285 0.0000 0.0000 0.0000
# 3 17.2285 17.2285 8.9277 0.0000 0.0000 0.0000
# 4 0.0000 0.0000 0.0000 5.2723 0.0000 0.0000
# 5 0.0000 0.0000 0.0000 0.0000 5.2723 0.0000
# 6 0.0000 0.0000 0.0000 0.0000 0.0000 29.1959
#
#
#
# Elastic Compliance Matrix: (Units=1/GPa)
#
#
# Indices 1 2 3 4 5 6 
#
# 1 0.011670 -0.005456 -0.011993 0.000000 0.000000 0.000000
# 2 -0.005456 0.011670 -0.011993 0.000000 0.000000 0.000000
# 3 -0.011993 -0.011993 0.158298 0.000000 0.000000 0.000000
# 4 0.000000 0.000000 0.000000 0.189670 0.000000 0.000000
# 5 0.000000 0.000000 0.000000 0.000000 0.189670 0.000000
# 6 0.000000 0.000000 0.000000 0.000000 0.000000 0.034251
#
#
# Mechanical properties :
#
#
# Convention : Reuss Voigt Hill
#
# Bulk Modulus (GPa) = 8.14626 59.18400 33.66513
# Shear Modulus (GPa) = 7.19394 19.66556 13.42975
#
# Velocity S-wave (km/s) = 2.16995 3.58773 2.96483
# Velocity P-wave (km/s) = 3.40738 7.47666 5.80993
#
# Compressibility (1/GPa) = 0.12275572
#
# Stress axis : x y z
#
# Youngs Moduli (GPa) = 85.68881 85.68881 6.31721
#
# Poissons Ratio (x) = 0.46748 0.07576
# Poissons Ratio (y) = 0.46748 0.07576
# Poissons Ratio (z) = 1.02765 1.02765
#
# Static dielectric constant tensor:
#      x y z
#    x 3.182550 0.000000 0.000000 
#    y 0.000000 3.182550 0.000000 
#    z 0.000000 0.000000 2.309720 
# 
# 
# High freq. dielectric constant tensor:
#      x y z
#    x 1.584700 0.000000 0.000000 
#    y 0.000000 1.584700 0.000000 
#    z 0.000000 0.000000 1.515660 
# 
# From -- ./inp_files/1240.got.cif
#   From: 2010.03.12/outbox.cif.g09.slc.cpg/sg189_1_cif.got.tgz:1240.got - 2010.04.01 12:03:36.
