data_PCOD8327216
_publ_section_title
;
Structure prediction by ZEFSAII (Michael W. Deem and Ramdas Pophale) SiO2 
 PCOD8327216
Probable space group: P -6 M 2
;
_chemical_formula_sum "Si O2"
_cell_formula_units_Z 72
_cell_length_a 22.810045
_cell_length_b 22.810045
_cell_length_c 8.864913
_cell_angle_alpha 90.000000
_cell_angle_beta 90.000000
_cell_angle_gamma 120.000000
_cell_volume 3994.453719
_symmetry_space_group_name_H-M "P -6 M 2"
_symmetry_group_IT_number 187
_symmetry_cell_setting 'hexagonal'
loop_
_space_group_symop_operation_xyz
x,y,z
-x+y,-x,-z
-y,x-y,z
x,y,-z
-x+y,-x,z
-y,x-y,-z
-y,-x,-z
-x+y,y,-z
x,x-y,-z
-x+y,y,z
x,x-y,z
-y,-x,z
loop_
_atom_site_type_symbol
_atom_site_label
_atom_site_fract_x
_atom_site_fract_y
_atom_site_fract_z
Si Si1 0.743565 0.001675 0.676962
Si Si2 0.406318 0.463510 0.827008
Si Si3 0.476003 0.084204 0.323869
Si Si4 0.385747 0.259401 0.821692
Si Si5 0.864846 0.999961 0.826648
Si Si6 0.621823 0.877070 0.174510
O O1 0.739663 0.009936 0.500000
O O2 0.732298 0.057450 0.758024
O O3 0.816568 0.013106 0.719628
O O4 0.686141 0.927458 0.727059
O O5 0.456297 0.543704 0.795452
O O6 0.425862 0.419195 0.721563
O O7 0.329068 0.443054 0.790882
O O8 0.413493 0.446051 0.000000
O O9 0.467505 0.091068 0.500000
O O10 0.553027 0.106054 0.281228
O O11 0.456170 0.133485 0.235852
O O12 0.380635 0.190318 0.762359
O O13 0.383202 0.260187 0.000000
O O14 0.941350 0.058651 0.800408
O O15 0.859844 0.929922 0.780344
O O16 0.842828 0.998647 0.000000
O O17 0.600753 0.800377 0.217435
O O18 0.643304 0.892390 0.000000
#
# Coordination Sequence:
#
# PCOD8327216 Si02
#       6
#    12  12  12  12  12  12
#     4  12  24  36  52  77 108 141 177 224 280 331
#     4   9  17  31  53  78 105 140 181 222 264 314
#     4  10  20  34  55  84 114 141 172 215 267 319
#     4  11  23  38  57  81 110 146 186 225 267 318
#     4  10  21  38  58  76  96 129 176 226 274 328
#     4  10  20  34  53  77 108 146 185 224 268 321
#
# _framework density 18.024992999999998
#
# number of rings (size 3 to 8) (size 9 to 14) (size 15 to 20)
#    0.000    1.667    1.667    3.667    0.000    8.000 
#    0.000    0.000    0.000    1.667    0.000    2.333 
#    0.000    0.000    0.000    3.833    0.000    4.667 
#
# Total GULP energy -892976.976985 kJ/mol
# GULP energy per Si atom -12402.458014 kJ/mol
# Density = 1.798397 g / cm^3
# Si number density = 18.024993 Si / 1000 Ang^3
#
#
#
# Elastic Constant Matrix: (Units=GPa)
#
#
# Indices 1 2 3 4 5 6 
#
# 1 92.5634 35.4260 31.8320 0.0000 0.0002 0.0000
# 2 35.4260 92.5634 31.8320 0.0000 -0.0002 0.0000
# 3 31.8320 31.8320 63.7854 0.0000 0.0000 0.0000
# 4 0.0000 0.0000 0.0000 14.9659 0.0000 -0.0002
# 5 0.0002 -0.0002 0.0000 0.0000 14.9659 0.0000
# 6 0.0000 0.0000 0.0000 -0.0002 0.0000 28.5687
#
#
#
# Elastic Compliance Matrix: (Units=1/GPa)
#
#
# Indices 1 2 3 4 5 6 
#
# 1 0.013947 -0.003554 -0.005187 0.000000 0.000000 0.000000
# 2 -0.003554 0.013947 -0.005187 0.000000 0.000000 0.000000
# 3 -0.005187 -0.005187 0.020854 0.000000 0.000000 0.000000
# 4 0.000000 0.000000 0.000000 0.066819 0.000000 0.000000
# 5 0.000000 0.000000 0.000000 0.000000 0.066819 0.000000
# 6 0.000000 0.000000 0.000000 0.000000 0.000000 0.035003
#
#
# Mechanical properties :
#
#
# Convention : Reuss Voigt Hill
#
# Bulk Modulus (GPa) = 47.86084 49.67690 48.76887
# Shear Modulus (GPa) = 19.82478 21.68823 20.75650
#
# Velocity S-wave (km/s) = 3.32000 3.47253 3.39712
# Velocity P-wave (km/s) = 6.42702 6.61043 6.51937
#
# Compressibility (1/GPa) = 0.02089391
#
# Stress axis : x y z
#
# Youngs Moduli (GPa) = 71.69810 71.69810 47.95171
#
# Poissons Ratio (x) = 0.25484 0.24871
# Poissons Ratio (y) = 0.25484 0.24871
# Poissons Ratio (z) = 0.37187 0.37187
#
# Static dielectric constant tensor:
#      x y z
#    x 3.448330 0.000000 0.000000 
#    y 0.000000 3.448330 0.000000 
#    z 0.000000 0.000000 3.337290 
# 
# 
# High freq. dielectric constant tensor:
#      x y z
#    x 1.692670 0.000000 0.000000 
#    y 0.000000 1.692670 0.000000 
#    z 0.000000 0.000000 1.697900 
# 
# From -- ./inp_files/976.got.cif
#   From: 2010.03.12/outbox.cif.g09.slc.cpg/sg187_1_cif.got.tgz:976.got - 2010.04.01 11:58:23.
