data_PCOD8327909
_publ_section_title
;
Structure prediction by ZEFSAII (Michael W. Deem and Ramdas Pophale) SiO2 
 PCOD8327909
Probable space group: P -6 2 M
;
_chemical_formula_sum "Si O2"
_cell_formula_units_Z 60
_cell_length_a 20.707422
_cell_length_b 20.707422
_cell_length_c 9.549998
_cell_angle_alpha 90.000000
_cell_angle_beta 90.000000
_cell_angle_gamma 120.000000
_cell_volume 3546.385810
_symmetry_space_group_name_H-M "P -6 2 M"
_symmetry_group_IT_number 189
_symmetry_cell_setting 'hexagonal'
loop_
_space_group_symop_operation_xyz
x,y,z
-x+y,-x,-z
-y,x-y,z
x,y,-z
-x+y,-x,z
-y,x-y,-z
x-y,-y,-z
-x,-x+y,-z
y,x,-z
y,x,z
x-y,-y,z
-x,-x+y,z
loop_
_atom_site_type_symbol
_atom_site_label
_atom_site_fract_x
_atom_site_fract_y
_atom_site_fract_z
Si Si1 0.084888 0.693792 0.662117
Si Si2 0.826719 0.467613 0.838080
Si Si3 0.852200 0.218760 0.664078
Si Si4 0.000000 0.221480 0.666685
Si Si5 0.691678 0.491825 0.162135
Si Si6 0.919966 0.919966 0.664738
O O1 0.092827 0.679305 0.500000
O O2 0.108615 0.642828 0.749498
O O3 0.138090 0.780916 0.699745
O O4 0.000000 0.670594 0.699715
O O5 0.821150 0.390789 0.790888
O O6 0.746654 0.459595 0.808575
O O7 0.848781 0.484822 0.000000
O O8 0.856657 0.236165 0.500000
O O9 0.925888 0.219956 0.719705
O O10 0.849061 0.284641 0.745072
O O11 0.000000 0.217920 0.500000
O O12 0.000000 0.149934 0.737033
O O13 0.694082 0.513261 0.000000
O O14 0.908156 0.908156 0.500000
O O15 0.000000 0.926599 0.705034
#
# Coordination Sequence:
#
# PCOD8327909 Si02
#       6
#    12  12  12   6  12   6
#     4   9  18  32  47  67  94 124 158 194 232 274
#     4   9  17  30  50  71  92 119 153 195 237 278
#     4   9  18  31  47  67  94 126 158 189 227 280
#     4   9  16  28  45  65  93 128 157 184 228 281
#     4   9  17  31  49  70  93 119 153 194 237 277
#     4   7  12  22  38  65  95 116 143 188 232 267
#
# _framework density 16.918633
#
# number of rings (size 3 to 8) (size 9 to 14) (size 15 to 20)
#    0.200    3.000    0.000    0.400    0.000    3.600 
#    1.800    4.500    0.000    2.400    0.000    0.000 
#    0.000    2.400    0.000    0.000    0.000    0.000 
#
# Total GULP energy -743742.320160 kJ/mol
# GULP energy per Si atom -12395.705336 kJ/mol
# Density = 1.688013 g / cm^3
# Si number density = 16.918633 Si / 1000 Ang^3
#
#
#
# Elastic Constant Matrix: (Units=GPa)
#
#
# Indices 1 2 3 4 5 6 
#
# 1 135.9500 85.2662 42.8067 0.0000 0.0000 0.0000
# 2 85.2662 135.9500 42.8067 0.0000 0.0000 0.0000
# 3 42.8067 42.8067 37.1731 0.0000 0.0000 0.0000
# 4 0.0000 0.0000 0.0000 19.3956 0.0000 0.0000
# 5 0.0000 0.0000 0.0000 0.0000 19.3956 0.0000
# 6 0.0000 0.0000 0.0000 0.0000 0.0000 25.3419
#
#
#
# Elastic Compliance Matrix: (Units=1/GPa)
#
#
# Indices 1 2 3 4 5 6 
#
# 1 0.013942 -0.005788 -0.009391 0.000000 0.000000 0.000000
# 2 -0.005788 0.013942 -0.009391 0.000000 0.000000 0.000000
# 3 -0.009391 -0.009391 0.048529 0.000000 0.000000 0.000000
# 4 0.000000 0.000000 0.000000 0.051558 0.000000 0.000000
# 5 0.000000 0.000000 0.000000 0.000000 0.051558 0.000000
# 6 0.000000 0.000000 0.000000 0.000000 0.000000 0.039460
#
#
# Mechanical properties :
#
#
# Convention : Reuss Voigt Hill
#
# Bulk Modulus (GPa) = 36.66264 72.31470 54.48867
# Shear Modulus (GPa) = 18.03624 22.03952 20.03788
#
# Velocity S-wave (km/s) = 3.26860 3.61318 3.44520
# Velocity P-wave (km/s) = 5.99683 7.76158 6.93557
#
# Compressibility (1/GPa) = 0.02727572
#
# Stress axis : x y z
#
# Youngs Moduli (GPa) = 71.72343 71.72343 20.60643
#
# Poissons Ratio (x) = 0.41511 0.19351
# Poissons Ratio (y) = 0.41511 0.19351
# Poissons Ratio (z) = 0.67352 0.67352
#
# Static dielectric constant tensor:
#      x y z
#    x 3.284210 0.000000 0.000000 
#    y 0.000000 3.284210 0.000000 
#    z 0.000000 0.000000 2.951560 
# 
# 
# High freq. dielectric constant tensor:
#      x y z
#    x 1.650840 0.000000 0.000000 
#    y 0.000000 1.650840 0.000000 
#    z 0.000000 0.000000 1.626200 
# 
# From -- ./inp_files/973.got.cif
#   From: 2010.03.12/outbox.cif.g09.slc.cpg/sg189_1_cif.got.tgz:973.got - 2010.04.01 12:03:36.
