data_PCOD8327327
_publ_section_title
;
Structure prediction by ZEFSAII (Michael W. Deem and Ramdas Pophale) SiO2 
 PCOD8327327
Probable space group: P -6 C 2
;
_chemical_formula_sum "Si O2"
_cell_formula_units_Z 48
_cell_length_a 19.282983
_cell_length_b 19.282983
_cell_length_c 8.721453
_cell_angle_alpha 90.000000
_cell_angle_beta 90.000000
_cell_angle_gamma 120.000000
_cell_volume 2808.457869
_symmetry_space_group_name_H-M "P -6 C 2"
_symmetry_group_IT_number 188
_symmetry_cell_setting 'hexagonal'
loop_
_space_group_symop_operation_xyz
x,y,z
-x+y,-x,1/2-z
-y,x-y,z
x,y,1/2-z
-x+y,-x,z
-y,x-y,1/2-z
-y,-x,-z
-x+y,y,-z
x,x-y,-z
-x+y,y,1/2+z
x,x-y,1/2+z
-y,-x,1/2+z
loop_
_atom_site_type_symbol
_atom_site_label
_atom_site_fract_x
_atom_site_fract_y
_atom_site_fract_z
Si Si1 0.519454 0.185670 0.931246
Si Si2 0.111535 0.484627 0.422523
Si Si3 0.957549 0.624892 0.577686
Si Si4 0.241107 0.341303 0.069471
O O1 0.527683 0.191920 0.750000
O O2 0.579388 0.158776 0.000000
O O3 0.542646 0.271323 0.000000
O O4 0.428967 0.120803 0.977514
O O5 0.146357 0.498639 0.250000
O O6 0.138888 0.569444 0.500000
O O7 0.144278 0.435662 0.520956
O O8 0.014279 0.429641 0.418362
O O9 0.931697 0.633150 0.750000
O O10 0.009915 0.713752 0.501552
O O11 0.235976 0.331191 0.250000
O O12 0.151821 0.303641 0.000000
#
# Coordination Sequence:
#
# PCOD8327327 Si02
#       4
#    12  12  12  12
#     4  12  24  38  54  73  99 133 174 222 271 321
#     4   9  17  27  43  65  89 117 153 194 237 286
#     4   9  19  33  50  71  94 123 162 204 249 304
#     4  10  18  30  47  69  94 121 153 195 242 290
#
# _framework density 17.091229999999999
#
# number of rings (size 3 to 8) (size 9 to 14) (size 15 to 20)
#    1.500    0.500    0.000    6.250    0.000    2.000 
#    0.000    0.000    0.000    0.500    0.000    3.500 
#    0.000    0.000    0.000    0.750    0.000   10.500 
#
# Total GULP energy -594728.178972 kJ/mol
# GULP energy per Si atom -12390.170395 kJ/mol
# Density = 1.705233 g / cm^3
# Si number density = 17.091230 Si / 1000 Ang^3
#
#
#
# Elastic Constant Matrix: (Units=GPa)
#
#
# Indices 1 2 3 4 5 6 
#
# 1 53.1063 14.1502 29.5379 0.0002 0.0000 0.0000
# 2 14.1502 53.1063 29.5379 -0.0002 0.0000 0.0000
# 3 29.5379 29.5379 168.3495 0.0000 0.0000 0.0000
# 4 0.0002 -0.0002 0.0000 24.9051 0.0000 0.0000
# 5 0.0000 0.0000 0.0000 0.0000 24.9051 0.0002
# 6 0.0000 0.0000 0.0000 0.0000 0.0002 19.4780
#
#
#
# Elastic Compliance Matrix: (Units=1/GPa)
#
#
# Indices 1 2 3 4 5 6 
#
# 1 0.021624 -0.004046 -0.003084 0.000000 0.000000 0.000000
# 2 -0.004046 0.021624 -0.003084 0.000000 0.000000 0.000000
# 3 -0.003084 -0.003084 0.007022 0.000000 0.000000 0.000000
# 4 0.000000 0.000000 0.000000 0.040152 0.000000 0.000000
# 5 0.000000 0.000000 0.000000 0.000000 0.040152 0.000000
# 6 0.000000 0.000000 0.000000 0.000000 0.000000 0.051340
#
#
# Mechanical properties :
#
#
# Convention : Reuss Voigt Hill
#
# Bulk Modulus (GPa) = 33.51118 46.77935 40.14526
# Shear Modulus (GPa) = 23.55270 27.28006 25.41638
#
# Velocity S-wave (km/s) = 3.71625 3.99951 3.86048
# Velocity P-wave (km/s) = 6.16959 6.98269 6.58869
#
# Compressibility (1/GPa) = 0.02984079
#
# Stress axis : x y z
#
# Youngs Moduli (GPa) = 46.24567 46.24567 142.40446
#
# Poissons Ratio (x) = 0.18712 0.43918
# Poissons Ratio (y) = 0.18712 0.43918
# Poissons Ratio (z) = 0.14262 0.14262
#
# Static dielectric constant tensor:
#      x y z
#    x 2.865730 0.000000 0.000000 
#    y 0.000000 2.865730 0.000000 
#    z 0.000000 0.000000 3.231970 
# 
# 
# High freq. dielectric constant tensor:
#      x y z
#    x 1.620160 0.000000 0.000000 
#    y 0.000000 1.620160 0.000000 
#    z 0.000000 0.000000 1.682790 
# 
# From -- ./inp_files/369.got.cif
#   From: 2010.03.12/outbox.cif.g09.slc.cpg/sg188_1_cif.got.tgz:369.got - 2010.04.01 12:01:06.
