data_PCOD8327706
_publ_section_title
;
Structure prediction by ZEFSAII (Michael W. Deem and Ramdas Pophale) SiO2 
 PCOD8327706
Probable space group: P -6 2 M
;
_chemical_formula_sum "Si O2"
_cell_formula_units_Z 78
_cell_length_a 24.343283
_cell_length_b 24.343283
_cell_length_c 8.407104
_cell_angle_alpha 90.000000
_cell_angle_beta 90.000000
_cell_angle_gamma 120.000000
_cell_volume 4314.548423
_symmetry_space_group_name_H-M "P -6 2 M"
_symmetry_group_IT_number 189
_symmetry_cell_setting 'hexagonal'
loop_
_space_group_symop_operation_xyz
x,y,z
-x+y,-x,-z
-y,x-y,z
x,y,-z
-x+y,-x,z
-y,x-y,-z
x-y,-y,-z
-x,-x+y,-z
y,x,-z
y,x,z
x-y,-y,z
-x,-x+y,z
loop_
_atom_site_type_symbol
_atom_site_label
_atom_site_fract_x
_atom_site_fract_y
_atom_site_fract_z
Si Si1 0.689530 0.069252 0.183205
Si Si2 0.818651 0.624478 0.678264
Si Si3 0.317563 0.727494 0.000000
Si Si4 0.736157 0.474461 0.678870
Si Si5 0.485611 0.072814 0.815688
Si Si6 0.634094 0.704970 0.311904
Si Si7 0.516313 0.379825 0.678980
O O1 0.762905 0.116616 0.227992
O O2 0.644570 0.098652 0.214454
O O3 0.661058 0.000000 0.267922
O O4 0.688779 0.057505 0.000000
O O5 0.840518 0.647030 0.500000
O O6 0.772247 0.549668 0.687861
O O7 0.777036 0.655574 0.742737
O O8 0.264600 0.652152 0.000000
O O9 0.310328 0.758241 0.833747
O O10 0.703622 0.452803 0.500000
O O11 0.787815 0.451751 0.698174
O O12 0.432439 0.090281 0.770340
O O13 0.548954 0.118344 0.720276
O O14 0.461811 0.000000 0.770937
O O15 0.501305 0.086064 0.000000
O O16 0.622322 0.697814 0.500000
O O17 0.688022 0.688022 0.260675
O O18 0.492398 0.376286 0.500000
#
# Coordination Sequence:
#
# PCOD8327706 Si02
#       7
#    12  12   6  12  12  12  12
#     4  10  20  32  49  75 102 130 163 198 240 291
#     4   9  19  34  53  76  97 128 163 194 248 300
#     4  10  24  38  50  72  86 118 171 200 260 316
#     4   9  20  37  53  71  96 121 160 209 249 308
#     4  10  20  31  44  68  97 123 154 195 244 293
#     4   9  18  34  53  73  98 126 162 204 243 293
#     4  10  20  32  49  71  93 124 158 197 253 301
#
# _framework density 18.078368999999999
#
# number of rings (size 3 to 8) (size 9 to 14) (size 15 to 20)
#    0.154    2.308    0.000    2.769    5.385    6.462 
#    0.000    3.077    0.000    0.000    0.000    0.000 
#    0.000    0.000    0.000    0.462    0.000    7.077 
#
# Total GULP energy -966527.348538 kJ/mol
# GULP energy per Si atom -12391.376263 kJ/mol
# Density = 1.803722 g / cm^3
# Si number density = 18.078369 Si / 1000 Ang^3
#
#
#
# Elastic Constant Matrix: (Units=GPa)
#
#
# Indices 1 2 3 4 5 6 
#
# 1 52.7705 9.5342 16.2422 0.0000 0.0000 0.0000
# 2 9.5342 52.7705 16.2422 0.0000 0.0000 0.0000
# 3 16.2422 16.2422 71.7264 0.0000 0.0000 0.0000
# 4 0.0000 0.0000 0.0000 18.3931 0.0000 0.0000
# 5 0.0000 0.0000 0.0000 0.0000 18.3931 0.0000
# 6 0.0000 0.0000 0.0000 0.0000 0.0000 21.6181
#
#
#
# Elastic Compliance Matrix: (Units=1/GPa)
#
#
# Indices 1 2 3 4 5 6 
#
# 1 0.020664 -0.002465 -0.004121 0.000000 0.000000 0.000000
# 2 -0.002465 0.020664 -0.004121 0.000000 0.000000 0.000000
# 3 -0.004121 -0.004121 0.015808 0.000000 0.000000 0.000000
# 4 0.000000 0.000000 0.000000 0.054368 0.000000 0.000000
# 5 0.000000 0.000000 0.000000 0.000000 0.054368 0.000000
# 6 0.000000 0.000000 0.000000 0.000000 0.000000 0.046257
#
#
# Mechanical properties :
#
#
# Convention : Reuss Voigt Hill
#
# Bulk Modulus (GPa) = 27.99424 29.03384 28.51404
# Shear Modulus (GPa) = 20.37065 20.69744 20.53404
#
# Velocity S-wave (km/s) = 3.36042 3.38727 3.37387
# Velocity P-wave (km/s) = 5.52948 5.60294 5.56633
#
# Compressibility (1/GPa) = 0.03572163
#
# Stress axis : x y z
#
# Youngs Moduli (GPa) = 48.39392 48.39392 63.25806
#
# Poissons Ratio (x) = 0.11929 0.26069
# Poissons Ratio (y) = 0.11929 0.26069
# Poissons Ratio (z) = 0.19943 0.19943
#
# Static dielectric constant tensor:
#      x y z
#    x 3.386010 0.000000 0.000000 
#    y 0.000000 3.386010 0.000000 
#    z 0.000000 0.000000 3.455120 
# 
# 
# High freq. dielectric constant tensor:
#      x y z
#    x 1.672250 0.000000 0.000000 
#    y 0.000000 1.672250 0.000000 
#    z 0.000000 0.000000 1.709900 
# 
# From -- ./inp_files/1427.got.cif
#   From: 2010.03.12/outbox.cif.g09.slc.cpg/sg189_1_cif.got.tgz:1427.got - 2010.04.01 12:03:36.
