data_PCOD8327398
_publ_section_title
;
Structure prediction by ZEFSAII (Michael W. Deem and Ramdas Pophale) SiO2 
 PCOD8327398
Probable space group: P -6 C 2
;
_chemical_formula_sum "Si O2"
_cell_formula_units_Z 56
_cell_length_a 14.239051
_cell_length_b 14.239051
_cell_length_c 18.427126
_cell_angle_alpha 90.000000
_cell_angle_beta 90.000000
_cell_angle_gamma 120.000000
_cell_volume 3235.566485
_symmetry_space_group_name_H-M "P -6 C 2"
_symmetry_group_IT_number 188
_symmetry_cell_setting 'hexagonal'
loop_
_space_group_symop_operation_xyz
x,y,z
-x+y,-x,1/2-z
-y,x-y,z
x,y,1/2-z
-x+y,-x,z
-y,x-y,1/2-z
-y,-x,-z
-x+y,y,-z
x,x-y,-z
-x+y,y,1/2+z
x,x-y,1/2+z
-y,-x,1/2+z
loop_
_atom_site_type_symbol
_atom_site_label
_atom_site_fract_x
_atom_site_fract_y
_atom_site_fract_z
Si Si1 0.873901 0.756802 0.413650
Si Si2 0.442968 0.567473 0.831800
Si Si3 0.673032 0.937457 0.835028
Si Si4 0.275944 0.315834 0.332327
Si Si5 0.000000 0.000000 0.414293
Si Si6 0.333335 0.666668 0.415076
O O1 0.872437 0.744874 0.500000
O O2 0.753919 0.711849 0.382360
O O3 0.941851 0.879190 0.384563
O O4 0.936528 0.699144 0.381011
O O5 0.412723 0.584151 0.750000
O O6 0.368957 0.442548 0.853848
O O7 0.570736 0.611216 0.837597
O O8 0.426062 0.644727 0.886205
O O9 0.700114 0.960934 0.750000
O O10 0.675359 0.828728 0.859015
O O11 0.254280 0.273229 0.250000
O O12 0.000000 0.000000 0.500000
O O13 0.333334 0.666667 0.500000
#
# Coordination Sequence:
#
# PCOD8327398 Si02
#       6
#    12  12  12  12   4   4
#     4  11  21  35  52  75 114 148 174 214 267 326
#     4  10  20  38  57  76 109 148 183 223 271 318
#     4  10  20  34  56  81 105 139 183 227 266 315
#     4  10  20  34  56  81 105 139 183 227 266 315
#     4   9  18  30  46  71 103 144 175 200 250 312
#     4  12  22  29  49  84 118 146 178 219 262 332
#
# _framework density 17.307632999999999
#
# number of rings (size 3 to 8) (size 9 to 14) (size 15 to 20)
#    0.000    1.714    4.286    1.286    0.000    1.714 
#    0.000    0.000    0.000    0.857    0.000    3.000 
#    0.000    0.000    0.000    0.000    0.000    0.000 
#
# Total GULP energy -694289.016292 kJ/mol
# GULP energy per Si atom -12398.018148 kJ/mol
# Density = 1.726824 g / cm^3
# Si number density = 17.307633 Si / 1000 Ang^3
#
#
#
# Elastic Constant Matrix: (Units=GPa)
#
#
# Indices 1 2 3 4 5 6 
#
# 1 98.0266 38.4239 40.4416 0.0002 0.0002 0.0001
# 2 38.4239 98.0273 40.4421 0.0001 0.0003 0.0002
# 3 40.4416 40.4421 79.6825 0.0000 0.0000 0.0002
# 4 0.0002 0.0001 0.0000 20.0385 0.0004 0.0000
# 5 0.0002 0.0003 0.0000 0.0004 20.0371 -0.0001
# 6 0.0001 0.0002 0.0002 0.0000 -0.0001 29.8015
#
#
#
# Elastic Compliance Matrix: (Units=1/GPa)
#
#
# Indices 1 2 3 4 5 6 
#
# 1 0.013630 -0.003148 -0.005320 0.000000 0.000000 0.000000
# 2 -0.003148 0.013630 -0.005320 0.000000 0.000000 0.000000
# 3 -0.005320 -0.005320 0.017950 0.000000 0.000000 0.000000
# 4 0.000000 0.000000 0.000000 0.049904 -0.000001 0.000000
# 5 0.000000 0.000000 0.000000 -0.000001 0.049907 0.000000
# 6 0.000000 0.000000 0.000000 0.000000 0.000000 0.033555
#
#
# Mechanical properties :
#
#
# Convention : Reuss Voigt Hill
#
# Bulk Modulus (GPa) = 56.70828 57.15017 56.92923
# Shear Modulus (GPa) = 23.58150 24.40401 23.99275
#
# Velocity S-wave (km/s) = 3.69520 3.75909 3.72728
# Velocity P-wave (km/s) = 7.14437 7.20645 7.17548
#
# Compressibility (1/GPa) = 0.01763411
#
# Stress axis : x y z
#
# Youngs Moduli (GPa) = 73.36767 73.36796 55.70989
#
# Poissons Ratio (x) = 0.23094 0.29638
# Poissons Ratio (y) = 0.23094 0.29639
# Poissons Ratio (z) = 0.39032 0.39033
#
# Static dielectric constant tensor:
#      x y z
#    x 3.146800 0.000000 0.000000 
#    y 0.000000 3.146800 0.000000 
#    z 0.000000 0.000000 3.095380 
# 
# 
# High freq. dielectric constant tensor:
#      x y z
#    x 1.656710 0.000000 0.000000 
#    y 0.000000 1.656710 0.000000 
#    z 0.000000 0.000000 1.662720 
# 
# From -- ./inp_files/3028.got.cif
#   From: 2010.03.12/outbox.cif.g09.slc.cpg/sg188_2_cif.got.tgz:3028.got - 2010.04.01 12:01:06.
