data_PCOD8327205
_publ_section_title
;
Structure prediction by ZEFSAII (Michael W. Deem and Ramdas Pophale) SiO2 
 PCOD8327205
Probable space group: P -6 M 2
;
_chemical_formula_sum "Si O2"
_cell_formula_units_Z 60
_cell_length_a 12.395058
_cell_length_b 12.395058
_cell_length_c 25.807203
_cell_angle_alpha 90.000000
_cell_angle_beta 90.000000
_cell_angle_gamma 120.000000
_cell_volume 3433.750189
_symmetry_space_group_name_H-M "P -6 M 2"
_symmetry_group_IT_number 187
_symmetry_cell_setting 'hexagonal'
loop_
_space_group_symop_operation_xyz
x,y,z
-x+y,-x,-z
-y,x-y,z
x,y,-z
-x+y,-x,z
-y,x-y,-z
-y,-x,-z
-x+y,y,-z
x,x-y,-z
-x+y,y,z
x,x-y,z
-y,-x,z
loop_
_atom_site_type_symbol
_atom_site_label
_atom_site_fract_x
_atom_site_fract_y
_atom_site_fract_z
Si Si1 0.919935 0.585301 0.099765
Si Si2 0.746568 0.998625 0.299666
Si Si3 0.080098 0.413518 0.199700
Si Si4 0.665190 0.079814 0.500000
Si Si5 0.334596 0.920030 0.000000
Si Si6 0.586767 0.920092 0.600226
O O1 0.795694 0.591388 0.098384
O O2 0.883731 0.441866 0.098924
O O3 0.995725 0.654203 0.150867
O O4 0.001620 0.657694 0.050354
O O5 0.782896 0.891448 0.299185
O O6 0.663579 0.988489 0.250565
O O7 0.670281 0.991528 0.350649
O O8 0.870437 0.129564 0.298138
O O9 0.213463 0.426926 0.191785
O O10 0.101094 0.550547 0.205351
O O11 0.796511 0.203490 0.500000
O O12 0.558351 0.116702 0.500000
O O13 0.656067 0.999743 0.549982
O O14 0.204733 0.795268 0.000000
O O15 0.442000 0.884000 0.000000
O O16 0.452300 0.904600 0.607823
O O17 0.567805 0.783903 0.593850
#
# Coordination Sequence:
#
# PCOD8327205 Si02
#       6
#    12  12  12   6   6  12
#     4  10  20  34  53  76 103 135 170 209 252 300
#     4  10  20  34  52  74 102 136 172 209 250 299
#     4  10  20  34  54  78 104 134 168 210 256 302
#     4  10  20  34  52  74 102 136 172 210 252 300
#     4  10  20  34  54  78 104 134 168 210 256 302
#     4  10  20  34  54  78 104 134 168 210 256 302
#
# _framework density 17.473607999999999
#
# number of rings (size 3 to 8) (size 9 to 14) (size 15 to 20)
#    0.000    2.000    0.000    4.000    0.000    0.000 
#    0.000    6.000    0.000   15.200    0.000    0.000 
#    0.000    0.000    0.000    0.000    0.000    0.000 
#
# Total GULP energy -744253.357243 kJ/mol
# GULP energy per Si atom -12404.222621 kJ/mol
# Density = 1.743384 g / cm^3
# Si number density = 17.473608 Si / 1000 Ang^3
#
#
#
# Elastic Constant Matrix: (Units=GPa)
#
#
# Indices 1 2 3 4 5 6 
#
# 1 113.3931 72.9840 74.4653 0.0000 0.0000 0.0000
# 2 72.9840 113.3931 74.4653 0.0000 0.0000 0.0000
# 3 74.4653 74.4653 152.1702 0.0000 0.0000 0.0000
# 4 0.0000 0.0000 0.0000 22.9255 0.0000 0.0000
# 5 0.0000 0.0000 0.0000 0.0000 22.9255 0.0000
# 6 0.0000 0.0000 0.0000 0.0000 0.0000 20.2045
#
#
#
# Elastic Compliance Matrix: (Units=1/GPa)
#
#
# Indices 1 2 3 4 5 6 
#
# 1 0.016779 -0.007968 -0.004312 0.000000 0.000000 0.000000
# 2 -0.007968 0.016779 -0.004312 0.000000 0.000000 0.000000
# 3 -0.004312 -0.004312 0.010791 0.000000 0.000000 0.000000
# 4 0.000000 0.000000 0.000000 0.043620 0.000000 0.000000
# 5 0.000000 0.000000 0.000000 0.000000 0.043620 0.000000
# 6 0.000000 0.000000 0.000000 0.000000 0.000000 0.049494
#
#
# Mechanical properties :
#
#
# Convention : Reuss Voigt Hill
#
# Bulk Modulus (GPa) = 89.55309 91.42062 90.48686
# Shear Modulus (GPa) = 22.93717 23.68056 23.30887
#
# Velocity S-wave (km/s) = 3.62702 3.68532 3.65629
# Velocity P-wave (km/s) = 8.30073 8.39891 8.34996
#
# Compressibility (1/GPa) = 0.01116656
#
# Stress axis : x y z
#
# Youngs Moduli (GPa) = 59.59877 59.59877 92.66633
#
# Poissons Ratio (x) = 0.47489 0.39954
# Poissons Ratio (y) = 0.47489 0.39954
# Poissons Ratio (z) = 0.25697 0.25697
#
# Static dielectric constant tensor:
#      x y z
#    x 3.216510 0.000000 0.000000 
#    y 0.000000 3.216510 0.000000 
#    z 0.000000 0.000000 3.495230 
# 
# 
# High freq. dielectric constant tensor:
#      x y z
#    x 1.679560 0.000000 0.000000 
#    y 0.000000 1.679560 0.000000 
#    z 0.000000 0.000000 1.698010 
# 
# From -- ./inp_files/4181.got.cif
#   From: 2010.03.12/outbox.cif.g09.slc.cpg/sg187_3_cif.got.tgz:4181.got - 2010.04.01 11:58:23.
