data_PCOD8327523
_publ_section_title
;
Structure prediction by ZEFSAII (Michael W. Deem and Ramdas Pophale) SiO2 
 PCOD8327523
Probable space group: P -6 2 M
;
_chemical_formula_sum "Si O2"
_cell_formula_units_Z 48
_cell_length_a 20.612694
_cell_length_b 20.612694
_cell_length_c 7.739809
_cell_angle_alpha 90.000000
_cell_angle_beta 90.000000
_cell_angle_gamma 120.000000
_cell_volume 2847.937062
_symmetry_space_group_name_H-M "P -6 2 M"
_symmetry_group_IT_number 189
_symmetry_cell_setting 'hexagonal'
loop_
_space_group_symop_operation_xyz
x,y,z
-x+y,-x,-z
-y,x-y,z
x,y,-z
-x+y,-x,z
-y,x-y,-z
x-y,-y,-z
-x,-x+y,-z
y,x,-z
y,x,z
x-y,-y,z
-x,-x+y,z
loop_
_atom_site_type_symbol
_atom_site_label
_atom_site_fract_x
_atom_site_fract_y
_atom_site_fract_z
Si Si1 0.089712 0.553840 0.000000
Si Si2 0.084077 0.781221 0.795745
Si Si3 0.358472 0.447373 0.691821
Si Si4 0.591724 0.680063 0.000000
Si Si5 0.685780 0.771286 0.694913
O O1 0.121020 0.606242 0.830020
O O2 0.123211 0.497854 0.000000
O O3 0.000000 0.508849 0.000000
O O4 0.115944 0.727446 0.736754
O O5 0.139147 0.863341 0.717881
O O6 0.000000 0.751366 0.723834
O O7 0.083853 0.784804 0.000000
O O8 0.363714 0.480772 0.500000
O O9 0.403731 0.403731 0.702241
O O10 0.616303 0.730822 0.172371
O O11 0.628859 0.628859 0.000000
O O12 0.655304 0.747184 0.500000
O O13 0.748675 0.748675 0.737211
#
# Coordination Sequence:
#
# PCOD8327523 Si02
#       5
#     6  12  12   6  12
#     4   9  16  27  42  63  92 122 147 175 220 279
#     4  10  18  30  50  73  98 130 167 211 262 307
#     4   9  16  26  42  66  95 122 148 184 232 283
#     4   9  18  31  45  63  93 126 156 193 231 283
#     4  10  20  33  49  69  96 133 172 208 253 307
#
# _framework density 16.854303999999999
#
# number of rings (size 3 to 8) (size 9 to 14) (size 15 to 20)
#    0.000    2.500    2.500    0.750    0.000    2.500 
#    0.000    5.000    0.000    0.500    0.000    0.000 
#   10.000    0.000    3.000    0.000    0.000    0.000 
#
# Total GULP energy -595005.222030 kJ/mol
# GULP energy per Si atom -12395.942126 kJ/mol
# Density = 1.681594 g / cm^3
# Si number density = 16.854304 Si / 1000 Ang^3
#
#
#
# Elastic Constant Matrix: (Units=GPa)
#
#
# Indices 1 2 3 4 5 6 
#
# 1 81.0713 44.7426 41.4866 0.0000 0.0000 0.0000
# 2 44.7426 81.0713 41.4866 0.0000 0.0000 0.0000
# 3 41.4866 41.4866 129.8661 0.0000 0.0000 0.0000
# 4 0.0000 0.0000 0.0000 17.0557 0.0000 0.0000
# 5 0.0000 0.0000 0.0000 0.0000 17.0557 0.0000
# 6 0.0000 0.0000 0.0000 0.0000 0.0000 18.1644
#
#
#
# Elastic Compliance Matrix: (Units=1/GPa)
#
#
# Indices 1 2 3 4 5 6 
#
# 1 0.018798 -0.008728 -0.003217 0.000000 0.000000 0.000000
# 2 -0.008728 0.018798 -0.003217 0.000000 0.000000 0.000000
# 3 -0.003217 -0.003217 0.009756 0.000000 0.000000 0.000000
# 4 0.000000 0.000000 0.000000 0.058632 0.000000 0.000000
# 5 0.000000 0.000000 0.000000 0.000000 0.058632 0.000000
# 6 0.000000 0.000000 0.000000 0.000000 0.000000 0.055053
#
#
# Mechanical properties :
#
#
# Convention : Reuss Voigt Hill
#
# Bulk Modulus (GPa) = 58.72813 60.82667 59.77740
# Shear Modulus (GPa) = 19.55665 21.40801 20.48233
#
# Velocity S-wave (km/s) = 3.41007 3.56783 3.48984
# Velocity P-wave (km/s) = 7.10105 7.28976 7.19602
#
# Compressibility (1/GPa) = 0.01702762
#
# Stress axis : x y z
#
# Youngs Moduli (GPa) = 53.19695 53.19695 102.50607
#
# Poissons Ratio (x) = 0.46432 0.32975
# Poissons Ratio (y) = 0.46432 0.32975
# Poissons Ratio (z) = 0.17113 0.17113
#
# Static dielectric constant tensor:
#      x y z
#    x 3.049690 0.000000 0.000000 
#    y 0.000000 3.049690 0.000000 
#    z 0.000000 0.000000 3.426370 
# 
# 
# High freq. dielectric constant tensor:
#      x y z
#    x 1.613620 0.000000 0.000000 
#    y 0.000000 1.613620 0.000000 
#    z 0.000000 0.000000 1.672650 
# 
# From -- ./inp_files/776.got.cif
#   From: 2010.03.12/outbox.cif.g09.slc.cpg/sg189_1_cif.got.tgz:776.got - 2010.04.01 12:03:36.
