data_PCOD8327685
_publ_section_title
;
Structure prediction by ZEFSAII (Michael W. Deem and Ramdas Pophale) SiO2 
 PCOD8327685
Probable space group: P -6 2 M
;
_chemical_formula_sum "Si O2"
_cell_formula_units_Z 84
_cell_length_a 18.029099
_cell_length_b 18.029099
_cell_length_c 14.258943
_cell_angle_alpha 90.000000
_cell_angle_beta 90.000000
_cell_angle_gamma 120.000000
_cell_volume 4013.895038
_symmetry_space_group_name_H-M "P -6 2 M"
_symmetry_group_IT_number 189
_symmetry_cell_setting 'hexagonal'
loop_
_space_group_symop_operation_xyz
x,y,z
-x+y,-x,-z
-y,x-y,z
x,y,-z
-x+y,-x,z
-y,x-y,-z
x-y,-y,-z
-x,-x+y,-z
y,x,-z
y,x,z
x-y,-y,z
-x,-x+y,z
loop_
_atom_site_type_symbol
_atom_site_label
_atom_site_fract_x
_atom_site_fract_y
_atom_site_fract_z
Si Si1 0.826550 0.614389 0.889929
Si Si2 0.342311 0.899749 0.787043
Si Si3 0.906394 0.810815 0.608916
Si Si4 0.491424 0.394860 0.795174
Si Si5 0.372303 0.141628 0.392354
Si Si6 0.096657 0.903785 0.110946
Si Si7 0.663380 0.093487 0.399189
O O1 0.729662 0.583944 0.864898
O O2 0.851169 0.550146 0.839239
O O3 0.880368 0.712700 0.853130
O O4 0.838479 0.608333 0.000000
O O5 0.407940 0.865728 0.813403
O O6 0.308590 0.881932 0.679098
O O7 0.388596 0.000000 0.805038
O O8 0.910560 0.792609 0.500000
O O9 0.888397 0.888397 0.625564
O O10 0.826744 0.723887 0.649709
O O11 0.000000 0.839709 0.654535
O O12 0.435343 0.435343 0.833288
O O13 0.493007 0.392610 0.682475
O O14 0.374021 0.110347 0.500000
O O15 0.411001 0.241715 0.389429
O O16 0.000000 0.873793 0.142432
O O17 0.159220 0.000000 0.152656
O O18 0.105577 0.908943 0.000000
O O19 0.626220 0.101330 0.500000
O O20 0.657185 0.000000 0.392669
#
# Coordination Sequence:
#
# PCOD8327685 Si02
#       7
#    12  12  12  12  12  12  12
#     4  11  23  42  65  90 120 163 212 259 316 379
#     4  11  24  41  62  92 126 159 201 257 317 374
#     4   9  16  26  43  72 114 164 213 255 293 339
#     4  10  22  41  64  90 119 153 199 257 317 376
#     4  10  19  34  58  88 123 163 206 250 303 371
#     4   9  17  31  56  91 129 166 204 247 296 357
#     4   9  17  33  60  91 120 153 197 248 305 372
#
# _framework density 20.927305
#
# number of rings (size 3 to 8) (size 9 to 14) (size 15 to 20)
#    0.000    2.143    1.429    2.000    0.000    6.571 
#    0.857    2.857    0.000    0.000    0.000    2.000 
#    0.000    0.000    0.000    0.000    0.000    0.000 
#
# Total GULP energy -1040682.642280 kJ/mol
# GULP energy per Si atom -12389.079075 kJ/mol
# Density = 2.087967 g / cm^3
# Si number density = 20.927305 Si / 1000 Ang^3
#
#
#
# Elastic Constant Matrix: (Units=GPa)
#
#
# Indices 1 2 3 4 5 6 
#
# 1 110.0557 54.9629 22.8336 0.0000 0.0000 0.0000
# 2 54.9629 110.0557 22.8336 0.0000 0.0000 0.0000
# 3 22.8336 22.8336 68.9635 0.0000 0.0000 0.0000
# 4 0.0000 0.0000 0.0000 17.2053 0.0000 0.0000
# 5 0.0000 0.0000 0.0000 0.0000 17.2053 0.0000
# 6 0.0000 0.0000 0.0000 0.0000 0.0000 27.5464
#
#
#
# Elastic Compliance Matrix: (Units=1/GPa)
#
#
# Indices 1 2 3 4 5 6 
#
# 1 0.012411 -0.005740 -0.002209 0.000000 0.000000 0.000000
# 2 -0.005740 0.012411 -0.002209 0.000000 0.000000 0.000000
# 3 -0.002209 -0.002209 0.015963 0.000000 0.000000 0.000000
# 4 0.000000 0.000000 0.000000 0.058122 0.000000 0.000000
# 5 0.000000 0.000000 0.000000 0.000000 0.058122 0.000000
# 6 0.000000 0.000000 0.000000 0.000000 0.000000 0.036302
#
#
# Mechanical properties :
#
#
# Convention : Reuss Voigt Hill
#
# Bulk Modulus (GPa) = 48.85142 54.48166 51.66654
# Shear Modulus (GPa) = 22.67887 24.95440 23.81663
#
# Velocity S-wave (km/s) = 3.29553 3.45691 3.37718
# Velocity P-wave (km/s) = 6.15425 6.48258 6.32055
#
# Compressibility (1/GPa) = 0.02047023
#
# Stress axis : x y z
#
# Youngs Moduli (GPa) = 80.57249 80.57249 62.64451
#
# Poissons Ratio (x) = 0.46249 0.13837
# Poissons Ratio (y) = 0.46249 0.13837
# Poissons Ratio (z) = 0.17797 0.17797
#
# Static dielectric constant tensor:
#      x y z
#    x 3.784770 0.000000 0.000000 
#    y 0.000000 3.784770 0.000000 
#    z 0.000000 0.000000 3.860340 
# 
# 
# High freq. dielectric constant tensor:
#      x y z
#    x 1.810610 0.000000 0.000000 
#    y 0.000000 1.810610 0.000000 
#    z 0.000000 0.000000 1.815470 
# 
# From -- ./inp_files/2821.got.cif
#   From: 2010.03.12/outbox.cif.g09.slc.cpg/sg189_2_cif.got.tgz:2821.got - 2010.04.01 12:03:36.
