data_PCOD8327755
_publ_section_title
;
Structure prediction by ZEFSAII (Michael W. Deem and Ramdas Pophale) SiO2 
 PCOD8327755
Probable space group: P -6 2 M
;
_chemical_formula_sum "Si O2"
_cell_formula_units_Z 52
_cell_length_a 13.091385
_cell_length_b 13.091385
_cell_length_c 17.821238
_cell_angle_alpha 90.000000
_cell_angle_beta 90.000000
_cell_angle_gamma 120.000000
_cell_volume 2645.085361
_symmetry_space_group_name_H-M "P -6 2 M"
_symmetry_group_IT_number 189
_symmetry_cell_setting 'hexagonal'
loop_
_space_group_symop_operation_xyz
x,y,z
-x+y,-x,-z
-y,x-y,z
x,y,-z
-x+y,-x,z
-y,x-y,-z
x-y,-y,-z
-x,-x+y,-z
y,x,-z
y,x,z
x-y,-y,z
-x,-x+y,z
loop_
_atom_site_type_symbol
_atom_site_label
_atom_site_fract_x
_atom_site_fract_y
_atom_site_fract_z
Si Si1 0.133560 0.426228 0.650856
Si Si2 0.863950 0.135931 0.781421
Si Si3 0.133196 0.717311 0.085869
Si Si4 0.132412 0.633304 0.582679
Si Si5 0.333334 0.666668 0.088713
O O1 0.155880 0.383212 0.730773
O O2 0.156762 0.560958 0.648278
O O3 0.226725 0.428462 0.592762
O O4 0.000000 0.337626 0.622861
O O5 0.827249 0.148600 0.865459
O O6 0.000000 0.170212 0.781513
O O7 0.785435 0.000000 0.753126
O O8 0.220107 0.673236 0.117481
O O9 0.000000 0.607615 0.092989
O O10 0.163069 0.761686 0.000000
O O11 0.161814 0.601525 0.500000
O O12 0.000000 0.603959 0.587027
O O13 0.333334 0.666668 0.000000
#
# Coordination Sequence:
#
# PCOD8327755 Si02
#       5
#    12  12  12  12   4
#     4  10  21  36  55  80 109 143 181 221 271 329
#     4  10  21  37  57  81 112 151 194 240 288 339
#     4   9  19  35  54  80 113 148 192 244 292 340
#     4  10  20  34  54  80 108 138 174 218 268 324
#     4   9  18  33  54  78 105 141 181 227 289 348
#
# _framework density 19.659099999999999
#
# number of rings (size 3 to 8) (size 9 to 14) (size 15 to 20)
#    0.000    2.308    0.000    2.077    0.000    4.615 
#    0.000    6.923    0.000    1.846    0.000    0.000 
#    0.000    0.000    0.000    0.000    0.000    0.000 
#
# Total GULP energy -644284.337380 kJ/mol
# GULP energy per Si atom -12390.083411 kJ/mol
# Density = 1.961435 g / cm^3
# Si number density = 19.659100 Si / 1000 Ang^3
#
#
#
# Elastic Constant Matrix: (Units=GPa)
#
#
# Indices 1 2 3 4 5 6 
#
# 1 119.2068 57.2790 55.8029 0.0000 0.0000 -0.0001
# 2 57.2790 119.2061 55.8030 0.0000 0.0000 0.0001
# 3 55.8029 55.8030 78.1155 0.0000 0.0000 0.0001
# 4 0.0000 0.0000 0.0000 28.6456 0.0000 0.0000
# 5 0.0000 0.0000 0.0000 0.0000 28.6455 0.0000
# 6 -0.0001 0.0001 0.0001 0.0000 0.0000 30.9639
#
#
#
# Elastic Compliance Matrix: (Units=1/GPa)
#
#
# Indices 1 2 3 4 5 6 
#
# 1 0.013241 -0.002906 -0.007383 0.000000 0.000000 0.000000
# 2 -0.002906 0.013242 -0.007383 0.000000 0.000000 0.000000
# 3 -0.007383 -0.007383 0.023350 0.000000 0.000000 0.000000
# 4 0.000000 0.000000 0.000000 0.034909 0.000000 0.000000
# 5 0.000000 0.000000 0.000000 0.000000 0.034910 0.000000
# 6 0.000000 0.000000 0.000000 0.000000 0.000000 0.032296
#
#
# Mechanical properties :
#
#
# Convention : Reuss Voigt Hill
#
# Bulk Modulus (GPa) = 69.02273 72.69980 70.86126
# Shear Modulus (GPa) = 26.02518 27.49389 26.75953
#
# Velocity S-wave (km/s) = 3.64239 3.74375 3.69342
# Velocity P-wave (km/s) = 7.27154 7.46646 7.36965
#
# Compressibility (1/GPa) = 0.01448798
#
# Stress axis : x y z
#
# Youngs Moduli (GPa) = 75.52067 75.51975 42.82677
#
# Poissons Ratio (x) = 0.21949 0.31619
# Poissons Ratio (y) = 0.21950 0.31619
# Poissons Ratio (z) = 0.55756 0.55757
#
# Static dielectric constant tensor:
#      x y z
#    x 3.709650 0.000000 0.000000 
#    y 0.000000 3.709650 0.000000 
#    z 0.000000 0.000000 3.478960 
# 
# 
# High freq. dielectric constant tensor:
#      x y z
#    x 1.769960 0.000000 0.000000 
#    y 0.000000 1.769960 0.000000 
#    z 0.000000 0.000000 1.747580 
# 
# From -- ./inp_files/3348.got.cif
#   From: 2010.03.12/outbox.cif.g09.slc.cpg/sg189_2_cif.got.tgz:3348.got - 2010.04.01 12:03:36.
