data_PCOD8327462
_publ_section_title
;
Structure prediction by ZEFSAII (Michael W. Deem and Ramdas Pophale) SiO2 
 PCOD8327462
Probable space group: P -6 C 2
;
_chemical_formula_sum "Si O2"
_cell_formula_units_Z 48
_cell_length_a 16.619476
_cell_length_b 16.619476
_cell_length_c 8.859361
_cell_angle_alpha 90.000000
_cell_angle_beta 90.000000
_cell_angle_gamma 120.000000
_cell_volume 2119.179205
_symmetry_space_group_name_H-M "P -6 C 2"
_symmetry_group_IT_number 188
_symmetry_cell_setting 'hexagonal'
loop_
_space_group_symop_operation_xyz
x,y,z
-x+y,-x,1/2-z
-y,x-y,z
x,y,1/2-z
-x+y,-x,z
-y,x-y,1/2-z
-y,-x,-z
-x+y,y,-z
x,x-y,-z
-x+y,y,1/2+z
x,x-y,1/2+z
-y,-x,1/2+z
loop_
_atom_site_type_symbol
_atom_site_label
_atom_site_fract_x
_atom_site_fract_y
_atom_site_fract_z
Si Si1 0.003014 0.682788 0.923812
Si Si2 0.553741 0.308154 0.250000
Si Si3 0.789025 0.210976 0.000000
Si Si4 0.333898 0.840931 0.567551
Si Si5 0.999706 0.159645 0.571163
O O1 0.034434 0.699974 0.750000
O O2 0.890953 0.634002 0.927753
O O3 0.044291 0.779528 0.014346
O O4 0.054190 0.634266 0.007684
O O5 0.643112 0.411347 0.250000
O O6 0.488754 0.292958 0.389643
O O7 0.333474 0.838554 0.750000
O O8 0.232913 0.767087 0.500000
O O9 0.407013 0.814026 0.500000
O O10 0.995947 0.153060 0.750000
O O11 0.896987 0.103014 0.500000
O O12 0.057854 0.115708 0.500000
#
# Coordination Sequence:
#
# PCOD8327462 Si02
#       5
#    12   6   6  12  12
#     4  12  26  45  70 106 146 192 242 302 371 441
#     4  10  24  44  68  98 134 188 242 298 356 426
#     4  12  24  44  72 102 150 190 244 304 370 432
#     4  12  27  50  79 112 151 195 248 307 374 444
#     4  12  25  43  68  97 136 181 235 293 360 436
#
# _framework density 22.650279000000001
#
# number of rings (size 3 to 8) (size 9 to 14) (size 15 to 20)
#    0.250    0.000    2.500    7.250    3.500    2.000 
#    0.000    0.000    0.000    0.000    0.000    0.000 
#    0.000    0.000    0.000    0.000    0.000    0.000 
#
# Total GULP energy -594840.213902 kJ/mol
# GULP energy per Si atom -12392.504456 kJ/mol
# Density = 2.259873 g / cm^3
# Si number density = 22.650279 Si / 1000 Ang^3
#
#
#
# Elastic Constant Matrix: (Units=GPa)
#
#
# Indices 1 2 3 4 5 6 
#
# 1 91.1179 20.8582 41.0804 0.0000 0.0000 0.0000
# 2 20.8582 91.1179 41.0804 0.0000 0.0000 0.0000
# 3 41.0804 41.0804 232.7688 0.0000 0.0000 0.0000
# 4 0.0000 0.0000 0.0000 34.3741 0.0000 0.0000
# 5 0.0000 0.0000 0.0000 0.0000 34.3741 0.0000
# 6 0.0000 0.0000 0.0000 0.0000 0.0000 35.1299
#
#
#
# Elastic Compliance Matrix: (Units=1/GPa)
#
#
# Indices 1 2 3 4 5 6 
#
# 1 0.012246 -0.001987 -0.001811 0.000000 0.000000 0.000000
# 2 -0.001987 0.012246 -0.001811 0.000000 0.000000 0.000000
# 3 -0.001811 -0.001811 0.004935 0.000000 0.000000 0.000000
# 4 0.000000 0.000000 0.000000 0.029092 0.000000 0.000000
# 5 0.000000 0.000000 0.000000 0.000000 0.029092 0.000000
# 6 0.000000 0.000000 0.000000 0.000000 0.000000 0.028466
#
#
# Mechanical properties :
#
#
# Convention : Reuss Voigt Hill
#
# Bulk Modulus (GPa) = 54.91233 69.00471 61.95852
# Shear Modulus (GPa) = 37.49179 41.57469 39.53324
#
# Velocity S-wave (km/s) = 4.07289 4.28893 4.18230
# Velocity P-wave (km/s) = 6.81279 7.42010 7.12292
#
# Compressibility (1/GPa) = 0.01821085
#
# Stress axis : x y z
#
# Youngs Moduli (GPa) = 81.65986 81.65986 202.62671
#
# Poissons Ratio (x) = 0.16226 0.36687
# Poissons Ratio (y) = 0.16226 0.36687
# Poissons Ratio (z) = 0.14785 0.14785
#
# Static dielectric constant tensor:
#      x y z
#    x 4.020480 0.000000 0.000000 
#    y 0.000000 4.020480 0.000000 
#    z 0.000000 0.000000 4.010040 
# 
# 
# High freq. dielectric constant tensor:
#      x y z
#    x 1.896240 0.000000 0.000000 
#    y 0.000000 1.896240 0.000000 
#    z 0.000000 0.000000 1.907910 
# 
# From -- ./inp_files/411.got.cif
#   From: 2010.03.12/outbox.cif.g09.slc.cpg/sg188_1_cif.got.tgz:411.got - 2010.04.01 12:01:06.
