data_PCOD8327972
_publ_section_title
;
Structure prediction by ZEFSAII (Michael W. Deem and Ramdas Pophale) SiO2 
 PCOD8327972
Probable space group: P -6 2 C
;
_chemical_formula_sum "Si O2"
_cell_formula_units_Z 76
_cell_length_a 18.825199
_cell_length_b 18.825199
_cell_length_c 14.650457
_cell_angle_alpha 90.000000
_cell_angle_beta 90.000000
_cell_angle_gamma 120.000000
_cell_volume 4496.358755
_symmetry_space_group_name_H-M "P -6 2 C"
_symmetry_group_IT_number 190
_symmetry_cell_setting 'hexagonal'
loop_
_space_group_symop_operation_xyz
x,y,z
-x+y,-x,1/2-z
-y,x-y,z
x,y,1/2-z
-x+y,-x,z
-y,x-y,1/2-z
x-y,-y,-z
-x,-x+y,-z
y,x,-z
y,x,1/2+z
x-y,-y,1/2+z
-x,-x+y,1/2+z
loop_
_atom_site_type_symbol
_atom_site_label
_atom_site_fract_x
_atom_site_fract_y
_atom_site_fract_z
Si Si1 0.942402 0.124129 0.852442
Si Si2 0.000000 0.000000 0.892756
Si Si3 0.618156 0.453886 0.648266
Si Si4 0.618846 0.648347 0.095400
Si Si5 0.908969 0.208120 0.351843
Si Si6 0.481854 0.281817 0.640317
Si Si7 0.668740 0.830067 0.040736
O O1 0.917977 0.135129 0.750000
O O2 0.867907 0.108140 0.920392
O O3 0.953619 0.045679 0.855825
O O4 0.027269 0.205481 0.879758
O O5 0.000000 0.000000 0.000000
O O6 0.620226 0.425432 0.750000
O O7 0.604695 0.532365 0.648320
O O8 0.540884 0.374457 0.603935
O O9 0.705661 0.476578 0.605063
O O10 0.692159 0.645992 0.149560
O O11 0.648158 0.742633 0.079296
O O12 0.601012 0.601012 0.000000
O O13 0.871865 0.177194 0.250000
O O14 0.837877 0.170370 0.429543
O O15 0.464758 0.273375 0.750000
O O16 0.396810 0.249059 0.584036
#
# Coordination Sequence:
#
# PCOD8327972 Si02
#       7
#    12   4  12  12  12  12  12
#     4  10  19  31  46  64  87 113 144 183 226 265
#     4  12  22  32  46  66  91 119 149 185 223 258
#     4   9  15  23  37  60  89 114 135 162 202 253
#     4   8  14  24  40  61  84 107 135 171 211 249
#     4   9  16  27  44  64  84 107 140 183 222 254
#     4   9  16  25  40  64  92 118 140 166 206 259
#     4   9  16  28  43  63  86 112 142 176 215 258
#
# _framework density 16.902566
#
# number of rings (size 3 to 8) (size 9 to 14) (size 15 to 20)
#    0.000    2.842    0.000    4.105    0.000    5.053 
#    0.000    0.000    0.000    2.842    0.000   13.263 
#    0.000    0.000    0.000    0.000    0.000    0.000 
#
# Total GULP energy -941702.050677 kJ/mol
# GULP energy per Si atom -12390.816456 kJ/mol
# Density = 1.686410 g / cm^3
# Si number density = 16.902566 Si / 1000 Ang^3
#
#
#
# Elastic Constant Matrix: (Units=GPa)
#
#
# Indices 1 2 3 4 5 6 
#
# 1 66.7642 31.6746 17.4480 0.0000 0.0000 0.0000
# 2 31.6746 66.7642 17.4480 0.0000 0.0000 0.0000
# 3 17.4480 17.4480 77.4506 0.0000 0.0000 0.0000
# 4 0.0000 0.0000 0.0000 27.0652 0.0000 0.0000
# 5 0.0000 0.0000 0.0000 0.0000 27.0652 0.0000
# 6 0.0000 0.0000 0.0000 0.0000 0.0000 17.5448
#
#
#
# Elastic Compliance Matrix: (Units=1/GPa)
#
#
# Indices 1 2 3 4 5 6 
#
# 1 0.019769 -0.008729 -0.002487 0.000000 0.000000 0.000000
# 2 -0.008729 0.019769 -0.002487 0.000000 0.000000 0.000000
# 3 -0.002487 -0.002487 0.014032 0.000000 0.000000 0.000000
# 4 0.000000 0.000000 0.000000 0.036948 0.000000 0.000000
# 5 0.000000 0.000000 0.000000 0.000000 0.036948 0.000000
# 6 0.000000 0.000000 0.000000 0.000000 0.000000 0.056997
#
#
# Mechanical properties :
#
#
# Convention : Reuss Voigt Hill
#
# Bulk Modulus (GPa) = 38.22038 38.23556 38.22797
# Shear Modulus (GPa) = 22.66631 23.96226 23.31429
#
# Velocity S-wave (km/s) = 3.66594 3.76928 3.71797
# Velocity P-wave (km/s) = 6.37025 6.45086 6.41068
#
# Compressibility (1/GPa) = 0.02616405
#
# Stress axis : x y z
#
# Youngs Moduli (GPa) = 50.58324 50.58324 71.26544
#
# Poissons Ratio (x) = 0.44155 0.17725
# Poissons Ratio (y) = 0.44155 0.17725
# Poissons Ratio (z) = 0.12581 0.12581
#
# Static dielectric constant tensor:
#      x y z
#    x 3.097990 0.000000 0.000000 
#    y 0.000000 3.097990 0.000000 
#    z 0.000000 0.000000 3.164860 
# 
# 
# High freq. dielectric constant tensor:
#      x y z
#    x 1.622350 0.000000 0.000000 
#    y 0.000000 1.622350 0.000000 
#    z 0.000000 0.000000 1.642940 
# 
# From -- ./inp_files/3068.got.cif
#   From: 2010.06.25/outbox.cif.g09.slc.cpg/sg190_2_cif.got.tgz:3068.got - 2010.06.28 13:08:06.
