data_PCOD8327575
_publ_section_title
;
Structure prediction by ZEFSAII (Michael W. Deem and Ramdas Pophale) SiO2 
 PCOD8327575
Probable space group: P -6 2 M
;
_chemical_formula_sum "Si O2"
_cell_formula_units_Z 60
_cell_length_a 23.200570
_cell_length_b 23.200570
_cell_length_c 7.911702
_cell_angle_alpha 90.000000
_cell_angle_beta 90.000000
_cell_angle_gamma 120.000000
_cell_volume 3688.059020
_symmetry_space_group_name_H-M "P -6 2 M"
_symmetry_group_IT_number 189
_symmetry_cell_setting 'hexagonal'
loop_
_space_group_symop_operation_xyz
x,y,z
-x+y,-x,-z
-y,x-y,z
x,y,-z
-x+y,-x,z
-y,x-y,-z
x-y,-y,-z
-x,-x+y,-z
y,x,-z
y,x,z
x-y,-y,z
-x,-x+y,z
loop_
_atom_site_type_symbol
_atom_site_label
_atom_site_fract_x
_atom_site_fract_y
_atom_site_fract_z
Si Si1 0.474153 0.394663 0.000000
Si Si2 0.321195 0.400053 0.312375
Si Si3 0.078982 0.402057 0.685831
Si Si4 0.267606 0.193643 0.301577
Si Si5 0.203503 0.925788 0.806103
Si Si6 0.604707 0.525180 0.000000
O O1 0.457272 0.349589 0.830759
O O2 0.431534 0.431534 0.000000
O O3 0.552575 0.446678 0.000000
O O4 0.321773 0.429670 0.500000
O O5 0.366005 0.366005 0.322104
O O6 0.246769 0.344304 0.259056
O O7 0.102402 0.435514 0.500000
O O8 0.102218 0.347473 0.707030
O O9 0.108461 0.458007 0.832088
O O10 0.000000 0.363915 0.700672
O O11 0.257312 0.184943 0.500000
O O12 0.219121 0.219121 0.226637
O O13 0.247990 0.122908 0.220210
O O14 0.223252 0.000000 0.742929
O O15 0.223205 0.928778 0.000000
O O16 0.566094 0.566094 0.000000
#
# Coordination Sequence:
#
# PCOD8327575 Si02
#       6
#     6  12  12  12  12   6
#     4   9  16  24  39  58  81 114 142 167 200 236
#     4   8  15  27  40  58  84 111 143 179 214 260
#     4   9  16  27  42  58  82 115 145 179 221 261
#     4   9  18  31  46  65  88 115 153 199 243 295
#     4  10  19  30  45  66  90 115 152 200 245 297
#     4   9  16  26  37  58  85 108 144 175 192 238
#
# _framework density 16.268719999999998
#
# number of rings (size 3 to 8) (size 9 to 14) (size 15 to 20)
#    0.000    3.000    1.000    1.800    1.400    2.400 
#    0.000    4.000    0.000    0.400    0.000    0.000 
#    0.000    0.000    0.000    4.800    0.000   22.400 
#
# Total GULP energy -743588.090430 kJ/mol
# GULP energy per Si atom -12393.134840 kJ/mol
# Density = 1.623169 g / cm^3
# Si number density = 16.268720 Si / 1000 Ang^3
#
#
#
# Elastic Constant Matrix: (Units=GPa)
#
#
# Indices 1 2 3 4 5 6 
#
# 1 70.0851 37.8560 40.3791 0.0000 0.0000 0.0000
# 2 37.8560 70.0851 40.3791 0.0000 0.0000 0.0000
# 3 40.3791 40.3791 104.7672 0.0000 0.0000 0.0000
# 4 0.0000 0.0000 0.0000 18.2903 0.0000 0.0000
# 5 0.0000 0.0000 0.0000 0.0000 18.2903 0.0000
# 6 0.0000 0.0000 0.0000 0.0000 0.0000 16.1145
#
#
#
# Elastic Compliance Matrix: (Units=1/GPa)
#
#
# Indices 1 2 3 4 5 6 
#
# 1 0.022023 -0.009005 -0.005017 0.000000 0.000000 0.000000
# 2 -0.009005 0.022023 -0.005017 0.000000 0.000000 0.000000
# 3 -0.005017 -0.005017 0.013413 0.000000 0.000000 0.000000
# 4 0.000000 0.000000 0.000000 0.054674 0.000000 0.000000
# 5 0.000000 0.000000 0.000000 0.000000 0.054674 0.000000
# 6 0.000000 0.000000 0.000000 0.000000 0.000000 0.062056
#
#
# Mechanical properties :
#
#
# Convention : Reuss Voigt Hill
#
# Bulk Modulus (GPa) = 51.60162 53.57397 52.58780
# Shear Modulus (GPa) = 18.28814 18.96057 18.62436
#
# Velocity S-wave (km/s) = 3.35644 3.41759 3.38715
# Velocity P-wave (km/s) = 6.84164 6.96960 6.90592
#
# Compressibility (1/GPa) = 0.01937924
#
# Stress axis : x y z
#
# Youngs Moduli (GPa) = 45.40695 45.40695 74.55676
#
# Poissons Ratio (x) = 0.40888 0.37408
# Poissons Ratio (y) = 0.40888 0.37408
# Poissons Ratio (z) = 0.22783 0.22783
#
# Static dielectric constant tensor:
#      x y z
#    x 2.886710 0.000000 0.000000 
#    y 0.000000 2.886710 0.000000 
#    z 0.000000 0.000000 3.387510 
# 
# 
# High freq. dielectric constant tensor:
#      x y z
#    x 1.580770 0.000000 0.000000 
#    y 0.000000 1.580770 0.000000 
#    z 0.000000 0.000000 1.644620 
# 
# From -- ./inp_files/947.got.cif
#   From: 2010.03.12/outbox.cif.g09.slc.cpg/sg189_1_cif.got.tgz:947.got - 2010.04.01 12:03:36.
