data_PCOD8327777
_publ_section_title
;
Structure prediction by ZEFSAII (Michael W. Deem and Ramdas Pophale) SiO2 
 PCOD8327777
Probable space group: P -6 2 M
;
_chemical_formula_sum "Si O2"
_cell_formula_units_Z 58
_cell_length_a 14.909150
_cell_length_b 14.909150
_cell_length_c 16.209257
_cell_angle_alpha 90.000000
_cell_angle_beta 90.000000
_cell_angle_gamma 120.000000
_cell_volume 3120.322683
_symmetry_space_group_name_H-M "P -6 2 M"
_symmetry_group_IT_number 189
_symmetry_cell_setting 'hexagonal'
loop_
_space_group_symop_operation_xyz
x,y,z
-x+y,-x,-z
-y,x-y,z
x,y,-z
-x+y,-x,z
-y,x-y,-z
x-y,-y,-z
-x,-x+y,-z
y,x,-z
y,x,z
x-y,-y,z
-x,-x+y,z
loop_
_atom_site_type_symbol
_atom_site_label
_atom_site_fract_x
_atom_site_fract_y
_atom_site_fract_z
Si Si1 0.333334 0.666666 0.902753
Si Si2 0.670874 0.221252 0.500000
Si Si3 0.560706 0.117564 0.188702
Si Si4 0.760445 0.880542 0.907077
Si Si5 0.756183 0.640156 0.758538
Si Si6 0.423012 0.305100 0.338711
O O1 0.405279 0.787000 0.874917
O O2 0.333334 0.666668 0.000000
O O3 0.566096 0.229064 0.500000
O O4 0.669993 0.161727 0.419002
O O5 0.470272 0.125320 0.234017
O O6 0.641845 0.134391 0.259119
O O7 0.511915 0.000000 0.149079
O O8 0.845684 0.845684 0.899254
O O9 0.664890 0.817973 0.845355
O O10 0.814727 0.000000 0.882757
O O11 0.715041 0.860852 0.000000
O O12 0.729107 0.729107 0.738366
O O13 0.823499 0.640252 0.681288
O O14 0.340711 0.340711 0.356127
#
# Coordination Sequence:
#
# PCOD8327777 Si02
#       6
#     4   6  12  12  12  12
#     4  12  24  39  63  85 119 163 210 261 303 354
#     4  10  23  36  62  88 117 152 186 238 284 350
#     4  10  22  39  61  82 115 158 202 247 298 360
#     4   9  17  30  50  77 109 146 190 240 291 341
#     4  10  20  35  57  82 111 152 192 236 291 352
#     4  11  21  38  61  88 119 152 191 240 294 352
#
# _framework density 18.587823
#
# number of rings (size 3 to 8) (size 9 to 14) (size 15 to 20)
#    0.207    1.655    2.069    2.379    0.000    2.069 
#    0.000    3.621    0.000    0.414    0.000    0.000 
#    0.000    0.000    0.000    0.000    0.000    0.000 
#
# Total GULP energy -719007.605358 kJ/mol
# GULP energy per Si atom -12396.682851 kJ/mol
# Density = 1.854552 g / cm^3
# Si number density = 18.587823 Si / 1000 Ang^3
#
#
#
# Elastic Constant Matrix: (Units=GPa)
#
#
# Indices 1 2 3 4 5 6 
#
# 1 88.5410 46.0383 42.0281 0.0001 0.0002 0.0000
# 2 46.0383 88.5414 42.0286 0.0002 0.0001 0.0000
# 3 42.0281 42.0286 68.7265 0.0001 0.0003 0.0001
# 4 0.0001 0.0002 0.0001 -11.9928 0.0003 0.0000
# 5 0.0002 0.0001 0.0003 0.0003 -11.9937 0.0001
# 6 0.0000 0.0000 0.0001 0.0000 0.0001 21.2514
#
#
#
# Elastic Compliance Matrix: (Units=1/GPa)
#
#
# Indices 1 2 3 4 5 6 
#
# 1 0.017775 -0.005753 -0.007352 0.000000 0.000000 0.000000
# 2 -0.005753 0.017775 -0.007352 0.000000 0.000000 0.000000
# 3 -0.007352 -0.007352 0.023543 0.000000 0.000000 0.000000
# 4 0.000000 0.000000 0.000000 -0.083383 -0.000002 0.000000
# 5 0.000000 0.000000 0.000000 -0.000002 -0.083377 0.000000
# 6 0.000000 0.000000 0.000000 0.000000 0.000000 0.047056
#
#
# Mechanical properties :
#
#
# Convention : Reuss Voigt Hill
#
# Bulk Modulus (GPa) = 55.00829 56.22209 55.61519
# Shear Modulus (GPa) = -366.61983 7.16724 -179.72629
#
# Velocity S-wave (km/s) = -14.05933 1.96577 -9.84379
# Velocity P-wave (km/s) = 15.29363 5.95523 9.96068
#
# Compressibility (1/GPa) = 0.01817908
#
# Stress axis : x y z
#
# Youngs Moduli (GPa) = 56.25811 56.25794 42.47608
#
# Poissons Ratio (x) = 0.32363 0.31229
# Poissons Ratio (y) = 0.32363 0.31230
# Poissons Ratio (z) = 0.41362 0.41363
#
# Static dielectric constant tensor:
#      x y z
#    x 3.623830 0.000000 0.000000 
#    y 0.000000 3.623840 0.000000 
#    z 0.000000 0.000000 3.068490 
# 
# 
# High freq. dielectric constant tensor:
#      x y z
#    x 1.728850 0.000000 0.000000 
#    y 0.000000 1.728850 0.000000 
#    z 0.000000 0.000000 1.701700 
# 
# From -- ./inp_files/2567.got.cif
#   From: 2010.03.12/outbox.cif.g09.slc.cpg/sg189_2_cif.got.tgz:2567.got - 2010.04.01 12:03:36.
