data_PCOD8327882
_publ_section_title
;
Structure prediction by ZEFSAII (Michael W. Deem and Ramdas Pophale) SiO2 
 PCOD8327882
Probable space group: P -6 2 M
;
_chemical_formula_sum "Si O2"
_cell_formula_units_Z 26
_cell_length_a 13.928073
_cell_length_b 13.928073
_cell_length_c 7.714454
_cell_angle_alpha 90.000000
_cell_angle_beta 90.000000
_cell_angle_gamma 120.000000
_cell_volume 1296.038474
_symmetry_space_group_name_H-M "P -6 2 M"
_symmetry_group_IT_number 189
_symmetry_cell_setting 'hexagonal'
loop_
_space_group_symop_operation_xyz
x,y,z
-x+y,-x,-z
-y,x-y,z
x,y,-z
-x+y,-x,z
-y,x-y,-z
x-y,-y,-z
-x,-x+y,-z
y,x,-z
y,x,z
x-y,-y,z
-x,-x+y,z
loop_
_atom_site_type_symbol
_atom_site_label
_atom_site_fract_x
_atom_site_fract_y
_atom_site_fract_z
Si Si1 0.686649 0.464814 0.500000
Si Si2 0.758562 0.631181 0.194118
Si Si3 0.218027 0.218027 0.300832
Si Si4 0.000000 0.000000 0.792945
O O1 0.784179 0.432759 0.500000
O O2 0.693459 0.532119 0.328228
O O3 0.725485 0.725485 0.229274
O O4 0.890463 0.684297 0.212312
O O5 0.724046 0.582817 0.000000
O O6 0.248816 0.248816 0.500000
O O7 0.105089 0.105089 0.282665
O O8 0.000000 0.000000 0.000000
#
# Coordination Sequence:
#
# PCOD8327882 Si02
#       4
#     6  12   6   2
#     4  10  25  47  67  85 122 170 218 282 320 360
#     4  11  23  42  68  99 134 170 210 260 323 395
#     4  12  22  36  62  95 136 176 208 253 327 404
#     4  12  22  32  52  96 139 179 208 244 326 406
#
# _framework density 20.061133999999999
#
# number of rings (size 3 to 8) (size 9 to 14) (size 15 to 20)
#    0.462    0.462    4.615    3.462    0.000    1.846 
#    8.308    0.000    0.000    0.000    0.000    0.000 
#    0.000    0.000    0.000    0.000    0.000    0.000 
#
# Total GULP energy -322418.035321 kJ/mol
# GULP energy per Si atom -12400.693666 kJ/mol
# Density = 2.001547 g / cm^3
# Si number density = 20.061134 Si / 1000 Ang^3
#
#
#
# Elastic Constant Matrix: (Units=GPa)
#
#
# Indices 1 2 3 4 5 6 
#
# 1 70.9173 7.6072 48.9652 0.0000 0.0000 0.0000
# 2 7.6072 70.9173 48.9652 0.0000 0.0000 0.0000
# 3 48.9652 48.9652 172.9920 0.0000 0.0000 0.0000
# 4 0.0000 0.0000 0.0000 15.2812 0.0000 0.0000
# 5 0.0000 0.0000 0.0000 0.0000 15.2812 0.0000
# 6 0.0000 0.0000 0.0000 0.0000 0.0000 31.6550
#
#
#
# Elastic Compliance Matrix: (Units=1/GPa)
#
#
# Indices 1 2 3 4 5 6 
#
# 1 0.017739 0.001944 -0.005571 0.000000 0.000000 0.000000
# 2 0.001944 0.017739 -0.005571 0.000000 0.000000 0.000000
# 3 -0.005571 -0.005571 0.008934 0.000000 0.000000 0.000000
# 4 0.000000 0.000000 0.000000 0.065440 0.000000 0.000000
# 5 0.000000 0.000000 0.000000 0.000000 0.065440 0.000000
# 6 0.000000 0.000000 0.000000 0.000000 0.000000 0.031591
#
#
# Mechanical properties :
#
#
# Convention : Reuss Voigt Hill
#
# Bulk Modulus (GPa) = 38.43874 58.43351 48.43613
# Shear Modulus (GPa) = 21.37191 26.39610 23.88400
#
# Velocity S-wave (km/s) = 3.26749 3.63131 3.45419
# Velocity P-wave (km/s) = 5.78254 6.83907 6.33287
#
# Compressibility (1/GPa) = 0.02601542
#
# Stress axis : x y z
#
# Youngs Moduli (GPa) = 56.37265 56.37265 111.92609
#
# Poissons Ratio (x) = -0.10958 0.62357
# Poissons Ratio (y) = -0.10958 0.62357
# Poissons Ratio (z) = 0.31406 0.31406
#
# Static dielectric constant tensor:
#      x y z
#    x 3.475500 0.000000 0.000000 
#    y 0.000000 3.475500 0.000000 
#    z 0.000000 0.000000 3.799360 
# 
# 
# High freq. dielectric constant tensor:
#      x y z
#    x 1.768170 0.000000 0.000000 
#    y 0.000000 1.768170 0.000000 
#    z 0.000000 0.000000 1.801600 
# 
# From -- ./inp_files/254.got.cif
#   From: 2010.03.12/outbox.cif.g09.slc.cpg/sg189_1_cif.got.tgz:254.got - 2010.04.01 12:03:36.
