data_PCOD8327129
_publ_section_title
;
Structure prediction by ZEFSAII (Michael W. Deem and Ramdas Pophale) SiO2 
 PCOD8327129
Probable space group: P -6 M 2
;
_chemical_formula_sum "Si O2"
_cell_formula_units_Z 60
_cell_length_a 12.481603
_cell_length_b 12.481603
_cell_length_c 25.850344
_cell_angle_alpha 90.000000
_cell_angle_beta 90.000000
_cell_angle_gamma 120.000000
_cell_volume 3487.688492
_symmetry_space_group_name_H-M "P -6 M 2"
_symmetry_group_IT_number 187
_symmetry_cell_setting 'hexagonal'
loop_
_space_group_symop_operation_xyz
x,y,z
-x+y,-x,-z
-y,x-y,z
x,y,-z
-x+y,-x,z
-y,x-y,-z
-y,-x,-z
-x+y,y,-z
x,x-y,-z
-x+y,y,z
x,x-y,z
-y,-x,z
loop_
_atom_site_type_symbol
_atom_site_label
_atom_site_fract_x
_atom_site_fract_y
_atom_site_fract_z
Si Si1 0.248860 0.999199 0.793334
Si Si2 0.667860 0.083095 0.500000
Si Si3 0.582330 0.918002 0.112041
Si Si4 0.084242 0.416117 0.303866
Si Si5 0.334959 0.426203 0.000000
Si Si6 0.748859 0.999897 0.598095
O O1 0.105239 0.894762 0.790750
O O2 0.307598 0.999998 0.848771
O O3 0.326215 0.976047 0.749933
O O4 0.260096 0.130048 0.783671
O O5 0.774877 0.225124 0.500000
O O6 0.538532 0.077063 0.500000
O O7 0.675086 0.012781 0.550337
O O8 0.458082 0.916163 0.130033
O O9 0.553203 0.776602 0.111405
O O10 0.625627 0.981619 0.054549
O O11 0.227878 0.455755 0.306235
O O12 0.072570 0.536285 0.309426
O O13 0.008053 0.323463 0.349801
O O14 0.425447 0.574554 0.000000
O O15 0.194988 0.389975 0.000000
O O16 0.885587 0.114413 0.602730
O O17 0.760296 0.880148 0.588771
#
# Coordination Sequence:
#
# PCOD8327129 Si02
#       6
#    12   6  12  12   6  12
#     4  10  20  33  49  68  93 126 162 199 236 279
#     4  10  20  34  52  74 102 136 172 208 246 288
#     4   9  16  27  46  71  97 122 150 189 237 287
#     4  10  20  34  53  76 101 127 156 195 243 293
#     4   8  13  22  39  66  96 122 148 182 230 284
#     4  10  20  34  54  78 104 134 167 204 242 284
#
# _framework density 17.203372000000002
#
# number of rings (size 3 to 8) (size 9 to 14) (size 15 to 20)
#    0.000    2.400    0.000    3.100    0.000    1.600 
#    0.000    5.500    0.000   11.200    0.000    1.400 
#    0.000    0.000    0.000    0.000    0.000    0.000 
#
# Total GULP energy -743809.325703 kJ/mol
# GULP energy per Si atom -12396.822095 kJ/mol
# Density = 1.716422 g / cm^3
# Si number density = 17.203372 Si / 1000 Ang^3
#
#
#
# Elastic Constant Matrix: (Units=GPa)
#
#
# Indices 1 2 3 4 5 6 
#
# 1 79.9962 46.3655 42.5228 0.0000 -0.0009 0.0000
# 2 46.3655 79.9962 42.5228 0.0000 0.0009 0.0000
# 3 42.5228 42.5228 125.4662 0.0000 0.0000 0.0000
# 4 0.0000 0.0000 0.0000 14.6940 0.0000 0.0009
# 5 -0.0009 0.0009 0.0000 0.0000 14.6940 0.0000
# 6 0.0000 0.0000 0.0000 0.0009 0.0000 16.8154
#
#
#
# Elastic Compliance Matrix: (Units=1/GPa)
#
#
# Indices 1 2 3 4 5 6 
#
# 1 0.019994 -0.009741 -0.003475 0.000000 0.000002 0.000000
# 2 -0.009741 0.019994 -0.003475 0.000000 -0.000002 0.000000
# 3 -0.003475 -0.003475 0.010326 0.000000 0.000000 0.000000
# 4 0.000000 0.000000 0.000000 0.068055 0.000000 -0.000004
# 5 0.000002 -0.000002 0.000000 0.000000 0.068055 0.000000
# 6 0.000000 0.000000 0.000000 -0.000004 0.000000 0.059469
#
#
# Mechanical properties :
#
#
# Convention : Reuss Voigt Hill
#
# Bulk Modulus (GPa) = 59.06162 60.92007 59.99085
# Shear Modulus (GPa) = 17.54898 19.51052 18.52975
#
# Velocity S-wave (km/s) = 3.19735 3.37131 3.28548
# Velocity P-wave (km/s) = 6.93085 7.11638 7.02423
#
# Compressibility (1/GPa) = 0.01693147
#
# Stress axis : x y z
#
# Youngs Moduli (GPa) = 50.01608 50.01608 96.84697
#
# Poissons Ratio (x) = 0.48721 0.33652
# Poissons Ratio (y) = 0.48721 0.33652
# Poissons Ratio (z) = 0.17379 0.17379
#
# Static dielectric constant tensor:
#      x y z
#    x 3.003770 0.000000 0.000000 
#    y 0.000000 3.003770 0.000000 
#    z 0.000000 0.000000 3.649750 
# 
# 
# High freq. dielectric constant tensor:
#      x y z
#    x 1.648090 0.000000 0.000000 
#    y 0.000000 1.648090 0.000000 
#    z 0.000000 0.000000 1.690520 
# 
# From -- ./inp_files/4158.got.cif
#   From: 2010.03.12/outbox.cif.g09.slc.cpg/sg187_3_cif.got.tgz:4158.got - 2010.04.01 11:58:23.
