data_PCOD8327197
_publ_section_title
;
Structure prediction by ZEFSAII (Michael W. Deem and Ramdas Pophale) SiO2 
 PCOD8327197
Probable space group: P -6 M 2
;
_chemical_formula_sum "Si O2"
_cell_formula_units_Z 72
_cell_length_a 12.385732
_cell_length_b 12.385732
_cell_length_c 30.824233
_cell_angle_alpha 90.000000
_cell_angle_beta 90.000000
_cell_angle_gamma 120.000000
_cell_volume 4095.116561
_symmetry_space_group_name_H-M "P -6 M 2"
_symmetry_group_IT_number 187
_symmetry_cell_setting 'hexagonal'
loop_
_space_group_symop_operation_xyz
x,y,z
-x+y,-x,-z
-y,x-y,z
x,y,-z
-x+y,-x,z
-y,x-y,-z
-y,-x,-z
-x+y,y,-z
x,x-y,-z
-x+y,y,z
x,x-y,z
-y,-x,z
loop_
_atom_site_type_symbol
_atom_site_label
_atom_site_fract_x
_atom_site_fract_y
_atom_site_fract_z
Si Si1 0.333060 0.920008 0.917385
Si Si2 0.001020 0.748099 0.834147
Si Si3 0.585666 0.668255 0.248555
Si Si4 0.748365 0.999927 0.668085
Si Si5 0.666502 0.079411 0.000000
Si Si6 0.413894 0.080717 0.584219
Si Si7 0.080226 0.664631 0.500000
O O1 0.450451 0.900901 0.915917
O O2 0.213901 0.786100 0.923239
O O3 0.329118 0.985638 0.873266
O O4 0.338634 0.004178 0.957628
O O5 0.108383 0.891618 0.835480
O O6 0.003556 0.684261 0.789339
O O7 0.870781 0.741562 0.838666
O O8 0.545431 0.772716 0.244731
O O9 0.464828 0.535173 0.243998
O O10 0.650245 0.675979 0.294159
O O11 0.874935 0.125065 0.679208
O O12 0.687460 0.010031 0.623799
O O13 0.779642 0.889821 0.663896
O O14 0.790117 0.209884 0.000000
O O15 0.552089 0.104178 0.000000
O O16 0.545498 0.090995 0.593441
O O17 0.437523 0.218762 0.577745
O O18 0.348288 0.001612 0.541707
O O19 0.201269 0.798731 0.500000
O O20 0.121997 0.560999 0.500000
#
# Coordination Sequence:
#
# PCOD8327197 Si02
#       7
#    12  12  12  12   6  12   6
#     4  10  20  34  54  78 104 134 168 209 254 300
#     4  10  20  34  53  76 103 135 170 209 252 300
#     4  10  20  34  53  76 102 132 167 209 255 302
#     4  10  20  34  53  76 103 135 170 209 252 300
#     4  10  20  34  52  74 102 136 172 208 248 296
#     4  10  20  34  53  76 103 135 170 208 250 298
#     4  10  20  34  52  74 100 130 166 208 254 300
#
# _framework density 17.581916
#
# number of rings (size 3 to 8) (size 9 to 14) (size 15 to 20)
#    0.000    2.000    0.000    4.000    0.000    0.000 
#    0.000    5.000    0.000   18.000    0.000    0.000 
#    0.000    0.000    0.000    0.000    0.000    0.000 
#
# Total GULP energy -893112.720050 kJ/mol
# GULP energy per Si atom -12404.343334 kJ/mol
# Density = 1.754190 g / cm^3
# Si number density = 17.581916 Si / 1000 Ang^3
#
#
#
# Elastic Constant Matrix: (Units=GPa)
#
#
# Indices 1 2 3 4 5 6 
#
# 1 59.8907 30.6158 20.9614 0.0000 -0.0011 0.0000
# 2 30.6158 59.8907 20.9614 0.0000 0.0011 0.0000
# 3 20.9614 20.9614 86.9085 0.0000 0.0000 0.0000
# 4 0.0000 0.0000 0.0000 27.2764 0.0000 0.0011
# 5 -0.0011 0.0011 0.0000 0.0000 27.2764 0.0000
# 6 0.0000 0.0000 0.0000 0.0011 0.0000 14.6374
#
#
#
# Elastic Compliance Matrix: (Units=1/GPa)
#
#
# Indices 1 2 3 4 5 6 
#
# 1 0.023299 -0.010860 -0.003000 0.000000 0.000001 0.000000
# 2 -0.010860 0.023299 -0.003000 0.000000 -0.000001 0.000000
# 3 -0.003000 -0.003000 0.012954 0.000000 0.000000 0.000000
# 4 0.000000 0.000000 0.000000 0.036662 0.000000 -0.000003
# 5 0.000001 -0.000001 0.000000 0.000000 0.036662 0.000000
# 6 0.000000 0.000000 0.000000 -0.000003 0.000000 0.068318
#
#
# Mechanical properties :
#
#
# Convention : Reuss Voigt Hill
#
# Bulk Modulus (GPa) = 38.71401 39.08523 38.89962
# Shear Modulus (GPa) = 20.53191 22.78146 21.65668
#
# Velocity S-wave (km/s) = 3.42100 3.60353 3.51345
# Velocity P-wave (km/s) = 6.13769 6.29226 6.21546
#
# Compressibility (1/GPa) = 0.02583044
#
# Stress axis : x y z
#
# Youngs Moduli (GPa) = 42.92069 42.92069 77.19911
#
# Poissons Ratio (x) = 0.46613 0.23160
# Poissons Ratio (y) = 0.46613 0.23160
# Poissons Ratio (z) = 0.12876 0.12876
#
# Static dielectric constant tensor:
#      x y z
#    x 3.241620 0.000000 0.000000 
#    y 0.000000 3.241620 0.000000 
#    z 0.000000 0.000000 3.599630 
# 
# 
# High freq. dielectric constant tensor:
#      x y z
#    x 1.684660 0.000000 0.000000 
#    y 0.000000 1.684660 0.000000 
#    z 0.000000 0.000000 1.700050 
# 
# From -- ./inp_files/4536.got.cif
#   From: 2010.03.12/outbox.cif.g09.slc.cpg/sg187_3_cif.got.tgz:4536.got - 2010.04.01 11:58:23.
