data_PCOD8327852
_publ_section_title
;
Structure prediction by ZEFSAII (Michael W. Deem and Ramdas Pophale) SiO2 
 PCOD8327852
Probable space group: P -6 2 M
;
_chemical_formula_sum "Si O2"
_cell_formula_units_Z 22
_cell_length_a 13.205311
_cell_length_b 13.205311
_cell_length_c 7.667448
_cell_angle_alpha 90.000000
_cell_angle_beta 90.000000
_cell_angle_gamma 120.000000
_cell_volume 1157.920489
_symmetry_space_group_name_H-M "P -6 2 M"
_symmetry_group_IT_number 189
_symmetry_cell_setting 'hexagonal'
loop_
_space_group_symop_operation_xyz
x,y,z
-x+y,-x,-z
-y,x-y,z
x,y,-z
-x+y,-x,z
-y,x-y,-z
x-y,-y,-z
-x,-x+y,-z
y,x,-z
y,x,z
x-y,-y,z
-x,-x+y,z
loop_
_atom_site_type_symbol
_atom_site_label
_atom_site_fract_x
_atom_site_fract_y
_atom_site_fract_z
Si Si1 0.666667 0.333333 0.794198
Si Si2 0.863613 0.725757 0.000000
Si Si3 0.866862 0.576474 0.696903
O O1 0.788160 0.438086 0.723014
O O2 0.666667 0.333334 0.000000
O O3 0.827754 0.645178 0.171765
O O4 0.791183 0.791183 0.000000
O O5 0.000000 0.821132 0.000000
O O6 0.854182 0.611595 0.500000
O O7 0.000000 0.609844 0.736758
#
# Coordination Sequence:
#
# PCOD8327852 Si02
#       3
#     4   6  12
#     4  12  22  38  64  88 116 154 193 233 289 346
#     4  10  21  38  60  86 117 152 194 240 288 340
#     4  10  22  40  60  85 119 154 191 237 285 339
#
# _framework density 18.999578
#
# number of rings (size 3 to 8) (size 9 to 14) (size 15 to 20)
#    0.000    1.636    2.727    1.909    0.000    3.273 
#    0.000    0.000    0.000    3.273    0.000    0.000 
#    0.000    0.000    0.000    0.000    0.000    0.000 
#
# Total GULP energy -272893.282090 kJ/mol
# GULP energy per Si atom -12404.240095 kJ/mol
# Density = 1.895633 g / cm^3
# Si number density = 18.999578 Si / 1000 Ang^3
#
#
#
# Elastic Constant Matrix: (Units=GPa)
#
#
# Indices 1 2 3 4 5 6 
#
# 1 116.0968 61.2847 49.7308 0.0002 0.0002 0.0000
# 2 61.2847 116.0976 49.7308 0.0000 0.0001 0.0002
# 3 49.7308 49.7308 156.3510 0.0000 0.0000 0.0001
# 4 0.0002 0.0000 0.0000 21.3509 0.0000 0.0000
# 5 0.0002 0.0001 0.0000 0.0000 21.3510 -0.0001
# 6 0.0000 0.0002 0.0001 0.0000 -0.0001 27.4070
#
#
#
# Elastic Compliance Matrix: (Units=1/GPa)
#
#
# Indices 1 2 3 4 5 6 
#
# 1 0.012553 -0.005691 -0.002182 0.000000 0.000000 0.000000
# 2 -0.005691 0.012553 -0.002182 0.000000 0.000000 0.000000
# 3 -0.002182 -0.002182 0.007784 0.000000 0.000000 0.000000
# 4 0.000000 0.000000 0.000000 0.046836 0.000000 0.000000
# 5 0.000000 0.000000 0.000000 0.000000 0.046836 0.000000
# 6 0.000000 0.000000 0.000000 0.000000 0.000000 0.036487
#
#
# Mechanical properties :
#
#
# Convention : Reuss Voigt Hill
#
# Bulk Modulus (GPa) = 78.26444 78.89310 78.57877
# Shear Modulus (GPa) = 26.67801 29.20840 27.94320
#
# Velocity S-wave (km/s) = 3.75125 3.92512 3.83917
# Velocity P-wave (km/s) = 7.74885 7.88390 7.81666
#
# Compressibility (1/GPa) = 0.01277719
#
# Stress axis : x y z
#
# Youngs Moduli (GPa) = 79.66431 79.66490 128.46597
#
# Poissons Ratio (x) = 0.45340 0.28036
# Poissons Ratio (y) = 0.45340 0.28036
# Poissons Ratio (z) = 0.17386 0.17386
#
# Static dielectric constant tensor:
#      x y z
#    x 3.420400 0.000000 0.000000 
#    y 0.000000 3.420390 0.000000 
#    z 0.000000 0.000000 3.851430 
# 
# 
# High freq. dielectric constant tensor:
#      x y z
#    x 1.731160 0.000000 0.000000 
#    y 0.000000 1.731160 0.000000 
#    z 0.000000 0.000000 1.763750 
# 
# From -- ./inp_files/179.got.cif
#   From: 2010.03.12/outbox.cif.g09.slc.cpg/sg189_1_cif.got.tgz:179.got - 2010.04.01 12:03:36.
