data_PCOD8327263
_publ_section_title
;
Structure prediction by ZEFSAII (Michael W. Deem and Ramdas Pophale) SiO2 
 PCOD8327263
Probable space group: P -6 M 2
;
_chemical_formula_sum "Si O2"
_cell_formula_units_Z 44
_cell_length_a 16.965964
_cell_length_b 16.965964
_cell_length_c 8.764228
_cell_angle_alpha 90.000000
_cell_angle_beta 90.000000
_cell_angle_gamma 120.000000
_cell_volume 2184.748154
_symmetry_space_group_name_H-M "P -6 M 2"
_symmetry_group_IT_number 187
_symmetry_cell_setting 'hexagonal'
loop_
_space_group_symop_operation_xyz
x,y,z
-x+y,-x,-z
-y,x-y,z
x,y,-z
-x+y,-x,z
-y,x-y,-z
-y,-x,-z
-x+y,y,-z
x,x-y,-z
-x+y,y,z
x,x-y,z
-y,-x,z
loop_
_atom_site_type_symbol
_atom_site_label
_atom_site_fract_x
_atom_site_fract_y
_atom_site_fract_z
Si Si1 0.843345 0.333697 0.827727
Si Si2 0.897014 0.102987 0.318748
Si Si3 0.396668 0.969113 0.677461
Si Si4 0.000000 0.000000 0.680693
Si Si5 0.228527 0.950064 0.179499
O O1 0.802914 0.401457 0.823145
O O2 0.765447 0.234554 0.776959
O O3 0.923936 0.365141 0.707816
O O4 0.878151 0.331892 0.000000
O O5 0.893530 0.106471 0.500000
O O6 0.948744 0.051257 0.257194
O O7 0.953292 0.205922 0.254928
O O8 0.375698 0.949100 0.500000
O O9 0.468156 0.936312 0.731113
O O10 0.301543 0.919854 0.768698
O O11 0.000000 0.000000 0.500000
O O12 0.129212 0.870789 0.233601
O O13 0.232777 0.961748 0.000000
#
# Coordination Sequence:
#
# PCOD8327263 Si02
#       5
#    12   6  12   2  12
#     4   9  17  30  49  73 103 141 184 229 274 322
#     4  11  21  37  59  87 123 165 209 251 297 354
#     4  10  22  39  58  81 110 147 191 240 292 344
#     4   9  18  33  55  83 121 165 205 245 295 342
#     4  11  24  40  60  88 119 155 198 244 297 358
#
# _framework density 20.139621000000002
#
# number of rings (size 3 to 8) (size 9 to 14) (size 15 to 20)
#    0.000    1.909    1.364    2.318    1.909    4.909 
#    0.000    0.000    0.000    2.182    0.000    0.000 
#    0.000    0.000    0.000    0.000    0.000    0.000 
#
# Total GULP energy -545497.757501 kJ/mol
# GULP energy per Si atom -12397.676307 kJ/mol
# Density = 2.009378 g / cm^3
# Si number density = 20.139621 Si / 1000 Ang^3
#
#
#
# Elastic Constant Matrix: (Units=GPa)
#
#
# Indices 1 2 3 4 5 6 
#
# 1 86.6030 27.5009 30.9781 0.0000 0.0001 0.0000
# 2 27.5009 86.6030 30.9781 0.0000 -0.0001 0.0000
# 3 30.9781 30.9781 73.0464 0.0000 0.0000 0.0000
# 4 0.0000 0.0000 0.0000 29.1711 0.0000 -0.0001
# 5 0.0001 -0.0001 0.0000 0.0000 29.1711 0.0000
# 6 0.0000 0.0000 0.0000 -0.0001 0.0000 29.5510
#
#
#
# Elastic Compliance Matrix: (Units=1/GPa)
#
#
# Indices 1 2 3 4 5 6 
#
# 1 0.014153 -0.002767 -0.004829 0.000000 0.000000 0.000000
# 2 -0.002767 0.014153 -0.004829 0.000000 0.000000 0.000000
# 3 -0.004829 -0.004829 0.017785 0.000000 0.000000 0.000000
# 4 0.000000 0.000000 0.000000 0.034280 0.000000 0.000000
# 5 0.000000 0.000000 0.000000 0.000000 0.034280 0.000000
# 6 0.000000 0.000000 0.000000 0.000000 0.000000 0.033840
#
#
# Mechanical properties :
#
#
# Convention : Reuss Voigt Hill
#
# Bulk Modulus (GPa) = 47.07508 47.24074 47.15791
# Shear Modulus (GPa) = 27.71294 28.03166 27.87230
#
# Velocity S-wave (km/s) = 3.71353 3.73482 3.72419
# Velocity P-wave (km/s) = 6.46623 6.48892 6.47758
#
# Compressibility (1/GPa) = 0.02124266
#
# Stress axis : x y z
#
# Youngs Moduli (GPa) = 70.65726 70.65726 56.22587
#
# Poissons Ratio (x) = 0.19551 0.27149
# Poissons Ratio (y) = 0.19551 0.27149
# Poissons Ratio (z) = 0.34117 0.34117
#
# Static dielectric constant tensor:
#      x y z
#    x 3.734360 0.000000 0.000000 
#    y 0.000000 3.734360 0.000000 
#    z 0.000000 0.000000 3.470170 
# 
# 
# High freq. dielectric constant tensor:
#      x y z
#    x 1.775940 0.000000 0.000000 
#    y 0.000000 1.775940 0.000000 
#    z 0.000000 0.000000 1.780240 
# 
# From -- ./inp_files/374.got.cif
#   From: 2010.03.12/outbox.cif.g09.slc.cpg/sg187_1_cif.got.tgz:374.got - 2010.04.01 11:58:23.
