data_PCOD8327141
_publ_section_title
;
Structure prediction by ZEFSAII (Michael W. Deem and Ramdas Pophale) SiO2 
 PCOD8327141
Probable space group: P -6 M 2
;
_chemical_formula_sum "Si O2"
_cell_formula_units_Z 66
_cell_length_a 12.483055
_cell_length_b 12.483055
_cell_length_c 27.990857
_cell_angle_alpha 90.000000
_cell_angle_beta 90.000000
_cell_angle_gamma 120.000000
_cell_volume 3777.361897
_symmetry_space_group_name_H-M "P -6 M 2"
_symmetry_group_IT_number 187
_symmetry_cell_setting 'hexagonal'
loop_
_space_group_symop_operation_xyz
x,y,z
-x+y,-x,-z
-y,x-y,z
x,y,-z
-x+y,-x,z
-y,x-y,-z
-y,-x,-z
-x+y,y,-z
x,x-y,-z
-x+y,y,z
x,x-y,z
-y,-x,z
loop_
_atom_site_type_symbol
_atom_site_label
_atom_site_fract_x
_atom_site_fract_y
_atom_site_fract_z
Si Si1 0.753496 0.752998 0.945617
Si Si2 0.913917 0.332411 0.139643
Si Si3 0.751064 0.000314 0.770633
Si Si4 0.083876 0.666641 0.680851
Si Si5 0.583702 0.918224 0.500000
Si Si6 0.665059 0.582461 0.590327
O O1 0.739325 0.869663 0.932307
O O2 0.665645 0.638936 0.911675
O O3 0.896205 0.792410 0.937320
O O4 0.712545 0.709980 0.000000
O O5 0.929478 0.464739 0.149800
O O6 0.769171 0.230830 0.140641
O O7 0.988200 0.303940 0.179349
O O8 0.876042 0.123959 0.757032
O O9 0.781374 0.890687 0.774813
O O10 0.650624 0.975079 0.730288
O O11 0.115078 0.557539 0.684855
O O12 0.209021 0.790980 0.668493
O O13 0.986803 0.642487 0.639362
O O14 0.441418 0.882836 0.500000
O O15 0.588556 0.794278 0.500000
O O16 0.653727 0.995338 0.453389
O O17 0.796500 0.592999 0.587696
O O18 0.560814 0.439187 0.586995
#
# Coordination Sequence:
#
# PCOD8327141 Si02
#       6
#    12  12  12  12   6  12
#     4   9  17  30  50  75 100 126 158 199 246 293
#     4  10  20  33  49  70  97 129 164 201 242 288
#     4  10  20  34  53  76 101 129 162 202 248 296
#     4  10  20  34  53  76 103 135 169 205 244 290
#     4  10  20  34  54  78 104 134 168 208 252 300
#     4  10  20  34  53  76 102 132 167 208 252 296
#
# _framework density 17.472511000000001
#
# number of rings (size 3 to 8) (size 9 to 14) (size 15 to 20)
#    0.000    2.182    0.000    3.455    0.000    1.091 
#    0.000    4.545    0.000   17.091    0.000    0.000 
#    0.000    0.000    0.000    0.000    0.000    0.000 
#
# Total GULP energy -818640.629499 kJ/mol
# GULP energy per Si atom -12403.645902 kJ/mol
# Density = 1.743274 g / cm^3
# Si number density = 17.472511 Si / 1000 Ang^3
#
#
#
# Elastic Constant Matrix: (Units=GPa)
#
#
# Indices 1 2 3 4 5 6 
#
# 1 99.3729 55.1596 41.4025 0.0000 0.0003 0.0000
# 2 55.1596 99.3729 41.4025 0.0000 -0.0003 0.0000
# 3 41.4025 41.4025 94.6913 0.0000 0.0000 0.0000
# 4 0.0000 0.0000 0.0000 24.9532 0.0000 -0.0003
# 5 0.0003 -0.0003 0.0000 0.0000 24.9532 0.0000
# 6 0.0000 0.0000 0.0000 -0.0003 0.0000 22.1067
#
#
#
# Elastic Compliance Matrix: (Units=1/GPa)
#
#
# Indices 1 2 3 4 5 6 
#
# 1 0.015534 -0.007083 -0.003695 0.000000 0.000000 0.000000
# 2 -0.007083 0.015534 -0.003695 0.000000 0.000000 0.000000
# 3 -0.003695 -0.003695 0.013792 0.000000 0.000000 0.000000
# 4 0.000000 0.000000 0.000000 0.040075 0.000000 0.000001
# 5 0.000000 0.000000 0.000000 0.000000 0.040075 0.000000
# 6 0.000000 0.000000 0.000000 0.000001 0.000000 0.045235
#
#
# Mechanical properties :
#
#
# Convention : Reuss Voigt Hill
#
# Bulk Modulus (GPa) = 62.83916 63.26288 63.05102
# Shear Modulus (GPa) = 24.45016 24.76745 24.60881
#
# Velocity S-wave (km/s) = 3.74485 3.76907 3.75698
# Velocity P-wave (km/s) = 7.39873 7.43148 7.41512
#
# Compressibility (1/GPa) = 0.01591364
#
# Stress axis : x y z
#
# Youngs Moduli (GPa) = 64.37331 64.37331 72.50612
#
# Poissons Ratio (x) = 0.45597 0.26792
# Poissons Ratio (y) = 0.45597 0.26792
# Poissons Ratio (z) = 0.23787 0.23787
#
# Static dielectric constant tensor:
#      x y z
#    x 3.156670 0.000000 0.000000 
#    y 0.000000 3.156670 0.000000 
#    z 0.000000 0.000000 3.464660 
# 
# 
# High freq. dielectric constant tensor:
#      x y z
#    x 1.672970 0.000000 0.000000 
#    y 0.000000 1.672970 0.000000 
#    z 0.000000 0.000000 1.693030 
# 
# From -- ./inp_files/4446.got.cif
#   From: 2010.03.12/outbox.cif.g09.slc.cpg/sg187_3_cif.got.tgz:4446.got - 2010.04.01 11:58:23.
