data_PCOD8327224
_publ_section_title
;
Structure prediction by ZEFSAII (Michael W. Deem and Ramdas Pophale) SiO2 
 PCOD8327224
Probable space group: P -6 M 2
;
_chemical_formula_sum "Si O2"
_cell_formula_units_Z 72
_cell_length_a 22.435609
_cell_length_b 22.435609
_cell_length_c 9.533843
_cell_angle_alpha 90.000000
_cell_angle_beta 90.000000
_cell_angle_gamma 120.000000
_cell_volume 4155.988650
_symmetry_space_group_name_H-M "P -6 M 2"
_symmetry_group_IT_number 187
_symmetry_cell_setting 'hexagonal'
loop_
_space_group_symop_operation_xyz
x,y,z
-x+y,-x,-z
-y,x-y,z
x,y,-z
-x+y,-x,z
-y,x-y,-z
-y,-x,-z
-x+y,y,-z
x,x-y,-z
-x+y,y,z
x,x-y,z
-y,-x,z
loop_
_atom_site_type_symbol
_atom_site_label
_atom_site_fract_x
_atom_site_fract_y
_atom_site_fract_z
Si Si1 0.734140 0.797277 0.160294
Si Si2 0.863167 0.000380 0.336573
Si Si3 0.333333 0.926501 0.165597
Si Si4 0.463943 0.396471 0.839706
Si Si5 0.333334 0.805390 0.662747
Si Si6 0.667047 0.196500 0.336572
O O1 0.724285 0.862143 0.181262
O O2 0.797439 0.805080 0.252897
O O3 0.664199 0.732317 0.212751
O O4 0.749942 0.788194 0.000000
O O5 0.848023 0.001081 0.500000
O O6 0.877635 0.938818 0.299466
O O7 0.929240 0.070761 0.288239
O O8 0.333332 0.864361 0.244906
O O9 0.398984 0.997532 0.212752
O O10 0.333333 0.913184 0.000000
O O11 0.528809 0.471192 0.818738
O O12 0.471747 0.340975 0.747104
O O13 0.454860 0.371586 0.000000
O O14 0.333336 0.823821 0.500000
O O15 0.399802 0.799603 0.700861
O O16 0.266867 0.733134 0.700851
O O17 0.667747 0.181356 0.500000
O O18 0.605484 0.210968 0.299467
O O19 0.737428 0.262573 0.288240
#
# Coordination Sequence:
#
# PCOD8327224 Si02
#       6
#    12  12  12  12  12  12
#     4   9  18  32  49  70  96 125 159 200 243 287
#     4   9  17  30  49  72  97 125 158 198 244 292
#     4  10  20  35  54  74  98 131 169 206 243 284
#     4   9  18  32  49  70  96 125 159 200 243 287
#     4  10  21  36  54  77 105 134 163 199 245 294
#     4   9  17  30  49  72  97 125 158 198 244 292
#
# _framework density 17.324397999999999
#
# number of rings (size 3 to 8) (size 9 to 14) (size 15 to 20)
#    0.000    2.667    0.000    1.500    0.000    6.000 
#    0.000    4.167    0.000    8.000    0.000    0.000 
#    0.000    0.000    0.000    0.000    0.000    0.000 
#
# Total GULP energy -892953.988643 kJ/mol
# GULP energy per Si atom -12402.138731 kJ/mol
# Density = 1.728497 g / cm^3
# Si number density = 17.324398 Si / 1000 Ang^3
#
#
#
# Elastic Constant Matrix: (Units=GPa)
#
#
# Indices 1 2 3 4 5 6 
#
# 1 131.0534 80.7761 62.4035 0.0000 0.0002 0.0000
# 2 80.7761 131.0534 62.4035 0.0000 -0.0002 0.0000
# 3 62.4035 62.4035 61.5113 0.0000 0.0000 0.0000
# 4 0.0000 0.0000 0.0000 31.1092 0.0000 -0.0002
# 5 0.0002 -0.0002 0.0000 0.0000 31.1092 0.0000
# 6 0.0000 0.0000 0.0000 -0.0002 0.0000 25.1387
#
#
#
# Elastic Compliance Matrix: (Units=1/GPa)
#
#
# Indices 1 2 3 4 5 6 
#
# 1 0.015813 -0.004077 -0.011906 0.000000 0.000000 0.000000
# 2 -0.004077 0.015813 -0.011906 0.000000 0.000000 0.000000
# 3 -0.011906 -0.011906 0.040414 0.000000 0.000000 0.000000
# 4 0.000000 0.000000 0.000000 0.032145 0.000000 0.000000
# 5 0.000000 0.000000 0.000000 0.000000 0.032145 0.000000
# 6 0.000000 0.000000 0.000000 0.000000 0.000000 0.039779
#
#
# Mechanical properties :
#
#
# Convention : Reuss Voigt Hill
#
# Bulk Modulus (GPa) = 61.49258 81.64270 71.56764
# Shear Modulus (GPa) = 21.06990 25.34043 23.20516
#
# Velocity S-wave (km/s) = 3.49119 3.82868 3.66382
# Velocity P-wave (km/s) = 7.19882 8.17149 7.70053
#
# Compressibility (1/GPa) = 0.01626213
#
# Stress axis : x y z
#
# Youngs Moduli (GPa) = 63.24094 63.24094 24.74399
#
# Poissons Ratio (x) = 0.25784 0.29459
# Poissons Ratio (y) = 0.25784 0.29459
# Poissons Ratio (z) = 0.75292 0.75292
#
# Static dielectric constant tensor:
#      x y z
#    x 3.281110 0.000000 0.000000 
#    y 0.000000 3.281110 0.000000 
#    z 0.000000 0.000000 3.202350 
# 
# 
# High freq. dielectric constant tensor:
#      x y z
#    x 1.669950 0.000000 0.000000 
#    y 0.000000 1.669950 0.000000 
#    z 0.000000 0.000000 1.663980 
# 
# From -- ./inp_files/965.got.cif
#   From: 2010.03.12/outbox.cif.g09.slc.cpg/sg187_1_cif.got.tgz:965.got - 2010.04.01 11:58:23.
