data_PCOD8327059
_publ_section_title
;
Structure prediction by ZEFSAII (Michael W. Deem and Ramdas Pophale) SiO2 
 PCOD8327059
Probable space group: P -6 M 2
;
_chemical_formula_sum "Si O2"
_cell_formula_units_Z 66
_cell_length_a 12.833174
_cell_length_b 12.833174
_cell_length_c 27.610379
_cell_angle_alpha 90.000000
_cell_angle_beta 90.000000
_cell_angle_gamma 120.000000
_cell_volume 3937.958774
_symmetry_space_group_name_H-M "P -6 M 2"
_symmetry_group_IT_number 187
_symmetry_cell_setting 'hexagonal'
loop_
_space_group_symop_operation_xyz
x,y,z
-x+y,-x,-z
-y,x-y,z
x,y,-z
-x+y,-x,z
-y,x-y,-z
-y,-x,-z
-x+y,y,-z
x,x-y,-z
-x+y,y,z
x,x-y,z
-y,-x,z
loop_
_atom_site_type_symbol
_atom_site_label
_atom_site_fract_x
_atom_site_fract_y
_atom_site_fract_z
Si Si1 0.760557 0.999776 0.807195
Si Si2 0.332529 0.422660 0.000000
Si Si3 0.333804 0.910143 0.724768
Si Si4 0.000107 0.239034 0.555356
Si Si5 0.760310 0.760277 0.082270
Si Si6 0.423731 0.089938 0.637448
O O1 0.800331 0.900165 0.799944
O O2 0.647293 0.971468 0.773984
O O3 0.721090 0.000886 0.862427
O O4 0.872780 0.127221 0.792134
O O5 0.326855 0.349257 0.047983
O O6 0.457697 0.542304 0.000000
O O7 0.228011 0.456021 0.000000
O O8 0.441465 0.882930 0.731225
O O9 0.213638 0.786363 0.713461
O O10 0.355623 0.999817 0.681031
O O11 0.003520 0.279684 0.500000
O O12 0.127000 0.253999 0.571252
O O13 0.970979 0.324172 0.588094
O O14 0.900170 0.099830 0.562486
O O15 0.874508 0.749016 0.067672
O O16 0.796058 0.898029 0.073933
O O17 0.558712 0.117424 0.631088
O O18 0.427020 0.213510 0.648907
#
# Coordination Sequence:
#
# PCOD8327059 Si02
#       6
#    12   6  12  12  12  12
#     4   9  17  30  49  73  98 121 147 184 233 284
#     4  10  20  32  46  66  94 128 162 194 230 274
#     4  10  20  33  49  69  94 125 160 196 233 275
#     4   9  17  30  49  72  96 121 150 187 232 280
#     4   9  17  30  50  74  96 118 147 188 236 281
#     4  10  20  33  49  69  94 125 160 197 236 278
#
# _framework density 16.759951000000001
#
# number of rings (size 3 to 8) (size 9 to 14) (size 15 to 20)
#    0.000    2.545    0.000    2.364    0.000    3.273 
#    0.000    0.909    0.000   11.273    0.000    0.000 
#    0.000    0.000    0.000    0.000    0.000    0.000 
#
# Total GULP energy -818522.423727 kJ/mol
# GULP energy per Si atom -12401.854905 kJ/mol
# Density = 1.672180 g / cm^3
# Si number density = 16.759951 Si / 1000 Ang^3
#
#
#
# Elastic Constant Matrix: (Units=GPa)
#
#
# Indices 1 2 3 4 5 6 
#
# 1 116.7913 70.5955 67.7469 0.0000 0.0002 0.0000
# 2 70.5955 116.7913 67.7469 0.0000 -0.0002 0.0000
# 3 67.7469 67.7469 105.1021 0.0000 0.0000 0.0000
# 4 0.0000 0.0000 0.0000 26.6980 0.0000 -0.0002
# 5 0.0002 -0.0002 0.0000 0.0000 26.6980 0.0000
# 6 0.0000 0.0000 0.0000 -0.0002 0.0000 23.0979
#
#
#
# Elastic Compliance Matrix: (Units=1/GPa)
#
#
# Indices 1 2 3 4 5 6 
#
# 1 0.015821 -0.005826 -0.006443 0.000000 0.000000 0.000000
# 2 -0.005826 0.015821 -0.006443 0.000000 0.000000 0.000000
# 3 -0.006443 -0.006443 0.017820 0.000000 0.000000 0.000000
# 4 0.000000 0.000000 0.000000 0.037456 0.000000 0.000000
# 5 0.000000 0.000000 0.000000 0.000000 0.037456 0.000000
# 6 0.000000 0.000000 0.000000 0.000000 0.000000 0.043294
#
#
# Mechanical properties :
#
#
# Convention : Reuss Voigt Hill
#
# Bulk Modulus (GPa) = 83.05830 83.42928 83.24379
# Shear Modulus (GPa) = 23.91158 24.13848 24.02503
#
# Velocity S-wave (km/s) = 3.78128 3.79918 3.79024
# Velocity P-wave (km/s) = 8.29031 8.31457 8.30245
#
# Compressibility (1/GPa) = 0.01203974
#
# Stress axis : x y z
#
# Youngs Moduli (GPa) = 63.20718 63.20718 56.11628
#
# Poissons Ratio (x) = 0.36824 0.36154
# Poissons Ratio (y) = 0.36824 0.36154
# Poissons Ratio (z) = 0.40722 0.40722
#
# Static dielectric constant tensor:
#      x y z
#    x 3.054240 0.000000 0.000000 
#    y 0.000000 3.054240 0.000000 
#    z 0.000000 0.000000 3.350950 
# 
# 
# High freq. dielectric constant tensor:
#      x y z
#    x 1.640810 0.000000 0.000000 
#    y 0.000000 1.640810 0.000000 
#    z 0.000000 0.000000 1.657180 
# 
# From -- ./inp_files/4452.got.cif
#   From: 2010.03.12/outbox.cif.g09.slc.cpg/sg187_3_cif.got.tgz:4452.got - 2010.04.01 11:58:23.
