data_PCOD8327239
_publ_section_title
;
Structure prediction by ZEFSAII (Michael W. Deem and Ramdas Pophale) SiO2 
 PCOD8327239
Probable space group: P -6 M 2
;
_chemical_formula_sum "Si O2"
_cell_formula_units_Z 72
_cell_length_a 24.036858
_cell_length_b 24.036858
_cell_length_c 9.307972
_cell_angle_alpha 90.000000
_cell_angle_beta 90.000000
_cell_angle_gamma 120.000000
_cell_volume 4657.373798
_symmetry_space_group_name_H-M "P -6 M 2"
_symmetry_group_IT_number 187
_symmetry_cell_setting 'hexagonal'
loop_
_space_group_symop_operation_xyz
x,y,z
-x+y,-x,-z
-y,x-y,z
x,y,-z
-x+y,-x,z
-y,x-y,-z
-y,-x,-z
-x+y,y,-z
x,x-y,-z
-x+y,y,z
x,x-y,z
-y,-x,z
loop_
_atom_site_type_symbol
_atom_site_label
_atom_site_fract_x
_atom_site_fract_y
_atom_site_fract_z
Si Si1 0.373097 0.868212 0.167397
Si Si2 0.596740 0.860420 0.333506
Si Si3 0.872419 0.872754 0.665480
Si Si4 0.557235 0.996417 0.337894
Si Si5 0.991651 0.675210 0.335642
Si Si6 0.809016 0.746142 0.168278
O O1 0.417773 0.835546 0.195013
O O2 0.305195 0.834001 0.250153
O O3 0.412491 0.940826 0.221643
O O4 0.358808 0.868201 0.000000
O O5 0.580758 0.859243 0.500000
O O6 0.623413 0.811707 0.299288
O O7 0.649456 0.933131 0.288109
O O8 0.852659 0.854587 0.500000
O O9 0.945598 0.891195 0.691630
O O10 0.824166 0.813312 0.762350
O O11 0.865637 0.932819 0.713828
O O12 0.546061 0.967090 0.500000
O O13 0.517918 0.035836 0.322419
O O14 0.634221 0.036085 0.314522
O O15 0.984070 0.691381 0.500000
O O16 0.947476 0.690634 0.234461
O O17 0.865190 0.730381 0.205059
O O18 0.800825 0.750429 0.000000
#
# Coordination Sequence:
#
# PCOD8327239 Si02
#       6
#    12  12  12  12  12  12
#     4   9  16  25  39  60  83 106 133 164 199 242
#     4   9  18  31  45  62  84 109 139 177 220 264
#     4   9  17  30  48  66  81 100 133 181 234 283
#     4   8  14  26  44  65  87 108 130 158 194 236
#     4   9  17  29  46  66  86 111 142 174 210 253
#     4  10  21  34  45  60  85 116 148 180 215 258
#
# _framework density 15.459357000000001
#
# number of rings (size 3 to 8) (size 9 to 14) (size 15 to 20)
#    0.000    3.000    0.000    2.167    0.000    6.667 
#    0.000    1.667    0.000    1.333    0.000    0.000 
#    0.000    0.000    0.000    0.500    0.000    7.667 
#
# Total GULP energy -891954.991127 kJ/mol
# GULP energy per Si atom -12388.263766 kJ/mol
# Density = 1.542417 g / cm^3
# Si number density = 15.459357 Si / 1000 Ang^3
#
#
#
# Elastic Constant Matrix: (Units=GPa)
#
#
# Indices 1 2 3 4 5 6 
#
# 1 80.4020 48.8982 37.7566 0.0000 0.0000 0.0000
# 2 48.8982 80.4020 37.7566 0.0000 0.0000 0.0000
# 3 37.7566 37.7566 60.8342 0.0000 0.0000 0.0000
# 4 0.0000 0.0000 0.0000 20.8467 0.0000 0.0000
# 5 0.0000 0.0000 0.0000 0.0000 20.8467 0.0000
# 6 0.0000 0.0000 0.0000 0.0000 0.0000 15.7519
#
#
#
# Elastic Compliance Matrix: (Units=1/GPa)
#
#
# Indices 1 2 3 4 5 6 
#
# 1 0.021937 -0.009806 -0.007529 0.000000 0.000000 0.000000
# 2 -0.009806 0.021937 -0.007529 0.000000 0.000000 0.000000
# 3 -0.007529 -0.007529 0.025784 0.000000 0.000000 0.000000
# 4 0.000000 0.000000 0.000000 0.047969 0.000000 0.000000
# 5 0.000000 0.000000 0.000000 0.000000 0.047969 0.000000
# 6 0.000000 0.000000 0.000000 0.000000 0.000000 0.063484
#
#
# Mechanical properties :
#
#
# Convention : Reuss Voigt Hill
#
# Bulk Modulus (GPa) = 50.17651 52.27345 51.22498
# Shear Modulus (GPa) = 17.51616 17.97086 17.74351
#
# Velocity S-wave (km/s) = 3.36973 3.41318 3.39152
# Velocity P-wave (km/s) = 6.90417 7.02993 6.96734
#
# Compressibility (1/GPa) = 0.01992964
#
# Stress axis : x y z
#
# Youngs Moduli (GPa) = 45.58589 45.58589 38.78380
#
# Poissons Ratio (x) = 0.44700 0.29201
# Poissons Ratio (y) = 0.44700 0.29201
# Poissons Ratio (z) = 0.34322 0.34322
#
# Static dielectric constant tensor:
#      x y z
#    x 2.952330 0.000000 0.000000 
#    y 0.000000 2.952330 0.000000 
#    z 0.000000 0.000000 2.975320 
# 
# 
# High freq. dielectric constant tensor:
#      x y z
#    x 1.567450 0.000000 0.000000 
#    y 0.000000 1.567450 0.000000 
#    z 0.000000 0.000000 1.597940 
# 
# From -- ./inp_files/923.got.cif
#   From: 2010.03.12/outbox.cif.g09.slc.cpg/sg187_1_cif.got.tgz:923.got - 2010.04.01 11:58:23.
