data_PCOD8327769
_publ_section_title
;
Structure prediction by ZEFSAII (Michael W. Deem and Ramdas Pophale) SiO2 
 PCOD8327769
Probable space group: P -6 2 M
;
_chemical_formula_sum "Si O2"
_cell_formula_units_Z 64
_cell_length_a 14.054339
_cell_length_b 14.054339
_cell_length_c 17.951717
_cell_angle_alpha 90.000000
_cell_angle_beta 90.000000
_cell_angle_gamma 120.000000
_cell_volume 3070.842019
_symmetry_space_group_name_H-M "P -6 2 M"
_symmetry_group_IT_number 189
_symmetry_cell_setting 'hexagonal'
loop_
_space_group_symop_operation_xyz
x,y,z
-x+y,-x,-z
-y,x-y,z
x,y,-z
-x+y,-x,z
-y,x-y,-z
x-y,-y,-z
-x,-x+y,-z
y,x,-z
y,x,z
x-y,-y,z
-x,-x+y,z
loop_
_atom_site_type_symbol
_atom_site_label
_atom_site_fract_x
_atom_site_fract_y
_atom_site_fract_z
Si Si1 0.873407 0.124995 0.692778
Si Si2 0.333334 0.666667 0.412241
Si Si3 0.464544 0.218167 0.916732
Si Si4 0.120180 0.880290 0.134230
Si Si5 0.129138 0.661031 0.335566
Si Si6 0.583381 0.123626 0.171495
O O1 0.858230 0.135004 0.780081
O O2 0.786995 0.154730 0.654758
O O3 0.000000 0.207675 0.667041
O O4 0.841293 0.000000 0.672674
O O5 0.333334 0.666668 0.500000
O O6 0.213370 0.644938 0.387083
O O7 0.337673 0.123899 0.914663
O O8 0.464553 0.327932 0.890588
O O9 0.537488 0.202114 0.854704
O O10 0.511766 0.226505 0.000000
O O11 0.000000 0.792706 0.104973
O O12 0.134249 0.000000 0.125776
O O13 0.154424 0.637543 0.252469
O O14 0.000000 0.577120 0.355931
O O15 0.483358 0.000000 0.169381
#
# Coordination Sequence:
#
# PCOD8327769 Si02
#       6
#    12   4  12  12  12  12
#     4   9  17  33  60  95 128 160 202 255 312 368
#     4  12  27  45  66  99 139 170 202 249 315 390
#     4  12  24  37  54  78 111 152 203 257 315 376
#     4  10  20  35  54  79 111 148 191 242 303 368
#     4  10  22  42  68  95 125 166 215 261 310 377
#     4  11  23  41  61  82 110 149 202 260 310 356
#
# _framework density 20.841190000000001
#
# number of rings (size 3 to 8) (size 9 to 14) (size 15 to 20)
#    0.000    1.500    1.875    3.562    0.000    6.375 
#    0.000    0.000    0.000    1.125    0.000    0.000 
#    0.000    1.500    0.000    0.000    0.000    0.000 
#
# Total GULP energy -793191.484222 kJ/mol
# GULP energy per Si atom -12393.616941 kJ/mol
# Density = 2.079375 g / cm^3
# Si number density = 20.841190 Si / 1000 Ang^3
#
#
#
# Elastic Constant Matrix: (Units=GPa)
#
#
# Indices 1 2 3 4 5 6 
#
# 1 117.2072 52.2814 49.4257 0.0000 0.0000 0.0000
# 2 52.2814 117.2077 49.4259 0.0000 0.0000 0.0001
# 3 49.4257 49.4259 84.8927 0.0000 0.0000 0.0000
# 4 0.0000 0.0000 0.0000 12.7631 0.0000 0.0000
# 5 0.0000 0.0000 0.0000 0.0000 12.7630 0.0000
# 6 0.0000 0.0001 0.0000 0.0000 0.0000 32.4631
#
#
#
# Elastic Compliance Matrix: (Units=1/GPa)
#
#
# Indices 1 2 3 4 5 6 
#
# 1 0.012168 -0.003234 -0.005201 0.000000 0.000000 0.000000
# 2 -0.003234 0.012168 -0.005201 0.000000 0.000000 0.000000
# 3 -0.005201 -0.005201 0.017836 0.000000 0.000000 0.000000
# 4 0.000000 0.000000 0.000000 0.078351 0.000000 0.000000
# 5 0.000000 0.000000 0.000000 0.000000 0.078351 0.000000
# 6 0.000000 0.000000 0.000000 0.000000 0.000000 0.030804
#
#
# Mechanical properties :
#
#
# Convention : Reuss Voigt Hill
#
# Bulk Modulus (GPa) = 67.12212 69.06374 68.09293
# Shear Modulus (GPa) = 19.08995 22.80950 20.94973
#
# Velocity S-wave (km/s) = 3.02979 3.31183 3.17394
# Velocity P-wave (km/s) = 6.67202 6.91623 6.79522
#
# Compressibility (1/GPa) = 0.01489822
#
# Stress axis : x y z
#
# Youngs Moduli (GPa) = 82.18324 82.18355 56.06595
#
# Poissons Ratio (x) = 0.26580 0.29162
# Poissons Ratio (y) = 0.26580 0.29162
# Poissons Ratio (z) = 0.42746 0.42746
#
# Static dielectric constant tensor:
#      x y z
#    x 3.824140 0.000000 0.000000 
#    y 0.000000 3.824130 0.000000 
#    z 0.000000 0.000000 3.269000 
# 
# 
# High freq. dielectric constant tensor:
#      x y z
#    x 1.827830 0.000000 0.000000 
#    y 0.000000 1.827830 0.000000 
#    z 0.000000 0.000000 1.760620 
# 
# From -- ./inp_files/3042.got.cif
#   From: 2010.03.12/outbox.cif.g09.slc.cpg/sg189_2_cif.got.tgz:3042.got - 2010.04.01 12:03:36.
