data_PCOD8327669
_publ_section_title
;
Structure prediction by ZEFSAII (Michael W. Deem and Ramdas Pophale) SiO2 
 PCOD8327669
Probable space group: P -6 2 M
;
_chemical_formula_sum "Si O2"
_cell_formula_units_Z 96
_cell_length_a 14.754976
_cell_length_b 14.754976
_cell_length_c 27.183999
_cell_angle_alpha 90.000000
_cell_angle_beta 90.000000
_cell_angle_gamma 120.000000
_cell_volume 5125.320074
_symmetry_space_group_name_H-M "P -6 2 M"
_symmetry_group_IT_number 189
_symmetry_cell_setting 'hexagonal'
loop_
_space_group_symop_operation_xyz
x,y,z
-x+y,-x,-z
-y,x-y,z
x,y,-z
-x+y,-x,z
-y,x-y,-z
x-y,-y,-z
-x,-x+y,-z
y,x,-z
y,x,z
x-y,-y,z
-x,-x+y,z
loop_
_atom_site_type_symbol
_atom_site_label
_atom_site_fract_x
_atom_site_fract_y
_atom_site_fract_z
Si Si1 0.117809 0.537974 0.699906
Si Si2 0.451421 0.187623 0.101076
Si Si3 0.880587 0.476664 0.943726
Si Si4 0.118319 0.236177 0.944098
Si Si5 0.121181 0.879115 0.443775
Si Si6 0.614543 0.878086 0.723121
Si Si7 0.119628 0.411036 0.208413
Si Si8 0.122401 0.368875 0.643152
O O1 0.171909 0.663523 0.706019
O O2 0.125356 0.495313 0.752924
O O3 0.161159 0.491536 0.656558
O O4 0.000000 0.501245 0.684695
O O5 0.498220 0.136361 0.064513
O O6 0.507210 0.311659 0.092581
O O7 0.328616 0.134228 0.091378
O O8 0.468688 0.162577 0.156591
O O9 0.000000 0.563101 0.932018
O O10 0.853305 0.486966 0.000000
O O11 0.193167 0.193167 0.926060
O O12 0.000000 0.142215 0.940538
O O13 0.146546 0.278347 0.000000
O O14 0.136906 0.856597 0.500000
O O15 0.198984 0.853159 0.412036
O O16 0.000000 0.807493 0.427935
O O17 0.153023 0.000000 0.436387
O O18 0.628018 0.825922 0.772649
O O19 0.671726 0.853091 0.679114
O O20 0.669043 0.000000 0.734334
O O21 0.000000 0.315758 0.203653
O O22 0.000000 0.301437 0.655641
#
# Coordination Sequence:
#
# PCOD8327669 Si02
#       8
#    12  12  12  12  12  12  12  12
#     4   8  17  34  52  72 102 135 175 226 268 317
#     4  12  24  39  60  81 111 146 178 220 274 331
#     4  11  24  41  60  83 110 141 179 221 267 328
#     4  10  20  36  59  85 110 139 178 222 268 321
#     4   9  16  26  45  76 114 154 196 240 285 336
#     4  10  19  33  56  79 104 140 182 228 275 329
#     4  10  22  39  56  79 112 140 172 216 271 330
#     4   9  17  32  51  75 110 147 185 231 282 333
#
# _framework density 18.730539
#
# number of rings (size 3 to 8) (size 9 to 14) (size 15 to 20)
#    0.000    2.125    0.000    4.625    1.750    4.000 
#    6.000    0.000    0.000    3.500    0.000    3.500 
#    0.000    0.000    0.000    0.000    0.000    0.000 
#
# Total GULP energy -1189822.240546 kJ/mol
# GULP energy per Si atom -12393.981672 kJ/mol
# Density = 1.868791 g / cm^3
# Si number density = 18.730539 Si / 1000 Ang^3
#
#
#
# Elastic Constant Matrix: (Units=GPa)
#
#
# Indices 1 2 3 4 5 6 
#
# 1 90.6379 36.2133 40.9645 0.0000 0.0000 0.0000
# 2 36.2133 90.6379 40.9645 0.0000 0.0000 0.0000
# 3 40.9645 40.9645 89.1211 0.0000 0.0000 0.0000
# 4 0.0000 0.0000 0.0000 26.0363 0.0000 0.0000
# 5 0.0000 0.0000 0.0000 0.0000 26.0363 0.0000
# 6 0.0000 0.0000 0.0000 0.0000 0.0000 27.2123
#
#
#
# Elastic Compliance Matrix: (Units=1/GPa)
#
#
# Indices 1 2 3 4 5 6 
#
# 1 0.014793 -0.003581 -0.005153 0.000000 0.000000 0.000000
# 2 -0.003581 0.014793 -0.005153 0.000000 0.000000 0.000000
# 3 -0.005153 -0.005153 0.015958 0.000000 0.000000 0.000000
# 4 0.000000 0.000000 0.000000 0.038408 0.000000 0.000000
# 5 0.000000 0.000000 0.000000 0.000000 0.038408 0.000000
# 6 0.000000 0.000000 0.000000 0.000000 0.000000 0.036748
#
#
# Mechanical properties :
#
#
# Convention : Reuss Voigt Hill
#
# Bulk Modulus (GPa) = 56.28147 56.29793 56.28970
# Shear Modulus (GPa) = 25.93271 26.00728 25.96999
#
# Velocity S-wave (km/s) = 3.72494 3.73030 3.72762
# Velocity P-wave (km/s) = 6.97234 6.97678 6.97456
#
# Compressibility (1/GPa) = 0.01776784
#
# Stress axis : x y z
#
# Youngs Moduli (GPa) = 67.60010 67.60010 62.66358
#
# Poissons Ratio (x) = 0.24209 0.32293
# Poissons Ratio (y) = 0.24209 0.32293
# Poissons Ratio (z) = 0.34837 0.34837
#
# Static dielectric constant tensor:
#      x y z
#    x 3.480740 0.000000 0.000000 
#    y 0.000000 3.480740 0.000000 
#    z 0.000000 0.000000 3.361150 
# 
# 
# High freq. dielectric constant tensor:
#      x y z
#    x 1.726090 0.000000 0.000000 
#    y 0.000000 1.726090 0.000000 
#    z 0.000000 0.000000 1.709000 
# 
# From -- ./inp_files/3702.got.cif
#   From: 2010.03.12/outbox.cif.g09.slc.cpg/sg189_2_cif.got.tgz:3702.got - 2010.04.01 12:03:36.
