data_PCOD8327856
_publ_section_title
;
Structure prediction by ZEFSAII (Michael W. Deem and Ramdas Pophale) SiO2 
 PCOD8327856
Probable space group: P -6 2 M
;
_chemical_formula_sum "Si O2"
_cell_formula_units_Z 32
_cell_length_a 11.419436
_cell_length_b 11.419436
_cell_length_c 14.355501
_cell_angle_alpha 90.000000
_cell_angle_beta 90.000000
_cell_angle_gamma 120.000000
_cell_volume 1621.206346
_symmetry_space_group_name_H-M "P -6 2 M"
_symmetry_group_IT_number 189
_symmetry_cell_setting 'hexagonal'
loop_
_space_group_symop_operation_xyz
x,y,z
-x+y,-x,-z
-y,x-y,z
x,y,-z
-x+y,-x,z
-y,x-y,-z
x-y,-y,-z
-x,-x+y,-z
y,x,-z
y,x,z
x-y,-y,z
-x,-x+y,z
loop_
_atom_site_type_symbol
_atom_site_label
_atom_site_fract_x
_atom_site_fract_y
_atom_site_fract_z
Si Si1 0.153429 0.307241 0.105466
Si Si2 0.000000 0.000000 0.389430
Si Si3 0.783428 0.281900 0.728906
Si Si4 0.734780 0.734780 0.610281
O O1 0.249652 0.249652 0.138893
O O2 0.171421 0.429096 0.170521
O O3 0.000000 0.185398 0.111879
O O4 0.188800 0.362894 0.000000
O O5 0.132470 0.000000 0.352252
O O6 0.000000 0.000000 0.500000
O O7 0.817058 0.437881 0.720166
O O8 0.863359 0.256549 0.647228
O O9 0.726212 0.726212 0.500000
#
# Coordination Sequence:
#
# PCOD8327856 Si02
#       4
#    12   2  12   6
#     4  10  21  38  64  97 133 175 222 273 327 387
#     4   9  24  45  69 102 121 155 220 270 336 384
#     4  10  25  40  62  94 133 172 220 258 325 399
#     4  11  24  45  70  98 129 167 221 284 335 388
#
# _framework density 19.738388
#
# number of rings (size 3 to 8) (size 9 to 14) (size 15 to 20)
#    0.750    1.125    1.875    0.375    5.250    4.500 
#    0.000    5.625    0.000    0.000    0.000    0.000 
#    0.000    0.000    0.000    0.000    0.000    0.000 
#
# Total GULP energy -396689.099361 kJ/mol
# GULP energy per Si atom -12396.534355 kJ/mol
# Density = 1.969346 g / cm^3
# Si number density = 19.738388 Si / 1000 Ang^3
#
#
#
# Elastic Constant Matrix: (Units=GPa)
#
#
# Indices 1 2 3 4 5 6 
#
# 1 132.4525 56.5829 60.2603 0.0000 0.0000 0.0000
# 2 56.5829 132.4525 60.2603 0.0000 0.0000 0.0000
# 3 60.2603 60.2603 122.5439 0.0000 0.0000 0.0000
# 4 0.0000 0.0000 0.0000 29.0512 0.0000 0.0000
# 5 0.0000 0.0000 0.0000 0.0000 29.0512 0.0000
# 6 0.0000 0.0000 0.0000 0.0000 0.0000 37.9348
#
#
#
# Elastic Compliance Matrix: (Units=1/GPa)
#
#
# Indices 1 2 3 4 5 6 
#
# 1 0.010443 -0.002737 -0.003789 0.000000 0.000000 0.000000
# 2 -0.002737 0.010443 -0.003789 0.000000 0.000000 0.000000
# 3 -0.003789 -0.003789 0.011887 0.000000 0.000000 0.000000
# 4 0.000000 0.000000 0.000000 0.034422 0.000000 0.000000
# 5 0.000000 0.000000 0.000000 0.000000 0.034422 0.000000
# 6 0.000000 0.000000 0.000000 0.000000 0.000000 0.026361
#
#
# Mechanical properties :
#
#
# Convention : Reuss Voigt Hill
#
# Bulk Modulus (GPa) = 82.36152 82.40621 82.38386
# Shear Modulus (GPa) = 32.75298 33.23044 32.99171
#
# Velocity S-wave (km/s) = 4.07794 4.10755 4.09277
# Velocity P-wave (km/s) = 7.99937 8.02096 8.01017
#
# Compressibility (1/GPa) = 0.01214159
#
# Stress axis : x y z
#
# Youngs Moduli (GPa) = 95.75585 95.75585 84.12454
#
# Poissons Ratio (x) = 0.26211 0.31878
# Poissons Ratio (y) = 0.26211 0.31878
# Poissons Ratio (z) = 0.36285 0.36285
#
# Static dielectric constant tensor:
#      x y z
#    x 3.585460 0.000000 0.000000 
#    y 0.000000 3.585460 0.000000 
#    z 0.000000 0.000000 3.467920 
# 
# 
# High freq. dielectric constant tensor:
#      x y z
#    x 1.769030 0.000000 0.000000 
#    y 0.000000 1.769030 0.000000 
#    z 0.000000 0.000000 1.769060 
# 
# From -- ./inp_files/2328.got.cif
#   From: 2010.03.12/outbox.cif.g09.slc.cpg/sg189_2_cif.got.tgz:2328.got - 2010.04.01 12:03:36.
