data_PCOD8327058
_publ_section_title
;
Structure prediction by ZEFSAII (Michael W. Deem and Ramdas Pophale) SiO2 
 PCOD8327058
Probable space group: P -6 M 2
;
_chemical_formula_sum "Si O2"
_cell_formula_units_Z 66
_cell_length_a 12.767278
_cell_length_b 12.767278
_cell_length_c 27.855882
_cell_angle_alpha 90.000000
_cell_angle_beta 90.000000
_cell_angle_gamma 120.000000
_cell_volume 3932.277658
_symmetry_space_group_name_H-M "P -6 M 2"
_symmetry_group_IT_number 187
_symmetry_cell_setting 'hexagonal'
loop_
_space_group_symop_operation_xyz
x,y,z
-x+y,-x,-z
-y,x-y,z
x,y,-z
-x+y,-x,z
-y,x-y,-z
-y,-x,-z
-x+y,y,-z
x,x-y,-z
-x+y,y,z
x,x-y,z
-y,-x,z
loop_
_atom_site_type_symbol
_atom_site_label
_atom_site_fract_x
_atom_site_fract_y
_atom_site_fract_z
Si Si1 0.247107 0.245117 0.500000
Si Si2 0.668153 0.088725 0.412091
Si Si3 0.667260 0.578346 0.862723
Si Si4 0.758569 0.000540 0.945516
Si Si5 0.241595 0.000362 0.670666
Si Si6 0.759382 0.759377 0.780317
O O1 0.127667 0.255334 0.500000
O O2 0.326192 0.312635 0.546353
O O3 0.208727 0.104364 0.500000
O O4 0.539048 0.078096 0.418177
O O5 0.770534 0.229466 0.414559
O O6 0.672222 0.029127 0.361665
O O7 0.773259 0.546518 0.863500
O O8 0.542824 0.457177 0.862685
O O9 0.670885 0.651910 0.910031
O O10 0.672181 0.650149 0.814683
O O11 0.748352 0.874176 0.933136
O O12 0.717876 0.004134 0.000000
O O13 0.896879 0.103122 0.936911
O O14 0.203159 0.101580 0.662284
O O15 0.280585 0.999985 0.725539
O O16 0.127605 0.872395 0.656031
O O17 0.897973 0.795946 0.788536
O O18 0.747672 0.873836 0.794626
#
# Coordination Sequence:
#
# PCOD8327058 Si02
#       6
#     6  12  12  12  12  12
#     4  10  20  34  54  78 100 122 152 196 248 294
#     4  10  20  33  50  72  99 131 164 196 230 273
#     4  10  20  32  46  66  94 128 162 193 227 271
#     4   9  17  30  50  75  98 118 144 185 238 288
#     4   9  17  30  50  75 100 124 152 192 242 290
#     4   9  17  30  50  75  98 120 150 193 245 292
#
# _framework density 16.784165000000002
#
# number of rings (size 3 to 8) (size 9 to 14) (size 15 to 20)
#    0.000    2.545    0.000    2.364    0.000    3.273 
#    0.000    4.545    0.000   11.273    0.000    0.000 
#    0.000    0.000    0.000    0.000    0.000    0.000 
#
# Total GULP energy -818483.669626 kJ/mol
# GULP energy per Si atom -12401.267722 kJ/mol
# Density = 1.674596 g / cm^3
# Si number density = 16.784165 Si / 1000 Ang^3
#
#
#
# Elastic Constant Matrix: (Units=GPa)
#
#
# Indices 1 2 3 4 5 6 
#
# 1 115.7459 68.5937 68.5030 0.0000 0.0000 0.0000
# 2 68.5937 115.7459 68.5030 0.0000 0.0000 0.0000
# 3 68.5030 68.5030 119.5095 0.0000 0.0000 0.0000
# 4 0.0000 0.0000 0.0000 22.0235 0.0000 0.0000
# 5 0.0000 0.0000 0.0000 0.0000 22.0235 0.0000
# 6 0.0000 0.0000 0.0000 0.0000 0.0000 23.5761
#
#
#
# Elastic Compliance Matrix: (Units=1/GPa)
#
#
# Indices 1 2 3 4 5 6 
#
# 1 0.015330 -0.005878 -0.005417 0.000000 0.000000 0.000000
# 2 -0.005878 0.015330 -0.005417 0.000000 0.000000 0.000000
# 3 -0.005417 -0.005417 0.014578 0.000000 0.000000 0.000000
# 4 0.000000 0.000000 0.000000 0.045406 0.000000 0.000000
# 5 0.000000 0.000000 0.000000 0.000000 0.045406 0.000000
# 6 0.000000 0.000000 0.000000 0.000000 0.000000 0.042416
#
#
# Mechanical properties :
#
#
# Convention : Reuss Voigt Hill
#
# Bulk Modulus (GPa) = 84.66890 84.68898 84.67894
# Shear Modulus (GPa) = 23.16655 23.21804 23.19229
#
# Velocity S-wave (km/s) = 3.71922 3.72335 3.72128
# Velocity P-wave (km/s) = 8.30654 8.30973 8.30814
#
# Compressibility (1/GPa) = 0.01181071
#
# Stress axis : x y z
#
# Youngs Moduli (GPa) = 65.23354 65.23354 68.59623
#
# Poissons Ratio (x) = 0.38347 0.37161
# Poissons Ratio (y) = 0.38347 0.37161
# Poissons Ratio (z) = 0.35340 0.35340
#
# Static dielectric constant tensor:
#      x y z
#    x 2.948150 0.000000 0.000000 
#    y 0.000000 2.948150 0.000000 
#    z 0.000000 0.000000 3.547910 
# 
# 
# High freq. dielectric constant tensor:
#      x y z
#    x 1.631120 0.000000 0.000000 
#    y 0.000000 1.631120 0.000000 
#    z 0.000000 0.000000 1.667470 
# 
# From -- ./inp_files/4437.got.cif
#   From: 2010.03.12/outbox.cif.g09.slc.cpg/sg187_3_cif.got.tgz:4437.got - 2010.04.01 11:58:23.
