data_PCOD8327854
_publ_section_title
;
Structure prediction by ZEFSAII (Michael W. Deem and Ramdas Pophale) SiO2 
 PCOD8327854
Probable space group: P -6 2 M
;
_chemical_formula_sum "Si O2"
_cell_formula_units_Z 48
_cell_length_a 17.706307
_cell_length_b 17.706307
_cell_length_c 8.780233
_cell_angle_alpha 90.000000
_cell_angle_beta 90.000000
_cell_angle_gamma 120.000000
_cell_volume 2383.925353
_symmetry_space_group_name_H-M "P -6 2 M"
_symmetry_group_IT_number 189
_symmetry_cell_setting 'hexagonal'
loop_
_space_group_symop_operation_xyz
x,y,z
-x+y,-x,-z
-y,x-y,z
x,y,-z
-x+y,-x,z
-y,x-y,-z
x-y,-y,-z
-x,-x+y,-z
y,x,-z
y,x,z
x-y,-y,z
-x,-x+y,z
loop_
_atom_site_type_symbol
_atom_site_label
_atom_site_fract_x
_atom_site_fract_y
_atom_site_fract_z
Si Si1 0.281751 0.181863 0.820933
Si Si2 0.000000 0.374040 0.173735
Si Si3 0.725416 0.194230 0.672823
Si Si4 0.535013 0.146094 0.673616
Si Si5 0.784962 0.784962 0.678716
O O1 0.244860 0.244860 0.769777
O O2 0.382770 0.224565 0.774846
O O3 0.221275 0.087256 0.746392
O O4 0.275822 0.167865 0.000000
O O5 0.917153 0.383776 0.204587
O O6 0.000000 0.303747 0.286986
O O7 0.000000 0.345173 0.000000
O O8 0.731652 0.167634 0.500000
O O9 0.626064 0.154948 0.725128
O O10 0.764518 0.297756 0.685930
O O11 0.512872 0.110192 0.500000
O O12 0.797979 0.797979 0.500000
#
# Coordination Sequence:
#
# PCOD8327854 Si02
#       5
#    12   6  12  12   6
#     4  11  25  44  66  95 131 167 205 258 325 387
#     4  12  24  38  60  90 123 164 207 256 314 376
#     4  10  21  38  63  91 127 170 216 261 307 364
#     4  10  21  38  60  90 123 164 211 260 306 363
#     4  12  24  44  72  96 121 160 213 266 318 384
#
# _framework density 20.134858999999999
#
# number of rings (size 3 to 8) (size 9 to 14) (size 15 to 20)
#    0.000    1.250    2.500    3.500    1.750    5.000 
#    0.750    0.000    0.000    3.000    0.000    0.000 
#    0.000    0.000    0.000    0.000    0.000    0.000 
#
# Total GULP energy -595261.843623 kJ/mol
# GULP energy per Si atom -12401.288409 kJ/mol
# Density = 2.008903 g / cm^3
# Si number density = 20.134859 Si / 1000 Ang^3
#
#
#
# Elastic Constant Matrix: (Units=GPa)
#
#
# Indices 1 2 3 4 5 6 
#
# 1 95.6541 43.3040 35.2607 0.0000 0.0000 0.0000
# 2 43.3040 95.6541 35.2607 0.0000 0.0000 0.0000
# 3 35.2607 35.2607 87.8959 0.0000 0.0000 0.0000
# 4 0.0000 0.0000 0.0000 23.1379 0.0000 0.0000
# 5 0.0000 0.0000 0.0000 0.0000 23.1379 0.0000
# 6 0.0000 0.0000 0.0000 0.0000 0.0000 26.1751
#
#
#
# Elastic Compliance Matrix: (Units=1/GPa)
#
#
# Indices 1 2 3 4 5 6 
#
# 1 0.014069 -0.005033 -0.003625 0.000000 0.000000 0.000000
# 2 -0.005033 0.014069 -0.003625 0.000000 0.000000 0.000000
# 3 -0.003625 -0.003625 0.014285 0.000000 0.000000 0.000000
# 4 0.000000 0.000000 0.000000 0.043219 0.000000 0.000000
# 5 0.000000 0.000000 0.000000 0.000000 0.043219 0.000000
# 6 0.000000 0.000000 0.000000 0.000000 0.000000 0.038204
#
#
# Mechanical properties :
#
#
# Convention : Reuss Voigt Hill
#
# Bulk Modulus (GPa) = 55.99777 56.31719 56.15748
# Shear Modulus (GPa) = 25.30561 25.51544 25.41053
#
# Velocity S-wave (km/s) = 3.54899 3.56368 3.55634
# Velocity P-wave (km/s) = 6.68323 6.70550 6.69437
#
# Compressibility (1/GPa) = 0.01785785
#
# Stress axis : x y z
#
# Youngs Moduli (GPa) = 71.07767 71.07767 70.00112
#
# Poissons Ratio (x) = 0.35774 0.25375
# Poissons Ratio (y) = 0.35774 0.25375
# Poissons Ratio (z) = 0.25765 0.25765
#
# Static dielectric constant tensor:
#      x y z
#    x 3.768420 0.000000 0.000000 
#    y 0.000000 3.768420 0.000000 
#    z 0.000000 0.000000 3.547810 
# 
# 
# High freq. dielectric constant tensor:
#      x y z
#    x 1.791360 0.000000 0.000000 
#    y 0.000000 1.791360 0.000000 
#    z 0.000000 0.000000 1.781140 
# 
# From -- ./inp_files/675.got.cif
#   From: 2010.03.12/outbox.cif.g09.slc.cpg/sg189_1_cif.got.tgz:675.got - 2010.04.01 12:03:36.
