data_PCOD8327426
_publ_section_title
;
Structure prediction by ZEFSAII (Michael W. Deem and Ramdas Pophale) SiO2 
 PCOD8327426
Probable space group: P -6 C 2
;
_chemical_formula_sum "Si O2"
_cell_formula_units_Z 40
_cell_length_a 11.157419
_cell_length_b 11.157419
_cell_length_c 15.657918
_cell_angle_alpha 90.000000
_cell_angle_beta 90.000000
_cell_angle_gamma 120.000000
_cell_volume 1688.076528
_symmetry_space_group_name_H-M "P -6 C 2"
_symmetry_group_IT_number 188
_symmetry_cell_setting 'hexagonal'
loop_
_space_group_symop_operation_xyz
x,y,z
-x+y,-x,1/2-z
-y,x-y,z
x,y,1/2-z
-x+y,-x,z
-y,x-y,1/2-z
-y,-x,-z
-x+y,y,-z
x,x-y,-z
-x+y,y,1/2+z
x,x-y,1/2+z
-y,-x,1/2+z
loop_
_atom_site_type_symbol
_atom_site_label
_atom_site_fract_x
_atom_site_fract_y
_atom_site_fract_z
Si Si1 0.119597 0.400034 0.414894
Si Si2 0.377503 0.938754 0.654491
Si Si3 0.796958 0.635548 0.149167
Si Si4 0.666668 0.333334 0.649877
O O1 0.201347 0.402694 0.500000
O O2 0.077308 0.518842 0.410084
O O3 0.230710 0.433448 0.339721
O O4 0.982349 0.249358 0.400501
O O5 0.442924 0.978955 0.750000
O O6 0.342920 0.055186 0.619069
O O7 0.797924 0.662521 0.250000
O O8 0.683693 0.479017 0.120749
O O9 0.666667 0.333334 0.750000
#
# Coordination Sequence:
#
# PCOD8327426 Si02
#       4
#    12  12  12   4
#     4  12  25  42  65 103 150 188 232 297 380 452
#     4  11  23  42  71 101 135 186 247 305 357 434
#     4  10  20  39  71 105 135 179 242 307 361 427
#     4   9  15  33  69 106 131 160 232 320 361 402
#
# _framework density 23.695608
#
# number of rings (size 3 to 8) (size 9 to 14) (size 15 to 20)
#    0.000    1.200    3.000    4.200    0.000    1.200 
#    1.800    0.000    0.000    0.000    0.000    0.000 
#    0.000    0.000    0.000    0.000    0.000    0.000 
#
# Total GULP energy -495644.968982 kJ/mol
# GULP energy per Si atom -12391.124225 kJ/mol
# Density = 2.364168 g / cm^3
# Si number density = 23.695608 Si / 1000 Ang^3
#
#
#
# Elastic Constant Matrix: (Units=GPa)
#
#
# Indices 1 2 3 4 5 6 
#
# 1 184.3273 44.7014 48.5911 -0.0008 -0.0012 0.0307
# 2 44.7014 184.3278 48.5936 0.0008 0.0012 -0.0291
# 3 48.5911 48.5936 93.8460 0.0000 0.0000 -0.0001
# 4 -0.0008 0.0008 0.0000 34.6122 0.0000 -0.0012
# 5 -0.0012 0.0012 0.0000 0.0000 34.6124 0.0008
# 6 0.0307 -0.0291 -0.0001 -0.0012 0.0008 69.6747
#
#
#
# Elastic Compliance Matrix: (Units=1/GPa)
#
#
# Indices 1 2 3 4 5 6 
#
# 1 0.006379 -0.000783 -0.002897 0.000000 0.000000 -0.000003
# 2 -0.000783 0.006379 -0.002898 0.000000 0.000000 0.000003
# 3 -0.002897 -0.002898 0.013656 0.000000 0.000000 0.000000
# 4 0.000000 0.000000 0.000000 0.028892 0.000000 0.000000
# 5 0.000000 0.000000 0.000000 0.000000 0.028891 0.000000
# 6 -0.000003 0.000003 0.000000 0.000000 0.000000 0.014352
#
#
# Mechanical properties :
#
#
# Convention : Reuss Voigt Hill
#
# Bulk Modulus (GPa) = 75.42570 82.91928 79.17249
# Shear Modulus (GPa) = 43.05723 49.15420 46.10571
#
# Velocity S-wave (km/s) = 4.26737 4.55950 4.41585
# Velocity P-wave (km/s) = 7.49538 7.92390 7.71262
#
# Compressibility (1/GPa) = 0.01325808
#
# Stress axis : x y z
#
# Youngs Moduli (GPa) = 156.76904 156.76693 73.22662
#
# Poissons Ratio (x) = 0.12277 0.21216
# Poissons Ratio (y) = 0.12277 0.21218
# Poissons Ratio (z) = 0.45420 0.45424
#
# Static dielectric constant tensor:
#      x y z
#    x 4.908490 0.000300 0.000070 
#    y 0.000300 4.907520 -0.000010 
#    z 0.000070 -0.000010 3.952040 
# 
# 
# High freq. dielectric constant tensor:
#      x y z
#    x 1.941050 0.000000 0.000000 
#    y 0.000000 1.941050 0.000000 
#    z 0.000000 0.000000 1.918620 
# 
# From -- ./inp_files/2857.got.cif
#   From: 2010.03.12/outbox.cif.g09.slc.cpg/sg188_2_cif.got.tgz:2857.got - 2010.04.01 12:01:06.
