data_PCOD8327505
_publ_section_title
;
Structure prediction by ZEFSAII (Michael W. Deem and Ramdas Pophale) SiO2 
 PCOD8327505
Probable space group: P -6 2 M
;
_chemical_formula_sum "Si O2"
_cell_formula_units_Z 72
_cell_length_a 23.703787
_cell_length_b 23.703787
_cell_length_c 8.939247
_cell_angle_alpha 90.000000
_cell_angle_beta 90.000000
_cell_angle_gamma 120.000000
_cell_volume 4349.777486
_symmetry_space_group_name_H-M "P -6 2 M"
_symmetry_group_IT_number 189
_symmetry_cell_setting 'hexagonal'
loop_
_space_group_symop_operation_xyz
x,y,z
-x+y,-x,-z
-y,x-y,z
x,y,-z
-x+y,-x,z
-y,x-y,-z
x-y,-y,-z
-x,-x+y,-z
y,x,-z
y,x,z
x-y,-y,z
-x,-x+y,z
loop_
_atom_site_type_symbol
_atom_site_label
_atom_site_fract_x
_atom_site_fract_y
_atom_site_fract_z
Si Si1 0.793061 0.266469 0.174956
Si Si2 0.278573 0.000000 0.323201
Si Si3 0.333138 0.261004 0.177412
Si Si4 0.407845 0.000000 0.323270
Si Si5 0.327755 0.131438 0.177018
Si Si6 0.479635 0.333056 0.822135
Si Si7 0.409809 0.880547 0.176306
O O1 0.844735 0.246004 0.235153
O O2 0.720578 0.218436 0.238689
O O3 0.815220 0.341062 0.211774
O O4 0.789383 0.252935 0.000000
O O5 0.273357 0.000000 0.500000
O O6 0.215309 0.936016 0.259199
O O7 0.343365 0.000000 0.266934
O O8 0.284318 0.284318 0.243424
O O9 0.309965 0.186851 0.226037
O O10 0.406670 0.311269 0.233572
O O11 0.333902 0.264137 0.000000
O O12 0.410303 0.000000 0.500000
O O13 0.470956 0.061905 0.262084
O O14 0.320304 0.119447 0.000000
O O15 0.532001 0.403445 0.757247
O O16 0.484360 0.338041 0.000000
O O17 0.417508 0.895972 0.000000
#
# Coordination Sequence:
#
# PCOD8327505 Si02
#       7
#    12   6  12   6  12  12  12
#     4   8  14  26  41  63  91 114 144 189 232 269
#     4  11  21  31  45  67  93 121 151 186 229 272
#     4   8  14  25  43  69  97 121 146 181 222 263
#     4  11  23  33  43  63  93 121 149 194 243 278
#     4   9  16  28  47  67  92 120 149 182 220 269
#     4   8  15  25  40  66  92 115 147 190 232 267
#     4  10  18  29  48  68  88 118 156 192 232 285
#
# _framework density 16.552572000000001
#
# number of rings (size 3 to 8) (size 9 to 14) (size 15 to 20)
#    0.000    3.000    1.667    2.500    1.167    0.667 
#    1.000    0.000    0.000    5.500    0.000    0.000 
#    0.833    0.000    1.500    0.000    0.500    0.000 
#
# Total GULP energy -892195.688425 kJ/mol
# GULP energy per Si atom -12391.606784 kJ/mol
# Density = 1.651490 g / cm^3
# Si number density = 16.552572 Si / 1000 Ang^3
#
#
#
# Elastic Constant Matrix: (Units=GPa)
#
#
# Indices 1 2 3 4 5 6 
#
# 1 118.3400 67.8458 23.4156 0.0000 0.0000 0.0000
# 2 67.8458 118.3400 23.4156 0.0000 0.0000 0.0000
# 3 23.4156 23.4156 23.5851 0.0000 0.0000 0.0000
# 4 0.0000 0.0000 0.0000 3.8243 0.0000 0.0000
# 5 0.0000 0.0000 0.0000 0.0000 3.8243 0.0000
# 6 0.0000 0.0000 0.0000 0.0000 0.0000 25.2471
#
#
#
# Elastic Compliance Matrix: (Units=1/GPa)
#
#
# Indices 1 2 3 4 5 6 
#
# 1 0.013481 -0.006323 -0.007107 0.000000 0.000000 0.000000
# 2 -0.006323 0.013481 -0.007107 0.000000 0.000000 0.000000
# 3 -0.007107 -0.007107 0.056512 0.000000 0.000000 0.000000
# 4 0.000000 0.000000 0.000000 0.261484 0.000000 0.000000
# 5 0.000000 0.000000 0.000000 0.000000 0.261484 0.000000
# 6 0.000000 0.000000 0.000000 0.000000 0.000000 0.039609
#
#
# Mechanical properties :
#
#
# Convention : Reuss Voigt Hill
#
# Bulk Modulus (GPa) = 23.58469 54.40211 38.99340
# Shear Modulus (GPa) = 7.13003 16.28502 11.70752
#
# Velocity S-wave (km/s) = 2.07770 3.14002 2.66238
# Velocity P-wave (km/s) = 4.47606 6.78851 5.74974
#
# Compressibility (1/GPa) = 0.04240040
#
# Stress axis : x y z
#
# Youngs Moduli (GPa) = 74.17596 74.17596 17.69539
#
# Poissons Ratio (x) = 0.46900 0.12576
# Poissons Ratio (y) = 0.46900 0.12576
# Poissons Ratio (z) = 0.52718 0.52718
#
# Static dielectric constant tensor:
#      x y z
#    x 3.074110 0.000000 0.000000 
#    y 0.000000 3.074110 0.000000 
#    z 0.000000 0.000000 2.614460 
# 
# 
# High freq. dielectric constant tensor:
#      x y z
#    x 1.631220 0.000000 0.000000 
#    y 0.000000 1.631220 0.000000 
#    z 0.000000 0.000000 1.585540 
# 
# From -- ./inp_files/1314.got.cif
#   From: 2010.03.12/outbox.cif.g09.slc.cpg/sg189_1_cif.got.tgz:1314.got - 2010.04.01 12:03:36.
