data_PCOD8327006
_publ_section_title
;
Structure prediction by ZEFSAII (Michael W. Deem and Ramdas Pophale) SiO2 
 PCOD8327006
Probable space group: P -6 M 2
;
_chemical_formula_sum "Si O2"
_cell_formula_units_Z 84
_cell_length_a 17.562425
_cell_length_b 17.562425
_cell_length_c 15.493596
_cell_angle_alpha 90.000000
_cell_angle_beta 90.000000
_cell_angle_gamma 120.000000
_cell_volume 4138.584476
_symmetry_space_group_name_H-M "P -6 M 2"
_symmetry_group_IT_number 187
_symmetry_cell_setting 'hexagonal'
loop_
_space_group_symop_operation_xyz
x,y,z
-x+y,-x,-z
-y,x-y,z
x,y,-z
-x+y,-x,z
-y,x-y,-z
-y,-x,-z
-x+y,y,-z
x,x-y,-z
-x+y,y,z
x,x-y,z
-y,-x,z
loop_
_atom_site_type_symbol
_atom_site_label
_atom_site_fract_x
_atom_site_fract_y
_atom_site_fract_z
Si Si1 0.842485 0.334294 0.181149
Si Si2 0.175774 0.998124 0.902552
Si Si3 0.101353 0.372507 0.000000
Si Si4 0.696676 0.760424 0.403870
Si Si5 0.757750 0.695491 0.753888
Si Si6 0.159105 0.492521 0.350757
Si Si7 0.500046 0.667262 0.156366
Si Si8 0.622042 0.551510 0.000000
O O1 0.851485 0.425743 0.213698
O O2 0.743249 0.256752 0.196809
O O3 0.911101 0.317135 0.236029
O O4 0.865297 0.337022 0.081278
O O5 0.167663 0.083832 0.903477
O O6 0.247326 0.002047 0.835347
O O7 0.205370 0.984529 0.000000
O O8 0.080975 0.919026 0.876758
O O9 0.129416 0.423193 0.910935
O O10 0.996405 0.339789 0.000000
O O11 0.160154 0.320307 0.000000
O O12 0.733999 0.763106 0.500000
O O13 0.710830 0.855415 0.377457
O O14 0.747755 0.734188 0.335923
O O15 0.592993 0.689327 0.406373
O O16 0.852900 0.705799 0.753909
O O17 0.260872 0.521743 0.364933
O O18 0.145924 0.572962 0.379833
O O19 0.129059 0.464280 0.251494
O O20 0.454232 0.727116 0.160479
O O21 0.429497 0.570504 0.125558
O O22 0.514317 0.485684 0.000000
#
# Coordination Sequence:
#
# PCOD8327006 Si02
#       8
#    12  12   6  12  12  12  12   6
#     4  10  22  40  63  87 113 148 193 250 314 377
#     4   9  17  31  54  85 122 160 195 228 267 325
#     4  10  20  31  42  68 110 155 195 229 270 323
#     4  10  22  40  60  83 114 153 197 241 285 338
#     4  10  22  38  59  88 118 150 189 237 296 356
#     4   9  18  32  52  77 107 144 187 234 279 324
#     4   9  16  26  41  62  94 139 190 235 271 310
#     4  10  21  35  54  80 112 151 201 253 297 345
#
# _framework density 20.296793999999998
#
# number of rings (size 3 to 8) (size 9 to 14) (size 15 to 20)
#    0.000    2.429    0.000    1.857    3.000    2.857 
#    0.000    2.143    0.000    1.286    0.000    0.000 
#    0.000    1.143    0.000    1.714    0.000    0.000 
#
# Total GULP energy -1040820.720997 kJ/mol
# GULP energy per Si atom -12390.722869 kJ/mol
# Density = 2.025060 g / cm^3
# Si number density = 20.296794 Si / 1000 Ang^3
#
#
#
# Elastic Constant Matrix: (Units=GPa)
#
#
# Indices 1 2 3 4 5 6 
#
# 1 83.3651 39.4086 39.7227 0.0000 0.0000 0.0000
# 2 39.4086 83.3651 39.7227 0.0000 0.0000 0.0000
# 3 39.7227 39.7227 101.0299 0.0000 0.0000 0.0000
# 4 0.0000 0.0000 0.0000 40.8082 0.0000 0.0000
# 5 0.0000 0.0000 0.0000 0.0000 40.8082 0.0000
# 6 0.0000 0.0000 0.0000 0.0000 0.0000 21.9782
#
#
#
# Elastic Compliance Matrix: (Units=1/GPa)
#
#
# Indices 1 2 3 4 5 6 
#
# 1 0.016837 -0.005913 -0.004295 0.000000 0.000000 0.000000
# 2 -0.005913 0.016837 -0.004295 0.000000 0.000000 0.000000
# 3 -0.004295 -0.004295 0.013276 0.000000 0.000000 0.000000
# 4 0.000000 0.000000 0.000000 0.024505 0.000000 0.000000
# 5 0.000000 0.000000 0.000000 0.000000 0.024505 0.000000
# 6 0.000000 0.000000 0.000000 0.000000 0.000000 0.045500
#
#
# Mechanical properties :
#
#
# Convention : Reuss Voigt Hill
#
# Bulk Modulus (GPa) = 55.73024 56.16311 55.94668
# Shear Modulus (GPa) = 28.33716 30.64599 29.49157
#
# Velocity S-wave (km/s) = 3.74055 3.88995 3.81598
# Velocity P-wave (km/s) = 6.79506 6.92146 6.85855
#
# Compressibility (1/GPa) = 0.01794358
#
# Stress axis : x y z
#
# Youngs Moduli (GPa) = 59.39256 59.39256 75.32587
#
# Poissons Ratio (x) = 0.35117 0.32354
# Poissons Ratio (y) = 0.35117 0.32354
# Poissons Ratio (z) = 0.25511 0.25511
#
# Static dielectric constant tensor:
#      x y z
#    x 3.811540 0.000000 0.000000 
#    y 0.000000 3.811540 0.000000 
#    z 0.000000 0.000000 3.613690 
# 
# 
# High freq. dielectric constant tensor:
#      x y z
#    x 1.796180 0.000000 0.000000 
#    y 0.000000 1.796180 0.000000 
#    z 0.000000 0.000000 1.774930 
# 
# From -- ./inp_files/2658.got.cif
#   From: 2010.03.12/outbox.cif.g09.slc.cpg/sg187_2_cif.got.tgz:2658.got - 2010.04.01 11:58:23.
