data_PCOD8327944
_publ_section_title
;
Structure prediction by ZEFSAII (Michael W. Deem and Ramdas Pophale) SiO2 
 PCOD8327944
Probable space group: P -6 2 C
;
_chemical_formula_sum "Si O2"
_cell_formula_units_Z 40
_cell_length_a 19.104041
_cell_length_b 19.104041
_cell_length_c 8.687253
_cell_angle_alpha 90.000000
_cell_angle_beta 90.000000
_cell_angle_gamma 120.000000
_cell_volume 2745.766388
_symmetry_space_group_name_H-M "P -6 2 C"
_symmetry_group_IT_number 190
_symmetry_cell_setting 'hexagonal'
loop_
_space_group_symop_operation_xyz
x,y,z
-x+y,-x,1/2-z
-y,x-y,z
x,y,1/2-z
-x+y,-x,z
-y,x-y,1/2-z
x-y,-y,-z
-x,-x+y,-z
y,x,-z
y,x,1/2+z
x-y,-y,1/2+z
-x,-x+y,1/2+z
loop_
_atom_site_type_symbol
_atom_site_label
_atom_site_fract_x
_atom_site_fract_y
_atom_site_fract_z
Si Si1 0.237665 0.485030 0.430309
Si Si2 0.083889 0.613167 0.069075
Si Si3 0.333334 0.666668 0.067262
Si Si4 0.084960 0.462791 0.568561
O O1 0.219306 0.481988 0.250000
O O2 0.294224 0.446192 0.466361
O O3 0.285244 0.575951 0.494833
O O4 0.152615 0.439520 0.520006
O O5 0.074904 0.596027 0.250000
O O6 0.108318 0.550900 0.996547
O O7 0.000000 0.599670 0.000000
O O8 0.333334 0.666668 0.250000
O O9 0.077600 0.463551 0.750000
O O10 0.000000 0.394545 0.500000
#
# Coordination Sequence:
#
# PCOD8327944 Si02
#       4
#    12  12   4  12
#     4  10  18  31  47  61  81 114 147 180 222 260
#     4  10  19  31  46  62  85 114 143 178 219 261
#     4   9  15  27  43  59  82 111 145 176 217 261
#     4  11  21  31  44  62  85 111 143 182 219 259
#
# _framework density 14.567882000000001
#
# number of rings (size 3 to 8) (size 9 to 14) (size 15 to 20)
#    0.000    1.800    3.000    5.400    0.000    2.400 
#    0.000    0.000    0.000    0.000    0.000    0.000 
#    0.000    0.000    0.000    0.900    0.000   14.400 
#
# Total GULP energy -495928.269695 kJ/mol
# GULP energy per Si atom -12398.206742 kJ/mol
# Density = 1.453472 g / cm^3
# Si number density = 14.567882 Si / 1000 Ang^3
#
#
#
# Elastic Constant Matrix: (Units=GPa)
#
#
# Indices 1 2 3 4 5 6 
#
# 1 95.0391 43.3206 42.7843 0.0000 0.0000 0.0000
# 2 43.3206 95.0387 42.7844 0.0000 0.0000 0.0000
# 3 42.7843 42.7844 98.4766 -0.0001 0.0000 0.0000
# 4 0.0000 0.0000 -0.0001 21.7903 0.0000 0.0000
# 5 0.0000 0.0000 0.0000 0.0000 21.7904 0.0000
# 6 0.0000 0.0000 0.0000 0.0000 0.0000 25.8592
#
#
#
# Elastic Compliance Matrix: (Units=1/GPa)
#
#
# Indices 1 2 3 4 5 6 
#
# 1 0.014609 -0.004726 -0.004294 0.000000 0.000000 0.000000
# 2 -0.004726 0.014609 -0.004294 0.000000 0.000000 0.000000
# 3 -0.004294 -0.004294 0.013886 0.000000 0.000000 0.000000
# 4 0.000000 0.000000 0.000000 0.045892 0.000000 0.000000
# 5 0.000000 0.000000 0.000000 0.000000 0.045892 0.000000
# 6 0.000000 0.000000 0.000000 0.000000 0.000000 0.038671
#
#
# Mechanical properties :
#
#
# Convention : Reuss Voigt Hill
#
# Bulk Modulus (GPa) = 60.69226 60.70365 60.69795
# Shear Modulus (GPa) = 24.30974 24.53233 24.42104
#
# Velocity S-wave (km/s) = 4.08943 4.10811 4.09878
# Velocity P-wave (km/s) = 8.00313 8.01636 8.00975
#
# Compressibility (1/GPa) = 0.01647657
#
# Stress axis : x y z
#
# Youngs Moduli (GPa) = 68.44981 68.44934 72.01660
#
# Poissons Ratio (x) = 0.32351 0.30922
# Poissons Ratio (y) = 0.32351 0.30923
# Poissons Ratio (z) = 0.29391 0.29391
#
# Static dielectric constant tensor:
#      x y z
#    x 2.793890 0.000000 0.000000 
#    y 0.000000 2.793890 0.000000 
#    z 0.000000 0.000000 2.805020 
# 
# 
# High freq. dielectric constant tensor:
#      x y z
#    x 1.531830 0.000000 0.000000 
#    y 0.000000 1.531830 0.000000 
#    z 0.000000 0.000000 1.563330 
# 
# From -- ./inp_files/526.got.cif
#   From: 2010.06.25/outbox.cif.g09.slc.cpg/sg190_1_cif.got.tgz:526.got - 2010.06.28 13:08:06.
