data_PCOD8327564
_publ_section_title
;
Structure prediction by ZEFSAII (Michael W. Deem and Ramdas Pophale) SiO2 
 PCOD8327564
Probable space group: P -6 2 M
;
_chemical_formula_sum "Si O2"
_cell_formula_units_Z 60
_cell_length_a 17.913307
_cell_length_b 17.913307
_cell_length_c 14.039448
_cell_angle_alpha 90.000000
_cell_angle_beta 90.000000
_cell_angle_gamma 120.000000
_cell_volume 3901.505309
_symmetry_space_group_name_H-M "P -6 2 M"
_symmetry_group_IT_number 189
_symmetry_cell_setting 'hexagonal'
loop_
_space_group_symop_operation_xyz
x,y,z
-x+y,-x,-z
-y,x-y,z
x,y,-z
-x+y,-x,z
-y,x-y,-z
x-y,-y,-z
-x,-x+y,-z
y,x,-z
y,x,z
x-y,-y,z
-x,-x+y,z
loop_
_atom_site_type_symbol
_atom_site_label
_atom_site_fract_x
_atom_site_fract_y
_atom_site_fract_z
Si Si1 0.345640 0.767498 0.607982
Si Si2 0.626598 0.098241 0.890409
Si Si3 0.386901 0.175681 0.112288
Si Si4 0.482534 0.100176 0.230324
Si Si5 0.807014 0.903801 0.113395
O O1 0.254862 0.677614 0.624854
O O2 0.349747 0.799574 0.500000
O O3 0.353123 0.842749 0.674934
O O4 0.724121 0.163328 0.860504
O O5 0.567593 0.122209 0.828006
O O6 0.604385 0.000000 0.873108
O O7 0.610714 0.111528 0.000000
O O8 0.424667 0.123269 0.164602
O O9 0.290233 0.138610 0.149855
O O10 0.389222 0.161071 0.000000
O O11 0.428742 0.000000 0.259005
O O12 0.861638 0.861638 0.152900
O O13 0.848288 0.000000 0.155190
O O14 0.809113 0.906636 0.000000
#
# Coordination Sequence:
#
# PCOD8327564 Si02
#       5
#    12  12  12  12  12
#     4   8  17  34  53  67  83 110 144 182 223 269
#     4   9  18  31  44  60  86 122 161 195 224 258
#     4  10  19  30  43  61  89 126 158 187 223 265
#     4  11  20  29  45  68  93 117 145 186 230 273
#     4   9  16  26  41  60  83 114 153 192 226 262
#
# _framework density 15.378679999999999
#
# number of rings (size 3 to 8) (size 9 to 14) (size 15 to 20)
#    0.400    2.200    0.000    3.200    0.000    5.600 
#    1.200    0.000    0.000    0.000    0.000    0.000 
#    0.000    0.000    0.000    0.400    0.000    4.200 
#
# Total GULP energy -743796.549446 kJ/mol
# GULP energy per Si atom -12396.609157 kJ/mol
# Density = 1.534368 g / cm^3
# Si number density = 15.378680 Si / 1000 Ang^3
#
#
#
# Elastic Constant Matrix: (Units=GPa)
#
#
# Indices 1 2 3 4 5 6 
#
# 1 100.8790 53.6832 36.3581 0.0000 0.0000 0.0000
# 2 53.6832 100.8790 36.3581 0.0000 0.0000 0.0000
# 3 36.3581 36.3581 51.5343 0.0000 0.0000 0.0000
# 4 0.0000 0.0000 0.0000 17.3505 0.0000 0.0000
# 5 0.0000 0.0000 0.0000 0.0000 17.3505 0.0000
# 6 0.0000 0.0000 0.0000 0.0000 0.0000 23.5979
#
#
#
# Elastic Compliance Matrix: (Units=1/GPa)
#
#
# Indices 1 2 3 4 5 6 
#
# 1 0.015436 -0.005752 -0.006832 0.000000 0.000000 0.000000
# 2 -0.005752 0.015436 -0.006832 0.000000 0.000000 0.000000
# 3 -0.006832 -0.006832 0.029045 0.000000 0.000000 0.000000
# 4 0.000000 0.000000 0.000000 0.057635 0.000000 0.000000
# 5 0.000000 0.000000 0.000000 0.000000 0.057635 0.000000
# 6 0.000000 0.000000 0.000000 0.000000 0.000000 0.042377
#
#
# Mechanical properties :
#
#
# Convention : Reuss Voigt Hill
#
# Bulk Modulus (GPa) = 47.42876 56.23235 51.83055
# Shear Modulus (GPa) = 18.98062 20.11931 19.54996
#
# Velocity S-wave (km/s) = 3.51695 3.62091 3.56931
# Velocity P-wave (km/s) = 6.88473 7.35703 7.12479
#
# Compressibility (1/GPa) = 0.02108425
#
# Stress axis : x y z
#
# Youngs Moduli (GPa) = 64.78231 64.78231 34.42908
#
# Poissons Ratio (x) = 0.37263 0.23523
# Poissons Ratio (y) = 0.37263 0.23523
# Poissons Ratio (z) = 0.44262 0.44262
#
# Static dielectric constant tensor:
#      x y z
#    x 2.982710 0.000000 0.000000 
#    y 0.000000 2.982710 0.000000 
#    z 0.000000 0.000000 2.586290 
# 
# 
# High freq. dielectric constant tensor:
#      x y z
#    x 1.594920 0.000000 0.000000 
#    y 0.000000 1.594920 0.000000 
#    z 0.000000 0.000000 1.547260 
# 
# From -- ./inp_files/1887.got.cif
#   From: 2010.03.12/outbox.cif.g09.slc.cpg/sg189_1_cif.got.tgz:1887.got - 2010.04.01 12:03:36.
