data_PCOD8327989
_publ_section_title
;
Structure prediction by ZEFSAII (Michael W. Deem and Ramdas Pophale) SiO2 
 PCOD8327989
Probable space group: P -6 2 C
;
_chemical_formula_sum "Si O2"
_cell_formula_units_Z 72
_cell_length_a 23.757023
_cell_length_b 23.757023
_cell_length_c 8.727181
_cell_angle_alpha 90.000000
_cell_angle_beta 90.000000
_cell_angle_gamma 120.000000
_cell_volume 4265.683718
_symmetry_space_group_name_H-M "P -6 2 C"
_symmetry_group_IT_number 190
_symmetry_cell_setting 'hexagonal'
loop_
_space_group_symop_operation_xyz
x,y,z
-x+y,-x,1/2-z
-y,x-y,z
x,y,1/2-z
-x+y,-x,z
-y,x-y,1/2-z
x-y,-y,-z
-x,-x+y,-z
y,x,-z
y,x,1/2+z
x-y,-y,1/2+z
-x,-x+y,1/2+z
loop_
_atom_site_type_symbol
_atom_site_label
_atom_site_fract_x
_atom_site_fract_y
_atom_site_fract_z
Si Si1 0.593067 0.401471 0.429314
Si Si2 0.263132 0.744773 0.932857
Si Si3 0.933260 0.068595 0.429168
Si Si4 0.931396 0.535566 0.069461
Si Si5 0.145199 0.744803 0.068616
Si Si6 0.804309 0.069036 0.069855
O O1 0.602898 0.400549 0.250000
O O2 0.567560 0.328608 0.489892
O O3 0.663565 0.452780 0.497393
O O4 0.540189 0.422730 0.470482
O O5 0.257166 0.747796 0.750000
O O6 0.217994 0.769501 0.009155
O O7 0.941543 0.064707 0.250000
O O8 0.876960 0.084984 0.469149
O O9 0.000000 0.125439 0.500000
O O10 0.917099 0.000000 0.500000
O O11 0.936706 0.547859 0.250000
O O12 0.906153 0.580499 0.996442
O O13 0.000000 0.552316 0.000000
O O14 0.143523 0.741985 0.250000
O O15 0.125458 0.796337 0.008900
O O16 0.791806 0.067221 0.250000
O O17 0.751819 0.000000 0.000000
#
# Coordination Sequence:
#
# PCOD8327989 Si02
#       6
#    12  12  12  12  12  12
#     4   8  15  27  48  72  93 120 155 192 231 276
#     4   9  16  30  50  72  96 124 159 196 234 283
#     4  10  20  33  51  73  99 127 158 193 234 279
#     4  10  19  32  49  71  97 127 160 196 237 284
#     4  11  21  32  47  70  98 128 159 197 240 283
#     4  10  20  34  51  72  96 126 159 196 238 283
#
# _framework density 16.878888
#
# number of rings (size 3 to 8) (size 9 to 14) (size 15 to 20)
#    0.000    2.333    0.000    5.000    0.000    3.333 
#    0.000    4.167    0.000    1.000    0.000    2.333 
#    0.000    0.000    0.000    0.000    0.000    0.000 
#
# Total GULP energy -892806.647778 kJ/mol
# GULP energy per Si atom -12400.092330 kJ/mol
# Density = 1.684047 g / cm^3
# Si number density = 16.878888 Si / 1000 Ang^3
#
#
#
# Elastic Constant Matrix: (Units=GPa)
#
#
# Indices 1 2 3 4 5 6 
#
# 1 120.8936 65.6669 48.8917 0.0000 0.0000 0.0000
# 2 65.6669 120.8936 48.8917 0.0000 0.0000 0.0000
# 3 48.8917 48.8917 88.2656 0.0000 0.0000 0.0000
# 4 0.0000 0.0000 0.0000 23.0475 0.0000 0.0000
# 5 0.0000 0.0000 0.0000 0.0000 23.0475 0.0000
# 6 0.0000 0.0000 0.0000 0.0000 0.0000 27.6133
#
#
#
# Elastic Compliance Matrix: (Units=1/GPa)
#
#
# Indices 1 2 3 4 5 6 
#
# 1 0.012830 -0.005277 -0.004184 0.000000 0.000000 0.000000
# 2 -0.005277 0.012830 -0.004184 0.000000 0.000000 0.000000
# 3 -0.004184 -0.004184 0.015964 0.000000 0.000000 0.000000
# 4 0.000000 0.000000 0.000000 0.043389 0.000000 0.000000
# 5 0.000000 0.000000 0.000000 0.000000 0.043389 0.000000
# 6 0.000000 0.000000 0.000000 0.000000 0.000000 0.036214
#
#
# Mechanical properties :
#
#
# Convention : Reuss Voigt Hill
#
# Bulk Modulus (GPa) = 69.75725 72.99481 71.37603
# Shear Modulus (GPa) = 25.42150 25.84850 25.63500
#
# Velocity S-wave (km/s) = 3.88508 3.91757 3.90136
# Velocity P-wave (km/s) = 7.84493 7.98769 7.91663
#
# Compressibility (1/GPa) = 0.01433543
#
# Stress axis : x y z
#
# Youngs Moduli (GPa) = 77.94156 77.94156 62.63961
#
# Poissons Ratio (x) = 0.41130 0.26207
# Poissons Ratio (y) = 0.41130 0.26207
# Poissons Ratio (z) = 0.32609 0.32609
#
# Static dielectric constant tensor:
#      x y z
#    x 3.213810 0.000000 0.000000 
#    y 0.000000 3.213810 0.000000 
#    z 0.000000 0.000000 3.094160 
# 
# 
# High freq. dielectric constant tensor:
#      x y z
#    x 1.642630 0.000000 0.000000 
#    y 0.000000 1.642630 0.000000 
#    z 0.000000 0.000000 1.648750 
# 
# From -- ./inp_files/1220.got.cif
#   From: 2010.06.25/outbox.cif.g09.slc.cpg/sg190_1_cif.got.tgz:1220.got - 2010.06.28 13:08:06.
