data_PCOD8327880
_publ_section_title
;
Structure prediction by ZEFSAII (Michael W. Deem and Ramdas Pophale) SiO2 
 PCOD8327880
Probable space group: P -6 2 M
;
_chemical_formula_sum "Si O2"
_cell_formula_units_Z 45
_cell_length_a 18.108854
_cell_length_b 18.108854
_cell_length_c 8.102891
_cell_angle_alpha 90.000000
_cell_angle_beta 90.000000
_cell_angle_gamma 120.000000
_cell_volume 2301.190451
_symmetry_space_group_name_H-M "P -6 2 M"
_symmetry_group_IT_number 189
_symmetry_cell_setting 'hexagonal'
loop_
_space_group_symop_operation_xyz
x,y,z
-x+y,-x,-z
-y,x-y,z
x,y,-z
-x+y,-x,z
-y,x-y,-z
x-y,-y,-z
-x,-x+y,-z
y,x,-z
y,x,z
x-y,-y,z
-x,-x+y,z
loop_
_atom_site_type_symbol
_atom_site_label
_atom_site_fract_x
_atom_site_fract_y
_atom_site_fract_z
Si Si1 0.207429 0.207429 0.801262
Si Si2 0.409028 0.502214 0.308388
Si Si3 0.000000 0.905275 0.500000
Si Si4 0.231166 0.387549 0.813417
Si Si5 0.333274 0.899861 0.310573
O O1 0.139199 0.139199 0.673711
O O2 0.212800 0.295935 0.750262
O O3 0.185300 0.185300 0.000000
O O4 0.429155 0.510525 0.500000
O O5 0.436051 0.436051 0.231542
O O6 0.309610 0.466921 0.278802
O O7 0.472119 0.598051 0.240317
O O8 0.915717 0.915717 0.500000
O O9 0.147532 0.395135 0.795014
O O10 0.260396 0.397030 0.000000
O O11 0.309055 0.872110 0.500000
O O12 0.370868 0.000000 0.287629
#
# Coordination Sequence:
#
# PCOD8327880 Si02
#       5
#     6  12   3  12  12
#     4  10  24  42  64  98 131 163 214 271 317 378
#     4   9  18  35  60  84 110 148 192 242 295 350
#     4  10  26  46  66  98 120 170 222 248 336 388
#     4  11  22  36  58  89 121 160 200 246 309 367
#     4   9  20  38  58  85 115 148 194 248 302 355
#
# _framework density 19.555095999999999
#
# number of rings (size 3 to 8) (size 9 to 14) (size 15 to 20)
#    0.133    2.133    1.333    2.400    3.733    3.200 
#    1.600    5.333    0.000    0.000    0.000    0.000 
#    0.000    0.000    0.000    0.000    0.000    0.000 
#
# Total GULP energy -557675.679001 kJ/mol
# GULP energy per Si atom -12392.792867 kJ/mol
# Density = 1.951059 g / cm^3
# Si number density = 19.555096 Si / 1000 Ang^3
#
#
#
# Elastic Constant Matrix: (Units=GPa)
#
#
# Indices 1 2 3 4 5 6 
#
# 1 126.6676 62.9325 31.4941 0.0000 0.0000 0.0000
# 2 62.9325 126.6676 31.4941 0.0000 0.0000 0.0000
# 3 31.4941 31.4941 51.7707 0.0000 0.0000 0.0000
# 4 0.0000 0.0000 0.0000 21.3495 0.0000 0.0000
# 5 0.0000 0.0000 0.0000 0.0000 21.3495 0.0000
# 6 0.0000 0.0000 0.0000 0.0000 0.0000 31.8676
#
#
#
# Elastic Compliance Matrix: (Units=1/GPa)
#
#
# Indices 1 2 3 4 5 6 
#
# 1 0.011150 -0.004540 -0.004021 0.000000 0.000000 0.000000
# 2 -0.004540 0.011150 -0.004021 0.000000 0.000000 0.000000
# 3 -0.004021 -0.004021 0.024208 0.000000 0.000000 0.000000
# 4 0.000000 0.000000 0.000000 0.046839 0.000000 0.000000
# 5 0.000000 0.000000 0.000000 0.000000 0.046839 0.000000
# 6 0.000000 0.000000 0.000000 0.000000 0.000000 0.031380
#
#
# Mechanical properties :
#
#
# Convention : Reuss Voigt Hill
#
# Bulk Modulus (GPa) = 46.85174 61.88303 54.36739
# Shear Modulus (GPa) = 24.52825 26.85900 25.69362
#
# Velocity S-wave (km/s) = 3.54547 3.71010 3.62872
# Velocity P-wave (km/s) = 6.38525 7.07583 6.73939
#
# Compressibility (1/GPa) = 0.02134392
#
# Stress axis : x y z
#
# Youngs Moduli (GPa) = 89.68565 89.68565 41.30788
#
# Poissons Ratio (x) = 0.40716 0.16611
# Poissons Ratio (y) = 0.40716 0.16611
# Poissons Ratio (z) = 0.36065 0.36065
#
# Static dielectric constant tensor:
#      x y z
#    x 3.482290 0.000000 0.000000 
#    y 0.000000 3.482290 0.000000 
#    z 0.000000 0.000000 3.411960 
# 
# 
# High freq. dielectric constant tensor:
#      x y z
#    x 1.758520 0.000000 0.000000 
#    y 0.000000 1.758520 0.000000 
#    z 0.000000 0.000000 1.752360 
# 
# From -- ./inp_files/562.got.cif
#   From: 2010.03.12/outbox.cif.g09.slc.cpg/sg189_1_cif.got.tgz:562.got - 2010.04.01 12:03:36.
