data_PCOD8327137
_publ_section_title
;
Structure prediction by ZEFSAII (Michael W. Deem and Ramdas Pophale) SiO2 
 PCOD8327137
Probable space group: P -6 M 2
;
_chemical_formula_sum "Si O2"
_cell_formula_units_Z 60
_cell_length_a 12.681142
_cell_length_b 12.681142
_cell_length_c 25.251205
_cell_angle_alpha 90.000000
_cell_angle_beta 90.000000
_cell_angle_gamma 120.000000
_cell_volume 3516.652625
_symmetry_space_group_name_H-M "P -6 M 2"
_symmetry_group_IT_number 187
_symmetry_cell_setting 'hexagonal'
loop_
_space_group_symop_operation_xyz
x,y,z
-x+y,-x,-z
-y,x-y,z
x,y,-z
-x+y,-x,z
-y,x-y,-z
-y,-x,-z
-x+y,y,-z
x,x-y,-z
-x+y,y,z
x,x-y,z
-y,-x,z
loop_
_atom_site_type_symbol
_atom_site_label
_atom_site_fract_x
_atom_site_fract_y
_atom_site_fract_z
Si Si1 0.244630 0.998729 0.652367
Si Si2 0.090777 0.423783 0.560538
Si Si3 0.421154 0.087481 0.152659
Si Si4 0.087063 0.420227 0.750111
Si Si5 0.242103 0.242085 0.060301
O O1 0.102731 0.897270 0.652692
O O2 0.307112 0.997047 0.597093
O O3 0.315804 0.977651 0.699435
O O4 0.257787 0.128894 0.659826
O O5 0.051930 0.383951 0.500000
O O6 0.230905 0.461809 0.570284
O O7 0.077063 0.538532 0.576120
O O8 0.558893 0.117786 0.148518
O O9 0.421443 0.210722 0.165489
O O10 0.355873 0.028608 0.097243
O O11 0.347857 0.993277 0.198847
O O12 0.219504 0.439007 0.759932
O O13 0.100592 0.550296 0.739707
O O14 0.202148 0.101074 0.067616
O O15 0.128298 0.256597 0.077004
O O16 0.282128 0.284656 0.000000
#
# Coordination Sequence:
#
# PCOD8327137 Si02
#       5
#    12  12  12  12  12
#     4  10  20  33  49  70  97 128 160 194 234 282
#     4   9  17  30  50  75 100 126 158 199 245 288
#     4  10  20  33  49  70  98 132 166 197 231 277
#     4  10  20  34  53  75  97 122 155 198 246 291
#     4   9  17  30  49  72  96 122 155 198 246 290
#
# _framework density 17.061681
#
# number of rings (size 3 to 8) (size 9 to 14) (size 15 to 20)
#    0.000    2.400    0.000    2.800    0.000    2.400 
#    0.000    2.000    0.000   13.600    0.000    0.000 
#    0.000    0.000    0.000    0.000    0.000    0.000 
#
# Total GULP energy -744152.760641 kJ/mol
# GULP energy per Si atom -12402.546011 kJ/mol
# Density = 1.702285 g / cm^3
# Si number density = 17.061681 Si / 1000 Ang^3
#
#
#
# Elastic Constant Matrix: (Units=GPa)
#
#
# Indices 1 2 3 4 5 6 
#
# 1 113.6104 71.9110 65.4869 0.0000 -0.0001 0.0000
# 2 71.9110 113.6104 65.4869 0.0000 0.0001 0.0000
# 3 65.4869 65.4869 108.0387 0.0000 0.0000 0.0000
# 4 0.0000 0.0000 0.0000 25.5177 0.0000 0.0001
# 5 -0.0001 0.0001 0.0000 0.0000 25.5177 0.0000
# 6 0.0000 0.0000 0.0000 0.0001 0.0000 20.8497
#
#
#
# Elastic Compliance Matrix: (Units=1/GPa)
#
#
# Indices 1 2 3 4 5 6 
#
# 1 0.016702 -0.007279 -0.005711 0.000000 0.000000 0.000000
# 2 -0.007279 0.016702 -0.005711 0.000000 0.000000 0.000000
# 3 -0.005711 -0.005711 0.016180 0.000000 0.000000 0.000000
# 4 0.000000 0.000000 0.000000 0.039189 0.000000 0.000000
# 5 0.000000 0.000000 0.000000 0.000000 0.039189 0.000000
# 6 0.000000 0.000000 0.000000 0.000000 0.000000 0.047962
#
#
# Mechanical properties :
#
#
# Convention : Reuss Voigt Hill
#
# Bulk Modulus (GPa) = 82.10759 82.33657 82.22208
# Shear Modulus (GPa) = 23.00058 23.20197 23.10127
#
# Velocity S-wave (km/s) = 3.67561 3.69167 3.68365
# Velocity P-wave (km/s) = 8.13891 8.15685 8.14789
#
# Compressibility (1/GPa) = 0.01217914
#
# Stress axis : x y z
#
# Youngs Moduli (GPa) = 59.87421 59.87421 61.80641
#
# Poissons Ratio (x) = 0.43585 0.35299
# Poissons Ratio (y) = 0.43585 0.35299
# Poissons Ratio (z) = 0.34195 0.34195
#
# Static dielectric constant tensor:
#      x y z
#    x 3.106940 0.000000 0.000000 
#    y 0.000000 3.106940 0.000000 
#    z 0.000000 0.000000 3.387440 
# 
# 
# High freq. dielectric constant tensor:
#      x y z
#    x 1.654970 0.000000 0.000000 
#    y 0.000000 1.654970 0.000000 
#    z 0.000000 0.000000 1.672150 
# 
# From -- ./inp_files/4140.got.cif
#   From: 2010.03.12/outbox.cif.g09.slc.cpg/sg187_3_cif.got.tgz:4140.got - 2010.04.01 11:58:23.
