data_PCOD8327387
_publ_section_title
;
Structure prediction by ZEFSAII (Michael W. Deem and Ramdas Pophale) SiO2 
 PCOD8327387
Probable space group: P -6 C 2
;
_chemical_formula_sum "Si O2"
_cell_formula_units_Z 72
_cell_length_a 23.974012
_cell_length_b 23.974012
_cell_length_c 8.822512
_cell_angle_alpha 90.000000
_cell_angle_beta 90.000000
_cell_angle_gamma 120.000000
_cell_volume 4391.413435
_symmetry_space_group_name_H-M "P -6 C 2"
_symmetry_group_IT_number 188
_symmetry_cell_setting 'hexagonal'
loop_
_space_group_symop_operation_xyz
x,y,z
-x+y,-x,1/2-z
-y,x-y,z
x,y,1/2-z
-x+y,-x,z
-y,x-y,1/2-z
-y,-x,-z
-x+y,y,-z
x,x-y,-z
-x+y,y,1/2+z
x,x-y,1/2+z
-y,-x,1/2+z
loop_
_atom_site_type_symbol
_atom_site_label
_atom_site_fract_x
_atom_site_fract_y
_atom_site_fract_z
Si Si1 0.001357 0.885592 0.426443
Si Si2 0.927577 0.190405 0.927865
Si Si3 0.258896 0.400210 0.430399
Si Si4 0.372411 0.853914 0.419293
Si Si5 0.993701 0.549872 0.915262
Si Si6 0.323638 0.326960 0.568504
O O1 0.004733 0.900234 0.250000
O O2 0.071591 0.928410 0.500000
O O3 0.952520 0.905040 0.500000
O O4 0.979206 0.811604 0.459385
O O5 0.919227 0.197585 0.750000
O O6 0.859403 0.140598 0.000000
O O7 0.950901 0.256908 0.013647
O O8 0.255767 0.397467 0.250000
O O9 0.189703 0.379406 0.500000
O O10 0.309527 0.472554 0.483118
O O11 0.276566 0.347952 0.491289
O O12 0.351476 0.824749 0.250000
O O13 0.411745 0.823490 0.500000
O O14 0.418293 0.929902 0.407257
O O15 0.962545 0.532102 0.750000
O O16 0.978333 0.602792 0.987697
O O17 0.962777 0.481389 0.000000
O O18 0.318497 0.330598 0.750000
#
# Coordination Sequence:
#
# PCOD8327387 Si02
#       6
#    12  12  12  12  12  12
#     4  10  20  33  49  67  87 111 146 193 247 300
#     4  10  21  36  52  70  92 124 162 199 241 293
#     4  11  21  33  48  68  94 124 158 200 247 295
#     4   9  16  28  45  66  89 116 149 184 224 273
#     4   8  15  26  43  67  93 118 144 175 213 255
#     4  10  20  34  50  70  96 125 157 195 237 286
#
# _framework density 16.395631999999999
#
# number of rings (size 3 to 8) (size 9 to 14) (size 15 to 20)
#    0.000    2.333    0.000    4.667    0.000    7.333 
#    0.000    1.667    0.000    0.333    0.000    2.333 
#    0.000    0.000    0.000    0.500    0.000    8.000 
#
# Total GULP energy -892635.825793 kJ/mol
# GULP energy per Si atom -12397.719803 kJ/mol
# Density = 1.635831 g / cm^3
# Si number density = 16.395632 Si / 1000 Ang^3
#
#
#
# Elastic Constant Matrix: (Units=GPa)
#
#
# Indices 1 2 3 4 5 6 
#
# 1 85.2263 57.0739 48.5982 -0.0001 0.0000 0.0000
# 2 57.0739 85.2263 48.5982 0.0001 0.0000 0.0000
# 3 48.5982 48.5982 118.2562 0.0000 0.0000 0.0000
# 4 -0.0001 0.0001 0.0000 25.4206 0.0000 0.0000
# 5 0.0000 0.0000 0.0000 0.0000 25.4206 -0.0001
# 6 0.0000 0.0000 0.0000 0.0000 -0.0001 14.0762
#
#
#
# Elastic Compliance Matrix: (Units=1/GPa)
#
#
# Indices 1 2 3 4 5 6 
#
# 1 0.022645 -0.012876 -0.004015 0.000000 0.000000 0.000000
# 2 -0.012876 0.022645 -0.004015 0.000000 0.000000 0.000000
# 3 -0.004015 -0.004015 0.011756 0.000000 0.000000 0.000000
# 4 0.000000 0.000000 0.000000 0.039338 0.000000 0.000000
# 5 0.000000 0.000000 0.000000 0.000000 0.039338 0.000000
# 6 0.000000 0.000000 0.000000 0.000000 0.000000 0.071042
#
#
# Mechanical properties :
#
#
# Convention : Reuss Voigt Hill
#
# Bulk Modulus (GPa) = 65.63457 66.36106 65.99782
# Shear Modulus (GPa) = 19.71184 21.94605 20.82895
#
# Velocity S-wave (km/s) = 3.47113 3.66256 3.56813
# Velocity P-wave (km/s) = 7.49557 7.64516 7.57074
#
# Compressibility (1/GPa) = 0.01523587
#
# Stress axis : x y z
#
# Youngs Moduli (GPa) = 44.15921 44.15921 85.06179
#
# Poissons Ratio (x) = 0.56858 0.34152
# Poissons Ratio (y) = 0.56858 0.34152
# Poissons Ratio (z) = 0.17730 0.17730
#
# Static dielectric constant tensor:
#      x y z
#    x 2.960540 0.000000 0.000000 
#    y 0.000000 2.960540 0.000000 
#    z 0.000000 0.000000 3.317030 
# 
# 
# High freq. dielectric constant tensor:
#      x y z
#    x 1.604120 0.000000 0.000000 
#    y 0.000000 1.604120 0.000000 
#    z 0.000000 0.000000 1.649780 
# 
# From -- ./inp_files/1024.got.cif
#   From: 2010.03.12/outbox.cif.g09.slc.cpg/sg188_1_cif.got.tgz:1024.got - 2010.04.01 12:01:06.
