data_PCOD8327324
_publ_section_title
;
Structure prediction by ZEFSAII (Michael W. Deem and Ramdas Pophale) SiO2 
 PCOD8327324
Probable space group: P -6 C 2
;
_chemical_formula_sum "Si O2"
_cell_formula_units_Z 58
_cell_length_a 19.554925
_cell_length_b 19.554925
_cell_length_c 14.216917
_cell_angle_alpha 90.000000
_cell_angle_beta 90.000000
_cell_angle_gamma 120.000000
_cell_volume 4708.129164
_symmetry_space_group_name_H-M "P -6 C 2"
_symmetry_group_IT_number 188
_symmetry_cell_setting 'hexagonal'
loop_
_space_group_symop_operation_xyz
x,y,z
-x+y,-x,1/2-z
-y,x-y,z
x,y,1/2-z
-x+y,-x,z
-y,x-y,1/2-z
-y,-x,-z
-x+y,y,-z
x,x-y,-z
-x+y,y,1/2+z
x,x-y,1/2+z
-y,-x,1/2+z
loop_
_atom_site_type_symbol
_atom_site_label
_atom_site_fract_x
_atom_site_fract_y
_atom_site_fract_z
Si Si1 0.709859 0.128083 0.250000
Si Si2 0.666668 0.333334 0.385871
Si Si3 0.161447 0.999985 0.250000
Si Si4 0.935941 0.709659 0.395948
Si Si5 0.595619 0.404375 0.750000
Si Si6 0.161448 0.161461 0.250000
Si Si7 0.871924 0.581778 0.750000
Si Si8 0.935943 0.709660 0.604052
O O1 0.710425 0.079517 0.158439
O O2 0.630941 0.133062 0.250000
O O3 0.783851 0.216155 0.250000
O O4 0.666668 0.333334 0.500000
O O5 0.622179 0.377839 0.344932
O O6 0.079435 0.920563 0.250000
O O7 0.145229 0.072614 0.250000
O O8 0.211126 0.001997 0.341622
O O9 0.998001 0.788872 0.341621
O O10 0.968862 0.710096 0.499999
O O11 0.854197 0.708397 0.400711
O O12 0.502116 0.369066 0.750000
O O13 0.920489 0.630911 0.658439
#
# Coordination Sequence:
#
# PCOD8327324 Si02
#       8
#     6   4   6  12   6   6   6  12
#     4   9  15  26  39  49  66  90 114 150 182 214
#     4  10  20  28  34  50  76  94 110 148 202 236
#     4   9  16  25  37  53  72  91 113 145 184 218
#     4   8  15  26  38  50  65  89 118 143 174 215
#     4  10  18  30  36  52  74  88 120 156 188 228
#     4   9  16  25  37  53  72  91 113 145 184 218
#     4   9  15  26  39  49  66  90 114 150 182 214
#     4   8  15  26  38  50  65  89 118 143 174 215
#
# _framework density 12.319119000000001
#
# number of rings (size 3 to 8) (size 9 to 14) (size 15 to 20)
#    0.000    3.310    2.069    2.690    0.000    2.483 
#    0.000    0.000    0.000    2.483    0.000    0.000 
#    0.000    0.000    0.000    0.000    0.000    0.000 
#
# Total GULP energy -718769.183837 kJ/mol
# GULP energy per Si atom -12392.572135 kJ/mol
# Density = 1.229108 g / cm^3
# Si number density = 12.319119 Si / 1000 Ang^3
#
#
#
# Elastic Constant Matrix: (Units=GPa)
#
#
# Indices 1 2 3 4 5 6 
#
# 1 70.9289 37.0461 39.3775 0.0000 0.0000 0.0000
# 2 37.0461 70.9288 39.3775 0.0000 0.0000 0.0000
# 3 39.3775 39.3775 128.9249 -0.0001 0.0000 0.0000
# 4 0.0000 0.0000 -0.0001 6.2686 0.0000 0.0000
# 5 0.0000 0.0000 0.0000 0.0000 6.2687 0.0000
# 6 0.0000 0.0000 0.0000 0.0000 0.0000 16.9414
#
#
#
# Elastic Compliance Matrix: (Units=1/GPa)
#
#
# Indices 1 2 3 4 5 6 
#
# 1 0.020715 -0.008799 -0.003639 0.000000 0.000000 0.000000
# 2 -0.008799 0.020715 -0.003640 0.000000 0.000000 0.000000
# 3 -0.003639 -0.003640 0.009980 0.000000 0.000000 0.000000
# 4 0.000000 0.000000 0.000000 0.159525 0.000000 0.000000
# 5 0.000000 0.000000 0.000000 0.000000 0.159524 0.000000
# 6 0.000000 0.000000 0.000000 0.000000 0.000000 0.059027
#
#
# Mechanical properties :
#
#
# Convention : Reuss Voigt Hill
#
# Bulk Modulus (GPa) = 51.93815 55.82053 53.87934
# Shear Modulus (GPa) = 10.68242 16.22783 13.45512
#
# Velocity S-wave (km/s) = 2.94792 3.63338 3.30845
# Velocity P-wave (km/s) = 7.33751 7.93804 7.64368
#
# Compressibility (1/GPa) = 0.01925367
#
# Stress axis : x y z
#
# Youngs Moduli (GPa) = 48.27482 48.27473 100.20361
#
# Poissons Ratio (x) = 0.42476 0.36469
# Poissons Ratio (y) = 0.42476 0.36469
# Poissons Ratio (z) = 0.17570 0.17570
#
# Static dielectric constant tensor:
#      x y z
#    x 2.272460 0.000000 0.000000 
#    y 0.000000 2.272470 0.000000 
#    z 0.000000 0.000000 3.041590 
# 
# 
# High freq. dielectric constant tensor:
#      x y z
#    x 1.432820 0.000000 0.000000 
#    y 0.000000 1.432820 0.000000 
#    z 0.000000 0.000000 1.479530 
# 
# From -- ./inp_files/2433.got.cif
#   From: 2010.03.12/outbox.cif.g09.slc.cpg/sg188_2_cif.got.tgz:2433.got - 2010.04.01 12:01:06.
