data_PCOD8327965
_publ_section_title
;
Structure prediction by ZEFSAII (Michael W. Deem and Ramdas Pophale) SiO2 
 PCOD8327965
Probable space group: P -6 2 C
;
_chemical_formula_sum "Si O2"
_cell_formula_units_Z 72
_cell_length_a 24.048472
_cell_length_b 24.048472
_cell_length_c 8.987898
_cell_angle_alpha 90.000000
_cell_angle_beta 90.000000
_cell_angle_gamma 120.000000
_cell_volume 4501.567237
_symmetry_space_group_name_H-M "P -6 2 C"
_symmetry_group_IT_number 190
_symmetry_cell_setting 'hexagonal'
loop_
_space_group_symop_operation_xyz
x,y,z
-x+y,-x,1/2-z
-y,x-y,z
x,y,1/2-z
-x+y,-x,z
-y,x-y,1/2-z
x-y,-y,-z
-x,-x+y,-z
y,x,-z
y,x,1/2+z
x-y,-y,1/2+z
-x,-x+y,1/2+z
loop_
_atom_site_type_symbol
_atom_site_label
_atom_site_fract_x
_atom_site_fract_y
_atom_site_fract_z
Si Si1 0.866851 0.934643 0.574362
Si Si2 0.933095 0.402383 0.074494
Si Si3 0.741554 0.476816 0.427444
Si Si4 0.066509 0.258586 0.924118
Si Si5 0.599377 0.742500 0.926532
Si Si6 0.597275 0.406508 0.426459
O O1 0.880132 0.943300 0.750000
O O2 0.915572 0.915572 0.500000
O O3 0.793467 0.881345 0.537438
O O4 0.877888 0.000000 0.500000
O O5 0.942753 0.406941 0.250000
O O6 0.907192 0.329513 0.018412
O O7 0.881819 0.424046 0.025245
O O8 0.000000 0.450786 0.000000
O O9 0.742938 0.476549 0.250000
O O10 0.764228 0.549233 0.485488
O O11 0.669128 0.429464 0.484221
O O12 0.788151 0.452126 0.492943
O O13 0.055441 0.260238 0.750000
O O14 0.120747 0.328618 0.983409
O O15 0.000000 0.241005 0.000000
O O16 0.596917 0.741536 0.750000
O O17 0.597824 0.402902 0.250000
#
# Coordination Sequence:
#
# PCOD8327965 Si02
#       6
#    12  12  12  12  12  12
#     4  10  19  30  44  61  81 103 128 158 192 231
#     4   9  16  25  38  58  82 105 130 159 192 232
#     4   8  12  19  33  54  81 106 127 159 200 234
#     4   9  17  28  42  60  80 103 130 159 193 231
#     4   8  14  24  38  57  80 104 130 161 195 230
#     4   8  13  20  33  56  81 103 128 160 198 234
#
# _framework density 15.994429
#
# number of rings (size 3 to 8) (size 9 to 14) (size 15 to 20)
#    0.000    3.333    0.000    3.500    0.000    2.000 
#    0.000    0.000    0.000    1.000    0.000    5.833 
#    0.000    0.000    0.000    0.000    0.000    0.000 
#
# Total GULP energy -892188.752788 kJ/mol
# GULP energy per Si atom -12391.510455 kJ/mol
# Density = 1.595802 g / cm^3
# Si number density = 15.994429 Si / 1000 Ang^3
#
#
#
# Elastic Constant Matrix: (Units=GPa)
#
#
# Indices 1 2 3 4 5 6 
#
# 1 139.3038 83.3747 24.7872 0.0000 0.0000 0.0000
# 2 83.3747 139.3038 24.7872 0.0000 0.0000 0.0000
# 3 24.7872 24.7872 22.8350 0.0000 0.0000 0.0000
# 4 0.0000 0.0000 0.0000 12.7189 0.0000 0.0000
# 5 0.0000 0.0000 0.0000 0.0000 12.7189 0.0000
# 6 0.0000 0.0000 0.0000 0.0000 0.0000 27.9646
#
#
#
# Elastic Compliance Matrix: (Units=1/GPa)
#
#
# Indices 1 2 3 4 5 6 
#
# 1 0.011901 -0.005979 -0.006428 0.000000 0.000000 0.000000
# 2 -0.005979 0.011901 -0.006428 0.000000 0.000000 0.000000
# 3 -0.006428 -0.006428 0.057748 0.000000 0.000000 0.000000
# 4 0.000000 0.000000 0.000000 0.078623 0.000000 0.000000
# 5 0.000000 0.000000 0.000000 0.000000 0.078623 0.000000
# 6 0.000000 0.000000 0.000000 0.000000 0.000000 0.035760
#
#
# Mechanical properties :
#
#
# Convention : Reuss Voigt Hill
#
# Bulk Modulus (GPa) = 22.79000 63.03790 42.91395
# Shear Modulus (GPa) = 15.29744 21.91337 18.60541
#
# Velocity S-wave (km/s) = 3.09596 3.70545 3.41433
# Velocity P-wave (km/s) = 5.20189 7.60297 6.51401
#
# Compressibility (1/GPa) = 0.04387890
#
# Stress axis : x y z
#
# Youngs Moduli (GPa) = 84.02785 84.02785 17.31671
#
# Poissons Ratio (x) = 0.50240 0.11131
# Poissons Ratio (y) = 0.50240 0.11131
# Poissons Ratio (z) = 0.54014 0.54014
#
# Static dielectric constant tensor:
#      x y z
#    x 3.283360 0.000000 0.000000 
#    y 0.000000 3.283360 0.000000 
#    z 0.000000 0.000000 2.604640 
# 
# 
# High freq. dielectric constant tensor:
#      x y z
#    x 1.609990 0.000000 0.000000 
#    y 0.000000 1.609990 0.000000 
#    z 0.000000 0.000000 1.569620 
# 
# From -- ./inp_files/1226.got.cif
#   From: 2010.06.25/outbox.cif.g09.slc.cpg/sg190_1_cif.got.tgz:1226.got - 2010.06.28 13:08:06.
