data_PCOD8327597
_publ_section_title
;
Structure prediction by ZEFSAII (Michael W. Deem and Ramdas Pophale) SiO2 
 PCOD8327597
Probable space group: P -6 2 M
;
_chemical_formula_sum "Si O2"
_cell_formula_units_Z 72
_cell_length_a 23.729720
_cell_length_b 23.729720
_cell_length_c 8.960934
_cell_angle_alpha 90.000000
_cell_angle_beta 90.000000
_cell_angle_gamma 120.000000
_cell_volume 4369.876244
_symmetry_space_group_name_H-M "P -6 2 M"
_symmetry_group_IT_number 189
_symmetry_cell_setting 'hexagonal'
loop_
_space_group_symop_operation_xyz
x,y,z
-x+y,-x,-z
-y,x-y,z
x,y,-z
-x+y,-x,z
-y,x-y,-z
x-y,-y,-z
-x,-x+y,-z
y,x,-z
y,x,z
x-y,-y,z
-x,-x+y,z
loop_
_atom_site_type_symbol
_atom_site_label
_atom_site_fract_x
_atom_site_fract_y
_atom_site_fract_z
Si Si1 0.402827 0.136570 0.824724
Si Si2 0.191636 0.924992 0.327843
Si Si3 0.817106 0.074103 0.176302
Si Si4 0.861060 0.597674 0.825790
Si Si5 0.523155 0.598057 0.675286
Si Si6 0.482839 0.407229 0.172789
O O1 0.332193 0.089992 0.756317
O O2 0.426514 0.212217 0.790072
O O3 0.455103 0.121270 0.753530
O O4 0.398112 0.123183 0.000000
O O5 0.190379 0.906246 0.500000
O O6 0.119549 0.885245 0.258212
O O7 0.213846 0.000000 0.307180
O O8 0.764997 0.094047 0.235608
O O9 0.792773 0.000000 0.219682
O O10 0.827753 0.086276 0.000000
O O11 0.883063 0.548697 0.758111
O O12 0.874443 0.599859 0.000000
O O13 0.520805 0.606672 0.500000
O O14 0.573105 0.573105 0.718228
O O15 0.451420 0.547393 0.732828
O O16 0.430308 0.430308 0.193465
O O17 0.502995 0.410890 0.000000
#
# Coordination Sequence:
#
# PCOD8327597 Si02
#       6
#    12  12  12  12  12  12
#     4  10  19  31  49  71  93 120 156 194 231 273
#     4  10  20  32  46  67  96 127 156 189 232 279
#     4   9  17  30  49  72  96 122 153 190 231 275
#     4   8  15  28  47  71  95 117 145 185 228 268
#     4  10  20  32  45  65  95 125 152 187 230 272
#     4   9  16  28  48  70  91 118 150 181 218 269
#
# _framework density 16.47644
#
# number of rings (size 3 to 8) (size 9 to 14) (size 15 to 20)
#    0.000    2.667    0.000    3.500    0.000    6.667 
#    0.000    4.167    0.000    5.000    0.000    2.333 
#    0.000    0.000    0.000    0.000    0.000    0.000 
#
# Total GULP energy -892752.226391 kJ/mol
# GULP energy per Si atom -12399.336478 kJ/mol
# Density = 1.643894 g / cm^3
# Si number density = 16.476440 Si / 1000 Ang^3
#
#
#
# Elastic Constant Matrix: (Units=GPa)
#
#
# Indices 1 2 3 4 5 6 
#
# 1 116.2842 64.8472 50.7982 0.0000 0.0000 0.0000
# 2 64.8472 116.2842 50.7982 0.0000 0.0000 0.0000
# 3 50.7982 50.7982 71.8989 0.0000 0.0000 0.0000
# 4 0.0000 0.0000 0.0000 16.0561 0.0000 0.0000
# 5 0.0000 0.0000 0.0000 0.0000 16.0561 0.0000
# 6 0.0000 0.0000 0.0000 0.0000 0.0000 25.7185
#
#
#
# Elastic Compliance Matrix: (Units=1/GPa)
#
#
# Indices 1 2 3 4 5 6 
#
# 1 0.014293 -0.005148 -0.006461 0.000000 0.000000 0.000000
# 2 -0.005148 0.014293 -0.006461 0.000000 0.000000 0.000000
# 3 -0.006461 -0.006461 0.023038 0.000000 0.000000 0.000000
# 4 0.000000 0.000000 0.000000 0.062282 0.000000 0.000000
# 5 0.000000 0.000000 0.000000 0.000000 0.062282 0.000000
# 6 0.000000 0.000000 0.000000 0.000000 0.000000 0.038883
#
#
# Mechanical properties :
#
#
# Convention : Reuss Voigt Hill
#
# Bulk Modulus (GPa) = 64.58408 70.81717 67.70062
# Shear Modulus (GPa) = 19.50290 20.76769 20.13530
#
# Velocity S-wave (km/s) = 3.44420 3.55413 3.49960
# Velocity P-wave (km/s) = 7.42291 7.74058 7.58341
#
# Compressibility (1/GPa) = 0.01548369
#
# Stress axis : x y z
#
# Youngs Moduli (GPa) = 69.96397 69.96397 43.40618
#
# Poissons Ratio (x) = 0.36019 0.28045
# Poissons Ratio (y) = 0.36019 0.28045
# Poissons Ratio (z) = 0.45204 0.45204
#
# Static dielectric constant tensor:
#      x y z
#    x 3.111760 0.000000 0.000000 
#    y 0.000000 3.111760 0.000000 
#    z 0.000000 0.000000 3.038630 
# 
# 
# High freq. dielectric constant tensor:
#      x y z
#    x 1.625610 0.000000 0.000000 
#    y 0.000000 1.625610 0.000000 
#    z 0.000000 0.000000 1.627880 
# 
# From -- ./inp_files/1261.got.cif
#   From: 2010.03.12/outbox.cif.g09.slc.cpg/sg189_1_cif.got.tgz:1261.got - 2010.04.01 12:03:36.
