data_PCOD8327289
_publ_section_title
;
Structure prediction by ZEFSAII (Michael W. Deem and Ramdas Pophale) SiO2 
 PCOD8327289
Probable space group: P -6 M 2
;
_chemical_formula_sum "Si O2"
_cell_formula_units_Z 72
_cell_length_a 23.599289
_cell_length_b 23.599289
_cell_length_c 9.921769
_cell_angle_alpha 90.000000
_cell_angle_beta 90.000000
_cell_angle_gamma 120.000000
_cell_volume 4785.392677
_symmetry_space_group_name_H-M "P -6 M 2"
_symmetry_group_IT_number 187
_symmetry_cell_setting 'hexagonal'
loop_
_space_group_symop_operation_xyz
x,y,z
-x+y,-x,-z
-y,x-y,z
x,y,-z
-x+y,-x,z
-y,x-y,-z
-y,-x,-z
-x+y,y,-z
x,x-y,-z
-x+y,y,z
x,x-y,z
-y,-x,z
loop_
_atom_site_type_symbol
_atom_site_label
_atom_site_fract_x
_atom_site_fract_y
_atom_site_fract_z
Si Si1 0.301851 0.478327 0.650605
Si Si2 0.098764 0.323033 0.651026
Si Si3 0.666627 0.202778 0.345547
Si Si4 0.855522 0.581398 0.154473
Si Si5 0.324327 0.326661 0.155260
Si Si6 0.397918 0.476232 0.846187
O O1 0.330194 0.501434 0.500000
O O2 0.252634 0.505268 0.687809
O O3 0.261727 0.400598 0.656931
O O4 0.360877 0.504668 0.756260
O O5 0.071079 0.299494 0.500000
O O6 0.148126 0.296252 0.690212
O O7 0.038936 0.297366 0.755888
O O8 0.666742 0.181892 0.500000
O O9 0.598550 0.197099 0.305560
O O10 0.722794 0.277207 0.320997
O O11 0.676668 0.154058 0.249868
O O12 0.800852 0.601703 0.184229
O O13 0.925671 0.643680 0.186207
O O14 0.852065 0.558569 0.000000
O O15 0.377288 0.401990 0.193608
O O16 0.303253 0.321609 0.000000
O O17 0.476095 0.523906 0.824562
O O18 0.378211 0.478747 0.000000
#
# Coordination Sequence:
#
# PCOD8327289 Si02
#       6
#    12  12  12  12  12  12
#     4   8  14  25  40  56  73  94 120 149 183 225
#     4   8  14  25  41  61  83 103 123 151 188 228
#     4   9  17  29  44  60  77  99 132 178 230 277
#     4   9  18  31  44  59  81 110 143 175 208 250
#     4   9  17  28  42  59  80 108 138 167 200 239
#     4   9  17  27  38  55  78 101 127 161 201 242
#
# _framework density 15.045786
#
# number of rings (size 3 to 8) (size 9 to 14) (size 15 to 20)
#    0.000    3.333    0.000    1.167    0.000    3.333 
#    0.000    5.000    0.000    1.333    0.000    0.000 
#    0.000    0.000    0.000    0.500    0.000    7.667 
#
# Total GULP energy -892411.573504 kJ/mol
# GULP energy per Si atom -12394.605188 kJ/mol
# Density = 1.501154 g / cm^3
# Si number density = 15.045786 Si / 1000 Ang^3
#
#
#
# Elastic Constant Matrix: (Units=GPa)
#
#
# Indices 1 2 3 4 5 6 
#
# 1 68.4687 39.5695 47.7752 0.0000 -0.0001 0.0000
# 2 39.5695 68.4687 47.7752 0.0000 0.0001 0.0000
# 3 47.7752 47.7752 78.7960 0.0000 0.0000 0.0000
# 4 0.0000 0.0000 0.0000 21.5883 0.0000 0.0001
# 5 -0.0001 0.0001 0.0000 0.0000 21.5883 0.0000
# 6 0.0000 0.0000 0.0000 0.0001 0.0000 14.4496
#
#
#
# Elastic Compliance Matrix: (Units=1/GPa)
#
#
# Indices 1 2 3 4 5 6 
#
# 1 0.027281 -0.007322 -0.012101 0.000000 0.000000 0.000000
# 2 -0.007322 0.027281 -0.012101 0.000000 0.000000 0.000000
# 3 -0.012101 -0.012101 0.027365 0.000000 0.000000 0.000000
# 4 0.000000 0.000000 0.000000 0.046321 0.000000 0.000000
# 5 0.000000 0.000000 0.000000 0.000000 0.046321 0.000000
# 6 0.000000 0.000000 0.000000 0.000000 0.000000 0.069206
#
#
# Mechanical properties :
#
#
# Convention : Reuss Voigt Hill
#
# Bulk Modulus (GPa) = 52.97290 53.99703 53.48496
# Shear Modulus (GPa) = 15.96847 16.89944 16.43395
#
# Velocity S-wave (km/s) = 3.26133 3.35505 3.30853
# Velocity P-wave (km/s) = 7.03320 7.13967 7.08664
#
# Compressibility (1/GPa) = 0.01887758
#
# Stress axis : x y z
#
# Youngs Moduli (GPa) = 36.65593 36.65593 36.54291
#
# Poissons Ratio (x) = 0.26841 0.44221
# Poissons Ratio (y) = 0.26841 0.44221
# Poissons Ratio (z) = 0.44357 0.44357
#
# Static dielectric constant tensor:
#      x y z
#    x 2.792200 0.000000 0.000000 
#    y 0.000000 2.792200 0.000000 
#    z 0.000000 0.000000 3.078220 
# 
# 
# High freq. dielectric constant tensor:
#      x y z
#    x 1.547620 0.000000 0.000000 
#    y 0.000000 1.547620 0.000000 
#    z 0.000000 0.000000 1.584270 
# 
# From -- ./inp_files/946.got.cif
#   From: 2010.03.12/outbox.cif.g09.slc.cpg/sg187_1_cif.got.tgz:946.got - 2010.04.01 11:58:23.
