data_PCOD8327833
_publ_section_title
;
Structure prediction by ZEFSAII (Michael W. Deem and Ramdas Pophale) SiO2 
 PCOD8327833
Probable space group: P -6 2 M
;
_chemical_formula_sum "Si O2"
_cell_formula_units_Z 54
_cell_length_a 17.288505
_cell_length_b 17.288505
_cell_length_c 12.390072
_cell_angle_alpha 90.000000
_cell_angle_beta 90.000000
_cell_angle_gamma 120.000000
_cell_volume 3207.150509
_symmetry_space_group_name_H-M "P -6 2 M"
_symmetry_group_IT_number 189
_symmetry_cell_setting 'hexagonal'
loop_
_space_group_symop_operation_xyz
x,y,z
-x+y,-x,-z
-y,x-y,z
x,y,-z
-x+y,-x,z
-y,x-y,-z
x-y,-y,-z
-x,-x+y,-z
y,x,-z
y,x,z
x-y,-y,z
-x,-x+y,z
loop_
_atom_site_type_symbol
_atom_site_label
_atom_site_fract_x
_atom_site_fract_y
_atom_site_fract_z
Si Si1 0.106926 0.213747 0.000000
Si Si2 0.103614 0.634226 0.118187
Si Si3 0.898226 0.363601 0.127026
Si Si4 0.896967 0.793831 0.626030
Si Si5 0.820111 0.169697 0.801171
O O1 0.138247 0.276114 0.895138
O O2 0.151227 0.151227 0.000000
O O3 0.000000 0.152241 0.000000
O O4 0.142581 0.570637 0.158281
O O5 0.117790 0.712516 0.198523
O O6 0.000000 0.566111 0.103178
O O7 0.144529 0.676200 0.000000
O O8 0.846622 0.272263 0.192043
O O9 0.000000 0.406934 0.163521
O O10 0.887514 0.343856 0.000000
O O11 0.886371 0.771803 0.500000
O O12 0.851984 0.851984 0.659341
O O13 0.848814 0.699769 0.687227
O O14 0.000000 0.850368 0.660843
#
# Coordination Sequence:
#
# PCOD8327833 Si02
#       5
#     6  12  12  12  12
#     4  12  23  32  46  74 110 142 170 212 269 324
#     4   9  17  30  47  69  99 132 163 202 255 314
#     4   9  17  30  47  69  99 132 163 202 255 314
#     4  10  21  36  54  76 106 146 190 230 263 305
#     4  12  20  32  53  76 100 138 178 218 261 325
#
# _framework density 16.837375999999999
#
# number of rings (size 3 to 8) (size 9 to 14) (size 15 to 20)
#    0.000    1.778    2.222    5.667    0.000    0.889 
#    1.333    2.222    0.000    1.333    0.000    6.222 
#    0.000    0.000    0.000    0.000    0.000    0.000 
#
# Total GULP energy -669383.145344 kJ/mol
# GULP energy per Si atom -12395.984173 kJ/mol
# Density = 1.679905 g / cm^3
# Si number density = 16.837376 Si / 1000 Ang^3
#
#
#
# Elastic Constant Matrix: (Units=GPa)
#
#
# Indices 1 2 3 4 5 6 
#
# 1 115.4796 45.7750 35.5877 0.0000 0.0000 0.0000
# 2 45.7750 115.4796 35.5877 0.0000 0.0000 0.0000
# 3 35.5877 35.5877 49.5163 0.0000 0.0000 0.0000
# 4 0.0000 0.0000 0.0000 22.9378 0.0000 0.0000
# 5 0.0000 0.0000 0.0000 0.0000 22.9378 0.0000
# 6 0.0000 0.0000 0.0000 0.0000 0.0000 34.8523
#
#
#
# Elastic Compliance Matrix: (Units=1/GPa)
#
#
# Indices 1 2 3 4 5 6 
#
# 1 0.011714 -0.002632 -0.006528 0.000000 0.000000 0.000000
# 2 -0.002632 0.011714 -0.006528 0.000000 0.000000 0.000000
# 3 -0.006528 -0.006528 0.029578 0.000000 0.000000 0.000000
# 4 0.000000 0.000000 0.000000 0.043596 0.000000 0.000000
# 5 0.000000 0.000000 0.000000 0.000000 0.043596 0.000000
# 6 0.000000 0.000000 0.000000 0.000000 0.000000 0.028693
#
#
# Mechanical properties :
#
#
# Convention : Reuss Voigt Hill
#
# Bulk Modulus (GPa) = 46.22626 57.15291 51.68958
# Shear Modulus (GPa) = 24.09896 27.04724 25.57310
#
# Velocity S-wave (km/s) = 3.78733 4.01232 3.90144
# Velocity P-wave (km/s) = 6.82930 7.44867 7.14570
#
# Compressibility (1/GPa) = 0.02163273
#
# Stress axis : x y z
#
# Youngs Moduli (GPa) = 85.36475 85.36475 33.80839
#
# Poissons Ratio (x) = 0.22466 0.22069
# Poissons Ratio (y) = 0.22466 0.22069
# Poissons Ratio (z) = 0.55724 0.55724
#
# Static dielectric constant tensor:
#      x y z
#    x 3.276050 0.000000 0.000000 
#    y 0.000000 3.276050 0.000000 
#    z 0.000000 0.000000 2.838250 
# 
# 
# High freq. dielectric constant tensor:
#      x y z
#    x 1.656200 0.000000 0.000000 
#    y 0.000000 1.656200 0.000000 
#    z 0.000000 0.000000 1.602500 
# 
# From -- ./inp_files/1821.got.cif
#   From: 2010.03.12/outbox.cif.g09.slc.cpg/sg189_1_cif.got.tgz:1821.got - 2010.04.01 12:03:36.
