data_PCOD8327638
_publ_section_title
;
Structure prediction by ZEFSAII (Michael W. Deem and Ramdas Pophale) SiO2 
 PCOD8327638
Probable space group: P -6 2 M
;
_chemical_formula_sum "Si O2"
_cell_formula_units_Z 72
_cell_length_a 15.192180
_cell_length_b 15.192180
_cell_length_c 19.462591
_cell_angle_alpha 90.000000
_cell_angle_beta 90.000000
_cell_angle_gamma 120.000000
_cell_volume 3890.195997
_symmetry_space_group_name_H-M "P -6 2 M"
_symmetry_group_IT_number 189
_symmetry_cell_setting 'hexagonal'
loop_
_space_group_symop_operation_xyz
x,y,z
-x+y,-x,-z
-y,x-y,z
x,y,-z
-x+y,-x,z
-y,x-y,-z
x-y,-y,-z
-x,-x+y,-z
y,x,-z
y,x,z
x-y,-y,z
-x,-x+y,z
loop_
_atom_site_type_symbol
_atom_site_label
_atom_site_fract_x
_atom_site_fract_y
_atom_site_fract_z
Si Si1 0.417285 0.537129 0.183694
Si Si2 0.768716 0.884752 0.920871
Si Si3 0.237829 0.810302 0.167695
Si Si4 0.728196 0.120535 0.576932
Si Si5 0.883038 0.449192 0.336407
Si Si6 0.252110 0.882135 0.321352
O O1 0.461420 0.461420 0.179473
O O2 0.308474 0.485283 0.146866
O O3 0.498359 0.643851 0.149296
O O4 0.395330 0.560001 0.261192
O O5 0.857293 0.857293 0.911545
O O6 0.671869 0.805086 0.878263
O O7 0.812211 0.000000 0.894061
O O8 0.735805 0.875960 0.000000
O O9 0.222550 0.829886 0.247084
O O10 0.760852 0.164167 0.500000
O O11 0.656560 0.163224 0.607628
O O12 0.826473 0.158054 0.626097
O O13 0.670791 0.000000 0.575197
O O14 0.868851 0.340851 0.357581
O O15 0.000000 0.531639 0.328692
O O16 0.285087 0.000000 0.313601
#
# Coordination Sequence:
#
# PCOD8327638 Si02
#       6
#    12  12  12  12  12  12
#     4  10  19  32  53  80 108 140 178 222 273 325
#     4  10  21  38  60  86 116 150 189 237 292 345
#     4  11  20  35  57  83 113 148 190 231 279 339
#     4  10  20  34  51  72 103 142 181 223 278 339
#     4   8  16  32  49  69  97 130 167 212 264 318
#     4  10  20  34  55  79 106 139 182 231 280 332
#
# _framework density 18.508064999999998
#
# number of rings (size 3 to 8) (size 9 to 14) (size 15 to 20)
#    0.000    2.167    1.667    3.500    0.000    2.333 
#    1.000    2.500    0.000    3.333    0.000    0.000 
#    0.000    0.000    0.000    0.000    0.000    0.000 
#
# Total GULP energy -892529.412431 kJ/mol
# GULP energy per Si atom -12396.241839 kJ/mol
# Density = 1.846594 g / cm^3
# Si number density = 18.508065 Si / 1000 Ang^3
#
#
#
# Elastic Constant Matrix: (Units=GPa)
#
#
# Indices 1 2 3 4 5 6 
#
# 1 88.3254 29.1022 36.2371 0.0000 0.0000 0.0000
# 2 29.1022 88.3254 36.2371 0.0000 0.0000 0.0000
# 3 36.2371 36.2371 63.9509 0.0000 0.0000 0.0000
# 4 0.0000 0.0000 0.0000 23.6719 0.0000 0.0000
# 5 0.0000 0.0000 0.0000 0.0000 23.6719 0.0000
# 6 0.0000 0.0000 0.0000 0.0000 0.0000 29.6116
#
#
#
# Elastic Compliance Matrix: (Units=1/GPa)
#
#
# Indices 1 2 3 4 5 6 
#
# 1 0.014990 -0.001895 -0.007421 0.000000 0.000000 0.000000
# 2 -0.001895 0.014990 -0.007421 0.000000 0.000000 0.000000
# 3 -0.007421 -0.007421 0.024047 0.000000 0.000000 0.000000
# 4 0.000000 0.000000 0.000000 0.042244 0.000000 0.000000
# 5 0.000000 0.000000 0.000000 0.000000 0.042244 0.000000
# 6 0.000000 0.000000 0.000000 0.000000 0.000000 0.033771
#
#
# Mechanical properties :
#
#
# Convention : Reuss Voigt Hill
#
# Bulk Modulus (GPa) = 48.64814 49.30609 48.97712
# Shear Modulus (GPa) = 23.51721 24.65942 24.08831
#
# Velocity S-wave (km/s) = 3.56848 3.65411 3.61155
# Velocity P-wave (km/s) = 6.58184 6.67095 6.62654
#
# Compressibility (1/GPa) = 0.02055577
#
# Stress axis : x y z
#
# Youngs Moduli (GPa) = 66.70894 66.70894 41.58598
#
# Poissons Ratio (x) = 0.12640 0.30859
# Poissons Ratio (y) = 0.12640 0.30859
# Poissons Ratio (z) = 0.49502 0.49502
#
# Static dielectric constant tensor:
#      x y z
#    x 3.364280 0.000000 0.000000 
#    y 0.000000 3.364280 0.000000 
#    z 0.000000 0.000000 3.302140 
# 
# 
# High freq. dielectric constant tensor:
#      x y z
#    x 1.715990 0.000000 0.000000 
#    y 0.000000 1.715990 0.000000 
#    z 0.000000 0.000000 1.693020 
# 
# From -- ./inp_files/3117.got.cif
#   From: 2010.03.12/outbox.cif.g09.slc.cpg/sg189_2_cif.got.tgz:3117.got - 2010.04.01 12:03:36.
