data_PCOD8327962
_publ_section_title
;
Structure prediction by ZEFSAII (Michael W. Deem and Ramdas Pophale) SiO2 
 PCOD8327962
Probable space group: P -6 2 C
;
_chemical_formula_sum "Si O2"
_cell_formula_units_Z 96
_cell_length_a 19.726515
_cell_length_b 19.726515
_cell_length_c 17.969319
_cell_angle_alpha 90.000000
_cell_angle_beta 90.000000
_cell_angle_gamma 120.000000
_cell_volume 6055.680930
_symmetry_space_group_name_H-M "P -6 2 C"
_symmetry_group_IT_number 190
_symmetry_cell_setting 'hexagonal'
loop_
_space_group_symop_operation_xyz
x,y,z
-x+y,-x,1/2-z
-y,x-y,z
x,y,1/2-z
-x+y,-x,z
-y,x-y,1/2-z
x-y,-y,-z
-x,-x+y,-z
y,x,-z
y,x,1/2+z
x-y,-y,1/2+z
-x,-x+y,1/2+z
loop_
_atom_site_type_symbol
_atom_site_label
_atom_site_fract_x
_atom_site_fract_y
_atom_site_fract_z
Si Si1 0.052323 0.673389 0.667266
Si Si2 0.911924 0.670751 0.017891
Si Si3 0.911336 0.373155 0.470725
Si Si4 0.460154 0.580492 0.383964
Si Si5 0.534574 0.477610 0.333821
Si Si6 0.680375 0.767596 0.479603
Si Si7 0.591762 0.737842 0.167963
Si Si8 0.430803 0.307188 0.620605
O O1 0.072373 0.711789 0.750000
O O2 0.093127 0.740449 0.604771
O O3 0.085535 0.613914 0.659039
O O4 0.958794 0.623042 0.660298
O O5 0.857792 0.708716 0.998330
O O6 0.886134 0.593885 0.966707
O O7 0.000000 0.737752 0.000000
O O8 0.864600 0.396051 0.529166
O O9 0.893106 0.393308 0.389102
O O10 0.883985 0.281410 0.470253
O O11 0.000000 0.417363 0.500000
O O12 0.498707 0.529406 0.361402
O O13 0.504754 0.661663 0.338703
O O14 0.367811 0.523915 0.369513
O O15 0.566572 0.499792 0.250000
O O16 0.749607 0.749607 0.500000
O O17 0.653725 0.741868 0.393504
O O18 0.624942 0.736879 0.250000
O O19 0.584487 0.814269 0.161421
#
# Coordination Sequence:
#
# PCOD8327962 Si02
#       8
#    12  12  12  12  12  12  12  12
#     4   9  16  26  42  65  89 110 140 183 223 254
#     4   9  17  30  48  66  84 112 145 177 220 272
#     4   8  14  25  40  58  80 108 139 169 205 249
#     4   9  16  26  39  55  79 112 145 174 201 237
#     4   9  15  23  39  61  83 107 136 171 209 246
#     4   9  18  32  47  63  86 114 142 176 219 268
#     4  10  19  29  42  61  86 116 149 179 209 251
#     4   9  17  29  43  59  84 119 151 177 210 255
#
# _framework density 15.852883
#
# number of rings (size 3 to 8) (size 9 to 14) (size 15 to 20)
#    0.000    3.000    0.000    2.250    0.000    4.500 
#    0.750    1.250    0.000    0.250    0.000    0.000 
#    0.000    0.000    0.000    3.500    0.000    0.000 
#
# Total GULP energy -1189419.951781 kJ/mol
# GULP energy per Si atom -12389.791164 kJ/mol
# Density = 1.581680 g / cm^3
# Si number density = 15.852883 Si / 1000 Ang^3
#
#
#
# Elastic Constant Matrix: (Units=GPa)
#
#
# Indices 1 2 3 4 5 6 
#
# 1 58.2303 23.9673 30.3813 0.0000 0.0000 0.0000
# 2 23.9673 58.2303 30.3813 0.0000 0.0000 0.0000
# 3 30.3813 30.3813 134.9150 0.0000 0.0000 0.0000
# 4 0.0000 0.0000 0.0000 14.2529 0.0000 0.0000
# 5 0.0000 0.0000 0.0000 0.0000 14.2529 0.0000
# 6 0.0000 0.0000 0.0000 0.0000 0.0000 17.1315
#
#
#
# Elastic Compliance Matrix: (Units=1/GPa)
#
#
# Indices 1 2 3 4 5 6 
#
# 1 0.021891 -0.007295 -0.003287 0.000000 0.000000 0.000000
# 2 -0.007295 0.021891 -0.003287 0.000000 0.000000 0.000000
# 3 -0.003287 -0.003287 0.008892 0.000000 0.000000 0.000000
# 4 0.000000 0.000000 0.000000 0.070161 0.000000 0.000000
# 5 0.000000 0.000000 0.000000 0.000000 0.070161 0.000000
# 6 0.000000 0.000000 0.000000 0.000000 0.000000 0.058372
#
#
# Mechanical properties :
#
#
# Convention : Reuss Voigt Hill
#
# Bulk Modulus (GPa) = 40.10215 46.75949 43.43082
# Shear Modulus (GPa) = 17.39626 20.23715 18.81671
#
# Velocity S-wave (km/s) = 3.31623 3.57677 3.44896
# Velocity P-wave (km/s) = 6.32570 6.82771 6.58150
#
# Compressibility (1/GPa) = 0.02493632
#
# Stress axis : x y z
#
# Youngs Moduli (GPa) = 45.68140 45.68140 112.45629
#
# Poissons Ratio (x) = 0.33326 0.36961
# Poissons Ratio (y) = 0.33326 0.36961
# Poissons Ratio (z) = 0.15014 0.15014
#
# Static dielectric constant tensor:
#      x y z
#    x 2.836100 0.000000 0.000000 
#    y 0.000000 2.836100 0.000000 
#    z 0.000000 0.000000 3.236540 
# 
# 
# High freq. dielectric constant tensor:
#      x y z
#    x 1.576610 0.000000 0.000000 
#    y 0.000000 1.576610 0.000000 
#    z 0.000000 0.000000 1.621170 
# 
# From -- ./inp_files/3975.got.cif
#   From: 2010.06.25/outbox.cif.g09.slc.cpg/sg190_2_cif.got.tgz:3975.got - 2010.06.28 13:08:06.
