data_PCOD8327567
_publ_section_title
;
Structure prediction by ZEFSAII (Michael W. Deem and Ramdas Pophale) SiO2 
 PCOD8327567
Probable space group: P -6 2 M
;
_chemical_formula_sum "Si O2"
_cell_formula_units_Z 72
_cell_length_a 23.664303
_cell_length_b 23.664303
_cell_length_c 9.295536
_cell_angle_alpha 90.000000
_cell_angle_beta 90.000000
_cell_angle_gamma 120.000000
_cell_volume 4508.089231
_symmetry_space_group_name_H-M "P -6 2 M"
_symmetry_group_IT_number 189
_symmetry_cell_setting 'hexagonal'
loop_
_space_group_symop_operation_xyz
x,y,z
-x+y,-x,-z
-y,x-y,z
x,y,-z
-x+y,-x,z
-y,x-y,-z
x-y,-y,-z
-x,-x+y,-z
y,x,-z
y,x,z
x-y,-y,z
-x,-x+y,z
loop_
_atom_site_type_symbol
_atom_site_label
_atom_site_fract_x
_atom_site_fract_y
_atom_site_fract_z
Si Si1 0.185727 0.259988 0.167260
Si Si2 0.145743 0.408964 0.331062
Si Si3 0.847339 0.589011 0.831763
Si Si4 0.927974 0.524186 0.830292
Si Si5 0.076799 0.471810 0.835281
Si Si6 0.184502 0.925769 0.668226
O O1 0.219474 0.219474 0.221920
O O2 0.235154 0.335721 0.199952
O O3 0.117916 0.234289 0.250896
O O4 0.168847 0.248211 0.000000
O O5 0.156663 0.420390 0.500000
O O6 0.215286 0.434048 0.256048
O O7 0.115052 0.450811 0.272203
O O8 0.097409 0.333391 0.292182
O O9 0.877818 0.545919 0.771489
O O10 0.829925 0.577133 0.000000
O O11 0.902534 0.448620 0.794184
O O12 0.000000 0.569754 0.762314
O O13 0.934384 0.534903 0.000000
O O14 0.000000 0.425447 0.812999
O O15 0.095842 0.467509 0.000000
O O16 0.169703 0.918834 0.500000
O O17 0.214867 0.000000 0.720677
#
# Coordination Sequence:
#
# PCOD8327567 Si02
#       6
#    12  12  12  12  12  12
#     4   9  17  28  44  68  93 114 139 174 217 262
#     4  10  19  30  44  64  92 122 149 180 220 262
#     4   9  16  28  47  68  90 117 147 178 214 259
#     4   8  14  26  46  70  92 114 142 179 221 262
#     4   9  17  29  46  68  91 115 147 185 222 263
#     4   9  18  31  45  62  86 117 150 180 212 254
#
# _framework density 15.97129
#
# number of rings (size 3 to 8) (size 9 to 14) (size 15 to 20)
#    0.000    3.000    0.000    2.500    0.000    4.333 
#    0.000    0.833    0.000    3.500    0.000    2.333 
#    0.000    0.000    0.000    0.000    0.000    0.000 
#
# Total GULP energy -892726.548052 kJ/mol
# GULP energy per Si atom -12398.979834 kJ/mol
# Density = 1.593494 g / cm^3
# Si number density = 15.971290 Si / 1000 Ang^3
#
#
#
# Elastic Constant Matrix: (Units=GPa)
#
#
# Indices 1 2 3 4 5 6 
#
# 1 112.5907 60.5674 44.1356 0.0000 0.0000 0.0000
# 2 60.5674 112.5907 44.1356 0.0000 0.0000 0.0000
# 3 44.1356 44.1356 50.2091 0.0000 0.0000 0.0000
# 4 0.0000 0.0000 0.0000 18.7897 0.0000 0.0000
# 5 0.0000 0.0000 0.0000 0.0000 18.7897 0.0000
# 6 0.0000 0.0000 0.0000 0.0000 0.0000 26.0117
#
#
#
# Elastic Compliance Matrix: (Units=1/GPa)
#
#
# Indices 1 2 3 4 5 6 
#
# 1 0.014843 -0.004379 -0.009198 0.000000 0.000000 0.000000
# 2 -0.004379 0.014843 -0.009198 0.000000 0.000000 0.000000
# 3 -0.009198 -0.009198 0.036088 0.000000 0.000000 0.000000
# 4 0.000000 0.000000 0.000000 0.053221 0.000000 0.000000
# 5 0.000000 0.000000 0.000000 0.000000 0.053221 0.000000
# 6 0.000000 0.000000 0.000000 0.000000 0.000000 0.038444
#
#
# Mechanical properties :
#
#
# Convention : Reuss Voigt Hill
#
# Bulk Modulus (GPa) = 49.44878 63.67420 56.56149
# Shear Modulus (GPa) = 19.01484 21.15500 20.08492
#
# Velocity S-wave (km/s) = 3.45420 3.64340 3.55006
# Velocity P-wave (km/s) = 6.85105 7.59300 7.23155
#
# Compressibility (1/GPa) = 0.02022295
#
# Stress axis : x y z
#
# Youngs Moduli (GPa) = 67.37119 67.37119 27.70995
#
# Poissons Ratio (x) = 0.29502 0.25489
# Poissons Ratio (y) = 0.29502 0.25489
# Poissons Ratio (z) = 0.61970 0.61970
#
# Static dielectric constant tensor:
#      x y z
#    x 3.076310 0.000000 0.000000 
#    y 0.000000 3.076310 0.000000 
#    z 0.000000 0.000000 2.850320 
# 
# 
# High freq. dielectric constant tensor:
#      x y z
#    x 1.606010 0.000000 0.000000 
#    y 0.000000 1.606010 0.000000 
#    z 0.000000 0.000000 1.597270 
# 
# From -- ./inp_files/1215.got.cif
#   From: 2010.03.12/outbox.cif.g09.slc.cpg/sg189_1_cif.got.tgz:1215.got - 2010.04.01 12:03:36.
