data_PCOD8327537
_publ_section_title
;
Structure prediction by ZEFSAII (Michael W. Deem and Ramdas Pophale) SiO2 
 PCOD8327537
Probable space group: P -6 2 M
;
_chemical_formula_sum "Si O2"
_cell_formula_units_Z 60
_cell_length_a 17.692151
_cell_length_b 17.692151
_cell_length_c 12.032184
_cell_angle_alpha 90.000000
_cell_angle_beta 90.000000
_cell_angle_gamma 120.000000
_cell_volume 3261.642602
_symmetry_space_group_name_H-M "P -6 2 M"
_symmetry_group_IT_number 189
_symmetry_cell_setting 'hexagonal'
loop_
_space_group_symop_operation_xyz
x,y,z
-x+y,-x,-z
-y,x-y,z
x,y,-z
-x+y,-x,z
-y,x-y,-z
x-y,-y,-z
-x,-x+y,-z
y,x,-z
y,x,z
x-y,-y,z
-x,-x+y,z
loop_
_atom_site_type_symbol
_atom_site_label
_atom_site_fract_x
_atom_site_fract_y
_atom_site_fract_z
Si Si1 0.528486 0.801999 0.000000
Si Si2 0.204203 0.101561 0.871561
Si Si3 0.368706 0.471837 0.626700
Si Si4 0.861599 0.396379 0.000000
Si Si5 0.611322 0.515393 0.762302
Si Si6 0.182528 0.792610 0.777647
O O1 0.582456 0.848741 0.889241
O O2 0.512326 0.706212 0.000000
O O3 0.437063 0.798862 0.000000
O O4 0.150234 0.150234 0.847591
O O5 0.287058 0.138838 0.789103
O O6 0.142176 0.000000 0.844010
O O7 0.235653 0.113797 0.000000
O O8 0.359831 0.494151 0.500000
O O9 0.417249 0.417249 0.637888
O O10 0.425309 0.563715 0.691819
O O11 0.271921 0.411647 0.674594
O O12 0.918991 0.424375 0.888816
O O13 0.584558 0.584558 0.715099
O O14 0.714371 0.556304 0.755710
#
# Coordination Sequence:
#
# PCOD8327537 Si02
#       6
#     6  12  12   6  12  12
#     4  10  19  30  50  79 111 144 185 231 272 323
#     4  10  20  34  54  83 120 156 189 230 286 351
#     4  10  22  40  58  78 108 146 190 237 279 324
#     4  10  18  32  50  77 110 146 180 219 276 333
#     4  10  21  35  55  80 111 146 182 226 277 331
#     4  11  20  36  56  84 112 147 190 235 277 334
#
# _framework density 18.395638999999999
#
# number of rings (size 3 to 8) (size 9 to 14) (size 15 to 20)
#    0.000    1.800    3.000    1.900    0.000    1.600 
#    1.200    0.000    0.000    1.800    0.000    0.000 
#    0.000    1.600    0.000    0.000    0.000    0.000 
#
# Total GULP energy -743893.100005 kJ/mol
# GULP energy per Si atom -12398.218333 kJ/mol
# Density = 1.835377 g / cm^3
# Si number density = 18.395639 Si / 1000 Ang^3
#
#
#
# Elastic Constant Matrix: (Units=GPa)
#
#
# Indices 1 2 3 4 5 6 
#
# 1 97.3363 39.3373 46.9553 0.0000 0.0000 0.0000
# 2 39.3373 97.3363 46.9553 0.0000 0.0000 0.0000
# 3 46.9553 46.9553 107.2030 0.0000 0.0000 0.0000
# 4 0.0000 0.0000 0.0000 22.9657 0.0000 0.0000
# 5 0.0000 0.0000 0.0000 0.0000 22.9657 0.0000
# 6 0.0000 0.0000 0.0000 0.0000 0.0000 28.9995
#
#
#
# Elastic Compliance Matrix: (Units=1/GPa)
#
#
# Indices 1 2 3 4 5 6 
#
# 1 0.013854 -0.003387 -0.004584 0.000000 0.000000 0.000000
# 2 -0.003387 0.013854 -0.004584 0.000000 0.000000 0.000000
# 3 -0.004584 -0.004584 0.013344 0.000000 0.000000 0.000000
# 4 0.000000 0.000000 0.000000 0.043543 0.000000 0.000000
# 5 0.000000 0.000000 0.000000 0.000000 0.043543 0.000000
# 6 0.000000 0.000000 0.000000 0.000000 0.000000 0.034483
#
#
# Mechanical properties :
#
#
# Convention : Reuss Voigt Hill
#
# Bulk Modulus (GPa) = 62.73627 63.15239 62.94433
# Shear Modulus (GPa) = 25.90026 26.22804 26.06415
#
# Velocity S-wave (km/s) = 3.75635 3.78004 3.76821
# Velocity P-wave (km/s) = 7.27952 7.31138 7.29547
#
# Compressibility (1/GPa) = 0.01593974
#
# Stress axis : x y z
#
# Youngs Moduli (GPa) = 72.18015 72.18015 74.93929
#
# Poissons Ratio (x) = 0.24451 0.34356
# Poissons Ratio (y) = 0.24451 0.34356
# Poissons Ratio (z) = 0.33091 0.33091
#
# Static dielectric constant tensor:
#      x y z
#    x 3.268700 0.000000 0.000000 
#    y 0.000000 3.268700 0.000000 
#    z 0.000000 0.000000 3.470830 
# 
# 
# High freq. dielectric constant tensor:
#      x y z
#    x 1.714710 0.000000 0.000000 
#    y 0.000000 1.714710 0.000000 
#    z 0.000000 0.000000 1.692930 
# 
# From -- ./inp_files/1935.got.cif
#   From: 2010.03.12/outbox.cif.g09.slc.cpg/sg189_1_cif.got.tgz:1935.got - 2010.04.01 12:03:36.
