data_PCOD8327668
_publ_section_title
;
Structure prediction by ZEFSAII (Michael W. Deem and Ramdas Pophale) SiO2 
 PCOD8327668
Probable space group: P -6 2 M
;
_chemical_formula_sum "Si O2"
_cell_formula_units_Z 60
_cell_length_a 14.296966
_cell_length_b 14.296966
_cell_length_c 15.801942
_cell_angle_alpha 90.000000
_cell_angle_beta 90.000000
_cell_angle_gamma 120.000000
_cell_volume 2797.234422
_symmetry_space_group_name_H-M "P -6 2 M"
_symmetry_group_IT_number 189
_symmetry_cell_setting 'hexagonal'
loop_
_space_group_symop_operation_xyz
x,y,z
-x+y,-x,-z
-y,x-y,z
x,y,-z
-x+y,-x,z
-y,x-y,-z
x-y,-y,-z
-x,-x+y,-z
y,x,-z
y,x,z
x-y,-y,z
-x,-x+y,z
loop_
_atom_site_type_symbol
_atom_site_label
_atom_site_fract_x
_atom_site_fract_y
_atom_site_fract_z
Si Si1 0.122924 0.875488 0.645705
Si Si2 0.352951 0.232421 0.808148
Si Si3 0.555509 0.429219 0.251492
Si Si4 0.546013 0.673541 0.093949
Si Si5 0.324905 0.871720 0.592807
O O1 0.128226 0.860928 0.746806
O O2 0.198629 0.835953 0.601421
O O3 0.000000 0.801806 0.612378
O O4 0.162212 0.000000 0.626095
O O5 0.305808 0.305808 0.845171
O O6 0.459198 0.306243 0.750428
O O7 0.379146 0.179938 0.887289
O O8 0.511526 0.511526 0.255322
O O9 0.622578 0.451349 0.163939
O O10 0.632928 0.454296 0.333960
O O11 0.621380 0.621380 0.098895
O O12 0.495299 0.658213 0.000000
O O13 0.341693 0.833692 0.500000
O O14 0.392161 0.000000 0.600186
#
# Coordination Sequence:
#
# PCOD8327668 Si02
#       5
#    12  12  12  12  12
#     4  10  19  33  55  86 123 161 201 243 292 355
#     4  10  20  34  56  83 113 152 197 244 299 358
#     4   9  18  35  55  76 106 142 187 243 293 344
#     4  10  20  36  59  84 113 152 194 238 298 367
#     4   9  17  32  56  80 106 148 195 238 290 347
#
# _framework density 21.449757000000002
#
# number of rings (size 3 to 8) (size 9 to 14) (size 15 to 20)
#    0.000    2.400    2.000    0.800    0.000    1.600 
#    1.200    3.000    0.000    5.200    0.000    0.000 
#    0.000    0.000    0.000    0.000    0.000    0.000 
#
# Total GULP energy -743609.244437 kJ/mol
# GULP energy per Si atom -12393.487407 kJ/mol
# Density = 2.140094 g / cm^3
# Si number density = 21.449757 Si / 1000 Ang^3
#
#
#
# Elastic Constant Matrix: (Units=GPa)
#
#
# Indices 1 2 3 4 5 6 
#
# 1 43.3832 0.2209 19.8828 0.0000 0.0000 0.0000
# 2 0.2209 43.3832 19.8828 0.0000 0.0000 0.0000
# 3 19.8828 19.8828 145.1085 0.0000 0.0000 0.0000
# 4 0.0000 0.0000 0.0000 16.2310 0.0000 0.0000
# 5 0.0000 0.0000 0.0000 0.0000 16.2310 0.0000
# 6 0.0000 0.0000 0.0000 0.0000 0.0000 21.5812
#
#
#
# Elastic Compliance Matrix: (Units=1/GPa)
#
#
# Indices 1 2 3 4 5 6 
#
# 1 0.024688 0.001520 -0.003591 0.000000 0.000000 0.000000
# 2 0.001520 0.024688 -0.003591 0.000000 0.000000 0.000000
# 3 -0.003591 -0.003591 0.007876 0.000000 0.000000 0.000000
# 4 0.000000 0.000000 0.000000 0.061611 0.000000 0.000000
# 5 0.000000 0.000000 0.000000 0.000000 0.061611 0.000000
# 6 0.000000 0.000000 0.000000 0.000000 0.000000 0.046337
#
#
# Mechanical properties :
#
#
# Convention : Reuss Voigt Hill
#
# Bulk Modulus (GPa) = 21.77309 34.64976 28.21143
# Shear Modulus (GPa) = 19.72823 23.60119 21.66471
#
# Velocity S-wave (km/s) = 3.03601 3.32068 3.18153
# Velocity P-wave (km/s) = 4.73947 5.55801 5.16498
#
# Compressibility (1/GPa) = 0.04592825
#
# Stress axis : x y z
#
# Youngs Moduli (GPa) = 40.50474 40.50474 126.97601
#
# Poissons Ratio (x) = -0.06157 0.45598
# Poissons Ratio (y) = -0.06157 0.45598
# Poissons Ratio (z) = 0.14546 0.14546
#
# Static dielectric constant tensor:
#      x y z
#    x 3.730250 0.000000 0.000000 
#    y 0.000000 3.730250 0.000000 
#    z 0.000000 0.000000 3.932040 
# 
# 
# High freq. dielectric constant tensor:
#      x y z
#    x 1.828330 0.000000 0.000000 
#    y 0.000000 1.828330 0.000000 
#    z 0.000000 0.000000 1.830150 
# 
# From -- ./inp_files/2520.got.cif
#   From: 2010.03.12/outbox.cif.g09.slc.cpg/sg189_2_cif.got.tgz:2520.got - 2010.04.01 12:03:36.
