data_PCOD8327891
_publ_section_title
;
Structure prediction by ZEFSAII (Michael W. Deem and Ramdas Pophale) SiO2 
 PCOD8327891
Probable space group: P -6 2 M
;
_chemical_formula_sum "Si O2"
_cell_formula_units_Z 72
_cell_length_a 23.628314
_cell_length_b 23.628314
_cell_length_c 8.826497
_cell_angle_alpha 90.000000
_cell_angle_beta 90.000000
_cell_angle_gamma 120.000000
_cell_volume 4267.607571
_symmetry_space_group_name_H-M "P -6 2 M"
_symmetry_group_IT_number 189
_symmetry_cell_setting 'hexagonal'
loop_
_space_group_symop_operation_xyz
x,y,z
-x+y,-x,-z
-y,x-y,z
x,y,-z
-x+y,-x,z
-y,x-y,-z
x-y,-y,-z
-x,-x+y,-z
y,x,-z
y,x,z
x-y,-y,z
-x,-x+y,z
loop_
_atom_site_type_symbol
_atom_site_label
_atom_site_fract_x
_atom_site_fract_y
_atom_site_fract_z
Si Si1 0.482543 0.275997 0.825708
Si Si2 0.851389 0.338870 0.825688
Si Si3 0.414388 0.414388 0.179296
Si Si4 0.194488 0.334828 0.180159
Si Si5 0.874386 0.467656 0.323192
Si Si6 0.000000 0.713826 0.819619
Si Si7 0.927533 0.265508 0.819971
O O1 0.506188 0.223610 0.805980
O O2 0.408219 0.245455 0.766719
O O3 0.528878 0.339320 0.726172
O O4 0.487632 0.297734 0.000000
O O5 0.864188 0.397309 0.716365
O O6 0.899664 0.312713 0.773139
O O7 0.865262 0.362435 0.000000
O O8 0.478244 0.414824 0.235432
O O9 0.350243 0.350243 0.241826
O O10 0.414659 0.414659 0.000000
O O11 0.221092 0.286987 0.238454
O O12 0.121679 0.313340 0.242265
O O13 0.191605 0.335269 0.000000
O O14 0.886380 0.479805 0.500000
O O15 0.000000 0.712874 0.000000
O O16 0.000000 0.292857 0.750138
O O17 0.930499 0.263608 0.000000
#
# Coordination Sequence:
#
# PCOD8327891 Si02
#       7
#    12  12   6  12  12   6  12
#     4   9  17  34  54  69  87 120 166 207 243 293
#     4   9  19  34  53  72  90 123 171 208 241 297
#     4  11  21  35  55  71  93 131 169 204 247 296
#     4   8  13  23  42  68  92 113 150 196 237 281
#     4  12  24  35  49  74 105 128 156 204 265 317
#     4   9  14  23  45  71  91 117 151 196 241 276
#     4   8  14  25  43  68  94 118 150 198 245 279
#
# _framework density 16.871279999999999
#
# number of rings (size 3 to 8) (size 9 to 14) (size 15 to 20)
#    0.000    2.667    1.667    3.750    1.167    0.667 
#    1.000    0.000    0.000    0.000    0.000    0.000 
#    0.833    0.000    2.500    0.000    0.000    0.000 
#
# Total GULP energy -892379.105305 kJ/mol
# GULP energy per Si atom -12394.154240 kJ/mol
# Density = 1.683288 g / cm^3
# Si number density = 16.871280 Si / 1000 Ang^3
#
#
#
# Elastic Constant Matrix: (Units=GPa)
#
#
# Indices 1 2 3 4 5 6 
#
# 1 113.5908 68.1874 21.8166 0.0000 0.0000 0.0000
# 2 68.1874 113.5908 21.8166 0.0000 0.0000 0.0000
# 3 21.8166 21.8166 42.8084 0.0000 0.0000 0.0000
# 4 0.0000 0.0000 0.0000 5.9576 0.0000 0.0000
# 5 0.0000 0.0000 0.0000 0.0000 5.9576 0.0000
# 6 0.0000 0.0000 0.0000 0.0000 0.0000 22.7017
#
#
#
# Elastic Compliance Matrix: (Units=1/GPa)
#
#
# Indices 1 2 3 4 5 6 
#
# 1 0.014146 -0.007878 -0.003194 0.000000 0.000000 0.000000
# 2 -0.007878 0.014146 -0.003194 0.000000 0.000000 0.000000
# 3 -0.003194 -0.003194 0.026616 0.000000 0.000000 0.000000
# 4 0.000000 0.000000 0.000000 0.167852 0.000000 0.000000
# 5 0.000000 0.000000 0.000000 0.000000 0.167852 0.000000
# 6 0.000000 0.000000 0.000000 0.000000 0.000000 0.044050
#
#
# Mechanical properties :
#
#
# Convention : Reuss Voigt Hill
#
# Bulk Modulus (GPa) = 37.91573 54.84793 46.38183
# Shear Modulus (GPa) = 10.59350 17.46801 14.03076
#
# Velocity S-wave (km/s) = 2.50851 3.22121 2.88694
# Velocity P-wave (km/s) = 5.55990 6.81286 6.21802
#
# Compressibility (1/GPa) = 0.02637427
#
# Stress axis : x y z
#
# Youngs Moduli (GPa) = 70.68943 70.68943 37.57165
#
# Poissons Ratio (x) = 0.55692 0.12002
# Poissons Ratio (y) = 0.55692 0.12002
# Poissons Ratio (z) = 0.22581 0.22581
#
# Static dielectric constant tensor:
#      x y z
#    x 3.380280 0.000000 0.000000 
#    y 0.000000 3.380280 0.000000 
#    z 0.000000 0.000000 2.724430 
# 
# 
# High freq. dielectric constant tensor:
#      x y z
#    x 1.643650 0.000000 0.000000 
#    y 0.000000 1.643650 0.000000 
#    z 0.000000 0.000000 1.607260 
# 
# From -- ./inp_files/1311.got.cif
#   From: 2010.03.12/outbox.cif.g09.slc.cpg/sg189_1_cif.got.tgz:1311.got - 2010.04.01 12:03:36.
