data_PCOD8327474
_publ_section_title
;
Structure prediction by ZEFSAII (Michael W. Deem and Ramdas Pophale) SiO2 
 PCOD8327474
Probable space group: P -6 C 2
;
_chemical_formula_sum "Si O2"
_cell_formula_units_Z 36
_cell_length_a 8.597959
_cell_length_b 8.597959
_cell_length_c 26.515180
_cell_angle_alpha 90.000000
_cell_angle_beta 90.000000
_cell_angle_gamma 120.000000
_cell_volume 1697.524109
_symmetry_space_group_name_H-M "P -6 C 2"
_symmetry_group_IT_number 188
_symmetry_cell_setting 'hexagonal'
loop_
_space_group_symop_operation_xyz
x,y,z
-x+y,-x,1/2-z
-y,x-y,z
x,y,1/2-z
-x+y,-x,z
-y,x-y,1/2-z
-y,-x,-z
-x+y,y,-z
x,x-y,-z
-x+y,y,1/2+z
x,x-y,1/2+z
-y,-x,1/2+z
loop_
_atom_site_type_symbol
_atom_site_label
_atom_site_fract_x
_atom_site_fract_y
_atom_site_fract_z
Si Si1 0.024659 0.328825 0.344649
Si Si2 0.237547 0.437193 0.554189
Si Si3 0.984372 0.646539 0.307061
O O1 0.095977 0.304111 0.399538
O O2 0.150881 0.302532 0.304750
O O3 0.046893 0.524105 0.336610
O O4 0.818947 0.181259 0.337109
O O5 0.451678 0.582672 0.557391
O O6 0.167313 0.334625 0.500000
O O7 0.924998 0.577026 0.250000
#
# Coordination Sequence:
#
# PCOD8327474 Si02
#       3
#    12  12  12
#     4  12  23  42  63  94 130 176 220 274 332 391
#     4   8  15  35  68  94 120 160 203 263 329 389
#     4  12  24  39  61  91 130 174 224 270 327 394
#
# _framework density 21.207355
#
# number of rings (size 3 to 8) (size 9 to 14) (size 15 to 20)
#    0.667    0.667    3.333    5.000    0.000    0.000 
#    0.000    1.667    0.000    0.000    0.000    0.000 
#    0.000    0.000    0.000    0.000    0.000    0.000 
#
# Total GULP energy -445999.395545 kJ/mol
# GULP energy per Si atom -12388.872098 kJ/mol
# Density = 2.115909 g / cm^3
# Si number density = 21.207355 Si / 1000 Ang^3
#
#
#
# Elastic Constant Matrix: (Units=GPa)
#
#
# Indices 1 2 3 4 5 6 
#
# 1 74.7170 10.2284 30.7116 0.0000 0.0000 0.0000
# 2 10.2284 74.7170 30.7116 0.0000 0.0000 0.0000
# 3 30.7116 30.7116 180.0192 0.0000 0.0000 0.0000
# 4 0.0000 0.0000 0.0000 26.8759 0.0000 0.0000
# 5 0.0000 0.0000 0.0000 0.0000 26.8759 0.0000
# 6 0.0000 0.0000 0.0000 0.0000 0.0000 32.2443
#
#
#
# Elastic Compliance Matrix: (Units=1/GPa)
#
#
# Indices 1 2 3 4 5 6 
#
# 1 0.014468 -0.001039 -0.002291 0.000000 0.000000 0.000000
# 2 -0.001039 0.014468 -0.002291 0.000000 0.000000 0.000000
# 3 -0.002291 -0.002291 0.006337 0.000000 0.000000 0.000000
# 4 0.000000 0.000000 0.000000 0.037208 0.000000 0.000000
# 5 0.000000 0.000000 0.000000 0.000000 0.037208 0.000000
# 6 0.000000 0.000000 0.000000 0.000000 0.000000 0.031013
#
#
# Mechanical properties :
#
#
# Convention : Reuss Voigt Hill
#
# Bulk Modulus (GPa) = 41.61394 52.52849 47.07121
# Shear Modulus (GPa) = 31.25915 34.38602 32.82259
#
# Velocity S-wave (km/s) = 3.84341 4.03105 3.93835
# Velocity P-wave (km/s) = 6.27381 6.81826 6.55169
#
# Compressibility (1/GPa) = 0.02403041
#
# Stress axis : x y z
#
# Youngs Moduli (GPa) = 69.11936 69.11936 157.81201
#
# Poissons Ratio (x) = 0.07181 0.36154
# Poissons Ratio (y) = 0.07181 0.36154
# Poissons Ratio (z) = 0.15835 0.15835
#
# Static dielectric constant tensor:
#      x y z
#    x 3.479000 0.000000 0.000000 
#    y 0.000000 3.479000 0.000000 
#    z 0.000000 0.000000 3.893870 
# 
# 
# High freq. dielectric constant tensor:
#      x y z
#    x 1.803920 0.000000 0.000000 
#    y 0.000000 1.803920 0.000000 
#    z 0.000000 0.000000 1.845550 
# 
# From -- ./inp_files/4166.got.cif
#   From: 2010.03.12/outbox.cif.g09.slc.cpg/sg188_3_cif.got.tgz:4166.got - 2010.04.01 12:01:06.
