data_PCOD8327095
_publ_section_title
;
Structure prediction by ZEFSAII (Michael W. Deem and Ramdas Pophale) SiO2 
 PCOD8327095
Probable space group: P -6 M 2
;
_chemical_formula_sum "Si O2"
_cell_formula_units_Z 54
_cell_length_a 12.526374
_cell_length_b 12.526374
_cell_length_c 23.590841
_cell_angle_alpha 90.000000
_cell_angle_beta 90.000000
_cell_angle_gamma 120.000000
_cell_volume 3205.714221
_symmetry_space_group_name_H-M "P -6 M 2"
_symmetry_group_IT_number 187
_symmetry_cell_setting 'hexagonal'
loop_
_space_group_symop_operation_xyz
x,y,z
-x+y,-x,-z
-y,x-y,z
x,y,-z
-x+y,-x,z
-y,x-y,-z
-y,-x,-z
-x+y,y,-z
x,x-y,-z
-x+y,y,z
x,x-y,z
-y,-x,z
loop_
_atom_site_type_symbol
_atom_site_label
_atom_site_fract_x
_atom_site_fract_y
_atom_site_fract_z
Si Si1 0.751807 0.000885 0.786510
Si Si2 0.416686 0.334673 0.682691
Si Si3 0.082996 0.417684 0.000000
Si Si4 0.664518 0.087365 0.440079
Si Si5 0.666966 0.083721 0.893318
O O1 0.741559 0.870780 0.796139
O O2 0.688595 0.999373 0.727022
O O3 0.677315 0.022472 0.835779
O O4 0.894639 0.105361 0.787023
O O5 0.445997 0.222999 0.683826
O O6 0.541157 0.458844 0.699225
O O7 0.365621 0.346178 0.620023
O O8 0.005427 0.348394 0.944807
O O9 0.204765 0.409530 0.000000
O O10 0.119542 0.559771 0.000000
O O11 0.640928 0.009958 0.500000
O O12 0.568283 0.136565 0.436710
O O13 0.799279 0.200722 0.444388
O O14 0.553194 0.106387 0.887813
O O15 0.786349 0.213652 0.905356
#
# Coordination Sequence:
#
# PCOD8327095 Si02
#       5
#    12  12   6  12  12
#     4  10  20  33  48  65  88 121 159 196 231 270
#     4   9  16  26  43  67  93 119 146 182 229 279
#     4  10  20  34  52  74 102 136 170 198 222 254
#     4   8  12  18  31  55  87 118 144 172 214 271
#     4  10  20  34  54  78 102 126 152 189 237 285
#
# _framework density 16.844920999999999
#
# number of rings (size 3 to 8) (size 9 to 14) (size 15 to 20)
#    0.000    2.667    0.000    2.667    0.000    2.667 
#    0.000    3.333    0.000    8.667    0.000    0.000 
#    0.000    1.778    0.000    0.000    0.000    0.000 
#
# Total GULP energy -669013.300421 kJ/mol
# GULP energy per Si atom -12389.135193 kJ/mol
# Density = 1.680658 g / cm^3
# Si number density = 16.844921 Si / 1000 Ang^3
#
#
#
# Elastic Constant Matrix: (Units=GPa)
#
#
# Indices 1 2 3 4 5 6 
#
# 1 75.8689 47.2917 53.3825 0.0000 0.0006 0.0000
# 2 47.2917 75.8689 53.3825 0.0000 -0.0006 0.0000
# 3 53.3825 53.3825 152.9729 0.0000 0.0000 0.0000
# 4 0.0000 0.0000 0.0000 8.9295 0.0000 -0.0006
# 5 0.0006 -0.0006 0.0000 0.0000 8.9295 0.0000
# 6 0.0000 0.0000 0.0000 -0.0006 0.0000 14.2886
#
#
#
# Elastic Compliance Matrix: (Units=1/GPa)
#
#
# Indices 1 2 3 4 5 6 
#
# 1 0.023317 -0.011676 -0.004062 0.000000 -0.000002 0.000000
# 2 -0.011676 0.023317 -0.004062 0.000000 0.000002 0.000000
# 3 -0.004062 -0.004062 0.009372 0.000000 0.000000 0.000000
# 4 0.000000 0.000000 0.000000 0.111989 0.000000 0.000004
# 5 -0.000002 0.000002 0.000000 0.000000 0.111989 0.000000
# 6 0.000000 0.000000 0.000000 0.000004 0.000000 0.069986
#
#
# Mechanical properties :
#
#
# Convention : Reuss Voigt Hill
#
# Bulk Modulus (GPa) = 60.95682 68.09158 64.52420
# Shear Modulus (GPa) = 12.65697 16.47310 14.56503
#
# Velocity S-wave (km/s) = 2.74411 3.13057 2.94369
# Velocity P-wave (km/s) = 6.80484 7.31968 7.06695
#
# Compressibility (1/GPa) = 0.01640505
#
# Stress axis : x y z
#
# Youngs Moduli (GPa) = 42.88714 42.88714 106.69684
#
# Poissons Ratio (x) = 0.50075 0.43344
# Poissons Ratio (y) = 0.50075 0.43344
# Poissons Ratio (z) = 0.17422 0.17422
#
# Static dielectric constant tensor:
#      x y z
#    x 2.862090 0.000000 0.000000 
#    y 0.000000 2.862090 0.000000 
#    z 0.000000 0.000000 3.856690 
# 
# 
# High freq. dielectric constant tensor:
#      x y z
#    x 1.620620 0.000000 0.000000 
#    y 0.000000 1.620620 0.000000 
#    z 0.000000 0.000000 1.683800 
# 
# From -- ./inp_files/3842.got.cif
#   From: 2010.03.12/outbox.cif.g09.slc.cpg/sg187_2_cif.got.tgz:3842.got - 2010.04.01 11:58:23.
