data_PCOD8327652
_publ_section_title
;
Structure prediction by ZEFSAII (Michael W. Deem and Ramdas Pophale) SiO2 
 PCOD8327652
Probable space group: P -6 2 M
;
_chemical_formula_sum "Si O2"
_cell_formula_units_Z 72
_cell_length_a 23.752187
_cell_length_b 23.752187
_cell_length_c 8.776369
_cell_angle_alpha 90.000000
_cell_angle_beta 90.000000
_cell_angle_gamma 120.000000
_cell_volume 4287.979634
_symmetry_space_group_name_H-M "P -6 2 M"
_symmetry_group_IT_number 189
_symmetry_cell_setting 'hexagonal'
loop_
_space_group_symop_operation_xyz
x,y,z
-x+y,-x,-z
-y,x-y,z
x,y,-z
-x+y,-x,z
-y,x-y,-z
x-y,-y,-z
-x,-x+y,-z
y,x,-z
y,x,z
x-y,-y,z
-x,-x+y,z
loop_
_atom_site_type_symbol
_atom_site_label
_atom_site_fract_x
_atom_site_fract_y
_atom_site_fract_z
Si Si1 0.928336 0.264802 0.679830
Si Si2 0.598747 0.131069 0.320326
Si Si3 0.516462 0.671742 0.321554
Si Si4 0.409842 0.409842 0.680960
Si Si5 0.663552 0.859419 0.680961
Si Si6 0.000000 0.716533 0.319468
Si Si7 0.792252 0.524223 0.820718
O O1 0.934756 0.263159 0.500000
O O2 0.901710 0.313108 0.725074
O O3 0.877257 0.191530 0.739499
O O4 0.000000 0.291422 0.753872
O O5 0.611444 0.139403 0.500000
O O6 0.534171 0.132664 0.275162
O O7 0.588821 0.062988 0.258932
O O8 0.660307 0.188952 0.235582
O O9 0.514061 0.684858 0.500000
O O10 0.498047 0.718419 0.229680
O O11 0.408982 0.408982 0.500000
O O12 0.346623 0.346623 0.747789
O O13 0.655889 0.854580 0.500000
O O14 0.593493 0.840913 0.745418
O O15 0.715330 0.933637 0.733416
O O16 0.000000 0.712609 0.500000
O O17 0.798403 0.531967 0.000000
#
# Coordination Sequence:
#
# PCOD8327652 Si02
#       7
#    12  12  12   6  12   6  12
#     4   8  14  25  44  71  96 115 144 191 234 264
#     4  10  19  33  52  72  93 119 154 195 237 282
#     4   9  19  33  51  69  87 116 156 196 233 278
#     4   9  16  26  48  76  98 116 144 191 240 279
#     4   9  16  29  48  69  93 121 154 188 226 269
#     4   9  14  24  46  72  96 120 150 191 230 267
#     4  11  21  33  48  65  91 122 152 190 238 283
#
# _framework density 16.791124
#
# number of rings (size 3 to 8) (size 9 to 14) (size 15 to 20)
#    0.000    2.667    1.667    2.500    1.167    0.667 
#    1.000    1.667    0.000    8.000    0.000    0.000 
#    0.833    0.000    2.500    0.000    0.000    0.000 
#
# Total GULP energy -892400.968510 kJ/mol
# GULP energy per Si atom -12394.457896 kJ/mol
# Density = 1.675291 g / cm^3
# Si number density = 16.791124 Si / 1000 Ang^3
#
#
#
# Elastic Constant Matrix: (Units=GPa)
#
#
# Indices 1 2 3 4 5 6 
#
# 1 128.2903 79.3206 18.1773 0.0000 0.0000 0.0000
# 2 79.3206 128.2903 18.1773 0.0000 0.0000 0.0000
# 3 18.1773 18.1773 28.8672 0.0000 0.0000 0.0000
# 4 0.0000 0.0000 0.0000 4.3894 0.0000 0.0000
# 5 0.0000 0.0000 0.0000 0.0000 4.3894 0.0000
# 6 0.0000 0.0000 0.0000 0.0000 0.0000 24.4849
#
#
#
# Elastic Compliance Matrix: (Units=1/GPa)
#
#
# Indices 1 2 3 4 5 6 
#
# 1 0.012917 -0.007504 -0.003409 0.000000 0.000000 0.000000
# 2 -0.007504 0.012917 -0.003409 0.000000 0.000000 0.000000
# 3 -0.003409 -0.003409 0.038934 0.000000 0.000000 0.000000
# 4 0.000000 0.000000 0.000000 0.227822 0.000000 0.000000
# 5 0.000000 0.000000 0.000000 0.000000 0.227822 0.000000
# 6 0.000000 0.000000 0.000000 0.000000 0.000000 0.040842
#
#
# Mechanical properties :
#
#
# Convention : Reuss Voigt Hill
#
# Bulk Modulus (GPa) = 27.68082 57.42205 42.55143
# Shear Modulus (GPa) = 8.30648 17.97090 13.13869
#
# Velocity S-wave (km/s) = 2.22659 3.27503 2.80032
# Velocity P-wave (km/s) = 4.80951 6.96945 5.98768
#
# Compressibility (1/GPa) = 0.03612610
#
# Stress axis : x y z
#
# Youngs Moduli (GPa) = 77.41612 77.41612 25.68422
#
# Poissons Ratio (x) = 0.58090 0.08755
# Poissons Ratio (y) = 0.58090 0.08755
# Poissons Ratio (z) = 0.26390 0.26390
#
# Static dielectric constant tensor:
#      x y z
#    x 3.373210 0.000000 0.000000 
#    y 0.000000 3.373210 0.000000 
#    z 0.000000 0.000000 2.743850 
# 
# 
# High freq. dielectric constant tensor:
#      x y z
#    x 1.639410 0.000000 0.000000 
#    y 0.000000 1.639410 0.000000 
#    z 0.000000 0.000000 1.608250 
# 
# From -- ./inp_files/1338.got.cif
#   From: 2010.03.12/outbox.cif.g09.slc.cpg/sg189_1_cif.got.tgz:1338.got - 2010.04.01 12:03:36.
