data_PCOD8327124
_publ_section_title
;
Structure prediction by ZEFSAII (Michael W. Deem and Ramdas Pophale) SiO2 
 PCOD8327124
Probable space group: P -6 M 2
;
_chemical_formula_sum "Si O2"
_cell_formula_units_Z 66
_cell_length_a 12.611346
_cell_length_b 12.611346
_cell_length_c 28.293676
_cell_angle_alpha 90.000000
_cell_angle_beta 90.000000
_cell_angle_gamma 120.000000
_cell_volume 3897.112021
_symmetry_space_group_name_H-M "P -6 M 2"
_symmetry_group_IT_number 187
_symmetry_cell_setting 'hexagonal'
loop_
_space_group_symop_operation_xyz
x,y,z
-x+y,-x,-z
-y,x-y,z
x,y,-z
-x+y,-x,z
-y,x-y,-z
-y,-x,-z
-x+y,y,-z
x,x-y,-z
-x+y,y,z
x,x-y,z
-y,-x,z
loop_
_atom_site_type_symbol
_atom_site_label
_atom_site_fract_x
_atom_site_fract_y
_atom_site_fract_z
Si Si1 0.333608 0.910721 0.446075
Si Si2 0.331693 0.904497 0.000000
Si Si3 0.913870 0.334427 0.363010
Si Si4 0.084868 0.419839 0.724771
Si Si5 0.914953 0.334271 0.812444
Si Si6 0.330927 0.417738 0.102406
O O1 0.333783 0.951331 0.500000
O O2 0.435816 0.871631 0.438053
O O3 0.204471 0.795530 0.431977
O O4 0.360866 0.024882 0.413122
O O5 0.310696 0.955661 0.950176
O O6 0.242383 0.757618 0.000000
O O7 0.470318 0.940635 0.000000
O O8 0.873976 0.436988 0.361166
O O9 0.795732 0.204269 0.355694
O O10 0.008942 0.355006 0.321940
O O11 0.204643 0.409285 0.724772
O O12 0.123809 0.561905 0.726086
O O13 0.005621 0.349845 0.770256
O O14 0.879045 0.439523 0.810774
O O15 0.793957 0.206044 0.806456
O O16 0.978468 0.335576 0.861826
O O17 0.210269 0.420538 0.118853
O O18 0.442690 0.557311 0.102011
#
# Coordination Sequence:
#
# PCOD8327124 Si02
#       6
#    12   6  12  12  12  12
#     4   9  17  30  50  75 100 126 158 200 249 294
#     4   8  13  22  39  66  96 122 148 182 232 288
#     4  10  20  33  50  72  99 131 164 196 230 273
#     4  10  20  34  54  78 100 120 146 188 241 290
#     4  10  20  33  49  68  93 126 161 194 227 270
#     4   9  16  27  46  71  97 122 150 190 239 287
#
# _framework density 16.935617000000001
#
# number of rings (size 3 to 8) (size 9 to 14) (size 15 to 20)
#    0.000    2.545    0.000    2.636    0.000    2.545 
#    0.000    5.909    0.000   11.273    0.000    1.273 
#    0.000    0.000    0.000    0.000    0.000    0.000 
#
# Total GULP energy -818175.168609 kJ/mol
# GULP energy per Si atom -12396.593464 kJ/mol
# Density = 1.689707 g / cm^3
# Si number density = 16.935617 Si / 1000 Ang^3
#
#
#
# Elastic Constant Matrix: (Units=GPa)
#
#
# Indices 1 2 3 4 5 6 
#
# 1 101.3670 65.6594 58.6485 0.0000 -0.0007 0.0000
# 2 65.6594 101.3670 58.6485 0.0000 0.0007 0.0000
# 3 58.6485 58.6485 128.6825 0.0000 0.0000 0.0000
# 4 0.0000 0.0000 0.0000 13.7811 0.0000 0.0007
# 5 -0.0007 0.0007 0.0000 0.0000 13.7811 0.0000
# 6 0.0000 0.0000 0.0000 0.0007 0.0000 17.8538
#
#
#
# Elastic Compliance Matrix: (Units=1/GPa)
#
#
# Indices 1 2 3 4 5 6 
#
# 1 0.018405 -0.009600 -0.004013 0.000000 0.000002 0.000000
# 2 -0.009600 0.018405 -0.004013 0.000000 -0.000002 0.000000
# 3 -0.004013 -0.004013 0.011429 0.000000 0.000000 0.000000
# 4 0.000000 0.000000 0.000000 0.072563 0.000000 -0.000003
# 5 0.000002 -0.000002 0.000000 0.000000 0.072563 0.000000
# 6 0.000000 0.000000 0.000000 -0.000003 0.000000 0.056011
#
#
# Mechanical properties :
#
#
# Convention : Reuss Voigt Hill
#
# Bulk Modulus (GPa) = 76.99834 77.48105 77.23970
# Shear Modulus (GPa) = 17.30355 18.98054 18.14204
#
# Velocity S-wave (km/s) = 3.19991 3.35139 3.27653
# Velocity P-wave (km/s) = 7.69523 7.79906 7.74732
#
# Compressibility (1/GPa) = 0.01298729
#
# Stress axis : x y z
#
# Youngs Moduli (GPa) = 54.33212 54.33212 87.49562
#
# Poissons Ratio (x) = 0.52159 0.35113
# Poissons Ratio (y) = 0.52159 0.35113
# Poissons Ratio (z) = 0.21804 0.21804
#
# Static dielectric constant tensor:
#      x y z
#    x 2.911030 0.000000 0.000000 
#    y 0.000000 2.911030 0.000000 
#    z 0.000000 0.000000 3.643550 
# 
# 
# High freq. dielectric constant tensor:
#      x y z
#    x 1.630840 0.000000 0.000000 
#    y 0.000000 1.630840 0.000000 
#    z 0.000000 0.000000 1.679680 
# 
# From -- ./inp_files/4441.got.cif
#   From: 2010.03.12/outbox.cif.g09.slc.cpg/sg187_3_cif.got.tgz:4441.got - 2010.04.01 11:58:23.
