data_PCOD8327276
_publ_section_title
;
Structure prediction by ZEFSAII (Michael W. Deem and Ramdas Pophale) SiO2 
 PCOD8327276
Probable space group: P -6 M 2
;
_chemical_formula_sum "Si O2"
_cell_formula_units_Z 96
_cell_length_a 17.154425
_cell_length_b 17.154425
_cell_length_c 23.294866
_cell_angle_alpha 90.000000
_cell_angle_beta 90.000000
_cell_angle_gamma 120.000000
_cell_volume 5936.673700
_symmetry_space_group_name_H-M "P -6 M 2"
_symmetry_group_IT_number 187
_symmetry_cell_setting 'hexagonal'
loop_
_space_group_symop_operation_xyz
x,y,z
-x+y,-x,-z
-y,x-y,z
x,y,-z
-x+y,-x,z
-y,x-y,-z
-y,-x,-z
-x+y,y,-z
x,x-y,-z
-x+y,y,z
x,x-y,z
-y,-x,z
loop_
_atom_site_type_symbol
_atom_site_label
_atom_site_fract_x
_atom_site_fract_y
_atom_site_fract_z
Si Si1 0.391563 0.429391 0.164193
Si Si2 0.723581 0.631111 0.438309
Si Si3 0.001797 0.179178 0.858602
Si Si4 0.244138 0.308998 0.753523
Si Si5 0.666484 0.156659 0.205059
Si Si6 0.169415 0.999381 0.433377
Si Si7 0.083323 0.347982 0.934660
Si Si8 0.720276 0.620897 0.684630
O O1 0.468293 0.531707 0.176148
O O2 0.315268 0.400311 0.213171
O O3 0.433022 0.362624 0.164938
O O4 0.349647 0.422084 0.101347
O O5 0.669906 0.594118 0.500000
O O6 0.816463 0.632926 0.446842
O O7 0.743643 0.732049 0.425889
O O8 0.675821 0.580318 0.378825
O O9 0.071148 0.142295 0.864864
O O10 0.014463 0.226171 0.797235
O O11 0.018127 0.249167 0.909266
O O12 0.901178 0.098823 0.864383
O O13 0.159624 0.319248 0.732464
O O14 0.292751 0.290290 0.700369
O O15 0.595905 0.191809 0.201350
O O16 0.763801 0.236199 0.184735
O O17 0.668192 0.127784 0.270712
O O18 0.148666 0.998968 0.500000
O O19 0.163102 0.081551 0.403656
O O20 0.094893 0.905108 0.404835
O O21 0.186346 0.372692 0.929621
O O22 0.055377 0.350503 0.000000
O O23 0.826506 0.653012 0.683285
#
# Coordination Sequence:
#
# PCOD8327276 Si02
#       8
#    12  12  12  12  12  12  12  12
#     4   9  17  29  46  66  84 106 138 171 205 251
#     4   8  14  23  33  47  70 101 135 168 200 234
#     4   9  16  26  40  58  82 113 147 179 208 237
#     4   9  17  28  42  60  83 110 137 171 216 254
#     4   9  17  29  46  67  87 105 129 167 215 261
#     4   8  12  17  25  37  55  83 121 162 198 227
#     4   9  18  31  45  63  89 119 147 175 207 238
#     4   9  16  26  41  60  81 107 141 174 201 242
#
# _framework density 16.170670000000001
#
# number of rings (size 3 to 8) (size 9 to 14) (size 15 to 20)
#    0.000    3.250    0.000    2.625    0.000    4.500 
#    0.000    0.000    0.000    3.375    0.000    0.000 
#    0.000    2.000    0.000    0.000    0.000    0.000 
#
# Total GULP energy -1189280.754985 kJ/mol
# GULP energy per Si atom -12388.341198 kJ/mol
# Density = 1.613387 g / cm^3
# Si number density = 16.170670 Si / 1000 Ang^3
#
#
#
# Elastic Constant Matrix: (Units=GPa)
#
#
# Indices 1 2 3 4 5 6 
#
# 1 50.7416 18.8175 15.3911 0.0000 0.0002 0.0000
# 2 18.8175 50.7416 15.3911 0.0000 -0.0002 0.0000
# 3 15.3911 15.3911 94.2395 0.0000 0.0000 0.0000
# 4 0.0000 0.0000 0.0000 12.7459 0.0000 -0.0002
# 5 0.0002 -0.0002 0.0000 0.0000 12.7459 0.0000
# 6 0.0000 0.0000 0.0000 -0.0002 0.0000 15.9620
#
#
#
# Elastic Compliance Matrix: (Units=1/GPa)
#
#
# Indices 1 2 3 4 5 6 
#
# 1 0.023410 -0.007914 -0.002531 0.000000 0.000000 0.000000
# 2 -0.007914 0.023410 -0.002531 0.000000 0.000000 0.000000
# 3 -0.002531 -0.002531 0.011438 0.000000 0.000000 0.000000
# 4 0.000000 0.000000 0.000000 0.078457 0.000000 0.000001
# 5 0.000000 0.000000 0.000000 0.000000 0.078457 0.000000
# 6 0.000000 0.000000 0.000000 0.000001 0.000000 0.062649
#
#
# Mechanical properties :
#
#
# Convention : Reuss Voigt Hill
#
# Bulk Modulus (GPa) = 30.95298 32.76915 31.86106
# Shear Modulus (GPa) = 15.89616 18.03228 16.96422
#
# Velocity S-wave (km/s) = 3.13872 3.34297 3.24245
# Velocity P-wave (km/s) = 5.68493 5.93373 5.81066
#
# Compressibility (1/GPa) = 0.03230706
#
# Stress axis : x y z
#
# Youngs Moduli (GPa) = 42.71628 42.71628 87.42844
#
# Poissons Ratio (x) = 0.33806 0.22127
# Poissons Ratio (y) = 0.33806 0.22127
# Poissons Ratio (z) = 0.10811 0.10811
#
# Static dielectric constant tensor:
#      x y z
#    x 2.910080 0.000000 0.000000 
#    y 0.000000 2.910080 0.000000 
#    z 0.000000 0.000000 3.154800 
# 
# 
# High freq. dielectric constant tensor:
#      x y z
#    x 1.597560 0.000000 0.000000 
#    y 0.000000 1.597560 0.000000 
#    z 0.000000 0.000000 1.614680 
# 
# From -- ./inp_files/4109.got.cif
#   From: 2010.03.12/outbox.cif.g09.slc.cpg/sg187_3_cif.got.tgz:4109.got - 2010.04.01 11:58:23.
