data_PCOD8327870
_publ_section_title
;
Structure prediction by ZEFSAII (Michael W. Deem and Ramdas Pophale) SiO2 
 PCOD8327870
Probable space group: P -6 2 M
;
_chemical_formula_sum "Si O2"
_cell_formula_units_Z 28
_cell_length_a 13.544235
_cell_length_b 13.544235
_cell_length_c 8.906509
_cell_angle_alpha 90.000000
_cell_angle_beta 90.000000
_cell_angle_gamma 120.000000
_cell_volume 1414.969581
_symmetry_space_group_name_H-M "P -6 2 M"
_symmetry_group_IT_number 189
_symmetry_cell_setting 'hexagonal'
loop_
_space_group_symop_operation_xyz
x,y,z
-x+y,-x,-z
-y,x-y,z
x,y,-z
-x+y,-x,z
-y,x-y,-z
x-y,-y,-z
-x,-x+y,-z
y,x,-z
y,x,z
x-y,-y,z
-x,-x+y,z
loop_
_atom_site_type_symbol
_atom_site_label
_atom_site_fract_x
_atom_site_fract_y
_atom_site_fract_z
Si Si1 0.463624 0.131288 0.675545
Si Si2 0.869918 0.739047 0.826553
Si Si3 0.666668 0.333335 0.822608
O O1 0.485482 0.154373 0.500000
O O2 0.371771 0.166782 0.726394
O O3 0.581430 0.206516 0.762701
O O4 0.418974 0.000000 0.717209
O O5 0.834174 0.834174 0.798868
O O6 0.000000 0.791810 0.775395
O O7 0.852973 0.701325 0.000000
O O8 0.666667 0.333334 0.000000
#
# Coordination Sequence:
#
# PCOD8327870 Si02
#       3
#    12  12   4
#     4  10  22  40  60  83 113 147 184 229 278 329
#     4   9  17  31  53  82 116 153 192 233 277 326
#     4  12  25  41  64  87 109 143 184 228 277 329
#
# _framework density 19.788409999999999
#
# number of rings (size 3 to 8) (size 9 to 14) (size 15 to 20)
#    0.000    2.143    0.000    3.000    0.000    6.857 
#    0.000    0.000    0.000    2.571    0.000    0.000 
#    0.000    0.000    0.000    0.000    0.000    0.000 
#
# Total GULP energy -347339.319014 kJ/mol
# GULP energy per Si atom -12404.975679 kJ/mol
# Density = 1.974337 g / cm^3
# Si number density = 19.788410 Si / 1000 Ang^3
#
#
#
# Elastic Constant Matrix: (Units=GPa)
#
#
# Indices 1 2 3 4 5 6 
#
# 1 101.9320 50.2736 55.7547 -0.0002 0.0001 0.0001
# 2 50.2736 101.9294 55.7539 -0.0004 0.0001 -0.0003
# 3 55.7547 55.7539 109.6124 0.0000 -0.0001 -0.0001
# 4 -0.0002 -0.0004 0.0000 35.0851 0.0001 0.0000
# 5 0.0001 0.0001 -0.0001 0.0001 35.0851 -0.0001
# 6 0.0001 -0.0003 -0.0001 0.0000 -0.0001 25.8276
#
#
#
# Elastic Compliance Matrix: (Units=1/GPa)
#
#
# Indices 1 2 3 4 5 6 
#
# 1 0.014915 -0.004443 -0.005327 0.000000 0.000000 0.000000
# 2 -0.004443 0.014916 -0.005327 0.000000 0.000000 0.000000
# 3 -0.005327 -0.005327 0.014542 0.000000 0.000000 0.000000
# 4 0.000000 0.000000 0.000000 0.028502 0.000000 0.000000
# 5 0.000000 0.000000 0.000000 0.000000 0.028502 0.000000
# 6 0.000000 0.000000 0.000000 0.000000 0.000000 0.038718
#
#
# Mechanical properties :
#
#
# Convention : Reuss Voigt Hill
#
# Bulk Modulus (GPa) = 70.52262 70.78203 70.65233
# Shear Modulus (GPa) = 28.56879 29.31233 28.94056
#
# Velocity S-wave (km/s) = 3.80375 3.85293 3.82841
# Velocity P-wave (km/s) = 7.41667 7.45925 7.43799
#
# Compressibility (1/GPa) = 0.01417985
#
# Stress axis : x y z
#
# Youngs Moduli (GPa) = 67.04467 67.04311 68.76541
#
# Poissons Ratio (x) = 0.29786 0.36631
# Poissons Ratio (y) = 0.29787 0.36631
# Poissons Ratio (z) = 0.35715 0.35714
#
# Static dielectric constant tensor:
#      x y z
#    x 3.583130 0.000010 0.000000 
#    y 0.000010 3.583150 0.000010 
#    z 0.000000 0.000010 3.543300 
# 
# 
# High freq. dielectric constant tensor:
#      x y z
#    x 1.770880 0.000000 0.000000 
#    y 0.000000 1.770880 0.000000 
#    z 0.000000 0.000000 1.771810 
# 
# From -- ./inp_files/267.got.cif
#   From: 2010.03.12/outbox.cif.g09.slc.cpg/sg189_1_cif.got.tgz:267.got - 2010.04.01 12:03:36.
