data_PCOD8327051
_publ_section_title
;
Structure prediction by ZEFSAII (Michael W. Deem and Ramdas Pophale) SiO2 
 PCOD8327051
Probable space group: P -6 M 2
;
_chemical_formula_sum "Si O2"
_cell_formula_units_Z 66
_cell_length_a 13.281951
_cell_length_b 13.281951
_cell_length_c 27.276498
_cell_angle_alpha 90.000000
_cell_angle_beta 90.000000
_cell_angle_gamma 120.000000
_cell_volume 4167.187004
_symmetry_space_group_name_H-M "P -6 M 2"
_symmetry_group_IT_number 187
_symmetry_cell_setting 'hexagonal'
loop_
_space_group_symop_operation_xyz
x,y,z
-x+y,-x,-z
-y,x-y,z
x,y,-z
-x+y,-x,z
-y,x-y,-z
-y,-x,-z
-x+y,y,-z
x,x-y,-z
-x+y,y,z
x,x-y,z
-y,-x,z
loop_
_atom_site_type_symbol
_atom_site_label
_atom_site_fract_x
_atom_site_fract_y
_atom_site_fract_z
Si Si1 0.333361 0.433921 0.872780
Si Si2 0.232752 0.999662 0.577722
Si Si3 0.565951 0.666601 0.760843
Si Si4 0.232718 0.232674 0.056002
Si Si5 0.573359 0.904597 0.500000
Si Si6 0.999369 0.767987 0.309406
O O1 0.230912 0.461825 0.882712
O O2 0.452040 0.547961 0.885966
O O3 0.331228 0.394549 0.816801
O O4 0.322800 0.333396 0.908439
O O5 0.246093 0.123047 0.561883
O O6 0.319181 0.971128 0.547234
O O7 0.267112 0.001686 0.634212
O O8 0.099280 0.900720 0.568017
O O9 0.538245 0.769123 0.750908
O O10 0.451782 0.548219 0.747669
O O11 0.665662 0.676385 0.724882
O O12 0.102403 0.204806 0.065999
O O13 0.237446 0.118723 0.069274
O O14 0.269746 0.271784 0.000000
O O15 0.456776 0.913551 0.500000
O O16 0.538074 0.769037 0.500000
O O17 0.102574 0.897427 0.298971
O O18 0.881758 0.763516 0.294273
#
# Coordination Sequence:
#
# PCOD8327051 Si02
#       6
#    12  12  12  12   6  12
#     4   9  17  29  45  65  89 116 146 181 220 259
#     4   9  17  30  49  71  92 115 145 183 224 263
#     4   9  17  29  45  65  89 118 150 182 216 256
#     4   9  17  29  45  65  89 116 144 175 214 262
#     4  10  20  32  46  66  94 124 150 178 216 262
#     4   9  17  29  46  69  95 119 143 176 221 267
#
# _framework density 15.838020999999999
#
# number of rings (size 3 to 8) (size 9 to 14) (size 15 to 20)
#    0.000    2.909    0.000    1.273    0.000    5.455 
#    0.000    0.909    0.000    7.636    0.000    0.000 
#    0.000    0.000    0.000    0.000    0.000    0.000 
#
# Total GULP energy -818384.623526 kJ/mol
# GULP energy per Si atom -12399.767023 kJ/mol
# Density = 1.580197 g / cm^3
# Si number density = 15.838021 Si / 1000 Ang^3
#
#
#
# Elastic Constant Matrix: (Units=GPa)
#
#
# Indices 1 2 3 4 5 6 
#
# 1 108.6185 58.4441 66.8756 0.0000 0.0000 0.0000
# 2 58.4441 108.6185 66.8756 0.0000 0.0000 0.0000
# 3 66.8756 66.8756 95.7060 0.0000 0.0000 0.0000
# 4 0.0000 0.0000 0.0000 28.5694 0.0000 0.0000
# 5 0.0000 0.0000 0.0000 0.0000 28.5694 0.0000
# 6 0.0000 0.0000 0.0000 0.0000 0.0000 25.0872
#
#
#
# Elastic Compliance Matrix: (Units=1/GPa)
#
#
# Indices 1 2 3 4 5 6 
#
# 1 0.016758 -0.003172 -0.009494 0.000000 0.000000 0.000000
# 2 -0.003172 0.016758 -0.009494 0.000000 0.000000 0.000000
# 3 -0.009494 -0.009494 0.023716 0.000000 0.000000 0.000000
# 4 0.000000 0.000000 0.000000 0.035002 0.000000 0.000000
# 5 0.000000 0.000000 0.000000 0.000000 0.035002 0.000000
# 6 0.000000 0.000000 0.000000 0.000000 0.000000 0.039861
#
#
# Mechanical properties :
#
#
# Convention : Reuss Voigt Hill
#
# Bulk Modulus (GPa) = 77.43244 77.48149 77.45697
# Shear Modulus (GPa) = 23.17792 24.49508 23.83650
#
# Velocity S-wave (km/s) = 3.82964 3.93695 3.88366
# Velocity P-wave (km/s) = 8.27956 8.34826 8.31398
#
# Compressibility (1/GPa) = 0.01291448
#
# Stress axis : x y z
#
# Youngs Moduli (GPa) = 59.67136 59.67136 42.16511
#
# Poissons Ratio (x) = 0.18928 0.40030
# Poissons Ratio (y) = 0.18928 0.40030
# Poissons Ratio (z) = 0.56650 0.56650
#
# Static dielectric constant tensor:
#      x y z
#    x 2.909540 0.000000 0.000000 
#    y 0.000000 2.909540 0.000000 
#    z 0.000000 0.000000 3.166110 
# 
# 
# High freq. dielectric constant tensor:
#      x y z
#    x 1.594630 0.000000 0.000000 
#    y 0.000000 1.594630 0.000000 
#    z 0.000000 0.000000 1.618190 
# 
# From -- ./inp_files/4468.got.cif
#   From: 2010.03.12/outbox.cif.g09.slc.cpg/sg187_3_cif.got.tgz:4468.got - 2010.04.01 11:58:23.
