data_PCOD8327316
_publ_section_title
;
Structure prediction by ZEFSAII (Michael W. Deem and Ramdas Pophale) SiO2 
 PCOD8327316
Probable space group: P -6 C 2
;
_chemical_formula_sum "Si O2"
_cell_formula_units_Z 48
_cell_length_a 10.940827
_cell_length_b 10.940827
_cell_length_c 25.577392
_cell_angle_alpha 90.000000
_cell_angle_beta 90.000000
_cell_angle_gamma 120.000000
_cell_volume 2651.472902
_symmetry_space_group_name_H-M "P -6 C 2"
_symmetry_group_IT_number 188
_symmetry_cell_setting 'hexagonal'
loop_
_space_group_symop_operation_xyz
x,y,z
-x+y,-x,1/2-z
-y,x-y,z
x,y,1/2-z
-x+y,-x,z
-y,x-y,1/2-z
-y,-x,-z
-x+y,y,-z
x,x-y,-z
-x+y,y,1/2+z
x,x-y,1/2+z
-y,-x,1/2+z
loop_
_atom_site_type_symbol
_atom_site_label
_atom_site_fract_x
_atom_site_fract_y
_atom_site_fract_z
Si Si1 0.331018 0.944447 0.311919
Si Si2 0.887921 0.745213 0.370946
Si Si3 0.000000 0.000000 0.560299
Si Si4 0.554856 0.895784 0.363757
Si Si5 0.333334 0.666668 0.436763
Si Si6 0.000000 0.000000 0.808880
O O1 0.318360 0.967310 0.250000
O O2 0.472767 0.940801 0.323289
O O3 0.199829 0.799226 0.330966
O O4 0.342414 0.075231 0.345860
O O5 0.993928 0.858090 0.328395
O O6 0.959094 0.650327 0.384132
O O7 0.892333 0.839229 0.420802
O O8 0.000000 0.000000 0.500000
O O9 0.461791 0.813752 0.414689
O O10 0.333334 0.666667 0.500000
O O11 0.000000 0.000000 0.750000
#
# Coordination Sequence:
#
# PCOD8327316 Si02
#       6
#    12  12   4  12   4   4
#     4  11  21  34  56  81 114 157 190 233 294 346
#     4  10  20  36  53  83 114 142 189 240 287 340
#     4  10  20  37  64  89 109 139 182 244 307 344
#     4  10  21  38  54  81 119 143 200 243 281 359
#     4   9  21  39  64  86 109 156 192 243 307 341
#     4  10  17  28  55  80 106 142 182 229 277 335
#
# _framework density 18.103147
#
# number of rings (size 3 to 8) (size 9 to 14) (size 15 to 20)
#    0.000    2.000    5.000    2.000    0.000    4.000 
#    1.500    0.000    0.000    0.000    0.000    1.750 
#    0.000    0.000    0.000    0.000    0.000    0.000 
#
# Total GULP energy -594645.598763 kJ/mol
# GULP energy per Si atom -12388.449974 kJ/mol
# Density = 1.806194 g / cm^3
# Si number density = 18.103147 Si / 1000 Ang^3
#
#
#
# Elastic Constant Matrix: (Units=GPa)
#
#
# Indices 1 2 3 4 5 6 
#
# 1 97.5854 40.0711 26.4963 0.0000 0.0000 0.0000
# 2 40.0711 97.5856 26.4963 0.0000 0.0000 0.0000
# 3 26.4963 26.4963 145.3159 -0.0001 0.0000 0.0000
# 4 0.0000 0.0000 -0.0001 10.0453 0.0000 0.0000
# 5 0.0000 0.0000 0.0000 0.0000 10.0453 0.0000
# 6 0.0000 0.0000 0.0000 0.0000 0.0000 28.7572
#
#
#
# Elastic Compliance Matrix: (Units=1/GPa)
#
#
# Indices 1 2 3 4 5 6 
#
# 1 0.012600 -0.004787 -0.001425 0.000000 0.000000 0.000000
# 2 -0.004787 0.012600 -0.001425 0.000000 0.000000 0.000000
# 3 -0.001425 -0.001425 0.007401 0.000000 0.000000 0.000000
# 4 0.000000 0.000000 0.000000 0.099549 0.000000 0.000000
# 5 0.000000 0.000000 0.000000 0.000000 0.099549 0.000000
# 6 0.000000 0.000000 0.000000 0.000000 0.000000 0.034774
#
#
# Mechanical properties :
#
#
# Convention : Reuss Voigt Hill
#
# Bulk Modulus (GPa) = 57.70832 58.51267 58.11049
# Shear Modulus (GPa) = 17.39000 26.26443 21.82722
#
# Velocity S-wave (km/s) = 3.10273 3.81310 3.47611
# Velocity P-wave (km/s) = 6.69198 7.19571 6.94841
#
# Compressibility (1/GPa) = 0.01732853
#
# Stress axis : x y z
#
# Youngs Moduli (GPa) = 79.36560 79.36575 135.11578
#
# Poissons Ratio (x) = 0.37993 0.19248
# Poissons Ratio (y) = 0.37993 0.19248
# Poissons Ratio (z) = 0.11306 0.11306
#
# Static dielectric constant tensor:
#      x y z
#    x 3.383220 0.000000 0.000000 
#    y 0.000000 3.383220 0.000000 
#    z 0.000000 0.000000 3.143070 
# 
# 
# High freq. dielectric constant tensor:
#      x y z
#    x 1.696040 0.000000 0.000000 
#    y 0.000000 1.696040 0.000000 
#    z 0.000000 0.000000 1.681660 
# 
# From -- ./inp_files/4215.got.cif
#   From: 2010.03.12/outbox.cif.g09.slc.cpg/sg188_3_cif.got.tgz:4215.got - 2010.04.01 12:01:06.
