data_PCOD8327382
_publ_section_title
;
Structure prediction by ZEFSAII (Michael W. Deem and Ramdas Pophale) SiO2 
 PCOD8327382
Probable space group: P -6 C 2
;
_chemical_formula_sum "Si O2"
_cell_formula_units_Z 72
_cell_length_a 21.715496
_cell_length_b 21.715496
_cell_length_c 9.398779
_cell_angle_alpha 90.000000
_cell_angle_beta 90.000000
_cell_angle_gamma 120.000000
_cell_volume 3838.323513
_symmetry_space_group_name_H-M "P -6 C 2"
_symmetry_group_IT_number 188
_symmetry_cell_setting 'hexagonal'
loop_
_space_group_symop_operation_xyz
x,y,z
-x+y,-x,1/2-z
-y,x-y,z
x,y,1/2-z
-x+y,-x,z
-y,x-y,1/2-z
-y,-x,-z
-x+y,y,-z
x,x-y,-z
-x+y,y,1/2+z
x,x-y,1/2+z
-y,-x,1/2+z
loop_
_atom_site_type_symbol
_atom_site_label
_atom_site_fract_x
_atom_site_fract_y
_atom_site_fract_z
Si Si1 0.584866 0.846452 0.591701
Si Si2 0.089662 0.179323 0.000000
Si Si3 0.795284 0.333881 0.920616
Si Si4 0.913967 0.933417 0.250000
Si Si5 0.397946 0.062369 0.588119
Si Si6 0.418777 0.952816 0.408924
Si Si7 0.712752 0.756363 0.909505
O O1 0.600405 0.829644 0.750000
O O2 0.548256 0.774128 0.500000
O O3 0.534100 0.879330 0.594681
O O4 0.659412 0.902324 0.523883
O O5 0.102822 0.132194 0.887825
O O6 0.052384 0.218868 0.924756
O O7 0.782566 0.338277 0.750000
O O8 0.854967 0.310007 0.943469
O O9 0.724291 0.275710 0.000000
O O10 0.818545 0.409273 0.000000
O O11 0.981866 0.922143 0.250000
O O12 0.409561 0.045553 0.750000
O O13 0.415848 0.017389 0.480359
O O14 0.313204 0.036348 0.564417
O O15 0.448819 0.977248 0.250000
O O16 0.465912 0.931824 0.500000
O O17 0.682446 0.749163 0.750000
#
# Coordination Sequence:
#
# PCOD8327382 Si02
#       7
#    12   6  12   6  12  12  12
#     4  10  20  32  50  78 113 143 182 231 277 333
#     4  12  20  36  64  84 112 150 194 246 286 352
#     4  11  23  40  63  87 116 154 197 242 289 345
#     4  10  24  42  58  78 106 146 194 242 288 328
#     4   9  20  38  58  82 118 151 183 233 288 344
#     4  10  20  33  52  80 110 146 186 225 273 337
#     4  10  20  34  56  88 116 148 187 229 294 348
#
# _framework density 18.758189999999999
#
# number of rings (size 3 to 8) (size 9 to 14) (size 15 to 20)
#    0.167    1.667    1.667    2.667    1.167    4.667 
#    0.000    1.667    0.000    0.333    0.000    0.000 
#    0.000    0.000    0.000    0.000    0.000    0.000 
#
# Total GULP energy -891944.607612 kJ/mol
# GULP energy per Si atom -12388.119550 kJ/mol
# Density = 1.871550 g / cm^3
# Si number density = 18.758190 Si / 1000 Ang^3
#
#
#
# Elastic Constant Matrix: (Units=GPa)
#
#
# Indices 1 2 3 4 5 6 
#
# 1 74.3622 31.4113 35.1635 -0.0002 0.0000 0.0000
# 2 31.4113 74.3622 35.1635 0.0002 0.0000 0.0000
# 3 35.1635 35.1635 140.8204 0.0000 0.0000 0.0000
# 4 -0.0002 0.0002 0.0000 31.3564 0.0000 0.0000
# 5 0.0000 0.0000 0.0000 0.0000 31.3564 -0.0002
# 6 0.0000 0.0000 0.0000 0.0000 -0.0002 21.4754
#
#
#
# Elastic Compliance Matrix: (Units=1/GPa)
#
#
# Indices 1 2 3 4 5 6 
#
# 1 0.017309 -0.005973 -0.002831 0.000000 0.000000 0.000000
# 2 -0.005973 0.017309 -0.002831 0.000000 0.000000 0.000000
# 3 -0.002831 -0.002831 0.008515 0.000000 0.000000 0.000000
# 4 0.000000 0.000000 0.000000 0.031891 0.000000 0.000000
# 5 0.000000 0.000000 0.000000 0.000000 0.031891 0.000000
# 6 0.000000 0.000000 0.000000 0.000000 0.000000 0.046565
#
#
# Mechanical properties :
#
#
# Convention : Reuss Voigt Hill
#
# Bulk Modulus (GPa) = 50.34085 54.78015 52.56050
# Shear Modulus (GPa) = 27.26701 29.35808 28.31255
#
# Velocity S-wave (km/s) = 3.81675 3.96040 3.88924
# Velocity P-wave (km/s) = 6.80577 7.08377 6.94616
#
# Compressibility (1/GPa) = 0.01986458
#
# Stress axis : x y z
#
# Youngs Moduli (GPa) = 57.77232 57.77232 117.44089
#
# Poissons Ratio (x) = 0.34508 0.33244
# Poissons Ratio (y) = 0.34508 0.33244
# Poissons Ratio (z) = 0.16354 0.16354
#
# Static dielectric constant tensor:
#      x y z
#    x 3.518840 0.000000 0.000000 
#    y 0.000000 3.518840 0.000000 
#    z 0.000000 0.000000 3.692280 
# 
# 
# High freq. dielectric constant tensor:
#      x y z
#    x 1.713540 0.000000 0.000000 
#    y 0.000000 1.713540 0.000000 
#    z 0.000000 0.000000 1.752260 
# 
# From -- ./inp_files/1116.got.cif
#   From: 2010.03.12/outbox.cif.g09.slc.cpg/sg188_1_cif.got.tgz:1116.got - 2010.04.01 12:01:06.
