data_PCOD8327980
_publ_section_title
;
Structure prediction by ZEFSAII (Michael W. Deem and Ramdas Pophale) SiO2 
 PCOD8327980
Probable space group: P -6 2 C
;
_chemical_formula_sum "Si O2"
_cell_formula_units_Z 72
_cell_length_a 23.605825
_cell_length_b 23.605825
_cell_length_c 8.946524
_cell_angle_alpha 90.000000
_cell_angle_beta 90.000000
_cell_angle_gamma 120.000000
_cell_volume 4317.410361
_symmetry_space_group_name_H-M "P -6 2 C"
_symmetry_group_IT_number 190
_symmetry_cell_setting 'hexagonal'
loop_
_space_group_symop_operation_xyz
x,y,z
-x+y,-x,1/2-z
-y,x-y,z
x,y,1/2-z
-x+y,-x,z
-y,x-y,1/2-z
x-y,-y,-z
-x,-x+y,-z
y,x,-z
y,x,1/2+z
x-y,-y,1/2+z
-x,-x+y,1/2+z
loop_
_atom_site_type_symbol
_atom_site_label
_atom_site_fract_x
_atom_site_fract_y
_atom_site_fract_z
Si Si1 0.856509 0.265901 0.076216
Si Si2 0.528598 0.933203 0.424160
Si Si3 0.399952 0.931975 0.425761
Si Si4 0.069823 0.811895 0.424577
Si Si5 0.258357 0.069855 0.073731
Si Si6 0.150507 0.741761 0.422686
O O1 0.856345 0.280186 0.250000
O O2 0.906481 0.240302 0.037340
O O3 0.875467 0.331348 0.986019
O O4 0.783924 0.212826 0.025993
O O5 0.539707 0.946535 0.250000
O O6 0.454779 0.913007 0.470398
O O7 0.543303 0.876294 0.472010
O O8 0.581120 0.000000 0.500000
O O9 0.395928 0.939416 0.250000
O O10 0.415870 0.000000 0.500000
O O11 0.064826 0.823729 0.250000
O O12 0.118915 0.880724 0.501349
O O13 0.094562 0.760392 0.451848
O O14 0.000000 0.784322 0.500000
O O15 0.245726 0.066122 0.250000
O O16 0.213809 0.000000 0.000000
O O17 0.172492 0.753909 0.250000
#
# Coordination Sequence:
#
# PCOD8327980 Si02
#       6
#    12  12  12  12  12  12
#     4  10  20  32  48  71  97 126 160 197 239 285
#     4   9  18  31  48  71  97 126 158 193 235 282
#     4  10  19  31  48  70  97 127 159 196 238 285
#     4  10  19  31  49  72  98 127 157 192 233 277
#     4  10  20  33  49  70  96 125 158 195 235 280
#     4   9  18  32  49  70  97 127 159 195 236 281
#
# _framework density 16.676663999999999
#
# number of rings (size 3 to 8) (size 9 to 14) (size 15 to 20)
#    0.000    2.333    0.000    3.000    0.000    5.333 
#    0.000    0.000    0.000    1.000    0.000    4.667 
#    0.000    0.000    0.000    0.000    0.000    0.000 
#
# Total GULP energy -893005.109883 kJ/mol
# GULP energy per Si atom -12402.848748 kJ/mol
# Density = 1.663871 g / cm^3
# Si number density = 16.676664 Si / 1000 Ang^3
#
#
#
# Elastic Constant Matrix: (Units=GPa)
#
#
# Indices 1 2 3 4 5 6 
#
# 1 103.5769 60.3808 48.5955 0.0000 0.0000 0.0000
# 2 60.3808 103.5769 48.5955 0.0000 0.0000 0.0000
# 3 48.5955 48.5955 78.1323 0.0000 0.0000 0.0000
# 4 0.0000 0.0000 0.0000 29.1002 0.0000 0.0000
# 5 0.0000 0.0000 0.0000 0.0000 29.1002 0.0000
# 6 0.0000 0.0000 0.0000 0.0000 0.0000 21.5980
#
#
#
# Elastic Compliance Matrix: (Units=1/GPa)
#
#
# Indices 1 2 3 4 5 6 
#
# 1 0.016406 -0.006745 -0.006009 0.000000 0.000000 0.000000
# 2 -0.006745 0.016406 -0.006009 0.000000 0.000000 0.000000
# 3 -0.006009 -0.006009 0.020273 0.000000 0.000000 0.000000
# 4 0.000000 0.000000 0.000000 0.034364 0.000000 0.000000
# 5 0.000000 0.000000 0.000000 0.000000 0.034364 0.000000
# 6 0.000000 0.000000 0.000000 0.000000 0.000000 0.046301
#
#
# Mechanical properties :
#
#
# Convention : Reuss Voigt Hill
#
# Bulk Modulus (GPa) = 64.26673 66.71439 65.49056
# Shear Modulus (GPa) = 23.71641 24.47396 24.09519
#
# Velocity S-wave (km/s) = 3.77521 3.83503 3.80523
# Velocity P-wave (km/s) = 7.59101 7.72667 7.65914
#
# Compressibility (1/GPa) = 0.01556015
#
# Stress axis : x y z
#
# Youngs Moduli (GPa) = 60.95461 60.95461 49.32587
#
# Poissons Ratio (x) = 0.41111 0.29639
# Poissons Ratio (y) = 0.41111 0.29639
# Poissons Ratio (z) = 0.36627 0.36627
#
# Static dielectric constant tensor:
#      x y z
#    x 3.106540 0.000000 0.000000 
#    y 0.000000 3.106540 0.000000 
#    z 0.000000 0.000000 3.221980 
# 
# 
# High freq. dielectric constant tensor:
#      x y z
#    x 1.632870 0.000000 0.000000 
#    y 0.000000 1.632870 0.000000 
#    z 0.000000 0.000000 1.656020 
# 
# From -- ./inp_files/1177.got.cif
#   From: 2010.06.25/outbox.cif.g09.slc.cpg/sg190_1_cif.got.tgz:1177.got - 2010.06.28 13:08:06.
