data_PCOD8327710
_publ_section_title
;
Structure prediction by ZEFSAII (Michael W. Deem and Ramdas Pophale) SiO2 
 PCOD8327710
Probable space group: P -6 2 M
;
_chemical_formula_sum "Si O2"
_cell_formula_units_Z 36
_cell_length_a 13.621949
_cell_length_b 13.621949
_cell_length_c 14.082348
_cell_angle_alpha 90.000000
_cell_angle_beta 90.000000
_cell_angle_gamma 120.000000
_cell_volume 2262.998176
_symmetry_space_group_name_H-M "P -6 2 M"
_symmetry_group_IT_number 189
_symmetry_cell_setting 'hexagonal'
loop_
_space_group_symop_operation_xyz
x,y,z
-x+y,-x,-z
-y,x-y,z
x,y,-z
-x+y,-x,z
-y,x-y,-z
x-y,-y,-z
-x,-x+y,-z
y,x,-z
y,x,z
x-y,-y,z
-x,-x+y,z
loop_
_atom_site_type_symbol
_atom_site_label
_atom_site_fract_x
_atom_site_fract_y
_atom_site_fract_z
Si Si1 0.786777 0.322539 0.604050
Si Si2 0.337457 0.467569 0.110453
Si Si3 0.871858 0.325699 0.801312
O O1 0.782339 0.439568 0.612802
O O2 0.836633 0.318490 0.500000
O O3 0.863491 0.315564 0.686954
O O4 0.374195 0.374195 0.129522
O O5 0.420076 0.584248 0.164184
O O6 0.210454 0.416016 0.150059
O O7 0.341623 0.496015 0.000000
O O8 0.000000 0.364804 0.832470
#
# Coordination Sequence:
#
# PCOD8327710 Si02
#       3
#    12  12  12
#     4   8  14  27  46  65  94 127 152 184 228 275
#     4  10  20  32  46  67  95 122 153 196 237 274
#     4  11  19  30  50  71  92 124 159 189 232 283
#
# _framework density 15.908099999999999
#
# number of rings (size 3 to 8) (size 9 to 14) (size 15 to 20)
#    0.667    1.667    3.333    1.667    0.000    2.667 
#    0.000    0.000    0.000    1.667    0.000    0.000 
#    0.000    0.000    0.000    0.000    0.000    0.000 
#
# Total GULP energy -446195.069577 kJ/mol
# GULP energy per Si atom -12394.307488 kJ/mol
# Density = 1.587189 g / cm^3
# Si number density = 15.908100 Si / 1000 Ang^3
#
#
#
# Elastic Constant Matrix: (Units=GPa)
#
#
# Indices 1 2 3 4 5 6 
#
# 1 65.4056 30.6479 33.5390 0.0000 0.0000 0.0000
# 2 30.6479 65.4056 33.5390 0.0000 0.0000 0.0000
# 3 33.5390 33.5390 118.9649 0.0000 0.0000 0.0000
# 4 0.0000 0.0000 0.0000 19.1427 0.0000 0.0000
# 5 0.0000 0.0000 0.0000 0.0000 19.1427 0.0000
# 6 0.0000 0.0000 0.0000 0.0000 0.0000 17.3789
#
#
#
# Elastic Compliance Matrix: (Units=1/GPa)
#
#
# Indices 1 2 3 4 5 6 
#
# 1 0.020867 -0.007904 -0.003655 0.000000 0.000000 0.000000
# 2 -0.007904 0.020867 -0.003655 0.000000 0.000000 0.000000
# 3 -0.003655 -0.003655 0.010466 0.000000 0.000000 0.000000
# 4 0.000000 0.000000 0.000000 0.052239 0.000000 0.000000
# 5 0.000000 0.000000 0.000000 0.000000 0.052239 0.000000
# 6 0.000000 0.000000 0.000000 0.000000 0.000000 0.057541
#
#
# Mechanical properties :
#
#
# Convention : Reuss Voigt Hill
#
# Bulk Modulus (GPa) = 45.92597 49.46974 47.69786
# Shear Modulus (GPa) = 19.84889 21.26957 20.55923
#
# Velocity S-wave (km/s) = 3.53614 3.66051 3.59886
# Velocity P-wave (km/s) = 6.75312 7.00217 6.87877
#
# Compressibility (1/GPa) = 0.02177417
#
# Stress axis : x y z
#
# Youngs Moduli (GPa) = 47.92307 47.92307 95.54336
#
# Poissons Ratio (x) = 0.37877 0.34917
# Poissons Ratio (y) = 0.37877 0.34917
# Poissons Ratio (z) = 0.17514 0.17514
#
# Static dielectric constant tensor:
#      x y z
#    x 2.689440 0.000000 0.000000 
#    y 0.000000 2.689440 0.000000 
#    z 0.000000 0.000000 3.148290 
# 
# 
# High freq. dielectric constant tensor:
#      x y z
#    x 1.571910 0.000000 0.000000 
#    y 0.000000 1.571910 0.000000 
#    z 0.000000 0.000000 1.635350 
# 
# From -- ./inp_files/2311.got.cif
#   From: 2010.03.12/outbox.cif.g09.slc.cpg/sg189_2_cif.got.tgz:2311.got - 2010.04.01 12:03:36.
