data_PCOD8327601
_publ_section_title
;
Structure prediction by ZEFSAII (Michael W. Deem and Ramdas Pophale) SiO2 
 PCOD8327601
Probable space group: P -6 2 M
;
_chemical_formula_sum "Si O2"
_cell_formula_units_Z 72
_cell_length_a 23.559483
_cell_length_b 23.559483
_cell_length_c 8.952641
_cell_angle_alpha 90.000000
_cell_angle_beta 90.000000
_cell_angle_gamma 120.000000
_cell_volume 4303.415830
_symmetry_space_group_name_H-M "P -6 2 M"
_symmetry_group_IT_number 189
_symmetry_cell_setting 'hexagonal'
loop_
_space_group_symop_operation_xyz
x,y,z
-x+y,-x,-z
-y,x-y,z
x,y,-z
-x+y,-x,z
-y,x-y,-z
x-y,-y,-z
-x,-x+y,-z
y,x,-z
y,x,z
x-y,-y,z
-x,-x+y,z
loop_
_atom_site_type_symbol
_atom_site_label
_atom_site_fract_x
_atom_site_fract_y
_atom_site_fract_z
Si Si1 0.798874 0.264483 0.826890
Si Si2 0.276218 0.000000 0.822787
Si Si3 0.337785 0.264128 0.325771
Si Si4 0.405973 0.000000 0.822078
Si Si5 0.330015 0.132192 0.323879
Si Si6 0.473245 0.333080 0.175017
Si Si7 0.408529 0.874357 0.175319
O O1 0.847050 0.250142 0.728448
O O2 0.723678 0.214015 0.789091
O O3 0.811592 0.337158 0.789878
O O4 0.815838 0.259929 0.000000
O O5 0.341298 0.000000 0.765409
O O6 0.278071 0.064845 0.757188
O O7 0.270342 0.000000 0.000000
O O8 0.353396 0.271616 0.500000
O O9 0.280948 0.280948 0.284917
O O10 0.314567 0.189685 0.275314
O O11 0.404583 0.316810 0.246365
O O12 0.470666 0.062567 0.757927
O O13 0.405019 0.000000 0.000000
O O14 0.323960 0.120734 0.500000
O O15 0.532698 0.399418 0.246525
O O16 0.466593 0.340378 0.000000
O O17 0.421245 0.883002 0.000000
#
# Coordination Sequence:
#
# PCOD8327601 Si02
#       7
#    12   6  12   6  12  12  12
#     4   9  16  30  46  62  87 121 158 197 248 294
#     4  11  19  31  51  73  99 129 151 180 231 286
#     4   9  19  35  51  67  94 129 157 187 234 279
#     4   9  16  25  43  63  87 121 149 178 229 290
#     4  10  19  31  49  72  96 121 154 192 227 273
#     4   9  18  29  46  68  87 115 160 208 242 280
#     4   9  16  27  42  63  90 119 153 194 243 292
#
# _framework density 16.730896000000001
#
# number of rings (size 3 to 8) (size 9 to 14) (size 15 to 20)
#    0.000    2.667    1.667    0.750    1.167    1.000 
#    1.000    0.833    0.000    0.000    0.000    0.000 
#    0.833    0.000    1.500    0.000    0.500    0.000 
#
# Total GULP energy -892524.894826 kJ/mol
# GULP energy per Si atom -12396.179095 kJ/mol
# Density = 1.669282 g / cm^3
# Si number density = 16.730896 Si / 1000 Ang^3
#
#
#
# Elastic Constant Matrix: (Units=GPa)
#
#
# Indices 1 2 3 4 5 6 
#
# 1 107.3334 61.2323 26.9549 0.0000 0.0000 0.0000
# 2 61.2323 107.3334 26.9549 0.0000 0.0000 0.0000
# 3 26.9549 26.9549 36.3276 0.0000 0.0000 0.0000
# 4 0.0000 0.0000 0.0000 18.8990 0.0000 0.0000
# 5 0.0000 0.0000 0.0000 0.0000 18.8990 0.0000
# 6 0.0000 0.0000 0.0000 0.0000 0.0000 23.0505
#
#
#
# Elastic Compliance Matrix: (Units=1/GPa)
#
#
# Indices 1 2 3 4 5 6 
#
# 1 0.014735 -0.006957 -0.005771 0.000000 0.000000 0.000000
# 2 -0.006957 0.014735 -0.005771 0.000000 0.000000 0.000000
# 3 -0.005771 -0.005771 0.036092 0.000000 0.000000 0.000000
# 4 0.000000 0.000000 0.000000 0.052913 0.000000 0.000000
# 5 0.000000 0.000000 0.000000 0.000000 0.052913 0.000000
# 6 0.000000 0.000000 0.000000 0.000000 0.000000 0.043383
#
#
# Mechanical properties :
#
#
# Convention : Reuss Voigt Hill
#
# Bulk Modulus (GPa) = 35.01056 53.47538 44.24297
# Shear Modulus (GPa) = 19.13585 21.22654 20.18119
#
# Velocity S-wave (km/s) = 3.38560 3.56575 3.47684
# Velocity P-wave (km/s) = 6.02114 6.99887 6.52834
#
# Compressibility (1/GPa) = 0.02856281
#
# Stress axis : x y z
#
# Youngs Moduli (GPa) = 67.86648 67.86648 27.70704
#
# Poissons Ratio (x) = 0.47212 0.15991
# Poissons Ratio (y) = 0.47212 0.15991
# Poissons Ratio (z) = 0.39168 0.39168
#
# Static dielectric constant tensor:
#      x y z
#    x 3.261840 0.000000 0.000000 
#    y 0.000000 3.261840 0.000000 
#    z 0.000000 0.000000 2.909000 
# 
# 
# High freq. dielectric constant tensor:
#      x y z
#    x 1.635680 0.000000 0.000000 
#    y 0.000000 1.635680 0.000000 
#    z 0.000000 0.000000 1.620280 
# 
# From -- ./inp_files/1312.got.cif
#   From: 2010.03.12/outbox.cif.g09.slc.cpg/sg189_1_cif.got.tgz:1312.got - 2010.04.01 12:03:36.
