data_PCOD8327077
_publ_section_title
;
Structure prediction by ZEFSAII (Michael W. Deem and Ramdas Pophale) SiO2 
 PCOD8327077
Probable space group: P -6 M 2
;
_chemical_formula_sum "Si O2"
_cell_formula_units_Z 72
_cell_length_a 23.605741
_cell_length_b 23.605741
_cell_length_c 8.838486
_cell_angle_alpha 90.000000
_cell_angle_beta 90.000000
_cell_angle_gamma 120.000000
_cell_volume 4265.243066
_symmetry_space_group_name_H-M "P -6 M 2"
_symmetry_group_IT_number 187
_symmetry_cell_setting 'hexagonal'
loop_
_space_group_symop_operation_xyz
x,y,z
-x+y,-x,-z
-y,x-y,z
x,y,-z
-x+y,-x,z
-y,x-y,-z
-y,-x,-z
-x+y,y,-z
x,x-y,-z
-x+y,y,z
x,x-y,z
-y,-x,z
loop_
_atom_site_type_symbol
_atom_site_label
_atom_site_fract_x
_atom_site_fract_y
_atom_site_fract_z
Si Si1 0.180547 0.361094 0.820926
Si Si2 0.444947 0.889894 0.834442
Si Si3 0.405517 0.366248 0.677141
Si Si4 0.522657 0.477344 0.167984
Si Si5 0.109361 0.218721 0.676761
Si Si6 0.896694 0.233633 0.172563
Si Si7 0.571062 0.671026 0.181263
Si Si8 0.842205 0.814143 0.174970
O O1 0.144341 0.288681 0.756607
O O2 0.146529 0.401717 0.763886
O O3 0.177361 0.354722 0.000000
O O4 0.375250 0.870932 0.755593
O O5 0.483874 0.967747 0.845194
O O6 0.428666 0.857331 0.000000
O O7 0.407076 0.378246 0.500000
O O8 0.478444 0.410150 0.742546
O O9 0.382304 0.291331 0.713839
O O10 0.353059 0.381795 0.752780
O O11 0.538269 0.461732 0.000000
O O12 0.115740 0.231480 0.500000
O O13 0.142935 0.176679 0.720856
O O14 0.822111 0.177890 0.194339
O O15 0.944602 0.206030 0.214008
O O16 0.909470 0.259235 0.000000
O O17 0.570797 0.664937 0.000000
O O18 0.916758 0.833515 0.209894
O O19 0.834772 0.827801 0.000000
#
# Coordination Sequence:
#
# PCOD8327077 Si02
#       8
#     6   6  12   6   6  12  12  12
#     4  10  20  32  48  69  94 128 173 211 240 291
#     4   7  12  25  45  64  83 111 149 191 234 273
#     4  11  20  29  45  72 102 127 154 192 241 290
#     4   9  17  31  49  67  92 126 159 188 221 266
#     4  12  24  34  48  72 101 127 153 200 265 318
#     4   9  18  33  52  71  93 125 164 199 233 283
#     4   9  17  30  47  66  90 126 166 202 240 287
#     4   9  19  37  57  72  88 120 167 210 247 296
#
# _framework density 16.880631999999999
#
# number of rings (size 3 to 8) (size 9 to 14) (size 15 to 20)
#    0.000    2.500    0.000    5.500    0.000    6.000 
#    0.500    1.667    0.000    0.333    0.000    2.333 
#    0.833    0.000    1.500    2.500    1.500    4.667 
#
# Total GULP energy -892504.264502 kJ/mol
# GULP energy per Si atom -12395.892563 kJ/mol
# Density = 1.684221 g / cm^3
# Si number density = 16.880632 Si / 1000 Ang^3
#
#
#
# Elastic Constant Matrix: (Units=GPa)
#
#
# Indices 1 2 3 4 5 6 
#
# 1 95.5500 47.6404 24.4202 0.0000 -0.0001 0.0000
# 2 47.6404 95.5500 24.4202 0.0000 0.0001 0.0000
# 3 24.4202 24.4202 45.6142 0.0000 0.0000 0.0000
# 4 0.0000 0.0000 0.0000 10.2175 0.0000 0.0001
# 5 -0.0001 0.0001 0.0000 0.0000 10.2175 0.0000
# 6 0.0000 0.0000 0.0000 0.0001 0.0000 23.9548
#
#
#
# Elastic Compliance Matrix: (Units=1/GPa)
#
#
# Indices 1 2 3 4 5 6 
#
# 1 0.014708 -0.006164 -0.004574 0.000000 0.000000 0.000000
# 2 -0.006164 0.014708 -0.004574 0.000000 0.000000 0.000000
# 3 -0.004574 -0.004574 0.026821 0.000000 0.000000 0.000000
# 4 0.000000 0.000000 0.000000 0.097871 0.000000 -0.000001
# 5 0.000000 0.000000 0.000000 0.000000 0.097871 0.000000
# 6 0.000000 0.000000 0.000000 -0.000001 0.000000 0.041745
#
#
# Mechanical properties :
#
#
# Convention : Reuss Voigt Hill
#
# Bulk Modulus (GPa) = 39.04416 47.74176 43.39296
# Shear Modulus (GPa) = 15.02010 18.22686 16.62348
#
# Velocity S-wave (km/s) = 2.98616 3.28952 3.14150
# Velocity P-wave (km/s) = 5.92193 6.53998 6.23861
#
# Compressibility (1/GPa) = 0.02561202
#
# Stress axis : x y z
#
# Youngs Moduli (GPa) = 67.98903 67.98903 37.28479
#
# Poissons Ratio (x) = 0.41911 0.17054
# Poissons Ratio (y) = 0.41911 0.17054
# Poissons Ratio (z) = 0.31099 0.31099
#
# Static dielectric constant tensor:
#      x y z
#    x 3.211110 0.000000 0.000000 
#    y 0.000000 3.211110 0.000000 
#    z 0.000000 0.000000 3.025110 
# 
# 
# High freq. dielectric constant tensor:
#      x y z
#    x 1.640490 0.000000 0.000000 
#    y 0.000000 1.640490 0.000000 
#    z 0.000000 0.000000 1.637200 
# 
# From -- ./inp_files/1127.got.cif
#   From: 2010.03.12/outbox.cif.g09.slc.cpg/sg187_1_cif.got.tgz:1127.got - 2010.04.01 11:58:23.
