data_PCOD8327397
_publ_section_title
;
Structure prediction by ZEFSAII (Michael W. Deem and Ramdas Pophale) SiO2 
 PCOD8327397
Probable space group: P -6 C 2
;
_chemical_formula_sum "Si O2"
_cell_formula_units_Z 84
_cell_length_a 18.124653
_cell_length_b 18.124653
_cell_length_c 15.640737
_cell_angle_alpha 90.000000
_cell_angle_beta 90.000000
_cell_angle_gamma 120.000000
_cell_volume 4449.664291
_symmetry_space_group_name_H-M "P -6 C 2"
_symmetry_group_IT_number 188
_symmetry_cell_setting 'hexagonal'
loop_
_space_group_symop_operation_xyz
x,y,z
-x+y,-x,1/2-z
-y,x-y,z
x,y,1/2-z
-x+y,-x,z
-y,x-y,1/2-z
-y,-x,-z
-x+y,y,-z
x,x-y,-z
-x+y,y,1/2+z
x,x-y,1/2+z
-y,-x,1/2+z
loop_
_atom_site_type_symbol
_atom_site_label
_atom_site_fract_x
_atom_site_fract_y
_atom_site_fract_z
Si Si1 0.730956 0.630700 0.845580
Si Si2 0.491280 0.158450 1.000000
Si Si3 0.334031 0.832665 0.151288
Si Si4 0.498634 0.665969 0.651288
Si Si5 0.683416 0.759691 0.903298
Si Si6 0.899744 0.269044 0.345580
Si Si7 0.683416 0.759691 0.403298
O O1 0.701359 0.592356 0.750000
O O2 0.669897 0.561699 0.915545
O O3 0.731047 0.719648 0.851256
O O4 0.827358 0.654717 0.863404
O O5 0.579844 0.159688 0.000000
O O6 0.510563 0.255282 0.000000
O O7 0.438301 0.108198 0.084455
O O8 0.339113 0.859389 0.250000
O O9 0.266964 0.733036 0.139170
O O10 0.425033 0.850066 0.117654
O O11 0.307278 0.889998 0.096828
O O12 0.520277 0.660887 0.750000
O O13 0.582720 0.692722 0.596828
O O14 0.701014 0.850507 0.863649
O O15 0.716377 0.774011 1.000000
O O16 0.890997 0.298641 0.250000
O O17 0.988601 0.268953 0.351256
#
# Coordination Sequence:
#
# PCOD8327397 Si02
#       7
#    12  12  12  12  12  12  12
#     4  10  21  38  60  84 110 144 185 227 277 337
#     4  10  21  38  59  84 114 148 186 232 283 338
#     4   9  17  29  45  66  96 136 180 222 262 304
#     4   9  17  29  45  66  96 136 180 222 262 304
#     4  10  20  34  53  78 107 142 182 223 270 324
#     4  10  21  38  60  84 110 144 185 227 277 337
#     4  10  20  34  53  78 107 142 182 223 270 324
#
# _framework density 18.877829999999999
#
# number of rings (size 3 to 8) (size 9 to 14) (size 15 to 20)
#    0.000    2.286    1.429    1.286    0.000    5.143 
#    0.000    0.000    0.000    4.000    0.000    0.000 
#    0.000    0.000    0.000    0.000    0.000    0.000 
#
# Total GULP energy -1041360.691287 kJ/mol
# GULP energy per Si atom -12397.151087 kJ/mol
# Density = 1.883486 g / cm^3
# Si number density = 18.877830 Si / 1000 Ang^3
#
#
#
# Elastic Constant Matrix: (Units=GPa)
#
#
# Indices 1 2 3 4 5 6 
#
# 1 90.0725 54.0891 36.1983 0.0000 0.0000 0.0000
# 2 54.0891 90.0725 36.1983 0.0000 0.0000 0.0000
# 3 36.1983 36.1983 99.6330 0.0000 0.0000 0.0000
# 4 0.0000 0.0000 0.0000 22.5080 0.0000 0.0000
# 5 0.0000 0.0000 0.0000 0.0000 22.5080 0.0000
# 6 0.0000 0.0000 0.0000 0.0000 0.0000 17.9917
#
#
#
# Elastic Compliance Matrix: (Units=1/GPa)
#
#
# Indices 1 2 3 4 5 6 
#
# 1 0.018138 -0.009653 -0.003083 0.000000 0.000000 0.000000
# 2 -0.009653 0.018138 -0.003083 0.000000 0.000000 0.000000
# 3 -0.003083 -0.003083 0.012277 0.000000 0.000000 0.000000
# 4 0.000000 0.000000 0.000000 0.044429 0.000000 0.000000
# 5 0.000000 0.000000 0.000000 0.000000 0.044429 0.000000
# 6 0.000000 0.000000 0.000000 0.000000 0.000000 0.055581
#
#
# Mechanical properties :
#
#
# Convention : Reuss Voigt Hill
#
# Bulk Modulus (GPa) = 59.11674 59.19438 59.15556
# Shear Modulus (GPa) = 21.71403 22.82101 22.26752
#
# Velocity S-wave (km/s) = 3.39520 3.48067 3.43820
# Velocity P-wave (km/s) = 6.83763 6.89768 6.86772
#
# Compressibility (1/GPa) = 0.01691568
#
# Stress axis : x y z
#
# Youngs Moduli (GPa) = 55.13384 55.13384 81.45459
#
# Poissons Ratio (x) = 0.53220 0.25110
# Poissons Ratio (y) = 0.53220 0.25110
# Poissons Ratio (z) = 0.16996 0.16996
#
# Static dielectric constant tensor:
#      x y z
#    x 3.378430 0.000000 0.000000 
#    y 0.000000 3.378430 0.000000 
#    z 0.000000 0.000000 3.522090 
# 
# 
# High freq. dielectric constant tensor:
#      x y z
#    x 1.717610 0.000000 0.000000 
#    y 0.000000 1.717610 0.000000 
#    z 0.000000 0.000000 1.739040 
# 
# From -- ./inp_files/2613.got.cif
#   From: 2010.03.12/outbox.cif.g09.slc.cpg/sg188_2_cif.got.tgz:2613.got - 2010.04.01 12:01:06.
