data_PCOD8327878
_publ_section_title
;
Structure prediction by ZEFSAII (Michael W. Deem and Ramdas Pophale) SiO2 
 PCOD8327878
Probable space group: P -6 2 M
;
_chemical_formula_sum "Si O2"
_cell_formula_units_Z 48
_cell_length_a 17.770402
_cell_length_b 17.770402
_cell_length_c 8.535028
_cell_angle_alpha 90.000000
_cell_angle_beta 90.000000
_cell_angle_gamma 120.000000
_cell_volume 2334.157122
_symmetry_space_group_name_H-M "P -6 2 M"
_symmetry_group_IT_number 189
_symmetry_cell_setting 'hexagonal'
loop_
_space_group_symop_operation_xyz
x,y,z
-x+y,-x,-z
-y,x-y,z
x,y,-z
-x+y,-x,z
-y,x-y,-z
x-y,-y,-z
-x,-x+y,-z
y,x,-z
y,x,z
x-y,-y,z
-x,-x+y,z
loop_
_atom_site_type_symbol
_atom_site_label
_atom_site_fract_x
_atom_site_fract_y
_atom_site_fract_z
Si Si1 0.211672 0.211672 0.685650
Si Si2 0.553734 0.391354 0.315967
Si Si3 0.728667 0.518822 0.816470
Si Si4 0.379521 0.379521 0.685538
Si Si5 0.816443 0.717633 0.814591
O O1 0.208922 0.208922 0.500000
O O2 0.295977 0.295977 0.755673
O O3 0.216513 0.128608 0.746876
O O4 0.569326 0.410393 0.500000
O O5 0.626755 0.473472 0.221055
O O6 0.544370 0.298853 0.275240
O O7 0.464492 0.381148 0.252341
O O8 0.778146 0.618431 0.753071
O O9 0.744917 0.517002 0.000000
O O10 0.374902 0.374902 0.500000
O O11 0.752439 0.752439 0.758133
O O12 0.822234 0.719073 0.000000
#
# Coordination Sequence:
#
# PCOD8327878 Si02
#       5
#     6  12  12   6  12
#     4  11  21  41  69  95 122 153 202 259 309 370
#     4  11  22  39  60  85 119 161 200 244 300 359
#     4  11  23  39  60  89 123 160 205 254 296 351
#     4   9  20  37  59  87 116 149 196 245 293 356
#     4  10  23  43  65  91 125 163 203 250 310 373
#
# _framework density 20.564167999999999
#
# number of rings (size 3 to 8) (size 9 to 14) (size 15 to 20)
#    0.000    1.500    2.500    2.375    1.750    1.500 
#    0.750    1.875    0.000    0.000    0.000    0.000 
#    0.000    0.000    0.000    0.000    0.000    0.000 
#
# Total GULP energy -595254.680656 kJ/mol
# GULP energy per Si atom -12401.139180 kJ/mol
# Density = 2.051736 g / cm^3
# Si number density = 20.564168 Si / 1000 Ang^3
#
#
#
# Elastic Constant Matrix: (Units=GPa)
#
#
# Indices 1 2 3 4 5 6 
#
# 1 107.5505 41.8725 23.0217 0.0000 0.0000 0.0000
# 2 41.8725 107.5505 23.0217 0.0000 0.0000 0.0000
# 3 23.0217 23.0217 34.9866 0.0000 0.0000 0.0000
# 4 0.0000 0.0000 0.0000 26.1605 0.0000 0.0000
# 5 0.0000 0.0000 0.0000 0.0000 26.1605 0.0000
# 6 0.0000 0.0000 0.0000 0.0000 0.0000 32.8390
#
#
#
# Elastic Compliance Matrix: (Units=1/GPa)
#
#
# Indices 1 2 3 4 5 6 
#
# 1 0.011810 -0.003416 -0.005524 0.000000 0.000000 0.000000
# 2 -0.003416 0.011810 -0.005524 0.000000 0.000000 0.000000
# 3 -0.005524 -0.005524 0.035852 0.000000 0.000000 0.000000
# 4 0.000000 0.000000 0.000000 0.038226 0.000000 0.000000
# 5 0.000000 0.000000 0.000000 0.000000 0.038226 0.000000
# 6 0.000000 0.000000 0.000000 0.000000 0.000000 0.030452
#
#
# Mechanical properties :
#
#
# Convention : Reuss Voigt Hill
#
# Bulk Modulus (GPa) = 32.73760 47.32437 40.03098
# Shear Modulus (GPa) = 24.33292 27.84343 26.08818
#
# Velocity S-wave (km/s) = 3.44360 3.68364 3.56564
# Velocity P-wave (km/s) = 5.63608 6.41523 6.03824
#
# Compressibility (1/GPa) = 0.03054592
#
# Stress axis : x y z
#
# Youngs Moduli (GPa) = 84.67299 84.67299 27.89267
#
# Poissons Ratio (x) = 0.28921 0.15407
# Poissons Ratio (y) = 0.28921 0.15407
# Poissons Ratio (z) = 0.46771 0.46771
#
# Static dielectric constant tensor:
#      x y z
#    x 3.889890 0.000000 0.000000 
#    y 0.000000 3.889890 0.000000 
#    z 0.000000 0.000000 3.400460 
# 
# 
# High freq. dielectric constant tensor:
#      x y z
#    x 1.809500 0.000000 0.000000 
#    y 0.000000 1.809500 0.000000 
#    z 0.000000 0.000000 1.790320 
# 
# From -- ./inp_files/640.got.cif
#   From: 2010.03.12/outbox.cif.g09.slc.cpg/sg189_1_cif.got.tgz:640.got - 2010.04.01 12:03:36.
