data_PCOD8327185
_publ_section_title
;
Structure prediction by ZEFSAII (Michael W. Deem and Ramdas Pophale) SiO2 
 PCOD8327185
Probable space group: P -6 M 2
;
_chemical_formula_sum "Si O2"
_cell_formula_units_Z 78
_cell_length_a 22.909429
_cell_length_b 22.909429
_cell_length_c 9.214260
_cell_angle_alpha 90.000000
_cell_angle_beta 90.000000
_cell_angle_gamma 120.000000
_cell_volume 4188.124892
_symmetry_space_group_name_H-M "P -6 M 2"
_symmetry_group_IT_number 187
_symmetry_cell_setting 'hexagonal'
loop_
_space_group_symop_operation_xyz
x,y,z
-x+y,-x,-z
-y,x-y,z
x,y,-z
-x+y,-x,z
-y,x-y,-z
-y,-x,-z
-x+y,y,-z
x,x-y,-z
-x+y,y,z
x,x-y,z
-y,-x,z
loop_
_atom_site_type_symbol
_atom_site_label
_atom_site_fract_x
_atom_site_fract_y
_atom_site_fract_z
Si Si1 0.732924 0.133383 0.336335
Si Si2 0.801280 0.064318 0.828664
Si Si3 0.920761 0.528434 0.833210
Si Si4 0.204402 0.276240 0.669148
Si Si5 0.045332 0.586608 0.345094
Si Si6 0.330313 0.802397 0.000000
Si Si7 0.278391 0.427317 0.734129
O O1 0.717846 0.103717 0.500000
O O2 0.789588 0.210413 0.338725
O O3 0.752278 0.088923 0.235225
O O4 0.668962 0.133152 0.263881
O O5 0.879378 0.120623 0.797129
O O6 0.782236 0.995199 0.746192
O O7 0.788445 0.051809 0.000000
O O8 0.908832 0.454416 0.805953
O O9 0.995168 0.584890 0.778984
O O10 0.913201 0.541991 0.000000
O O11 0.228379 0.286770 0.500000
O O12 0.125171 0.250342 0.676329
O O13 0.245371 0.346624 0.759242
O O14 0.006597 0.564545 0.500000
O O15 0.071861 0.535931 0.300230
O O16 0.109051 0.660015 0.374007
O O17 0.314230 0.838347 0.869859
O O18 0.278271 0.721730 0.000000
O O19 0.407372 0.814744 0.000000
O O20 0.220165 0.440329 0.668768
#
# Coordination Sequence:
#
# PCOD8327185 Si02
#       7
#    12  12  12  12  12   6  12
#     4  10  20  34  54  79 107 141 177 216 263 314
#     4  10  21  36  57  85 114 146 184 224 271 325
#     4  10  21  35  53  78 106 138 174 216 266 317
#     4  10  21  36  56  83 115 151 187 226 278 337
#     4  10  20  33  51  74 100 135 175 216 267 326
#     4  10  21  36  54  76 103 140 186 238 292 344
#     4  10  21  34  51  75 102 137 179 224 278 331
#
# _framework density 18.624088
#
# number of rings (size 3 to 8) (size 9 to 14) (size 15 to 20)
#    0.000    2.000    0.000    3.308    2.154    4.000 
#    0.000    0.000    0.000    0.923    0.000    0.000 
#    0.000    0.000    0.000    0.000    0.000    0.000 
#
# Total GULP energy -966360.107198 kJ/mol
# GULP energy per Si atom -12389.232144 kJ/mol
# Density = 1.858170 g / cm^3
# Si number density = 18.624088 Si / 1000 Ang^3
#
#
#
# Elastic Constant Matrix: (Units=GPa)
#
#
# Indices 1 2 3 4 5 6 
#
# 1 104.2722 52.2240 56.4759 0.0000 -0.0001 0.0000
# 2 52.2240 104.2722 56.4759 0.0000 0.0001 0.0000
# 3 56.4759 56.4759 117.3647 0.0000 0.0000 0.0000
# 4 0.0000 0.0000 0.0000 27.8313 0.0000 0.0001
# 5 -0.0001 0.0001 0.0000 0.0000 27.8313 0.0000
# 6 0.0000 0.0000 0.0000 0.0001 0.0000 26.0241
#
#
#
# Elastic Compliance Matrix: (Units=1/GPa)
#
#
# Indices 1 2 3 4 5 6 
#
# 1 0.014502 -0.004711 -0.004711 0.000000 0.000000 0.000000
# 2 -0.004711 0.014502 -0.004711 0.000000 0.000000 0.000000
# 3 -0.004711 -0.004711 0.013054 0.000000 0.000000 0.000000
# 4 0.000000 0.000000 0.000000 0.035931 0.000000 0.000000
# 5 0.000000 0.000000 0.000000 0.000000 0.035931 0.000000
# 6 0.000000 0.000000 0.000000 0.000000 0.000000 0.038426
#
#
# Mechanical properties :
#
#
# Convention : Reuss Voigt Hill
#
# Bulk Modulus (GPa) = 72.51347 72.91783 72.71565
# Shear Modulus (GPa) = 26.99657 27.05288 27.02472
#
# Velocity S-wave (km/s) = 3.81143 3.81540 3.81341
# Velocity P-wave (km/s) = 7.64128 7.65814 7.64972
#
# Compressibility (1/GPa) = 0.01379054
#
# Stress axis : x y z
#
# Youngs Moduli (GPa) = 68.95815 68.95815 76.60296
#
# Poissons Ratio (x) = 0.32489 0.36088
# Poissons Ratio (y) = 0.32489 0.36088
# Poissons Ratio (z) = 0.32486 0.32486
#
# Static dielectric constant tensor:
#      x y z
#    x 3.408910 0.000000 0.000000 
#    y 0.000000 3.408910 0.000000 
#    z 0.000000 0.000000 3.536260 
# 
# 
# High freq. dielectric constant tensor:
#      x y z
#    x 1.712930 0.000000 0.000000 
#    y 0.000000 1.712930 0.000000 
#    z 0.000000 0.000000 1.733550 
# 
# From -- ./inp_files/1183.got.cif
#   From: 2010.03.12/outbox.cif.g09.slc.cpg/sg187_1_cif.got.tgz:1183.got - 2010.04.01 11:58:23.
