data_PCOD8327164
_publ_section_title
;
Structure prediction by ZEFSAII (Michael W. Deem and Ramdas Pophale) SiO2 
 PCOD8327164
Probable space group: P -6 M 2
;
_chemical_formula_sum "Si O2"
_cell_formula_units_Z 60
_cell_length_a 16.979948
_cell_length_b 16.979948
_cell_length_c 14.088731
_cell_angle_alpha 90.000000
_cell_angle_beta 90.000000
_cell_angle_gamma 120.000000
_cell_volume 3517.833016
_symmetry_space_group_name_H-M "P -6 M 2"
_symmetry_group_IT_number 187
_symmetry_cell_setting 'hexagonal'
loop_
_space_group_symop_operation_xyz
x,y,z
-x+y,-x,-z
-y,x-y,z
x,y,-z
-x+y,-x,z
-y,x-y,-z
-y,-x,-z
-x+y,y,-z
x,x-y,-z
-x+y,y,z
x,x-y,z
-y,-x,z
loop_
_atom_site_type_symbol
_atom_site_label
_atom_site_fract_x
_atom_site_fract_y
_atom_site_fract_z
Si Si1 0.001297 0.817118 0.252389
Si Si2 0.024356 0.333605 0.387774
Si Si3 0.843693 0.333331 0.387240
Si Si4 0.150408 0.482435 0.251674
Si Si5 0.259912 0.332959 0.894295
O O1 0.904558 0.809115 0.259942
O O2 0.021296 0.777710 0.347672
O O3 0.000853 0.757893 0.162146
O O4 0.077873 0.922128 0.241156
O O5 0.034122 0.333901 0.500000
O O6 0.111141 0.423553 0.347296
O O7 0.933734 0.333429 0.354009
O O8 0.838940 0.333314 0.500000
O O9 0.845095 0.422548 0.345931
O O10 0.755975 0.244026 0.345919
O O11 0.255382 0.510763 0.240397
O O12 0.142473 0.571237 0.258495
O O13 0.090981 0.423177 0.161765
O O14 0.166467 0.332934 0.898891
O O15 0.296704 0.332763 0.000000
#
# Coordination Sequence:
#
# PCOD8327164 Si02
#       5
#    12  12  12  12  12
#     4  10  20  33  50  72  97 126 163 208 254 298
#     4  10  20  34  49  65  92 133 173 206 248 302
#     4   9  16  26  42  64  88 114 148 193 242 290
#     4  10  20  33  50  72  97 126 163 208 254 298
#     4   8  16  32  51  71  97 126 153 186 235 294
#
# _framework density 17.055954
#
# number of rings (size 3 to 8) (size 9 to 14) (size 15 to 20)
#    0.000    2.600    0.000    3.600    0.000    5.600 
#    0.000    0.000    0.000    4.800    0.000    0.000 
#    0.000    0.000    0.000    0.000    0.000   59.600 
#
# Total GULP energy -743940.412215 kJ/mol
# GULP energy per Si atom -12399.006870 kJ/mol
# Density = 1.701713 g / cm^3
# Si number density = 17.055954 Si / 1000 Ang^3
#
#
#
# Elastic Constant Matrix: (Units=GPa)
#
#
# Indices 1 2 3 4 5 6 
#
# 1 97.4828 36.1635 33.9492 0.0000 -0.0002 0.0000
# 2 36.1635 97.4828 33.9492 0.0000 0.0002 0.0000
# 3 33.9492 33.9492 108.5214 0.0000 0.0000 0.0000
# 4 0.0000 0.0000 0.0000 11.0187 0.0000 0.0002
# 5 -0.0002 0.0002 0.0000 0.0000 11.0187 0.0000
# 6 0.0000 0.0000 0.0000 0.0002 0.0000 30.6596
#
#
#
# Elastic Compliance Matrix: (Units=1/GPa)
#
#
# Indices 1 2 3 4 5 6 
#
# 1 0.012602 -0.003706 -0.002783 0.000000 0.000000 0.000000
# 2 -0.003706 0.012602 -0.002783 0.000000 0.000000 0.000000
# 3 -0.002783 -0.002783 0.010956 0.000000 0.000000 0.000000
# 4 0.000000 0.000000 0.000000 0.090755 0.000000 -0.000001
# 5 0.000000 0.000000 0.000000 0.000000 0.090755 0.000000
# 6 0.000000 0.000000 0.000000 -0.000001 0.000000 0.032616
#
#
# Mechanical properties :
#
#
# Convention : Reuss Voigt Hill
#
# Bulk Modulus (GPa) = 56.76514 56.84567 56.80540
# Shear Modulus (GPa) = 18.20152 23.83442 21.01797
#
# Velocity S-wave (km/s) = 3.27029 3.74227 3.51421
# Velocity P-wave (km/s) = 6.90027 7.21624 7.06002
#
# Compressibility (1/GPa) = 0.01761644
#
# Stress axis : x y z
#
# Youngs Moduli (GPa) = 79.35107 79.35107 91.27362
#
# Poissons Ratio (x) = 0.29406 0.25402
# Poissons Ratio (y) = 0.29406 0.25402
# Poissons Ratio (z) = 0.22084 0.22084
#
# Static dielectric constant tensor:
#      x y z
#    x 3.184060 0.000000 0.000000 
#    y 0.000000 3.184060 0.000000 
#    z 0.000000 0.000000 3.227210 
# 
# 
# High freq. dielectric constant tensor:
#      x y z
#    x 1.657260 0.000000 0.000000 
#    y 0.000000 1.657260 0.000000 
#    z 0.000000 0.000000 1.635240 
# 
# From -- ./inp_files/2353.got.cif
#   From: 2010.03.12/outbox.cif.g09.slc.cpg/sg187_2_cif.got.tgz:2353.got - 2010.04.01 11:58:23.
