data_PCOD8327233
_publ_section_title
;
Structure prediction by ZEFSAII (Michael W. Deem and Ramdas Pophale) SiO2 
 PCOD8327233
Probable space group: P -6 M 2
;
_chemical_formula_sum "Si O2"
_cell_formula_units_Z 78
_cell_length_a 23.690328
_cell_length_b 23.690328
_cell_length_c 7.810776
_cell_angle_alpha 90.000000
_cell_angle_beta 90.000000
_cell_angle_gamma 120.000000
_cell_volume 3796.356271
_symmetry_space_group_name_H-M "P -6 M 2"
_symmetry_group_IT_number 187
_symmetry_cell_setting 'hexagonal'
loop_
_space_group_symop_operation_xyz
x,y,z
-x+y,-x,-z
-y,x-y,z
x,y,-z
-x+y,-x,z
-y,x-y,-z
-y,-x,-z
-x+y,y,-z
x,x-y,-z
-x+y,y,z
x,x-y,z
-y,-x,z
loop_
_atom_site_type_symbol
_atom_site_label
_atom_site_fract_x
_atom_site_fract_y
_atom_site_fract_z
Si Si1 0.125901 0.125301 0.797431
Si Si2 0.199206 0.533244 0.500000
Si Si3 0.383642 0.486668 0.194263
Si Si4 0.195135 0.929083 0.300357
Si Si5 0.006987 0.661007 0.295393
Si Si6 0.398584 0.261415 0.305891
Si Si7 0.793501 0.333857 0.801898
O O1 0.137336 0.068668 0.720639
O O2 0.184678 0.194594 0.737201
O O3 0.057899 0.115798 0.724643
O O4 0.123391 0.121622 0.000000
O O5 0.265664 0.531328 0.500000
O O6 0.216052 0.608026 0.500000
O O7 0.158467 0.495751 0.669885
O O8 0.458016 0.541985 0.227666
O O9 0.381660 0.418299 0.220618
O O10 0.362026 0.491406 0.000000
O O11 0.194123 0.917707 0.500000
O O12 0.137246 0.862755 0.213288
O O13 0.265267 0.946075 0.228425
O O14 0.004075 0.655588 0.500000
O O15 0.934568 0.637799 0.219434
O O16 0.374763 0.245309 0.500000
O O17 0.384681 0.192341 0.217682
O O18 0.475273 0.313016 0.304109
O O19 0.807282 0.403641 0.733876
O O20 0.717408 0.282593 0.774273
O O21 0.812589 0.337379 0.000000
#
# Coordination Sequence:
#
# PCOD8327233 Si02
#       7
#    12   6  12  12  12  12  12
#     4   9  17  30  48  70  98 134 175 220 272 331
#     4  10  21  40  66  96 131 166 200 240 290 350
#     4  10  22  40  62  91 126 161 201 248 293 344
#     4   9  19  34  51  74 103 132 170 221 272 325
#     4  10  20  36  57  80 108 151 191 235 293 349
#     4   9  19  34  50  71 103 141 186 235 285 345
#     4   9  17  30  48  70  97 130 169 216 271 328
#
# _framework density 20.546016999999999
#
# number of rings (size 3 to 8) (size 9 to 14) (size 15 to 20)
#    0.000    2.615    0.769    0.385    0.000    5.231 
#    0.000    4.615    0.000    4.615    0.000    0.000 
#    0.000    0.000    0.000    0.000    0.000    0.000 
#
# Total GULP energy -966759.271320 kJ/mol
# GULP energy per Si atom -12394.349632 kJ/mol
# Density = 2.049925 g / cm^3
# Si number density = 20.546017 Si / 1000 Ang^3
#
#
#
# Elastic Constant Matrix: (Units=GPa)
#
#
# Indices 1 2 3 4 5 6 
#
# 1 126.0033 73.9804 27.9149 0.0000 0.0006 0.0000
# 2 73.9804 126.0033 27.9149 0.0000 -0.0006 0.0000
# 3 27.9149 27.9149 54.1176 0.0000 0.0000 0.0000
# 4 0.0000 0.0000 0.0000 16.7961 0.0000 -0.0006
# 5 0.0006 -0.0006 0.0000 0.0000 16.7961 0.0000
# 6 0.0000 0.0000 0.0000 -0.0006 0.0000 26.0114
#
#
#
# Elastic Compliance Matrix: (Units=1/GPa)
#
#
# Indices 1 2 3 4 5 6 
#
# 1 0.012532 -0.006690 -0.003013 0.000000 -0.000001 0.000000
# 2 -0.006690 0.012532 -0.003013 0.000000 0.000001 0.000000
# 3 -0.003013 -0.003013 0.021587 0.000000 0.000000 0.000000
# 4 0.000000 0.000000 0.000000 0.059537 0.000000 0.000001
# 5 -0.000001 0.000001 0.000000 0.000000 0.059537 0.000000
# 6 0.000000 0.000000 0.000000 0.000001 0.000000 0.038445
#
#
# Mechanical properties :
#
#
# Convention : Reuss Voigt Hill
#
# Bulk Modulus (GPa) = 47.13159 62.86050 54.99604
# Shear Modulus (GPa) = 21.12590 23.67501 22.40046
#
# Velocity S-wave (km/s) = 3.21007 3.39823 3.30549
# Velocity P-wave (km/s) = 6.06042 6.78665 6.43379
#
# Compressibility (1/GPa) = 0.02121719
#
# Stress axis : x y z
#
# Youngs Moduli (GPa) = 79.79597 79.79597 46.32456
#
# Poissons Ratio (x) = 0.53386 0.13959
# Poissons Ratio (y) = 0.53386 0.13959
# Poissons Ratio (z) = 0.24044 0.24044
#
# Static dielectric constant tensor:
#      x y z
#    x 3.853260 0.000000 0.000000 
#    y 0.000000 3.853260 0.000000 
#    z 0.000000 0.000000 3.523530 
# 
# 
# High freq. dielectric constant tensor:
#      x y z
#    x 1.798890 0.000000 0.000000 
#    y 0.000000 1.798890 0.000000 
#    z 0.000000 0.000000 1.785080 
# 
# From -- ./inp_files/1178.got.cif
#   From: 2010.03.12/outbox.cif.g09.slc.cpg/sg187_1_cif.got.tgz:1178.got - 2010.04.01 11:58:23.
