data_PCOD8327101
_publ_section_title
;
Structure prediction by ZEFSAII (Michael W. Deem and Ramdas Pophale) SiO2 
 PCOD8327101
Probable space group: P -6 M 2
;
_chemical_formula_sum "Si O2"
_cell_formula_units_Z 66
_cell_length_a 12.621288
_cell_length_b 12.621288
_cell_length_c 28.310628
_cell_angle_alpha 90.000000
_cell_angle_beta 90.000000
_cell_angle_gamma 120.000000
_cell_volume 3905.597540
_symmetry_space_group_name_H-M "P -6 M 2"
_symmetry_group_IT_number 187
_symmetry_cell_setting 'hexagonal'
loop_
_space_group_symop_operation_xyz
x,y,z
-x+y,-x,-z
-y,x-y,z
x,y,-z
-x+y,-x,z
-y,x-y,-z
-y,-x,-z
-x+y,y,-z
x,x-y,-z
-x+y,y,z
x,x-y,z
-y,-x,z
loop_
_atom_site_type_symbol
_atom_site_label
_atom_site_fract_x
_atom_site_fract_y
_atom_site_fract_z
Si Si1 0.913406 0.334497 0.863369
Si Si2 0.913891 0.583114 0.602389
Si Si3 0.581124 0.914957 0.224530
Si Si4 0.333686 0.423004 0.053941
Si Si5 0.248236 0.249191 0.312372
Si Si6 0.425199 0.331055 0.500000
O O1 0.872468 0.436234 0.862417
O O2 0.796283 0.203718 0.855698
O O3 0.009520 0.357280 0.822500
O O4 0.975086 0.335418 0.913285
O O5 0.774077 0.548154 0.611611
O O6 0.921618 0.460809 0.607438
O O7 0.959229 0.645763 0.549856
O O8 0.002266 0.682126 0.640186
O O9 0.449808 0.899616 0.234137
O O10 0.564257 0.782129 0.218173
O O11 0.666975 0.987270 0.268231
O O12 0.204452 0.408903 0.067779
O O13 0.435981 0.564020 0.062390
O O14 0.334650 0.383456 0.000000
O O15 0.110973 0.221945 0.315227
O O16 0.244430 0.122215 0.306414
O O17 0.533465 0.466536 0.500000
O O18 0.479281 0.239641 0.500000
#
# Coordination Sequence:
#
# PCOD8327101 Si02
#       6
#    12  12  12  12  12   6
#     4  10  20  33  49  70  97 128 159 190 227 274
#     4   9  16  27  45  69  94 118 147 187 236 284
#     4  10  20  34  53  75  96 118 148 191 241 287
#     4   9  17  30  50  75 100 126 158 199 245 287
#     4  10  20  33  48  66  92 127 163 194 224 266
#     4   8  13  22  39  64  92 118 144 180 230 284
#
# _framework density 16.898823
#
# number of rings (size 3 to 8) (size 9 to 14) (size 15 to 20)
#    0.000    2.545    0.000    2.636    0.000    2.545 
#    0.000    2.273    0.000   11.273    0.000    1.273 
#    0.000    0.000    0.000    0.000    0.000    0.000 
#
# Total GULP energy -818153.573048 kJ/mol
# GULP energy per Si atom -12396.266258 kJ/mol
# Density = 1.686036 g / cm^3
# Si number density = 16.898823 Si / 1000 Ang^3
#
#
#
# Elastic Constant Matrix: (Units=GPa)
#
#
# Indices 1 2 3 4 5 6 
#
# 1 81.9780 45.5999 55.1247 0.0000 0.0000 0.0000
# 2 45.5999 81.9780 55.1247 0.0000 0.0000 0.0000
# 3 55.1247 55.1247 128.8863 0.0000 0.0000 0.0000
# 4 0.0000 0.0000 0.0000 24.7832 0.0000 0.0000
# 5 0.0000 0.0000 0.0000 0.0000 24.7832 0.0000
# 6 0.0000 0.0000 0.0000 0.0000 0.0000 18.1890
#
#
#
# Elastic Compliance Matrix: (Units=1/GPa)
#
#
# Indices 1 2 3 4 5 6 
#
# 1 0.019962 -0.007527 -0.005318 0.000000 0.000000 0.000000
# 2 -0.007527 0.019962 -0.005318 0.000000 0.000000 0.000000
# 3 -0.005318 -0.005318 0.012308 0.000000 0.000000 0.000000
# 4 0.000000 0.000000 0.000000 0.040350 0.000000 0.000000
# 5 0.000000 0.000000 0.000000 0.000000 0.040350 0.000000
# 6 0.000000 0.000000 0.000000 0.000000 0.000000 0.054978
#
#
# Mechanical properties :
#
#
# Convention : Reuss Voigt Hill
#
# Bulk Modulus (GPa) = 62.87818 67.17120 65.02469
# Shear Modulus (GPa) = 21.78294 22.68395 22.23344
#
# Velocity S-wave (km/s) = 3.59419 3.66777 3.63117
# Velocity P-wave (km/s) = 7.38334 7.60079 7.49285
#
# Compressibility (1/GPa) = 0.01590377
#
# Stress axis : x y z
#
# Youngs Moduli (GPa) = 50.09624 50.09624 81.24893
#
# Poissons Ratio (x) = 0.37710 0.43209
# Poissons Ratio (y) = 0.37710 0.43209
# Poissons Ratio (z) = 0.26641 0.26641
#
# Static dielectric constant tensor:
#      x y z
#    x 3.003410 0.000000 0.000000 
#    y 0.000000 3.003410 0.000000 
#    z 0.000000 0.000000 3.583920 
# 
# 
# High freq. dielectric constant tensor:
#      x y z
#    x 1.637790 0.000000 0.000000 
#    y 0.000000 1.637790 0.000000 
#    z 0.000000 0.000000 1.674250 
# 
# From -- ./inp_files/4422.got.cif
#   From: 2010.03.12/outbox.cif.g09.slc.cpg/sg187_3_cif.got.tgz:4422.got - 2010.04.01 11:58:23.
