data_PCOD8327498
_publ_section_title
;
Structure prediction by ZEFSAII (Michael W. Deem and Ramdas Pophale) SiO2 
 PCOD8327498
Probable space group: P -6 2 M
;
_chemical_formula_sum "Si O2"
_cell_formula_units_Z 72
_cell_length_a 23.569054
_cell_length_b 23.569054
_cell_length_c 9.078795
_cell_angle_alpha 90.000000
_cell_angle_beta 90.000000
_cell_angle_gamma 120.000000
_cell_volume 4367.602887
_symmetry_space_group_name_H-M "P -6 2 M"
_symmetry_group_IT_number 189
_symmetry_cell_setting 'hexagonal'
loop_
_space_group_symop_operation_xyz
x,y,z
-x+y,-x,-z
-y,x-y,z
x,y,-z
-x+y,-x,z
-y,x-y,-z
x-y,-y,-z
-x,-x+y,-z
y,x,-z
y,x,z
x-y,-y,z
-x,-x+y,z
loop_
_atom_site_type_symbol
_atom_site_label
_atom_site_fract_x
_atom_site_fract_y
_atom_site_fract_z
Si Si1 0.487684 0.331976 0.173607
Si Si2 0.000000 0.288777 0.169929
Si Si3 0.475172 0.212047 0.329577
Si Si4 0.407649 0.000000 0.672653
Si Si5 0.801807 0.659452 0.172706
Si Si6 0.461067 0.588207 0.330827
Si Si7 0.661384 0.927876 0.173435
O O1 0.506011 0.282105 0.251188
O O2 0.537729 0.404316 0.226009
O O3 0.414126 0.313303 0.220192
O O4 0.493555 0.326615 0.000000
O O5 0.066361 0.286161 0.206788
O O6 0.000000 0.346473 0.257071
O O7 0.000000 0.305662 0.000000
O O8 0.461595 0.218564 0.500000
O O9 0.406826 0.158979 0.256749
O O10 0.528463 0.189060 0.311527
O O11 0.397215 0.000000 0.500000
O O12 0.473983 0.063089 0.723593
O O13 0.876827 0.685182 0.225256
O O14 0.796194 0.642120 0.000000
O O15 0.444396 0.564799 0.500000
O O16 0.706363 0.000000 0.246566
O O17 0.668041 0.936094 0.000000
#
# Coordination Sequence:
#
# PCOD8327498 Si02
#       7
#    12   6  12   6  12  12  12
#     4  10  21  34  51  71  93 121 158 204 247 293
#     4  10  18  28  46  74 102 126 154 195 242 287
#     4  10  19  34  53  68  90 123 158 197 243 294
#     4  10  20  34  50  72 100 128 160 195 238 297
#     4   9  17  29  47  71  98 124 155 195 237 282
#     4  10  21  35  51  71  96 126 159 199 244 294
#     4   8  15  29  47  67  92 122 155 190 230 276
#
# _framework density 16.485015000000001
#
# number of rings (size 3 to 8) (size 9 to 14) (size 15 to 20)
#    0.000    2.500    1.667    2.000    1.167    2.000 
#    1.000    0.000    0.000    4.500    0.000    0.000 
#    0.833    0.000    2.500    0.000    0.000    0.000 
#
# Total GULP energy -892489.290165 kJ/mol
# GULP energy per Si atom -12395.684586 kJ/mol
# Density = 1.644749 g / cm^3
# Si number density = 16.485015 Si / 1000 Ang^3
#
#
#
# Elastic Constant Matrix: (Units=GPa)
#
#
# Indices 1 2 3 4 5 6 
#
# 1 108.8776 71.5869 33.6811 0.0000 0.0000 0.0000
# 2 71.5869 108.8776 33.6811 0.0000 0.0000 0.0000
# 3 33.6811 33.6811 52.7843 0.0000 0.0000 0.0000
# 4 0.0000 0.0000 0.0000 18.4794 0.0000 0.0000
# 5 0.0000 0.0000 0.0000 0.0000 18.4794 0.0000
# 6 0.0000 0.0000 0.0000 0.0000 0.0000 18.6453
#
#
#
# Elastic Compliance Matrix: (Units=1/GPa)
#
#
# Indices 1 2 3 4 5 6 
#
# 1 0.017045 -0.009771 -0.004641 0.000000 0.000000 0.000000
# 2 -0.009771 0.017045 -0.004641 0.000000 0.000000 0.000000
# 3 -0.004641 -0.004641 0.024868 0.000000 0.000000 0.000000
# 4 0.000000 0.000000 0.000000 0.054114 0.000000 0.000000
# 5 0.000000 0.000000 0.000000 0.000000 0.054114 0.000000
# 6 0.000000 0.000000 0.000000 0.000000 0.000000 0.053633
#
#
# Mechanical properties :
#
#
# Convention : Reuss Voigt Hill
#
# Bulk Modulus (GPa) = 47.96064 60.93755 54.44909
# Shear Modulus (GPa) = 18.80568 19.89353 19.34960
#
# Velocity S-wave (km/s) = 3.38120 3.47762 3.42975
# Velocity P-wave (km/s) = 6.66333 7.29183 6.98465
#
# Compressibility (1/GPa) = 0.02085043
#
# Stress axis : x y z
#
# Youngs Moduli (GPa) = 58.66812 58.66812 40.21208
#
# Poissons Ratio (x) = 0.57326 0.18664
# Poissons Ratio (y) = 0.57326 0.18664
# Poissons Ratio (z) = 0.27230 0.27230
#
# Static dielectric constant tensor:
#      x y z
#    x 3.258690 0.000000 0.000000 
#    y 0.000000 3.258690 0.000000 
#    z 0.000000 0.000000 3.021660 
# 
# 
# High freq. dielectric constant tensor:
#      x y z
#    x 1.624940 0.000000 0.000000 
#    y 0.000000 1.624940 0.000000 
#    z 0.000000 0.000000 1.626340 
# 
# From -- ./inp_files/1364.got.cif
#   From: 2010.03.12/outbox.cif.g09.slc.cpg/sg189_1_cif.got.tgz:1364.got - 2010.04.01 12:03:36.
