data_PCOD8327484
_publ_section_title
;
Structure prediction by ZEFSAII (Michael W. Deem and Ramdas Pophale) SiO2 
 PCOD8327484
Probable space group: P -6 2 M
;
_chemical_formula_sum "Si O2"
_cell_formula_units_Z 78
_cell_length_a 23.599818
_cell_length_b 23.599818
_cell_length_c 10.058928
_cell_angle_alpha 90.000000
_cell_angle_beta 90.000000
_cell_angle_gamma 120.000000
_cell_volume 4851.763676
_symmetry_space_group_name_H-M "P -6 2 M"
_symmetry_group_IT_number 189
_symmetry_cell_setting 'hexagonal'
loop_
_space_group_symop_operation_xyz
x,y,z
-x+y,-x,-z
-y,x-y,z
x,y,-z
-x+y,-x,z
-y,x-y,-z
x-y,-y,-z
-x,-x+y,-z
y,x,-z
y,x,z
x-y,-y,z
-x,-x+y,z
loop_
_atom_site_type_symbol
_atom_site_label
_atom_site_fract_x
_atom_site_fract_y
_atom_site_fract_z
Si Si1 0.076136 0.376245 0.846083
Si Si2 0.406753 0.736125 0.500000
Si Si3 0.629549 0.799909 0.350702
Si Si4 0.125854 0.639767 0.150541
Si Si5 0.152877 0.527545 0.845392
Si Si6 0.296266 0.369538 0.347346
Si Si7 0.261918 0.512532 0.267601
O O1 0.111689 0.346129 0.756203
O O2 0.101492 0.451997 0.811332
O O3 0.000000 0.335980 0.812857
O O4 0.090559 0.369100 0.000000
O O5 0.396354 0.661848 0.500000
O O6 0.445454 0.768235 0.365804
O O7 0.652205 0.794147 0.500000
O O8 0.655955 0.876048 0.312112
O O9 0.551375 0.762477 0.347498
O O10 0.125132 0.574194 0.202756
O O11 0.081605 0.653696 0.251599
O O12 0.199424 0.702938 0.147551
O O13 0.098073 0.630046 0.000000
O O14 0.223995 0.549253 0.782484
O O15 0.166049 0.538656 0.000000
O O16 0.309803 0.395220 0.500000
O O17 0.308913 0.308913 0.328670
#
# Coordination Sequence:
#
# PCOD8327484 Si02
#       7
#    12   6  12  12  12  12  12
#     4   9  18  32  49  68  92 121 151 183 226 276
#     4  10  20  26  38  60  80 108 151 188 240 294
#     4   9  17  30  50  69  88 116 147 183 221 264
#     4  10  20  31  47  66  86 115 153 198 242 287
#     4   9  18  31  45  61  84 115 151 193 240 286
#     4   9  19  35  52  70  94 122 150 184 231 280
#     4  10  17  31  43  59  85 114 147 192 241 292
#
# _framework density 16.076626999999998
#
# number of rings (size 3 to 8) (size 9 to 14) (size 15 to 20)
#    0.154    2.462    0.769    1.385    1.077    4.923 
#    2.308    1.538    0.000    0.000    0.000    0.000 
#    0.000    0.000    0.000    0.462    0.000    7.077 
#
# Total GULP energy -966533.318498 kJ/mol
# GULP energy per Si atom -12391.452801 kJ/mol
# Density = 1.604004 g / cm^3
# Si number density = 16.076627 Si / 1000 Ang^3
#
#
#
# Elastic Constant Matrix: (Units=GPa)
#
#
# Indices 1 2 3 4 5 6 
#
# 1 69.3273 34.6159 38.1843 0.0000 0.0000 0.0000
# 2 34.6159 69.3273 38.1843 0.0000 0.0000 0.0000
# 3 38.1843 38.1843 72.8309 0.0000 0.0000 0.0000
# 4 0.0000 0.0000 0.0000 20.7321 0.0000 0.0000
# 5 0.0000 0.0000 0.0000 0.0000 20.7321 0.0000
# 6 0.0000 0.0000 0.0000 0.0000 0.0000 17.3557
#
#
#
# Elastic Compliance Matrix: (Units=1/GPa)
#
#
# Indices 1 2 3 4 5 6 
#
# 1 0.022229 -0.006580 -0.008204 0.000000 0.000000 0.000000
# 2 -0.006580 0.022229 -0.008204 0.000000 0.000000 0.000000
# 3 -0.008204 -0.008204 0.022333 0.000000 0.000000 0.000000
# 4 0.000000 0.000000 0.000000 0.048234 0.000000 0.000000
# 5 0.000000 0.000000 0.000000 0.000000 0.048234 0.000000
# 6 0.000000 0.000000 0.000000 0.000000 0.000000 0.057618
#
#
# Mechanical properties :
#
#
# Convention : Reuss Voigt Hill
#
# Bulk Modulus (GPa) = 48.04689 48.16163 48.10426
# Shear Modulus (GPa) = 18.26196 18.46401 18.36299
#
# Velocity S-wave (km/s) = 3.37402 3.39263 3.38334
# Velocity P-wave (km/s) = 6.71786 6.73566 6.72677
#
# Compressibility (1/GPa) = 0.02081300
#
# Stress axis : x y z
#
# Youngs Moduli (GPa) = 44.98679 44.98679 44.77624
#
# Poissons Ratio (x) = 0.29603 0.36736
# Poissons Ratio (y) = 0.29603 0.36736
# Poissons Ratio (z) = 0.36909 0.36909
#
# Static dielectric constant tensor:
#      x y z
#    x 2.904410 0.000000 0.000000 
#    y 0.000000 2.904410 0.000000 
#    z 0.000000 0.000000 3.096390 
# 
# 
# High freq. dielectric constant tensor:
#      x y z
#    x 1.588070 0.000000 0.000000 
#    y 0.000000 1.588070 0.000000 
#    z 0.000000 0.000000 1.625560 
# 
# From -- ./inp_files/1402.got.cif
#   From: 2010.03.12/outbox.cif.g09.slc.cpg/sg189_1_cif.got.tgz:1402.got - 2010.04.01 12:03:36.
