data_PCOD8327809
_publ_section_title
;
Structure prediction by ZEFSAII (Michael W. Deem and Ramdas Pophale) SiO2 
 PCOD8327809
Probable space group: P -6 2 M
;
_chemical_formula_sum "Si O2"
_cell_formula_units_Z 76
_cell_length_a 17.938916
_cell_length_b 17.938916
_cell_length_c 14.139766
_cell_angle_alpha 90.000000
_cell_angle_beta 90.000000
_cell_angle_gamma 120.000000
_cell_volume 3940.626255
_symmetry_space_group_name_H-M "P -6 2 M"
_symmetry_group_IT_number 189
_symmetry_cell_setting 'hexagonal'
loop_
_space_group_symop_operation_xyz
x,y,z
-x+y,-x,-z
-y,x-y,z
x,y,-z
-x+y,-x,z
-y,x-y,-z
x-y,-y,-z
-x,-x+y,-z
y,x,-z
y,x,z
x-y,-y,z
-x,-x+y,z
loop_
_atom_site_type_symbol
_atom_site_label
_atom_site_fract_x
_atom_site_fract_y
_atom_site_fract_z
Si Si1 0.200270 0.903407 0.719288
Si Si2 0.171722 0.631592 0.280554
Si Si3 0.358770 0.905413 0.803741
Si Si4 0.365101 0.264184 0.392778
Si Si5 0.333333 0.666667 0.389298
Si Si6 0.741311 0.227847 0.896131
Si Si7 0.100013 0.808493 0.893717
O O1 0.284985 0.895054 0.731391
O O2 0.143463 0.834823 0.639712
O O3 0.147814 0.885159 0.818175
O O4 0.226729 0.000000 0.686671
O O5 0.102402 0.533886 0.254948
O O6 0.126789 0.681393 0.324279
O O7 0.236161 0.627959 0.355187
O O8 0.224966 0.678131 0.185446
O O9 0.314227 0.834081 0.885120
O O10 0.404395 0.000000 0.851282
O O11 0.397397 0.267324 0.500000
O O12 0.302688 0.302688 0.386375
O O13 0.333334 0.666668 0.500000
O O14 0.747301 0.141467 0.887397
O O15 0.705459 0.231429 0.000000
O O16 0.000000 0.750933 0.867021
O O17 0.112005 0.847235 0.000000
#
# Coordination Sequence:
#
# PCOD8327809 Si02
#       7
#    12  12  12  12   4  12  12
#     4  10  20  37  59  85 116 153 194 236 290 354
#     4  12  21  40  58  87 117 155 194 249 299 345
#     4  10  21  37  58  83 117 155 196 239 286 342
#     4  11  23  39  62  89 115 148 192 245 300 351
#     4  12  24  39  61  83 112 159 204 240 298 359
#     4  10  21  36  56  84 118 155 195 235 290 353
#     4   9  17  32  57  87 116 148 188 234 284 341
#
# _framework density 19.286276000000001
#
# number of rings (size 3 to 8) (size 9 to 14) (size 15 to 20)
#    0.000    1.579    4.737    1.421    0.000    2.211 
#    0.000    3.947    0.000    4.421    0.000    0.000 
#    0.000    0.000    0.000    0.000    0.000    0.000 
#
# Total GULP energy -942323.352204 kJ/mol
# GULP energy per Si atom -12398.991476 kJ/mol
# Density = 1.924238 g / cm^3
# Si number density = 19.286276 Si / 1000 Ang^3
#
#
#
# Elastic Constant Matrix: (Units=GPa)
#
#
# Indices 1 2 3 4 5 6 
#
# 1 85.4102 42.6931 40.7111 0.0000 0.0000 0.0000
# 2 42.6931 85.4101 40.7110 0.0000 0.0000 0.0000
# 3 40.7111 40.7110 125.1911 0.0001 0.0000 0.0000
# 4 0.0000 0.0000 0.0001 22.7652 0.0000 0.0000
# 5 0.0000 0.0000 0.0000 0.0000 22.7650 0.0000
# 6 0.0000 0.0000 0.0000 0.0000 0.0000 21.3585
#
#
#
# Elastic Compliance Matrix: (Units=1/GPa)
#
#
# Indices 1 2 3 4 5 6 
#
# 1 0.016625 -0.006785 -0.003200 0.000000 0.000000 0.000000
# 2 -0.006785 0.016625 -0.003200 0.000000 0.000000 0.000000
# 3 -0.003200 -0.003200 0.010069 0.000000 0.000000 0.000000
# 4 0.000000 0.000000 0.000000 0.043927 0.000000 0.000000
# 5 0.000000 0.000000 0.000000 0.000000 0.043927 0.000000
# 6 0.000000 0.000000 0.000000 0.000000 0.000000 0.046820
#
#
# Mechanical properties :
#
#
# Convention : Reuss Voigt Hill
#
# Bulk Modulus (GPa) = 58.99894 60.47129 59.73511
# Shear Modulus (GPa) = 23.80819 24.83748 24.32283
#
# Velocity S-wave (km/s) = 3.51730 3.59253 3.55512
# Velocity P-wave (km/s) = 6.86679 6.97359 6.92040
#
# Compressibility (1/GPa) = 0.01694946
#
# Stress axis : x y z
#
# Youngs Moduli (GPa) = 60.15051 60.15051 99.31528
#
# Poissons Ratio (x) = 0.40812 0.31780
# Poissons Ratio (y) = 0.40812 0.31780
# Poissons Ratio (z) = 0.19248 0.19247
#
# Static dielectric constant tensor:
#      x y z
#    x 3.506570 0.000000 0.000000 
#    y 0.000000 3.506570 0.000000 
#    z 0.000000 0.000000 3.656790 
# 
# 
# High freq. dielectric constant tensor:
#      x y z
#    x 1.744330 0.000000 0.000000 
#    y 0.000000 1.744330 0.000000 
#    z 0.000000 0.000000 1.744950 
# 
# From -- ./inp_files/2738.got.cif
#   From: 2010.03.12/outbox.cif.g09.slc.cpg/sg189_2_cif.got.tgz:2738.got - 2010.04.01 12:03:36.
