data_PCOD8327014
_publ_section_title
;
Structure prediction by ZEFSAII (Michael W. Deem and Ramdas Pophale) SiO2 
 PCOD8327014
Probable space group: P -6 M 2
;
_chemical_formula_sum "Si O2"
_cell_formula_units_Z 60
_cell_length_a 12.682533
_cell_length_b 12.682533
_cell_length_c 26.043837
_cell_angle_alpha 90.000000
_cell_angle_beta 90.000000
_cell_angle_gamma 120.000000
_cell_volume 3627.835634
_symmetry_space_group_name_H-M "P -6 M 2"
_symmetry_group_IT_number 187
_symmetry_cell_setting 'hexagonal'
loop_
_space_group_symop_operation_xyz
x,y,z
-x+y,-x,-z
-y,x-y,z
x,y,-z
-x+y,-x,z
-y,x-y,-z
-y,-x,-z
-x+y,y,-z
x,x-y,-z
-x+y,y,z
x,x-y,z
-y,-x,z
loop_
_atom_site_type_symbol
_atom_site_label
_atom_site_fract_x
_atom_site_fract_y
_atom_site_fract_z
Si Si1 0.248171 0.002746 0.408836
Si Si2 0.247132 0.244928 0.813561
Si Si3 0.914013 0.335259 0.000000
Si Si4 0.580796 0.914202 0.500000
Si Si5 0.998336 0.236738 0.702274
Si Si6 0.333792 0.913482 0.905204
O O1 0.112067 0.887934 0.408929
O O2 0.333191 0.985947 0.449264
O O3 0.310750 0.022295 0.351725
O O4 0.239004 0.119502 0.425430
O O5 0.246462 0.123231 0.831699
O O6 0.309798 0.287244 0.756500
O O7 0.328311 0.354025 0.851971
O O8 0.107918 0.215836 0.812396
O O9 0.992932 0.347341 0.950249
O O10 0.795896 0.204105 0.000000
O O11 0.873769 0.436885 0.000000
O O12 0.453281 0.906561 0.500000
O O13 0.557975 0.778988 0.500000
O O14 0.136016 0.272032 0.702078
O O15 0.909260 0.090741 0.702076
O O16 0.441492 0.882984 0.901818
O O17 0.210329 0.789672 0.916780
#
# Coordination Sequence:
#
# PCOD8327014 Si02
#       6
#    12  12   6   6  12  12
#     4   9  16  27  46  71  94 112 135 176 230 280
#     4   9  16  27  45  69  96 123 150 182 223 271
#     4  10  20  34  52  72  92 114 144 186 234 278
#     4  10  20  32  44  58  82 118 156 188 216 256
#     4   8  13  22  39  65  94 119 141 170 217 275
#     4  10  20  33  49  68  93 126 161 193 221 255
#
# _framework density 16.538786999999999
#
# number of rings (size 3 to 8) (size 9 to 14) (size 15 to 20)
#    0.000    2.800    0.000    2.200    0.000    3.200 
#    0.000    3.000    0.000    4.800    0.000    2.800 
#    0.000    0.000    0.000    0.000    0.000    0.000 
#
# Total GULP energy -743340.187512 kJ/mol
# GULP energy per Si atom -12389.003125 kJ/mol
# Density = 1.650114 g / cm^3
# Si number density = 16.538787 Si / 1000 Ang^3
#
#
#
# Elastic Constant Matrix: (Units=GPa)
#
#
# Indices 1 2 3 4 5 6 
#
# 1 75.4986 33.9729 55.1385 0.0000 -0.0003 0.0000
# 2 33.9729 75.4986 55.1385 0.0000 0.0003 0.0000
# 3 55.1385 55.1385 151.6841 0.0000 0.0000 0.0000
# 4 0.0000 0.0000 0.0000 17.2230 0.0000 0.0003
# 5 -0.0003 0.0003 0.0000 0.0000 17.2230 0.0000
# 6 0.0000 0.0000 0.0000 0.0003 0.0000 20.7628
#
#
#
# Elastic Compliance Matrix: (Units=1/GPa)
#
#
# Indices 1 2 3 4 5 6 
#
# 1 0.019247 -0.004835 -0.005239 0.000000 0.000000 0.000000
# 2 -0.004835 0.019247 -0.005239 0.000000 0.000000 0.000000
# 3 -0.005239 -0.005239 0.010402 0.000000 0.000000 0.000000
# 4 0.000000 0.000000 0.000000 0.058062 0.000000 -0.000001
# 5 0.000000 0.000000 0.000000 0.000000 0.058062 0.000000
# 6 0.000000 0.000000 0.000000 -0.000001 0.000000 0.048163
#
#
# Mechanical properties :
#
#
# Convention : Reuss Voigt Hill
#
# Bulk Modulus (GPa) = 54.73405 65.68677 60.21041
# Shear Modulus (GPa) = 20.00821 21.60385 20.80603
#
# Velocity S-wave (km/s) = 3.48195 3.61813 3.55070
# Velocity P-wave (km/s) = 7.02364 7.56687 7.30031
#
# Compressibility (1/GPa) = 0.01827016
#
# Stress axis : x y z
#
# Youngs Moduli (GPa) = 51.95633 51.95633 96.13992
#
# Poissons Ratio (x) = 0.25119 0.50368
# Poissons Ratio (y) = 0.25119 0.50368
# Poissons Ratio (z) = 0.27220 0.27220
#
# Static dielectric constant tensor:
#      x y z
#    x 2.826090 0.000000 0.000000 
#    y 0.000000 2.826090 0.000000 
#    z 0.000000 0.000000 3.726400 
# 
# 
# High freq. dielectric constant tensor:
#      x y z
#    x 1.608690 0.000000 0.000000 
#    y 0.000000 1.608690 0.000000 
#    z 0.000000 0.000000 1.665980 
# 
# From -- ./inp_files/4173.got.cif
#   From: 2010.03.12/outbox.cif.g09.slc.cpg/sg187_3_cif.got.tgz:4173.got - 2010.04.01 11:58:23.
