data_PCOD8327995
_publ_section_title
;
Structure prediction by ZEFSAII (Michael W. Deem and Ramdas Pophale) SiO2 
 PCOD8327995
Probable space group: P -6 2 C
;
_chemical_formula_sum "Si O2"
_cell_formula_units_Z 72
_cell_length_a 24.223261
_cell_length_b 24.223261
_cell_length_c 8.776483
_cell_angle_alpha 90.000000
_cell_angle_beta 90.000000
_cell_angle_gamma 120.000000
_cell_volume 4459.810081
_symmetry_space_group_name_H-M "P -6 2 C"
_symmetry_group_IT_number 190
_symmetry_cell_setting 'hexagonal'
loop_
_space_group_symop_operation_xyz
x,y,z
-x+y,-x,1/2-z
-y,x-y,z
x,y,1/2-z
-x+y,-x,z
-y,x-y,1/2-z
x-y,-y,-z
-x,-x+y,-z
y,x,-z
y,x,1/2+z
x-y,-y,1/2+z
-x,-x+y,1/2+z
loop_
_atom_site_type_symbol
_atom_site_label
_atom_site_fract_x
_atom_site_fract_y
_atom_site_fract_z
Si Si1 0.068268 0.694137 0.432476
Si Si2 0.816095 0.183905 0.916028
Si Si3 0.481460 0.740730 0.418263
Si Si4 0.856754 0.365399 0.425294
Si Si5 0.491355 0.856754 0.925294
Si Si6 0.931732 0.305863 0.567524
O O1 0.066834 0.693512 0.250000
O O2 0.116681 0.766564 0.496410
O O3 0.091728 0.645879 0.486171
O O4 0.000000 0.674275 0.500000
O O5 0.832331 0.167669 0.750000
O O6 0.778348 0.221652 0.899407
O O7 0.883319 0.233436 0.996410
O O8 0.449659 0.724829 0.250000
O O9 0.460863 0.675640 0.508762
O O10 0.460863 0.785223 0.508762
O O11 0.855831 0.346295 0.250000
O O12 0.879181 0.439591 0.443571
O O13 0.908272 0.354121 0.513829
O O14 0.509537 0.855831 0.750000
O O15 0.933166 0.306488 0.750000
O O16 0.000000 0.325725 0.500000
#
# Coordination Sequence:
#
# PCOD8327995 Si02
#       6
#    12  12  12  12  12  12
#     4  10  19  32  50  71  94 122 156 192 232 281
#     4   7  14  29  47  65  87 115 144 178 219 266
#     4   9  17  31  49  65  83 111 147 186 235 290
#     4  10  20  33  48  66  89 118 153 197 244 289
#     4  10  20  33  48  66  89 118 153 197 244 289
#     4  10  19  32  50  71  94 122 156 192 232 281
#
# _framework density 16.144186000000001
#
# number of rings (size 3 to 8) (size 9 to 14) (size 15 to 20)
#    0.000    2.667    0.000    4.500    0.000    3.333 
#    1.000    2.500    0.000    0.000    0.000    0.000 
#    0.000    0.000    0.000    0.500    0.000    6.000 
#
# Total GULP energy -892095.974755 kJ/mol
# GULP energy per Si atom -12390.221872 kJ/mol
# Density = 1.610744 g / cm^3
# Si number density = 16.144186 Si / 1000 Ang^3
#
#
#
# Elastic Constant Matrix: (Units=GPa)
#
#
# Indices 1 2 3 4 5 6 
#
# 1 91.2799 56.1748 36.9876 0.0000 0.0000 0.0000
# 2 56.1748 91.2799 36.9876 0.0000 0.0000 0.0000
# 3 36.9876 36.9876 90.6533 0.0000 0.0000 0.0000
# 4 0.0000 0.0000 0.0000 22.8010 0.0000 0.0000
# 5 0.0000 0.0000 0.0000 0.0000 22.8010 0.0000
# 6 0.0000 0.0000 0.0000 0.0000 0.0000 17.5526
#
#
#
# Elastic Compliance Matrix: (Units=1/GPa)
#
#
# Indices 1 2 3 4 5 6 
#
# 1 0.018507 -0.009979 -0.003479 0.000000 0.000000 0.000000
# 2 -0.009979 0.018507 -0.003479 0.000000 0.000000 0.000000
# 3 -0.003479 -0.003479 0.013870 0.000000 0.000000 0.000000
# 4 0.000000 0.000000 0.000000 0.043858 0.000000 0.000000
# 5 0.000000 0.000000 0.000000 0.000000 0.043858 0.000000
# 6 0.000000 0.000000 0.000000 0.000000 0.000000 0.056972
#
#
# Mechanical properties :
#
#
# Convention : Reuss Voigt Hill
#
# Bulk Modulus (GPa) = 58.79671 59.27921 59.03796
# Shear Modulus (GPa) = 21.26619 22.16847 21.71733
#
# Velocity S-wave (km/s) = 3.63335 3.70963 3.67169
# Velocity P-wave (km/s) = 7.35530 7.42609 7.39078
#
# Compressibility (1/GPa) = 0.01700775
#
# Stress axis : x y z
#
# Youngs Moduli (GPa) = 54.03498 54.03498 72.09732
#
# Poissons Ratio (x) = 0.53923 0.25084
# Poissons Ratio (y) = 0.53923 0.25084
# Poissons Ratio (z) = 0.18800 0.18800
#
# Static dielectric constant tensor:
#      x y z
#    x 3.102630 0.000000 0.000000 
#    y 0.000000 3.102630 0.000000 
#    z 0.000000 0.000000 3.152940 
# 
# 
# High freq. dielectric constant tensor:
#      x y z
#    x 1.595970 0.000000 0.000000 
#    y 0.000000 1.595970 0.000000 
#    z 0.000000 0.000000 1.626730 
# 
# From -- ./inp_files/1262.got.cif
#   From: 2010.06.25/outbox.cif.g09.slc.cpg/sg190_1_cif.got.tgz:1262.got - 2010.06.28 13:08:06.
