data_PCOD8327559
_publ_section_title
;
Structure prediction by ZEFSAII (Michael W. Deem and Ramdas Pophale) SiO2 
 PCOD8327559
Probable space group: P -6 2 M
;
_chemical_formula_sum "Si O2"
_cell_formula_units_Z 84
_cell_length_a 15.495622
_cell_length_b 15.495622
_cell_length_c 24.039486
_cell_angle_alpha 90.000000
_cell_angle_beta 90.000000
_cell_angle_gamma 120.000000
_cell_volume 4998.892951
_symmetry_space_group_name_H-M "P -6 2 M"
_symmetry_group_IT_number 189
_symmetry_cell_setting 'hexagonal'
loop_
_space_group_symop_operation_xyz
x,y,z
-x+y,-x,-z
-y,x-y,z
x,y,-z
-x+y,-x,z
-y,x-y,-z
x-y,-y,-z
-x,-x+y,-z
y,x,-z
y,x,z
x-y,-y,z
-x,-x+y,z
loop_
_atom_site_type_symbol
_atom_site_label
_atom_site_fract_x
_atom_site_fract_y
_atom_site_fract_z
Si Si1 0.115626 0.887636 0.558805
Si Si2 0.119057 0.883252 0.320164
Si Si3 0.884817 0.770371 0.935422
Si Si4 0.549833 0.111741 0.123334
Si Si5 0.449868 0.561610 0.255717
Si Si6 0.438432 0.225330 0.876748
Si Si7 0.775380 0.212961 0.744376
O O1 0.162844 0.873631 0.500000
O O2 0.153162 0.867158 0.617689
O O3 0.000000 0.813861 0.555108
O O4 0.136249 0.000000 0.561650
O O5 0.153049 0.827811 0.277181
O O6 0.000000 0.836964 0.316721
O O7 0.172273 0.000000 0.304501
O O8 0.823021 0.823021 0.916314
O O9 0.849621 0.671752 0.900101
O O10 0.000000 0.846412 0.922678
O O11 0.867382 0.741528 0.000000
O O12 0.550481 0.112837 0.189534
O O13 0.492252 0.166506 0.100581
O O14 0.662291 0.166124 0.100904
O O15 0.493169 0.000000 0.099803
O O16 0.508938 0.508938 0.279202
O O17 0.505364 0.674200 0.278273
O O18 0.337286 0.500333 0.278131
O O19 0.431589 0.221932 0.810566
#
# Coordination Sequence:
#
# PCOD8327559 Si02
#       7
#    12  12  12  12  12  12  12
#     4   8  13  22  37  57  83 118 157 191 223 266
#     4  10  19  29  42  65  98 130 156 185 227 281
#     4  10  21  37  55  73  94 124 162 197 224 258
#     4   9  17  29  47  70  92 115 144 180 224 273
#     4   9  17  29  44  63  88 117 149 183 220 266
#     4  10  19  33  52  72  95 121 151 189 234 281
#     4  10  19  31  48  69  92 120 154 193 235 274
#
# _framework density 16.803722
#
# number of rings (size 3 to 8) (size 9 to 14) (size 15 to 20)
#    0.000    2.571    0.000    2.714    0.000    8.000 
#    0.000    0.714    0.000    4.286    0.000    1.000 
#    0.000    5.714    0.000    0.000    0.000    0.000 
#
# Total GULP energy -1040989.785825 kJ/mol
# GULP energy per Si atom -12392.735546 kJ/mol
# Density = 1.676548 g / cm^3
# Si number density = 16.803722 Si / 1000 Ang^3
#
#
#
# Elastic Constant Matrix: (Units=GPa)
#
#
# Indices 1 2 3 4 5 6 
#
# 1 107.6948 38.5001 19.2297 0.0000 0.0000 0.0000
# 2 38.5001 107.6948 19.2297 0.0000 0.0000 0.0000
# 3 19.2297 19.2297 28.7151 0.0000 0.0000 0.0000
# 4 0.0000 0.0000 0.0000 9.4757 0.0000 0.0000
# 5 0.0000 0.0000 0.0000 0.0000 9.4757 0.0000
# 6 0.0000 0.0000 0.0000 0.0000 0.0000 34.5974
#
#
#
# Elastic Compliance Matrix: (Units=1/GPa)
#
#
# Indices 1 2 3 4 5 6 
#
# 1 0.011377 -0.003075 -0.005560 0.000000 0.000000 0.000000
# 2 -0.003075 0.011377 -0.005560 0.000000 0.000000 0.000000
# 3 -0.005560 -0.005560 0.042272 0.000000 0.000000 0.000000
# 4 0.000000 0.000000 0.000000 0.105533 0.000000 0.000000
# 5 0.000000 0.000000 0.000000 0.000000 0.105533 0.000000
# 6 0.000000 0.000000 0.000000 0.000000 0.000000 0.028904
#
#
# Mechanical properties :
#
#
# Convention : Reuss Voigt Hill
#
# Bulk Modulus (GPa) = 27.29492 44.22487 35.75989
# Shear Modulus (GPa) = 14.46762 21.85277 18.16020
#
# Velocity S-wave (km/s) = 2.93742 3.61012 3.29100
# Velocity P-wave (km/s) = 5.27098 6.61460 5.98064
#
# Compressibility (1/GPa) = 0.03663686
#
# Stress axis : x y z
#
# Youngs Moduli (GPa) = 87.89323 87.89323 23.65632
#
# Poissons Ratio (x) = 0.27023 0.13153
# Poissons Ratio (y) = 0.27023 0.13153
# Poissons Ratio (z) = 0.48871 0.48871
#
# Static dielectric constant tensor:
#      x y z
#    x 3.218060 0.000000 0.000000 
#    y 0.000000 3.218060 0.000000 
#    z 0.000000 0.000000 3.113500 
# 
# 
# High freq. dielectric constant tensor:
#      x y z
#    x 1.648560 0.000000 0.000000 
#    y 0.000000 1.648560 0.000000 
#    z 0.000000 0.000000 1.612790 
# 
# From -- ./inp_files/3587.got.cif
#   From: 2010.03.12/outbox.cif.g09.slc.cpg/sg189_2_cif.got.tgz:3587.got - 2010.04.01 12:03:36.
