data_PCOD8327004
_publ_section_title
;
Structure prediction by ZEFSAII (Michael W. Deem and Ramdas Pophale) SiO2 
 PCOD8327004
Probable space group: P -6 M 2
;
_chemical_formula_sum "Si O2"
_cell_formula_units_Z 66
_cell_length_a 17.741762
_cell_length_b 17.741762
_cell_length_c 15.129421
_cell_angle_alpha 90.000000
_cell_angle_beta 90.000000
_cell_angle_gamma 120.000000
_cell_volume 4124.263814
_symmetry_space_group_name_H-M "P -6 M 2"
_symmetry_group_IT_number 187
_symmetry_cell_setting 'hexagonal'
loop_
_space_group_symop_operation_xyz
x,y,z
-x+y,-x,-z
-y,x-y,z
x,y,-z
-x+y,-x,z
-y,x-y,-z
-y,-x,-z
-x+y,y,-z
x,x-y,-z
-x+y,y,z
x,x-y,z
-y,-x,z
loop_
_atom_site_type_symbol
_atom_site_label
_atom_site_fract_x
_atom_site_fract_y
_atom_site_fract_z
Si Si1 0.165106 0.665562 0.500000
Si Si2 0.241161 0.305817 0.248870
Si Si3 0.501204 0.333791 0.394838
Si Si4 0.175273 0.174863 0.898762
Si Si5 0.307623 0.065167 0.399756
Si Si6 0.335642 0.491066 0.693054
O O1 0.234783 0.765218 0.500000
O O2 0.208976 0.604488 0.500000
O O3 0.113501 0.648333 0.406983
O O4 0.150301 0.300602 0.257617
O O5 0.243925 0.256792 0.160059
O O6 0.244086 0.254103 0.334466
O O7 0.315988 0.408142 0.246151
O O8 0.503685 0.332619 0.500000
O O9 0.524092 0.262046 0.358301
O O10 0.571749 0.428252 0.356879
O O11 0.405049 0.309511 0.365055
O O12 0.076978 0.153955 0.883313
O O13 0.179419 0.089710 0.870987
O O14 0.203655 0.200472 0.000000
O O15 0.293453 0.029053 0.500000
O O16 0.288982 0.144491 0.395193
O O17 0.255100 0.510200 0.693344
O O18 0.422519 0.577482 0.727152
#
# Coordination Sequence:
#
# PCOD8327004 Si02
#       6
#     6  12  12  12  12  12
#     4   8  13  22  36  54  77 108 148 192 230 260
#     4  10  20  30  44  66  88 113 146 184 225 265
#     4   8  13  22  37  57  79 106 140 177 213 248
#     4   9  17  31  52  75  94 110 133 173 227 280
#     4   9  18  30  41  55  82 118 149 173 205 255
#     4   9  17  28  42  61  87 120 157 194 231 265
#
# _framework density 16.002856000000001
#
# number of rings (size 3 to 8) (size 9 to 14) (size 15 to 20)
#    0.000    3.091    0.000    2.273    1.273    4.000 
#    0.000    0.000    0.000    0.909    0.000    0.000 
#    0.000    1.455    0.000    0.000    0.000    2.182 
#
# Total GULP energy -817714.488559 kJ/mol
# GULP energy per Si atom -12389.613463 kJ/mol
# Density = 1.596643 g / cm^3
# Si number density = 16.002856 Si / 1000 Ang^3
#
#
#
# Elastic Constant Matrix: (Units=GPa)
#
#
# Indices 1 2 3 4 5 6 
#
# 1 63.4100 35.9805 44.5433 0.0000 0.0001 0.0000
# 2 35.9805 63.4100 44.5433 0.0000 -0.0001 0.0000
# 3 44.5433 44.5433 70.3007 0.0000 0.0000 0.0000
# 4 0.0000 0.0000 0.0000 19.8463 0.0000 -0.0001
# 5 0.0001 -0.0001 0.0000 0.0000 19.8463 0.0000
# 6 0.0000 0.0000 0.0000 -0.0001 0.0000 13.7147
#
#
#
# Elastic Compliance Matrix: (Units=1/GPa)
#
#
# Indices 1 2 3 4 5 6 
#
# 1 0.029872 -0.006586 -0.014754 0.000000 0.000000 0.000000
# 2 -0.006586 0.029872 -0.014754 0.000000 0.000000 0.000000
# 3 -0.014754 -0.014754 0.032922 0.000000 0.000000 0.000000
# 4 0.000000 0.000000 0.000000 0.050387 0.000000 0.000000
# 5 0.000000 0.000000 0.000000 0.000000 0.050387 0.000000
# 6 0.000000 0.000000 0.000000 0.000000 0.000000 0.072914
#
#
# Mechanical properties :
#
#
# Convention : Reuss Voigt Hill
#
# Bulk Modulus (GPa) = 48.83650 49.69498 49.26574
# Shear Modulus (GPa) = 14.47735 15.48504 14.98119
#
# Velocity S-wave (km/s) = 3.01104 3.11407 3.06299
# Velocity P-wave (km/s) = 6.53239 6.63710 6.58495
#
# Compressibility (1/GPa) = 0.02047649
#
# Stress axis : x y z
#
# Youngs Moduli (GPa) = 33.47664 33.47664 30.37522
#
# Poissons Ratio (x) = 0.22046 0.44817
# Poissons Ratio (y) = 0.22046 0.44817
# Poissons Ratio (z) = 0.49392 0.49392
#
# Static dielectric constant tensor:
#      x y z
#    x 3.140040 0.000000 0.000000 
#    y 0.000000 3.140040 0.000000 
#    z 0.000000 0.000000 2.857670 
# 
# 
# High freq. dielectric constant tensor:
#      x y z
#    x 1.612450 0.000000 0.000000 
#    y 0.000000 1.612450 0.000000 
#    z 0.000000 0.000000 1.567620 
# 
# From -- ./inp_files/2497.got.cif
#   From: 2010.03.12/outbox.cif.g09.slc.cpg/sg187_2_cif.got.tgz:2497.got - 2010.04.01 11:58:23.
