data_PCOD8327921
_publ_section_title
;
Structure prediction by ZEFSAII (Michael W. Deem and Ramdas Pophale) SiO2 
 PCOD8327921
Probable space group: P -6 2 M
;
_chemical_formula_sum "Si O2"
_cell_formula_units_Z 96
_cell_length_a 26.050349
_cell_length_b 26.050349
_cell_length_c 9.523838
_cell_angle_alpha 90.000000
_cell_angle_beta 90.000000
_cell_angle_gamma 120.000000
_cell_volume 5597.185793
_symmetry_space_group_name_H-M "P -6 2 M"
_symmetry_group_IT_number 189
_symmetry_cell_setting 'hexagonal'
loop_
_space_group_symop_operation_xyz
x,y,z
-x+y,-x,-z
-y,x-y,z
x,y,-z
-x+y,-x,z
-y,x-y,-z
x-y,-y,-z
-x,-x+y,-z
y,x,-z
y,x,z
x-y,-y,z
-x,-x+y,z
loop_
_atom_site_type_symbol
_atom_site_label
_atom_site_fract_x
_atom_site_fract_y
_atom_site_fract_z
Si Si1 0.932452 0.185798 0.664235
Si Si2 0.117284 0.740764 0.338626
Si Si3 0.729611 0.210579 0.161652
Si Si4 0.842677 0.330226 0.162062
Si Si5 0.598145 0.151957 0.834832
Si Si6 0.356172 0.068566 0.164382
Si Si7 0.609389 0.066249 0.349473
Si Si8 0.822076 0.066099 0.665881
O O1 0.924583 0.195116 0.500000
O O2 0.914863 0.227721 0.751247
O O3 0.889210 0.116682 0.707886
O O4 0.000000 0.202697 0.697898
O O5 0.136716 0.758948 0.500000
O O6 0.175012 0.753714 0.250988
O O7 0.069259 0.671730 0.320972
O O8 0.088031 0.777824 0.276836
O O9 0.775792 0.278840 0.184137
O O10 0.665434 0.200965 0.211320
O O11 0.725993 0.190851 0.000000
O O12 0.841697 0.386324 0.233307
O O13 0.890987 0.314216 0.224725
O O14 0.859560 0.344063 0.000000
O O15 0.589480 0.090486 0.780025
O O16 0.592078 0.150797 0.000000
O O17 0.336755 0.000000 0.189086
O O18 0.352477 0.081775 0.000000
O O19 0.613802 0.098611 0.500000
O O20 0.558366 0.000000 0.362999
O O21 0.816070 0.060024 0.500000
O O22 0.802482 0.000000 0.727702
#
# Coordination Sequence:
#
# PCOD8327921 Si02
#       8
#    12  12  12  12  12  12  12  12
#     4   9  17  29  45  66  92 118 145 181 221 255
#     4   9  16  27  45  66  86 110 142 176 210 255
#     4   9  17  30  46  63  85 113 143 179 222 263
#     4   9  17  30  46  64  87 112 143 183 222 261
#     4   9  18  31  45  63  85 111 146 181 214 256
#     4   9  17  29  46  66  87 115 148 178 216 268
#     4   9  17  29  44  62  86 113 138 168 210 257
#     4   9  16  26  43  67  91 116 148 180 210 251
#
# _framework density 17.151475999999999
#
# number of rings (size 3 to 8) (size 9 to 14) (size 15 to 20)
#    0.000    3.000    0.000    1.125    0.000    2.250 
#    0.750    2.500    0.000    4.000    0.000    1.750 
#    0.000    0.000    0.000    0.000    0.000    0.000 
#
# Total GULP energy -1189327.089508 kJ/mol
# GULP energy per Si atom -12388.823849 kJ/mol
# Density = 1.711244 g / cm^3
# Si number density = 17.151476 Si / 1000 Ang^3
#
#
#
# Elastic Constant Matrix: (Units=GPa)
#
#
# Indices 1 2 3 4 5 6 
#
# 1 112.8758 76.6296 21.3822 0.0000 0.0000 0.0000
# 2 76.6296 112.8758 21.3822 0.0000 0.0000 0.0000
# 3 21.3822 21.3822 16.7839 0.0000 0.0000 0.0000
# 4 0.0000 0.0000 0.0000 15.8099 0.0000 0.0000
# 5 0.0000 0.0000 0.0000 0.0000 15.8099 0.0000
# 6 0.0000 0.0000 0.0000 0.0000 0.0000 18.1231
#
#
#
# Elastic Compliance Matrix: (Units=1/GPa)
#
#
# Indices 1 2 3 4 5 6 
#
# 1 0.017498 -0.010092 -0.009435 0.000000 0.000000 0.000000
# 2 -0.010092 0.017498 -0.009435 0.000000 0.000000 0.000000
# 3 -0.009435 -0.009435 0.083621 0.000000 0.000000 0.000000
# 4 0.000000 0.000000 0.000000 0.063252 0.000000 0.000000
# 5 0.000000 0.000000 0.000000 0.000000 0.063252 0.000000
# 6 0.000000 0.000000 0.000000 0.000000 0.000000 0.055178
#
#
# Mechanical properties :
#
#
# Convention : Reuss Voigt Hill
#
# Bulk Modulus (GPa) = 16.47643 53.48040 34.97842
# Shear Modulus (GPa) = 13.21171 18.15800 15.68486
#
# Velocity S-wave (km/s) = 2.77843 3.25727 3.02733
# Velocity P-wave (km/s) = 4.46320 6.73761 5.71470
#
# Compressibility (1/GPa) = 0.06069276
#
# Stress axis : x y z
#
# Youngs Moduli (GPa) = 57.15083 57.15083 11.95870
#
# Poissons Ratio (x) = 0.57674 0.11283
# Poissons Ratio (y) = 0.57674 0.11283
# Poissons Ratio (z) = 0.53923 0.53923
#
# Static dielectric constant tensor:
#      x y z
#    x 3.323280 0.000000 0.000000 
#    y 0.000000 3.323280 0.000000 
#    z 0.000000 0.000000 3.064370 
# 
# 
# High freq. dielectric constant tensor:
#      x y z
#    x 1.657620 0.000000 0.000000 
#    y 0.000000 1.657620 0.000000 
#    z 0.000000 0.000000 1.631940 
# 
# From -- ./inp_files/2272.got.cif
#   From: 2010.03.12/outbox.cif.g09.slc.cpg/sg189_2_cif.got.tgz:2272.got - 2010.04.01 12:03:36.
