data_PCOD8327885
_publ_section_title
;
Structure prediction by ZEFSAII (Michael W. Deem and Ramdas Pophale) SiO2 
 PCOD8327885
Probable space group: P -6 2 M
;
_chemical_formula_sum "Si O2"
_cell_formula_units_Z 48
_cell_length_a 23.037087
_cell_length_b 23.037087
_cell_length_c 8.458045
_cell_angle_alpha 90.000000
_cell_angle_beta 90.000000
_cell_angle_gamma 120.000000
_cell_volume 3887.368829
_symmetry_space_group_name_H-M "P -6 2 M"
_symmetry_group_IT_number 189
_symmetry_cell_setting 'hexagonal'
loop_
_space_group_symop_operation_xyz
x,y,z
-x+y,-x,-z
-y,x-y,z
x,y,-z
-x+y,-x,z
-y,x-y,-z
x-y,-y,-z
-x,-x+y,-z
y,x,-z
y,x,z
x-y,-y,z
-x,-x+y,z
loop_
_atom_site_type_symbol
_atom_site_label
_atom_site_fract_x
_atom_site_fract_y
_atom_site_fract_z
Si Si1 0.459538 0.794851 0.184082
Si Si2 0.530774 0.603613 0.183663
Si Si3 0.927753 0.522846 0.683370
Si Si4 0.671144 0.461291 0.682332
O O1 0.525253 0.863139 0.249597
O O2 0.393616 0.784406 0.274331
O O3 0.471505 0.733518 0.214548
O O4 0.449458 0.800994 0.000000
O O5 0.594237 0.594237 0.234051
O O6 0.463943 0.533845 0.213488
O O7 0.524712 0.660374 0.281978
O O8 0.535746 0.621968 0.000000
O O9 0.916444 0.501331 0.500000
O O10 0.000000 0.591830 0.704727
O O11 0.688414 0.461061 0.500000
#
# Coordination Sequence:
#
# PCOD8327885 Si02
#       4
#    12  12  12  12
#     4  11  20  29  39  51  68  87 109 134 165 202
#     4   9  16  26  39  53  67  83 105 131 159 192
#     4   9  16  26  39  53  67  83 105 131 159 192
#     4  11  20  29  39  51  68  87 109 134 165 202
#
# _framework density 12.347683
#
# number of rings (size 3 to 8) (size 9 to 14) (size 15 to 20)
#    0.000    2.000    0.000    9.500    0.000    3.000 
#    0.000    0.000    0.000    0.000    0.000    0.000 
#    0.000    0.000    0.000    0.000    0.000    0.000 
#
# Total GULP energy -594655.639102 kJ/mol
# GULP energy per Si atom -12388.659148 kJ/mol
# Density = 1.231958 g / cm^3
# Si number density = 12.347683 Si / 1000 Ang^3
#
#
#
# Elastic Constant Matrix: (Units=GPa)
#
#
# Indices 1 2 3 4 5 6 
#
# 1 51.3115 33.7576 10.8006 0.0000 0.0000 0.0000
# 2 33.7576 51.3115 10.8006 0.0000 0.0000 0.0000
# 3 10.8006 10.8006 53.7709 0.0000 0.0000 0.0000
# 4 0.0000 0.0000 0.0000 16.6786 0.0000 0.0000
# 5 0.0000 0.0000 0.0000 0.0000 16.6786 0.0000
# 6 0.0000 0.0000 0.0000 0.0000 0.0000 8.7770
#
#
#
# Elastic Compliance Matrix: (Units=1/GPa)
#
#
# Indices 1 2 3 4 5 6 
#
# 1 0.034677 -0.022290 -0.002488 0.000000 0.000000 0.000000
# 2 -0.022290 0.034677 -0.002488 0.000000 0.000000 0.000000
# 3 -0.002488 -0.002488 0.019597 0.000000 0.000000 0.000000
# 4 0.000000 0.000000 0.000000 0.059957 0.000000 0.000000
# 5 0.000000 0.000000 0.000000 0.000000 0.059957 0.000000
# 6 0.000000 0.000000 0.000000 0.000000 0.000000 0.113935
#
#
# Mechanical properties :
#
#
# Convention : Reuss Voigt Hill
#
# Bulk Modulus (GPa) = 29.05414 29.67906 29.36660
# Shear Modulus (GPa) = 12.85992 15.16253 14.01122
#
# Velocity S-wave (km/s) = 3.23070 3.50804 3.37222
# Velocity P-wave (km/s) = 6.12354 6.36370 6.24478
#
# Compressibility (1/GPa) = 0.03441850
#
# Stress axis : x y z
#
# Youngs Moduli (GPa) = 28.83747 28.83747 51.02840
#
# Poissons Ratio (x) = 0.64279 0.12696
# Poissons Ratio (y) = 0.64279 0.12696
# Poissons Ratio (z) = 0.07175 0.07175
#
# Static dielectric constant tensor:
#      x y z
#    x 2.672240 0.000000 0.000000 
#    y 0.000000 2.672240 0.000000 
#    z 0.000000 0.000000 2.632170 
# 
# 
# High freq. dielectric constant tensor:
#      x y z
#    x 1.434350 0.000000 0.000000 
#    y 0.000000 1.434350 0.000000 
#    z 0.000000 0.000000 1.491930 
# 
# From -- ./inp_files/768.got.cif
#   From: 2010.03.12/outbox.cif.g09.slc.cpg/sg189_1_cif.got.tgz:768.got - 2010.04.01 12:03:36.
