data_PCOD8327221
_publ_section_title
;
Structure prediction by ZEFSAII (Michael W. Deem and Ramdas Pophale) SiO2 
 PCOD8327221
Probable space group: P -6 M 2
;
_chemical_formula_sum "Si O2"
_cell_formula_units_Z 44
_cell_length_a 11.724584
_cell_length_b 11.724584
_cell_length_c 19.277955
_cell_angle_alpha 90.000000
_cell_angle_beta 90.000000
_cell_angle_gamma 120.000000
_cell_volume 2295.020022
_symmetry_space_group_name_H-M "P -6 M 2"
_symmetry_group_IT_number 187
_symmetry_cell_setting 'hexagonal'
loop_
_space_group_symop_operation_xyz
x,y,z
-x+y,-x,-z
-y,x-y,z
x,y,-z
-x+y,-x,z
-y,x-y,-z
-y,-x,-z
-x+y,y,-z
x,x-y,-z
-x+y,y,z
x,x-y,z
-y,-x,z
loop_
_atom_site_type_symbol
_atom_site_label
_atom_site_fract_x
_atom_site_fract_y
_atom_site_fract_z
Si Si1 0.735372 0.735121 0.650073
Si Si2 0.330866 0.922063 0.212919
Si Si3 0.403514 0.334307 0.923051
Si Si4 0.481498 0.518503 0.417799
Si Si5 0.333334 0.666667 0.417514
O O1 0.726024 0.863012 0.625577
O O2 0.708912 0.710797 0.732300
O O3 0.630740 0.602468 0.609766
O O4 0.880769 0.761538 0.633554
O O5 0.477631 0.955261 0.230938
O O6 0.234060 0.765941 0.218740
O O7 0.317470 0.963003 0.134951
O O8 0.392669 0.196335 0.908913
O O9 0.555716 0.444285 0.916210
O O10 0.349805 0.339367 0.000000
O O11 0.485936 0.514065 0.500000
O O12 0.407089 0.592912 0.388610
O O13 0.333334 0.666667 0.500000
#
# Coordination Sequence:
#
# PCOD8327221 Si02
#       5
#    12  12  12   6   2
#     4  11  23  40  62  89 121 157 197 243 295 351
#     4  10  20  34  54  80 110 146 190 237 287 343
#     4   9  17  30  49  74 105 142 183 228 280 339
#     4  11  22  40  66  92 119 154 198 242 289 349
#     4   9  18  36  66  96 114 144 196 248 280 333
#
# _framework density 19.171945000000001
#
# number of rings (size 3 to 8) (size 9 to 14) (size 15 to 20)
#    0.000    1.909    2.727    1.636    0.000    2.182 
#    0.818    0.000    0.000    3.818    0.000    0.000 
#    0.000    0.000    0.000    0.000    0.000    0.000 
#
# Total GULP energy -545535.225261 kJ/mol
# GULP energy per Si atom -12398.527847 kJ/mol
# Density = 1.912831 g / cm^3
# Si number density = 19.171945 Si / 1000 Ang^3
#
#
#
# Elastic Constant Matrix: (Units=GPa)
#
#
# Indices 1 2 3 4 5 6 
#
# 1 91.8154 31.4387 33.7529 0.0000 0.0000 -0.0001
# 2 31.4387 91.8153 33.7530 0.0000 0.0000 0.0000
# 3 33.7529 33.7530 93.5666 0.0000 0.0000 0.0000
# 4 0.0000 0.0000 0.0000 25.3698 0.0000 0.0000
# 5 0.0000 0.0000 0.0000 0.0000 25.3699 0.0000
# 6 -0.0001 0.0000 0.0000 0.0000 0.0000 30.1884
#
#
#
# Elastic Compliance Matrix: (Units=1/GPa)
#
#
# Indices 1 2 3 4 5 6 
#
# 1 0.013337 -0.003226 -0.003647 0.000000 0.000000 0.000000
# 2 -0.003226 0.013337 -0.003647 0.000000 0.000000 0.000000
# 3 -0.003647 -0.003647 0.013319 0.000000 0.000000 0.000000
# 4 0.000000 0.000000 0.000000 0.039417 0.000000 0.000000
# 5 0.000000 0.000000 0.000000 0.000000 0.039417 0.000000
# 6 0.000000 0.000000 0.000000 0.000000 0.000000 0.033125
#
#
# Mechanical properties :
#
#
# Convention : Reuss Voigt Hill
#
# Bulk Modulus (GPa) = 52.76646 52.78740 52.77693
# Shear Modulus (GPa) = 27.88461 28.06913 27.97687
#
# Velocity S-wave (km/s) = 3.81786 3.83047 3.82417
# Velocity P-wave (km/s) = 6.85691 6.86708 6.86200
#
# Compressibility (1/GPa) = 0.01895143
#
# Stress axis : x y z
#
# Youngs Moduli (GPa) = 74.98033 74.98019 75.08026
#
# Poissons Ratio (x) = 0.24187 0.27385
# Poissons Ratio (y) = 0.24187 0.27385
# Poissons Ratio (z) = 0.27348 0.27348
#
# Static dielectric constant tensor:
#      x y z
#    x 3.365290 0.000000 0.000000 
#    y 0.000000 3.365300 0.000000 
#    z 0.000000 0.000000 3.645120 
# 
# 
# High freq. dielectric constant tensor:
#      x y z
#    x 1.732200 0.000000 0.000000 
#    y 0.000000 1.732200 0.000000 
#    z 0.000000 0.000000 1.756930 
# 
# From -- ./inp_files/2902.got.cif
#   From: 2010.03.12/outbox.cif.g09.slc.cpg/sg187_2_cif.got.tgz:2902.got - 2010.04.01 11:58:23.
