data_PCOD8327782
_publ_section_title
;
Structure prediction by ZEFSAII (Michael W. Deem and Ramdas Pophale) SiO2 
 PCOD8327782
Probable space group: P -6 2 M
;
_chemical_formula_sum "Si O2"
_cell_formula_units_Z 66
_cell_length_a 21.733084
_cell_length_b 21.733084
_cell_length_c 8.214602
_cell_angle_alpha 90.000000
_cell_angle_beta 90.000000
_cell_angle_gamma 120.000000
_cell_volume 3360.159364
_symmetry_space_group_name_H-M "P -6 2 M"
_symmetry_group_IT_number 189
_symmetry_cell_setting 'hexagonal'
loop_
_space_group_symop_operation_xyz
x,y,z
-x+y,-x,-z
-y,x-y,z
x,y,-z
-x+y,-x,z
-y,x-y,-z
x-y,-y,-z
-x,-x+y,-z
y,x,-z
y,x,z
x-y,-y,z
-x,-x+y,z
loop_
_atom_site_type_symbol
_atom_site_label
_atom_site_fract_x
_atom_site_fract_y
_atom_site_fract_z
Si Si1 0.916969 0.575245 0.319907
Si Si2 0.919842 0.705688 0.189825
Si Si3 0.156580 0.586083 0.814200
Si Si4 0.342301 0.919982 0.809537
Si Si5 0.919492 0.210950 0.310600
Si Si6 0.642131 0.246910 0.500000
O O1 0.886162 0.543194 0.500000
O O2 0.887106 0.626887 0.266866
O O3 0.901421 0.513078 0.191053
O O4 0.000000 0.624741 0.327780
O O5 0.865526 0.733861 0.229784
O O6 0.000000 0.761327 0.254435
O O7 0.923397 0.696571 0.000000
O O8 0.125736 0.504668 0.761265
O O9 0.209919 0.633972 0.673839
O O10 0.187734 0.598964 0.000000
O O11 0.266316 0.891415 0.723274
O O12 0.396197 0.000000 0.751253
O O13 0.328515 0.916363 0.000000
O O14 0.919135 0.197901 0.500000
O O15 0.000000 0.243807 0.240346
O O16 0.587115 0.276513 0.500000
#
# Coordination Sequence:
#
# PCOD8327782 Si02
#       6
#    12  12  12  12  12   6
#     4  10  20  35  58  89 123 154 189 238 298 357
#     4  10  21  37  58  86 119 156 196 240 290 346
#     4  11  22  39  64  87 111 154 202 246 305 364
#     4   9  19  35  56  86 119 147 184 236 292 351
#     4  10  21  36  57  87 120 155 192 236 290 350
#     4  10  26  46  57  74 108 144 194 256 300 344
#
# _framework density 19.641923999999999
#
# number of rings (size 3 to 8) (size 9 to 14) (size 15 to 20)
#    0.182    1.818    0.909    2.182    1.273    6.182 
#    0.000    1.818    0.000    0.364    0.000    0.000 
#    0.000    0.000    0.000    0.000    0.000    0.000 
#
# Total GULP energy -817907.208370 kJ/mol
# GULP energy per Si atom -12392.533460 kJ/mol
# Density = 1.959722 g / cm^3
# Si number density = 19.641924 Si / 1000 Ang^3
#
#
#
# Elastic Constant Matrix: (Units=GPa)
#
#
# Indices 1 2 3 4 5 6 
#
# 1 84.3836 35.0112 23.0220 0.0000 0.0000 0.0000
# 2 35.0112 84.3836 23.0220 0.0000 0.0000 0.0000
# 3 23.0220 23.0220 82.1945 0.0000 0.0000 0.0000
# 4 0.0000 0.0000 0.0000 26.4563 0.0000 0.0000
# 5 0.0000 0.0000 0.0000 0.0000 26.4563 0.0000
# 6 0.0000 0.0000 0.0000 0.0000 0.0000 24.6862
#
#
#
# Elastic Compliance Matrix: (Units=1/GPa)
#
#
# Indices 1 2 3 4 5 6 
#
# 1 0.014822 -0.005432 -0.002630 0.000000 0.000000 0.000000
# 2 -0.005432 0.014822 -0.002630 0.000000 0.000000 0.000000
# 3 -0.002630 -0.002630 0.013640 0.000000 0.000000 0.000000
# 4 0.000000 0.000000 0.000000 0.037798 0.000000 0.000000
# 5 0.000000 0.000000 0.000000 0.000000 0.037798 0.000000
# 6 0.000000 0.000000 0.000000 0.000000 0.000000 0.040509
#
#
# Mechanical properties :
#
#
# Convention : Reuss Voigt Hill
#
# Bulk Modulus (GPa) = 45.66386 45.89690 45.78038
# Shear Modulus (GPa) = 26.58548 26.84686 26.71617
#
# Velocity S-wave (km/s) = 3.68299 3.70106 3.69204
# Velocity P-wave (km/s) = 6.43308 6.45610 6.44460
#
# Compressibility (1/GPa) = 0.02189916
#
# Stress axis : x y z
#
# Youngs Moduli (GPa) = 67.46709 67.46709 73.31623
#
# Poissons Ratio (x) = 0.36650 0.19282
# Poissons Ratio (y) = 0.36650 0.19282
# Poissons Ratio (z) = 0.17744 0.17744
#
# Static dielectric constant tensor:
#      x y z
#    x 3.561520 0.000000 0.000000 
#    y 0.000000 3.561520 0.000000 
#    z 0.000000 0.000000 3.671980 
# 
# 
# High freq. dielectric constant tensor:
#      x y z
#    x 1.752000 0.000000 0.000000 
#    y 0.000000 1.752000 0.000000 
#    z 0.000000 0.000000 1.774730 
# 
# From -- ./inp_files/1062.got.cif
#   From: 2010.03.12/outbox.cif.g09.slc.cpg/sg189_1_cif.got.tgz:1062.got - 2010.04.01 12:03:36.
