data_PCOD8327388
_publ_section_title
;
Structure prediction by ZEFSAII (Michael W. Deem and Ramdas Pophale) SiO2 
 PCOD8327388
Probable space group: P -6 C 2
;
_chemical_formula_sum "Si O2"
_cell_formula_units_Z 72
_cell_length_a 23.464856
_cell_length_b 23.464856
_cell_length_c 8.890514
_cell_angle_alpha 90.000000
_cell_angle_beta 90.000000
_cell_angle_gamma 120.000000
_cell_volume 4239.291581
_symmetry_space_group_name_H-M "P -6 C 2"
_symmetry_group_IT_number 188
_symmetry_cell_setting 'hexagonal'
loop_
_space_group_symop_operation_xyz
x,y,z
-x+y,-x,1/2-z
-y,x-y,z
x,y,1/2-z
-x+y,-x,z
-y,x-y,1/2-z
-y,-x,-z
-x+y,y,-z
x,x-y,-z
-x+y,y,1/2+z
x,x-y,1/2+z
-y,-x,1/2+z
loop_
_atom_site_type_symbol
_atom_site_label
_atom_site_fract_x
_atom_site_fract_y
_atom_site_fract_z
Si Si1 0.341251 0.339028 0.924744
Si Si2 0.853891 0.816915 0.584152
Si Si3 0.193386 0.269983 0.571921
Si Si4 0.937943 0.528576 0.423901
Si Si5 0.336134 0.221332 0.417252
Si Si6 0.787672 0.332323 0.926968
O O1 0.353226 0.355198 0.750000
O O2 0.268489 0.323964 0.973620
O O3 0.400828 0.397010 0.016692
O O4 0.346845 0.275957 0.963921
O O5 0.863150 0.849215 0.750000
O O6 0.924672 0.849343 0.500000
O O7 0.802391 0.828892 0.490609
O O8 0.828530 0.740455 0.606217
O O9 0.185381 0.264436 0.750000
O O10 0.148072 0.296144 0.500000
O O11 0.949224 0.525549 0.250000
O O12 0.950404 0.475202 0.500000
O O13 0.863255 0.513326 0.458186
O O14 0.367553 0.248902 0.250000
O O15 0.370331 0.185166 0.500000
O O16 0.773891 0.330272 0.750000
O O17 0.738407 0.261594 0.000000
O O18 0.774844 0.387422 0.000000
#
# Coordination Sequence:
#
# PCOD8327388 Si02
#       6
#    12  12  12  12  12  12
#     4  10  20  33  49  69  94 123 155 192 236 285
#     4   9  16  27  44  65  90 120 153 188 225 268
#     4  10  20  33  50  73  99 127 158 194 238 286
#     4  10  21  36  52  69  91 122 160 200 242 287
#     4   9  16  26  41  62  88 117 149 185 225 268
#     4  10  20  33  49  68  91 121 158 201 247 292
#
# _framework density 16.983969999999999
#
# number of rings (size 3 to 8) (size 9 to 14) (size 15 to 20)
#    0.000    2.333    0.000    3.167    0.000    8.667 
#    0.000    1.667    0.000    0.333    0.000    2.333 
#    0.000    0.000    0.000    0.500    0.000    8.000 
#
# Total GULP energy -892336.280300 kJ/mol
# GULP energy per Si atom -12393.559449 kJ/mol
# Density = 1.694531 g / cm^3
# Si number density = 16.983970 Si / 1000 Ang^3
#
#
#
# Elastic Constant Matrix: (Units=GPa)
#
#
# Indices 1 2 3 4 5 6 
#
# 1 76.1048 51.5228 48.6268 0.0000 0.0000 0.0000
# 2 51.5228 76.1048 48.6268 0.0000 0.0000 0.0000
# 3 48.6268 48.6268 106.7368 0.0000 0.0000 0.0000
# 4 0.0000 0.0000 0.0000 22.9693 0.0000 0.0000
# 5 0.0000 0.0000 0.0000 0.0000 22.9693 0.0000
# 6 0.0000 0.0000 0.0000 0.0000 0.0000 12.2910
#
#
#
# Elastic Compliance Matrix: (Units=1/GPa)
#
#
# Indices 1 2 3 4 5 6 
#
# 1 0.026341 -0.014339 -0.005468 0.000000 0.000000 0.000000
# 2 -0.014339 0.026341 -0.005468 0.000000 0.000000 0.000000
# 3 -0.005468 -0.005468 0.014351 0.000000 0.000000 0.000000
# 4 0.000000 0.000000 0.000000 0.043536 0.000000 0.000000
# 5 0.000000 0.000000 0.000000 0.000000 0.043536 0.000000
# 6 0.000000 0.000000 0.000000 0.000000 0.000000 0.081360
#
#
# Mechanical properties :
#
#
# Convention : Reuss Voigt Hill
#
# Bulk Modulus (GPa) = 60.66708 61.83325 61.25016
# Shear Modulus (GPa) = 17.15213 18.99060 18.07136
#
# Velocity S-wave (km/s) = 3.18134 3.34750 3.26548
# Velocity P-wave (km/s) = 7.02085 7.17125 7.09645
#
# Compressibility (1/GPa) = 0.01648340
#
# Stress axis : x y z
#
# Youngs Moduli (GPa) = 37.96379 37.96379 69.68270
#
# Poissons Ratio (x) = 0.54437 0.38101
# Poissons Ratio (y) = 0.54437 0.38101
# Poissons Ratio (z) = 0.20758 0.20758
#
# Static dielectric constant tensor:
#      x y z
#    x 2.920370 0.000000 0.000000 
#    y 0.000000 2.920370 0.000000 
#    z 0.000000 0.000000 3.493300 
# 
# 
# High freq. dielectric constant tensor:
#      x y z
#    x 1.623220 0.000000 0.000000 
#    y 0.000000 1.623220 0.000000 
#    z 0.000000 0.000000 1.678260 
# 
# From -- ./inp_files/997.got.cif
#   From: 2010.03.12/outbox.cif.g09.slc.cpg/sg188_1_cif.got.tgz:997.got - 2010.04.01 12:01:06.
