data_PCOD8327823
_publ_section_title
;
Structure prediction by ZEFSAII (Michael W. Deem and Ramdas Pophale) SiO2 
 PCOD8327823
Probable space group: P -6 2 M
;
_chemical_formula_sum "Si O2"
_cell_formula_units_Z 84
_cell_length_a 21.007831
_cell_length_b 21.007831
_cell_length_c 12.539810
_cell_angle_alpha 90.000000
_cell_angle_beta 90.000000
_cell_angle_gamma 120.000000
_cell_volume 4792.741636
_symmetry_space_group_name_H-M "P -6 2 M"
_symmetry_group_IT_number 189
_symmetry_cell_setting 'hexagonal'
loop_
_space_group_symop_operation_xyz
x,y,z
-x+y,-x,-z
-y,x-y,z
x,y,-z
-x+y,-x,z
-y,x-y,-z
x-y,-y,-z
-x,-x+y,-z
y,x,-z
y,x,z
x-y,-y,z
-x,-x+y,z
loop_
_atom_site_type_symbol
_atom_site_label
_atom_site_fract_x
_atom_site_fract_y
_atom_site_fract_z
Si Si1 0.330293 0.411181 0.382399
Si Si2 0.737056 0.820912 0.378533
Si Si3 0.705815 0.916954 0.761965
Si Si4 0.600884 0.685689 0.282213
Si Si5 0.349130 0.805261 0.622379
Si Si6 0.213425 0.682420 0.282012
Si Si7 0.422851 0.207923 0.124471
O O1 0.308604 0.421912 0.500000
O O2 0.400388 0.400388 0.381091
O O3 0.259438 0.341108 0.336529
O O4 0.354752 0.483609 0.315187
O O5 0.740526 0.848388 0.500000
O O6 0.799635 0.799635 0.359605
O O7 0.753378 0.883641 0.290307
O O8 0.656744 0.750241 0.360169
O O9 0.649476 0.864721 0.853313
O O10 0.759267 0.000000 0.806766
O O11 0.631499 0.631499 0.250183
O O12 0.523370 0.638675 0.343995
O O13 0.588818 0.721355 0.175656
O O14 0.375666 0.808130 0.500000
O O15 0.386965 0.774394 0.707134
O O16 0.263178 0.745642 0.633139
O O17 0.221105 0.721826 0.167687
O O18 0.432980 0.204090 0.000000
#
# Coordination Sequence:
#
# PCOD8327823 Si02
#       7
#    12  12  12  12  12  12  12
#     4   9  16  27  44  66  94 125 154 194 248 295
#     4   9  16  27  44  68 102 139 167 195 238 293
#     4   9  17  28  46  72  96 121 162 209 247 289
#     4   9  19  33  50  76 103 125 159 205 251 298
#     4  11  20  31  50  72 101 139 169 197 236 287
#     4  10  21  34  47  71 101 130 170 206 236 281
#     4   9  19  36  55  71  94 129 164 206 256 296
#
# _framework density 17.526503000000002
#
# number of rings (size 3 to 8) (size 9 to 14) (size 15 to 20)
#    0.000    2.571    0.000    3.286    0.000    2.857 
#    0.000    2.857    0.000    0.286    0.000    0.000 
#    0.000    0.000    0.000    0.429    0.000    0.571 
#
# Total GULP energy -1040855.522137 kJ/mol
# GULP energy per Si atom -12391.137168 kJ/mol
# Density = 1.748661 g / cm^3
# Si number density = 17.526503 Si / 1000 Ang^3
#
#
#
# Elastic Constant Matrix: (Units=GPa)
#
#
# Indices 1 2 3 4 5 6 
#
# 1 76.7472 30.0250 30.7038 0.0000 0.0000 0.0000
# 2 30.0250 76.7472 30.7038 0.0000 0.0000 0.0000
# 3 30.7038 30.7038 98.7729 0.0000 0.0000 0.0000
# 4 0.0000 0.0000 0.0000 16.1465 0.0000 0.0000
# 5 0.0000 0.0000 0.0000 0.0000 16.1465 0.0000
# 6 0.0000 0.0000 0.0000 0.0000 0.0000 23.3611
#
#
#
# Elastic Compliance Matrix: (Units=1/GPa)
#
#
# Indices 1 2 3 4 5 6 
#
# 1 0.016404 -0.004999 -0.003545 0.000000 0.000000 0.000000
# 2 -0.004999 0.016404 -0.003545 0.000000 0.000000 0.000000
# 3 -0.003545 -0.003545 0.012328 0.000000 0.000000 0.000000
# 4 0.000000 0.000000 0.000000 0.061933 0.000000 0.000000
# 5 0.000000 0.000000 0.000000 0.000000 0.061933 0.000000
# 6 0.000000 0.000000 0.000000 0.000000 0.000000 0.042806
#
#
# Mechanical properties :
#
#
# Convention : Reuss Voigt Hill
#
# Bulk Modulus (GPa) = 47.71691 48.34805 48.03248
# Shear Modulus (GPa) = 20.57841 21.85312 21.21577
#
# Velocity S-wave (km/s) = 3.43028 3.53492 3.48299
# Velocity P-wave (km/s) = 6.55544 6.65631 6.60607
#
# Compressibility (1/GPa) = 0.02095693
#
# Stress axis : x y z
#
# Youngs Moduli (GPa) = 60.96121 60.96121 81.11430
#
# Poissons Ratio (x) = 0.30476 0.28756
# Poissons Ratio (y) = 0.30476 0.28756
# Poissons Ratio (z) = 0.21612 0.21612
#
# Static dielectric constant tensor:
#      x y z
#    x 3.394380 0.000000 0.000000 
#    y 0.000000 3.394380 0.000000 
#    z 0.000000 0.000000 2.909180 
# 
# 
# High freq. dielectric constant tensor:
#      x y z
#    x 1.673350 0.000000 0.000000 
#    y 0.000000 1.673350 0.000000 
#    z 0.000000 0.000000 1.645500 
# 
# From -- ./inp_files/2120.got.cif
#   From: 2010.03.12/outbox.cif.g09.slc.cpg/sg189_2_cif.got.tgz:2120.got - 2010.04.01 12:03:36.
