data_PCOD8327113
_publ_section_title
;
Structure prediction by ZEFSAII (Michael W. Deem and Ramdas Pophale) SiO2 
 PCOD8327113
Probable space group: P -6 M 2
;
_chemical_formula_sum "Si O2"
_cell_formula_units_Z 66
_cell_length_a 12.471445
_cell_length_b 12.471445
_cell_length_c 28.749173
_cell_angle_alpha 90.000000
_cell_angle_beta 90.000000
_cell_angle_gamma 120.000000
_cell_volume 3872.483175
_symmetry_space_group_name_H-M "P -6 M 2"
_symmetry_group_IT_number 187
_symmetry_cell_setting 'hexagonal'
loop_
_space_group_symop_operation_xyz
x,y,z
-x+y,-x,-z
-y,x-y,z
x,y,-z
-x+y,-x,z
-y,x-y,-z
-y,-x,-z
-x+y,y,-z
x,x-y,-z
-x+y,y,z
x,x-y,z
-y,-x,z
loop_
_atom_site_type_symbol
_atom_site_label
_atom_site_fract_x
_atom_site_fract_y
_atom_site_fract_z
Si Si1 0.332222 0.917264 0.000000
Si Si2 0.415847 0.331883 0.176524
Si Si3 0.251408 0.000089 0.911712
Si Si4 0.664513 0.578174 0.450833
Si Si5 0.665387 0.584166 0.350124
Si Si6 0.750777 0.000794 0.264210
O O1 0.325532 0.987941 0.954726
O O2 0.224597 0.775404 0.000000
O O3 0.461142 0.922284 0.000000
O O4 0.455199 0.227600 0.174270
O O5 0.536357 0.463644 0.171712
O O6 0.323502 0.316071 0.135157
O O7 0.349805 0.326079 0.224884
O O8 0.114619 0.885382 0.907799
O O9 0.239809 0.119905 0.919805
O O10 0.640674 0.632126 0.500000
O O11 0.799983 0.599966 0.454402
O O12 0.567950 0.432051 0.448055
O O13 0.653604 0.635530 0.401498
O O14 0.776770 0.553540 0.349563
O O15 0.540262 0.459739 0.336314
O O16 0.690650 0.691212 0.313781
O O17 0.894448 0.105553 0.262304
O O18 0.740182 0.870091 0.255586
#
# Coordination Sequence:
#
# PCOD8327113 Si02
#       6
#     6  12  12  12  12  12
#     4  10  20  34  52  74 102 136 172 208 246 288
#     4  10  20  34  53  76 101 127 154 189 235 286
#     4  10  20  34  54  78 104 134 167 204 241 279
#     4   8  12  18  31  55  87 118 144 172 213 268
#     4   9  16  26  43  67  93 119 146 181 227 278
#     4  10  20  33  49  67  89 120 157 196 233 271
#
# _framework density 17.043327000000001
#
# number of rings (size 3 to 8) (size 9 to 14) (size 15 to 20)
#    0.000    2.545    0.000    2.909    0.000    2.182 
#    0.000    4.545    0.000   10.727    0.000    0.000 
#    0.000    1.455    0.000    0.000    0.000    0.000 
#
# Total GULP energy -817867.121773 kJ/mol
# GULP energy per Si atom -12391.926087 kJ/mol
# Density = 1.700454 g / cm^3
# Si number density = 17.043327 Si / 1000 Ang^3
#
#
#
# Elastic Constant Matrix: (Units=GPa)
#
#
# Indices 1 2 3 4 5 6 
#
# 1 68.4910 39.2639 40.1415 0.0000 0.0038 0.0000
# 2 39.2639 68.4910 40.1415 0.0000 -0.0038 0.0000
# 3 40.1415 40.1415 139.4567 0.0000 0.0000 0.0000
# 4 0.0000 0.0000 0.0000 -3.2754 0.0000 -0.0038
# 5 0.0038 -0.0038 0.0000 0.0000 -3.2754 0.0000
# 6 0.0000 0.0000 0.0000 -0.0038 0.0000 14.6136
#
#
#
# Elastic Compliance Matrix: (Units=1/GPa)
#
#
# Indices 1 2 3 4 5 6 
#
# 1 0.023014 -0.011200 -0.003401 0.000000 0.000040 0.000000
# 2 -0.011200 0.023014 -0.003401 0.000000 -0.000040 0.000000
# 3 -0.003401 -0.003401 0.009128 0.000000 0.000000 0.000000
# 4 0.000000 0.000000 0.000000 -0.305302 0.000000 -0.000079
# 5 0.000040 -0.000040 0.000000 0.000000 -0.305302 0.000000
# 6 0.000000 0.000000 0.000000 -0.000079 0.000000 0.068430
#
#
# Mechanical properties :
#
#
# Convention : Reuss Voigt Hill
#
# Bulk Modulus (GPa) = 52.20852 57.28140 54.74496
# Shear Modulus (GPa) = -11.24531 12.07200 0.41334
#
# Velocity S-wave (km/s) = -2.57146 2.66430 0.49300
# Velocity P-wave (km/s) = 4.67790 6.56863 5.70218
#
# Compressibility (1/GPa) = 0.01915396
#
# Stress axis : x y z
#
# Youngs Moduli (GPa) = 43.45120 43.45120 109.54924
#
# Poissons Ratio (x) = 0.48667 0.37253
# Poissons Ratio (y) = 0.48667 0.37253
# Poissons Ratio (z) = 0.14776 0.14776
#
# Static dielectric constant tensor:
#      x y z
#    x 2.918750 0.000000 0.000000 
#    y 0.000000 2.918750 0.000000 
#    z 0.000000 0.000000 3.809780 
# 
# 
# High freq. dielectric constant tensor:
#      x y z
#    x 1.632810 0.000000 0.000000 
#    y 0.000000 1.632810 0.000000 
#    z 0.000000 0.000000 1.690490 
# 
# From -- ./inp_files/4417.got.cif
#   From: 2010.03.12/outbox.cif.g09.slc.cpg/sg187_3_cif.got.tgz:4417.got - 2010.04.01 11:58:23.
