data_PCOD8327934
_publ_section_title
;
Structure prediction by ZEFSAII (Michael W. Deem and Ramdas Pophale) SiO2 
 PCOD8327934
Probable space group: P -6 2 C
;
_chemical_formula_sum "Si O2"
_cell_formula_units_Z 48
_cell_length_a 22.986275
_cell_length_b 22.986275
_cell_length_c 8.351048
_cell_angle_alpha 90.000000
_cell_angle_beta 90.000000
_cell_angle_gamma 120.000000
_cell_volume 3821.279530
_symmetry_space_group_name_H-M "P -6 2 C"
_symmetry_group_IT_number 190
_symmetry_cell_setting 'hexagonal'
loop_
_space_group_symop_operation_xyz
x,y,z
-x+y,-x,1/2-z
-y,x-y,z
x,y,1/2-z
-x+y,-x,z
-y,x-y,1/2-z
x-y,-y,-z
-x,-x+y,-z
y,x,-z
y,x,1/2+z
x-y,-y,1/2+z
-x,-x+y,1/2+z
loop_
_atom_site_type_symbol
_atom_site_label
_atom_site_fract_x
_atom_site_fract_y
_atom_site_fract_z
Si Si1 0.595327 0.528192 0.939245
Si Si2 0.467159 0.398216 0.435420
Si Si3 0.662406 0.206308 0.934427
Si Si4 0.465015 0.671447 0.936407
O O1 0.584592 0.518607 0.750000
O O2 0.596323 0.596323 0.000000
O O3 0.534237 0.468435 0.034547
O O4 0.661041 0.525029 0.992526
O O5 0.456589 0.380616 0.250000
O O6 0.403144 0.403144 0.500000
O O7 0.476629 0.341079 0.524692
O O8 0.644340 0.207422 0.750000
O O9 0.736298 0.265508 0.970575
O O10 0.608265 0.214973 0.038005
O O11 0.476879 0.688085 0.750000
#
# Coordination Sequence:
#
# PCOD8327934 Si02
#       4
#    12  12  12  12
#     4  10  17  27  40  54  68  86 109 136 165 198
#     4  10  17  27  40  54  68  86 109 136 165 198
#     4  11  20  30  40  53  70  90 112 138 170 208
#     4  11  20  30  40  53  70  90 112 138 170 208
#
# _framework density 12.561237
#
# number of rings (size 3 to 8) (size 9 to 14) (size 15 to 20)
#    0.000    1.500    0.000   14.000    0.000    0.000 
#    0.000    0.000    0.000    0.000    0.000    0.000 
#    0.000    0.000    0.000    0.000    0.000    0.000 
#
# Total GULP energy -594986.265070 kJ/mol
# GULP energy per Si atom -12395.547189 kJ/mol
# Density = 1.253265 g / cm^3
# Si number density = 12.561237 Si / 1000 Ang^3
#
#
#
# Elastic Constant Matrix: (Units=GPa)
#
#
# Indices 1 2 3 4 5 6 
#
# 1 55.7687 34.8933 9.6000 0.0000 0.0000 0.0000
# 2 34.8933 55.7687 9.6000 0.0000 0.0000 0.0000
# 3 9.6000 9.6000 70.9215 0.0000 0.0000 0.0000
# 4 0.0000 0.0000 0.0000 17.1325 0.0000 0.0000
# 5 0.0000 0.0000 0.0000 0.0000 17.1325 0.0000
# 6 0.0000 0.0000 0.0000 0.0000 0.0000 10.4377
#
#
#
# Elastic Compliance Matrix: (Units=1/GPa)
#
#
# Indices 1 2 3 4 5 6 
#
# 1 0.029629 -0.018274 -0.001537 0.000000 0.000000 0.000000
# 2 -0.018274 0.029629 -0.001537 0.000000 0.000000 0.000000
# 3 -0.001537 -0.001537 0.014516 0.000000 0.000000 0.000000
# 4 0.000000 0.000000 0.000000 0.058368 0.000000 0.000000
# 5 0.000000 0.000000 0.000000 0.000000 0.058368 0.000000
# 6 0.000000 0.000000 0.000000 0.000000 0.000000 0.095807
#
#
# Mechanical properties :
#
#
# Convention : Reuss Voigt Hill
#
# Bulk Modulus (GPa) = 32.17623 32.29396 32.23509
# Shear Modulus (GPa) = 14.73297 17.49824 16.11561
#
# Velocity S-wave (km/s) = 3.42847 3.73639 3.58573
# Velocity P-wave (km/s) = 6.42990 6.66177 6.54686
#
# Compressibility (1/GPa) = 0.03107884
#
# Stress axis : x y z
#
# Youngs Moduli (GPa) = 33.75018 33.75018 68.88841
#
# Poissons Ratio (x) = 0.61675 0.10589
# Poissons Ratio (y) = 0.61675 0.10589
# Poissons Ratio (z) = 0.05188 0.05188
#
# Static dielectric constant tensor:
#      x y z
#    x 2.784220 0.000000 0.000000 
#    y 0.000000 2.784220 0.000000 
#    z 0.000000 0.000000 2.668480 
# 
# 
# High freq. dielectric constant tensor:
#      x y z
#    x 1.442590 0.000000 0.000000 
#    y 0.000000 1.442590 0.000000 
#    z 0.000000 0.000000 1.503820 
# 
# From -- ./inp_files/789.got.cif
#   From: 2010.06.25/outbox.cif.g09.slc.cpg/sg190_1_cif.got.tgz:789.got - 2010.06.28 13:08:06.
