data_PCOD8327520
_publ_section_title
;
Structure prediction by ZEFSAII (Michael W. Deem and Ramdas Pophale) SiO2 
 PCOD8327520
Probable space group: P -6 2 M
;
_chemical_formula_sum "Si O2"
_cell_formula_units_Z 66
_cell_length_a 23.253050
_cell_length_b 23.253050
_cell_length_c 7.855191
_cell_angle_alpha 90.000000
_cell_angle_beta 90.000000
_cell_angle_gamma 120.000000
_cell_volume 3678.300719
_symmetry_space_group_name_H-M "P -6 2 M"
_symmetry_group_IT_number 189
_symmetry_cell_setting 'hexagonal'
loop_
_space_group_symop_operation_xyz
x,y,z
-x+y,-x,-z
-y,x-y,z
x,y,-z
-x+y,-x,z
-y,x-y,-z
x-y,-y,-z
-x,-x+y,-z
y,x,-z
y,x,z
x-y,-y,z
-x,-x+y,z
loop_
_atom_site_type_symbol
_atom_site_label
_atom_site_fract_x
_atom_site_fract_y
_atom_site_fract_z
Si Si1 0.238632 0.075983 0.191699
Si Si2 0.761700 0.614865 0.696508
Si Si3 0.588804 0.191049 0.196414
Si Si4 0.486115 0.751288 0.202914
Si Si5 0.077535 0.156329 0.500000
Si Si6 0.461972 0.073798 0.701800
O O1 0.317521 0.124844 0.203100
O O2 0.201316 0.096751 0.330004
O O3 0.220406 0.000000 0.227395
O O4 0.216448 0.082657 0.000000
O O5 0.764694 0.633842 0.500000
O O6 0.785948 0.561229 0.724180
O O7 0.686923 0.581518 0.770159
O O8 0.659824 0.209293 0.276524
O O9 0.557582 0.233682 0.275384
O O10 0.536960 0.113698 0.227861
O O11 0.601886 0.208902 0.000000
O O12 0.490569 0.752263 0.000000
O O13 0.119664 0.119664 0.500000
O O14 0.000000 0.101663 0.500000
O O15 0.463363 0.075249 0.500000
O O16 0.430132 0.000000 0.775065
#
# Coordination Sequence:
#
# PCOD8327520 Si02
#       6
#    12  12  12  12   6  12
#     4  10  20  34  55  83 113 144 176 213 259 309
#     4  10  18  30  49  74 102 133 169 213 264 312
#     4   9  17  29  45  65  91 124 161 203 252 306
#     4   9  17  29  45  67  95 128 168 214 265 317
#     4  10  21  38  60  86 116 146 176 208 248 300
#     4   9  18  30  45  66  95 127 158 199 252 306
#
# _framework density 17.943069000000001
#
# number of rings (size 3 to 8) (size 9 to 14) (size 15 to 20)
#    0.000    2.545    0.909    1.545    0.000    4.364 
#    0.000    0.000    0.000    4.364    0.000    2.545 
#    0.000    0.000    0.000    0.000    0.000    0.000 
#
# Total GULP energy -818236.558283 kJ/mol
# GULP energy per Si atom -12397.523610 kJ/mol
# Density = 1.790223 g / cm^3
# Si number density = 17.943069 Si / 1000 Ang^3
#
#
#
# Elastic Constant Matrix: (Units=GPa)
#
#
# Indices 1 2 3 4 5 6 
#
# 1 120.9336 61.2189 28.1383 0.0000 0.0000 0.0000
# 2 61.2189 120.9336 28.1383 0.0000 0.0000 0.0000
# 3 28.1383 28.1383 64.5120 0.0000 0.0000 0.0000
# 4 0.0000 0.0000 0.0000 21.2302 0.0000 0.0000
# 5 0.0000 0.0000 0.0000 0.0000 21.2302 0.0000
# 6 0.0000 0.0000 0.0000 0.0000 0.0000 29.8574
#
#
#
# Elastic Compliance Matrix: (Units=1/GPa)
#
#
# Indices 1 2 3 4 5 6 
#
# 1 0.011546 -0.005201 -0.002767 0.000000 0.000000 0.000000
# 2 -0.005201 0.011546 -0.002767 0.000000 0.000000 0.000000
# 3 -0.002767 -0.002767 0.017915 0.000000 0.000000 0.000000
# 4 0.000000 0.000000 0.000000 0.047103 0.000000 0.000000
# 5 0.000000 0.000000 0.000000 0.000000 0.047103 0.000000
# 6 0.000000 0.000000 0.000000 0.000000 0.000000 0.033493
#
#
# Mechanical properties :
#
#
# Convention : Reuss Voigt Hill
#
# Bulk Modulus (GPa) = 51.18983 60.15225 55.67104
# Shear Modulus (GPa) = 25.42103 27.05579 26.23841
#
# Velocity S-wave (km/s) = 3.76807 3.88734 3.82817
# Velocity P-wave (km/s) = 6.89363 7.33112 7.11574
#
# Compressibility (1/GPa) = 0.01953513
#
# Stress axis : x y z
#
# Youngs Moduli (GPa) = 86.61305 86.61305 55.81855
#
# Poissons Ratio (x) = 0.45045 0.15448
# Poissons Ratio (y) = 0.45045 0.15448
# Poissons Ratio (z) = 0.23970 0.23970
#
# Static dielectric constant tensor:
#      x y z
#    x 3.272310 0.000000 0.000000 
#    y 0.000000 3.272310 0.000000 
#    z 0.000000 0.000000 3.231930 
# 
# 
# High freq. dielectric constant tensor:
#      x y z
#    x 1.676870 0.000000 0.000000 
#    y 0.000000 1.676870 0.000000 
#    z 0.000000 0.000000 1.694510 
# 
# From -- ./inp_files/1064.got.cif
#   From: 2010.03.12/outbox.cif.g09.slc.cpg/sg189_1_cif.got.tgz:1064.got - 2010.04.01 12:03:36.
