data_PCOD8327734
_publ_section_title
;
Structure prediction by ZEFSAII (Michael W. Deem and Ramdas Pophale) SiO2 
 PCOD8327734
Probable space group: P -6 2 M
;
_chemical_formula_sum "Si O2"
_cell_formula_units_Z 42
_cell_length_a 12.484482
_cell_length_b 12.484482
_cell_length_c 16.309273
_cell_angle_alpha 90.000000
_cell_angle_beta 90.000000
_cell_angle_gamma 120.000000
_cell_volume 2201.437140
_symmetry_space_group_name_H-M "P -6 2 M"
_symmetry_group_IT_number 189
_symmetry_cell_setting 'hexagonal'
loop_
_space_group_symop_operation_xyz
x,y,z
-x+y,-x,-z
-y,x-y,z
x,y,-z
-x+y,-x,z
-y,x-y,-z
x-y,-y,-z
-x,-x+y,-z
y,x,-z
y,x,z
x-y,-y,z
-x,-x+y,z
loop_
_atom_site_type_symbol
_atom_site_label
_atom_site_fract_x
_atom_site_fract_y
_atom_site_fract_z
Si Si1 0.675702 0.535857 0.408107
Si Si2 0.465798 0.324299 0.695370
Si Si3 0.489138 0.755687 0.128621
Si Si4 0.850329 0.145875 0.000000
O O1 0.660662 0.481544 0.500000
O O2 0.644125 0.644125 0.407234
O O3 0.815914 0.595821 0.375458
O O4 0.593921 0.428692 0.343400
O O5 0.375083 0.375083 0.717632
O O6 0.481640 0.259211 0.775557
O O7 0.393172 0.806586 0.108932
O O8 0.616343 0.821971 0.078907
O O9 0.000000 0.223100 0.000000
O O10 0.804623 0.000000 0.000000
#
# Coordination Sequence:
#
# PCOD8327734 Si02
#       4
#    12  12  12   6
#     4  10  20  33  51  79 116 155 198 248 296 351
#     4  11  20  35  58  85 120 154 191 244 307 367
#     4  10  21  41  63  95 120 153 195 259 317 358
#     4  12  27  44  64  90 125 168 208 250 304 376
#
# _framework density 19.078446
#
# number of rings (size 3 to 8) (size 9 to 14) (size 15 to 20)
#    0.571    0.857    2.857    3.286    0.000    6.286 
#    0.000    0.000    0.000    0.571    0.000    0.000 
#    0.000    0.000    0.000    0.000    0.000    0.000 
#
# Total GULP energy -520305.845570 kJ/mol
# GULP energy per Si atom -12388.234418 kJ/mol
# Density = 1.903502 g / cm^3
# Si number density = 19.078446 Si / 1000 Ang^3
#
#
#
# Elastic Constant Matrix: (Units=GPa)
#
#
# Indices 1 2 3 4 5 6 
#
# 1 94.4080 43.8383 45.9795 0.0000 0.0000 0.0000
# 2 43.8383 94.4080 45.9795 0.0000 0.0000 0.0000
# 3 45.9795 45.9795 121.7899 0.0000 0.0000 0.0000
# 4 0.0000 0.0000 0.0000 17.2897 0.0000 0.0000
# 5 0.0000 0.0000 0.0000 0.0000 17.2897 0.0000
# 6 0.0000 0.0000 0.0000 0.0000 0.0000 25.2849
#
#
#
# Elastic Compliance Matrix: (Units=1/GPa)
#
#
# Indices 1 2 3 4 5 6 
#
# 1 0.014717 -0.005058 -0.003647 0.000000 0.000000 0.000000
# 2 -0.005058 0.014717 -0.003647 0.000000 0.000000 0.000000
# 3 -0.003647 -0.003647 0.010964 0.000000 0.000000 0.000000
# 4 0.000000 0.000000 0.000000 0.057838 0.000000 0.000000
# 5 0.000000 0.000000 0.000000 0.000000 0.057838 0.000000
# 6 0.000000 0.000000 0.000000 0.000000 0.000000 0.039549
#
#
# Mechanical properties :
#
#
# Convention : Reuss Voigt Hill
#
# Bulk Modulus (GPa) = 63.71027 64.68897 64.19962
# Shear Modulus (GPa) = 22.16732 23.62677 22.89704
#
# Velocity S-wave (km/s) = 3.41237 3.52291 3.46808
# Velocity P-wave (km/s) = 6.99943 7.10833 7.05409
#
# Compressibility (1/GPa) = 0.01569606
#
# Stress axis : x y z
#
# Youngs Moduli (GPa) = 67.94908 67.94908 91.20511
#
# Poissons Ratio (x) = 0.34367 0.33259
# Poissons Ratio (y) = 0.34367 0.33259
# Poissons Ratio (z) = 0.24779 0.24779
#
# Static dielectric constant tensor:
#      x y z
#    x 3.370840 0.000000 0.000000 
#    y 0.000000 3.370840 0.000000 
#    z 0.000000 0.000000 3.605460 
# 
# 
# High freq. dielectric constant tensor:
#      x y z
#    x 1.720950 0.000000 0.000000 
#    y 0.000000 1.720950 0.000000 
#    z 0.000000 0.000000 1.761890 
# 
# From -- ./inp_files/2955.got.cif
#   From: 2010.03.12/outbox.cif.g09.slc.cpg/sg189_2_cif.got.tgz:2955.got - 2010.04.01 12:03:36.
