data_PCOD8327340
_publ_section_title
;
Structure prediction by ZEFSAII (Michael W. Deem and Ramdas Pophale) SiO2 
 PCOD8327340
Probable space group: P -6 C 2
;
_chemical_formula_sum "Si O2"
_cell_formula_units_Z 72
_cell_length_a 23.907789
_cell_length_b 23.907789
_cell_length_c 9.027834
_cell_angle_alpha 90.000000
_cell_angle_beta 90.000000
_cell_angle_gamma 120.000000
_cell_volume 4468.821678
_symmetry_space_group_name_H-M "P -6 C 2"
_symmetry_group_IT_number 188
_symmetry_cell_setting 'hexagonal'
loop_
_space_group_symop_operation_xyz
x,y,z
-x+y,-x,1/2-z
-y,x-y,z
x,y,1/2-z
-x+y,-x,z
-y,x-y,1/2-z
-y,-x,-z
-x+y,y,-z
x,x-y,-z
-x+y,y,1/2+z
x,x-y,1/2+z
-y,-x,1/2+z
loop_
_atom_site_type_symbol
_atom_site_label
_atom_site_fract_x
_atom_site_fract_y
_atom_site_fract_z
Si Si1 0.219180 0.553817 0.424846
Si Si2 0.328207 0.218264 0.083922
Si Si3 0.704565 0.186411 0.417565
Si Si4 0.927015 0.519320 0.575348
Si Si5 0.594526 0.740649 0.076987
Si Si6 0.999841 0.331734 0.423882
O O1 0.228282 0.566601 0.250000
O O2 0.287896 0.575791 0.500000
O O3 0.190440 0.595220 0.500000
O O4 0.169424 0.479479 0.462738
O O5 0.300625 0.204424 0.250000
O O6 0.404997 0.253858 0.083898
O O7 0.299716 0.149858 0.000000
O O8 0.304985 0.263094 0.003623
O O9 0.688506 0.197292 0.250000
O O10 0.744878 0.255123 0.500000
O O11 0.638913 0.143737 0.507749
O O12 0.920637 0.507602 0.750000
O O13 0.955706 0.477853 0.500000
O O14 0.975285 0.593836 0.534846
O O15 0.603049 0.753850 0.250000
O O16 0.637652 0.710756 0.019885
O O17 0.618618 0.809309 0.000000
O O18 0.993238 0.318425 0.250000
#
# Coordination Sequence:
#
# PCOD8327340 Si02
#       6
#    12  12  12  12  12  12
#     4  10  19  31  46  63  82 106 141 188 242 294
#     4   9  16  26  43  67  91 114 140 170 205 246
#     4   9  16  27  43  62  83 108 139 172 208 253
#     4  10  19  30  44  63  88 116 146 184 229 274
#     4   9  19  34  49  65  87 117 152 189 230 279
#     4   9  18  32  47  64  89 119 149 183 224 268
#
# _framework density 16.111630000000002
#
# number of rings (size 3 to 8) (size 9 to 14) (size 15 to 20)
#    0.000    2.667    0.000    2.167    0.000    6.667 
#    0.000    0.000    0.000    0.333    0.000    2.333 
#    0.000    0.000    0.000    0.500    0.000    8.000 
#
# Total GULP energy -892821.916659 kJ/mol
# GULP energy per Si atom -12400.304398 kJ/mol
# Density = 1.607496 g / cm^3
# Si number density = 16.111630 Si / 1000 Ang^3
#
#
#
# Elastic Constant Matrix: (Units=GPa)
#
#
# Indices 1 2 3 4 5 6 
#
# 1 89.4896 58.6263 47.7340 0.0000 0.0000 0.0000
# 2 58.6263 89.4896 47.7340 0.0000 0.0000 0.0000
# 3 47.7340 47.7340 91.5132 0.0000 0.0000 0.0000
# 4 0.0000 0.0000 0.0000 23.5671 0.0000 0.0000
# 5 0.0000 0.0000 0.0000 0.0000 23.5671 0.0000
# 6 0.0000 0.0000 0.0000 0.0000 0.0000 15.4317
#
#
#
# Elastic Compliance Matrix: (Units=1/GPa)
#
#
# Indices 1 2 3 4 5 6 
#
# 1 0.021286 -0.011115 -0.005305 0.000000 0.000000 0.000000
# 2 -0.011115 0.021286 -0.005305 0.000000 0.000000 0.000000
# 3 -0.005305 -0.005305 0.016462 0.000000 0.000000 0.000000
# 4 0.000000 0.000000 0.000000 0.042432 0.000000 0.000000
# 5 0.000000 0.000000 0.000000 0.000000 0.042432 0.000000
# 6 0.000000 0.000000 0.000000 0.000000 0.000000 0.064802
#
#
# Mechanical properties :
#
#
# Convention : Reuss Voigt Hill
#
# Bulk Modulus (GPa) = 64.17324 64.29790 64.23557
# Shear Modulus (GPa) = 19.42918 20.27305 19.85112
#
# Velocity S-wave (km/s) = 3.47639 3.55108 3.51393
# Velocity P-wave (km/s) = 7.48536 7.53711 7.51128
#
# Compressibility (1/GPa) = 0.01558282
#
# Stress axis : x y z
#
# Youngs Moduli (GPa) = 46.97935 46.97935 60.74622
#
# Poissons Ratio (x) = 0.52217 0.32228
# Poissons Ratio (y) = 0.52217 0.32228
# Poissons Ratio (z) = 0.24924 0.24924
#
# Static dielectric constant tensor:
#      x y z
#    x 2.911570 0.000000 0.000000 
#    y 0.000000 2.911570 0.000000 
#    z 0.000000 0.000000 3.167030 
# 
# 
# High freq. dielectric constant tensor:
#      x y z
#    x 1.591170 0.000000 0.000000 
#    y 0.000000 1.591170 0.000000 
#    z 0.000000 0.000000 1.633490 
# 
# From -- ./inp_files/995.got.cif
#   From: 2010.03.12/outbox.cif.g09.slc.cpg/sg188_1_cif.got.tgz:995.got - 2010.04.01 12:01:06.
