data_PCOD8327069
_publ_section_title
;
Structure prediction by ZEFSAII (Michael W. Deem and Ramdas Pophale) SiO2 
 PCOD8327069
Probable space group: P -6 M 2
;
_chemical_formula_sum "Si O2"
_cell_formula_units_Z 60
_cell_length_a 12.618050
_cell_length_b 12.618050
_cell_length_c 25.463034
_cell_angle_alpha 90.000000
_cell_angle_beta 90.000000
_cell_angle_gamma 120.000000
_cell_volume 3510.955053
_symmetry_space_group_name_H-M "P -6 M 2"
_symmetry_group_IT_number 187
_symmetry_cell_setting 'hexagonal'
loop_
_space_group_symop_operation_xyz
x,y,z
-x+y,-x,-z
-y,x-y,z
x,y,-z
-x+y,-x,z
-y,x-y,-z
-y,-x,-z
-x+y,y,-z
x,x-y,-z
-x+y,y,z
x,x-y,z
-y,-x,z
loop_
_atom_site_type_symbol
_atom_site_label
_atom_site_fract_x
_atom_site_fract_y
_atom_site_fract_z
Si Si1 0.085696 0.418400 0.500000
Si Si2 0.580260 0.666928 0.195660
Si Si3 0.085088 0.668276 0.000000
Si Si4 0.247153 0.998134 0.098204
Si Si5 0.423157 0.089315 0.711004
Si Si6 0.911780 0.578490 0.407995
O O1 0.215640 0.431280 0.500000
O O2 0.105197 0.552599 0.500000
O O3 0.015962 0.345899 0.552428
O O4 0.546723 0.773362 0.198224
O O5 0.457977 0.542024 0.181430
O O6 0.681336 0.692961 0.152002
O O7 0.635885 0.660010 0.251445
O O8 0.015903 0.677666 0.949169
O O9 0.226811 0.773190 0.000000
O O10 0.077959 0.538980 0.000000
O O11 0.258425 0.129213 0.094829
O O12 0.104891 0.895110 0.094764
O O13 0.565812 0.131623 0.717349
O O14 0.407158 0.203579 0.726416
O O15 0.378558 0.044827 0.651648
O O16 0.790765 0.581530 0.421667
O O17 0.881710 0.440855 0.417393
#
# Coordination Sequence:
#
# PCOD8327069 Si02
#       6
#     6  12   6  12  12  12
#     4  10  20  32  46  66  94 128 162 194 232 280
#     4  10  20  33  50  72  99 131 165 201 239 282
#     4  10  20  34  54  78 104 134 166 200 238 284
#     4  10  20  34  53  75  99 128 163 204 246 287
#     4   9  17  30  49  73  99 125 154 191 238 289
#     4   9  17  30  50  74  96 119 151 195 243 286
#
# _framework density 17.089366999999999
#
# number of rings (size 3 to 8) (size 9 to 14) (size 15 to 20)
#    0.000    2.400    0.000    2.800    0.000    2.400 
#    0.000    4.000    0.000   11.200    0.000    0.000 
#    0.000    0.000    0.000    0.000    0.000    0.000 
#
# Total GULP energy -744100.385145 kJ/mol
# GULP energy per Si atom -12401.673086 kJ/mol
# Density = 1.705047 g / cm^3
# Si number density = 17.089367 Si / 1000 Ang^3
#
#
#
# Elastic Constant Matrix: (Units=GPa)
#
#
# Indices 1 2 3 4 5 6 
#
# 1 98.5213 49.9034 53.8408 0.0000 0.0001 0.0000
# 2 49.9034 98.5213 53.8408 0.0000 -0.0001 0.0000
# 3 53.8408 53.8408 115.5505 0.0000 0.0000 0.0000
# 4 0.0000 0.0000 0.0000 24.8051 0.0000 -0.0001
# 5 0.0001 -0.0001 0.0000 0.0000 24.8051 0.0000
# 6 0.0000 0.0000 0.0000 -0.0001 0.0000 24.3089
#
#
#
# Elastic Compliance Matrix: (Units=1/GPa)
#
#
# Indices 1 2 3 4 5 6 
#
# 1 0.015373 -0.005195 -0.004742 0.000000 0.000000 0.000000
# 2 -0.005195 0.015373 -0.004742 0.000000 0.000000 0.000000
# 3 -0.004742 -0.004742 0.013074 0.000000 0.000000 0.000000
# 4 0.000000 0.000000 0.000000 0.040314 0.000000 0.000000
# 5 0.000000 0.000000 0.000000 0.000000 0.040314 0.000000
# 6 0.000000 0.000000 0.000000 0.000000 0.000000 0.041137
#
#
# Mechanical properties :
#
#
# Convention : Reuss Voigt Hill
#
# Bulk Modulus (GPa) = 69.15637 69.75144 69.45390
# Shear Modulus (GPa) = 25.02924 25.11772 25.07348
#
# Velocity S-wave (km/s) = 3.83117 3.83794 3.83456
# Velocity P-wave (km/s) = 7.75409 7.78100 7.76756
#
# Compressibility (1/GPa) = 0.01445998
#
# Stress axis : x y z
#
# Youngs Moduli (GPa) = 65.04780 65.04780 76.48930
#
# Poissons Ratio (x) = 0.33794 0.36275
# Poissons Ratio (y) = 0.33794 0.36275
# Poissons Ratio (z) = 0.30849 0.30849
#
# Static dielectric constant tensor:
#      x y z
#    x 3.068260 0.000000 0.000000 
#    y 0.000000 3.068260 0.000000 
#    z 0.000000 0.000000 3.474620 
# 
# 
# High freq. dielectric constant tensor:
#      x y z
#    x 1.651890 0.000000 0.000000 
#    y 0.000000 1.651890 0.000000 
#    z 0.000000 0.000000 1.677460 
# 
# From -- ./inp_files/4154.got.cif
#   From: 2010.03.12/outbox.cif.g09.slc.cpg/sg187_3_cif.got.tgz:4154.got - 2010.04.01 11:58:23.
