data_PCOD8327100
_publ_section_title
;
Structure prediction by ZEFSAII (Michael W. Deem and Ramdas Pophale) SiO2 
 PCOD8327100
Probable space group: P -6 M 2
;
_chemical_formula_sum "Si O2"
_cell_formula_units_Z 60
_cell_length_a 12.490504
_cell_length_b 12.490504
_cell_length_c 25.889037
_cell_angle_alpha 90.000000
_cell_angle_beta 90.000000
_cell_angle_gamma 120.000000
_cell_volume 3497.892461
_symmetry_space_group_name_H-M "P -6 M 2"
_symmetry_group_IT_number 187
_symmetry_cell_setting 'hexagonal'
loop_
_space_group_symop_operation_xyz
x,y,z
-x+y,-x,-z
-y,x-y,z
x,y,-z
-x+y,-x,z
-y,x-y,-z
-y,-x,-z
-x+y,y,-z
x,x-y,-z
-x+y,y,z
x,x-y,z
-y,-x,z
loop_
_atom_site_type_symbol
_atom_site_label
_atom_site_fract_x
_atom_site_fract_y
_atom_site_fract_z
Si Si1 0.917335 0.582531 0.000000
Si Si2 0.749996 0.747304 0.387959
Si Si3 0.333466 0.917328 0.902044
Si Si4 0.999315 0.749660 0.804702
Si Si5 0.758771 0.756473 0.500000
Si Si6 0.417078 0.084480 0.293755
O O1 0.995265 0.651278 0.050309
O O2 0.796075 0.592150 0.000000
O O3 0.879108 0.439554 0.000000
O O4 0.742747 0.871374 0.382723
O O5 0.705474 0.684513 0.445510
O O6 0.660141 0.646182 0.346951
O O7 0.891027 0.782053 0.376800
O O8 0.446162 0.892324 0.897231
O O9 0.211879 0.788122 0.911790
O O10 0.326359 0.982570 0.850125
O O11 0.113628 0.886373 0.799214
O O12 0.879819 0.759638 0.817698
O O13 0.985691 0.678797 0.751754
O O14 0.729691 0.864846 0.500000
O O15 0.906099 0.812198 0.500000
O O16 0.537965 0.075930 0.283590
O O17 0.455323 0.227662 0.296542
#
# Coordination Sequence:
#
# PCOD8327100 Si02
#       6
#     6  12  12  12   6  12
#     4  10  20  34  52  74 100 130 166 208 252 292
#     4   9  16  27  46  71  97 122 150 189 237 287
#     4  10  20  34  53  76 103 135 169 203 238 281
#     4  10  20  34  53  76 101 127 156 195 243 293
#     4   8  13  22  39  66  96 122 148 182 230 284
#     4  10  20  33  48  66  91 124 161 198 235 278
#
# _framework density 17.153186000000002
#
# number of rings (size 3 to 8) (size 9 to 14) (size 15 to 20)
#    0.000    2.400    0.000    3.100    0.000    1.600 
#    0.000    3.500    0.000   13.600    0.000    1.400 
#    0.000    0.000    0.000    0.000    0.000    0.000 
#
# Total GULP energy -743793.583040 kJ/mol
# GULP energy per Si atom -12396.559717 kJ/mol
# Density = 1.711414 g / cm^3
# Si number density = 17.153186 Si / 1000 Ang^3
#
#
#
# Elastic Constant Matrix: (Units=GPa)
#
#
# Indices 1 2 3 4 5 6 
#
# 1 79.7715 45.9599 51.3442 0.0000 0.0467 0.0000
# 2 45.9599 79.7715 51.3442 0.0000 -0.0467 0.0000
# 3 51.3442 51.3442 130.5200 0.0000 0.0000 0.0000
# 4 0.0000 0.0000 0.0000 591.7723 0.0009 -0.0467
# 5 0.0467 -0.0467 0.0000 0.0009 591.7712 0.0000
# 6 0.0000 0.0000 0.0000 -0.0467 0.0000 16.9058
#
#
#
# Elastic Compliance Matrix: (Units=1/GPa)
#
#
# Indices 1 2 3 4 5 6 
#
# 1 0.020647 -0.008929 -0.004610 0.000000 -0.000002 0.000000
# 2 -0.008929 0.020647 -0.004610 0.000000 0.000002 0.000000
# 3 -0.004610 -0.004610 0.011288 0.000000 0.000000 0.000000
# 4 0.000000 0.000000 0.000000 0.001690 0.000000 0.000005
# 5 -0.000002 0.000002 0.000000 0.000000 0.001690 0.000000
# 6 0.000000 0.000000 0.000000 0.000005 0.000000 0.059151
#
#
# Mechanical properties :
#
#
# Convention : Reuss Voigt Hill
#
# Bulk Modulus (GPa) = 61.40210 65.26216 63.33213
# Shear Modulus (GPa) = 31.87986 249.51751 140.69868
#
# Velocity S-wave (km/s) = 4.31575 12.07394 9.06658
# Velocity P-wave (km/s) = 7.79156 15.24804 12.10808
#
# Compressibility (1/GPa) = 0.01628609
#
# Stress axis : x y z
#
# Youngs Moduli (GPa) = 48.43307 48.43307 88.58578
#
# Poissons Ratio (x) = 0.43244 0.40836
# Poissons Ratio (y) = 0.43244 0.40836
# Poissons Ratio (z) = 0.22327 0.22327
#
# Static dielectric constant tensor:
#      x y z
#    x 3.048160 0.000000 0.000000 
#    y 0.000000 3.048160 0.000000 
#    z 0.000000 0.000000 3.543700 
# 
# 
# High freq. dielectric constant tensor:
#      x y z
#    x 1.649800 0.000000 0.000000 
#    y 0.000000 1.649800 0.000000 
#    z 0.000000 0.000000 1.687400 
# 
# From -- ./inp_files/4175.got.cif
#   From: 2010.03.12/outbox.cif.g09.slc.cpg/sg187_3_cif.got.tgz:4175.got - 2010.04.01 11:58:23.
