data_PCOD8327122
_publ_section_title
;
Structure prediction by ZEFSAII (Michael W. Deem and Ramdas Pophale) SiO2 
 PCOD8327122
Probable space group: P -6 M 2
;
_chemical_formula_sum "Si O2"
_cell_formula_units_Z 66
_cell_length_a 12.604406
_cell_length_b 12.604406
_cell_length_c 28.351735
_cell_angle_alpha 90.000000
_cell_angle_beta 90.000000
_cell_angle_gamma 120.000000
_cell_volume 3900.812182
_symmetry_space_group_name_H-M "P -6 M 2"
_symmetry_group_IT_number 187
_symmetry_cell_setting 'hexagonal'
loop_
_space_group_symop_operation_xyz
x,y,z
-x+y,-x,-z
-y,x-y,z
x,y,-z
-x+y,-x,z
-y,x-y,-z
-y,-x,-z
-x+y,y,-z
x,x-y,-z
-x+y,y,z
x,x-y,z
-y,-x,z
loop_
_atom_site_type_symbol
_atom_site_label
_atom_site_fract_x
_atom_site_fract_y
_atom_site_fract_z
Si Si1 0.576907 0.910338 0.946390
Si Si2 0.752813 0.751189 0.775463
Si Si3 0.416987 0.332429 0.687617
Si Si4 0.913240 0.580294 0.863093
Si Si5 0.091501 0.664386 0.500000
Si Si6 0.083187 0.419070 0.602236
O O1 0.434872 0.869743 0.940168
O O2 0.591842 0.795921 0.931782
O O3 0.661929 0.024389 0.913128
O O4 0.620429 0.951635 0.000000
O O5 0.742199 0.871100 0.774332
O O6 0.678856 0.667597 0.731439
O O7 0.690748 0.678462 0.822992
O O8 0.894658 0.789315 0.772985
O O9 0.444728 0.222364 0.685779
O O10 0.544309 0.455692 0.693559
O O11 0.346638 0.330466 0.639941
O O12 0.773306 0.546611 0.865353
O O13 0.915922 0.457961 0.851030
O O14 0.200008 0.799992 0.500000
O O15 0.145564 0.572782 0.500000
O O16 0.020457 0.646844 0.450217
O O17 0.205590 0.411179 0.607274
O O18 0.118116 0.559058 0.611400
#
# Coordination Sequence:
#
# PCOD8327122 Si02
#       6
#    12  12  12  12   6  12
#     4   9  17  30  49  72  97 126 161 202 247 291
#     4  10  20  34  52  72  93 118 151 193 239 284
#     4  10  20  33  49  68  93 126 161 194 227 270
#     4  10  20  33  50  72  99 131 164 196 230 273
#     4   8  13  22  39  64  92 120 150 186 232 284
#     4   9  16  27  45  69  95 121 151 191 239 286
#
# _framework density 16.919553000000001
#
# number of rings (size 3 to 8) (size 9 to 14) (size 15 to 20)
#    0.000    2.545    0.000    2.636    0.000    2.545 
#    0.000    2.273    0.000    6.909    0.000    1.273 
#    0.000    0.000    0.000    0.000    0.000    0.000 
#
# Total GULP energy -818143.199864 kJ/mol
# GULP energy per Si atom -12396.109089 kJ/mol
# Density = 1.688104 g / cm^3
# Si number density = 16.919553 Si / 1000 Ang^3
#
#
#
# Elastic Constant Matrix: (Units=GPa)
#
#
# Indices 1 2 3 4 5 6 
#
# 1 86.4585 46.6339 53.3996 0.0000 -0.0003 0.0000
# 2 46.6339 86.4585 53.3996 0.0000 0.0003 0.0000
# 3 53.3996 53.3996 130.2889 0.0000 0.0000 0.0000
# 4 0.0000 0.0000 0.0000 21.7908 0.0000 0.0003
# 5 -0.0003 0.0003 0.0000 0.0000 21.7908 0.0000
# 6 0.0000 0.0000 0.0000 0.0003 0.0000 19.9123
#
#
#
# Elastic Compliance Matrix: (Units=1/GPa)
#
#
# Indices 1 2 3 4 5 6 
#
# 1 0.018153 -0.006957 -0.004589 0.000000 0.000000 0.000000
# 2 -0.006957 0.018153 -0.004589 0.000000 0.000000 0.000000
# 3 -0.004589 -0.004589 0.011437 0.000000 0.000000 0.000000
# 4 0.000000 0.000000 0.000000 0.045891 0.000000 -0.000001
# 5 0.000000 0.000000 0.000000 0.000000 0.045891 0.000000
# 6 0.000000 0.000000 0.000000 -0.000001 0.000000 0.050220
#
#
# Mechanical properties :
#
#
# Convention : Reuss Voigt Hill
#
# Bulk Modulus (GPa) = 64.62657 67.78575 66.20616
# Shear Modulus (GPa) = 22.00982 22.68362 22.34672
#
# Velocity S-wave (km/s) = 3.61064 3.66550 3.63817
# Velocity P-wave (km/s) = 7.46067 7.62004 7.54078
#
# Compressibility (1/GPa) = 0.01547351
#
# Stress axis : x y z
#
# Youngs Moduli (GPa) = 55.08763 55.08763 87.43873
#
# Poissons Ratio (x) = 0.38326 0.40122
# Poissons Ratio (y) = 0.38326 0.40122
# Poissons Ratio (z) = 0.25278 0.25278
#
# Static dielectric constant tensor:
#      x y z
#    x 3.014550 0.000000 0.000000 
#    y 0.000000 3.014550 0.000000 
#    z 0.000000 0.000000 3.595900 
# 
# 
# High freq. dielectric constant tensor:
#      x y z
#    x 1.640320 0.000000 0.000000 
#    y 0.000000 1.640320 0.000000 
#    z 0.000000 0.000000 1.673920 
# 
# From -- ./inp_files/4436.got.cif
#   From: 2010.03.12/outbox.cif.g09.slc.cpg/sg187_3_cif.got.tgz:4436.got - 2010.04.01 11:58:23.
