data_PCOD8327359
_publ_section_title
;
Structure prediction by ZEFSAII (Michael W. Deem and Ramdas Pophale) SiO2 
 PCOD8327359
Probable space group: P -6 C 2
;
_chemical_formula_sum "Si O2"
_cell_formula_units_Z 72
_cell_length_a 22.794783
_cell_length_b 22.794783
_cell_length_c 10.252036
_cell_angle_alpha 90.000000
_cell_angle_beta 90.000000
_cell_angle_gamma 120.000000
_cell_volume 4613.299800
_symmetry_space_group_name_H-M "P -6 C 2"
_symmetry_group_IT_number 188
_symmetry_cell_setting 'hexagonal'
loop_
_space_group_symop_operation_xyz
x,y,z
-x+y,-x,1/2-z
-y,x-y,z
x,y,1/2-z
-x+y,-x,z
-y,x-y,1/2-z
-y,-x,-z
-x+y,y,-z
x,x-y,-z
-x+y,y,1/2+z
x,x-y,1/2+z
-y,-x,1/2+z
loop_
_atom_site_type_symbol
_atom_site_label
_atom_site_fract_x
_atom_site_fract_y
_atom_site_fract_z
Si Si1 0.332164 0.805083 0.750000
Si Si2 0.288425 0.847618 0.001333
Si Si3 0.659787 0.675063 0.099966
Si Si4 0.481621 0.285185 0.893800
Si Si5 0.332983 0.803328 0.250000
Si Si6 0.934939 0.418585 0.398269
Si Si7 0.320414 0.113721 0.103470
O O1 0.327168 0.844665 0.625852
O O2 0.274403 0.726558 0.750000
O O3 0.402525 0.806748 0.750000
O O4 0.288363 0.918315 0.008979
O O5 0.328808 0.842072 0.123969
O O6 0.210689 0.789312 0.000000
O O7 0.657781 0.694164 0.250000
O O8 0.613573 0.595442 0.078109
O O9 0.737596 0.700213 0.060123
O O10 0.507274 0.279106 0.750000
O O11 0.506137 0.362979 0.926002
O O12 0.400896 0.242661 0.895421
O O13 0.512941 0.256471 0.000000
O O14 0.943135 0.445878 0.250000
O O15 0.958733 0.479367 0.500000
O O16 0.293174 0.113668 0.250000
O O17 0.289342 0.144671 0.000000
#
# Coordination Sequence:
#
# PCOD8327359 Si02
#       7
#     6  12  12  12   6  12  12
#     4  10  21  32  48  70  83 110 160 214 264 304
#     4  10  20  34  49  66  89 120 158 198 243 302
#     4   9  17  33  49  62  89 126 150 176 229 287
#     4   8  14  25  41  59  78 103 132 162 198 245
#     4  10  19  34  50  62  87 116 152 210 268 314
#     4   9  18  30  43  62  87 112 141 178 223 272
#     4   8  14  26  45  66  87 111 138 166 202 250
#
# _framework density 15.607049999999999
#
# number of rings (size 3 to 8) (size 9 to 14) (size 15 to 20)
#    0.000    3.000    0.833    2.667    0.000    2.000 
#    3.000    3.333    0.000    0.333    0.000    0.000 
#    0.000    0.000    0.000    0.500    0.000    2.333 
#
# Total GULP energy -892507.448124 kJ/mol
# GULP energy per Si atom -12395.936780 kJ/mol
# Density = 1.557153 g / cm^3
# Si number density = 15.607050 Si / 1000 Ang^3
#
#
#
# Elastic Constant Matrix: (Units=GPa)
#
#
# Indices 1 2 3 4 5 6 
#
# 1 65.9440 40.3956 46.8090 0.0001 0.0000 0.0000
# 2 40.3956 65.9440 46.8090 -0.0001 0.0000 0.0000
# 3 46.8090 46.8090 109.1521 0.0000 0.0000 0.0000
# 4 0.0001 -0.0001 0.0000 15.0247 0.0000 0.0000
# 5 0.0000 0.0000 0.0000 0.0000 15.0247 0.0001
# 6 0.0000 0.0000 0.0000 0.0000 0.0001 12.7742
#
#
#
# Elastic Compliance Matrix: (Units=1/GPa)
#
#
# Indices 1 2 3 4 5 6 
#
# 1 0.027124 -0.012017 -0.006479 0.000000 0.000000 0.000000
# 2 -0.012017 0.027124 -0.006479 0.000000 0.000000 0.000000
# 3 -0.006479 -0.006479 0.014718 0.000000 0.000000 0.000000
# 4 0.000000 0.000000 0.000000 0.066557 0.000000 0.000000
# 5 0.000000 0.000000 0.000000 0.000000 0.066557 0.000000
# 6 0.000000 0.000000 0.000000 0.000000 0.000000 0.078283
#
#
# Mechanical properties :
#
#
# Convention : Reuss Voigt Hill
#
# Bulk Modulus (GPa) = 52.58088 56.56303 54.57195
# Shear Modulus (GPa) = 14.85212 15.69982 15.27597
#
# Velocity S-wave (km/s) = 3.08819 3.17510 3.13195
# Velocity P-wave (km/s) = 6.81759 7.05424 6.93693
#
# Compressibility (1/GPa) = 0.01901832
#
# Stress axis : x y z
#
# Youngs Moduli (GPa) = 36.86710 36.86710 67.94291
#
# Poissons Ratio (x) = 0.44303 0.44018
# Poissons Ratio (y) = 0.44303 0.44018
# Poissons Ratio (z) = 0.23885 0.23885
#
# Static dielectric constant tensor:
#      x y z
#    x 2.819100 0.000000 0.000000 
#    y 0.000000 2.819100 0.000000 
#    z 0.000000 0.000000 3.224550 
# 
# 
# High freq. dielectric constant tensor:
#      x y z
#    x 1.570110 0.000000 0.000000 
#    y 0.000000 1.570110 0.000000 
#    z 0.000000 0.000000 1.607420 
# 
# From -- ./inp_files/1748.got.cif
#   From: 2010.03.12/outbox.cif.g09.slc.cpg/sg188_1_cif.got.tgz:1748.got - 2010.04.01 12:01:06.
