data_PCOD8327268
_publ_section_title
;
Structure prediction by ZEFSAII (Michael W. Deem and Ramdas Pophale) SiO2 
 PCOD8327268
Probable space group: P -6 M 2
;
_chemical_formula_sum "Si O2"
_cell_formula_units_Z 60
_cell_length_a 17.799674
_cell_length_b 17.799674
_cell_length_c 11.730394
_cell_angle_alpha 90.000000
_cell_angle_beta 90.000000
_cell_angle_gamma 120.000000
_cell_volume 3218.602377
_symmetry_space_group_name_H-M "P -6 M 2"
_symmetry_group_IT_number 187
_symmetry_cell_setting 'hexagonal'
loop_
_space_group_symop_operation_xyz
x,y,z
-x+y,-x,-z
-y,x-y,z
x,y,-z
-x+y,-x,z
-y,x-y,-z
-y,-x,-z
-x+y,y,-z
x,x-y,-z
-x+y,y,z
x,x-y,z
-y,-x,z
loop_
_atom_site_type_symbol
_atom_site_label
_atom_site_fract_x
_atom_site_fract_y
_atom_site_fract_z
Si Si1 0.304812 0.432709 0.000000
Si Si2 0.175424 0.002560 0.242366
Si Si3 0.667022 0.992700 0.365126
Si Si4 0.031202 0.790772 0.000000
Si Si5 0.336051 0.840883 0.243964
Si Si6 0.836513 0.503209 0.364314
O O1 0.355264 0.484121 0.112455
O O2 0.210105 0.420209 0.000000
O O3 0.293280 0.336718 0.000000
O O4 0.158194 0.079097 0.279938
O O5 0.244625 0.001727 0.327612
O O6 0.211401 0.020502 0.113084
O O7 0.087418 0.912583 0.253890
O O8 0.660338 0.986224 0.500000
O O9 0.588775 0.905408 0.314889
O O10 0.662227 0.075834 0.320177
O O11 0.123236 0.876765 0.000000
O O12 0.420793 0.841586 0.293226
O O13 0.255087 0.744914 0.256077
O O14 0.834206 0.501803 0.500000
O O15 0.753527 0.507054 0.316221
O O16 0.833703 0.416852 0.316935
#
# Coordination Sequence:
#
# PCOD8327268 Si02
#       6
#     6  12  12   6  12  12
#     4   9  17  34  58  83 108 138 176 223 282 341
#     4  11  22  37  58  83 112 145 186 235 286 339
#     4  11  23  38  55  77 111 155 194 230 278 336
#     4   9  17  34  58  83 108 138 176 223 282 341
#     4  11  22  37  58  83 112 145 186 235 286 339
#     4   9  17  31  52  77 103 132 172 223 276 327
#
# _framework density 18.641632999999999
#
# number of rings (size 3 to 8) (size 9 to 14) (size 15 to 20)
#    0.000    1.800    2.000    3.000    0.000    4.800 
#    0.000    2.000    0.000    2.400    0.000    0.000 
#    0.000    0.000    0.000    8.600    0.000    3.800 
#
# Total GULP energy -744057.431657 kJ/mol
# GULP energy per Si atom -12400.957194 kJ/mol
# Density = 1.859920 g / cm^3
# Si number density = 18.641633 Si / 1000 Ang^3
#
#
#
# Elastic Constant Matrix: (Units=GPa)
#
#
# Indices 1 2 3 4 5 6 
#
# 1 95.3632 24.3962 14.8444 0.0000 0.0000 0.0000
# 2 24.3962 95.3632 14.8444 0.0000 0.0000 0.0000
# 3 14.8444 14.8444 58.7312 0.0000 0.0000 0.0000
# 4 0.0000 0.0000 0.0000 16.7718 0.0000 0.0000
# 5 0.0000 0.0000 0.0000 0.0000 16.7718 0.0000
# 6 0.0000 0.0000 0.0000 0.0000 0.0000 35.4835
#
#
#
# Elastic Compliance Matrix: (Units=1/GPa)
#
#
# Indices 1 2 3 4 5 6 
#
# 1 0.011500 -0.002591 -0.002252 0.000000 0.000000 0.000000
# 2 -0.002591 0.011500 -0.002252 0.000000 0.000000 0.000000
# 3 -0.002252 -0.002252 0.018165 0.000000 0.000000 0.000000
# 4 0.000000 0.000000 0.000000 0.059624 0.000000 0.000000
# 5 0.000000 0.000000 0.000000 0.000000 0.059624 0.000000
# 6 0.000000 0.000000 0.000000 0.000000 0.000000 0.028182
#
#
# Mechanical properties :
#
#
# Convention : Reuss Voigt Hill
#
# Bulk Modulus (GPa) = 37.07122 39.73639 38.40381
# Shear Modulus (GPa) = 23.60995 26.83025 25.22010
#
# Velocity S-wave (km/s) = 3.56268 3.79788 3.68216
# Velocity P-wave (km/s) = 6.07067 6.37135 6.22282
#
# Compressibility (1/GPa) = 0.02697510
#
# Stress axis : x y z
#
# Youngs Moduli (GPa) = 86.95913 86.95913 55.05126
#
# Poissons Ratio (x) = 0.22535 0.12395
# Poissons Ratio (y) = 0.22535 0.12395
# Poissons Ratio (z) = 0.19579 0.19579
#
# Static dielectric constant tensor:
#      x y z
#    x 3.468780 0.000000 0.000000 
#    y 0.000000 3.468780 0.000000 
#    z 0.000000 0.000000 3.344000 
# 
# 
# High freq. dielectric constant tensor:
#      x y z
#    x 1.729400 0.000000 0.000000 
#    y 0.000000 1.729400 0.000000 
#    z 0.000000 0.000000 1.698570 
# 
# From -- ./inp_files/1691.got.cif
#   From: 2010.03.12/outbox.cif.g09.slc.cpg/sg187_1_cif.got.tgz:1691.got - 2010.04.01 11:58:23.
