data_PCOD8327140
_publ_section_title
;
Structure prediction by ZEFSAII (Michael W. Deem and Ramdas Pophale) SiO2 
 PCOD8327140
Probable space group: P -6 M 2
;
_chemical_formula_sum "Si O2"
_cell_formula_units_Z 66
_cell_length_a 12.496283
_cell_length_b 12.496283
_cell_length_c 27.961643
_cell_angle_alpha 90.000000
_cell_angle_beta 90.000000
_cell_angle_gamma 120.000000
_cell_volume 3781.420918
_symmetry_space_group_name_H-M "P -6 M 2"
_symmetry_group_IT_number 187
_symmetry_cell_setting 'hexagonal'
loop_
_space_group_symop_operation_xyz
x,y,z
-x+y,-x,-z
-y,x-y,z
x,y,-z
-x+y,-x,z
-y,x-y,-z
-y,-x,-z
-x+y,y,-z
x,x-y,-z
-x+y,y,z
x,x-y,z
-y,-x,z
loop_
_atom_site_type_symbol
_atom_site_label
_atom_site_fract_x
_atom_site_fract_y
_atom_site_fract_z
Si Si1 0.582154 0.666787 0.229318
Si Si2 0.420954 0.333198 0.945773
Si Si3 0.998345 0.248891 0.409678
Si Si4 0.752093 0.752674 0.139931
Si Si5 0.415279 0.332101 0.500000
Si Si6 0.915863 0.333432 0.319226
O O1 0.582445 0.791223 0.242806
O O2 0.441914 0.558087 0.225080
O O3 0.648941 0.677614 0.179376
O O4 0.656228 0.640451 0.269773
O O5 0.462563 0.231282 0.939970
O O6 0.536408 0.463593 0.931047
O O7 0.306859 0.303492 0.911455
O O8 0.378218 0.335523 0.000000
O O9 0.894320 0.105681 0.413047
O O10 0.986767 0.324754 0.453381
O O11 0.988708 0.308755 0.360606
O O12 0.129841 0.259681 0.412292
O O13 0.872387 0.744775 0.153091
O O14 0.790211 0.895106 0.138133
O O15 0.539003 0.460998 0.500000
O O16 0.450859 0.225430 0.500000
O O17 0.914213 0.457107 0.331989
O O18 0.775924 0.224077 0.314881
#
# Coordination Sequence:
#
# PCOD8327140 Si02
#       6
#    12  12  12  12   6  12
#     4  10  20  34  52  73  98 129 165 204 246 293
#     4   9  17  30  49  72  96 122 154 194 240 288
#     4  10  20  34  53  76 102 132 166 204 245 290
#     4  10  20  33  49  70  97 129 164 201 242 288
#     4  10  20  34  54  78 104 134 168 208 252 298
#     4  10  20  34  53  76 102 131 163 202 247 295
#
# _framework density 17.453755999999998
#
# number of rings (size 3 to 8) (size 9 to 14) (size 15 to 20)
#    0.000    2.182    0.000    3.455    0.000    1.091 
#    0.000    2.727    0.000   19.273    0.000    0.000 
#    0.000    0.000    0.000    0.000    0.000    0.000 
#
# Total GULP energy -818632.713972 kJ/mol
# GULP energy per Si atom -12403.525969 kJ/mol
# Density = 1.741403 g / cm^3
# Si number density = 17.453756 Si / 1000 Ang^3
#
#
#
# Elastic Constant Matrix: (Units=GPa)
#
#
# Indices 1 2 3 4 5 6 
#
# 1 101.1423 54.5810 44.7326 0.0000 0.0002 0.0000
# 2 54.5810 101.1423 44.7326 0.0000 -0.0002 0.0000
# 3 44.7326 44.7326 94.0387 0.0000 0.0000 0.0000
# 4 0.0000 0.0000 0.0000 24.1155 0.0000 -0.0002
# 5 0.0002 -0.0002 0.0000 0.0000 24.1155 0.0000
# 6 0.0000 0.0000 0.0000 -0.0002 0.0000 23.2807
#
#
#
# Elastic Compliance Matrix: (Units=1/GPa)
#
#
# Indices 1 2 3 4 5 6 
#
# 1 0.015157 -0.006320 -0.004203 0.000000 0.000000 0.000000
# 2 -0.006320 0.015157 -0.004203 0.000000 0.000000 0.000000
# 3 -0.004203 -0.004203 0.014633 0.000000 0.000000 0.000000
# 4 0.000000 0.000000 0.000000 0.041467 0.000000 0.000000
# 5 0.000000 0.000000 0.000000 0.000000 0.041467 0.000000
# 6 0.000000 0.000000 0.000000 0.000000 0.000000 0.042954
#
#
# Mechanical properties :
#
#
# Convention : Reuss Voigt Hill
#
# Bulk Modulus (GPa) = 64.54775 64.93508 64.74141
# Shear Modulus (GPa) = 24.33646 24.45414 24.39530
#
# Velocity S-wave (km/s) = 3.73814 3.74716 3.74265
# Velocity P-wave (km/s) = 7.46284 7.48375 7.47330
#
# Compressibility (1/GPa) = 0.01549241
#
# Stress axis : x y z
#
# Youngs Moduli (GPa) = 65.97692 65.97692 68.33916
#
# Poissons Ratio (x) = 0.41699 0.28726
# Poissons Ratio (y) = 0.41699 0.28726
# Poissons Ratio (z) = 0.27733 0.27733
#
# Static dielectric constant tensor:
#      x y z
#    x 3.194970 0.000000 0.000000 
#    y 0.000000 3.194970 0.000000 
#    z 0.000000 0.000000 3.414280 
# 
# 
# High freq. dielectric constant tensor:
#      x y z
#    x 1.676230 0.000000 0.000000 
#    y 0.000000 1.676230 0.000000 
#    z 0.000000 0.000000 1.689100 
# 
# From -- ./inp_files/4438.got.cif
#   From: 2010.03.12/outbox.cif.g09.slc.cpg/sg187_3_cif.got.tgz:4438.got - 2010.04.01 11:58:23.
