data_PCOD8327561
_publ_section_title
;
Structure prediction by ZEFSAII (Michael W. Deem and Ramdas Pophale) SiO2 
 PCOD8327561
Probable space group: P -6 2 M
;
_chemical_formula_sum "Si O2"
_cell_formula_units_Z 96
_cell_length_a 19.239502
_cell_length_b 19.239502
_cell_length_c 17.739567
_cell_angle_alpha 90.000000
_cell_angle_beta 90.000000
_cell_angle_gamma 120.000000
_cell_volume 5686.712857
_symmetry_space_group_name_H-M "P -6 2 M"
_symmetry_group_IT_number 189
_symmetry_cell_setting 'hexagonal'
loop_
_space_group_symop_operation_xyz
x,y,z
-x+y,-x,-z
-y,x-y,z
x,y,-z
-x+y,-x,z
-y,x-y,-z
x-y,-y,-z
-x,-x+y,-z
y,x,-z
y,x,z
x-y,-y,z
-x,-x+y,z
loop_
_atom_site_type_symbol
_atom_site_label
_atom_site_fract_x
_atom_site_fract_y
_atom_site_fract_z
Si Si1 0.816437 0.908046 0.585680
Si Si2 0.454990 0.906421 0.587185
Si Si3 0.321358 0.855303 0.309730
Si Si4 0.692446 0.167723 0.701508
Si Si5 0.091117 0.328907 0.205061
Si Si6 0.461974 0.906673 0.806858
Si Si7 0.200056 0.291714 0.713322
Si Si8 0.653336 0.557872 0.915971
O O1 0.784278 0.889304 0.500000
O O2 0.853420 0.853420 0.610992
O O3 0.742088 0.888008 0.639023
O O4 0.885996 0.000000 0.593853
O O5 0.459062 0.888829 0.500000
O O6 0.361436 0.878045 0.607191
O O7 0.483102 0.853136 0.633858
O O8 0.512340 0.000000 0.606333
O O9 0.262113 0.759184 0.301388
O O10 0.273279 0.900695 0.285934
O O11 0.398626 0.892834 0.257043
O O12 0.648803 0.147739 0.784064
O O13 0.731713 0.112225 0.691795
O O14 0.146854 0.288946 0.214141
O O15 0.126595 0.395445 0.138105
O O16 0.000000 0.260972 0.189355
O O17 0.410842 0.879574 0.884950
O O18 0.530904 0.000000 0.809660
O O19 0.239050 0.239050 0.738056
O O20 0.609932 0.609932 0.915783
O O21 0.680542 0.549671 0.000000
#
# Coordination Sequence:
#
# PCOD8327561 Si02
#       8
#    12  12  12  12  12  12  12  12
#     4   9  17  29  44  62  87 123 168 216 262 301
#     4  10  20  34  50  65  87 121 157 194 239 289
#     4   9  17  30  47  67  88 114 155 191 233 277
#     4  10  19  31  47  66  91 120 154 192 234 282
#     4   9  16  28  48  70  95 122 152 197 243 277
#     4   9  16  30  51  70  93 123 154 187 226 280
#     4  10  19  29  44  67  96 128 164 199 236 289
#     4   8  14  26  49  79  99 114 148 195 233 269
#
# _framework density 16.881457999999999
#
# number of rings (size 3 to 8) (size 9 to 14) (size 15 to 20)
#    0.000    2.750    0.000    4.250    0.000    1.500 
#    6.000    3.125    0.000   14.125    0.000    0.000 
#    0.000    0.000    0.000    0.000    0.000    0.000 
#
# Total GULP energy -1189528.344800 kJ/mol
# GULP energy per Si atom -12390.920258 kJ/mol
# Density = 1.684304 g / cm^3
# Si number density = 16.881458 Si / 1000 Ang^3
#
#
#
# Elastic Constant Matrix: (Units=GPa)
#
#
# Indices 1 2 3 4 5 6 
#
# 1 70.1373 12.8419 32.9912 0.0000 0.0000 0.0000
# 2 12.8419 70.1373 32.9912 0.0000 0.0000 0.0000
# 3 32.9912 32.9912 89.9409 0.0000 0.0000 0.0000
# 4 0.0000 0.0000 0.0000 18.1195 0.0000 0.0000
# 5 0.0000 0.0000 0.0000 0.0000 18.1195 0.0000
# 6 0.0000 0.0000 0.0000 0.0000 0.0000 28.6477
#
#
#
# Elastic Compliance Matrix: (Units=1/GPa)
#
#
# Indices 1 2 3 4 5 6 
#
# 1 0.017234 -0.000220 -0.006241 0.000000 0.000000 0.000000
# 2 -0.000220 0.017234 -0.006241 0.000000 0.000000 0.000000
# 3 -0.006241 -0.006241 0.015697 0.000000 0.000000 0.000000
# 4 0.000000 0.000000 0.000000 0.055189 0.000000 0.000000
# 5 0.000000 0.000000 0.000000 0.000000 0.055189 0.000000
# 6 0.000000 0.000000 0.000000 0.000000 0.000000 0.034907
#
#
# Mechanical properties :
#
#
# Convention : Reuss Voigt Hill
#
# Bulk Modulus (GPa) = 40.38609 43.09601 41.74105
# Shear Modulus (GPa) = 21.82404 23.07012 22.44708
#
# Velocity S-wave (km/s) = 3.59943 3.70076 3.65044
# Velocity P-wave (km/s) = 6.42260 6.62154 6.52283
#
# Compressibility (1/GPa) = 0.02476100
#
# Stress axis : x y z
#
# Youngs Moduli (GPa) = 58.02639 58.02639 63.70735
#
# Poissons Ratio (x) = 0.01276 0.39758
# Poissons Ratio (y) = 0.01276 0.39758
# Poissons Ratio (z) = 0.36213 0.36213
#
# Static dielectric constant tensor:
#      x y z
#    x 3.279180 0.000000 0.000000 
#    y 0.000000 3.279180 0.000000 
#    z 0.000000 0.000000 3.337890 
# 
# 
# High freq. dielectric constant tensor:
#      x y z
#    x 1.644520 0.000000 0.000000 
#    y 0.000000 1.644520 0.000000 
#    z 0.000000 0.000000 1.627850 
# 
# From -- ./inp_files/3314.got.cif
#   From: 2010.03.12/outbox.cif.g09.slc.cpg/sg189_2_cif.got.tgz:3314.got - 2010.04.01 12:03:36.
