data_PCOD8327765
_publ_section_title
;
Structure prediction by ZEFSAII (Michael W. Deem and Ramdas Pophale) SiO2 
 PCOD8327765
Probable space group: P -6 2 M
;
_chemical_formula_sum "Si O2"
_cell_formula_units_Z 72
_cell_length_a 23.527327
_cell_length_b 23.527327
_cell_length_c 8.925720
_cell_angle_alpha 90.000000
_cell_angle_beta 90.000000
_cell_angle_gamma 120.000000
_cell_volume 4278.771239
_symmetry_space_group_name_H-M "P -6 2 M"
_symmetry_group_IT_number 189
_symmetry_cell_setting 'hexagonal'
loop_
_space_group_symop_operation_xyz
x,y,z
-x+y,-x,-z
-y,x-y,z
x,y,-z
-x+y,-x,z
-y,x-y,-z
x-y,-y,-z
-x,-x+y,-z
y,x,-z
y,x,z
x-y,-y,z
-x,-x+y,z
loop_
_atom_site_type_symbol
_atom_site_label
_atom_site_fract_x
_atom_site_fract_y
_atom_site_fract_z
Si Si1 0.728140 0.204451 0.673606
Si Si2 0.535768 0.404036 0.177310
Si Si3 0.345175 0.074115 0.825761
Si Si4 0.000000 0.590202 0.177802
Si Si5 0.802599 0.141309 0.175620
Si Si6 0.717813 0.000000 0.176895
Si Si7 0.518077 0.661984 0.673555
O O1 0.714777 0.187550 0.500000
O O2 0.661404 0.191946 0.752043
O O3 0.751941 0.157455 0.743945
O O4 0.782155 0.279925 0.700474
O O5 0.474733 0.410725 0.236488
O O6 0.601240 0.467332 0.230025
O O7 0.536959 0.398998 0.000000
O O8 0.316379 0.122133 0.782822
O O9 0.409009 0.092206 0.728739
O O10 0.288999 0.000000 0.788328
O O11 0.365210 0.082035 0.000000
O O12 0.000000 0.654003 0.243663
O O13 0.000000 0.591078 0.000000
O O14 0.783938 0.067249 0.226908
O O15 0.790273 0.143097 0.000000
O O16 0.713154 0.000000 0.000000
O O17 0.512558 0.642601 0.500000
#
# Coordination Sequence:
#
# PCOD8327765 Si02
#       7
#    12  12  12   6  12   6  12
#     4  10  20  35  51  68  94 124 155 197 248 294
#     4  11  21  35  54  73  96 124 161 203 246 295
#     4   9  18  32  50  72  97 127 163 203 241 281
#     4   9  18  30  48  74  98 120 148 195 244 283
#     4   9  16  29  50  71  95 126 159 194 235 285
#     4   9  14  26  48  74  98 122 154 191 236 283
#     4  10  22  37  51  70  95 126 163 202 247 297
#
# _framework density 16.827259999999999
#
# number of rings (size 3 to 8) (size 9 to 14) (size 15 to 20)
#    0.000    2.333    1.667    1.500    1.167    2.333 
#    1.000    2.500    0.000    0.000    0.000    0.000 
#    0.833    0.000    2.500    0.000    0.000    0.000 
#
# Total GULP energy -892601.160394 kJ/mol
# GULP energy per Si atom -12397.238339 kJ/mol
# Density = 1.678896 g / cm^3
# Si number density = 16.827260 Si / 1000 Ang^3
#
#
#
# Elastic Constant Matrix: (Units=GPa)
#
#
# Indices 1 2 3 4 5 6 
#
# 1 104.4849 61.9561 30.1353 0.0000 0.0000 0.0000
# 2 61.9561 104.4849 30.1353 0.0000 0.0000 0.0000
# 3 30.1353 30.1353 52.7164 0.0000 0.0000 0.0000
# 4 0.0000 0.0000 0.0000 15.7780 0.0000 0.0000
# 5 0.0000 0.0000 0.0000 0.0000 15.7780 0.0000
# 6 0.0000 0.0000 0.0000 0.0000 0.0000 21.2644
#
#
#
# Elastic Compliance Matrix: (Units=1/GPa)
#
#
# Indices 1 2 3 4 5 6 
#
# 1 0.015545 -0.007968 -0.004331 0.000000 0.000000 0.000000
# 2 -0.007968 0.015545 -0.004331 0.000000 0.000000 0.000000
# 3 -0.004331 -0.004331 0.023921 0.000000 0.000000 0.000000
# 4 0.000000 0.000000 0.000000 0.063379 0.000000 0.000000
# 5 0.000000 0.000000 0.000000 0.000000 0.063379 0.000000
# 6 0.000000 0.000000 0.000000 0.000000 0.000000 0.047027
#
#
# Mechanical properties :
#
#
# Convention : Reuss Voigt Hill
#
# Bulk Modulus (GPa) = 45.97755 56.23774 51.10764
# Shear Modulus (GPa) = 18.56612 19.86140 19.21376
#
# Velocity S-wave (km/s) = 3.32525 3.43929 3.38275
# Velocity P-wave (km/s) = 6.49043 7.01889 6.75982
#
# Compressibility (1/GPa) = 0.02174975
#
# Stress axis : x y z
#
# Youngs Moduli (GPa) = 64.32947 64.32947 41.80402
#
# Poissons Ratio (x) = 0.51261 0.18106
# Poissons Ratio (y) = 0.51261 0.18106
# Poissons Ratio (z) = 0.27862 0.27862
#
# Static dielectric constant tensor:
#      x y z
#    x 3.264110 0.000000 0.000000 
#    y 0.000000 3.264110 0.000000 
#    z 0.000000 0.000000 3.103770 
# 
# 
# High freq. dielectric constant tensor:
#      x y z
#    x 1.638480 0.000000 0.000000 
#    y 0.000000 1.638480 0.000000 
#    z 0.000000 0.000000 1.642170 
# 
# From -- ./inp_files/1306.got.cif
#   From: 2010.03.12/outbox.cif.g09.slc.cpg/sg189_1_cif.got.tgz:1306.got - 2010.04.01 12:03:36.
