data_PCOD8327521
_publ_section_title
;
Structure prediction by ZEFSAII (Michael W. Deem and Ramdas Pophale) SiO2 
 PCOD8327521
Probable space group: P -6 2 M
;
_chemical_formula_sum "Si O2"
_cell_formula_units_Z 72
_cell_length_a 23.640208
_cell_length_b 23.640208
_cell_length_c 8.777920
_cell_angle_alpha 90.000000
_cell_angle_beta 90.000000
_cell_angle_gamma 120.000000
_cell_volume 4248.394490
_symmetry_space_group_name_H-M "P -6 2 M"
_symmetry_group_IT_number 189
_symmetry_cell_setting 'hexagonal'
loop_
_space_group_symop_operation_xyz
x,y,z
-x+y,-x,-z
-y,x-y,z
x,y,-z
-x+y,-x,z
-y,x-y,-z
x-y,-y,-z
-x,-x+y,-z
y,x,-z
y,x,z
x-y,-y,z
-x,-x+y,z
loop_
_atom_site_type_symbol
_atom_site_label
_atom_site_fract_x
_atom_site_fract_y
_atom_site_fract_z
Si Si1 0.790629 0.270284 0.320448
Si Si2 0.292145 0.000000 0.174995
Si Si3 0.335012 0.263337 0.179282
Si Si4 0.411810 0.000000 0.321072
Si Si5 0.340748 0.141842 0.177598
Si Si6 0.483008 0.328839 0.821803
Si Si7 0.403097 0.873236 0.179316
O O1 0.795236 0.278066 0.500000
O O2 0.841353 0.247736 0.266180
O O3 0.717183 0.219840 0.270412
O O4 0.810077 0.339685 0.245611
O O5 0.345758 0.000000 0.283562
O O6 0.287524 0.065429 0.206636
O O7 0.313275 0.000000 0.000000
O O8 0.289202 0.289202 0.255238
O O9 0.313384 0.189297 0.234217
O O10 0.410198 0.312022 0.225835
O O11 0.327143 0.263797 0.000000
O O12 0.419700 0.000000 0.500000
O O13 0.472791 0.062631 0.252922
O O14 0.359508 0.156024 0.000000
O O15 0.532779 0.402752 0.776259
O O16 0.485987 0.315742 0.000000
O O17 0.395606 0.876179 0.000000
#
# Coordination Sequence:
#
# PCOD8327521 Si02
#       7
#    12   6  12   6  12  12  12
#     4  11  21  34  52  72  99 128 159 208 266 311
#     4  10  18  30  50  72 100 136 170 207 244 297
#     4   8  14  27  49  74  97 120 157 207 249 286
#     4  12  24  34  50  78 108 136 166 209 268 317
#     4   9  17  30  49  72  98 130 168 203 244 298
#     4   9  20  36  55  73  92 127 172 211 251 308
#     4  11  22  37  56  75  99 133 175 216 255 310
#
# _framework density 16.947578
#
# number of rings (size 3 to 8) (size 9 to 14) (size 15 to 20)
#    0.000    2.167    1.667    3.750    1.167    1.333 
#    1.000    0.000    0.000    4.500    0.000    0.000 
#    0.833    0.000    2.500    0.000    0.000    0.000 
#
# Total GULP energy -892567.283246 kJ/mol
# GULP energy per Si atom -12396.767823 kJ/mol
# Density = 1.690900 g / cm^3
# Si number density = 16.947578 Si / 1000 Ang^3
#
#
#
# Elastic Constant Matrix: (Units=GPa)
#
#
# Indices 1 2 3 4 5 6 
#
# 1 119.0094 78.1310 33.3685 0.0000 0.0000 0.0000
# 2 78.1310 119.0094 33.3685 0.0000 0.0000 0.0000
# 3 33.3685 33.3685 67.4179 0.0000 0.0000 0.0000
# 4 0.0000 0.0000 0.0000 221.6525 0.0000 0.0000
# 5 0.0000 0.0000 0.0000 0.0000 221.6525 0.0000
# 6 0.0000 0.0000 0.0000 0.0000 0.0000 20.4392
#
#
#
# Elastic Compliance Matrix: (Units=1/GPa)
#
#
# Indices 1 2 3 4 5 6 
#
# 1 0.015278 -0.009185 -0.003016 0.000000 0.000000 0.000000
# 2 -0.009185 0.015278 -0.003016 0.000000 0.000000 0.000000
# 3 -0.003016 -0.003016 0.017818 0.000000 0.000000 0.000000
# 4 0.000000 0.000000 0.000000 0.004512 0.000000 0.000000
# 5 0.000000 0.000000 0.000000 0.000000 0.004512 0.000000
# 6 0.000000 0.000000 0.000000 0.000000 0.000000 0.048926
#
#
# Mechanical properties :
#
#
# Convention : Reuss Voigt Hill
#
# Bulk Modulus (GPa) = 55.73679 66.13028 60.93354
# Shear Modulus (GPa) = 35.02944 103.45341 69.24143
#
# Velocity S-wave (km/s) = 4.55128 7.82149 6.39882
# Velocity P-wave (km/s) = 7.78319 10.98512 9.51974
#
# Compressibility (1/GPa) = 0.01794147
#
# Stress axis : x y z
#
# Youngs Moduli (GPa) = 65.45294 65.45294 56.12187
#
# Poissons Ratio (x) = 0.60116 0.16926
# Poissons Ratio (y) = 0.60116 0.16926
# Poissons Ratio (z) = 0.19740 0.19740
#
# Static dielectric constant tensor:
#      x y z
#    x 3.355110 0.000000 0.000000 
#    y 0.000000 3.355110 0.000000 
#    z 0.000000 0.000000 3.028060 
# 
# 
# High freq. dielectric constant tensor:
#      x y z
#    x 1.644460 0.000000 0.000000 
#    y 0.000000 1.644460 0.000000 
#    z 0.000000 0.000000 1.640320 
# 
# From -- ./inp_files/1315.got.cif
#   From: 2010.03.12/outbox.cif.g09.slc.cpg/sg189_1_cif.got.tgz:1315.got - 2010.04.01 12:03:36.
