data_PCOD8327951
_publ_section_title
;
Structure prediction by ZEFSAII (Michael W. Deem and Ramdas Pophale) SiO2 
 PCOD8327951
Probable space group: P -6 2 C
;
_chemical_formula_sum "Si O2"
_cell_formula_units_Z 70
_cell_length_a 14.227154
_cell_length_b 14.227154
_cell_length_c 18.820779
_cell_angle_alpha 90.000000
_cell_angle_beta 90.000000
_cell_angle_gamma 120.000000
_cell_volume 3299.166941
_symmetry_space_group_name_H-M "P -6 2 C"
_symmetry_group_IT_number 190
_symmetry_cell_setting 'hexagonal'
loop_
_space_group_symop_operation_xyz
x,y,z
-x+y,-x,1/2-z
-y,x-y,z
x,y,1/2-z
-x+y,-x,z
-y,x-y,1/2-z
x-y,-y,-z
-x,-x+y,-z
y,x,-z
y,x,1/2+z
x-y,-y,1/2+z
-x,-x+y,1/2+z
loop_
_atom_site_type_symbol
_atom_site_label
_atom_site_fract_x
_atom_site_fract_y
_atom_site_fract_z
Si Si1 0.460657 0.164372 0.386660
Si Si2 0.872801 0.541726 0.906822
Si Si3 0.333334 0.666667 0.162319
Si Si4 0.885451 0.504521 0.066187
Si Si5 0.762295 0.839338 0.832403
Si Si6 0.629664 0.429447 0.250000
Si Si7 0.168023 0.248101 0.168000
O O1 0.518917 0.136831 0.450698
O O2 0.495202 0.290594 0.382513
O O3 0.332019 0.087244 0.384297
O O4 0.512119 0.132031 0.320101
O O5 0.782415 0.430410 0.868106
O O6 0.861113 0.640952 0.876141
O O7 0.996862 0.569081 0.896300
O O8 0.862582 0.545038 0.991698
O O9 0.333334 0.666668 0.250000
O O10 0.725429 0.818244 0.750000
O O11 0.864268 0.824152 0.845633
O O12 0.786537 0.957190 0.856665
O O13 0.755234 0.453797 0.250000
O O14 0.193954 0.280876 0.250000
#
# Coordination Sequence:
#
# PCOD8327951 Si02
#       7
#    12  12   4  12  12   6  12
#     4  12  20  38  61  96 123 164 201 272 339 389
#     4  11  25  46  65  92 130 184 229 263 330 397
#     4  12  27  48  66  96 135 187 233 283 327 408
#     4  11  24  41  68  92 132 169 219 279 327 406
#     4  10  21  36  65  97 132 164 211 270 337 393
#     4  10  18  32  54  88 126 150 192 258 330 398
#     4  10  21  42  66  99 131 170 216 275 332 398
#
# _framework density 21.217476999999999
#
# number of rings (size 3 to 8) (size 9 to 14) (size 15 to 20)
#    0.171    1.029    4.286    2.229    2.400    1.371 
#    4.629    0.000    0.000    0.000    0.000    0.000 
#    0.000    0.000    0.000    0.000    0.000    0.000 
#
# Total GULP energy -867285.715057 kJ/mol
# GULP energy per Si atom -12389.795929 kJ/mol
# Density = 2.116918 g / cm^3
# Si number density = 21.217477 Si / 1000 Ang^3
#
#
#
# Elastic Constant Matrix: (Units=GPa)
#
#
# Indices 1 2 3 4 5 6 
#
# 1 111.8084 31.3154 27.3984 0.0000 0.0000 0.0000
# 2 31.3154 111.8086 27.3984 -0.0001 0.0000 0.0001
# 3 27.3984 27.3984 72.3043 0.0000 0.0000 0.0000
# 4 0.0000 -0.0001 0.0000 26.1824 0.0000 0.0000
# 5 0.0000 0.0000 0.0000 0.0000 26.1824 0.0000
# 6 0.0000 0.0001 0.0000 0.0000 0.0000 40.2466
#
#
#
# Elastic Compliance Matrix: (Units=1/GPa)
#
#
# Indices 1 2 3 4 5 6 
#
# 1 0.010298 -0.002125 -0.003097 0.000000 0.000000 0.000000
# 2 -0.002125 0.010298 -0.003097 0.000000 0.000000 0.000000
# 3 -0.003097 -0.003097 0.016177 0.000000 0.000000 0.000000
# 4 0.000000 0.000000 0.000000 0.038194 0.000000 0.000000
# 5 0.000000 0.000000 0.000000 0.000000 0.038194 0.000000
# 6 0.000000 0.000000 0.000000 0.000000 0.000000 0.024847
#
#
# Mechanical properties :
#
#
# Convention : Reuss Voigt Hill
#
# Bulk Modulus (GPa) = 49.66422 52.01620 50.84021
# Shear Modulus (GPa) = 30.98708 32.50955 31.74832
#
# Velocity S-wave (km/s) = 3.82573 3.91859 3.87244
# Velocity P-wave (km/s) = 6.55538 6.71139 6.63384
#
# Compressibility (1/GPa) = 0.02013522
#
# Stress axis : x y z
#
# Youngs Moduli (GPa) = 97.10594 97.10611 61.81446
#
# Poissons Ratio (x) = 0.20639 0.19143
# Poissons Ratio (y) = 0.20639 0.19143
# Poissons Ratio (z) = 0.30072 0.30073
#
# Static dielectric constant tensor:
#      x y z
#    x 3.821000 0.000000 0.000000 
#    y 0.000000 3.820990 0.000000 
#    z 0.000000 0.000000 3.720510 
# 
# 
# High freq. dielectric constant tensor:
#      x y z
#    x 1.834070 0.000000 0.000000 
#    y 0.000000 1.834070 0.000000 
#    z 0.000000 0.000000 1.819410 
# 
# From -- ./inp_files/3818.got.cif
#   From: 2010.06.25/outbox.cif.g09.slc.cpg/sg190_2_cif.got.tgz:3818.got - 2010.06.28 13:08:06.
