data_PCOD8327988
_publ_section_title
;
Structure prediction by ZEFSAII (Michael W. Deem and Ramdas Pophale) SiO2 
 PCOD8327988
Probable space group: P -6 2 C
;
_chemical_formula_sum "Si O2"
_cell_formula_units_Z 72
_cell_length_a 24.009583
_cell_length_b 24.009583
_cell_length_c 8.658444
_cell_angle_alpha 90.000000
_cell_angle_beta 90.000000
_cell_angle_gamma 120.000000
_cell_volume 4322.546945
_symmetry_space_group_name_H-M "P -6 2 C"
_symmetry_group_IT_number 190
_symmetry_cell_setting 'hexagonal'
loop_
_space_group_symop_operation_xyz
x,y,z
-x+y,-x,1/2-z
-y,x-y,z
x,y,1/2-z
-x+y,-x,z
-y,x-y,1/2-z
x-y,-y,-z
-x,-x+y,-z
y,x,-z
y,x,1/2+z
x-y,-y,1/2+z
-x,-x+y,1/2+z
loop_
_atom_site_type_symbol
_atom_site_label
_atom_site_fract_x
_atom_site_fract_y
_atom_site_fract_z
Si Si1 0.812654 0.743257 0.433233
Si Si2 0.397545 0.260610 0.067072
Si Si3 0.068350 0.595901 0.568356
Si Si4 0.262188 0.860341 0.567696
Si Si5 0.259474 0.190303 0.566988
Si Si6 0.596196 0.527117 0.066567
O O1 0.817936 0.748901 0.250000
O O2 0.792335 0.792335 0.500000
O O3 0.760761 0.670777 0.486740
O O4 0.881687 0.761677 0.501406
O O5 0.384554 0.255028 0.250000
O O6 0.452604 0.331992 0.017061
O O7 0.421675 0.211602 0.012304
O O8 0.331168 0.243018 0.984922
O O9 0.060055 0.591349 0.750000
O O10 0.090488 0.545492 0.510770
O O11 0.000000 0.578755 0.500000
O O12 0.266514 0.861543 0.750000
O O13 0.332779 0.880955 0.500120
O O14 0.255825 0.187886 0.750000
O O15 0.209485 0.209485 0.500000
O O16 0.596880 0.531803 0.250000
O O17 0.577013 0.577013 0.000000
#
# Coordination Sequence:
#
# PCOD8327988 Si02
#       6
#    12  12  12  12  12  12
#     4  10  19  32  49  71  96 124 154 188 228 272
#     4   9  17  30  45  64  89 119 151 188 231 276
#     4   9  17  27  42  62  86 114 146 181 222 267
#     4   8  15  27  44  63  88 118 149 184 225 268
#     4  11  21  33  49  70  94 122 153 189 229 274
#     4   9  16  27  42  62  85 113 144 178 218 263
#
# _framework density 16.656846999999999
#
# number of rings (size 3 to 8) (size 9 to 14) (size 15 to 20)
#    0.000    2.667    0.000    4.000    0.000    2.000 
#    0.000    3.333    0.000    1.000    0.000    7.000 
#    0.000    0.000    0.000   10.667    0.000   13.333 
#
# Total GULP energy -892471.781398 kJ/mol
# GULP energy per Si atom -12395.441408 kJ/mol
# Density = 1.661894 g / cm^3
# Si number density = 16.656847 Si / 1000 Ang^3
#
#
#
# Elastic Constant Matrix: (Units=GPa)
#
#
# Indices 1 2 3 4 5 6 
#
# 1 143.3003 87.6915 32.5649 0.0000 0.0000 0.0000
# 2 87.6915 143.3003 32.5649 0.0000 0.0000 0.0000
# 3 32.5649 32.5649 51.4047 0.0000 0.0000 0.0000
# 4 0.0000 0.0000 0.0000 19.0987 0.0000 0.0000
# 5 0.0000 0.0000 0.0000 0.0000 19.0987 0.0000
# 6 0.0000 0.0000 0.0000 0.0000 0.0000 27.8044
#
#
#
# Elastic Compliance Matrix: (Units=1/GPa)
#
#
# Indices 1 2 3 4 5 6 
#
# 1 0.011627 -0.006356 -0.003339 0.000000 0.000000 0.000000
# 2 -0.006356 0.011627 -0.003339 0.000000 0.000000 0.000000
# 3 -0.003339 -0.003339 0.023684 0.000000 0.000000 0.000000
# 4 0.000000 0.000000 0.000000 0.052359 0.000000 0.000000
# 5 0.000000 0.000000 0.000000 0.000000 0.052359 0.000000
# 6 0.000000 0.000000 0.000000 0.000000 0.000000 0.035966
#
#
# Mechanical properties :
#
#
# Convention : Reuss Voigt Hill
#
# Bulk Modulus (GPa) = 47.91710 71.51645 59.71677
# Shear Modulus (GPa) = 22.66072 25.54596 24.10334
#
# Velocity S-wave (km/s) = 3.69242 3.92045 3.80814
# Velocity P-wave (km/s) = 6.85626 7.97004 7.43404
#
# Compressibility (1/GPa) = 0.02086938
#
# Stress axis : x y z
#
# Youngs Moduli (GPa) = 86.00905 86.00905 42.22278
#
# Poissons Ratio (x) = 0.54668 0.14098
# Poissons Ratio (y) = 0.54668 0.14098
# Poissons Ratio (z) = 0.28718 0.28718
#
# Static dielectric constant tensor:
#      x y z
#    x 3.284340 0.000000 0.000000 
#    y 0.000000 3.284340 0.000000 
#    z 0.000000 0.000000 3.006080 
# 
# 
# High freq. dielectric constant tensor:
#      x y z
#    x 1.635090 0.000000 0.000000 
#    y 0.000000 1.635090 0.000000 
#    z 0.000000 0.000000 1.631360 
# 
# From -- ./inp_files/1176.got.cif
#   From: 2010.06.25/outbox.cif.g09.slc.cpg/sg190_1_cif.got.tgz:1176.got - 2010.06.28 13:08:06.
