data_PCOD8327582
_publ_section_title
;
Structure prediction by ZEFSAII (Michael W. Deem and Ramdas Pophale) SiO2 
 PCOD8327582
Probable space group: P -6 2 M
;
_chemical_formula_sum "Si O2"
_cell_formula_units_Z 60
_cell_length_a 14.119731
_cell_length_b 14.119731
_cell_length_c 18.763300
_cell_angle_alpha 90.000000
_cell_angle_beta 90.000000
_cell_angle_gamma 120.000000
_cell_volume 3239.609769
_symmetry_space_group_name_H-M "P -6 2 M"
_symmetry_group_IT_number 189
_symmetry_cell_setting 'hexagonal'
loop_
_space_group_symop_operation_xyz
x,y,z
-x+y,-x,-z
-y,x-y,z
x,y,-z
-x+y,-x,z
-y,x-y,-z
x-y,-y,-z
-x,-x+y,-z
y,x,-z
y,x,z
x-y,-y,z
-x,-x+y,z
loop_
_atom_site_type_symbol
_atom_site_label
_atom_site_fract_x
_atom_site_fract_y
_atom_site_fract_z
Si Si1 0.220077 0.431404 0.224242
Si Si2 0.473329 0.727120 0.921623
Si Si3 0.128905 0.873412 0.668360
Si Si4 0.129721 0.693238 0.420853
Si Si5 0.436225 0.559584 0.705766
O O1 0.200894 0.434530 0.139500
O O2 0.143092 0.307950 0.252310
O O3 0.200129 0.519423 0.266294
O O4 0.346275 0.470459 0.240351
O O5 0.403233 0.789848 0.914103
O O6 0.529658 0.751391 0.000000
O O7 0.169390 0.812399 0.613597
O O8 0.000000 0.827035 0.665540
O O9 0.188914 0.000000 0.647571
O O10 0.180217 0.707516 0.500000
O O11 0.164456 0.621055 0.372080
O O12 0.000000 0.632480 0.424044
O O13 0.537143 0.537143 0.701766
#
# Coordination Sequence:
#
# PCOD8327582 Si02
#       5
#    12  12  12  12  12
#     4  11  17  31  51  76 103 139 170 201 253 319
#     4   8  14  26  47  77 109 138 159 194 254 313
#     4  10  21  35  53  75 100 135 182 233 273 302
#     4   8  16  32  51  72  99 128 159 202 258 312
#     4  10  19  30  49  74 101 133 170 209 249 303
#
# _framework density 18.520748999999999
#
# number of rings (size 3 to 8) (size 9 to 14) (size 15 to 20)
#    0.400    2.200    2.000    3.000    0.000    0.400 
#    0.000    4.000    0.000   12.000    0.000    0.000 
#    0.000    1.600    0.000    0.000    0.000    0.000 
#
# Total GULP energy -743475.899256 kJ/mol
# GULP energy per Si atom -12391.264988 kJ/mol
# Density = 1.847860 g / cm^3
# Si number density = 18.520749 Si / 1000 Ang^3
#
#
#
# Elastic Constant Matrix: (Units=GPa)
#
#
# Indices 1 2 3 4 5 6 
#
# 1 39.7367 -5.2407 20.4313 0.0000 0.0000 0.0000
# 2 -5.2407 39.7367 20.4313 0.0000 0.0000 0.0000
# 3 20.4313 20.4313 160.1576 0.0000 0.0000 0.0000
# 4 0.0000 0.0000 0.0000 17.9719 0.0000 0.0000
# 5 0.0000 0.0000 0.0000 0.0000 17.9719 0.0000
# 6 0.0000 0.0000 0.0000 0.0000 0.0000 22.4887
#
#
#
# Elastic Compliance Matrix: (Units=1/GPa)
#
#
# Indices 1 2 3 4 5 6 
#
# 1 0.028191 0.005958 -0.004356 0.000000 0.000000 0.000000
# 2 0.005958 0.028191 -0.004356 0.000000 0.000000 0.000000
# 3 -0.004356 -0.004356 0.007355 0.000000 0.000000 0.000000
# 4 0.000000 0.000000 0.000000 0.055642 0.000000 0.000000
# 5 0.000000 0.000000 0.000000 0.000000 0.055642 0.000000
# 6 0.000000 0.000000 0.000000 0.000000 0.000000 0.044467
#
#
# Mechanical properties :
#
#
# Convention : Reuss Voigt Hill
#
# Bulk Modulus (GPa) = 17.17381 34.54163 25.85772
# Shear Modulus (GPa) = 20.45753 25.28711 22.87232
#
# Velocity S-wave (km/s) = 3.32712 3.69906 3.51801
# Velocity P-wave (km/s) = 4.90433 6.07740 5.52210
#
# Compressibility (1/GPa) = 0.05822820
#
# Stress axis : x y z
#
# Youngs Moduli (GPa) = 35.47191 35.47191 135.95557
#
# Poissons Ratio (x) = -0.21134 0.59228
# Poissons Ratio (y) = -0.21134 0.59228
# Poissons Ratio (z) = 0.15453 0.15453
#
# Static dielectric constant tensor:
#      x y z
#    x 3.139450 0.000000 0.000000 
#    y 0.000000 3.139450 0.000000 
#    z 0.000000 0.000000 3.584410 
# 
# 
# High freq. dielectric constant tensor:
#      x y z
#    x 1.691740 0.000000 0.000000 
#    y 0.000000 1.691740 0.000000 
#    z 0.000000 0.000000 1.713580 
# 
# From -- ./inp_files/3391.got.cif
#   From: 2010.03.12/outbox.cif.g09.slc.cpg/sg189_2_cif.got.tgz:3391.got - 2010.04.01 12:03:36.
