data_PCOD8327515
_publ_section_title
;
Structure prediction by ZEFSAII (Michael W. Deem and Ramdas Pophale) SiO2 
 PCOD8327515
Probable space group: P -6 2 M
;
_chemical_formula_sum "Si O2"
_cell_formula_units_Z 76
_cell_length_a 18.610808
_cell_length_b 18.610808
_cell_length_c 14.154716
_cell_angle_alpha 90.000000
_cell_angle_beta 90.000000
_cell_angle_gamma 120.000000
_cell_volume 4245.826558
_symmetry_space_group_name_H-M "P -6 2 M"
_symmetry_group_IT_number 189
_symmetry_cell_setting 'hexagonal'
loop_
_space_group_symop_operation_xyz
x,y,z
-x+y,-x,-z
-y,x-y,z
x,y,-z
-x+y,-x,z
-y,x-y,-z
x-y,-y,-z
-x,-x+y,-z
y,x,-z
y,x,z
x-y,-y,z
-x,-x+y,z
loop_
_atom_site_type_symbol
_atom_site_label
_atom_site_fract_x
_atom_site_fract_y
_atom_site_fract_z
Si Si1 0.298177 0.901804 0.397526
Si Si2 0.242493 0.902584 0.797130
Si Si3 0.235956 0.331628 0.888762
Si Si4 0.517187 0.164548 0.888948
Si Si5 0.523225 0.903223 0.794728
Si Si6 0.442071 0.540858 0.396078
Si Si7 0.333334 0.666668 0.887959
O O1 0.253217 0.870846 0.500000
O O2 0.231347 0.875472 0.313474
O O3 0.361033 0.866586 0.380776
O O4 0.354078 0.000000 0.397813
O O5 0.152686 0.856485 0.847615
O O6 0.305587 0.877439 0.841564
O O7 0.278152 0.000000 0.810446
O O8 0.267902 0.267902 0.863305
O O9 0.289321 0.422598 0.840972
O O10 0.237172 0.345128 0.000000
O O11 0.560971 0.111619 0.864017
O O12 0.578057 0.258834 0.851951
O O13 0.503456 0.162459 0.000000
O O14 0.490529 0.865494 0.689243
O O15 0.584592 0.000000 0.786559
O O16 0.399101 0.526181 0.500000
O O17 0.492273 0.492273 0.390251
O O18 0.333334 0.666668 0.000000
#
# Coordination Sequence:
#
# PCOD8327515 Si02
#       7
#    12  12  12  12  12  12   4
#     4   8  14  27  48  75 105 131 157 198 256 311
#     4  11  21  34  55  82 102 123 168 227 270 306
#     4  10  22  38  52  68 101 147 179 205 262 333
#     4  11  20  30  46  71 101 132 169 211 252 290
#     4  10  18  30  48  72 100 134 174 211 248 300
#     4   8  13  24  44  70 100 132 167 206 246 291
#     4   9  21  36  45  57  91 140 172 189 231 309
#
# _framework density 17.899930999999999
#
# number of rings (size 3 to 8) (size 9 to 14) (size 15 to 20)
#    0.000    2.368    1.579    3.316    0.000    4.105 
#    0.000    0.789    0.000    1.737    0.000    1.105 
#    0.000    0.000    0.000    0.000    0.000    0.316 
#
# Total GULP energy -941827.072042 kJ/mol
# GULP energy per Si atom -12392.461474 kJ/mol
# Density = 1.785919 g / cm^3
# Si number density = 17.899931 Si / 1000 Ang^3
#
#
#
# Elastic Constant Matrix: (Units=GPa)
#
#
# Indices 1 2 3 4 5 6 
#
# 1 67.5034 33.2318 43.2302 0.0000 0.0000 0.0000
# 2 33.2318 67.5031 43.2299 -0.0001 0.0000 -0.0001
# 3 43.2302 43.2299 110.5468 0.0000 0.0000 0.0000
# 4 0.0000 -0.0001 0.0000 20.7777 0.0000 0.0000
# 5 0.0000 0.0000 0.0000 0.0000 20.7777 0.0000
# 6 0.0000 -0.0001 0.0000 0.0000 0.0000 17.1355
#
#
#
# Elastic Compliance Matrix: (Units=1/GPa)
#
#
# Indices 1 2 3 4 5 6 
#
# 1 0.022061 -0.007118 -0.005843 0.000000 0.000000 0.000000
# 2 -0.007118 0.022061 -0.005843 0.000000 0.000000 0.000000
# 3 -0.005843 -0.005843 0.013616 0.000000 0.000000 0.000000
# 4 0.000000 0.000000 0.000000 0.048129 0.000000 0.000000
# 5 0.000000 0.000000 0.000000 0.000000 0.048129 0.000000
# 6 0.000000 0.000000 0.000000 0.000000 0.000000 0.058358
#
#
# Mechanical properties :
#
#
# Convention : Reuss Voigt Hill
#
# Bulk Modulus (GPa) = 49.68329 53.88190 51.78260
# Shear Modulus (GPa) = 19.48017 20.12894 19.80456
#
# Velocity S-wave (km/s) = 3.30249 3.35703 3.32987
# Velocity P-wave (km/s) = 6.50833 6.72260 6.61633
#
# Compressibility (1/GPa) = 0.02012749
#
# Stress axis : x y z
#
# Youngs Moduli (GPa) = 45.32982 45.32982 73.44280
#
# Poissons Ratio (x) = 0.32267 0.42915
# Poissons Ratio (y) = 0.32267 0.42914
# Poissons Ratio (z) = 0.26488 0.26487
#
# Static dielectric constant tensor:
#      x y z
#    x 3.119360 0.000000 0.000000 
#    y 0.000000 3.119370 0.000000 
#    z 0.000000 0.000000 3.847420 
# 
# 
# High freq. dielectric constant tensor:
#      x y z
#    x 1.659990 0.000000 0.000000 
#    y 0.000000 1.659990 0.000000 
#    z 0.000000 0.000000 1.709870 
# 
# From -- ./inp_files/2722.got.cif
#   From: 2010.03.12/outbox.cif.g09.slc.cpg/sg189_2_cif.got.tgz:2722.got - 2010.04.01 12:03:36.
