data_PCOD8327750
_publ_section_title
;
Structure prediction by ZEFSAII (Michael W. Deem and Ramdas Pophale) SiO2 
 PCOD8327750
Probable space group: P -6 2 M
;
_chemical_formula_sum "Si O2"
_cell_formula_units_Z 72
_cell_length_a 23.307522
_cell_length_b 23.307522
_cell_length_c 8.780508
_cell_angle_alpha 90.000000
_cell_angle_beta 90.000000
_cell_angle_gamma 120.000000
_cell_volume 4130.879060
_symmetry_space_group_name_H-M "P -6 2 M"
_symmetry_group_IT_number 189
_symmetry_cell_setting 'hexagonal'
loop_
_space_group_symop_operation_xyz
x,y,z
-x+y,-x,-z
-y,x-y,z
x,y,-z
-x+y,-x,z
-y,x-y,-z
x-y,-y,-z
-x,-x+y,-z
y,x,-z
y,x,z
x-y,-y,z
-x,-x+y,z
loop_
_atom_site_type_symbol
_atom_site_label
_atom_site_fract_x
_atom_site_fract_y
_atom_site_fract_z
Si Si1 0.075121 0.331879 0.821959
Si Si2 0.594713 0.121397 0.176895
Si Si3 0.516916 0.673214 0.175489
Si Si4 0.405812 0.405812 0.322608
Si Si5 0.671431 0.864530 0.677931
Si Si6 0.000000 0.717895 0.179324
Si Si7 0.790824 0.517617 0.676928
O O1 0.099469 0.408522 0.785204
O O2 0.119935 0.307597 0.736328
O O3 0.000000 0.288498 0.762658
O O4 0.079942 0.321443 0.000000
O O5 0.531382 0.128367 0.213866
O O6 0.661678 0.188143 0.222311
O O7 0.588839 0.063743 0.284030
O O8 0.596467 0.104513 0.000000
O O9 0.495570 0.715854 0.279672
O O10 0.510928 0.689099 0.000000
O O11 0.389383 0.389383 0.500000
O O12 0.348048 0.348048 0.227100
O O13 0.684327 0.873950 0.500000
O O14 0.594804 0.838895 0.717892
O O15 0.717121 0.934853 0.757827
O O16 0.000000 0.722554 0.000000
O O17 0.794656 0.503750 0.500000
#
# Coordination Sequence:
#
# PCOD8327750 Si02
#       7
#    12  12  12   6  12   6  12
#     4   9  18  34  56  79 107 141 179 220 259 306
#     4  11  22  36  56  78 103 137 179 226 273 328
#     4   9  20  36  55  76 100 134 179 224 268 322
#     4  12  24  36  52  78 110 140 172 219 274 331
#     4  10  20  34  53  78 111 141 171 213 260 315
#     4  12  22  34  56  82 108 142 178 213 260 321
#     4  10  20  35  54  73 101 135 171 220 275 325
#
# _framework density 17.429704999999998
#
# number of rings (size 3 to 8) (size 9 to 14) (size 15 to 20)
#    0.000    1.833    1.667    3.000    1.167    3.000 
#    1.000    0.000    0.000    0.000    0.000    0.000 
#    0.833    0.000    1.500    0.000    1.500    0.000 
#
# Total GULP energy -893102.601050 kJ/mol
# GULP energy per Si atom -12404.202792 kJ/mol
# Density = 1.739003 g / cm^3
# Si number density = 17.429705 Si / 1000 Ang^3
#
#
#
# Elastic Constant Matrix: (Units=GPa)
#
#
# Indices 1 2 3 4 5 6 
#
# 1 100.6062 62.1741 43.6906 0.0000 0.0000 0.0000
# 2 62.1741 100.6062 43.6906 0.0000 0.0000 0.0000
# 3 43.6906 43.6906 73.5826 0.0000 0.0000 0.0000
# 4 0.0000 0.0000 0.0000 25.6420 0.0000 0.0000
# 5 0.0000 0.0000 0.0000 0.0000 25.6420 0.0000
# 6 0.0000 0.0000 0.0000 0.0000 0.0000 19.2160
#
#
#
# Elastic Compliance Matrix: (Units=1/GPa)
#
#
# Indices 1 2 3 4 5 6 
#
# 1 0.017519 -0.008501 -0.005354 0.000000 0.000000 0.000000
# 2 -0.008501 0.017519 -0.005354 0.000000 0.000000 0.000000
# 3 -0.005354 -0.005354 0.019948 0.000000 0.000000 0.000000
# 4 0.000000 0.000000 0.000000 0.038998 0.000000 0.000000
# 5 0.000000 0.000000 0.000000 0.000000 0.038998 0.000000
# 6 0.000000 0.000000 0.000000 0.000000 0.000000 0.052040
#
#
# Mechanical properties :
#
#
# Convention : Reuss Voigt Hill
#
# Bulk Modulus (GPa) = 60.36303 63.76730 62.06516
# Shear Modulus (GPa) = 21.83748 22.44932 22.14340
#
# Velocity S-wave (km/s) = 3.54346 3.59275 3.56819
# Velocity P-wave (km/s) = 7.17279 7.33998 7.25687
#
# Compressibility (1/GPa) = 0.01656643
#
# Stress axis : x y z
#
# Youngs Moduli (GPa) = 57.08193 57.08193 50.12926
#
# Poissons Ratio (x) = 0.48527 0.26840
# Poissons Ratio (y) = 0.48527 0.26840
# Poissons Ratio (z) = 0.30563 0.30563
#
# Static dielectric constant tensor:
#      x y z
#    x 3.219400 0.000000 0.000000 
#    y 0.000000 3.219400 0.000000 
#    z 0.000000 0.000000 3.258570 
# 
# 
# High freq. dielectric constant tensor:
#      x y z
#    x 1.660840 0.000000 0.000000 
#    y 0.000000 1.660840 0.000000 
#    z 0.000000 0.000000 1.682740 
# 
# From -- ./inp_files/1336.got.cif
#   From: 2010.03.12/outbox.cif.g09.slc.cpg/sg189_1_cif.got.tgz:1336.got - 2010.04.01 12:03:36.
