data_PCOD8327692
_publ_section_title
;
Structure prediction by ZEFSAII (Michael W. Deem and Ramdas Pophale) SiO2 
 PCOD8327692
Probable space group: P -6 2 M
;
_chemical_formula_sum "Si O2"
_cell_formula_units_Z 60
_cell_length_a 20.155590
_cell_length_b 20.155590
_cell_length_c 8.970185
_cell_angle_alpha 90.000000
_cell_angle_beta 90.000000
_cell_angle_gamma 120.000000
_cell_volume 3155.898759
_symmetry_space_group_name_H-M "P -6 2 M"
_symmetry_group_IT_number 189
_symmetry_cell_setting 'hexagonal'
loop_
_space_group_symop_operation_xyz
x,y,z
-x+y,-x,-z
-y,x-y,z
x,y,-z
-x+y,-x,z
-y,x-y,-z
x-y,-y,-z
-x,-x+y,-z
y,x,-z
y,x,z
x-y,-y,z
-x,-x+y,z
loop_
_atom_site_type_symbol
_atom_site_label
_atom_site_fract_x
_atom_site_fract_y
_atom_site_fract_z
Si Si1 0.000000 0.325659 0.331524
Si Si2 0.749374 0.246562 0.825115
Si Si3 0.671553 0.811784 0.824895
Si Si4 0.517750 0.517750 0.668648
Si Si5 0.423255 0.580956 0.177911
Si Si6 0.824840 0.912824 0.675318
O O1 0.000000 0.297009 0.500000
O O2 0.073096 0.337306 0.244924
O O3 0.000000 0.403701 0.330067
O O4 0.782188 0.189774 0.786732
O O5 0.803289 0.332034 0.759519
O O6 0.663577 0.209644 0.763067
O O7 0.747654 0.257292 0.000000
O O8 0.743911 0.886126 0.755030
O O9 0.684515 0.811553 0.000000
O O10 0.490538 0.490538 0.500000
O O11 0.454018 0.528399 0.753167
O O12 0.427697 0.577136 0.000000
O O13 0.810921 0.905786 0.500000
O O14 0.860418 0.860418 0.728213
O O15 0.883370 0.000000 0.721935
#
# Coordination Sequence:
#
# PCOD8327692 Si02
#       6
#     6  12  12   6  12  12
#     4  11  21  35  57  83 113 148 185 228 281 341
#     4   9  19  34  58  87 111 141 187 233 277 330
#     4  11  21  35  57  88 116 142 183 238 286 329
#     4  11  23  37  55  85 117 148 189 236 279 333
#     4  10  19  37  61  84 112 149 188 231 282 339
#     4  10  21  38  59  82 110 150 191 228 275 338
#
# _framework density 19.012017
#
# number of rings (size 3 to 8) (size 9 to 14) (size 15 to 20)
#    0.000    1.800    3.000    1.800    0.000    3.600 
#    1.800    3.000    0.000    1.200    0.000    0.000 
#    0.000    0.000    0.000    0.000    0.000    0.000 
#
# Total GULP energy -743996.265541 kJ/mol
# GULP energy per Si atom -12399.937759 kJ/mol
# Density = 1.896874 g / cm^3
# Si number density = 19.012017 Si / 1000 Ang^3
#
#
#
# Elastic Constant Matrix: (Units=GPa)
#
#
# Indices 1 2 3 4 5 6 
#
# 1 137.7870 42.6382 39.5014 0.0000 0.0000 0.0000
# 2 42.6382 137.7870 39.5014 0.0000 0.0000 0.0000
# 3 39.5014 39.5014 52.1493 0.0000 0.0000 0.0000
# 4 0.0000 0.0000 0.0000 27.4015 0.0000 0.0000
# 5 0.0000 0.0000 0.0000 0.0000 27.4015 0.0000
# 6 0.0000 0.0000 0.0000 0.0000 0.0000 47.5744
#
#
#
# Elastic Compliance Matrix: (Units=1/GPa)
#
#
# Indices 1 2 3 4 5 6 
#
# 1 0.009401 -0.001108 -0.006282 0.000000 0.000000 0.000000
# 2 -0.001108 0.009401 -0.006282 0.000000 0.000000 0.000000
# 3 -0.006282 -0.006282 0.028692 0.000000 0.000000 0.000000
# 4 0.000000 0.000000 0.000000 0.036494 0.000000 0.000000
# 5 0.000000 0.000000 0.000000 0.000000 0.036494 0.000000
# 6 0.000000 0.000000 0.000000 0.000000 0.000000 0.021020
#
#
# Mechanical properties :
#
#
# Convention : Reuss Voigt Hill
#
# Bulk Modulus (GPa) = 49.62445 63.44501 56.53473
# Shear Modulus (GPa) = 28.47964 34.21432 31.34698
#
# Velocity S-wave (km/s) = 3.87457 4.24679 4.06494
# Velocity P-wave (km/s) = 6.79520 7.58224 7.19948
#
# Compressibility (1/GPa) = 0.02015136
#
# Stress axis : x y z
#
# Youngs Moduli (GPa) = 106.36672 106.36672 34.85281
#
# Poissons Ratio (x) = 0.11790 0.21893
# Poissons Ratio (y) = 0.11790 0.21893
# Poissons Ratio (z) = 0.66816 0.66816
#
# Static dielectric constant tensor:
#      x y z
#    x 3.521630 0.000000 0.000000 
#    y 0.000000 3.521630 0.000000 
#    z 0.000000 0.000000 3.375120 
# 
# 
# High freq. dielectric constant tensor:
#      x y z
#    x 1.743050 0.000000 0.000000 
#    y 0.000000 1.743050 0.000000 
#    z 0.000000 0.000000 1.717860 
# 
# From -- ./inp_files/951.got.cif
#   From: 2010.03.12/outbox.cif.g09.slc.cpg/sg189_1_cif.got.tgz:951.got - 2010.04.01 12:03:36.
