data_PCOD8327516
_publ_section_title
;
Structure prediction by ZEFSAII (Michael W. Deem and Ramdas Pophale) SiO2 
 PCOD8327516
Probable space group: P -6 2 M
;
_chemical_formula_sum "Si O2"
_cell_formula_units_Z 82
_cell_length_a 21.401196
_cell_length_b 21.401196
_cell_length_c 12.580236
_cell_angle_alpha 90.000000
_cell_angle_beta 90.000000
_cell_angle_gamma 120.000000
_cell_volume 4989.942130
_symmetry_space_group_name_H-M "P -6 2 M"
_symmetry_group_IT_number 189
_symmetry_cell_setting 'hexagonal'
loop_
_space_group_symop_operation_xyz
x,y,z
-x+y,-x,-z
-y,x-y,z
x,y,-z
-x+y,-x,z
-y,x-y,-z
x-y,-y,-z
-x,-x+y,-z
y,x,-z
y,x,z
x-y,-y,z
-x,-x+y,z
loop_
_atom_site_type_symbol
_atom_site_label
_atom_site_fract_x
_atom_site_fract_y
_atom_site_fract_z
Si Si1 0.448175 0.657965 0.753315
Si Si2 0.376081 0.295803 0.121137
Si Si3 0.916020 0.342710 0.375248
Si Si4 0.333333 0.666667 0.622902
Si Si5 0.319342 0.527814 0.125115
Si Si6 0.085111 0.914795 0.000000
Si Si7 0.199769 0.915385 0.382021
Si Si8 0.756222 0.917214 0.791877
O O1 0.506244 0.639892 0.701630
O O2 0.408658 0.674907 0.659355
O O3 0.389893 0.592355 0.822915
O O4 0.483645 0.727401 0.830177
O O5 0.363023 0.363023 0.136896
O O6 0.457177 0.323024 0.155028
O O7 0.322249 0.229878 0.193937
O O8 0.360806 0.268111 0.000000
O O9 0.900223 0.347961 0.500000
O O10 0.897773 0.261806 0.346541
O O11 0.000000 0.399655 0.350596
O O12 0.333334 0.666668 0.500000
O O13 0.321909 0.541909 0.000000
O O14 0.109601 0.888669 0.896458
O O15 0.000000 0.882837 0.000000
O O16 0.123371 0.000000 0.000000
O O17 0.172915 0.884018 0.500000
O O18 0.131193 0.882264 0.306678
O O19 0.232031 0.000000 0.382429
O O20 0.814960 0.000000 0.766613
#
# Coordination Sequence:
#
# PCOD8327516 Si02
#       8
#    12  12  12   4  12   6  12  12
#     4  10  19  31  49  73  96 123 166 200 240 297
#     4   9  17  31  48  68  92 121 159 195 236 288
#     4   9  18  33  53  74  98 129 163 205 255 302
#     4   9  18  30  46  68  94 120 150 198 244 284
#     4  10  20  32  49  70  97 133 161 199 243 288
#     4  10  19  30  46  70  98 128 160 202 254 302
#     4   9  18  32  49  70  96 128 165 201 244 300
#     4  10  18  30  49  71  96 125 164 207 246 295
#
# _framework density 16.433056000000001
#
# number of rings (size 3 to 8) (size 9 to 14) (size 15 to 20)
#    0.000    2.488    0.732    3.439    0.000    0.878 
#    0.000    0.000    0.000    2.488    0.000    0.000 
#    0.000    0.000    0.000    0.000    0.000    0.000 
#
# Total GULP energy -1016634.279764 kJ/mol
# GULP energy per Si atom -12397.979022 kJ/mol
# Density = 1.639565 g / cm^3
# Si number density = 16.433056 Si / 1000 Ang^3
#
#
#
# Elastic Constant Matrix: (Units=GPa)
#
#
# Indices 1 2 3 4 5 6 
#
# 1 68.9447 49.4870 45.8513 0.0000 0.0000 0.0017
# 2 49.4870 68.9488 45.8554 0.0000 0.0000 -0.0014
# 3 45.8513 45.8554 93.5772 0.0000 0.0000 0.0002
# 4 0.0000 0.0000 0.0000 25.7541 0.0000 0.0000
# 5 0.0000 0.0000 0.0000 0.0000 25.7542 0.0000
# 6 0.0017 -0.0014 0.0002 0.0000 0.0000 9.7234
#
#
#
# Elastic Compliance Matrix: (Units=1/GPa)
#
#
# Indices 1 2 3 4 5 6 
#
# 1 0.032497 -0.018891 -0.006666 0.000000 0.000000 -0.000008
# 2 -0.018891 0.032497 -0.006668 0.000000 0.000000 0.000008
# 3 -0.006666 -0.006668 0.017220 0.000000 0.000000 0.000000
# 4 0.000000 0.000000 0.000000 0.038829 0.000000 0.000000
# 5 0.000000 0.000000 0.000000 0.000000 0.038829 0.000000
# 6 -0.000008 0.000008 0.000000 0.000000 0.000000 0.102845
#
#
# Mechanical properties :
#
#
# Convention : Reuss Voigt Hill
#
# Bulk Modulus (GPa) = 56.29347 57.09535 56.69441
# Shear Modulus (GPa) = 15.01105 18.26480 16.63793
#
# Velocity S-wave (km/s) = 3.02564 3.33748 3.18538
# Velocity P-wave (km/s) = 6.82177 7.04779 6.93570
#
# Compressibility (1/GPa) = 0.01776405
#
# Stress axis : x y z
#
# Youngs Moduli (GPa) = 30.77201 30.77210 58.07154
#
# Poissons Ratio (x) = 0.58132 0.38710
# Poissons Ratio (y) = 0.58131 0.38723
# Poissons Ratio (z) = 0.20512 0.20519
#
# Static dielectric constant tensor:
#      x y z
#    x 3.228350 0.000010 0.000000 
#    y 0.000010 3.228410 0.000000 
#    z 0.000000 0.000000 3.054440 
# 
# 
# High freq. dielectric constant tensor:
#      x y z
#    x 1.632260 0.000000 0.000000 
#    y 0.000000 1.632260 0.000000 
#    z 0.000000 0.000000 1.630000 
# 
# From -- ./inp_files/2176.got.cif
#   From: 2010.03.12/outbox.cif.g09.slc.cpg/sg189_2_cif.got.tgz:2176.got - 2010.04.01 12:03:36.
