data_PCOD8327655
_publ_section_title
;
Structure prediction by ZEFSAII (Michael W. Deem and Ramdas Pophale) SiO2 
 PCOD8327655
Probable space group: P -6 2 M
;
_chemical_formula_sum "Si O2"
_cell_formula_units_Z 78
_cell_length_a 24.146650
_cell_length_b 24.146650
_cell_length_c 7.585091
_cell_angle_alpha 90.000000
_cell_angle_beta 90.000000
_cell_angle_gamma 120.000000
_cell_volume 3830.056684
_symmetry_space_group_name_H-M "P -6 2 M"
_symmetry_group_IT_number 189
_symmetry_cell_setting 'hexagonal'
loop_
_space_group_symop_operation_xyz
x,y,z
-x+y,-x,-z
-y,x-y,z
x,y,-z
-x+y,-x,z
-y,x-y,-z
x-y,-y,-z
-x,-x+y,-z
y,x,-z
y,x,z
x-y,-y,z
-x,-x+y,z
loop_
_atom_site_type_symbol
_atom_site_label
_atom_site_fract_x
_atom_site_fract_y
_atom_site_fract_z
Si Si1 0.517562 0.268086 0.288385
Si Si2 0.926399 0.759357 0.292924
Si Si3 0.929395 0.286985 0.197525
Si Si4 0.590853 0.196945 0.706421
Si Si5 0.151270 0.076748 0.000000
Si Si6 0.822283 0.624583 0.694493
Si Si7 0.521649 0.591195 0.703342
O O1 0.513233 0.264562 0.500000
O O2 0.561539 0.339355 0.211532
O O3 0.552056 0.229966 0.216309
O O4 0.444953 0.238172 0.209156
O O5 0.911672 0.764879 0.500000
O O6 0.884733 0.685670 0.221869
O O7 0.000000 0.779502 0.265159
O O8 0.909769 0.805002 0.175618
O O9 0.876555 0.232415 0.318777
O O10 0.919589 0.348000 0.186517
O O11 0.000000 0.308558 0.273743
O O12 0.922083 0.259825 0.000000
O O13 0.600170 0.211012 0.500000
O O14 0.550451 0.121858 0.753484
O O15 0.096373 0.096373 0.000000
O O16 0.118277 0.000000 0.000000
O O17 0.842135 0.615703 0.500000
O O18 0.535362 0.612574 0.500000
O O19 0.530133 0.530133 0.742014
#
# Coordination Sequence:
#
# PCOD8327655 Si02
#       7
#    12  12  12  12   6  12  12
#     4   9  16  26  44  72 100 129 165 212 264 316
#     4   9  20  38  57  79 111 150 188 230 277 321
#     4  10  20  31  46  71 100 130 163 200 248 308
#     4   9  15  25  42  67  96 123 158 203 251 301
#     4  10  21  38  62  90 120 152 186 224 268 322
#     4  10  19  33  52  75 102 134 175 217 265 321
#     4   9  16  28  46  67  94 126 157 193 243 300
#
# _framework density 20.365233
#
# number of rings (size 3 to 8) (size 9 to 14) (size 15 to 20)
#    0.000    2.615    1.538    0.846    1.077    3.077 
#    0.000    2.308    0.000    6.462    0.000    0.000 
#    0.000    0.000    0.000    0.000    0.000    0.000 
#
# Total GULP energy -966379.327659 kJ/mol
# GULP energy per Si atom -12389.478560 kJ/mol
# Density = 2.031888 g / cm^3
# Si number density = 20.365233 Si / 1000 Ang^3
#
#
#
# Elastic Constant Matrix: (Units=GPa)
#
#
# Indices 1 2 3 4 5 6 
#
# 1 155.1848 96.1864 16.9499 0.0000 0.0000 0.0000
# 2 96.1864 155.1848 16.9499 0.0000 0.0000 0.0000
# 3 16.9499 16.9499 43.5175 0.0000 0.0000 0.0000
# 4 0.0000 0.0000 0.0000 6.2882 0.0000 0.0000
# 5 0.0000 0.0000 0.0000 0.0000 6.2882 0.0000
# 6 0.0000 0.0000 0.0000 0.0000 0.0000 29.4992
#
#
#
# Elastic Compliance Matrix: (Units=1/GPa)
#
#
# Indices 1 2 3 4 5 6 
#
# 1 0.010574 -0.006375 -0.001635 0.000000 0.000000 0.000000
# 2 -0.006375 0.010574 -0.001635 0.000000 0.000000 0.000000
# 3 -0.001635 -0.001635 0.024253 0.000000 0.000000 0.000000
# 4 0.000000 0.000000 0.000000 0.159029 0.000000 0.000000
# 5 0.000000 0.000000 0.000000 0.000000 0.159029 0.000000
# 6 0.000000 0.000000 0.000000 0.000000 0.000000 0.033899
#
#
# Mechanical properties :
#
#
# Convention : Reuss Voigt Hill
#
# Bulk Modulus (GPa) = 38.30078 68.22884 53.26481
# Shear Modulus (GPa) = 11.75493 23.33516 17.54505
#
# Velocity S-wave (km/s) = 2.40512 3.38869 2.93835
# Velocity P-wave (km/s) = 5.15369 6.99187 6.14194
#
# Compressibility (1/GPa) = 0.02610913
#
# Stress axis : x y z
#
# Youngs Moduli (GPa) = 94.57007 94.57007 41.23159
#
# Poissons Ratio (x) = 0.60293 0.06743
# Poissons Ratio (y) = 0.60293 0.06743
# Poissons Ratio (z) = 0.15466 0.15466
#
# Static dielectric constant tensor:
#      x y z
#    x 3.798940 0.000000 0.000000 
#    y 0.000000 3.798940 0.000000 
#    z 0.000000 0.000000 3.364100 
# 
# 
# High freq. dielectric constant tensor:
#      x y z
#    x 1.787670 0.000000 0.000000 
#    y 0.000000 1.787670 0.000000 
#    z 0.000000 0.000000 1.769110 
# 
# From -- ./inp_files/1410.got.cif
#   From: 2010.03.12/outbox.cif.g09.slc.cpg/sg189_1_cif.got.tgz:1410.got - 2010.04.01 12:03:36.
