data_PCOD8327839
_publ_section_title
;
Structure prediction by ZEFSAII (Michael W. Deem and Ramdas Pophale) SiO2 
 PCOD8327839
Probable space group: P -6 2 M
;
_chemical_formula_sum "Si O2"
_cell_formula_units_Z 72
_cell_length_a 23.344213
_cell_length_b 23.344213
_cell_length_c 9.456048
_cell_angle_alpha 90.000000
_cell_angle_beta 90.000000
_cell_angle_gamma 120.000000
_cell_volume 4462.711111
_symmetry_space_group_name_H-M "P -6 2 M"
_symmetry_group_IT_number 189
_symmetry_cell_setting 'hexagonal'
loop_
_space_group_symop_operation_xyz
x,y,z
-x+y,-x,-z
-y,x-y,z
x,y,-z
-x+y,-x,z
-y,x-y,-z
x-y,-y,-z
-x,-x+y,-z
y,x,-z
y,x,z
x-y,-y,z
-x,-x+y,z
loop_
_atom_site_type_symbol
_atom_site_label
_atom_site_fract_x
_atom_site_fract_y
_atom_site_fract_z
Si Si1 0.154532 0.077177 0.836918
Si Si2 0.073266 0.712467 0.331794
Si Si3 0.590531 0.511936 0.842285
Si Si4 0.639208 0.717448 0.159063
Si Si5 0.590726 0.079018 0.657139
Si Si6 0.137761 0.289736 0.331203
O O1 0.114210 0.114210 0.800774
O O2 0.217407 0.104904 0.735653
O O3 0.106924 0.000000 0.805414
O O4 0.178096 0.088406 0.000000
O O5 0.069617 0.708784 0.500000
O O6 0.100222 0.663678 0.279722
O O7 0.119677 0.786711 0.279325
O O8 0.000000 0.687423 0.270029
O O9 0.547900 0.547900 0.836103
O O10 0.665447 0.563820 0.793262
O O11 0.555888 0.446063 0.746867
O O12 0.592103 0.487981 0.000000
O O13 0.681124 0.681124 0.155744
O O14 0.671045 0.773839 0.275590
O O15 0.640097 0.744627 0.000000
O O16 0.597259 0.107521 0.500000
O O17 0.549065 0.000000 0.655119
O O18 0.130935 0.282453 0.500000
#
# Coordination Sequence:
#
# PCOD8327839 Si02
#       6
#    12  12  12  12  12  12
#     4  10  21  37  54  68  84 112 154 203 255 309
#     4   8  15  28  43  60  87 120 146 172 216 270
#     4   8  14  25  41  61  85 111 137 167 204 244
#     4   9  18  32  46  60  86 123 153 179 220 273
#     4   8  13  23  41  62  83 109 138 164 195 242
#     4  11  21  31  46  68  93 120 152 191 234 281
#
# _framework density 16.133690000000001
#
# number of rings (size 3 to 8) (size 9 to 14) (size 15 to 20)
#    0.000    3.000    0.000    3.667    0.000    5.000 
#    0.000    3.333    0.000    5.000    0.000    0.000 
#    1.667    0.000    1.000    0.000    1.333    0.000 
#
# Total GULP energy -892258.031356 kJ/mol
# GULP energy per Si atom -12392.472658 kJ/mol
# Density = 1.609697 g / cm^3
# Si number density = 16.133690 Si / 1000 Ang^3
#
#
#
# Elastic Constant Matrix: (Units=GPa)
#
#
# Indices 1 2 3 4 5 6 
#
# 1 81.3391 38.0117 39.9948 0.0000 0.0000 0.0000
# 2 38.0117 81.3391 39.9948 0.0000 0.0000 0.0000
# 3 39.9948 39.9948 66.2771 0.0000 0.0000 0.0000
# 4 0.0000 0.0000 0.0000 20.3400 0.0000 0.0000
# 5 0.0000 0.0000 0.0000 0.0000 20.3400 0.0000
# 6 0.0000 0.0000 0.0000 0.0000 0.0000 21.6637
#
#
#
# Elastic Compliance Matrix: (Units=1/GPa)
#
#
# Indices 1 2 3 4 5 6 
#
# 1 0.018574 -0.004506 -0.008490 0.000000 0.000000 0.000000
# 2 -0.004506 0.018574 -0.008490 0.000000 0.000000 0.000000
# 3 -0.008490 -0.008490 0.025334 0.000000 0.000000 0.000000
# 4 0.000000 0.000000 0.000000 0.049164 0.000000 0.000000
# 5 0.000000 0.000000 0.000000 0.000000 0.049164 0.000000
# 6 0.000000 0.000000 0.000000 0.000000 0.000000 0.046160
#
#
# Mechanical properties :
#
#
# Convention : Reuss Voigt Hill
#
# Bulk Modulus (GPa) = 51.24849 51.66201 51.45525
# Shear Modulus (GPa) = 19.49730 19.86565 19.68148
#
# Velocity S-wave (km/s) = 3.48010 3.51282 3.49649
# Velocity P-wave (km/s) = 6.92690 6.96734 6.94715
#
# Compressibility (1/GPa) = 0.01951277
#
# Stress axis : x y z
#
# Youngs Moduli (GPa) = 53.83795 53.83795 39.47230
#
# Poissons Ratio (x) = 0.24259 0.33510
# Poissons Ratio (y) = 0.24259 0.33510
# Poissons Ratio (z) = 0.45706 0.45706
#
# Static dielectric constant tensor:
#      x y z
#    x 3.160920 0.000000 0.000000 
#    y 0.000000 3.160920 0.000000 
#    z 0.000000 0.000000 3.066610 
# 
# 
# High freq. dielectric constant tensor:
#      x y z
#    x 1.604260 0.000000 0.000000 
#    y 0.000000 1.604260 0.000000 
#    z 0.000000 0.000000 1.609250 
# 
# From -- ./inp_files/1277.got.cif
#   From: 2010.03.12/outbox.cif.g09.slc.cpg/sg189_1_cif.got.tgz:1277.got - 2010.04.01 12:03:36.
