data_PCOD8327424
_publ_section_title
;
Structure prediction by ZEFSAII (Michael W. Deem and Ramdas Pophale) SiO2 
 PCOD8327424
Probable space group: P -6 C 2
;
_chemical_formula_sum "Si O2"
_cell_formula_units_Z 64
_cell_length_a 14.151661
_cell_length_b 14.151661
_cell_length_c 18.344327
_cell_angle_alpha 90.000000
_cell_angle_beta 90.000000
_cell_angle_gamma 120.000000
_cell_volume 3181.612236
_symmetry_space_group_name_H-M "P -6 C 2"
_symmetry_group_IT_number 188
_symmetry_cell_setting 'hexagonal'
loop_
_space_group_symop_operation_xyz
x,y,z
-x+y,-x,1/2-z
-y,x-y,z
x,y,1/2-z
-x+y,-x,z
-y,x-y,1/2-z
-y,-x,-z
-x+y,y,-z
x,x-y,-z
-x+y,y,1/2+z
x,x-y,1/2+z
-y,-x,1/2+z
loop_
_atom_site_type_symbol
_atom_site_label
_atom_site_fract_x
_atom_site_fract_y
_atom_site_fract_z
Si Si1 0.216223 0.772233 0.666383
Si Si2 0.615615 0.009474 0.334096
Si Si3 0.333333 0.666667 0.913896
Si Si4 0.355821 0.177146 0.085788
Si Si5 0.404095 0.384449 0.833064
Si Si6 0.924467 0.861214 0.168925
O O1 0.242410 0.756444 0.750000
O O2 0.279061 0.900801 0.647094
O O3 0.255027 0.709662 0.613541
O O4 0.085706 0.716553 0.655132
O O5 0.645299 0.041453 0.250000
O O6 0.701633 0.109377 0.382559
O O7 0.495233 0.987444 0.353035
O O8 0.333334 0.666667 0.000000
O O9 0.420357 0.118882 0.116332
O O10 0.229396 0.105660 0.107419
O O11 0.367713 0.183857 0.000000
O O12 0.417792 0.357915 0.750000
O O13 0.895542 0.807085 0.250000
O O14 0.876183 0.943396 0.160741
#
# Coordination Sequence:
#
# PCOD8327424 Si02
#       6
#    12  12   4  12  12  12
#     4  10  20  39  67  96 126 161 208 257 304 365
#     4  10  22  42  69  95 120 160 216 265 303 362
#     4  12  22  32  55  96 139 170 193 237 313 395
#     4  12  26  40  59  90 133 170 201 253 319 385
#     4  10  22  42  69  95 120 160 216 265 303 362
#     4   8  18  37  61  86 116 159 212 257 292 345
#
# _framework density 20.115587999999999
#
# number of rings (size 3 to 8) (size 9 to 14) (size 15 to 20)
#    0.375    1.500    1.875    2.250    2.625    3.000 
#    1.125    0.000    0.000    0.000    0.000    0.000 
#    0.000    0.000    0.000    0.000    0.000    0.000 
#
# Total GULP energy -793539.453246 kJ/mol
# GULP energy per Si atom -12399.053957 kJ/mol
# Density = 2.006980 g / cm^3
# Si number density = 20.115588 Si / 1000 Ang^3
#
#
#
# Elastic Constant Matrix: (Units=GPa)
#
#
# Indices 1 2 3 4 5 6 
#
# 1 96.5793 34.3304 44.6776 0.0110 0.0008 0.0000
# 2 34.3304 96.5792 44.6775 -0.0142 0.0016 0.0000
# 3 44.6776 44.6775 115.5936 -0.0152 -0.0036 0.0000
# 4 0.0110 -0.0142 -0.0152 536.4579 -0.2949 -0.0004
# 5 0.0008 0.0016 -0.0036 -0.2949 537.1214 0.0205
# 6 0.0000 0.0000 0.0000 -0.0004 0.0205 31.1244
#
#
#
# Elastic Compliance Matrix: (Units=1/GPa)
#
#
# Indices 1 2 3 4 5 6 
#
# 1 0.013220 -0.002844 -0.004011 0.000000 0.000000 0.000000
# 2 -0.002844 0.013220 -0.004010 0.000000 0.000000 0.000000
# 3 -0.004011 -0.004010 0.011751 0.000000 0.000000 0.000000
# 4 0.000000 0.000000 0.000000 0.001864 0.000001 0.000000
# 5 0.000000 0.000000 0.000000 0.000001 0.001862 -0.000001
# 6 0.000000 0.000000 0.000000 0.000000 -0.000001 0.032129
#
#
# Mechanical properties :
#
#
# Convention : Reuss Voigt Hill
#
# Bulk Modulus (GPa) = 60.74676 61.79142 61.26909
# Shear Modulus (GPa) = 49.37567 233.27852 141.32710
#
# Velocity S-wave (km/s) = 4.95976 10.78057 8.39107
# Velocity P-wave (km/s) = 7.94125 13.62886 11.15368
#
# Compressibility (1/GPa) = 0.01646178
#
# Stress axis : x y z
#
# Youngs Moduli (GPa) = 75.64051 75.64050 85.09800
#
# Poissons Ratio (x) = 0.21513 0.34129
# Poissons Ratio (y) = 0.21513 0.34128
# Poissons Ratio (z) = 0.30336 0.30336
#
# Static dielectric constant tensor:
#      x y z
#    x 3.582610 0.000000 0.000000 
#    y 0.000000 3.582610 0.000000 
#    z 0.000000 0.000000 3.384320 
# 
# 
# High freq. dielectric constant tensor:
#      x y z
#    x 1.783210 0.000000 0.000000 
#    y 0.000000 1.783210 0.000000 
#    z 0.000000 0.000000 1.762020 
# 
# From -- ./inp_files/3063.got.cif
#   From: 2010.03.12/outbox.cif.g09.slc.cpg/sg188_2_cif.got.tgz:3063.got - 2010.04.01 12:01:06.
