data_PCOD8327937
_publ_section_title
;
Structure prediction by ZEFSAII (Michael W. Deem and Ramdas Pophale) SiO2 
 PCOD8327937
Probable space group: P -6 2 C
;
_chemical_formula_sum "Si O2"
_cell_formula_units_Z 84
_cell_length_a 18.247657
_cell_length_b 18.247657
_cell_length_c 14.920307
_cell_angle_alpha 90.000000
_cell_angle_beta 90.000000
_cell_angle_gamma 120.000000
_cell_volume 4302.517137
_symmetry_space_group_name_H-M "P -6 2 C"
_symmetry_group_IT_number 190
_symmetry_cell_setting 'hexagonal'
loop_
_space_group_symop_operation_xyz
x,y,z
-x+y,-x,1/2-z
-y,x-y,z
x,y,1/2-z
-x+y,-x,z
-y,x-y,1/2-z
x-y,-y,-z
-x,-x+y,-z
y,x,-z
y,x,1/2+z
x-y,-y,1/2+z
-x,-x+y,1/2+z
loop_
_atom_site_type_symbol
_atom_site_label
_atom_site_fract_x
_atom_site_fract_y
_atom_site_fract_z
Si Si1 0.919320 0.496358 0.444418
Si Si2 0.748778 0.751747 0.645951
Si Si3 0.597256 0.843793 0.000414
Si Si4 0.286358 0.803777 0.750000
Si Si5 0.614321 0.137589 0.250000
Si Si6 0.910792 0.731949 0.351140
Si Si7 0.420270 0.104245 0.067364
Si Si8 0.100855 0.824260 0.352081
O O1 0.843735 0.508781 0.485674
O O2 0.923761 0.510165 0.336900
O O3 0.909205 0.405425 0.463559
O O4 0.000000 0.564971 0.500000
O O5 0.729573 0.724832 0.750000
O O6 0.766594 0.846722 0.629411
O O7 0.669233 0.685828 0.582662
O O8 0.832443 0.750955 0.613227
O O9 0.643218 0.888987 0.092429
O O10 0.656930 0.895431 0.917256
O O11 0.580742 0.748573 0.006263
O O12 0.375036 0.805528 0.750000
O O13 0.206593 0.711426 0.750000
O O14 0.279999 0.850503 0.837339
O O15 0.898576 0.695640 0.250000
O O16 0.006441 0.809361 0.364734
O O17 0.118973 0.812172 0.250000
#
# Coordination Sequence:
#
# PCOD8327937 Si02
#       8
#    12  12  12   6   6  12  12  12
#     4  11  24  38  57  90 121 150 193 244 303 365
#     4   9  18  34  57  84 118 155 193 236 284 344
#     4  11  22  39  59  81 114 153 191 244 296 360
#     4  10  17  36  56  88 113 147 183 237 305 361
#     4  10  21  36  62  90 119 151 187 249 309 365
#     4   9  19  34  57  84 114 149 192 238 290 342
#     4  10  21  35  59  85 120 150 191 236 302 357
#     4  10  21  37  57  85 115 159 205 240 282 348
#
# _framework density 19.523454999999998
#
# number of rings (size 3 to 8) (size 9 to 14) (size 15 to 20)
#    0.000    2.000    2.143    1.429    4.000    1.714 
#    3.000    0.000    0.000    0.000    0.000    0.000 
#    0.000    0.000    0.000    0.000    0.000    0.000 
#
# Total GULP energy -1041240.231315 kJ/mol
# GULP energy per Si atom -12395.717039 kJ/mol
# Density = 1.947902 g / cm^3
# Si number density = 19.523455 Si / 1000 Ang^3
#
#
#
# Elastic Constant Matrix: (Units=GPa)
#
#
# Indices 1 2 3 4 5 6 
#
# 1 97.6416 42.3524 32.8724 0.0000 0.0000 0.0000
# 2 42.3524 97.6416 32.8724 0.0000 0.0000 0.0000
# 3 32.8724 32.8724 80.2923 0.0000 0.0000 0.0000
# 4 0.0000 0.0000 0.0000 24.4410 0.0000 0.0000
# 5 0.0000 0.0000 0.0000 0.0000 24.4410 0.0000
# 6 0.0000 0.0000 0.0000 0.0000 0.0000 27.6446
#
#
#
# Elastic Compliance Matrix: (Units=1/GPa)
#
#
# Indices 1 2 3 4 5 6 
#
# 1 0.013465 -0.004622 -0.003621 0.000000 0.000000 0.000000
# 2 -0.004622 0.013465 -0.003621 0.000000 0.000000 0.000000
# 3 -0.003621 -0.003621 0.015419 0.000000 0.000000 0.000000
# 4 0.000000 0.000000 0.000000 0.040915 0.000000 0.000000
# 5 0.000000 0.000000 0.000000 0.000000 0.040915 0.000000
# 6 0.000000 0.000000 0.000000 0.000000 0.000000 0.036173
#
#
# Mechanical properties :
#
#
# Convention : Reuss Voigt Hill
#
# Bulk Modulus (GPa) = 53.69509 54.64109 54.16809
# Shear Modulus (GPa) = 26.27624 26.47054 26.37339
#
# Velocity S-wave (km/s) = 3.67260 3.68616 3.67939
# Velocity P-wave (km/s) = 6.74882 6.79450 6.77170
#
# Compressibility (1/GPa) = 0.01862368
#
# Stress axis : x y z
#
# Youngs Moduli (GPa) = 74.26601 74.26601 64.85455
#
# Poissons Ratio (x) = 0.34323 0.23481
# Poissons Ratio (y) = 0.34323 0.23481
# Poissons Ratio (z) = 0.26889 0.26889
#
# Static dielectric constant tensor:
#      x y z
#    x 3.610850 0.000000 0.000000 
#    y 0.000000 3.610850 0.000000 
#    z 0.000000 0.000000 3.666850 
# 
# 
# High freq. dielectric constant tensor:
#      x y z
#    x 1.753770 0.000000 0.000000 
#    y 0.000000 1.753770 0.000000 
#    z 0.000000 0.000000 1.764590 
# 
# From -- ./inp_files/3202.got.cif
#   From: 2010.06.25/outbox.cif.g09.slc.cpg/sg190_2_cif.got.tgz:3202.got - 2010.06.28 13:08:06.
