data_PCOD8327446
_publ_section_title
;
Structure prediction by ZEFSAII (Michael W. Deem and Ramdas Pophale) SiO2 
 PCOD8327446
Probable space group: P -6 C 2
;
_chemical_formula_sum "Si O2"
_cell_formula_units_Z 44
_cell_length_a 12.485381
_cell_length_b 12.485381
_cell_length_c 15.309993
_cell_angle_alpha 90.000000
_cell_angle_beta 90.000000
_cell_angle_gamma 120.000000
_cell_volume 2066.851256
_symmetry_space_group_name_H-M "P -6 C 2"
_symmetry_group_IT_number 188
_symmetry_cell_setting 'hexagonal'
loop_
_space_group_symop_operation_xyz
x,y,z
-x+y,-x,1/2-z
-y,x-y,z
x,y,1/2-z
-x+y,-x,z
-y,x-y,1/2-z
-y,-x,-z
-x+y,y,-z
x,x-y,-z
-x+y,y,1/2+z
x,x-y,1/2+z
-y,-x,1/2+z
loop_
_atom_site_type_symbol
_atom_site_label
_atom_site_fract_x
_atom_site_fract_y
_atom_site_fract_z
Si Si1 0.249733 0.250338 0.501458
Si Si2 0.921750 0.360033 0.347382
Si Si3 0.666668 0.333335 0.353865
Si Si4 0.085110 0.649289 0.154699
Si Si5 0.333335 0.666668 0.602354
O O1 0.112570 0.225140 0.500000
O O2 0.321214 0.315740 0.589855
O O3 0.315281 0.330210 0.416300
O O4 0.243815 0.121908 0.500000
O O5 0.904014 0.300741 0.250000
O O6 0.788011 0.329309 0.387016
O O7 0.010416 0.503895 0.340115
O O8 0.666667 0.333334 0.250000
O O9 0.080539 0.704138 0.250000
O O10 0.228279 0.696531 0.133687
O O11 0.333334 0.666667 0.500000
#
# Coordination Sequence:
#
# PCOD8327446 Si02
#       5
#    12  12   4  12   4
#     4  12  26  43  62  86 120 165 217 271 328 392
#     4  10  21  39  65  96 129 163 204 259 326 397
#     4   9  18  36  64  98 131 164 208 267 334 407
#     4  11  23  40  64  96 132 170 211 261 323 393
#     4  12  22  38  67 102 139 176 218 266 328 405
#
# _framework density 21.288422000000001
#
# number of rings (size 3 to 8) (size 9 to 14) (size 15 to 20)
#    0.000    1.091    0.000    7.636    0.000    6.545 
#    0.000    2.727    0.000    3.273    0.000    0.000 
#    0.000    0.000    0.000    0.000    0.000    0.000 
#
# Total GULP energy -545517.938823 kJ/mol
# GULP energy per Si atom -12398.134973 kJ/mol
# Density = 2.123997 g / cm^3
# Si number density = 21.288422 Si / 1000 Ang^3
#
#
#
# Elastic Constant Matrix: (Units=GPa)
#
#
# Indices 1 2 3 4 5 6 
#
# 1 114.0218 32.3203 64.9886 0.0007 0.0000 -0.0001
# 2 32.3203 114.0203 64.9882 -0.0002 0.0004 -0.0002
# 3 64.9886 64.9882 178.3317 0.0001 -0.0002 -0.0001
# 4 0.0007 -0.0002 0.0001 31.5989 -0.0004 -0.0002
# 5 0.0000 0.0004 -0.0002 -0.0004 31.5984 0.0005
# 6 -0.0001 -0.0002 -0.0001 -0.0002 0.0005 40.8502
#
#
#
# Elastic Compliance Matrix: (Units=1/GPa)
#
#
# Indices 1 2 3 4 5 6 
#
# 1 0.011172 -0.001068 -0.003682 0.000000 0.000000 0.000000
# 2 -0.001068 0.011172 -0.003682 0.000000 0.000000 0.000000
# 3 -0.003682 -0.003682 0.008291 0.000000 0.000000 0.000000
# 4 0.000000 0.000000 0.000000 0.031647 0.000000 0.000000
# 5 0.000000 0.000000 0.000000 0.000000 0.031647 0.000000
# 6 0.000000 0.000000 0.000000 0.000000 0.000000 0.024480
#
#
# Mechanical properties :
#
#
# Convention : Reuss Voigt Hill
#
# Bulk Modulus (GPa) = 72.61975 81.21865 76.91920
# Shear Modulus (GPa) = 35.74943 37.08127 36.41535
#
# Velocity S-wave (km/s) = 4.10236 4.17808 4.14039
# Velocity P-wave (km/s) = 7.52499 7.84280 7.68554
#
# Compressibility (1/GPa) = 0.01377036
#
# Stress axis : x y z
#
# Youngs Moduli (GPa) = 89.51252 89.51132 120.61054
#
# Poissons Ratio (x) = 0.09561 0.44409
# Poissons Ratio (y) = 0.09561 0.44409
# Poissons Ratio (z) = 0.32958 0.32958
#
# Static dielectric constant tensor:
#      x y z
#    x 3.978300 0.000010 0.000000 
#    y 0.000010 3.978320 0.000000 
#    z 0.000000 0.000000 5.738300 
# 
# 
# High freq. dielectric constant tensor:
#      x y z
#    x 1.835500 0.000000 0.000000 
#    y 0.000000 1.835500 0.000000 
#    z 0.000000 0.000000 1.847330 
# 
# From -- ./inp_files/2933.got.cif
#   From: 2010.03.12/outbox.cif.g09.slc.cpg/sg188_2_cif.got.tgz:2933.got - 2010.04.01 12:01:06.
