data_PCOD8327158
_publ_section_title
;
Structure prediction by ZEFSAII (Michael W. Deem and Ramdas Pophale) SiO2 
 PCOD8327158
Probable space group: P -6 M 2
;
_chemical_formula_sum "Si O2"
_cell_formula_units_Z 60
_cell_length_a 12.810757
_cell_length_b 12.810757
_cell_length_c 25.750458
_cell_angle_alpha 90.000000
_cell_angle_beta 90.000000
_cell_angle_gamma 120.000000
_cell_volume 3659.865929
_symmetry_space_group_name_H-M "P -6 M 2"
_symmetry_group_IT_number 187
_symmetry_cell_setting 'hexagonal'
loop_
_space_group_symop_operation_xyz
x,y,z
-x+y,-x,-z
-y,x-y,z
x,y,-z
-x+y,-x,z
-y,x-y,-z
-y,-x,-z
-x+y,y,-z
x,x-y,-z
-x+y,y,z
x,x-y,z
-y,-x,z
loop_
_atom_site_type_symbol
_atom_site_label
_atom_site_fract_x
_atom_site_fract_y
_atom_site_fract_z
Si Si1 0.909020 0.578704 0.887976
Si Si2 0.244169 0.245881 0.405147
Si Si3 0.580296 0.911561 0.500000
Si Si4 0.333449 0.425199 0.684713
Si Si5 0.903258 0.571868 0.000000
Si Si6 0.092247 0.666848 0.197554
O O1 0.778406 0.556811 0.874865
O O2 0.900309 0.450155 0.887536
O O3 0.995641 0.663713 0.842842
O O4 0.955878 0.642978 0.945225
O O5 0.103808 0.207616 0.408203
O O6 0.319485 0.340170 0.450040
O O7 0.303252 0.310761 0.350853
O O8 0.254965 0.127483 0.411119
O O9 0.460564 0.921128 0.500000
O O10 0.542411 0.771206 0.500000
O O11 0.231717 0.463434 0.678255
O O12 0.460187 0.539814 0.668206
O O13 0.337373 0.384696 0.743595
O O14 0.759586 0.519172 0.000000
O O15 0.931092 0.465546 0.000000
O O16 0.117857 0.558929 0.187478
O O17 0.213251 0.786750 0.185446
#
# Coordination Sequence:
#
# PCOD8327158 Si02
#       6
#    12  12   6  12   6  12
#     4   9  16  26  42  63  86 111 141 180 224 268
#     4  10  20  33  50  71  96 125 154 185 222 267
#     4  10  20  34  54  78 100 122 152 194 236 266
#     4   9  17  30  49  70  90 115 150 192 232 266
#     4   8  13  22  37  58  82 108 140 178 220 262
#     4   9  17  29  45  65  89 118 150 183 221 266
#
# _framework density 16.394041999999999
#
# number of rings (size 3 to 8) (size 9 to 14) (size 15 to 20)
#    0.000    2.800    0.000    1.900    0.000    4.000 
#    0.000    3.500    0.000    6.000    0.000    1.400 
#    0.000    0.000    0.000    0.000    0.000    0.000 
#
# Total GULP energy -743577.966750 kJ/mol
# GULP energy per Si atom -12392.966113 kJ/mol
# Density = 1.635673 g / cm^3
# Si number density = 16.394042 Si / 1000 Ang^3
#
#
#
# Elastic Constant Matrix: (Units=GPa)
#
#
# Indices 1 2 3 4 5 6 
#
# 1 83.9907 42.2269 58.6345 0.0000 0.0001 0.0000
# 2 42.2269 83.9907 58.6345 0.0000 -0.0001 0.0000
# 3 58.6345 58.6345 133.1716 0.0000 0.0000 0.0000
# 4 0.0000 0.0000 0.0000 24.6728 0.0000 -0.0001
# 5 0.0001 -0.0001 0.0000 0.0000 24.6728 0.0000
# 6 0.0000 0.0000 0.0000 -0.0001 0.0000 20.8819
#
#
#
# Elastic Compliance Matrix: (Units=1/GPa)
#
#
# Indices 1 2 3 4 5 6 
#
# 1 0.018676 -0.005268 -0.005903 0.000000 0.000000 0.000000
# 2 -0.005268 0.018676 -0.005903 0.000000 0.000000 0.000000
# 3 -0.005903 -0.005903 0.012707 0.000000 0.000000 0.000000
# 4 0.000000 0.000000 0.000000 0.040531 0.000000 0.000000
# 5 0.000000 0.000000 0.000000 0.000000 0.040531 0.000000
# 6 0.000000 0.000000 0.000000 0.000000 0.000000 0.047888
#
#
# Mechanical properties :
#
#
# Convention : Reuss Voigt Hill
#
# Bulk Modulus (GPa) = 62.85545 68.90499 65.88022
# Shear Modulus (GPa) = 22.88734 23.48929 23.18832
#
# Velocity S-wave (km/s) = 3.74046 3.78933 3.76498
# Velocity P-wave (km/s) = 7.55503 7.82733 7.69239
#
# Compressibility (1/GPa) = 0.01590952
#
# Stress axis : x y z
#
# Youngs Moduli (GPa) = 53.54506 53.54506 78.69412
#
# Poissons Ratio (x) = 0.28209 0.46455
# Poissons Ratio (y) = 0.28209 0.46455
# Poissons Ratio (z) = 0.31609 0.31609
#
# Static dielectric constant tensor:
#      x y z
#    x 2.876370 0.000000 0.000000 
#    y 0.000000 2.876370 0.000000 
#    z 0.000000 0.000000 3.603520 
# 
# 
# High freq. dielectric constant tensor:
#      x y z
#    x 1.608070 0.000000 0.000000 
#    y 0.000000 1.608070 0.000000 
#    z 0.000000 0.000000 1.655070 
# 
# From -- ./inp_files/4169.got.cif
#   From: 2010.03.12/outbox.cif.g09.slc.cpg/sg187_3_cif.got.tgz:4169.got - 2010.04.01 11:58:23.
