data_PCOD8327265
_publ_section_title
;
Structure prediction by ZEFSAII (Michael W. Deem and Ramdas Pophale) SiO2 
 PCOD8327265
Probable space group: P -6 M 2
;
_chemical_formula_sum "Si O2"
_cell_formula_units_Z 60
_cell_length_a 21.209110
_cell_length_b 21.209110
_cell_length_c 9.086326
_cell_angle_alpha 90.000000
_cell_angle_beta 90.000000
_cell_angle_gamma 120.000000
_cell_volume 3539.678641
_symmetry_space_group_name_H-M "P -6 M 2"
_symmetry_group_IT_number 187
_symmetry_cell_setting 'hexagonal'
loop_
_space_group_symop_operation_xyz
x,y,z
-x+y,-x,-z
-y,x-y,z
x,y,-z
-x+y,-x,z
-y,x-y,-z
-y,-x,-z
-x+y,y,-z
x,x-y,-z
-x+y,y,z
x,x-y,z
-y,-x,z
loop_
_atom_site_type_symbol
_atom_site_label
_atom_site_fract_x
_atom_site_fract_y
_atom_site_fract_z
Si Si1 0.844261 0.548039 0.673384
Si Si2 0.539809 0.842512 0.828389
Si Si3 0.919761 0.220200 0.828950
Si Si4 0.455771 0.544230 0.325057
Si Si5 0.920432 0.460216 0.674898
Si Si6 0.215318 0.294774 0.825754
O O1 0.854561 0.556668 0.500000
O O2 0.758919 0.517837 0.715208
O O3 0.894164 0.626099 0.742434
O O4 0.874374 0.496868 0.734902
O O5 0.516914 0.758457 0.796476
O O6 0.493365 0.866978 0.731604
O O7 0.622966 0.895285 0.779563
O O8 0.528174 0.852179 0.000000
O O9 0.865459 0.134542 0.802252
O O10 0.998677 0.239925 0.766562
O O11 0.923560 0.240656 0.000000
O O12 0.455416 0.544585 0.500000
O O13 0.497906 0.502095 0.267116
O O14 0.921384 0.460692 0.500000
O O15 0.135672 0.271344 0.758948
O O16 0.209234 0.291058 0.000000
#
# Coordination Sequence:
#
# PCOD8327265 Si02
#       6
#    12  12  12   6   6  12
#     4   9  17  30  46  63  87 119 151 183 220 262
#     4   9  18  33  50  66  85 113 152 191 221 257
#     4   9  16  26  43  67  91 113 141 179 219 259
#     4  11  21  31  47  69  95 121 143 181 235 283
#     4   9  18  31  45  67  95 119 149 189 231 267
#     4   8  14  26  45  66  87 113 146 182 216 252
#
# _framework density 16.950690000000002
#
# number of rings (size 3 to 8) (size 9 to 14) (size 15 to 20)
#    0.000    3.000    0.000    2.700    0.000    0.400 
#    1.200    1.500    0.000    2.200    0.000    2.800 
#    0.000    0.000    0.000    0.000    0.000    0.200 
#
# Total GULP energy -743560.469603 kJ/mol
# GULP energy per Si atom -12392.674493 kJ/mol
# Density = 1.691211 g / cm^3
# Si number density = 16.950690 Si / 1000 Ang^3
#
#
#
# Elastic Constant Matrix: (Units=GPa)
#
#
# Indices 1 2 3 4 5 6 
#
# 1 138.9332 94.0761 28.6946 0.0000 -0.0001 0.0000
# 2 94.0761 138.9332 28.6946 0.0000 0.0001 0.0000
# 3 28.6946 28.6946 22.3413 0.0000 0.0000 0.0000
# 4 0.0000 0.0000 0.0000 16.1650 0.0000 0.0001
# 5 -0.0001 0.0001 0.0000 0.0000 16.1650 0.0000
# 6 0.0000 0.0000 0.0000 0.0001 0.0000 22.4285
#
#
#
# Elastic Compliance Matrix: (Units=1/GPa)
#
#
# Indices 1 2 3 4 5 6 
#
# 1 0.014285 -0.008008 -0.008063 0.000000 0.000000 0.000000
# 2 -0.008008 0.014285 -0.008063 0.000000 0.000000 0.000000
# 3 -0.008063 -0.008063 0.065471 0.000000 0.000000 0.000000
# 4 0.000000 0.000000 0.000000 0.061862 0.000000 0.000000
# 5 0.000000 0.000000 0.000000 0.000000 0.061862 0.000000
# 6 0.000000 0.000000 0.000000 0.000000 0.000000 0.044586
#
#
# Mechanical properties :
#
#
# Convention : Reuss Voigt Hill
#
# Bulk Modulus (GPa) = 21.84579 67.01537 44.43058
# Shear Modulus (GPa) = 15.34325 20.86785 18.10555
#
# Velocity S-wave (km/s) = 3.01187 3.51250 3.27177
# Velocity P-wave (km/s) = 5.00109 7.48809 6.36720
#
# Compressibility (1/GPa) = 0.04577541
#
# Stress axis : x y z
#
# Youngs Moduli (GPa) = 70.00232 70.00232 15.27397
#
# Poissons Ratio (x) = 0.56056 0.12315
# Poissons Ratio (y) = 0.56056 0.12315
# Poissons Ratio (z) = 0.56440 0.56440
#
# Static dielectric constant tensor:
#      x y z
#    x 3.626870 0.000000 0.000000 
#    y 0.000000 3.626870 0.000000 
#    z 0.000000 0.000000 2.871500 
# 
# 
# High freq. dielectric constant tensor:
#      x y z
#    x 1.655070 0.000000 0.000000 
#    y 0.000000 1.655070 0.000000 
#    z 0.000000 0.000000 1.622270 
# 
# From -- ./inp_files/668.got.cif
#   From: 2010.03.12/outbox.cif.g09.slc.cpg/sg187_1_cif.got.tgz:668.got - 2010.04.01 11:58:23.
