data_PCOD8327599
_publ_section_title
;
Structure prediction by ZEFSAII (Michael W. Deem and Ramdas Pophale) SiO2 
 PCOD8327599
Probable space group: P -6 2 M
;
_chemical_formula_sum "Si O2"
_cell_formula_units_Z 72
_cell_length_a 23.560439
_cell_length_b 23.560439
_cell_length_c 8.960920
_cell_angle_alpha 90.000000
_cell_angle_beta 90.000000
_cell_angle_gamma 120.000000
_cell_volume 4307.745015
_symmetry_space_group_name_H-M "P -6 2 M"
_symmetry_group_IT_number 189
_symmetry_cell_setting 'hexagonal'
loop_
_space_group_symop_operation_xyz
x,y,z
-x+y,-x,-z
-y,x-y,z
x,y,-z
-x+y,-x,z
-y,x-y,-z
x-y,-y,-z
-x,-x+y,-z
y,x,-z
y,x,z
x-y,-y,z
-x,-x+y,z
loop_
_atom_site_type_symbol
_atom_site_label
_atom_site_fract_x
_atom_site_fract_y
_atom_site_fract_z
Si Si1 0.926732 0.400392 0.170652
Si Si2 0.801514 0.406076 0.825125
Si Si3 0.532265 0.263402 0.674039
Si Si4 0.075159 0.149686 0.674575
Si Si5 0.599228 0.733058 0.672443
Si Si6 0.075060 0.265315 0.824247
O O1 0.876305 0.425427 0.210019
O O2 0.915641 0.340272 0.273176
O O3 0.000000 0.460360 0.197952
O O4 0.916504 0.375499 0.000000
O O5 0.752235 0.333876 0.763902
O O6 0.789939 0.458879 0.737698
O O7 0.788833 0.408251 0.000000
O O8 0.550306 0.269473 0.500000
O O9 0.457295 0.208301 0.702339
O O10 0.083840 0.165132 0.500000
O O11 0.118926 0.118926 0.729050
O O12 0.099579 0.217538 0.760850
O O13 0.000000 0.098079 0.714135
O O14 0.617426 0.737268 0.500000
O O15 0.662809 0.784847 0.760877
O O16 0.000000 0.239448 0.774717
O O17 0.082034 0.267639 0.000000
#
# Coordination Sequence:
#
# PCOD8327599 Si02
#       6
#    12  12  12  12  12  12
#     4   9  18  32  49  70  96 123 150 185 230 277
#     4  10  19  31  49  71  94 122 156 189 226 276
#     4  10  20  33  48  68  96 125 154 191 234 275
#     4   9  17  30  49  72  97 125 157 193 233 278
#     4  10  20  32  48  70  94 123 158 194 232 275
#     4  10  20  32  47  69  97 127 157 192 235 280
#
# _framework density 16.714082000000001
#
# number of rings (size 3 to 8) (size 9 to 14) (size 15 to 20)
#    0.000    2.333    0.000    3.000    0.000    7.000 
#    0.000    0.000    0.000    2.000    0.000    4.667 
#    0.000    0.000    0.000    0.000    0.000    0.000 
#
# Total GULP energy -893016.360648 kJ/mol
# GULP energy per Si atom -12403.005009 kJ/mol
# Density = 1.667604 g / cm^3
# Si number density = 16.714082 Si / 1000 Ang^3
#
#
#
# Elastic Constant Matrix: (Units=GPa)
#
#
# Indices 1 2 3 4 5 6 
#
# 1 105.7831 55.5362 41.8512 0.0000 0.0000 0.0000
# 2 55.5362 105.7831 41.8512 0.0000 0.0000 0.0000
# 3 41.8512 41.8512 63.7314 0.0000 0.0000 0.0000
# 4 0.0000 0.0000 0.0000 26.6292 0.0000 0.0000
# 5 0.0000 0.0000 0.0000 0.0000 26.6292 0.0000
# 6 0.0000 0.0000 0.0000 0.0000 0.0000 25.1235
#
#
#
# Elastic Compliance Matrix: (Units=1/GPa)
#
#
# Indices 1 2 3 4 5 6 
#
# 1 0.014652 -0.005250 -0.006175 0.000000 0.000000 0.000000
# 2 -0.005250 0.014652 -0.006175 0.000000 0.000000 0.000000
# 3 -0.006175 -0.006175 0.023800 0.000000 0.000000 0.000000
# 4 0.000000 0.000000 0.000000 0.037553 0.000000 0.000000
# 5 0.000000 0.000000 0.000000 0.000000 0.037553 0.000000
# 6 0.000000 0.000000 0.000000 0.000000 0.000000 0.039803
#
#
# Mechanical properties :
#
#
# Convention : Reuss Voigt Hill
#
# Bulk Modulus (GPa) = 55.84291 61.53054 58.68673
# Shear Modulus (GPa) = 23.90287 24.74696 24.32491
#
# Velocity S-wave (km/s) = 3.78577 3.85204 3.81905
# Velocity P-wave (km/s) = 7.25208 7.52846 7.39156
#
# Compressibility (1/GPa) = 0.01790737
#
# Stress axis : x y z
#
# Youngs Moduli (GPa) = 68.24928 68.24928 42.01640
#
# Poissons Ratio (x) = 0.35828 0.25943
# Poissons Ratio (y) = 0.35828 0.25943
# Poissons Ratio (z) = 0.42141 0.42141
#
# Static dielectric constant tensor:
#      x y z
#    x 3.093650 0.000000 0.000000 
#    y 0.000000 3.093650 0.000000 
#    z 0.000000 0.000000 3.224850 
# 
# 
# High freq. dielectric constant tensor:
#      x y z
#    x 1.632610 0.000000 0.000000 
#    y 0.000000 1.632610 0.000000 
#    z 0.000000 0.000000 1.656630 
# 
# From -- ./inp_files/1233.got.cif
#   From: 2010.03.12/outbox.cif.g09.slc.cpg/sg189_1_cif.got.tgz:1233.got - 2010.04.01 12:03:36.
