data_PCOD8327234
_publ_section_title
;
Structure prediction by ZEFSAII (Michael W. Deem and Ramdas Pophale) SiO2 
 PCOD8327234
Probable space group: P -6 M 2
;
_chemical_formula_sum "Si O2"
_cell_formula_units_Z 84
_cell_length_a 18.197322
_cell_length_b 18.197322
_cell_length_c 14.771586
_cell_angle_alpha 90.000000
_cell_angle_beta 90.000000
_cell_angle_gamma 120.000000
_cell_volume 4236.163549
_symmetry_space_group_name_H-M "P -6 M 2"
_symmetry_group_IT_number 187
_symmetry_cell_setting 'hexagonal'
loop_
_space_group_symop_operation_xyz
x,y,z
-x+y,-x,-z
-y,x-y,z
x,y,-z
-x+y,-x,z
-y,x-y,-z
-y,-x,-z
-x+y,y,-z
x,x-y,-z
-x+y,y,z
x,x-y,z
-y,-x,z
loop_
_atom_site_type_symbol
_atom_site_label
_atom_site_fract_x
_atom_site_fract_y
_atom_site_fract_z
Si Si1 0.333790 0.826045 0.894163
Si Si2 0.835869 0.834762 0.604950
Si Si3 0.834077 0.500833 0.142122
Si Si4 0.248707 0.324458 0.277638
Si Si5 0.666704 0.499064 0.643516
Si Si6 0.657885 0.992647 0.898493
Si Si7 0.021776 0.596530 0.397647
O O1 0.404295 0.808589 0.849259
O O2 0.240926 0.759075 0.853028
O O3 0.360958 0.922556 0.874058
O O4 0.331710 0.811002 0.000000
O O5 0.819018 0.813146 0.500000
O O6 0.909962 0.819923 0.642186
O O7 0.750721 0.771196 0.654687
O O8 0.863711 0.931856 0.624436
O O9 0.749019 0.498037 0.106191
O O10 0.834703 0.417352 0.106368
O O11 0.838030 0.505104 0.249103
O O12 0.914606 0.583986 0.102635
O O13 0.171821 0.343642 0.267561
O O14 0.266978 0.292485 0.181224
O O15 0.330240 0.405448 0.323349
O O16 0.757791 0.515581 0.607800
O O17 0.594521 0.405480 0.611843
O O18 0.647289 0.569715 0.604118
O O19 0.683345 0.977361 0.000000
O O20 0.055646 0.627571 0.500000
O O21 0.031413 0.515707 0.370854
#
# Coordination Sequence:
#
# PCOD8327234 Si02
#       7
#    12  12  12  12  12  12  12
#     4   9  17  30  50  76 104 134 172 223 284 345
#     4   9  18  34  59  91 122 147 173 213 272 341
#     4  10  20  36  58  84 115 154 200 246 286 329
#     4  11  23  39  60  84 112 148 190 237 288 346
#     4   9  17  31  53  82 117 157 199 241 284 335
#     4  11  23  38  56  79 111 151 195 243 294 345
#     4  10  21  37  57  83 117 156 195 236 288 350
#
# _framework density 19.829263000000001
#
# number of rings (size 3 to 8) (size 9 to 14) (size 15 to 20)
#    0.000    2.143    1.429    1.857    0.000    7.143 
#    0.000    0.000    0.000    2.000    0.000    0.000 
#    0.000    1.143    0.000    0.000    0.000    0.000 
#
# Total GULP energy -1041104.228657 kJ/mol
# GULP energy per Si atom -12394.097960 kJ/mol
# Density = 1.978413 g / cm^3
# Si number density = 19.829263 Si / 1000 Ang^3
#
#
#
# Elastic Constant Matrix: (Units=GPa)
#
#
# Indices 1 2 3 4 5 6 
#
# 1 99.9608 45.0018 28.0154 0.0000 -0.0005 0.0000
# 2 45.0018 99.9608 28.0154 0.0000 0.0005 0.0000
# 3 28.0154 28.0154 76.3185 0.0000 0.0000 0.0000
# 4 0.0000 0.0000 0.0000 -12.7675 0.0000 0.0005
# 5 -0.0005 0.0005 0.0000 0.0000 -12.7675 0.0000
# 6 0.0000 0.0000 0.0000 0.0005 0.0000 27.4795
#
#
#
# Elastic Compliance Matrix: (Units=1/GPa)
#
#
# Indices 1 2 3 4 5 6 
#
# 1 0.013117 -0.005078 -0.002951 0.000000 -0.000001 0.000000
# 2 -0.005078 0.013117 -0.002951 0.000000 0.000001 0.000000
# 3 -0.002951 -0.002951 0.015269 0.000000 0.000000 0.000000
# 4 0.000000 0.000000 0.000000 -0.078324 0.000000 0.000001
# 5 -0.000001 0.000001 0.000000 0.000000 -0.078324 0.000000
# 6 0.000000 0.000000 0.000000 0.000001 0.000000 0.036391
#
#
# Mechanical properties :
#
#
# Convention : Reuss Voigt Hill
#
# Bulk Modulus (GPa) = 51.16797 53.14503 52.15650
# Shear Modulus (GPa) = -99.44577 12.06941 -43.68818
#
# Velocity S-wave (km/s) = -7.08942 2.46979 -4.69894
# Velocity P-wave (km/s) = 6.41505 5.91546 1.75503
#
# Compressibility (1/GPa) = 0.01954347
#
# Stress axis : x y z
#
# Youngs Moduli (GPa) = 76.23599 76.23599 65.49004
#
# Poissons Ratio (x) = 0.38714 0.19326
# Poissons Ratio (y) = 0.38714 0.19326
# Poissons Ratio (z) = 0.22497 0.22497
#
# Static dielectric constant tensor:
#      x y z
#    x 3.691260 0.000000 0.000000 
#    y 0.000000 3.691260 0.000000 
#    z 0.000000 0.000000 3.692090 
# 
# 
# High freq. dielectric constant tensor:
#      x y z
#    x 1.765120 0.000000 0.000000 
#    y 0.000000 1.765120 0.000000 
#    z 0.000000 0.000000 1.769660 
# 
# From -- ./inp_files/2602.got.cif
#   From: 2010.03.12/outbox.cif.g09.slc.cpg/sg187_2_cif.got.tgz:2602.got - 2010.04.01 11:58:23.
