data_PCOD8327849
_publ_section_title
;
Structure prediction by ZEFSAII (Michael W. Deem and Ramdas Pophale) SiO2 
 PCOD8327849
Probable space group: P -6 2 M
;
_chemical_formula_sum "Si O2"
_cell_formula_units_Z 60
_cell_length_a 17.726511
_cell_length_b 17.726511
_cell_length_c 12.108542
_cell_angle_alpha 90.000000
_cell_angle_beta 90.000000
_cell_angle_gamma 120.000000
_cell_volume 3295.103142
_symmetry_space_group_name_H-M "P -6 2 M"
_symmetry_group_IT_number 189
_symmetry_cell_setting 'hexagonal'
loop_
_space_group_symop_operation_xyz
x,y,z
-x+y,-x,-z
-y,x-y,z
x,y,-z
-x+y,-x,z
-y,x-y,-z
x-y,-y,-z
-x,-x+y,-z
y,x,-z
y,x,z
x-y,-y,z
-x,-x+y,z
loop_
_atom_site_type_symbol
_atom_site_label
_atom_site_fract_x
_atom_site_fract_y
_atom_site_fract_z
Si Si1 0.901423 0.579116 0.500000
Si Si2 0.607991 0.607991 0.121418
Si Si3 0.844101 0.371170 0.735069
Si Si4 0.286646 0.467569 0.268251
Si Si5 0.784685 0.784685 0.120873
Si Si6 0.707531 0.898902 0.869114
Si Si7 0.498270 0.094717 0.500000
O O1 0.846585 0.575053 0.609166
O O2 0.913168 0.496574 0.500000
O O3 0.000000 0.664382 0.500000
O O4 0.627623 0.542597 0.185821
O O5 0.696178 0.696178 0.108398
O O6 0.569965 0.569965 0.000000
O O7 0.852236 0.464491 0.753134
O O8 0.753686 0.283585 0.757771
O O9 0.856676 0.352261 0.608661
O O10 0.247904 0.387930 0.183062
O O11 0.761802 0.853561 0.179816
O O12 0.823443 0.823443 0.000000
O O13 0.762950 0.000000 0.839277
O O14 0.693839 0.881819 0.000000
O O15 0.413182 0.000000 0.500000
#
# Coordination Sequence:
#
# PCOD8327849 Si02
#       7
#     6   6  12  12   6  12   6
#     4   9  19  34  54  79 109 143 185 235 285 327
#     4  11  22  37  57  79 106 149 193 232 281 335
#     4  11  22  36  55  81 112 150 190 233 277 335
#     4  11  22  36  56  81 115 152 188 233 279 331
#     4   9  18  38  59  79 110 144 180 228 289 345
#     4  10  21  37  59  85 111 143 186 235 289 349
#     4   9  17  32  54  78 104 137 185 232 272 320
#
# _framework density 18.208838
#
# number of rings (size 3 to 8) (size 9 to 14) (size 15 to 20)
#    0.000    1.800    3.000    1.600    2.800    0.800 
#    0.600    2.000    0.000    2.400    0.000    0.000 
#    0.000    0.000    0.000    0.000    0.000    0.000 
#
# Total GULP energy -743341.276782 kJ/mol
# GULP energy per Si atom -12389.021280 kJ/mol
# Density = 1.816739 g / cm^3
# Si number density = 18.208838 Si / 1000 Ang^3
#
#
#
# Elastic Constant Matrix: (Units=GPa)
#
#
# Indices 1 2 3 4 5 6 
#
# 1 102.0068 39.0579 30.6957 0.0000 0.0000 0.0000
# 2 39.0579 102.0068 30.6957 0.0000 0.0000 0.0000
# 3 30.6957 30.6957 81.1178 0.0000 0.0000 0.0000
# 4 0.0000 0.0000 0.0000 22.7439 0.0000 0.0000
# 5 0.0000 0.0000 0.0000 0.0000 22.7439 0.0000
# 6 0.0000 0.0000 0.0000 0.0000 0.0000 31.4744
#
#
#
# Elastic Compliance Matrix: (Units=1/GPa)
#
#
# Indices 1 2 3 4 5 6 
#
# 1 0.012186 -0.003700 -0.003211 0.000000 0.000000 0.000000
# 2 -0.003700 0.012186 -0.003211 0.000000 0.000000 0.000000
# 3 -0.003211 -0.003211 0.014758 0.000000 0.000000 0.000000
# 4 0.000000 0.000000 0.000000 0.043968 0.000000 0.000000
# 5 0.000000 0.000000 0.000000 0.000000 0.043968 0.000000
# 6 0.000000 0.000000 0.000000 0.000000 0.000000 0.031772
#
#
# Mechanical properties :
#
#
# Convention : Reuss Voigt Hill
#
# Bulk Modulus (GPa) = 52.95003 54.00333 53.47668
# Shear Modulus (GPa) = 26.97186 27.70457 27.33821
#
# Velocity S-wave (km/s) = 3.85288 3.90486 3.87896
# Velocity P-wave (km/s) = 6.99538 7.07479 7.03520
#
# Compressibility (1/GPa) = 0.01888573
#
# Stress axis : x y z
#
# Youngs Moduli (GPa) = 82.05988 82.05988 67.75903
#
# Poissons Ratio (x) = 0.30360 0.21760
# Poissons Ratio (y) = 0.30360 0.21760
# Poissons Ratio (z) = 0.26353 0.26353
#
# Static dielectric constant tensor:
#      x y z
#    x 3.387150 0.000000 0.000000 
#    y 0.000000 3.387150 0.000000 
#    z 0.000000 0.000000 3.508010 
# 
# 
# High freq. dielectric constant tensor:
#      x y z
#    x 1.704910 0.000000 0.000000 
#    y 0.000000 1.704910 0.000000 
#    z 0.000000 0.000000 1.695170 
# 
# From -- ./inp_files/1988.got.cif
#   From: 2010.03.12/outbox.cif.g09.slc.cpg/sg189_1_cif.got.tgz:1988.got - 2010.04.01 12:03:36.
