data_PCOD8327092
_publ_section_title
;
Structure prediction by ZEFSAII (Michael W. Deem and Ramdas Pophale) SiO2 
 PCOD8327092
Probable space group: P -6 M 2
;
_chemical_formula_sum "Si O2"
_cell_formula_units_Z 54
_cell_length_a 12.729659
_cell_length_b 12.729659
_cell_length_c 23.087544
_cell_angle_alpha 90.000000
_cell_angle_beta 90.000000
_cell_angle_gamma 120.000000
_cell_volume 3239.976855
_symmetry_space_group_name_H-M "P -6 M 2"
_symmetry_group_IT_number 187
_symmetry_cell_setting 'hexagonal'
loop_
_space_group_symop_operation_xyz
x,y,z
-x+y,-x,-z
-y,x-y,z
x,y,-z
-x+y,-x,z
-y,x-y,-z
-y,-x,-z
-x+y,y,-z
x,x-y,-z
-x+y,y,z
x,x-y,z
-y,-x,z
loop_
_atom_site_type_symbol
_atom_site_label
_atom_site_fract_x
_atom_site_fract_y
_atom_site_fract_z
Si Si1 0.577907 0.913711 0.374413
Si Si2 0.001295 0.755364 0.727802
Si Si3 0.908049 0.574723 0.065992
Si Si4 0.088664 0.421506 0.833900
Si Si5 0.568888 0.903880 0.500000
O O1 0.454980 0.909960 0.354515
O O2 0.551737 0.775869 0.374240
O O3 0.619631 0.975303 0.438963
O O4 0.684798 0.996698 0.330715
O O5 0.872708 0.745416 0.733452
O O6 0.018553 0.687740 0.781940
O O7 0.104215 0.895785 0.726379
O O8 0.794332 0.588664 0.084065
O O9 0.869233 0.434617 0.074314
O O10 0.021059 0.660757 0.106327
O O11 0.947819 0.616703 0.000000
O O12 0.225611 0.451222 0.839423
O O13 0.090166 0.545083 0.820747
O O14 0.423381 0.846761 0.500000
O O15 0.604544 0.802272 0.500000
#
# Coordination Sequence:
#
# PCOD8327092 Si02
#       5
#    12  12  12  12   6
#     4   9  16  27  46  71  97 122 149 185 229 275
#     4  10  20  33  48  65  88 120 157 194 230 271
#     4   9  17  30  49  72  97 126 160 195 227 260
#     4  10  20  33  50  72  97 123 151 187 233 283
#     4   8  13  22  39  66  96 122 148 180 222 270
#
# _framework density 16.666785999999998
#
# number of rings (size 3 to 8) (size 9 to 14) (size 15 to 20)
#    0.000    2.667    0.000    2.333    0.000    3.111 
#    0.000    2.778    0.000    6.667    0.000    1.556 
#    0.000    0.000    0.000    0.000    0.000    0.000 
#
# Total GULP energy -669322.934517 kJ/mol
# GULP energy per Si atom -12394.869158 kJ/mol
# Density = 1.662885 g / cm^3
# Si number density = 16.666786 Si / 1000 Ang^3
#
#
#
# Elastic Constant Matrix: (Units=GPa)
#
#
# Indices 1 2 3 4 5 6 
#
# 1 94.8760 57.5300 60.7326 0.0000 -0.0001 0.0000
# 2 57.5300 94.8760 60.7326 0.0000 0.0001 0.0000
# 3 60.7326 60.7326 125.0596 0.0000 0.0000 0.0000
# 4 0.0000 0.0000 0.0000 22.1333 0.0000 0.0001
# 5 -0.0001 0.0001 0.0000 0.0000 22.1333 0.0000
# 6 0.0000 0.0000 0.0000 0.0001 0.0000 18.6730
#
#
#
# Elastic Compliance Matrix: (Units=1/GPa)
#
#
# Indices 1 2 3 4 5 6 
#
# 1 0.018741 -0.008036 -0.005198 0.000000 0.000000 0.000000
# 2 -0.008036 0.018741 -0.005198 0.000000 0.000000 0.000000
# 3 -0.005198 -0.005198 0.013045 0.000000 0.000000 0.000000
# 4 0.000000 0.000000 0.000000 0.045181 0.000000 0.000000
# 5 0.000000 0.000000 0.000000 0.000000 0.045181 0.000000
# 6 0.000000 0.000000 0.000000 0.000000 0.000000 0.053553
#
#
# Mechanical properties :
#
#
# Convention : Reuss Voigt Hill
#
# Bulk Modulus (GPa) = 73.20375 74.75579 73.97977
# Shear Modulus (GPa) = 21.19897 21.64233 21.42065
#
# Velocity S-wave (km/s) = 3.57028 3.60742 3.58890
# Velocity P-wave (km/s) = 7.81109 7.89315 7.85223
#
# Compressibility (1/GPa) = 0.01366050
#
# Stress axis : x y z
#
# Youngs Moduli (GPa) = 53.36024 53.36024 76.65659
#
# Poissons Ratio (x) = 0.42881 0.39849
# Poissons Ratio (y) = 0.42881 0.39849
# Poissons Ratio (z) = 0.27739 0.27739
#
# Static dielectric constant tensor:
#      x y z
#    x 2.928240 0.000000 0.000000 
#    y 0.000000 2.928240 0.000000 
#    z 0.000000 0.000000 3.561380 
# 
# 
# High freq. dielectric constant tensor:
#      x y z
#    x 1.623720 0.000000 0.000000 
#    y 0.000000 1.623720 0.000000 
#    z 0.000000 0.000000 1.663940 
# 
# From -- ./inp_files/3865.got.cif
#   From: 2010.03.12/outbox.cif.g09.slc.cpg/sg187_2_cif.got.tgz:3865.got - 2010.04.01 11:58:23.
