data_PCOD8327519
_publ_section_title
;
Structure prediction by ZEFSAII (Michael W. Deem and Ramdas Pophale) SiO2 
 PCOD8327519
Probable space group: P -6 2 M
;
_chemical_formula_sum "Si O2"
_cell_formula_units_Z 60
_cell_length_a 20.326960
_cell_length_b 20.326960
_cell_length_c 9.166069
_cell_angle_alpha 90.000000
_cell_angle_beta 90.000000
_cell_angle_gamma 120.000000
_cell_volume 3279.885018
_symmetry_space_group_name_H-M "P -6 2 M"
_symmetry_group_IT_number 189
_symmetry_cell_setting 'hexagonal'
loop_
_space_group_symop_operation_xyz
x,y,z
-x+y,-x,-z
-y,x-y,z
x,y,-z
-x+y,-x,z
-y,x-y,-z
x-y,-y,-z
-x,-x+y,-z
y,x,-z
y,x,z
x-y,-y,z
-x,-x+y,z
loop_
_atom_site_type_symbol
_atom_site_label
_atom_site_fract_x
_atom_site_fract_y
_atom_site_fract_z
Si Si1 0.173913 0.086810 0.670435
Si Si2 0.175840 0.851633 0.172513
Si Si3 0.324259 0.000000 0.172781
Si Si4 0.469850 0.000000 0.826516
Si Si5 0.243714 0.750048 0.173706
Si Si6 0.420044 0.584247 0.826179
O O1 0.191125 0.090792 0.500000
O O2 0.112577 0.112577 0.704478
O O3 0.252486 0.146652 0.750139
O O4 0.138916 0.000000 0.728026
O O5 0.249800 0.926662 0.228379
O O6 0.188388 0.782210 0.223016
O O7 0.163419 0.849955 0.000000
O O8 0.396833 0.000000 0.240489
O O9 0.329421 0.000000 0.000000
O O10 0.544267 0.076793 0.773037
O O11 0.465900 0.000000 0.000000
O O12 0.210085 0.665194 0.236582
O O13 0.329739 0.800567 0.233958
O O14 0.246931 0.750999 0.000000
O O15 0.417956 0.586721 0.000000
#
# Coordination Sequence:
#
# PCOD8327519 Si02
#       6
#    12  12   6   6  12  12
#     4  10  21  37  55  73  94 123 159 197 238 288
#     4  10  18  30  49  73  99 125 157 199 243 286
#     4   9  14  24  43  65  91 120 149 188 240 289
#     4   9  14  22  36  53  81 122 157 182 224 283
#     4   9  16  25  39  62  94 128 161 197 237 280
#     4   9  15  23  35  54  84 122 157 189 228 274
#
# _framework density 18.293323000000001
#
# number of rings (size 3 to 8) (size 9 to 14) (size 15 to 20)
#    0.000    2.600    3.000    0.600    0.000    2.800 
#    1.800    0.000    0.000    1.200    0.000    1.400 
#    0.000    3.200    0.000    0.000    0.000    0.000 
#
# Total GULP energy -743575.707191 kJ/mol
# GULP energy per Si atom -12392.928453 kJ/mol
# Density = 1.825169 g / cm^3
# Si number density = 18.293323 Si / 1000 Ang^3
#
#
#
# Elastic Constant Matrix: (Units=GPa)
#
#
# Indices 1 2 3 4 5 6 
#
# 1 128.1876 56.7958 19.8464 0.0000 0.0000 0.0000
# 2 56.7958 128.1876 19.8464 0.0000 0.0000 0.0000
# 3 19.8464 19.8464 15.4139 0.0000 0.0000 0.0000
# 4 0.0000 0.0000 0.0000 9.8918 0.0000 0.0000
# 5 0.0000 0.0000 0.0000 0.0000 9.8918 0.0000
# 6 0.0000 0.0000 0.0000 0.0000 0.0000 35.6959
#
#
#
# Elastic Compliance Matrix: (Units=1/GPa)
#
#
# Indices 1 2 3 4 5 6 
#
# 1 0.010738 -0.003269 -0.009618 0.000000 0.000000 0.000000
# 2 -0.003269 0.010738 -0.009618 0.000000 0.000000 0.000000
# 3 -0.009618 -0.009618 0.089643 0.000000 0.000000 0.000000
# 4 0.000000 0.000000 0.000000 0.101094 0.000000 0.000000
# 5 0.000000 0.000000 0.000000 0.000000 0.101094 0.000000
# 6 0.000000 0.000000 0.000000 0.000000 0.000000 0.028014
#
#
# Mechanical properties :
#
#
# Convention : Reuss Voigt Hill
#
# Bulk Modulus (GPa) = 15.12591 51.64069 33.38330
# Shear Modulus (GPa) = 12.24392 22.78262 17.51327
#
# Velocity S-wave (km/s) = 2.58991 3.53286 3.09748
# Velocity P-wave (km/s) = 4.15090 6.70313 5.57503
#
# Compressibility (1/GPa) = 0.06611173
#
# Stress axis : x y z
#
# Youngs Moduli (GPa) = 93.12385 93.12385 11.15540
#
# Poissons Ratio (x) = 0.30440 0.10729
# Poissons Ratio (y) = 0.30440 0.10729
# Poissons Ratio (z) = 0.89562 0.89562
#
# Static dielectric constant tensor:
#      x y z
#    x 3.572140 0.000000 0.000000 
#    y 0.000000 3.572140 0.000000 
#    z 0.000000 0.000000 2.650700 
# 
# 
# High freq. dielectric constant tensor:
#      x y z
#    x 1.716710 0.000000 0.000000 
#    y 0.000000 1.716710 0.000000 
#    z 0.000000 0.000000 1.627000 
# 
# From -- ./inp_files/936.got.cif
#   From: 2010.03.12/outbox.cif.g09.slc.cpg/sg189_1_cif.got.tgz:936.got - 2010.04.01 12:03:36.
