data_PCOD8327573
_publ_section_title
;
Structure prediction by ZEFSAII (Michael W. Deem and Ramdas Pophale) SiO2 
 PCOD8327573
Probable space group: P -6 2 M
;
_chemical_formula_sum "Si O2"
_cell_formula_units_Z 72
_cell_length_a 23.691604
_cell_length_b 23.691604
_cell_length_c 9.289220
_cell_angle_alpha 90.000000
_cell_angle_beta 90.000000
_cell_angle_gamma 120.000000
_cell_volume 4515.426839
_symmetry_space_group_name_H-M "P -6 2 M"
_symmetry_group_IT_number 189
_symmetry_cell_setting 'hexagonal'
loop_
_space_group_symop_operation_xyz
x,y,z
-x+y,-x,-z
-y,x-y,z
x,y,-z
-x+y,-x,z
-y,x-y,-z
x-y,-y,-z
-x,-x+y,-z
y,x,-z
y,x,z
x-y,-y,z
-x,-x+y,z
loop_
_atom_site_type_symbol
_atom_site_label
_atom_site_fract_x
_atom_site_fract_y
_atom_site_fract_z
Si Si1 0.592837 0.408648 0.167487
Si Si2 0.923480 0.727197 0.166094
Si Si3 0.741725 0.483088 0.831850
Si Si4 0.258012 0.405280 0.669230
Si Si5 0.144475 0.072070 0.170838
Si Si6 0.408250 0.482299 0.331660
O O1 0.667204 0.450949 0.218020
O O2 0.568210 0.333589 0.204459
O O3 0.550738 0.434131 0.251486
O O4 0.585516 0.417995 0.000000
O O5 0.882888 0.666559 0.268678
O O6 0.904040 0.781060 0.213421
O O7 0.000000 0.755558 0.190052
O O8 0.905048 0.706504 0.000000
O O9 0.782730 0.549029 0.741749
O O10 0.750226 0.500677 0.000000
O O11 0.246217 0.403400 0.500000
O O12 0.333408 0.432326 0.708231
O O13 0.096680 0.096680 0.233252
O O14 0.122184 0.000000 0.232905
O O15 0.138966 0.070086 0.000000
O O16 0.416496 0.496723 0.500000
O O17 0.450624 0.450624 0.277983
#
# Coordination Sequence:
#
# PCOD8327573 Si02
#       6
#    12  12  12  12  12  12
#     4   9  17  29  47  69  91 116 144 175 214 261
#     4   9  17  28  43  65  91 117 146 182 223 263
#     4   9  17  30  47  68  93 117 142 176 218 261
#     4  10  19  30  45  65  89 119 152 182 216 260
#     4   8  13  22  39  64  91 116 142 175 217 263
#     4   9  18  31  45  63  89 118 146 179 218 257
#
# _framework density 15.945335999999999
#
# number of rings (size 3 to 8) (size 9 to 14) (size 15 to 20)
#    0.000    3.000    0.000    2.500    0.000    4.667 
#    0.000    0.000    0.000    3.500    0.000    2.333 
#    0.000    1.333    0.000    0.000    0.000    0.000 
#
# Total GULP energy -892714.542567 kJ/mol
# GULP energy per Si atom -12398.813091 kJ/mol
# Density = 1.590904 g / cm^3
# Si number density = 15.945336 Si / 1000 Ang^3
#
#
#
# Elastic Constant Matrix: (Units=GPa)
#
#
# Indices 1 2 3 4 5 6 
#
# 1 123.0141 68.8914 46.4951 0.0000 0.0000 0.0000
# 2 68.8914 123.0141 46.4951 0.0000 0.0000 0.0000
# 3 46.4951 46.4951 47.5551 0.0000 0.0000 0.0000
# 4 0.0000 0.0000 0.0000 18.6011 0.0000 0.0000
# 5 0.0000 0.0000 0.0000 0.0000 18.6011 0.0000
# 6 0.0000 0.0000 0.0000 0.0000 0.0000 27.0614
#
#
#
# Elastic Compliance Matrix: (Units=1/GPa)
#
#
# Indices 1 2 3 4 5 6 
#
# 1 0.014189 -0.004287 -0.009681 0.000000 0.000000 0.000000
# 2 -0.004287 0.014189 -0.009681 0.000000 0.000000 0.000000
# 3 -0.009681 -0.009681 0.039959 0.000000 0.000000 0.000000
# 4 0.000000 0.000000 0.000000 0.053760 0.000000 0.000000
# 5 0.000000 0.000000 0.000000 0.000000 0.053760 0.000000
# 6 0.000000 0.000000 0.000000 0.000000 0.000000 0.036953
#
#
# Mechanical properties :
#
#
# Convention : Reuss Voigt Hill
#
# Bulk Modulus (GPa) = 47.53285 68.59404 58.06344
# Shear Modulus (GPa) = 18.71788 21.63286 20.17537
#
# Velocity S-wave (km/s) = 3.42991 3.68732 3.56094
# Velocity P-wave (km/s) = 6.74984 7.82560 7.30754
#
# Compressibility (1/GPa) = 0.02103808
#
# Stress axis : x y z
#
# Youngs Moduli (GPa) = 70.47548 70.47548 25.02535
#
# Poissons Ratio (x) = 0.30214 0.24228
# Poissons Ratio (y) = 0.30214 0.24228
# Poissons Ratio (z) = 0.68230 0.68230
#
# Static dielectric constant tensor:
#      x y z
#    x 3.084070 0.000000 0.000000 
#    y 0.000000 3.084070 0.000000 
#    z 0.000000 0.000000 2.837240 
# 
# 
# High freq. dielectric constant tensor:
#      x y z
#    x 1.605210 0.000000 0.000000 
#    y 0.000000 1.605210 0.000000 
#    z 0.000000 0.000000 1.595940 
# 
# From -- ./inp_files/1232.got.cif
#   From: 2010.03.12/outbox.cif.g09.slc.cpg/sg189_1_cif.got.tgz:1232.got - 2010.04.01 12:03:36.
