data_PCOD8327217
_publ_section_title
;
Structure prediction by ZEFSAII (Michael W. Deem and Ramdas Pophale) SiO2 
 PCOD8327217
Probable space group: P -6 M 2
;
_chemical_formula_sum "Si O2"
_cell_formula_units_Z 50
_cell_length_a 11.716135
_cell_length_b 11.716135
_cell_length_c 21.848335
_cell_angle_alpha 90.000000
_cell_angle_beta 90.000000
_cell_angle_gamma 120.000000
_cell_volume 2597.273667
_symmetry_space_group_name_H-M "P -6 M 2"
_symmetry_group_IT_number 187
_symmetry_cell_setting 'hexagonal'
loop_
_space_group_symop_operation_xyz
x,y,z
-x+y,-x,-z
-y,x-y,z
x,y,-z
-x+y,-x,z
-y,x-y,-z
-y,-x,-z
-x+y,y,-z
x,x-y,-z
-x+y,y,z
x,x-y,z
-y,-x,z
loop_
_atom_site_type_symbol
_atom_site_label
_atom_site_fract_x
_atom_site_fract_y
_atom_site_fract_z
Si Si1 0.814985 0.185016 0.927381
Si Si2 0.739867 0.741731 0.253692
Si Si3 0.665617 0.067531 0.376777
Si Si4 0.666667 0.333334 0.072531
Si Si5 0.266715 0.998173 0.500000
Si Si6 0.598376 0.667204 0.867453
O O1 0.740456 0.259544 0.902165
O O2 0.964449 0.268352 0.902897
O O3 0.819781 0.180220 0.000000
O O4 0.856298 0.712595 0.237812
O O5 0.685572 0.696709 0.321810
O O6 0.622628 0.664138 0.205097
O O7 0.795285 0.897643 0.249171
O O8 0.537790 0.075580 0.362165
O O9 0.785262 0.214739 0.382174
O O10 0.648424 0.990248 0.439980
O O11 0.666667 0.333334 0.000000
O O12 0.258112 0.129056 0.500000
O O13 0.119740 0.880261 0.500000
O O14 0.570776 0.785388 0.884086
O O15 0.471290 0.528711 0.887201
#
# Coordination Sequence:
#
# PCOD8327217 Si02
#       6
#     6  12  12   2   6  12
#     4  11  22  40  64  90 118 152 198 248 296 350
#     4  10  20  35  57  84 115 150 191 240 291 344
#     4  10  20  34  53  78 108 143 183 230 281 335
#     4   9  18  36  66  90 114 147 192 250 296 343
#     4  10  20  34  54  78 106 140 180 228 280 336
#     4  11  23  40  62  90 124 161 200 244 298 358
#
# _framework density 19.250957
#
# number of rings (size 3 to 8) (size 9 to 14) (size 15 to 20)
#    0.000    1.680    2.400    2.640    0.000    0.480 
#    0.720    3.600    0.000    9.600    0.000    0.000 
#    0.000    0.000    0.000    0.000    0.000    0.000 
#
# Total GULP energy -620091.267859 kJ/mol
# GULP energy per Si atom -12401.825357 kJ/mol
# Density = 1.920714 g / cm^3
# Si number density = 19.250957 Si / 1000 Ang^3
#
#
#
# Elastic Constant Matrix: (Units=GPa)
#
#
# Indices 1 2 3 4 5 6 
#
# 1 83.4496 29.9715 35.7738 0.0000 0.0001 0.0000
# 2 29.9715 83.4495 35.7738 0.0000 -0.0001 0.0000
# 3 35.7738 35.7738 80.8880 0.0000 0.0000 0.0000
# 4 0.0000 0.0000 0.0000 24.3089 0.0000 -0.0001
# 5 0.0001 -0.0001 0.0000 0.0000 24.3089 0.0000
# 6 0.0000 0.0000 0.0000 -0.0001 0.0000 26.7391
#
#
#
# Elastic Compliance Matrix: (Units=1/GPa)
#
#
# Indices 1 2 3 4 5 6 
#
# 1 0.015464 -0.003236 -0.005408 0.000000 0.000000 0.000000
# 2 -0.003236 0.015464 -0.005408 0.000000 0.000000 0.000000
# 3 -0.005408 -0.005408 0.017146 0.000000 0.000000 0.000000
# 4 0.000000 0.000000 0.000000 0.041137 0.000000 0.000000
# 5 0.000000 0.000000 0.000000 0.000000 0.041137 0.000000
# 6 0.000000 0.000000 0.000000 0.000000 0.000000 0.037398
#
#
# Mechanical properties :
#
#
# Convention : Reuss Voigt Hill
#
# Bulk Modulus (GPa) = 50.07402 50.09169 50.08285
# Shear Modulus (GPa) = 24.69051 24.82257 24.75654
#
# Velocity S-wave (km/s) = 3.58517 3.59475 3.58996
# Velocity P-wave (km/s) = 6.57310 6.58076 6.57693
#
# Compressibility (1/GPa) = 0.01997044
#
# Stress axis : x y z
#
# Youngs Moduli (GPa) = 64.66746 64.66743 58.32132
#
# Poissons Ratio (x) = 0.20923 0.31541
# Poissons Ratio (y) = 0.20923 0.31541
# Poissons Ratio (z) = 0.34973 0.34973
#
# Static dielectric constant tensor:
#      x y z
#    x 3.426860 0.000000 0.000000 
#    y 0.000000 3.426860 0.000000 
#    z 0.000000 0.000000 3.679320 
# 
# 
# High freq. dielectric constant tensor:
#      x y z
#    x 1.744220 0.000000 0.000000 
#    y 0.000000 1.744220 0.000000 
#    z 0.000000 0.000000 1.756200 
# 
# From -- ./inp_files/3473.got.cif
#   From: 2010.03.12/outbox.cif.g09.slc.cpg/sg187_2_cif.got.tgz:3473.got - 2010.04.01 11:58:23.
