data_PCOD8327871
_publ_section_title
;
Structure prediction by ZEFSAII (Michael W. Deem and Ramdas Pophale) SiO2 
 PCOD8327871
Probable space group: P -6 2 M
;
_chemical_formula_sum "Si O2"
_cell_formula_units_Z 64
_cell_length_a 14.331382
_cell_length_b 14.331382
_cell_length_c 16.697665
_cell_angle_alpha 90.000000
_cell_angle_beta 90.000000
_cell_angle_gamma 120.000000
_cell_volume 2970.041514
_symmetry_space_group_name_H-M "P -6 2 M"
_symmetry_group_IT_number 189
_symmetry_cell_setting 'hexagonal'
loop_
_space_group_symop_operation_xyz
x,y,z
-x+y,-x,-z
-y,x-y,z
x,y,-z
-x+y,-x,z
-y,x-y,-z
x-y,-y,-z
-x,-x+y,-z
y,x,-z
y,x,z
x-y,-y,z
-x,-x+y,z
loop_
_atom_site_type_symbol
_atom_site_label
_atom_site_fract_x
_atom_site_fract_y
_atom_site_fract_z
Si Si1 0.456701 0.284388 0.340922
Si Si2 0.116018 0.885488 0.338007
Si Si3 0.454158 0.328388 0.156178
Si Si4 0.496649 0.616819 0.409228
Si Si5 0.878114 0.757705 0.851541
Si Si6 0.666666 0.333333 0.905634
O O1 0.337103 0.210828 0.375925
O O2 0.460558 0.325706 0.251737
O O3 0.508513 0.382893 0.401640
O O4 0.509579 0.208006 0.346106
O O5 0.130580 0.884239 0.243349
O O6 0.000000 0.870023 0.358537
O O7 0.205453 0.000000 0.374006
O O8 0.418440 0.418440 0.134627
O O9 0.362947 0.211462 0.120874
O O10 0.571070 0.356090 0.122557
O O11 0.510607 0.659777 0.500000
O O12 0.591616 0.591616 0.386846
O O13 0.796663 0.796663 0.887022
O O14 0.000000 0.842889 0.879024
O O15 0.666667 0.333334 0.000000
#
# Coordination Sequence:
#
# PCOD8327871 Si02
#       6
#    12  12  12  12  12   4
#     4  11  20  36  58  81 111 149 193 245 301 350
#     4   9  16  27  47  77 111 144 179 225 284 347
#     4  10  22  40  63  93 124 156 202 257 307 361
#     4  11  23  36  52  78 112 152 198 246 299 361
#     4   8  14  26  49  84 123 158 192 236 293 352
#     4  12  27  45  66  90 121 164 202 240 300 372
#
# _framework density 21.548521000000001
#
# number of rings (size 3 to 8) (size 9 to 14) (size 15 to 20)
#    0.000    2.062    0.000    5.812    0.000    3.375 
#    0.000    0.000    0.000    0.000    0.000    0.000 
#    0.000   10.500    0.000    0.000    0.000    0.000 
#
# Total GULP energy -792896.183819 kJ/mol
# GULP energy per Si atom -12389.002872 kJ/mol
# Density = 2.149948 g / cm^3
# Si number density = 21.548521 Si / 1000 Ang^3
#
#
#
# Elastic Constant Matrix: (Units=GPa)
#
#
# Indices 1 2 3 4 5 6 
#
# 1 127.4438 55.4848 24.2339 0.0000 -0.0001 0.0000
# 2 55.4848 127.4436 24.2339 0.0000 0.0000 -0.0001
# 3 24.2339 24.2339 35.0461 0.0001 0.0000 0.0000
# 4 0.0000 0.0000 0.0001 3.9919 0.0000 0.0000
# 5 -0.0001 0.0000 0.0000 0.0000 3.9919 0.0000
# 6 0.0000 -0.0001 0.0000 0.0000 0.0000 35.9794
#
#
#
# Elastic Compliance Matrix: (Units=1/GPa)
#
#
# Indices 1 2 3 4 5 6 
#
# 1 0.010295 -0.003602 -0.004628 0.000000 0.000000 0.000000
# 2 -0.003602 0.010295 -0.004628 0.000000 0.000000 0.000000
# 3 -0.004628 -0.004628 0.034934 0.000000 0.000000 0.000000
# 4 0.000000 0.000000 0.000000 0.250507 -0.000001 0.000000
# 5 0.000000 0.000000 0.000000 -0.000001 0.250508 0.000000
# 6 0.000000 0.000000 0.000000 0.000000 0.000000 0.027794
#
#
# Mechanical properties :
#
#
# Convention : Reuss Voigt Hill
#
# Bulk Modulus (GPa) = 33.54814 55.31540 44.43177
# Shear Modulus (GPa) = 8.06472 21.19136 14.62804
#
# Velocity S-wave (km/s) = 1.93667 3.13936 2.60829
# Velocity P-wave (km/s) = 4.53910 6.23432 5.45298
#
# Compressibility (1/GPa) = 0.02980791
#
# Stress axis : x y z
#
# Youngs Moduli (GPa) = 97.13620 97.13609 28.62519
#
# Poissons Ratio (x) = 0.34988 0.13248
# Poissons Ratio (y) = 0.34988 0.13248
# Poissons Ratio (z) = 0.44955 0.44955
#
# Static dielectric constant tensor:
#      x y z
#    x 4.314620 0.000000 0.000000 
#    y 0.000000 4.314620 0.000000 
#    z 0.000000 0.000000 3.262710 
# 
# 
# High freq. dielectric constant tensor:
#      x y z
#    x 1.858320 0.000000 0.000000 
#    y 0.000000 1.858320 0.000000 
#    z 0.000000 0.000000 1.787220 
# 
# From -- ./inp_files/3043.got.cif
#   From: 2010.03.12/outbox.cif.g09.slc.cpg/sg189_2_cif.got.tgz:3043.got - 2010.04.01 12:03:36.
