data_PCOD8327030
_publ_section_title
;
Structure prediction by ZEFSAII (Michael W. Deem and Ramdas Pophale) SiO2 
 PCOD8327030
Probable space group: P -6 M 2
;
_chemical_formula_sum "Si O2"
_cell_formula_units_Z 60
_cell_length_a 12.673422
_cell_length_b 12.673422
_cell_length_c 25.324057
_cell_angle_alpha 90.000000
_cell_angle_beta 90.000000
_cell_angle_gamma 120.000000
_cell_volume 3522.505717
_symmetry_space_group_name_H-M "P -6 M 2"
_symmetry_group_IT_number 187
_symmetry_cell_setting 'hexagonal'
loop_
_space_group_symop_operation_xyz
x,y,z
-x+y,-x,-z
-y,x-y,z
x,y,-z
-x+y,-x,z
-y,x-y,-z
-y,-x,-z
-x+y,y,-z
x,x-y,-z
-x+y,y,z
x,x-y,z
-y,-x,z
loop_
_atom_site_type_symbol
_atom_site_label
_atom_site_fract_x
_atom_site_fract_y
_atom_site_fract_z
Si Si1 0.578641 0.666931 0.195319
Si Si2 0.912361 0.581088 0.000000
Si Si3 0.667002 0.091278 0.711920
Si Si4 0.000448 0.247180 0.097875
Si Si5 0.908847 0.575882 0.592452
Si Si6 0.754923 0.754270 0.500000
O O1 0.545377 0.772689 0.200042
O O2 0.457204 0.542797 0.180347
O O3 0.634173 0.657155 0.250847
O O4 0.678970 0.694997 0.151086
O O5 0.979245 0.660442 0.051053
O O6 0.770217 0.540434 0.000000
O O7 0.925533 0.462767 0.000000
O O8 0.566705 0.133410 0.716298
O O9 0.795435 0.204566 0.729611
O O10 0.672151 0.049867 0.652229
O O11 0.118865 0.237730 0.084462
O O12 0.888037 0.111964 0.104750
O O13 0.768108 0.536216 0.584176
O O14 0.923438 0.461719 0.578484
O O15 0.994379 0.681920 0.552689
O O16 0.748670 0.874335 0.500000
O O17 0.894228 0.788456 0.500000
#
# Coordination Sequence:
#
# PCOD8327030 Si02
#       6
#    12   6  12  12  12   6
#     4  10  20  33  49  69  96 131 168 203 237 279
#     4  10  20  34  52  74 100 128 158 192 232 280
#     4   9  17  30  49  73  98 122 151 191 241 291
#     4  10  20  34  53  75  99 127 160 201 246 290
#     4   9  17  30  50  74  96 118 148 192 243 289
#     4  10  20  32  46  64  90 124 158 190 224 270
#
# _framework density 17.033328999999998
#
# number of rings (size 3 to 8) (size 9 to 14) (size 15 to 20)
#    0.000    2.400    0.000    2.800    0.000    2.400 
#    0.000    2.000    0.000   11.200    0.000    0.000 
#    0.000    0.000    0.000    0.000    0.000    0.000 
#
# Total GULP energy -744132.331479 kJ/mol
# GULP energy per Si atom -12402.205525 kJ/mol
# Density = 1.699456 g / cm^3
# Si number density = 17.033329 Si / 1000 Ang^3
#
#
#
# Elastic Constant Matrix: (Units=GPa)
#
#
# Indices 1 2 3 4 5 6 
#
# 1 114.0663 67.5156 63.8335 0.0000 0.0000 0.0000
# 2 67.5156 114.0663 63.8335 0.0000 0.0000 0.0000
# 3 63.8335 63.8335 115.5461 0.0000 0.0000 0.0000
# 4 0.0000 0.0000 0.0000 23.8738 0.0000 0.0000
# 5 0.0000 0.0000 0.0000 0.0000 23.8738 0.0000
# 6 0.0000 0.0000 0.0000 0.0000 0.0000 23.2754
#
#
#
# Elastic Compliance Matrix: (Units=1/GPa)
#
#
# Indices 1 2 3 4 5 6 
#
# 1 0.015243 -0.006239 -0.004975 0.000000 0.000000 0.000000
# 2 -0.006239 0.015243 -0.004975 0.000000 0.000000 0.000000
# 3 -0.004975 -0.004975 0.014151 0.000000 0.000000 0.000000
# 4 0.000000 0.000000 0.000000 0.041887 0.000000 0.000000
# 5 0.000000 0.000000 0.000000 0.000000 0.041887 0.000000
# 6 0.000000 0.000000 0.000000 0.000000 0.000000 0.042964
#
#
# Mechanical properties :
#
#
# Convention : Reuss Voigt Hill
#
# Bulk Modulus (GPa) = 81.55362 81.56047 81.55705
# Shear Modulus (GPa) = 24.05711 24.10434 24.08073
#
# Velocity S-wave (km/s) = 3.76221 3.76590 3.76405
# Velocity P-wave (km/s) = 8.17650 8.17901 8.17775
#
# Compressibility (1/GPa) = 0.01226187
#
# Stress axis : x y z
#
# Youngs Moduli (GPa) = 65.60233 65.60233 70.66591
#
# Poissons Ratio (x) = 0.40927 0.35154
# Poissons Ratio (y) = 0.40927 0.35154
# Poissons Ratio (z) = 0.32635 0.32635
#
# Static dielectric constant tensor:
#      x y z
#    x 3.088330 0.000000 0.000000 
#    y 0.000000 3.088330 0.000000 
#    z 0.000000 0.000000 3.453670 
# 
# 
# High freq. dielectric constant tensor:
#      x y z
#    x 1.654200 0.000000 0.000000 
#    y 0.000000 1.654200 0.000000 
#    z 0.000000 0.000000 1.671410 
# 
# From -- ./inp_files/4156.got.cif
#   From: 2010.03.12/outbox.cif.g09.slc.cpg/sg187_3_cif.got.tgz:4156.got - 2010.04.01 11:58:23.
