data_PCOD8327726
_publ_section_title
;
Structure prediction by ZEFSAII (Michael W. Deem and Ramdas Pophale) SiO2 
 PCOD8327726
Probable space group: P -6 2 M
;
_chemical_formula_sum "Si O2"
_cell_formula_units_Z 84
_cell_length_a 15.151340
_cell_length_b 15.151340
_cell_length_c 27.393441
_cell_angle_alpha 90.000000
_cell_angle_beta 90.000000
_cell_angle_gamma 120.000000
_cell_volume 5446.020964
_symmetry_space_group_name_H-M "P -6 2 M"
_symmetry_group_IT_number 189
_symmetry_cell_setting 'hexagonal'
loop_
_space_group_symop_operation_xyz
x,y,z
-x+y,-x,-z
-y,x-y,z
x,y,-z
-x+y,-x,z
-y,x-y,-z
x-y,-y,-z
-x,-x+y,-z
y,x,-z
y,x,z
x-y,-y,z
-x,-x+y,z
loop_
_atom_site_type_symbol
_atom_site_label
_atom_site_fract_x
_atom_site_fract_y
_atom_site_fract_z
Si Si1 0.783355 0.664388 0.751220
Si Si2 0.219910 0.455526 0.102796
Si Si3 0.760083 0.303431 0.206410
Si Si4 0.758764 0.879478 0.147909
Si Si5 0.119421 0.883673 0.551667
Si Si6 0.116891 0.561920 0.056133
Si Si7 0.238499 0.118472 0.343562
O O1 0.704185 0.704185 0.748419
O O2 0.717670 0.542614 0.754414
O O3 0.859306 0.714351 0.797044
O O4 0.846198 0.683155 0.701193
O O5 0.203649 0.499176 0.152867
O O6 0.168592 0.333142 0.108307
O O7 0.163912 0.487684 0.062591
O O8 0.338203 0.507917 0.089550
O O9 0.778434 0.417620 0.213256
O O10 0.826473 0.826473 0.138968
O O11 0.828897 0.000000 0.139937
O O12 0.164759 0.865866 0.500000
O O13 0.158493 0.861380 0.603381
O O14 0.000000 0.812827 0.549344
O O15 0.145278 0.000000 0.553784
O O16 0.000000 0.499442 0.072004
O O17 0.130048 0.596414 0.000000
O O18 0.169473 0.169473 0.344132
O O19 0.164514 0.000000 0.333327
#
# Coordination Sequence:
#
# PCOD8327726 Si02
#       7
#    12  12  12  12  12  12  12
#     4   9  18  29  43  65  91 118 151 189 227 262
#     4  11  19  36  52  74  97 123 148 185 223 272
#     4   9  17  33  50  66  86 117 147 173 219 275
#     4  10  20  33  50  70  96 128 163 195 222 258
#     4   8  12  17  27  45  71 107 149 187 222 261
#     4  11  22  34  52  76  98 121 146 176 223 272
#     4   9  15  23  35  53  83 119 153 188 223 264
#
# _framework density 15.424106
#
# number of rings (size 3 to 8) (size 9 to 14) (size 15 to 20)
#    0.286    2.143    1.429    2.429    0.000    2.286 
#    0.000    2.857    0.000    0.000    0.000    0.000 
#    0.000    8.000    0.000    7.857    0.000    0.143 
#
# Total GULP energy -1040622.934449 kJ/mol
# GULP energy per Si atom -12388.368267 kJ/mol
# Density = 1.538900 g / cm^3
# Si number density = 15.424106 Si / 1000 Ang^3
#
#
#
# Elastic Constant Matrix: (Units=GPa)
#
#
# Indices 1 2 3 4 5 6 
#
# 1 69.2720 23.0802 22.8749 0.0000 0.0000 0.0000
# 2 23.0802 69.2720 22.8749 0.0000 0.0000 0.0000
# 3 22.8749 22.8749 74.2056 0.0000 0.0000 0.0000
# 4 0.0000 0.0000 0.0000 16.4498 0.0000 0.0000
# 5 0.0000 0.0000 0.0000 0.0000 16.4498 0.0000
# 6 0.0000 0.0000 0.0000 0.0000 0.0000 23.0959
#
#
#
# Elastic Compliance Matrix: (Units=1/GPa)
#
#
# Indices 1 2 3 4 5 6 
#
# 1 0.017214 -0.004435 -0.003940 0.000000 0.000000 0.000000
# 2 -0.004435 0.017214 -0.003940 0.000000 0.000000 0.000000
# 3 -0.003940 -0.003940 0.015905 0.000000 0.000000 0.000000
# 4 0.000000 0.000000 0.000000 0.060791 0.000000 0.000000
# 5 0.000000 0.000000 0.000000 0.000000 0.060791 0.000000
# 6 0.000000 0.000000 0.000000 0.000000 0.000000 0.043298
#
#
# Mechanical properties :
#
#
# Convention : Reuss Voigt Hill
#
# Bulk Modulus (GPa) = 38.90111 38.93440 38.91775
# Shear Modulus (GPa) = 20.12806 20.79372 20.46089
#
# Velocity S-wave (km/s) = 3.61636 3.67567 3.64614
# Velocity P-wave (km/s) = 6.53553 6.58114 6.55838
#
# Compressibility (1/GPa) = 0.02570621
#
# Stress axis : x y z
#
# Youngs Moduli (GPa) = 58.09129 58.09129 62.87371
#
# Poissons Ratio (x) = 0.25761 0.24769
# Poissons Ratio (y) = 0.25761 0.24769
# Poissons Ratio (z) = 0.22885 0.22885
#
# Static dielectric constant tensor:
#      x y z
#    x 2.818630 0.000000 0.000000 
#    y 0.000000 2.818630 0.000000 
#    z 0.000000 0.000000 3.374140 
# 
# 
# High freq. dielectric constant tensor:
#      x y z
#    x 1.570780 0.000000 0.000000 
#    y 0.000000 1.570780 0.000000 
#    z 0.000000 0.000000 1.593620 
# 
# From -- ./inp_files/3680.got.cif
#   From: 2010.03.12/outbox.cif.g09.slc.cpg/sg189_2_cif.got.tgz:3680.got - 2010.04.01 12:03:36.
