data_PCOD8327068
_publ_section_title
;
Structure prediction by ZEFSAII (Michael W. Deem and Ramdas Pophale) SiO2 
 PCOD8327068
Probable space group: P -6 M 2
;
_chemical_formula_sum "Si O2"
_cell_formula_units_Z 72
_cell_length_a 12.563727
_cell_length_b 12.563727
_cell_length_c 30.621913
_cell_angle_alpha 90.000000
_cell_angle_beta 90.000000
_cell_angle_gamma 120.000000
_cell_volume 4186.006823
_symmetry_space_group_name_H-M "P -6 M 2"
_symmetry_group_IT_number 187
_symmetry_cell_setting 'hexagonal'
loop_
_space_group_symop_operation_xyz
x,y,z
-x+y,-x,-z
-y,x-y,z
x,y,-z
-x+y,-x,z
-y,x-y,-z
-y,-x,-z
-x+y,y,-z
x,x-y,-z
-x+y,y,z
x,x-y,z
-y,-x,z
loop_
_atom_site_type_symbol
_atom_site_label
_atom_site_fract_x
_atom_site_fract_y
_atom_site_fract_z
Si Si1 0.332741 0.420627 0.675912
Si Si2 0.001079 0.248533 0.753989
Si Si3 0.000132 0.249606 0.082363
Si Si4 0.416892 0.331556 0.000000
Si Si5 0.331578 0.417334 0.835216
Si Si6 0.579720 0.912969 0.576940
Si Si7 0.249324 0.248291 0.500000
O O1 0.230449 0.460897 0.682431
O O2 0.463018 0.536983 0.688103
O O3 0.304594 0.307058 0.707097
O O4 0.331341 0.375746 0.626483
O O5 0.870190 0.129811 0.761520
O O6 0.104461 0.208922 0.756878
O O7 0.023682 0.349130 0.790360
O O8 0.118867 0.237734 0.073394
O O9 0.012540 0.325501 0.125685
O O10 0.886089 0.113911 0.088056
O O11 0.983048 0.320658 0.042244
O O12 0.536967 0.463034 0.000000
O O13 0.456121 0.228061 0.000000
O O14 0.229041 0.458081 0.836348
O O15 0.463558 0.536443 0.839627
O O16 0.457376 0.914752 0.566188
O O17 0.550350 0.775175 0.568834
O O18 0.682818 0.005710 0.543670
O O19 0.231562 0.115781 0.500000
O O20 0.116453 0.232905 0.500000
#
# Coordination Sequence:
#
# PCOD8327068 Si02
#       7
#    12  12  12   6  12  12   6
#     4   9  17  30  50  75 100 124 152 191 240 291
#     4  10  20  33  50  72  99 131 165 201 239 282
#     4  10  20  34  54  78 104 134 167 205 247 293
#     4  10  20  34  52  74 102 136 172 208 246 290
#     4  10  20  34  53  76 101 129 162 203 250 297
#     4   9  17  30  50  75  98 120 150 193 244 290
#     4  10  20  32  46  66  94 128 162 194 232 280
#
# _framework density 17.200164000000001
#
# number of rings (size 3 to 8) (size 9 to 14) (size 15 to 20)
#    0.000    2.333    0.000    3.000    0.000    2.000 
#    0.000    5.000    0.000   12.667    0.000    0.000 
#    0.000    0.000    0.000    0.000    0.000    0.000 
#
# Total GULP energy -892950.371509 kJ/mol
# GULP energy per Si atom -12402.088493 kJ/mol
# Density = 1.716102 g / cm^3
# Si number density = 17.200164 Si / 1000 Ang^3
#
#
#
# Elastic Constant Matrix: (Units=GPa)
#
#
# Indices 1 2 3 4 5 6 
#
# 1 94.8159 47.9590 49.2476 0.0000 0.0001 0.0000
# 2 47.9590 94.8159 49.2476 0.0000 -0.0001 0.0000
# 3 49.2476 49.2476 115.1797 0.0000 0.0000 0.0000
# 4 0.0000 0.0000 0.0000 23.4492 0.0000 -0.0001
# 5 0.0001 -0.0001 0.0000 0.0000 23.4492 0.0000
# 6 0.0000 0.0000 0.0000 -0.0001 0.0000 23.4285
#
#
#
# Elastic Compliance Matrix: (Units=1/GPa)
#
#
# Indices 1 2 3 4 5 6 
#
# 1 0.015638 -0.005704 -0.004248 0.000000 0.000000 0.000000
# 2 -0.005704 0.015638 -0.004248 0.000000 0.000000 0.000000
# 3 -0.004248 -0.004248 0.012314 0.000000 0.000000 0.000000
# 4 0.000000 0.000000 0.000000 0.042645 0.000000 0.000000
# 5 0.000000 0.000000 0.000000 0.000000 0.042645 0.000000
# 6 0.000000 0.000000 0.000000 0.000000 0.000000 0.042683
#
#
# Mechanical properties :
#
#
# Convention : Reuss Voigt Hill
#
# Bulk Modulus (GPa) = 65.82185 66.41332 66.11758
# Shear Modulus (GPa) = 24.38715 24.62254 24.50484
#
# Velocity S-wave (km/s) = 3.76951 3.78766 3.77860
# Velocity P-wave (km/s) = 7.56947 7.60423 7.58687
#
# Compressibility (1/GPa) = 0.01519252
#
# Stress axis : x y z
#
# Youngs Moduli (GPa) = 63.94701 63.94701 81.20547
#
# Poissons Ratio (x) = 0.36473 0.34493
# Poissons Ratio (y) = 0.36473 0.34493
# Poissons Ratio (z) = 0.27162 0.27162
#
# Static dielectric constant tensor:
#      x y z
#    x 3.077080 0.000000 0.000000 
#    y 0.000000 3.077080 0.000000 
#    z 0.000000 0.000000 3.505450 
# 
# 
# High freq. dielectric constant tensor:
#      x y z
#    x 1.655280 0.000000 0.000000 
#    y 0.000000 1.655280 0.000000 
#    z 0.000000 0.000000 1.684670 
# 
# From -- ./inp_files/4582.got.cif
#   From: 2010.03.12/outbox.cif.g09.slc.cpg/sg187_3_cif.got.tgz:4582.got - 2010.04.01 11:58:23.
