data_PCOD8327539
_publ_section_title
;
Structure prediction by ZEFSAII (Michael W. Deem and Ramdas Pophale) SiO2 
 PCOD8327539
Probable space group: P -6 2 M
;
_chemical_formula_sum "Si O2"
_cell_formula_units_Z 96
_cell_length_a 17.457387
_cell_length_b 17.457387
_cell_length_c 20.794448
_cell_angle_alpha 90.000000
_cell_angle_beta 90.000000
_cell_angle_gamma 120.000000
_cell_volume 5488.283123
_symmetry_space_group_name_H-M "P -6 2 M"
_symmetry_group_IT_number 189
_symmetry_cell_setting 'hexagonal'
loop_
_space_group_symop_operation_xyz
x,y,z
-x+y,-x,-z
-y,x-y,z
x,y,-z
-x+y,-x,z
-y,x-y,-z
x-y,-y,-z
-x,-x+y,-z
y,x,-z
y,x,z
x-y,-y,z
-x,-x+y,z
loop_
_atom_site_type_symbol
_atom_site_label
_atom_site_fract_x
_atom_site_fract_y
_atom_site_fract_z
Si Si1 0.172617 0.513777 0.718736
Si Si2 0.742201 0.102464 0.571968
Si Si3 0.835512 0.505936 0.686012
Si Si4 0.623781 0.900335 0.809454
Si Si5 0.896586 0.795396 0.362262
Si Si6 0.319535 0.098057 0.752312
Si Si7 0.614148 0.100615 0.928877
Si Si8 0.630432 0.407646 0.851625
O O1 0.273765 0.542066 0.703882
O O2 0.140711 0.568475 0.673084
O O3 0.111780 0.407505 0.714767
O O4 0.164784 0.549280 0.788678
O O5 0.742383 0.136912 0.500000
O O6 0.712796 0.152972 0.621146
O O7 0.840255 0.118722 0.585298
O O8 0.671195 0.000000 0.578827
O O9 0.892441 0.569276 0.744604
O O10 0.655619 0.827470 0.807391
O O11 0.568364 0.881664 0.874617
O O12 0.707047 0.000000 0.810937
O O13 0.849787 0.849787 0.386827
O O14 0.853873 0.745524 0.296185
O O15 0.000000 0.863085 0.350391
O O16 0.270565 0.000000 0.783169
O O17 0.564730 0.156547 0.912316
O O18 0.537356 0.000000 0.927961
O O19 0.658081 0.126880 0.000000
O O20 0.567015 0.299342 0.853842
#
# Coordination Sequence:
#
# PCOD8327539 Si02
#       8
#    12  12  12  12  12  12  12  12
#     4  11  18  31  53  80 104 136 177 229 273 311
#     4  10  21  37  56  78 109 146 183 229 282 336
#     4  11  19  33  55  81 104 137 189 233 273 325
#     4  10  18  33  57  77 100 144 184 222 270 324
#     4  10  19  35  58  86 116 146 182 225 281 348
#     4  10  21  32  50  83 114 138 174 227 279 328
#     4  10  21  35  51  77 109 140 181 227 268 320
#     4  10  18  32  52  76 105 134 174 218 270 318
#
# _framework density 17.491807999999999
#
# number of rings (size 3 to 8) (size 9 to 14) (size 15 to 20)
#    0.250    1.500    5.000    1.875    0.000    2.250 
#    0.000    0.625    0.000    1.375    0.000    0.000 
#    0.000    0.000    0.000    0.000    0.000    0.000 
#
# Total GULP energy -1189406.918995 kJ/mol
# GULP energy per Si atom -12389.655406 kJ/mol
# Density = 1.745200 g / cm^3
# Si number density = 17.491808 Si / 1000 Ang^3
#
#
#
# Elastic Constant Matrix: (Units=GPa)
#
#
# Indices 1 2 3 4 5 6 
#
# 1 89.1050 42.4138 36.3288 0.0000 0.0000 0.0000
# 2 42.4138 89.1050 36.3288 0.0000 0.0000 0.0000
# 3 36.3288 36.3288 109.6858 0.0000 0.0000 0.0000
# 4 0.0000 0.0000 0.0000 19.9308 0.0000 0.0000
# 5 0.0000 0.0000 0.0000 0.0000 19.9308 0.0000
# 6 0.0000 0.0000 0.0000 0.0000 0.0000 23.3456
#
#
#
# Elastic Compliance Matrix: (Units=1/GPa)
#
#
# Indices 1 2 3 4 5 6 
#
# 1 0.015362 -0.006055 -0.003082 0.000000 0.000000 0.000000
# 2 -0.006055 0.015362 -0.003082 0.000000 0.000000 0.000000
# 3 -0.003082 -0.003082 0.011159 0.000000 0.000000 0.000000
# 4 0.000000 0.000000 0.000000 0.050174 0.000000 0.000000
# 5 0.000000 0.000000 0.000000 0.000000 0.050174 0.000000
# 6 0.000000 0.000000 0.000000 0.000000 0.000000 0.042835
#
#
# Mechanical properties :
#
#
# Convention : Reuss Voigt Hill
#
# Bulk Modulus (GPa) = 57.33269 57.55984 57.44626
# Shear Modulus (GPa) = 23.22143 24.16308 23.69225
#
# Velocity S-wave (km/s) = 3.64752 3.72074 3.68431
# Velocity P-wave (km/s) = 7.11247 7.17194 7.14227
#
# Compressibility (1/GPa) = 0.01744206
#
# Stress axis : x y z
#
# Youngs Moduli (GPa) = 65.09655 65.09655 89.61602
#
# Poissons Ratio (x) = 0.39419 0.27622
# Poissons Ratio (y) = 0.39419 0.27622
# Poissons Ratio (z) = 0.20065 0.20065
#
# Static dielectric constant tensor:
#      x y z
#    x 3.362460 0.000000 0.000000 
#    y 0.000000 3.362460 0.000000 
#    z 0.000000 0.000000 3.106700 
# 
# 
# High freq. dielectric constant tensor:
#      x y z
#    x 1.675610 0.000000 0.000000 
#    y 0.000000 1.675610 0.000000 
#    z 0.000000 0.000000 1.644780 
# 
# From -- ./inp_files/3513.got.cif
#   From: 2010.03.12/outbox.cif.g09.slc.cpg/sg189_2_cif.got.tgz:3513.got - 2010.04.01 12:03:36.
