data_PCOD8327604
_publ_section_title
;
Structure prediction by ZEFSAII (Michael W. Deem and Ramdas Pophale) SiO2 
 PCOD8327604
Probable space group: P -6 2 M
;
_chemical_formula_sum "Si O2"
_cell_formula_units_Z 54
_cell_length_a 17.690632
_cell_length_b 17.690632
_cell_length_c 11.495640
_cell_angle_alpha 90.000000
_cell_angle_beta 90.000000
_cell_angle_gamma 120.000000
_cell_volume 3115.663047
_symmetry_space_group_name_H-M "P -6 2 M"
_symmetry_group_IT_number 189
_symmetry_cell_setting 'hexagonal'
loop_
_space_group_symop_operation_xyz
x,y,z
-x+y,-x,-z
-y,x-y,z
x,y,-z
-x+y,-x,z
-y,x-y,-z
x-y,-y,-z
-x,-x+y,-z
y,x,-z
y,x,z
x-y,-y,z
-x,-x+y,z
loop_
_atom_site_type_symbol
_atom_site_label
_atom_site_fract_x
_atom_site_fract_y
_atom_site_fract_z
Si Si1 0.389527 0.899759 0.287582
Si Si2 0.422754 0.651010 0.500000
Si Si3 0.633535 0.098401 0.867366
Si Si4 0.806227 0.903648 0.138401
Si Si5 0.612463 0.779309 0.863122
O O1 0.355687 0.830049 0.390370
O O2 0.455220 0.882860 0.213094
O O3 0.310394 0.883016 0.205106
O O4 0.436872 0.000000 0.333528
O O5 0.319639 0.574891 0.500000
O O6 0.731273 0.168653 0.833305
O O7 0.616236 0.000000 0.849683
O O8 0.614017 0.111532 0.000000
O O9 0.871315 0.871315 0.182553
O O10 0.710112 0.838102 0.184625
O O11 0.839849 0.000000 0.189838
O O12 0.804625 0.906619 0.000000
O O13 0.610110 0.759705 0.000000
#
# Coordination Sequence:
#
# PCOD8327604 Si02
#       5
#    12   6  12  12  12
#     4  11  21  35  54  76 101 130 169 215 265 311
#     4  10  23  40  58  72  94 126 167 216 262 316
#     4   9  18  32  50  73 104 141 176 210 250 302
#     4   9  16  26  42  67 101 139 174 205 241 291
#     4  10  19  31  49  75 107 140 171 207 251 304
#
# _framework density 17.331783999999999
#
# number of rings (size 3 to 8) (size 9 to 14) (size 15 to 20)
#    0.222    2.000    0.000    3.889    0.000    5.778 
#    1.333    0.000    0.000    0.000    0.000    0.000 
#    0.000    0.000    0.000    2.222    0.000    1.778 
#
# Total GULP energy -669458.281825 kJ/mol
# GULP energy per Si atom -12397.375589 kJ/mol
# Density = 1.729234 g / cm^3
# Si number density = 17.331784 Si / 1000 Ang^3
#
#
#
# Elastic Constant Matrix: (Units=GPa)
#
#
# Indices 1 2 3 4 5 6 
#
# 1 104.8030 47.9500 34.4746 0.0000 0.0000 0.0000
# 2 47.9500 104.8030 34.4746 0.0000 0.0000 0.0000
# 3 34.4746 34.4746 51.1827 0.0000 0.0000 0.0000
# 4 0.0000 0.0000 0.0000 30.8521 0.0000 0.0000
# 5 0.0000 0.0000 0.0000 0.0000 30.8521 0.0000
# 6 0.0000 0.0000 0.0000 0.0000 0.0000 28.4265
#
#
#
# Elastic Compliance Matrix: (Units=1/GPa)
#
#
# Indices 1 2 3 4 5 6 
#
# 1 0.013498 -0.004091 -0.006336 0.000000 0.000000 0.000000
# 2 -0.004091 0.013498 -0.006336 0.000000 0.000000 0.000000
# 3 -0.006336 -0.006336 0.028073 0.000000 0.000000 0.000000
# 4 0.000000 0.000000 0.000000 0.032413 0.000000 0.000000
# 5 0.000000 0.000000 0.000000 0.000000 0.032413 0.000000
# 6 0.000000 0.000000 0.000000 0.000000 0.000000 0.035178
#
#
# Mechanical properties :
#
#
# Convention : Reuss Voigt Hill
#
# Bulk Modulus (GPa) = 46.41967 54.95412 50.68689
# Shear Modulus (GPa) = 25.53903 27.61879 26.57891
#
# Velocity S-wave (km/s) = 3.84283 3.99624 3.92029
# Velocity P-wave (km/s) = 6.82136 7.28486 7.05692
#
# Compressibility (1/GPa) = 0.02154259
#
# Stress axis : x y z
#
# Youngs Moduli (GPa) = 74.08633 74.08633 35.62160
#
# Poissons Ratio (x) = 0.30312 0.22569
# Poissons Ratio (y) = 0.30312 0.22569
# Poissons Ratio (z) = 0.46939 0.46939
#
# Static dielectric constant tensor:
#      x y z
#    x 3.369940 0.000000 0.000000 
#    y 0.000000 3.369940 0.000000 
#    z 0.000000 0.000000 2.890470 
# 
# 
# High freq. dielectric constant tensor:
#      x y z
#    x 1.682690 0.000000 0.000000 
#    y 0.000000 1.682690 0.000000 
#    z 0.000000 0.000000 1.624570 
# 
# From -- ./inp_files/1800.got.cif
#   From: 2010.03.12/outbox.cif.g09.slc.cpg/sg189_1_cif.got.tgz:1800.got - 2010.04.01 12:03:36.
