data_PCOD8327940
_publ_section_title
;
Structure prediction by ZEFSAII (Michael W. Deem and Ramdas Pophale) SiO2 
 PCOD8327940
Probable space group: P -6 2 C
;
_chemical_formula_sum "Si O2"
_cell_formula_units_Z 72
_cell_length_a 23.275304
_cell_length_b 23.275304
_cell_length_c 8.975307
_cell_angle_alpha 90.000000
_cell_angle_beta 90.000000
_cell_angle_gamma 120.000000
_cell_volume 4210.858699
_symmetry_space_group_name_H-M "P -6 2 C"
_symmetry_group_IT_number 190
_symmetry_cell_setting 'hexagonal'
loop_
_space_group_symop_operation_xyz
x,y,z
-x+y,-x,1/2-z
-y,x-y,z
x,y,1/2-z
-x+y,-x,z
-y,x-y,1/2-z
x-y,-y,-z
-x,-x+y,-z
y,x,-z
y,x,1/2+z
x-y,-y,1/2+z
-x,-x+y,1/2+z
loop_
_atom_site_type_symbol
_atom_site_label
_atom_site_fract_x
_atom_site_fract_y
_atom_site_fract_z
Si Si1 0.933316 0.737914 0.580889
Si Si2 0.863946 0.262526 0.079849
Si Si3 0.787528 0.449434 0.578719
Si Si4 0.405619 0.254267 0.581995
Si Si5 0.731909 0.798699 0.074854
Si Si6 0.667700 0.454984 0.075682
O O1 0.945613 0.760587 0.750000
O O2 0.919280 0.662068 0.560341
O O3 0.869600 0.741871 0.521730
O O4 0.000000 0.790003 0.500000
O O5 0.883741 0.260813 0.250000
O O6 0.852313 0.324614 0.048699
O O7 0.793116 0.198934 0.045614
O O8 0.919910 0.260623 0.977755
O O9 0.776006 0.425512 0.750000
O O10 0.849292 0.525582 0.566427
O O11 0.807923 0.405405 0.480057
O O12 0.720130 0.444173 0.518334
O O13 0.402277 0.224767 0.750000
O O14 0.736768 0.794560 0.250000
O O15 0.789165 0.789165 0.000000
O O16 0.676376 0.444466 0.250000
#
# Coordination Sequence:
#
# PCOD8327940 Si02
#       6
#    12  12  12  12  12  12
#     4   9  18  32  51  76 102 125 150 184 223 264
#     4   9  17  29  46  67  91 122 158 196 240 284
#     4  10  18  28  43  61  85 121 163 203 247 295
#     4   8  16  30  45  64  91 121 157 199 237 275
#     4  10  20  34  53  77 103 127 154 189 227 269
#     4  10  19  29  41  61  91 122 157 203 251 297
#
# _framework density 17.098651
#
# number of rings (size 3 to 8) (size 9 to 14) (size 15 to 20)
#    0.000    2.667    0.000    3.333    0.000    6.000 
#    0.000    0.000    0.000    1.333    0.000    4.667 
#    0.000    0.000    0.000    0.000    0.000    0.000 
#
# Total GULP energy -892083.504028 kJ/mol
# GULP energy per Si atom -12390.048667 kJ/mol
# Density = 1.705973 g / cm^3
# Si number density = 17.098651 Si / 1000 Ang^3
#
#
#
# Elastic Constant Matrix: (Units=GPa)
#
#
# Indices 1 2 3 4 5 6 
#
# 1 88.7719 48.0666 37.4167 0.0000 0.0000 0.0000
# 2 48.0666 88.7719 37.4167 0.0000 0.0000 0.0000
# 3 37.4167 37.4167 70.0650 0.0000 0.0000 0.0000
# 4 0.0000 0.0000 0.0000 25.7113 0.0000 0.0000
# 5 0.0000 0.0000 0.0000 0.0000 25.7113 0.0000
# 6 0.0000 0.0000 0.0000 0.0000 0.0000 20.3527
#
#
#
# Elastic Compliance Matrix: (Units=1/GPa)
#
#
# Indices 1 2 3 4 5 6 
#
# 1 0.017445 -0.007122 -0.005513 0.000000 0.000000 0.000000
# 2 -0.007122 0.017445 -0.005513 0.000000 0.000000 0.000000
# 3 -0.005513 -0.005513 0.020160 0.000000 0.000000 0.000000
# 4 0.000000 0.000000 0.000000 0.038893 0.000000 0.000000
# 5 0.000000 0.000000 0.000000 0.000000 0.038893 0.000000
# 6 0.000000 0.000000 0.000000 0.000000 0.000000 0.049134
#
#
# Mechanical properties :
#
#
# Convention : Reuss Voigt Hill
#
# Bulk Modulus (GPa) = 53.31879 54.82322 54.07100
# Shear Modulus (GPa) = 22.27014 22.66899 22.46956
#
# Velocity S-wave (km/s) = 3.61286 3.64507 3.62900
# Velocity P-wave (km/s) = 6.97527 7.06030 7.01792
#
# Compressibility (1/GPa) = 0.01875511
#
# Stress axis : x y z
#
# Youngs Moduli (GPa) = 57.32409 57.32409 49.60283
#
# Poissons Ratio (x) = 0.40827 0.27344
# Poissons Ratio (y) = 0.40827 0.27344
# Poissons Ratio (z) = 0.31600 0.31600
#
# Static dielectric constant tensor:
#      x y z
#    x 3.120430 0.000000 0.000000 
#    y 0.000000 3.120430 0.000000 
#    z 0.000000 0.000000 3.261550 
# 
# 
# High freq. dielectric constant tensor:
#      x y z
#    x 1.633930 0.000000 0.000000 
#    y 0.000000 1.633930 0.000000 
#    z 0.000000 0.000000 1.673150 
# 
# From -- ./inp_files/1229.got.cif
#   From: 2010.06.25/outbox.cif.g09.slc.cpg/sg190_1_cif.got.tgz:1229.got - 2010.06.28 13:08:06.
