data_PCOD8327737
_publ_section_title
;
Structure prediction by ZEFSAII (Michael W. Deem and Ramdas Pophale) SiO2 
 PCOD8327737
Probable space group: P -6 2 M
;
_chemical_formula_sum "Si O2"
_cell_formula_units_Z 66
_cell_length_a 21.553850
_cell_length_b 21.553850
_cell_length_c 8.462954
_cell_angle_alpha 90.000000
_cell_angle_beta 90.000000
_cell_angle_gamma 120.000000
_cell_volume 3404.884028
_symmetry_space_group_name_H-M "P -6 2 M"
_symmetry_group_IT_number 189
_symmetry_cell_setting 'hexagonal'
loop_
_space_group_symop_operation_xyz
x,y,z
-x+y,-x,-z
-y,x-y,z
x,y,-z
-x+y,-x,z
-y,x-y,-z
x-y,-y,-z
-x,-x+y,-z
y,x,-z
y,x,z
x-y,-y,z
-x,-x+y,z
loop_
_atom_site_type_symbol
_atom_site_label
_atom_site_fract_x
_atom_site_fract_y
_atom_site_fract_z
Si Si1 0.630845 0.840819 0.175825
Si Si2 0.917045 0.790033 0.827014
Si Si3 0.084634 0.513010 0.175848
Si Si4 0.077374 0.158768 0.500000
Si Si5 0.616629 0.698651 0.316096
Si Si6 0.080926 0.638341 0.316338
O O1 0.711362 0.907261 0.178754
O O2 0.634906 0.771740 0.230955
O O3 0.584538 0.863076 0.284452
O O4 0.598367 0.826945 0.000000
O O5 0.881111 0.799216 0.664724
O O6 0.000000 0.849077 0.822764
O O7 0.886210 0.798863 0.000000
O O8 0.107889 0.466709 0.283811
O O9 0.114835 0.593200 0.240392
O O10 0.000000 0.476534 0.177189
O O11 0.114505 0.516493 0.000000
O O12 0.140751 0.140751 0.500000
O O13 0.000000 0.087528 0.500000
O O14 0.628586 0.714008 0.500000
O O15 0.667991 0.667991 0.253394
O O16 0.076388 0.624013 0.500000
O O17 0.000000 0.612398 0.251614
#
# Coordination Sequence:
#
# PCOD8327737 Si02
#       6
#    12  12  12   6  12  12
#     4  11  22  35  53  79 110 143 182 226 274 328
#     4   9  20  37  54  75 106 142 180 229 289 345
#     4   9  17  32  54  78 105 138 175 214 259 310
#     4  10  21  36  56  76 100 134 180 230 284 344
#     4  10  21  36  54  77 109 146 184 224 267 319
#     4  10  20  33  54  83 112 141 177 222 272 324
#
# _framework density 19.38392
#
# number of rings (size 3 to 8) (size 9 to 14) (size 15 to 20)
#    0.000    2.182    0.000    2.818    2.545    6.182 
#    0.000    1.818    0.000    1.818    0.000    5.091 
#    0.000    0.000    0.000    0.000    0.000    0.000 
#
# Total GULP energy -817728.675428 kJ/mol
# GULP energy per Si atom -12389.828416 kJ/mol
# Density = 1.933980 g / cm^3
# Si number density = 19.383920 Si / 1000 Ang^3
#
#
#
# Elastic Constant Matrix: (Units=GPa)
#
#
# Indices 1 2 3 4 5 6 
#
# 1 56.5869 18.8914 17.1558 0.0000 0.0000 0.0000
# 2 18.8914 56.5869 17.1558 0.0000 0.0000 0.0000
# 3 17.1558 17.1558 124.4922 0.0000 0.0000 0.0000
# 4 0.0000 0.0000 0.0000 -6.4662 0.0000 0.0000
# 5 0.0000 0.0000 0.0000 0.0000 -6.4662 0.0000
# 6 0.0000 0.0000 0.0000 0.0000 0.0000 18.8478
#
#
#
# Elastic Compliance Matrix: (Units=1/GPa)
#
#
# Indices 1 2 3 4 5 6 
#
# 1 0.020331 -0.006197 -0.001948 0.000000 0.000000 0.000000
# 2 -0.006197 0.020331 -0.001948 0.000000 0.000000 0.000000
# 3 -0.001948 -0.001948 0.008569 0.000000 0.000000 0.000000
# 4 0.000000 0.000000 0.000000 -0.154650 0.000000 0.000000
# 5 0.000000 0.000000 0.000000 0.000000 -0.154650 0.000000
# 6 0.000000 0.000000 0.000000 0.000000 0.000000 0.053057
#
#
# Mechanical properties :
#
#
# Convention : Reuss Voigt Hill
#
# Bulk Modulus (GPa) = 34.42710 38.23021 36.32866
# Shear Modulus (GPa) = -28.22552 13.48061 -7.37246
#
# Velocity S-wave (km/s) = -3.82007 2.64001 -1.95234
# Velocity P-wave (km/s) = 1.28764 5.39058 3.70137
#
# Compressibility (1/GPa) = 0.02904688
#
# Stress axis : x y z
#
# Youngs Moduli (GPa) = 49.18521 49.18521 116.69333
#
# Poissons Ratio (x) = 0.30480 0.22729
# Poissons Ratio (y) = 0.30480 0.22729
# Poissons Ratio (z) = 0.09580 0.09580
#
# Static dielectric constant tensor:
#      x y z
#    x 3.321860 0.000000 0.000000 
#    y 0.000000 3.321860 0.000000 
#    z 0.000000 0.000000 3.989180 
# 
# 
# High freq. dielectric constant tensor:
#      x y z
#    x 1.727550 0.000000 0.000000 
#    y 0.000000 1.727550 0.000000 
#    z 0.000000 0.000000 1.778070 
# 
# From -- ./inp_files/1046.got.cif
#   From: 2010.03.12/outbox.cif.g09.slc.cpg/sg189_1_cif.got.tgz:1046.got - 2010.04.01 12:03:36.
