data_PCOD8327376
_publ_section_title
;
Structure prediction by ZEFSAII (Michael W. Deem and Ramdas Pophale) SiO2 
 PCOD8327376
Probable space group: P -6 C 2
;
_chemical_formula_sum "Si O2"
_cell_formula_units_Z 72
_cell_length_a 23.948495
_cell_length_b 23.948495
_cell_length_c 8.920760
_cell_angle_alpha 90.000000
_cell_angle_beta 90.000000
_cell_angle_gamma 120.000000
_cell_volume 4430.869299
_symmetry_space_group_name_H-M "P -6 C 2"
_symmetry_group_IT_number 188
_symmetry_cell_setting 'hexagonal'
loop_
_space_group_symop_operation_xyz
x,y,z
-x+y,-x,1/2-z
-y,x-y,z
x,y,1/2-z
-x+y,-x,z
-y,x-y,1/2-z
-y,-x,-z
-x+y,y,-z
x,x-y,-z
-x+y,y,1/2+z
x,x-y,1/2+z
-y,-x,1/2+z
loop_
_atom_site_type_symbol
_atom_site_label
_atom_site_fract_x
_atom_site_fract_y
_atom_site_fract_z
Si Si1 0.332813 0.990691 0.575227
Si Si2 0.406182 0.476942 0.574835
Si Si3 0.219073 0.550975 0.074871
Si Si4 0.193957 0.272558 0.575093
Si Si5 0.781774 0.114147 0.076739
Si Si6 0.954904 0.805734 0.576601
O O1 0.325042 0.972643 0.750000
O O2 0.383011 0.974686 0.498641
O O3 0.263387 0.949773 0.499478
O O4 0.363092 0.068133 0.552803
O O5 0.417518 0.473730 0.750000
O O6 0.473546 0.526455 0.500000
O O7 0.353224 0.498256 0.543487
O O8 0.234046 0.562576 0.250000
O O9 0.262003 0.524005 0.000000
O O10 0.237519 0.618760 0.000000
O O11 0.201475 0.290084 0.750000
O O12 0.146661 0.293321 0.500000
O O13 0.163552 0.195110 0.551304
O O14 0.799661 0.124123 0.250000
O O15 0.814135 0.185866 0.000000
O O16 0.813987 0.077353 0.999702
O O17 0.937539 0.798462 0.750000
O O18 0.922567 0.845133 0.500000
#
# Coordination Sequence:
#
# PCOD8327376 Si02
#       6
#    12  12  12  12  12  12
#     4  10  20  33  49  69  94 123 154 189 230 277
#     4  10  21  36  52  69  91 122 159 196 236 285
#     4  10  20  33  49  67  86 110 144 190 243 294
#     4  10  20  32  46  66  91 119 152 192 238 286
#     4   9  16  26  43  67  92 117 143 173 210 252
#     4   9  16  26  42  62  83 109 141 176 216 264
#
# _framework density 16.249634
#
# number of rings (size 3 to 8) (size 9 to 14) (size 15 to 20)
#    0.000    2.333    0.000    4.167    0.000    6.667 
#    0.000    1.667    0.000    0.333    0.000    0.000 
#    0.000    0.000    0.000    0.500    0.000    8.000 
#
# Total GULP energy -892296.226071 kJ/mol
# GULP energy per Si atom -12393.003140 kJ/mol
# Density = 1.621265 g / cm^3
# Si number density = 16.249634 Si / 1000 Ang^3
#
#
#
# Elastic Constant Matrix: (Units=GPa)
#
#
# Indices 1 2 3 4 5 6 
#
# 1 82.4892 49.4142 54.9194 0.0000 0.0000 0.0000
# 2 49.4142 82.4892 54.9194 0.0000 0.0000 0.0000
# 3 54.9194 54.9194 131.0391 0.0000 0.0000 0.0000
# 4 0.0000 0.0000 0.0000 26.8937 0.0000 0.0000
# 5 0.0000 0.0000 0.0000 0.0000 26.8937 0.0000
# 6 0.0000 0.0000 0.0000 0.0000 0.0000 16.5375
#
#
#
# Elastic Compliance Matrix: (Units=1/GPa)
#
#
# Indices 1 2 3 4 5 6 
#
# 1 0.020940 -0.009294 -0.004881 0.000000 0.000000 0.000000
# 2 -0.009294 0.020940 -0.004881 0.000000 0.000000 0.000000
# 3 -0.004881 -0.004881 0.011722 0.000000 0.000000 0.000000
# 4 0.000000 0.000000 0.000000 0.037183 0.000000 0.000000
# 5 0.000000 0.000000 0.000000 0.000000 0.037183 0.000000
# 6 0.000000 0.000000 0.000000 0.000000 0.000000 0.060469
#
#
# Mechanical properties :
#
#
# Convention : Reuss Voigt Hill
#
# Bulk Modulus (GPa) = 64.55516 68.28038 66.41777
# Shear Modulus (GPa) = 21.57839 23.18261 22.38050
#
# Velocity S-wave (km/s) = 3.64803 3.78121 3.71522
# Velocity P-wave (km/s) = 7.58667 7.82140 7.70493
#
# Compressibility (1/GPa) = 0.01549063
#
# Stress axis : x y z
#
# Youngs Moduli (GPa) = 47.75551 47.75551 85.30661
#
# Poissons Ratio (x) = 0.44386 0.41636
# Poissons Ratio (y) = 0.44386 0.41636
# Poissons Ratio (z) = 0.23308 0.23308
#
# Static dielectric constant tensor:
#      x y z
#    x 3.227150 0.000000 0.000000 
#    y 0.000000 3.227150 0.000000 
#    z 0.000000 0.000000 3.290390 
# 
# 
# High freq. dielectric constant tensor:
#      x y z
#    x 1.598650 0.000000 0.000000 
#    y 0.000000 1.598650 0.000000 
#    z 0.000000 0.000000 1.650730 
# 
# From -- ./inp_files/1016.got.cif
#   From: 2010.03.12/outbox.cif.g09.slc.cpg/sg188_1_cif.got.tgz:1016.got - 2010.04.01 12:01:06.
