data_PCOD8327383
_publ_section_title
;
Structure prediction by ZEFSAII (Michael W. Deem and Ramdas Pophale) SiO2 
 PCOD8327383
Probable space group: P -6 C 2
;
_chemical_formula_sum "Si O2"
_cell_formula_units_Z 42
_cell_length_a 11.815890
_cell_length_b 11.815890
_cell_length_c 20.049892
_cell_angle_alpha 90.000000
_cell_angle_beta 90.000000
_cell_angle_gamma 120.000000
_cell_volume 2424.239637
_symmetry_space_group_name_H-M "P -6 C 2"
_symmetry_group_IT_number 188
_symmetry_cell_setting 'hexagonal'
loop_
_space_group_symop_operation_xyz
x,y,z
-x+y,-x,1/2-z
-y,x-y,z
x,y,1/2-z
-x+y,-x,z
-y,x-y,1/2-z
-y,-x,-z
-x+y,y,-z
x,x-y,-z
-x+y,y,1/2+z
x,x-y,1/2+z
-y,-x,1/2+z
loop_
_atom_site_type_symbol
_atom_site_label
_atom_site_fract_x
_atom_site_fract_y
_atom_site_fract_z
Si Si1 0.082570 0.165139 0.000000
Si Si2 0.589494 0.794748 0.575593
Si Si3 0.583467 0.416534 0.000000
Si Si4 0.837149 0.418575 0.250000
Si Si5 0.488571 0.977139 0.122853
O O1 0.126792 0.253583 0.933356
O O2 0.149798 0.074899 0.000000
O O3 0.525663 0.762832 0.500000
O O4 0.550371 0.883615 0.618829
O O5 0.550370 0.666759 0.618829
O O6 0.517416 0.258708 0.000000
O O7 0.538649 0.461357 0.936735
O O8 0.740563 0.259438 0.250000
O O9 0.934566 0.467284 0.188046
#
# Coordination Sequence:
#
# PCOD8327383 Si02
#       5
#     6  12   6   6  12
#     4   8  18  34  44  86 126 142 190 244 294 350
#     4  10  21  34  61  90 121 153 200 257 301 372
#     4  10  20  32  60  94 112 168 220 258 324 356
#     4  10  26  46  60  94 124 162 212 276 304 376
#     4  12  21  40  61  89 130 160 204 263 320 362
#
# _framework density 17.325019999999999
#
# number of rings (size 3 to 8) (size 9 to 14) (size 15 to 20)
#    1.714    0.000    2.857    2.286    0.000    8.000 
#    0.000    0.000    0.000    0.000    0.000    0.000 
#    0.000    0.000    0.000    0.000    0.000    0.000 
#
# Total GULP energy -520306.265200 kJ/mol
# GULP energy per Si atom -12388.244410 kJ/mol
# Density = 1.728559 g / cm^3
# Si number density = 17.325020 Si / 1000 Ang^3
#
#
#
# Elastic Constant Matrix: (Units=GPa)
#
#
# Indices 1 2 3 4 5 6 
#
# 1 163.1522 73.2544 64.6444 0.0000 0.0000 0.0000
# 2 73.2544 163.1522 64.6444 0.0000 0.0000 0.0000
# 3 64.6444 64.6444 135.2156 0.0000 0.0000 0.0000
# 4 0.0000 0.0000 0.0000 33.1681 0.0000 0.0000
# 5 0.0000 0.0000 0.0000 0.0000 33.1681 0.0000
# 6 0.0000 0.0000 0.0000 0.0000 0.0000 44.9489
#
#
#
# Elastic Compliance Matrix: (Units=1/GPa)
#
#
# Indices 1 2 3 4 5 6 
#
# 1 0.008426 -0.002698 -0.002738 0.000000 0.000000 0.000000
# 2 -0.002698 0.008426 -0.002738 0.000000 0.000000 0.000000
# 3 -0.002738 -0.002738 0.010014 0.000000 0.000000 0.000000
# 4 0.000000 0.000000 0.000000 0.030149 0.000000 0.000000
# 5 0.000000 0.000000 0.000000 0.000000 0.030149 0.000000
# 6 0.000000 0.000000 0.000000 0.000000 0.000000 0.022247
#
#
# Mechanical properties :
#
#
# Convention : Reuss Voigt Hill
#
# Bulk Modulus (GPa) = 95.09401 96.28957 95.69179
# Shear Modulus (GPa) = 38.67997 39.52215 39.10106
#
# Velocity S-wave (km/s) = 4.73017 4.78139 4.75585
# Velocity P-wave (km/s) = 9.21087 9.28339 9.24720
#
# Compressibility (1/GPa) = 0.01051591
#
# Stress axis : x y z
#
# Youngs Moduli (GPa) = 118.68548 118.68548 99.86213
#
# Poissons Ratio (x) = 0.32023 0.27345
# Poissons Ratio (y) = 0.32023 0.27345
# Poissons Ratio (z) = 0.32499 0.32499
#
# Static dielectric constant tensor:
#      x y z
#    x 3.267030 0.000000 0.000000 
#    y 0.000000 3.267030 0.000000 
#    z 0.000000 0.000000 2.727360 
# 
# 
# High freq. dielectric constant tensor:
#      x y z
#    x 1.676930 0.000000 0.000000 
#    y 0.000000 1.676930 0.000000 
#    z 0.000000 0.000000 1.641710 
# 
# From -- ./inp_files/3544.got.cif
#   From: 2010.03.12/outbox.cif.g09.slc.cpg/sg188_2_cif.got.tgz:3544.got - 2010.04.01 12:01:06.
