data_PCOD8327831
_publ_section_title
;
Structure prediction by ZEFSAII (Michael W. Deem and Ramdas Pophale) SiO2 
 PCOD8327831
Probable space group: P -6 2 M
;
_chemical_formula_sum "Si O2"
_cell_formula_units_Z 84
_cell_length_a 18.223113
_cell_length_b 18.223113
_cell_length_c 13.880859
_cell_angle_alpha 90.000000
_cell_angle_beta 90.000000
_cell_angle_gamma 120.000000
_cell_volume 3992.014507
_symmetry_space_group_name_H-M "P -6 2 M"
_symmetry_group_IT_number 189
_symmetry_cell_setting 'hexagonal'
loop_
_space_group_symop_operation_xyz
x,y,z
-x+y,-x,-z
-y,x-y,z
x,y,-z
-x+y,-x,z
-y,x-y,-z
x-y,-y,-z
-x,-x+y,-z
y,x,-z
y,x,z
x-y,-y,z
-x,-x+y,z
loop_
_atom_site_type_symbol
_atom_site_label
_atom_site_fract_x
_atom_site_fract_y
_atom_site_fract_z
Si Si1 0.803416 0.284797 0.609633
Si Si2 0.192231 0.815452 0.114402
Si Si3 0.900047 0.801673 0.786386
Si Si4 0.629702 0.093667 0.196298
Si Si5 0.615451 0.519017 0.113646
Si Si6 0.706090 0.803269 0.390368
Si Si7 0.616548 0.148481 0.610110
O O1 0.832706 0.293881 0.500000
O O2 0.845544 0.233262 0.656923
O O3 0.702388 0.238375 0.618439
O O4 0.840899 0.379669 0.648661
O O5 0.150265 0.871382 0.144059
O O6 0.146201 0.724973 0.163464
O O7 0.288611 0.856195 0.151898
O O8 0.186661 0.806366 0.000000
O O9 0.867548 0.867548 0.808462
O O10 0.882072 0.771141 0.675157
O O11 0.000000 0.847051 0.806577
O O12 0.575814 0.136369 0.157141
O O13 0.624271 0.086583 0.313296
O O14 0.591454 0.000000 0.152678
O O15 0.574325 0.574325 0.148698
O O16 0.614070 0.510335 0.000000
O O17 0.712863 0.836918 0.500000
O O18 0.728387 0.728387 0.386207
O O19 0.604059 0.113497 0.500000
#
# Coordination Sequence:
#
# PCOD8327831 Si02
#       7
#    12  12  12  12  12  12  12
#     4   9  18  34  53  77 114 161 210 257 302 354
#     4  11  24  44  67  91 120 162 210 260 321 387
#     4  11  24  41  65  96 130 166 210 263 322 387
#     4  11  24  38  60  92 124 161 203 253 312 365
#     4   9  20  41  65  89 119 155 199 251 306 367
#     4   9  19  36  60  89 122 165 214 261 310 372
#     4  10  21  35  54  82 121 164 205 248 301 361
#
# _framework density 21.042006000000001
#
# number of rings (size 3 to 8) (size 9 to 14) (size 15 to 20)
#    0.000    2.000    0.000    2.571    4.000    4.857 
#    0.857    1.429    0.000    6.000    0.000    0.000 
#    0.000    0.000    0.000    0.000    0.000    0.000 
#
# Total GULP energy -1041336.944903 kJ/mol
# GULP energy per Si atom -12396.868392 kJ/mol
# Density = 2.099411 g / cm^3
# Si number density = 21.042006 Si / 1000 Ang^3
#
#
#
# Elastic Constant Matrix: (Units=GPa)
#
#
# Indices 1 2 3 4 5 6 
#
# 1 108.3891 38.8554 20.0191 0.0000 0.0000 0.0000
# 2 38.8554 108.3891 20.0191 0.0000 0.0000 0.0000
# 3 20.0191 20.0191 46.0468 0.0000 0.0000 0.0000
# 4 0.0000 0.0000 0.0000 26.9939 0.0000 0.0000
# 5 0.0000 0.0000 0.0000 0.0000 26.9939 0.0000
# 6 0.0000 0.0000 0.0000 0.0000 0.0000 34.7669
#
#
#
# Elastic Compliance Matrix: (Units=1/GPa)
#
#
# Indices 1 2 3 4 5 6 
#
# 1 0.011042 -0.003340 -0.003348 0.000000 0.000000 0.000000
# 2 -0.003340 0.011042 -0.003348 0.000000 0.000000 0.000000
# 3 -0.003348 -0.003348 0.024629 0.000000 0.000000 0.000000
# 4 0.000000 0.000000 0.000000 0.037045 0.000000 0.000000
# 5 0.000000 0.000000 0.000000 0.000000 0.037045 0.000000
# 6 0.000000 0.000000 0.000000 0.000000 0.000000 0.028763
#
#
# Mechanical properties :
#
#
# Convention : Reuss Voigt Hill
#
# Bulk Modulus (GPa) = 37.53955 46.73470 42.13712
# Shear Modulus (GPa) = 28.00828 30.01305 29.01066
#
# Velocity S-wave (km/s) = 3.65233 3.78079 3.71712
# Velocity P-wave (km/s) = 5.97203 6.42787 6.20414
#
# Compressibility (1/GPa) = 0.02663857
#
# Stress axis : x y z
#
# Youngs Moduli (GPa) = 90.56565 90.56565 40.60332
#
# Poissons Ratio (x) = 0.30247 0.13596
# Poissons Ratio (y) = 0.30247 0.13596
# Poissons Ratio (z) = 0.30325 0.30325
#
# Static dielectric constant tensor:
#      x y z
#    x 3.786630 0.000000 0.000000 
#    y 0.000000 3.786630 0.000000 
#    z 0.000000 0.000000 3.901420 
# 
# 
# High freq. dielectric constant tensor:
#      x y z
#    x 1.819090 0.000000 0.000000 
#    y 0.000000 1.819090 0.000000 
#    z 0.000000 0.000000 1.832850 
# 
# From -- ./inp_files/2802.got.cif
#   From: 2010.03.12/outbox.cif.g09.slc.cpg/sg189_2_cif.got.tgz:2802.got - 2010.04.01 12:03:36.
