data_PCOD8327718
_publ_section_title
;
Structure prediction by ZEFSAII (Michael W. Deem and Ramdas Pophale) SiO2 
 PCOD8327718
Probable space group: P -6 2 M
;
_chemical_formula_sum "Si O2"
_cell_formula_units_Z 72
_cell_length_a 24.189975
_cell_length_b 24.189975
_cell_length_c 8.637536
_cell_angle_alpha 90.000000
_cell_angle_beta 90.000000
_cell_angle_gamma 120.000000
_cell_volume 4377.149109
_symmetry_space_group_name_H-M "P -6 2 M"
_symmetry_group_IT_number 189
_symmetry_cell_setting 'hexagonal'
loop_
_space_group_symop_operation_xyz
x,y,z
-x+y,-x,-z
-y,x-y,z
x,y,-z
-x+y,-x,z
-y,x-y,-z
x-y,-y,-z
-x,-x+y,-z
y,x,-z
y,x,z
x-y,-y,z
-x,-x+y,z
loop_
_atom_site_type_symbol
_atom_site_label
_atom_site_fract_x
_atom_site_fract_y
_atom_site_fract_z
Si Si1 0.927379 0.628900 0.317543
Si Si2 0.625351 0.485489 0.681261
Si Si3 0.140157 0.629415 0.179768
Si Si4 0.748029 0.485732 0.678591
Si Si5 0.623321 0.694629 0.821301
Si Si6 0.378999 0.193521 0.820942
O O1 0.921850 0.632927 0.500000
O O2 0.900594 0.555493 0.269968
O O3 0.888318 0.660080 0.234403
O O4 0.000000 0.670242 0.260919
O O5 0.611345 0.478040 0.500000
O O6 0.559484 0.443122 0.771671
O O7 0.674518 0.460286 0.726061
O O8 0.653796 0.559137 0.724577
O O9 0.216045 0.672663 0.221365
O O10 0.128664 0.632479 0.000000
O O11 0.753275 0.471255 0.500000
O O12 0.784811 0.560927 0.707663
O O13 0.675680 0.675680 0.768714
O O14 0.654664 0.771555 0.795835
O O15 0.604493 0.677661 0.000000
O O16 0.399639 0.210952 0.000000
#
# Coordination Sequence:
#
# PCOD8327718 Si02
#       6
#    12  12  12  12  12  12
#     4  10  20  33  49  68  91 120 152 185 224 271
#     4  10  20  33  48  65  87 116 149 189 235 280
#     4  11  21  32  48  66  87 114 146 190 238 282
#     4   9  17  31  48  62  80 109 143 180 225 277
#     4   9  18  32  49  70  95 122 151 182 221 269
#     4   9  16  28  48  69  90 116 144 178 215 257
#
# _framework density 16.449062000000001
#
# number of rings (size 3 to 8) (size 9 to 14) (size 15 to 20)
#    0.000    2.333    0.000    5.500    0.000    5.000 
#    1.000    0.000    0.000    0.000    0.000    0.000 
#    0.000    0.000    0.000    0.500    0.000    7.667 
#
# Total GULP energy -892119.142245 kJ/mol
# GULP energy per Si atom -12390.543642 kJ/mol
# Density = 1.641162 g / cm^3
# Si number density = 16.449062 Si / 1000 Ang^3
#
#
#
# Elastic Constant Matrix: (Units=GPa)
#
#
# Indices 1 2 3 4 5 6 
#
# 1 86.7107 53.8177 23.7902 0.0000 0.0000 0.0000
# 2 53.8177 86.7107 23.7902 0.0000 0.0000 0.0000
# 3 23.7902 23.7902 43.7067 0.0000 0.0000 0.0000
# 4 0.0000 0.0000 0.0000 21.0026 0.0000 0.0000
# 5 0.0000 0.0000 0.0000 0.0000 21.0026 0.0000
# 6 0.0000 0.0000 0.0000 0.0000 0.0000 16.4465
#
#
#
# Elastic Compliance Matrix: (Units=1/GPa)
#
#
# Indices 1 2 3 4 5 6 
#
# 1 0.019563 -0.010839 -0.004748 0.000000 0.000000 0.000000
# 2 -0.010839 0.019563 -0.004748 0.000000 0.000000 0.000000
# 3 -0.004748 -0.004748 0.028049 0.000000 0.000000 0.000000
# 4 0.000000 0.000000 0.000000 0.047613 0.000000 0.000000
# 5 0.000000 0.000000 0.000000 0.000000 0.047613 0.000000
# 6 0.000000 0.000000 0.000000 0.000000 0.000000 0.060803
#
#
# Mechanical properties :
#
#
# Convention : Reuss Voigt Hill
#
# Bulk Modulus (GPa) = 37.73194 46.65826 42.19510
# Shear Modulus (GPa) = 18.33450 19.40567 18.87008
#
# Velocity S-wave (km/s) = 3.34222 3.43846 3.39068
# Velocity P-wave (km/s) = 6.15486 6.64763 6.40599
#
# Compressibility (1/GPa) = 0.02650275
#
# Stress axis : x y z
#
# Youngs Moduli (GPa) = 51.11782 51.11782 35.65176
#
# Poissons Ratio (x) = 0.55406 0.16929
# Poissons Ratio (y) = 0.55406 0.16929
# Poissons Ratio (z) = 0.24273 0.24273
#
# Static dielectric constant tensor:
#      x y z
#    x 3.237270 0.000000 0.000000 
#    y 0.000000 3.237270 0.000000 
#    z 0.000000 0.000000 3.136470 
# 
# 
# High freq. dielectric constant tensor:
#      x y z
#    x 1.606010 0.000000 0.000000 
#    y 0.000000 1.606010 0.000000 
#    z 0.000000 0.000000 1.646790 
# 
# From -- ./inp_files/1263.got.cif
#   From: 2010.03.12/outbox.cif.g09.slc.cpg/sg189_1_cif.got.tgz:1263.got - 2010.04.01 12:03:36.
