data_PCOD8327483
_publ_section_title
;
Structure prediction by ZEFSAII (Michael W. Deem and Ramdas Pophale) SiO2 
 PCOD8327483
Probable space group: P -6 2 M
;
_chemical_formula_sum "Si O2"
_cell_formula_units_Z 66
_cell_length_a 13.693816
_cell_length_b 13.693816
_cell_length_c 23.588322
_cell_angle_alpha 90.000000
_cell_angle_beta 90.000000
_cell_angle_gamma 120.000000
_cell_volume 3830.686891
_symmetry_space_group_name_H-M "P -6 2 M"
_symmetry_group_IT_number 189
_symmetry_cell_setting 'hexagonal'
loop_
_space_group_symop_operation_xyz
x,y,z
-x+y,-x,-z
-y,x-y,z
x,y,-z
-x+y,-x,z
-y,x-y,-z
x-y,-y,-z
-x,-x+y,-z
y,x,-z
y,x,z
x-y,-y,z
-x,-x+y,z
loop_
_atom_site_type_symbol
_atom_site_label
_atom_site_fract_x
_atom_site_fract_y
_atom_site_fract_z
Si Si1 0.126393 0.465236 0.378564
Si Si2 0.562226 0.434598 0.000000
Si Si3 0.707222 0.233792 0.208577
Si Si4 0.649882 0.449202 0.500000
Si Si5 0.295691 0.424364 0.906048
Si Si6 0.334996 0.127690 0.000000
Si Si7 0.676505 0.131980 0.326547
O O1 0.127811 0.489721 0.445056
O O2 0.159855 0.578499 0.342787
O O3 0.214210 0.422462 0.365266
O O4 0.000000 0.368088 0.362528
O O5 0.540454 0.359337 0.943400
O O6 0.458655 0.458655 0.000000
O O7 0.679622 0.545399 0.000000
O O8 0.791741 0.369282 0.209521
O O9 0.743697 0.194019 0.152722
O O10 0.718553 0.168402 0.262222
O O11 0.769598 0.451210 0.500000
O O12 0.378260 0.378260 0.889813
O O13 0.189566 0.330260 0.942693
O O14 0.231992 0.000000 0.000000
O O15 0.634738 0.000000 0.335971
#
# Coordination Sequence:
#
# PCOD8327483 Si02
#       7
#    12   6  12   6  12   6  12
#     4  11  20  34  53  78 111 147 187 229 277 332
#     4   8  16  29  44  63  90 119 156 194 243 296
#     4  10  19  31  51  76 106 134 174 209 258 322
#     4  10  17  30  54  74 115 142 182 232 278 332
#     4  10  19  32  48  71  98 126 160 205 257 309
#     4  10  19  33  49  67  93 131 171 210 250 308
#     4  11  20  35  55  76 113 150 186 231 274 329
#
# _framework density 17.229285000000001
#
# number of rings (size 3 to 8) (size 9 to 14) (size 15 to 20)
#    0.545    1.273    3.636    3.091    0.000    0.000 
#    4.364    2.273    0.000    1.818    0.000    0.000 
#    0.000    0.000    0.000    0.000    0.000    0.000 
#
# Total GULP energy -818008.132112 kJ/mol
# GULP energy per Si atom -12394.062608 kJ/mol
# Density = 1.719007 g / cm^3
# Si number density = 17.229285 Si / 1000 Ang^3
#
#
#
# Elastic Constant Matrix: (Units=GPa)
#
#
# Indices 1 2 3 4 5 6 
#
# 1 65.3746 21.4723 15.6551 0.0000 0.0000 0.0000
# 2 21.4723 65.3746 15.6551 0.0000 0.0000 0.0000
# 3 15.6551 15.6551 112.1667 0.0000 0.0000 0.0000
# 4 0.0000 0.0000 0.0000 15.6011 0.0000 0.0000
# 5 0.0000 0.0000 0.0000 0.0000 15.6011 0.0000
# 6 0.0000 0.0000 0.0000 0.0000 0.0000 21.9511
#
#
#
# Elastic Compliance Matrix: (Units=1/GPa)
#
#
# Indices 1 2 3 4 5 6 
#
# 1 0.017451 -0.005327 -0.001692 0.000000 0.000000 0.000000
# 2 -0.005327 0.017451 -0.001692 0.000000 0.000000 0.000000
# 3 -0.001692 -0.001692 0.009388 0.000000 0.000000 0.000000
# 4 0.000000 0.000000 0.000000 0.064098 0.000000 0.000000
# 5 0.000000 0.000000 0.000000 0.000000 0.064098 0.000000
# 6 0.000000 0.000000 0.000000 0.000000 0.000000 0.045556
#
#
# Mechanical properties :
#
#
# Convention : Reuss Voigt Hill
#
# Bulk Modulus (GPa) = 37.21905 38.72009 37.96957
# Shear Modulus (GPa) = 20.45661 23.30624 21.88143
#
# Velocity S-wave (km/s) = 3.44948 3.68191 3.56759
# Velocity P-wave (km/s) = 6.12490 6.37162 6.24947
#
# Compressibility (1/GPa) = 0.02686796
#
# Stress axis : x y z
#
# Youngs Moduli (GPa) = 57.30254 57.30254 106.52269
#
# Poissons Ratio (x) = 0.30523 0.18026
# Poissons Ratio (y) = 0.30523 0.18026
# Poissons Ratio (z) = 0.09697 0.09697
#
# Static dielectric constant tensor:
#      x y z
#    x 3.006760 0.000000 0.000000 
#    y 0.000000 3.006760 0.000000 
#    z 0.000000 0.000000 3.217070 
# 
# 
# High freq. dielectric constant tensor:
#      x y z
#    x 1.636010 0.000000 0.000000 
#    y 0.000000 1.636010 0.000000 
#    z 0.000000 0.000000 1.677420 
# 
# From -- ./inp_files/3424.got.cif
#   From: 2010.03.12/outbox.cif.g09.slc.cpg/sg189_2_cif.got.tgz:3424.got - 2010.04.01 12:03:36.
