data_PCOD8327307
_publ_section_title
;
Structure prediction by ZEFSAII (Michael W. Deem and Ramdas Pophale) SiO2 
 PCOD8327307
Probable space group: P -6 C 2
;
_chemical_formula_sum "Si O2"
_cell_formula_units_Z 72
_cell_length_a 24.115091
_cell_length_b 24.115091
_cell_length_c 8.880824
_cell_angle_alpha 90.000000
_cell_angle_beta 90.000000
_cell_angle_gamma 120.000000
_cell_volume 4472.616949
_symmetry_space_group_name_H-M "P -6 C 2"
_symmetry_group_IT_number 188
_symmetry_cell_setting 'hexagonal'
loop_
_space_group_symop_operation_xyz
x,y,z
-x+y,-x,1/2-z
-y,x-y,z
x,y,1/2-z
-x+y,-x,z
-y,x-y,1/2-z
-y,-x,-z
-x+y,y,-z
x,x-y,-z
-x+y,y,1/2+z
x,x-y,1/2+z
-y,-x,1/2+z
loop_
_atom_site_type_symbol
_atom_site_label
_atom_site_fract_x
_atom_site_fract_y
_atom_site_fract_z
Si Si1 0.197313 0.046952 0.074839
Si Si2 0.448050 0.780394 0.928046
Si Si3 0.336167 0.001608 0.428902
Si Si4 0.335493 0.112910 0.571482
Si Si5 0.191066 0.269259 0.922236
Si Si6 0.406499 0.926522 0.426398
O O1 0.212126 0.065996 0.250000
O O2 0.162636 0.970188 0.055965
O O3 0.157451 0.078726 0.000000
O O4 0.262222 0.076349 0.980345
O O5 0.440877 0.770457 0.750000
O O6 0.497190 0.853658 0.973324
O O7 0.378995 0.757990 0.000000
O O8 0.475566 0.737783 0.000000
O O9 0.336391 0.010687 0.250000
O O10 0.263362 0.954429 0.485793
O O11 0.379030 0.971429 0.481740
O O12 0.366143 0.071350 0.507065
O O13 0.342226 0.117950 0.750000
O O14 0.369524 0.184762 0.500000
O O15 0.192340 0.287218 0.750000
O O16 0.145376 0.290752 0.000000
O O17 0.416979 0.931640 0.250000
O O18 0.475545 0.951089 0.500000
#
# Coordination Sequence:
#
# PCOD8327307 Si02
#       6
#    12  12  12  12  12  12
#     4   9  16  27  42  60  81 107 137 171 210 256
#     4  10  19  31  46  64  83 108 143 190 244 295
#     4   9  18  33  47  63  89 119 147 181 222 264
#     4  10  17  26  43  67  90 113 139 169 203 245
#     4   9  18  29  42  61  86 112 141 178 224 270
#     4   9  19  34  50  65  87 117 150 187 229 276
#
# _framework density 16.097958999999999
#
# number of rings (size 3 to 8) (size 9 to 14) (size 15 to 20)
#    0.000    2.667    0.000    4.667    0.000    5.333 
#    0.000    0.000    0.000    0.333    0.000    0.000 
#    0.000    0.000    0.000    0.500    0.000    8.000 
#
# Total GULP energy -892300.040185 kJ/mol
# GULP energy per Si atom -12393.056114 kJ/mol
# Density = 1.606132 g / cm^3
# Si number density = 16.097959 Si / 1000 Ang^3
#
#
#
# Elastic Constant Matrix: (Units=GPa)
#
#
# Indices 1 2 3 4 5 6 
#
# 1 91.6158 58.2812 38.5482 0.0001 0.0000 0.0000
# 2 58.2812 91.6158 38.5482 -0.0001 0.0000 0.0000
# 3 38.5482 38.5482 73.5949 0.0000 0.0000 0.0000
# 4 0.0001 -0.0001 0.0000 22.3704 0.0000 0.0000
# 5 0.0000 0.0000 0.0000 0.0000 22.3704 0.0001
# 6 0.0000 0.0000 0.0000 0.0000 0.0001 16.6673
#
#
#
# Elastic Compliance Matrix: (Units=1/GPa)
#
#
# Indices 1 2 3 4 5 6 
#
# 1 0.019565 -0.010434 -0.004783 0.000000 0.000000 0.000000
# 2 -0.010434 0.019565 -0.004783 0.000000 0.000000 0.000000
# 3 -0.004783 -0.004783 0.018598 0.000000 0.000000 0.000000
# 4 0.000000 0.000000 0.000000 0.044702 0.000000 0.000000
# 5 0.000000 0.000000 0.000000 0.000000 0.044702 0.000000
# 6 0.000000 0.000000 0.000000 0.000000 0.000000 0.059998
#
#
# Mechanical properties :
#
#
# Convention : Reuss Voigt Hill
#
# Bulk Modulus (GPa) = 56.40355 58.62020 57.51187
# Shear Modulus (GPa) = 19.75983 20.37822 20.06903
#
# Velocity S-wave (km/s) = 3.50733 3.56179 3.53467
# Velocity P-wave (km/s) = 7.17744 7.30814 7.24308
#
# Compressibility (1/GPa) = 0.01772938
#
# Stress axis : x y z
#
# Youngs Moduli (GPa) = 51.11159 51.11159 53.76847
#
# Poissons Ratio (x) = 0.53329 0.25716
# Poissons Ratio (y) = 0.53329 0.25716
# Poissons Ratio (z) = 0.24446 0.24446
#
# Static dielectric constant tensor:
#      x y z
#    x 3.153240 0.000000 0.000000 
#    y 0.000000 3.153240 0.000000 
#    z 0.000000 0.000000 3.061930 
# 
# 
# High freq. dielectric constant tensor:
#      x y z
#    x 1.592500 0.000000 0.000000 
#    y 0.000000 1.592500 0.000000 
#    z 0.000000 0.000000 1.625770 
# 
# From -- ./inp_files/1041.got.cif
#   From: 2010.03.12/outbox.cif.g09.slc.cpg/sg188_1_cif.got.tgz:1041.got - 2010.04.01 12:01:06.
