data_PCOD8327479
_publ_section_title
;
Structure prediction by ZEFSAII (Michael W. Deem and Ramdas Pophale) SiO2 
 PCOD8327479
Probable space group: P -6 2 M
;
_chemical_formula_sum "Si O2"
_cell_formula_units_Z 60
_cell_length_a 18.916891
_cell_length_b 18.916891
_cell_length_c 13.950516
_cell_angle_alpha 90.000000
_cell_angle_beta 90.000000
_cell_angle_gamma 120.000000
_cell_volume 4323.350304
_symmetry_space_group_name_H-M "P -6 2 M"
_symmetry_group_IT_number 189
_symmetry_cell_setting 'hexagonal'
loop_
_space_group_symop_operation_xyz
x,y,z
-x+y,-x,-z
-y,x-y,z
x,y,-z
-x+y,-x,z
-y,x-y,-z
x-y,-y,-z
-x,-x+y,-z
y,x,-z
y,x,z
x-y,-y,z
-x,-x+y,z
loop_
_atom_site_type_symbol
_atom_site_label
_atom_site_fract_x
_atom_site_fract_y
_atom_site_fract_z
Si Si1 0.664241 0.480163 0.613199
Si Si2 0.332793 0.513890 0.303335
Si Si3 0.574423 0.330169 0.894558
Si Si4 0.245016 0.910601 0.386905
Si Si5 0.907934 0.659152 0.387428
O O1 0.656103 0.467707 0.500000
O O2 0.731018 0.457638 0.649982
O O3 0.577132 0.423751 0.661910
O O4 0.692338 0.572747 0.643261
O O5 0.327907 0.514267 0.187691
O O6 0.311427 0.423883 0.334041
O O7 0.588117 0.251989 0.884584
O O8 0.537144 0.328754 0.000000
O O9 0.244607 0.918353 0.500000
O O10 0.153504 0.844025 0.352243
O O11 0.274723 0.000000 0.340581
O O12 0.895514 0.638643 0.500000
O O13 0.000000 0.728692 0.363159
#
# Coordination Sequence:
#
# PCOD8327479 Si02
#       5
#    12  12  12  12  12
#     4  10  17  22  33  55  80 108 138 166 195 226
#     4  11  16  25  37  55  81 110 137 173 197 235
#     4   8  14  25  38  54  75 103 144 183 207 225
#     4   8  15  27  40  53  72 100 132 163 192 227
#     4   9  18  29  40  57  82 109 132 158 203 255
#
# _framework density 13.878126
#
# number of rings (size 3 to 8) (size 9 to 14) (size 15 to 20)
#    0.400    2.400    2.000    3.400    0.000    0.800 
#    0.000    2.000    0.000    1.000    0.000    2.800 
#    0.000   12.800    0.000    0.000    0.000    0.000 
#
# Total GULP energy -743518.846990 kJ/mol
# GULP energy per Si atom -12391.980783 kJ/mol
# Density = 1.384654 g / cm^3
# Si number density = 13.878126 Si / 1000 Ang^3
#
#
#
# Elastic Constant Matrix: (Units=GPa)
#
#
# Indices 1 2 3 4 5 6 
#
# 1 83.2458 56.4494 25.2967 0.0000 0.0000 0.0000
# 2 56.4494 83.2458 25.2967 0.0000 0.0000 0.0000
# 3 25.2967 25.2967 70.2638 0.0000 0.0000 0.0000
# 4 0.0000 0.0000 0.0000 8.1134 0.0000 0.0000
# 5 0.0000 0.0000 0.0000 0.0000 8.1134 0.0000
# 6 0.0000 0.0000 0.0000 0.0000 0.0000 13.3982
#
#
#
# Elastic Compliance Matrix: (Units=1/GPa)
#
#
# Indices 1 2 3 4 5 6 
#
# 1 0.022775 -0.014543 -0.002964 0.000000 0.000000 0.000000
# 2 -0.014543 0.022775 -0.002964 0.000000 0.000000 0.000000
# 3 -0.002964 -0.002964 0.016366 0.000000 0.000000 0.000000
# 4 0.000000 0.000000 0.000000 0.123253 0.000000 0.000000
# 5 0.000000 0.000000 0.000000 0.000000 0.123253 0.000000
# 6 0.000000 0.000000 0.000000 0.000000 0.000000 0.074637
#
#
# Mechanical properties :
#
#
# Convention : Reuss Voigt Hill
#
# Bulk Modulus (GPa) = 47.67573 50.09346 48.88460
# Shear Modulus (GPa) = 11.60114 14.57249 13.08681
#
# Velocity S-wave (km/s) = 2.89438 3.24394 3.07413
# Velocity P-wave (km/s) = 6.75260 7.08551 6.92106
#
# Compressibility (1/GPa) = 0.02097503
#
# Stress axis : x y z
#
# Youngs Moduli (GPa) = 43.90749 43.90749 61.10205
#
# Poissons Ratio (x) = 0.63856 0.18109
# Poissons Ratio (y) = 0.63856 0.18109
# Poissons Ratio (z) = 0.13013 0.13013
#
# Static dielectric constant tensor:
#      x y z
#    x 2.699380 0.000000 0.000000 
#    y 0.000000 2.699380 0.000000 
#    z 0.000000 0.000000 2.545440 
# 
# 
# High freq. dielectric constant tensor:
#      x y z
#    x 1.507670 0.000000 0.000000 
#    y 0.000000 1.507670 0.000000 
#    z 0.000000 0.000000 1.502360 
# 
# From -- ./inp_files/2604.got.cif
#   From: 2010.03.12/outbox.cif.g09.slc.cpg/sg189_2_cif.got.tgz:2604.got - 2010.04.01 12:03:36.
