data_PCOD8327189
_publ_section_title
;
Structure prediction by ZEFSAII (Michael W. Deem and Ramdas Pophale) SiO2 
 PCOD8327189
Probable space group: P -6 M 2
;
_chemical_formula_sum "Si O2"
_cell_formula_units_Z 72
_cell_length_a 18.059684
_cell_length_b 18.059684
_cell_length_c 15.174919
_cell_angle_alpha 90.000000
_cell_angle_beta 90.000000
_cell_angle_gamma 120.000000
_cell_volume 4286.248116
_symmetry_space_group_name_H-M "P -6 M 2"
_symmetry_group_IT_number 187
_symmetry_cell_setting 'hexagonal'
loop_
_space_group_symop_operation_xyz
x,y,z
-x+y,-x,-z
-y,x-y,z
x,y,-z
-x+y,-x,z
-y,x-y,-z
-y,-x,-z
-x+y,y,-z
x,x-y,-z
-x+y,y,z
x,x-y,z
-y,-x,z
loop_
_atom_site_type_symbol
_atom_site_label
_atom_site_fract_x
_atom_site_fract_y
_atom_site_fract_z
Si Si1 0.332778 0.841204 0.240394
Si Si2 0.497370 0.163901 0.150999
Si Si3 0.922247 0.684808 0.598319
Si Si4 0.666209 0.169958 0.641806
Si Si5 0.021007 0.423227 0.098349
Si Si6 0.270589 0.371412 0.601572
O O1 0.414099 0.828197 0.236157
O O2 0.248888 0.751113 0.219735
O O3 0.337322 0.909706 0.168398
O O4 0.328724 0.875135 0.337927
O O5 0.590011 0.180022 0.119289
O O6 0.486844 0.243422 0.118362
O O7 0.488948 0.153302 0.255011
O O8 0.419488 0.075283 0.112723
O O9 0.932618 0.720811 0.500000
O O10 0.851043 0.702086 0.647550
O O11 0.888530 0.584151 0.592219
O O12 0.016228 0.728113 0.641205
O O13 0.572859 0.145718 0.606634
O O14 0.730606 0.269394 0.621413
O O15 0.015403 0.507702 0.111481
O O16 0.051864 0.417085 0.000000
O O17 0.304167 0.391962 0.500000
O O18 0.172823 0.345645 0.607356
#
# Coordination Sequence:
#
# PCOD8327189 Si02
#       6
#    12  12  12  12  12  12
#     4  10  20  34  51  69  89 115 149 188 230 277
#     4   9  16  26  41  61  87 120 155 187 219 259
#     4   9  17  28  42  61  85 115 151 185 216 257
#     4   9  16  25  37  55  81 114 151 187 219 250
#     4   9  18  31  45  63  88 116 147 186 229 267
#     4   9  18  32  49  69  93 119 144 175 221 270
#
# _framework density 16.797908
#
# number of rings (size 3 to 8) (size 9 to 14) (size 15 to 20)
#    0.000    2.833    0.000    1.500    0.000    4.667 
#    0.000    1.667    0.000    4.333    0.000    2.333 
#    0.000    0.000    0.000    0.500    0.000    2.667 
#
# Total GULP energy -892110.962277 kJ/mol
# GULP energy per Si atom -12390.430032 kJ/mol
# Density = 1.675968 g / cm^3
# Si number density = 16.797908 Si / 1000 Ang^3
#
#
#
# Elastic Constant Matrix: (Units=GPa)
#
#
# Indices 1 2 3 4 5 6 
#
# 1 88.0204 49.1607 35.6145 0.0000 0.0000 0.0000
# 2 49.1607 88.0204 35.6145 0.0000 0.0000 0.0000
# 3 35.6145 35.6145 65.2205 0.0000 0.0000 0.0000
# 4 0.0000 0.0000 0.0000 15.1944 0.0000 0.0000
# 5 0.0000 0.0000 0.0000 0.0000 15.1944 0.0000
# 6 0.0000 0.0000 0.0000 0.0000 0.0000 19.4298
#
#
#
# Elastic Compliance Matrix: (Units=1/GPa)
#
#
# Indices 1 2 3 4 5 6 
#
# 1 0.017954 -0.007780 -0.005556 0.000000 0.000000 0.000000
# 2 -0.007780 0.017954 -0.005556 0.000000 0.000000 0.000000
# 3 -0.005556 -0.005556 0.021400 0.000000 0.000000 0.000000
# 4 0.000000 0.000000 0.000000 0.065814 0.000000 0.000000
# 5 0.000000 0.000000 0.000000 0.000000 0.065814 0.000000
# 6 0.000000 0.000000 0.000000 0.000000 0.000000 0.051467
#
#
# Mechanical properties :
#
#
# Convention : Reuss Voigt Hill
#
# Bulk Modulus (GPa) = 51.21465 53.56008 52.38737
# Shear Modulus (GPa) = 17.56268 18.02182 17.79225
#
# Velocity S-wave (km/s) = 3.23697 3.27901 3.25806
# Velocity P-wave (km/s) = 6.67275 6.80368 6.73853
#
# Compressibility (1/GPa) = 0.01952566
#
# Stress axis : x y z
#
# Youngs Moduli (GPa) = 55.69781 55.69781 46.72829
#
# Poissons Ratio (x) = 0.43331 0.25962
# Poissons Ratio (y) = 0.43331 0.25962
# Poissons Ratio (z) = 0.30945 0.30945
#
# Static dielectric constant tensor:
#      x y z
#    x 3.164330 0.000000 0.000000 
#    y 0.000000 3.164330 0.000000 
#    z 0.000000 0.000000 3.105590 
# 
# 
# High freq. dielectric constant tensor:
#      x y z
#    x 1.631330 0.000000 0.000000 
#    y 0.000000 1.631330 0.000000 
#    z 0.000000 0.000000 1.636620 
# 
# From -- ./inp_files/3077.got.cif
#   From: 2010.03.12/outbox.cif.g09.slc.cpg/sg187_2_cif.got.tgz:3077.got - 2010.04.01 11:58:23.
