data_PCOD8327649
_publ_section_title
;
Structure prediction by ZEFSAII (Michael W. Deem and Ramdas Pophale) SiO2 
 PCOD8327649
Probable space group: P -6 2 M
;
_chemical_formula_sum "Si O2"
_cell_formula_units_Z 66
_cell_length_a 23.313414
_cell_length_b 23.313414
_cell_length_c 7.901986
_cell_angle_alpha 90.000000
_cell_angle_beta 90.000000
_cell_angle_gamma 120.000000
_cell_volume 3719.449268
_symmetry_space_group_name_H-M "P -6 2 M"
_symmetry_group_IT_number 189
_symmetry_cell_setting 'hexagonal'
loop_
_space_group_symop_operation_xyz
x,y,z
-x+y,-x,-z
-y,x-y,z
x,y,-z
-x+y,-x,z
-y,x-y,-z
x-y,-y,-z
-x,-x+y,-z
y,x,-z
y,x,z
x-y,-y,z
-x,-x+y,z
loop_
_atom_site_type_symbol
_atom_site_label
_atom_site_fract_x
_atom_site_fract_y
_atom_site_fract_z
Si Si1 0.844851 0.923303 0.000000
Si Si2 0.076972 0.835845 0.696890
Si Si3 0.807992 0.403410 0.189034
Si Si4 0.739511 0.261770 0.690789
Si Si5 0.393389 0.466406 0.700567
Si Si6 0.245539 0.389706 0.698569
O O1 0.802356 0.907135 0.173418
O O2 0.878300 0.878300 0.000000
O O3 0.901337 0.000000 0.000000
O O4 0.093921 0.861150 0.500000
O O5 0.121105 0.804661 0.767783
O O6 0.000000 0.779588 0.709296
O O7 0.789363 0.339824 0.304357
O O8 0.756777 0.430471 0.204053
O O9 0.881709 0.459252 0.235166
O O10 0.805518 0.378688 0.000000
O O11 0.714414 0.239048 0.500000
O O12 0.775298 0.220089 0.749514
O O13 0.392100 0.466114 0.500000
O O14 0.440923 0.440923 0.772770
O O15 0.319601 0.418138 0.771716
O O16 0.246356 0.380304 0.500000
#
# Coordination Sequence:
#
# PCOD8327649 Si02
#       6
#     6  12  12  12  12  12
#     4  10  21  36  54  80 110 142 174 204 242 292
#     4   9  17  32  54  80 109 137 167 207 255 304
#     4  11  21  32  45  69 101 128 159 205 259 299
#     4  10  19  33  51  68  91 129 173 209 251 307
#     4   9  17  31  51  72  96 129 165 199 242 300
#     4   8  15  29  51  76  98 123 160 208 254 296
#
# _framework density 17.744564
#
# number of rings (size 3 to 8) (size 9 to 14) (size 15 to 20)
#    0.000    2.545    0.000    4.273    0.000    2.909 
#    8.182    0.000    0.000    2.182    0.000    2.545 
#    0.000    0.000    0.000    0.000    0.000    0.000 
#
# Total GULP energy -817973.111816 kJ/mol
# GULP energy per Si atom -12393.531997 kJ/mol
# Density = 1.770418 g / cm^3
# Si number density = 17.744564 Si / 1000 Ang^3
#
#
#
# Elastic Constant Matrix: (Units=GPa)
#
#
# Indices 1 2 3 4 5 6 
#
# 1 126.4054 67.6861 27.7881 0.0000 0.0000 0.0000
# 2 67.6861 126.4054 27.7881 0.0000 0.0000 0.0000
# 3 27.7881 27.7881 59.0009 0.0000 0.0000 0.0000
# 4 0.0000 0.0000 0.0000 15.7360 0.0000 0.0000
# 5 0.0000 0.0000 0.0000 0.0000 15.7360 0.0000
# 6 0.0000 0.0000 0.0000 0.0000 0.0000 29.3597
#
#
#
# Elastic Compliance Matrix: (Units=1/GPa)
#
#
# Indices 1 2 3 4 5 6 
#
# 1 0.011493 -0.005537 -0.002805 0.000000 0.000000 0.000000
# 2 -0.005537 0.011493 -0.002805 0.000000 0.000000 0.000000
# 3 -0.002805 -0.002805 0.019591 0.000000 0.000000 0.000000
# 4 0.000000 0.000000 0.000000 0.063548 0.000000 0.000000
# 5 0.000000 0.000000 0.000000 0.000000 0.063548 0.000000
# 6 0.000000 0.000000 0.000000 0.000000 0.000000 0.034060
#
#
# Mechanical properties :
#
#
# Convention : Reuss Voigt Hill
#
# Bulk Modulus (GPa) = 49.30413 62.03739 55.67076
# Shear Modulus (GPa) = 21.47871 24.73630 23.10750
#
# Velocity S-wave (km/s) = 3.48291 3.73771 3.61256
# Velocity P-wave (km/s) = 6.63476 7.32561 6.98873
#
# Compressibility (1/GPa) = 0.02028228
#
# Stress axis : x y z
#
# Youngs Moduli (GPa) = 87.01131 87.01131 51.04400
#
# Poissons Ratio (x) = 0.48182 0.14317
# Poissons Ratio (y) = 0.48182 0.14317
# Poissons Ratio (z) = 0.24405 0.24405
#
# Static dielectric constant tensor:
#      x y z
#    x 3.232310 0.000000 0.000000 
#    y 0.000000 3.232310 0.000000 
#    z 0.000000 0.000000 3.209230 
# 
# 
# High freq. dielectric constant tensor:
#      x y z
#    x 1.670520 0.000000 0.000000 
#    y 0.000000 1.670520 0.000000 
#    z 0.000000 0.000000 1.684600 
# 
# From -- ./inp_files/1030.got.cif
#   From: 2010.03.12/outbox.cif.g09.slc.cpg/sg189_1_cif.got.tgz:1030.got - 2010.04.01 12:03:36.
