data_PCOD8327093
_publ_section_title
;
Structure prediction by ZEFSAII (Michael W. Deem and Ramdas Pophale) SiO2 
 PCOD8327093
Probable space group: P -6 M 2
;
_chemical_formula_sum "Si O2"
_cell_formula_units_Z 66
_cell_length_a 12.470604
_cell_length_b 12.470604
_cell_length_c 28.811586
_cell_angle_alpha 90.000000
_cell_angle_beta 90.000000
_cell_angle_gamma 120.000000
_cell_volume 3880.366749
_symmetry_space_group_name_H-M "P -6 M 2"
_symmetry_group_IT_number 187
_symmetry_cell_setting 'hexagonal'
loop_
_space_group_symop_operation_xyz
x,y,z
-x+y,-x,-z
-y,x-y,z
x,y,-z
-x+y,-x,z
-y,x-y,-z
-y,-x,-z
-x+y,y,-z
x,x-y,-z
-x+y,y,z
x,x-y,z
-y,-x,z
loop_
_atom_site_type_symbol
_atom_site_label
_atom_site_fract_x
_atom_site_fract_y
_atom_site_fract_z
Si Si1 0.415460 0.083667 0.588086
Si Si2 0.664817 0.584432 0.850391
Si Si3 0.251814 0.001243 0.500000
Si Si4 0.999882 0.250319 0.676411
Si Si5 0.584265 0.667826 0.764428
Si Si6 0.915562 0.335591 0.950971
O O1 0.537021 0.074042 0.585674
O O2 0.453928 0.226964 0.585520
O O3 0.344699 0.021420 0.635303
O O4 0.329273 0.008686 0.545231
O O5 0.795535 0.591069 0.843834
O O6 0.557638 0.442363 0.843845
O O7 0.650108 0.670352 0.812732
O O8 0.654213 0.637227 0.901600
O O9 0.127923 0.872077 0.500000
O O10 0.216015 0.108008 0.500000
O O11 0.889333 0.110668 0.680431
O O12 0.123499 0.246998 0.665577
O O13 0.008086 0.320312 0.723847
O O14 0.549191 0.774596 0.765598
O O15 0.460573 0.539428 0.755725
O O16 0.871036 0.435518 0.950205
O O17 0.796787 0.203214 0.952414
O O18 0.991637 0.352425 0.000000
#
# Coordination Sequence:
#
# PCOD8327093 Si02
#       6
#    12  12   6  12  12  12
#     4  10  20  34  53  76 102 131 162 196 234 278
#     4   9  16  26  42  65  91 116 143 179 226 277
#     4  10  20  34  54  78 104 134 168 208 250 290
#     4  10  20  34  53  75  98 123 152 191 238 286
#     4  10  20  33  48  65  88 121 159 195 229 269
#     4   8  12  18  31  54  84 114 140 169 212 269
#
# _framework density 17.008702
#
# number of rings (size 3 to 8) (size 9 to 14) (size 15 to 20)
#    0.000    2.545    0.000    2.909    0.000    2.182 
#    0.000    2.727    0.000   12.909    0.000    0.000 
#    0.000    1.455    0.000    0.000    0.000    0.000 
#
# Total GULP energy -817837.441012 kJ/mol
# GULP energy per Si atom -12391.476379 kJ/mol
# Density = 1.696999 g / cm^3
# Si number density = 17.008702 Si / 1000 Ang^3
#
#
#
# Elastic Constant Matrix: (Units=GPa)
#
#
# Indices 1 2 3 4 5 6 
#
# 1 81.9543 48.2808 53.9269 0.0000 0.0000 0.0000
# 2 48.2808 81.9543 53.9269 0.0000 0.0000 0.0000
# 3 53.9269 53.9269 146.5857 0.0000 0.0000 0.0000
# 4 0.0000 0.0000 0.0000 19.5167 0.0000 0.0000
# 5 0.0000 0.0000 0.0000 0.0000 19.5167 0.0000
# 6 0.0000 0.0000 0.0000 0.0000 0.0000 16.8368
#
#
#
# Elastic Compliance Matrix: (Units=1/GPa)
#
#
# Indices 1 2 3 4 5 6 
#
# 1 0.020370 -0.009327 -0.004062 0.000000 0.000000 0.000000
# 2 -0.009327 0.020370 -0.004062 0.000000 0.000000 0.000000
# 3 -0.004062 -0.004062 0.009811 0.000000 0.000000 0.000000
# 4 0.000000 0.000000 0.000000 0.051238 0.000000 0.000000
# 5 0.000000 0.000000 0.000000 0.000000 0.051238 0.000000
# 6 0.000000 0.000000 0.000000 0.000000 0.000000 0.059394
#
#
# Mechanical properties :
#
#
# Convention : Reuss Voigt Hill
#
# Bulk Modulus (GPa) = 63.91169 69.19597 66.55383
# Shear Modulus (GPa) = 19.79882 21.46469 20.63175
#
# Velocity S-wave (km/s) = 3.41550 3.55629 3.48661
# Velocity P-wave (km/s) = 7.29463 7.59170 7.44465
#
# Compressibility (1/GPa) = 0.01564659
#
# Stress axis : x y z
#
# Youngs Moduli (GPa) = 49.09222 49.09222 101.92624
#
# Poissons Ratio (x) = 0.45789 0.41407
# Poissons Ratio (y) = 0.45789 0.41407
# Poissons Ratio (z) = 0.19944 0.19944
#
# Static dielectric constant tensor:
#      x y z
#    x 2.976200 0.000000 0.000000 
#    y 0.000000 2.976200 0.000000 
#    z 0.000000 0.000000 3.828370 
# 
# 
# High freq. dielectric constant tensor:
#      x y z
#    x 1.636040 0.000000 0.000000 
#    y 0.000000 1.636040 0.000000 
#    z 0.000000 0.000000 1.687790 
# 
# From -- ./inp_files/4463.got.cif
#   From: 2010.03.12/outbox.cif.g09.slc.cpg/sg187_3_cif.got.tgz:4463.got - 2010.04.01 11:58:23.
