data_PCOD8327423
_publ_section_title
;
Structure prediction by ZEFSAII (Michael W. Deem and Ramdas Pophale) SiO2 
 PCOD8327423
Probable space group: P -6 C 2
;
_chemical_formula_sum "Si O2"
_cell_formula_units_Z 30
_cell_length_a 8.514301
_cell_length_b 8.514301
_cell_length_c 22.388160
_cell_angle_alpha 90.000000
_cell_angle_beta 90.000000
_cell_angle_gamma 120.000000
_cell_volume 1405.552372
_symmetry_space_group_name_H-M "P -6 C 2"
_symmetry_group_IT_number 188
_symmetry_cell_setting 'hexagonal'
loop_
_space_group_symop_operation_xyz
x,y,z
-x+y,-x,1/2-z
-y,x-y,z
x,y,1/2-z
-x+y,-x,z
-y,x-y,1/2-z
-y,-x,-z
-x+y,y,-z
x,x-y,-z
-x+y,y,1/2+z
x,x-y,1/2+z
-y,-x,1/2+z
loop_
_atom_site_type_symbol
_atom_site_label
_atom_site_fract_x
_atom_site_fract_y
_atom_site_fract_z
Si Si1 0.000000 0.000000 0.570185
Si Si2 0.015382 0.328913 0.132226
Si Si3 0.333335 0.666668 0.071001
Si Si4 0.666666 0.333333 0.178587
Si Si5 0.564728 0.803759 0.750000
O O1 0.000000 0.000000 0.500000
O O2 0.959569 0.804322 0.591690
O O3 0.140133 0.511020 0.095025
O O4 0.122634 0.315724 0.190447
O O5 0.836417 0.325351 0.153181
O O6 0.333334 0.666667 0.000000
O O7 0.666667 0.333334 0.250000
O O8 0.457152 0.584162 0.750000
#
# Coordination Sequence:
#
# PCOD8327423 Si02
#       5
#     4  12   4   4   6
#     4  12  30  49  65  97 138 186 241 278 328 411
#     4  12  24  44  71  99 139 178 223 284 345 398
#     4  12  24  46  74 100 138 186 229 275 334 411
#     4  12  27  42  70 107 139 171 222 283 353 415
#     4  10  20  38  72 104 140 166 220 274 350 416
#
# _framework density 21.343923
#
# number of rings (size 3 to 8) (size 9 to 14) (size 15 to 20)
#    0.400    0.000    6.000    3.600    0.000    1.600 
#    0.000    2.000    0.000    0.000    0.000    0.000 
#    0.000    0.000    0.000    0.000    0.000    0.000 
#
# Total GULP energy -372115.852048 kJ/mol
# GULP energy per Si atom -12403.861735 kJ/mol
# Density = 2.129534 g / cm^3
# Si number density = 21.343923 Si / 1000 Ang^3
#
#
#
# Elastic Constant Matrix: (Units=GPa)
#
#
# Indices 1 2 3 4 5 6 
#
# 1 127.5516 52.4651 64.6041 -0.0003 -0.0002 0.0006
# 2 52.4651 127.5533 64.6051 0.0002 0.0001 0.0000
# 3 64.6041 64.6051 207.3357 0.0002 -0.0002 0.0004
# 4 -0.0003 0.0002 0.0002 24.1444 -0.0001 -0.0002
# 5 -0.0002 0.0001 -0.0002 -0.0001 24.1447 0.0002
# 6 0.0006 0.0000 0.0004 -0.0002 0.0002 37.5432
#
#
#
# Elastic Compliance Matrix: (Units=1/GPa)
#
#
# Indices 1 2 3 4 5 6 
#
# 1 0.010237 -0.003081 -0.002230 0.000000 0.000000 0.000000
# 2 -0.003081 0.010237 -0.002230 0.000000 0.000000 0.000000
# 3 -0.002230 -0.002230 0.006213 0.000000 0.000000 0.000000
# 4 0.000000 0.000000 0.000000 0.041417 0.000000 0.000000
# 5 0.000000 0.000000 0.000000 0.000000 0.041417 0.000000
# 6 0.000000 0.000000 0.000000 0.000000 0.000000 0.026636
#
#
# Mechanical properties :
#
#
# Convention : Reuss Voigt Hill
#
# Bulk Modulus (GPa) = 86.17038 91.75437 88.96238
# Shear Modulus (GPa) = 32.23622 35.88421 34.06021
#
# Velocity S-wave (km/s) = 3.89050 4.10474 3.99906
# Velocity P-wave (km/s) = 7.78725 8.09611 7.94318
#
# Compressibility (1/GPa) = 0.01160492
#
# Stress axis : x y z
#
# Youngs Moduli (GPa) = 97.68854 97.68957 160.96510
#
# Poissons Ratio (x) = 0.30101 0.35888
# Poissons Ratio (y) = 0.30100 0.35888
# Poissons Ratio (z) = 0.21780 0.21781
#
# Static dielectric constant tensor:
#      x y z
#    x 3.922150 0.000010 0.000000 
#    y 0.000010 3.922170 -0.000010 
#    z 0.000000 -0.000010 3.998920 
# 
# 
# High freq. dielectric constant tensor:
#      x y z
#    x 1.838440 0.000000 0.000000 
#    y 0.000000 1.838440 0.000000 
#    z 0.000000 0.000000 1.848770 
# 
# From -- ./inp_files/3922.got.cif
#   From: 2010.03.12/outbox.cif.g09.slc.cpg/sg188_2_cif.got.tgz:3922.got - 2010.04.01 12:01:06.
