data_PCOD8327504
_publ_section_title
;
Structure prediction by ZEFSAII (Michael W. Deem and Ramdas Pophale) SiO2 
 PCOD8327504
Probable space group: P -6 2 M
;
_chemical_formula_sum "Si O2"
_cell_formula_units_Z 78
_cell_length_a 25.016682
_cell_length_b 25.016682
_cell_length_c 8.302035
_cell_angle_alpha 90.000000
_cell_angle_beta 90.000000
_cell_angle_gamma 120.000000
_cell_volume 4499.607249
_symmetry_space_group_name_H-M "P -6 2 M"
_symmetry_group_IT_number 189
_symmetry_cell_setting 'hexagonal'
loop_
_space_group_symop_operation_xyz
x,y,z
-x+y,-x,-z
-y,x-y,z
x,y,-z
-x+y,-x,z
-y,x-y,-z
x-y,-y,-z
-x,-x+y,-z
y,x,-z
y,x,z
x-y,-y,z
-x,-x+y,z
loop_
_atom_site_type_symbol
_atom_site_label
_atom_site_fract_x
_atom_site_fract_y
_atom_site_fract_z
Si Si1 0.700806 0.770517 0.818012
Si Si2 0.126539 0.429451 0.313634
Si Si3 0.072883 0.191186 0.322988
Si Si4 0.585240 0.386325 0.186100
Si Si5 0.459632 0.717288 0.314534
Si Si6 0.138525 0.070923 0.000000
Si Si7 0.494494 0.563674 0.810300
O O1 0.717102 0.717102 0.784095
O O2 0.628769 0.741670 0.792667
O O3 0.738533 0.826979 0.696582
O O4 0.718976 0.795872 0.000000
O O5 0.119388 0.411682 0.500000
O O6 0.196100 0.478464 0.265774
O O7 0.079826 0.453926 0.273144
O O8 0.098990 0.185764 0.500000
O O9 0.101988 0.175473 0.167211
O O10 0.000000 0.144678 0.321878
O O11 0.648653 0.403909 0.277746
O O12 0.540952 0.313683 0.216861
O O13 0.553001 0.426672 0.242738
O O14 0.601675 0.399496 0.000000
O O15 0.457485 0.731879 0.500000
O O16 0.078678 0.078678 0.000000
O O17 0.120169 0.000000 0.000000
O O18 0.507779 0.507779 0.759646
O O19 0.502348 0.573208 0.000000
#
# Coordination Sequence:
#
# PCOD8327504 Si02
#       7
#    12  12  12  12  12   6  12
#     4  10  18  29  46  68  95 127 157 188 232 284
#     4  10  20  30  43  67  96 124 154 190 230 279
#     4   9  17  30  47  67  94 126 161 197 232 280
#     4  10  19  31  49  68  89 120 159 197 234 283
#     4  10  20  33  46  64  93 124 155 193 237 281
#     4  10  19  32  48  70  98 128 162 198 238 280
#     4   9  18  32  47  66  93 123 152 187 231 281
#
# _framework density 17.334845999999999
#
# number of rings (size 3 to 8) (size 9 to 14) (size 15 to 20)
#    0.000    2.308    0.769    2.692    0.000    5.846 
#    0.000    0.000    0.000    0.923    0.000    1.077 
#    0.000    1.231    0.000    0.000    0.000    0.000 
#
# Total GULP energy -966611.246663 kJ/mol
# GULP energy per Si atom -12392.451880 kJ/mol
# Density = 1.729539 g / cm^3
# Si number density = 17.334846 Si / 1000 Ang^3
#
#
#
# Elastic Constant Matrix: (Units=GPa)
#
#
# Indices 1 2 3 4 5 6 
#
# 1 78.1609 30.4864 27.5570 0.0000 0.0000 0.0000
# 2 30.4864 78.1609 27.5570 0.0000 0.0000 0.0000
# 3 27.5570 27.5570 77.9222 0.0000 0.0000 0.0000
# 4 0.0000 0.0000 0.0000 14.2626 0.0000 0.0000
# 5 0.0000 0.0000 0.0000 0.0000 14.2626 0.0000
# 6 0.0000 0.0000 0.0000 0.0000 0.0000 23.8373
#
#
#
# Elastic Compliance Matrix: (Units=1/GPa)
#
#
# Indices 1 2 3 4 5 6 
#
# 1 0.016096 -0.004880 -0.003967 0.000000 0.000000 0.000000
# 2 -0.004880 0.016096 -0.003967 0.000000 0.000000 0.000000
# 3 -0.003967 -0.003967 0.015639 0.000000 0.000000 0.000000
# 4 0.000000 0.000000 0.000000 0.070113 0.000000 0.000000
# 5 0.000000 0.000000 0.000000 0.000000 0.070113 0.000000
# 6 0.000000 0.000000 0.000000 0.000000 0.000000 0.041951
#
#
# Mechanical properties :
#
#
# Convention : Reuss Voigt Hill
#
# Bulk Modulus (GPa) = 45.03496 45.04942 45.04219
# Shear Modulus (GPa) = 19.00882 20.38207 19.69544
#
# Velocity S-wave (km/s) = 3.31504 3.43269 3.37438
# Velocity P-wave (km/s) = 6.37875 6.46184 6.42043
#
# Compressibility (1/GPa) = 0.02220497
#
# Stress axis : x y z
#
# Youngs Moduli (GPa) = 62.12757 62.12757 63.94319
#
# Poissons Ratio (x) = 0.30316 0.25364
# Poissons Ratio (y) = 0.30316 0.25364
# Poissons Ratio (z) = 0.24644 0.24644
#
# Static dielectric constant tensor:
#      x y z
#    x 3.081620 0.000000 0.000000 
#    y 0.000000 3.081620 0.000000 
#    z 0.000000 0.000000 3.464080 
# 
# 
# High freq. dielectric constant tensor:
#      x y z
#    x 1.642870 0.000000 0.000000 
#    y 0.000000 1.642870 0.000000 
#    z 0.000000 0.000000 1.687090 
# 
# From -- ./inp_files/1407.got.cif
#   From: 2010.03.12/outbox.cif.g09.slc.cpg/sg189_1_cif.got.tgz:1407.got - 2010.04.01 12:03:36.
