data_PCOD8327644
_publ_section_title
;
Structure prediction by ZEFSAII (Michael W. Deem and Ramdas Pophale) SiO2 
 PCOD8327644
Probable space group: P -6 2 M
;
_chemical_formula_sum "Si O2"
_cell_formula_units_Z 60
_cell_length_a 20.597219
_cell_length_b 20.597219
_cell_length_c 8.855931
_cell_angle_alpha 90.000000
_cell_angle_beta 90.000000
_cell_angle_gamma 120.000000
_cell_volume 3253.733877
_symmetry_space_group_name_H-M "P -6 2 M"
_symmetry_group_IT_number 189
_symmetry_cell_setting 'hexagonal'
loop_
_space_group_symop_operation_xyz
x,y,z
-x+y,-x,-z
-y,x-y,z
x,y,-z
-x+y,-x,z
-y,x-y,-z
x-y,-y,-z
-x,-x+y,-z
y,x,-z
y,x,z
x-y,-y,z
-x,-x+y,z
loop_
_atom_site_type_symbol
_atom_site_label
_atom_site_fract_x
_atom_site_fract_y
_atom_site_fract_z
Si Si1 0.647663 0.793801 0.174767
Si Si2 0.919251 0.919251 0.677645
Si Si3 0.812362 0.452125 0.323669
Si Si4 0.214709 0.524231 0.824556
Si Si5 0.708711 0.086141 0.324021
Si Si6 0.000000 0.224705 0.678994
O O1 0.563861 0.726828 0.205906
O O2 0.657741 0.872539 0.230125
O O3 0.700967 0.773571 0.267517
O O4 0.669052 0.801033 0.000000
O O5 0.908350 0.908350 0.500000
O O6 0.848173 0.848173 0.752766
O O7 0.926300 0.000000 0.722247
O O8 0.807047 0.434505 0.500000
O O9 0.733814 0.442175 0.268079
O O10 0.830061 0.394673 0.234629
O O11 0.879525 0.535133 0.285322
O O12 0.234589 0.541047 0.000000
O O13 0.729805 0.096257 0.500000
O O14 0.664964 0.000000 0.274474
O O15 0.000000 0.222205 0.500000
#
# Coordination Sequence:
#
# PCOD8327644 Si02
#       6
#    12   6  12  12  12   6
#     4  10  22  38  55  77 111 148 184 225 269 327
#     4   7  14  31  53  79 107 130 163 212 259 311
#     4  10  19  32  54  80 108 138 178 230 279 322
#     4  10  20  35  53  75 107 146 186 223 271 329
#     4   9  19  37  58  81 109 140 180 227 275 327
#     4  11  21  35  59  85 109 144 183 222 275 327
#
# _framework density 18.440351
#
# number of rings (size 3 to 8) (size 9 to 14) (size 15 to 20)
#    0.200    2.200    0.000    2.500    0.000    4.400 
#    1.800    2.000    0.000    1.800    0.000    0.000 
#    0.000    0.000    0.000    0.000    0.000    0.000 
#
# Total GULP energy -743981.822325 kJ/mol
# GULP energy per Si atom -12399.697039 kJ/mol
# Density = 1.839838 g / cm^3
# Si number density = 18.440351 Si / 1000 Ang^3
#
#
#
# Elastic Constant Matrix: (Units=GPa)
#
#
# Indices 1 2 3 4 5 6 
#
# 1 114.1598 67.2739 45.4353 0.0000 0.0000 0.0000
# 2 67.2739 114.1598 45.4353 0.0000 0.0000 0.0000
# 3 45.4353 45.4353 65.1270 0.0000 0.0000 0.0000
# 4 0.0000 0.0000 0.0000 27.9063 0.0000 0.0000
# 5 0.0000 0.0000 0.0000 0.0000 27.9063 0.0000
# 6 0.0000 0.0000 0.0000 0.0000 0.0000 23.4429
#
#
#
# Elastic Compliance Matrix: (Units=1/GPa)
#
#
# Indices 1 2 3 4 5 6 
#
# 1 0.014900 -0.006428 -0.005910 0.000000 0.000000 0.000000
# 2 -0.006428 0.014900 -0.005910 0.000000 0.000000 0.000000
# 3 -0.005910 -0.005910 0.023601 0.000000 0.000000 0.000000
# 4 0.000000 0.000000 0.000000 0.035834 0.000000 0.000000
# 5 0.000000 0.000000 0.000000 0.000000 0.035834 0.000000
# 6 0.000000 0.000000 0.000000 0.000000 0.000000 0.042657
#
#
# Mechanical properties :
#
#
# Convention : Reuss Voigt Hill
#
# Bulk Modulus (GPa) = 59.15892 67.74837 63.45365
# Shear Modulus (GPa) = 23.82553 24.87123 24.34838
#
# Velocity S-wave (km/s) = 3.59839 3.67650 3.63765
# Velocity P-wave (km/s) = 7.02961 7.40548 7.21999
#
# Compressibility (1/GPa) = 0.01690362
#
# Stress axis : x y z
#
# Youngs Moduli (GPa) = 67.11362 67.11362 42.37086
#
# Poissons Ratio (x) = 0.43143 0.25042
# Poissons Ratio (y) = 0.43143 0.25042
# Poissons Ratio (z) = 0.39666 0.39666
#
# Static dielectric constant tensor:
#      x y z
#    x 3.435720 0.000000 0.000000 
#    y 0.000000 3.435720 0.000000 
#    z 0.000000 0.000000 3.357490 
# 
# 
# High freq. dielectric constant tensor:
#      x y z
#    x 1.712230 0.000000 0.000000 
#    y 0.000000 1.712230 0.000000 
#    z 0.000000 0.000000 1.715190 
# 
# From -- ./inp_files/942.got.cif
#   From: 2010.03.12/outbox.cif.g09.slc.cpg/sg189_1_cif.got.tgz:942.got - 2010.04.01 12:03:36.
