data_PCOD8327936
_publ_section_title
;
Structure prediction by ZEFSAII (Michael W. Deem and Ramdas Pophale) SiO2 
 PCOD8327936
Probable space group: P -6 2 C
;
_chemical_formula_sum "Si O2"
_cell_formula_units_Z 66
_cell_length_a 13.613167
_cell_length_b 13.613167
_cell_length_c 22.794162
_cell_angle_alpha 90.000000
_cell_angle_beta 90.000000
_cell_angle_gamma 120.000000
_cell_volume 3658.243476
_symmetry_space_group_name_H-M "P -6 2 C"
_symmetry_group_IT_number 190
_symmetry_cell_setting 'hexagonal'
loop_
_space_group_symop_operation_xyz
x,y,z
-x+y,-x,1/2-z
-y,x-y,z
x,y,1/2-z
-x+y,-x,z
-y,x-y,1/2-z
x-y,-y,-z
-x,-x+y,-z
y,x,-z
y,x,1/2+z
x-y,-y,1/2+z
-x,-x+y,1/2+z
loop_
_atom_site_type_symbol
_atom_site_label
_atom_site_fract_x
_atom_site_fract_y
_atom_site_fract_z
Si Si1 0.361186 0.353226 0.250000
Si Si2 0.794901 0.994473 0.931893
Si Si3 0.437718 0.323922 0.375953
Si Si4 0.901219 0.180192 0.750000
Si Si5 0.004827 0.429208 0.750000
Si Si6 0.800112 0.788277 0.876172
Si Si7 0.110812 0.455198 0.629416
O O1 0.392241 0.309293 0.308987
O O2 0.228614 0.310787 0.250000
O O3 0.438683 0.490790 0.250000
O O4 0.664426 0.956548 0.920964
O O5 0.829263 0.912299 0.897784
O O6 0.869662 0.121292 0.907773
O O7 0.823068 0.000000 0.000000
O O8 0.535514 0.448364 0.396858
O O9 0.486835 0.239113 0.383448
O O10 0.970670 0.176422 0.693602
O O11 0.901894 0.299733 0.750000
O O12 0.092611 0.457063 0.698054
O O13 0.671237 0.695476 0.894531
#
# Coordination Sequence:
#
# PCOD8327936 Si02
#       7
#     6  12  12   6   6  12  12
#     4  10  17  31  54  77 113 140 174 220 276 326
#     4  11  22  37  55  78 106 148 191 225 273 328
#     4  10  19  33  56  81 108 141 175 227 272 333
#     4  10  18  34  54  84 115 137 184 219 279 337
#     4   8  17  29  46  77 110 141 162 209 259 331
#     4  10  21  36  57  80 113 143 178 230 275 332
#     4   9  18  32  53  79 108 135 173 212 274 320
#
# _framework density 18.041445
#
# number of rings (size 3 to 8) (size 9 to 14) (size 15 to 20)
#    0.000    2.182    1.818    1.818    0.000    2.909 
#    0.545    5.455    0.000    0.727    0.000    0.000 
#    0.000    0.000    0.000    0.000    0.000    0.000 
#
# Total GULP energy -818047.400437 kJ/mol
# GULP energy per Si atom -12394.657582 kJ/mol
# Density = 1.800038 g / cm^3
# Si number density = 18.041445 Si / 1000 Ang^3
#
#
#
# Elastic Constant Matrix: (Units=GPa)
#
#
# Indices 1 2 3 4 5 6 
#
# 1 115.9121 65.8167 35.8286 0.0000 0.0000 0.0000
# 2 65.8167 115.9121 35.8286 0.0000 0.0000 0.0000
# 3 35.8286 35.8286 89.9337 0.0000 0.0000 0.0000
# 4 0.0000 0.0000 0.0000 14.6116 0.0000 0.0000
# 5 0.0000 0.0000 0.0000 0.0000 14.6116 0.0000
# 6 0.0000 0.0000 0.0000 0.0000 0.0000 25.0477
#
#
#
# Elastic Compliance Matrix: (Units=1/GPa)
#
#
# Indices 1 2 3 4 5 6 
#
# 1 0.013245 -0.006717 -0.002601 0.000000 0.000000 0.000000
# 2 -0.006717 0.013245 -0.002601 0.000000 0.000000 0.000000
# 3 -0.002601 -0.002601 0.013192 0.000000 0.000000 0.000000
# 4 0.000000 0.000000 0.000000 0.068439 0.000000 0.000000
# 5 0.000000 0.000000 0.000000 0.000000 0.068439 0.000000
# 6 0.000000 0.000000 0.000000 0.000000 0.000000 0.039924
#
#
# Mechanical properties :
#
#
# Convention : Reuss Voigt Hill
#
# Bulk Modulus (GPa) = 63.11182 66.30063 64.70623
# Shear Modulus (GPa) = 20.35822 23.13981 21.74902
#
# Velocity S-wave (km/s) = 3.36283 3.58521 3.47580
# Velocity P-wave (km/s) = 7.08066 7.34624 7.21467
#
# Compressibility (1/GPa) = 0.01584489
#
# Stress axis : x y z
#
# Youngs Moduli (GPa) = 75.49987 75.49987 75.80620
#
# Poissons Ratio (x) = 0.50712 0.19715
# Poissons Ratio (y) = 0.50712 0.19715
# Poissons Ratio (z) = 0.19636 0.19636
#
# Static dielectric constant tensor:
#      x y z
#    x 3.425040 0.000000 0.000000 
#    y 0.000000 3.425040 0.000000 
#    z 0.000000 0.000000 3.174040 
# 
# 
# High freq. dielectric constant tensor:
#      x y z
#    x 1.697940 0.000000 0.000000 
#    y 0.000000 1.697940 0.000000 
#    z 0.000000 0.000000 1.680040 
# 
# From -- ./inp_files/4662.got.cif
#   From: 2010.06.25/outbox.cif.g09.slc.cpg/sg190_3_cif.got.tgz:4662.got - 2010.06.28 13:08:06.
