data_PCOD8327674
_publ_section_title
;
Structure prediction by ZEFSAII (Michael W. Deem and Ramdas Pophale) SiO2 
 PCOD8327674
Probable space group: P -6 2 M
;
_chemical_formula_sum "Si O2"
_cell_formula_units_Z 72
_cell_length_a 23.416675
_cell_length_b 23.416675
_cell_length_c 9.039341
_cell_angle_alpha 90.000000
_cell_angle_beta 90.000000
_cell_angle_gamma 120.000000
_cell_volume 4292.574670
_symmetry_space_group_name_H-M "P -6 2 M"
_symmetry_group_IT_number 189
_symmetry_cell_setting 'hexagonal'
loop_
_space_group_symop_operation_xyz
x,y,z
-x+y,-x,-z
-y,x-y,z
x,y,-z
-x+y,-x,z
-y,x-y,-z
x-y,-y,-z
-x,-x+y,-z
y,x,-z
y,x,z
x-y,-y,z
-x,-x+y,z
loop_
_atom_site_type_symbol
_atom_site_label
_atom_site_fract_x
_atom_site_fract_y
_atom_site_fract_z
Si Si1 0.925890 0.260171 0.326647
Si Si2 0.484370 0.158406 0.669676
Si Si3 0.484261 0.272138 0.172164
Si Si4 0.714646 0.000000 0.175487
Si Si5 0.472601 0.875053 0.328256
Si Si6 0.188284 0.331045 0.827975
Si Si7 0.000000 0.586387 0.824067
O O1 0.926235 0.249855 0.500000
O O2 0.898753 0.309537 0.287213
O O3 0.879724 0.188188 0.256866
O O4 0.000000 0.292030 0.262326
O O5 0.486169 0.180464 0.500000
O O6 0.506588 0.220874 0.775462
O O7 0.533539 0.131334 0.696791
O O8 0.527034 0.338059 0.266487
O O9 0.406810 0.242531 0.205275
O O10 0.500300 0.287907 0.000000
O O11 0.713917 0.933294 0.226861
O O12 0.650598 0.000000 0.239715
O O13 0.709644 0.000000 0.000000
O O14 0.492533 0.885092 0.500000
O O15 0.522254 0.936724 0.233334
O O16 0.170945 0.320872 0.000000
O O17 0.000000 0.585654 0.000000
#
# Coordination Sequence:
#
# PCOD8327674 Si02
#       7
#    12  12  12   6  12  12   6
#     4   9  18  33  52  72  99 133 165 201 245 288
#     4   9  20  36  53  71  96 131 171 214 258 309
#     4  10  19  34  54  72  96 128 165 212 263 310
#     4   9  16  31  51  73 103 135 159 194 251 296
#     4  11  22  35  53  76 102 133 172 216 265 318
#     4   9  17  31  51  73 100 131 161 195 242 295
#     4  11  21  35  53  75 105 137 169 212 263 310
#
# _framework density 16.773150000000001
#
# number of rings (size 3 to 8) (size 9 to 14) (size 15 to 20)
#    0.000    2.333    1.667    1.250    1.167    2.333 
#    1.000    0.417    0.000    0.000    0.000    0.000 
#    0.833    0.000    0.500    0.000    0.667    0.000 
#
# Total GULP energy -892809.960989 kJ/mol
# GULP energy per Si atom -12400.138347 kJ/mol
# Density = 1.673497 g / cm^3
# Si number density = 16.773150 Si / 1000 Ang^3
#
#
#
# Elastic Constant Matrix: (Units=GPa)
#
#
# Indices 1 2 3 4 5 6 
#
# 1 90.6288 77.4592 41.0867 0.0000 0.0000 0.0000
# 2 77.4592 90.6288 41.0867 0.0000 0.0000 0.0000
# 3 41.0867 41.0867 60.0967 0.0000 0.0000 0.0000
# 4 0.0000 0.0000 0.0000 26.8723 0.0000 0.0000
# 5 0.0000 0.0000 0.0000 0.0000 26.8723 0.0000
# 6 0.0000 0.0000 0.0000 0.0000 0.0000 6.5848
#
#
#
# Elastic Compliance Matrix: (Units=1/GPa)
#
#
# Indices 1 2 3 4 5 6 
#
# 1 0.042434 -0.033498 -0.006109 0.000000 0.000000 0.000000
# 2 -0.033498 0.042434 -0.006109 0.000000 0.000000 0.000000
# 3 -0.006109 -0.006109 0.024993 0.000000 0.000000 0.000000
# 4 0.000000 0.000000 0.000000 0.037213 0.000000 0.000000
# 5 0.000000 0.000000 0.000000 0.000000 0.037213 0.000000
# 6 0.000000 0.000000 0.000000 0.000000 0.000000 0.151864
#
#
# Mechanical properties :
#
#
# Convention : Reuss Voigt Hill
#
# Bulk Modulus (GPa) = 54.26494 62.29108 58.27801
# Shear Modulus (GPa) = 11.52798 17.51399 14.52098
#
# Velocity S-wave (km/s) = 2.62446 3.23487 2.94552
# Velocity P-wave (km/s) = 6.45029 7.15335 6.81090
#
# Compressibility (1/GPa) = 0.01842811
#
# Stress axis : x y z
#
# Youngs Moduli (GPa) = 23.56602 23.56602 40.01055
#
# Poissons Ratio (x) = 0.78942 0.24444
# Poissons Ratio (y) = 0.78942 0.24444
# Poissons Ratio (z) = 0.14397 0.14397
#
# Static dielectric constant tensor:
#      x y z
#    x 3.531540 0.000000 0.000000 
#    y 0.000000 3.531540 0.000000 
#    z 0.000000 0.000000 3.129070 
# 
# 
# High freq. dielectric constant tensor:
#      x y z
#    x 1.635250 0.000000 0.000000 
#    y 0.000000 1.635250 0.000000 
#    z 0.000000 0.000000 1.645020 
# 
# From -- ./inp_files/1308.got.cif
#   From: 2010.03.12/outbox.cif.g09.slc.cpg/sg189_1_cif.got.tgz:1308.got - 2010.04.01 12:03:36.
