data_PCOD8327971
_publ_section_title
;
Structure prediction by ZEFSAII (Michael W. Deem and Ramdas Pophale) SiO2 
 PCOD8327971
Probable space group: P -6 2 C
;
_chemical_formula_sum "Si O2"
_cell_formula_units_Z 72
_cell_length_a 17.701862
_cell_length_b 17.701862
_cell_length_c 17.304869
_cell_angle_alpha 90.000000
_cell_angle_beta 90.000000
_cell_angle_gamma 120.000000
_cell_volume 4696.094733
_symmetry_space_group_name_H-M "P -6 2 C"
_symmetry_group_IT_number 190
_symmetry_cell_setting 'hexagonal'
loop_
_space_group_symop_operation_xyz
x,y,z
-x+y,-x,1/2-z
-y,x-y,z
x,y,1/2-z
-x+y,-x,z
-y,x-y,1/2-z
x-y,-y,-z
-x,-x+y,-z
y,x,-z
y,x,1/2+z
x-y,-y,1/2+z
-x,-x+y,1/2+z
loop_
_atom_site_type_symbol
_atom_site_label
_atom_site_fract_x
_atom_site_fract_y
_atom_site_fract_z
Si Si1 0.254280 0.924537 0.560141
Si Si2 0.494334 0.159714 0.162197
Si Si3 0.753740 0.080010 0.059996
Si Si4 0.994521 0.144628 0.907990
Si Si5 0.491138 0.332886 0.338813
Si Si6 0.155645 0.160561 0.840216
O O1 0.318120 0.903572 0.608063
O O2 0.170519 0.835004 0.524486
O O3 0.214239 0.969052 0.615671
O O4 0.315100 0.000000 0.500000
O O5 0.467543 0.128450 0.250000
O O6 0.517624 0.258958 0.152491
O O7 0.576778 0.151537 0.136867
O O8 0.682868 0.098684 0.100427
O O9 0.792051 0.050190 0.129454
O O10 0.705277 0.000000 0.000000
O O11 0.054009 0.112975 0.864452
O O12 0.895410 0.089484 0.879776
O O13 0.000000 0.135954 0.000000
O O14 0.462700 0.335493 0.250000
O O15 0.167691 0.161529 0.750000
#
# Coordination Sequence:
#
# PCOD8327971 Si02
#       6
#    12  12  12  12  12  12
#     4   9  18  30  44  61  84 113 143 173 206 249
#     4   9  17  29  47  67  88 110 135 169 212 255
#     4  10  19  31  45  62  86 117 146 174 213 253
#     4  10  19  31  43  57  82 116 149 182 217 253
#     4   9  17  30  47  68  89 111 138 172 213 260
#     4  11  20  29  42  61  83 111 149 188 217 248
#
# _framework density 15.331887999999999
#
# number of rings (size 3 to 8) (size 9 to 14) (size 15 to 20)
#    0.000    2.333    0.000    5.167    0.000    6.667 
#    0.000    0.000    0.000    0.333    0.000    0.000 
#    0.000    0.000    0.000    0.000    0.000   10.000 
#
# Total GULP energy -892201.102820 kJ/mol
# GULP energy per Si atom -12391.681984 kJ/mol
# Density = 1.529699 g / cm^3
# Si number density = 15.331888 Si / 1000 Ang^3
#
#
#
# Elastic Constant Matrix: (Units=GPa)
#
#
# Indices 1 2 3 4 5 6 
#
# 1 104.5200 47.0894 50.7864 0.0000 0.0000 0.0000
# 2 47.0894 104.5200 50.7864 0.0000 0.0000 0.0000
# 3 50.7864 50.7864 96.5572 0.0000 0.0000 0.0000
# 4 0.0000 0.0000 0.0000 20.7524 0.0000 0.0000
# 5 0.0000 0.0000 0.0000 0.0000 20.7524 0.0000
# 6 0.0000 0.0000 0.0000 0.0000 0.0000 28.7153
#
#
#
# Elastic Compliance Matrix: (Units=1/GPa)
#
#
# Indices 1 2 3 4 5 6 
#
# 1 0.013799 -0.003614 -0.005357 0.000000 0.000000 0.000000
# 2 -0.003614 0.013799 -0.005357 0.000000 0.000000 0.000000
# 3 -0.005357 -0.005357 0.015992 0.000000 0.000000 0.000000
# 4 0.000000 0.000000 0.000000 0.048187 0.000000 0.000000
# 5 0.000000 0.000000 0.000000 0.000000 0.048187 0.000000
# 6 0.000000 0.000000 0.000000 0.000000 0.000000 0.034825
#
#
# Mechanical properties :
#
#
# Convention : Reuss Voigt Hill
#
# Bulk Modulus (GPa) = 66.96272 66.99128 66.97700
# Shear Modulus (GPa) = 23.98990 24.50636 24.24813
#
# Velocity S-wave (km/s) = 3.95993 4.00233 3.98118
# Velocity P-wave (km/s) = 8.04228 8.07137 8.05684
#
# Compressibility (1/GPa) = 0.01493368
#
# Stress axis : x y z
#
# Youngs Moduli (GPa) = 72.47111 72.47111 62.53211
#
# Poissons Ratio (x) = 0.26189 0.33498
# Poissons Ratio (y) = 0.26189 0.33498
# Poissons Ratio (z) = 0.38822 0.38822
#
# Static dielectric constant tensor:
#      x y z
#    x 2.963230 0.000000 0.000000 
#    y 0.000000 2.963230 0.000000 
#    z 0.000000 0.000000 2.767480 
# 
# 
# High freq. dielectric constant tensor:
#      x y z
#    x 1.583640 0.000000 0.000000 
#    y 0.000000 1.583640 0.000000 
#    z 0.000000 0.000000 1.572540 
# 
# From -- ./inp_files/3855.got.cif
#   From: 2010.06.25/outbox.cif.g09.slc.cpg/sg190_2_cif.got.tgz:3855.got - 2010.06.28 13:08:06.
