data_PCOD8327848
_publ_section_title
;
Structure prediction by ZEFSAII (Michael W. Deem and Ramdas Pophale) SiO2 
 PCOD8327848
Probable space group: P -6 2 M
;
_chemical_formula_sum "Si O2"
_cell_formula_units_Z 60
_cell_length_a 15.097432
_cell_length_b 15.097432
_cell_length_c 16.384811
_cell_angle_alpha 90.000000
_cell_angle_beta 90.000000
_cell_angle_gamma 120.000000
_cell_volume 3234.284595
_symmetry_space_group_name_H-M "P -6 2 M"
_symmetry_group_IT_number 189
_symmetry_cell_setting 'hexagonal'
loop_
_space_group_symop_operation_xyz
x,y,z
-x+y,-x,-z
-y,x-y,z
x,y,-z
-x+y,-x,z
-y,x-y,-z
x-y,-y,-z
-x,-x+y,-z
y,x,-z
y,x,z
x-y,-y,z
-x,-x+y,z
loop_
_atom_site_type_symbol
_atom_site_label
_atom_site_fract_x
_atom_site_fract_y
_atom_site_fract_z
Si Si1 0.752399 0.292607 0.648181
Si Si2 0.883569 0.207538 0.410558
Si Si3 0.560527 0.443296 0.906431
Si Si4 0.238686 0.120691 0.756790
Si Si5 0.457785 0.228108 0.825210
O O1 0.780772 0.410528 0.633421
O O2 0.814453 0.261031 0.587602
O O3 0.782008 0.285219 0.740279
O O4 0.871157 0.155386 0.500000
O O5 0.851231 0.125315 0.337940
O O6 0.000000 0.296363 0.396315
O O7 0.518415 0.518415 0.884192
O O8 0.502036 0.345225 0.848925
O O9 0.682093 0.506439 0.892615
O O10 0.539520 0.407133 0.000000
O O11 0.165378 0.165378 0.778323
O O12 0.334954 0.171059 0.818010
O O13 0.177085 0.000000 0.771512
#
# Coordination Sequence:
#
# PCOD8327848 Si02
#       5
#    12  12  12  12  12
#     4   9  17  32  51  75  99 141 184 214 268 325
#     4   9  19  34  51  75 108 142 180 229 282 330
#     4  11  22  34  54  82 110 144 178 211 263 324
#     4  10  21  37  59  82 107 144 190 238 282 323
#     4  11  19  37  54  80 113 146 174 223 270 324
#
# _framework density 18.551242999999999
#
# number of rings (size 3 to 8) (size 9 to 14) (size 15 to 20)
#    0.400    1.600    2.000    2.400    0.000    2.000 
#    0.000    1.000    0.000    1.200    0.000    0.000 
#    0.000    9.600    0.000    0.000    0.000    0.000 
#
# Total GULP energy -743821.035764 kJ/mol
# GULP energy per Si atom -12397.017263 kJ/mol
# Density = 1.850902 g / cm^3
# Si number density = 18.551243 Si / 1000 Ang^3
#
#
#
# Elastic Constant Matrix: (Units=GPa)
#
#
# Indices 1 2 3 4 5 6 
#
# 1 99.2611 36.0447 17.1557 0.0000 0.0000 0.0000
# 2 36.0447 99.2611 17.1557 0.0000 0.0000 0.0000
# 3 17.1557 17.1557 55.8975 0.0000 0.0000 0.0000
# 4 0.0000 0.0000 0.0000 17.2401 0.0000 0.0000
# 5 0.0000 0.0000 0.0000 0.0000 17.2401 0.0000
# 6 0.0000 0.0000 0.0000 0.0000 0.0000 31.6082
#
#
#
# Elastic Compliance Matrix: (Units=1/GPa)
#
#
# Indices 1 2 3 4 5 6 
#
# 1 0.011917 -0.003902 -0.002460 0.000000 0.000000 0.000000
# 2 -0.003902 0.011917 -0.002460 0.000000 0.000000 0.000000
# 3 -0.002460 -0.002460 0.019400 0.000000 0.000000 0.000000
# 4 0.000000 0.000000 0.000000 0.058004 0.000000 0.000000
# 5 0.000000 0.000000 0.000000 0.000000 0.058004 0.000000
# 6 0.000000 0.000000 0.000000 0.000000 0.000000 0.031637
#
#
# Mechanical properties :
#
#
# Convention : Reuss Voigt Hill
#
# Bulk Modulus (GPa) = 39.07832 43.90355 41.49094
# Shear Modulus (GPa) = 23.03598 25.48859 24.26229
#
# Velocity S-wave (km/s) = 3.52767 3.71071 3.62035
# Velocity P-wave (km/s) = 6.14031 6.48665 6.31586
#
# Compressibility (1/GPa) = 0.02558963
#
# Stress axis : x y z
#
# Youngs Moduli (GPa) = 83.91689 83.91689 51.54712
#
# Poissons Ratio (x) = 0.32746 0.12679
# Poissons Ratio (y) = 0.32746 0.12679
# Poissons Ratio (z) = 0.20641 0.20641
#
# Static dielectric constant tensor:
#      x y z
#    x 3.363620 0.000000 0.000000 
#    y 0.000000 3.363620 0.000000 
#    z 0.000000 0.000000 3.369850 
# 
# 
# High freq. dielectric constant tensor:
#      x y z
#    x 1.715560 0.000000 0.000000 
#    y 0.000000 1.715560 0.000000 
#    z 0.000000 0.000000 1.713480 
# 
# From -- ./inp_files/2508.got.cif
#   From: 2010.03.12/outbox.cif.g09.slc.cpg/sg189_2_cif.got.tgz:2508.got - 2010.04.01 12:03:36.
