data_PCOD8327461
_publ_section_title
;
Structure prediction by ZEFSAII (Michael W. Deem and Ramdas Pophale) SiO2 
 PCOD8327461
Probable space group: P -6 C 2
;
_chemical_formula_sum "Si O2"
_cell_formula_units_Z 48
_cell_length_a 16.712695
_cell_length_b 16.712695
_cell_length_c 9.141589
_cell_angle_alpha 90.000000
_cell_angle_beta 90.000000
_cell_angle_gamma 120.000000
_cell_volume 2211.287946
_symmetry_space_group_name_H-M "P -6 C 2"
_symmetry_group_IT_number 188
_symmetry_cell_setting 'hexagonal'
loop_
_space_group_symop_operation_xyz
x,y,z
-x+y,-x,1/2-z
-y,x-y,z
x,y,1/2-z
-x+y,-x,z
-y,x-y,1/2-z
-y,-x,-z
-x+y,y,-z
x,x-y,-z
-x+y,y,1/2+z
x,x-y,1/2+z
-y,-x,1/2+z
loop_
_atom_site_type_symbol
_atom_site_label
_atom_site_fract_x
_atom_site_fract_y
_atom_site_fract_z
Si Si1 0.997880 0.692363 0.085782
Si Si2 0.553810 0.247297 0.250000
Si Si3 0.787043 0.212958 0.000000
Si Si4 0.332381 0.834308 0.578240
Si Si5 0.844061 0.001316 0.577362
O O1 0.018298 0.734889 0.250000
O O2 0.058961 0.643502 0.058998
O O3 0.887527 0.629216 0.072962
O O4 0.036131 0.774014 0.964959
O O5 0.590109 0.358120 0.250000
O O6 0.490608 0.198683 0.387812
O O7 0.327516 0.809214 0.750000
O O8 0.235493 0.764508 0.500000
O O9 0.412067 0.824133 0.500000
O O10 0.859324 0.006161 0.750000
O O11 0.898652 0.101349 0.500000
O O12 0.881993 0.940997 0.500000
#
# Coordination Sequence:
#
# PCOD8327461 Si02
#       5
#    12   6   6  12  12
#     4  11  25  44  67 103 139 181 231 288 352 421
#     4  10  24  42  66  94 132 182 238 286 344 406
#     4  12  22  44  68 100 144 184 232 294 352 414
#     4  11  25  47  73 105 142 184 236 292 356 424
#     4  12  25  42  67  95 133 176 226 281 343 414
#
# _framework density 21.706804999999999
#
# number of rings (size 3 to 8) (size 9 to 14) (size 15 to 20)
#    0.250    0.500    2.500    5.000    1.750    6.000 
#    0.000    0.000    0.000    0.000    0.000    0.000 
#    0.000    0.000    0.000    0.000    0.000    0.000 
#
# Total GULP energy -594924.390664 kJ/mol
# GULP energy per Si atom -12394.258139 kJ/mol
# Density = 2.165740 g / cm^3
# Si number density = 21.706805 Si / 1000 Ang^3
#
#
#
# Elastic Constant Matrix: (Units=GPa)
#
#
# Indices 1 2 3 4 5 6 
#
# 1 94.9948 26.2892 40.5524 0.0000 0.0000 0.0000
# 2 26.2892 94.9948 40.5524 0.0000 0.0000 0.0000
# 3 40.5524 40.5524 183.7787 0.0000 0.0000 0.0000
# 4 0.0000 0.0000 0.0000 36.8114 0.0000 0.0000
# 5 0.0000 0.0000 0.0000 0.0000 36.8114 0.0000
# 6 0.0000 0.0000 0.0000 0.0000 0.0000 34.3528
#
#
#
# Elastic Compliance Matrix: (Units=1/GPa)
#
#
# Indices 1 2 3 4 5 6 
#
# 1 0.012114 -0.002441 -0.002134 0.000000 0.000000 0.000000
# 2 -0.002441 0.012114 -0.002134 0.000000 0.000000 0.000000
# 3 -0.002134 -0.002134 0.006383 0.000000 0.000000 0.000000
# 4 0.000000 0.000000 0.000000 0.027165 0.000000 0.000000
# 5 0.000000 0.000000 0.000000 0.000000 0.027165 0.000000
# 6 0.000000 0.000000 0.000000 0.000000 0.000000 0.029110
#
#
# Mechanical properties :
#
#
# Convention : Reuss Voigt Hill
#
# Bulk Modulus (GPa) = 58.17079 65.39516 61.78298
# Shear Modulus (GPa) = 37.53725 39.35341 38.44533
#
# Velocity S-wave (km/s) = 4.16298 4.26250 4.21303
# Velocity P-wave (km/s) = 7.06851 7.37680 7.22430
#
# Compressibility (1/GPa) = 0.01719076
#
# Stress axis : x y z
#
# Youngs Moduli (GPa) = 82.55186 82.55186 156.66051
#
# Poissons Ratio (x) = 0.20153 0.33436
# Poissons Ratio (y) = 0.20153 0.33436
# Poissons Ratio (z) = 0.17619 0.17619
#
# Static dielectric constant tensor:
#      x y z
#    x 3.865370 0.000000 0.000000 
#    y 0.000000 3.865370 0.000000 
#    z 0.000000 0.000000 3.895120 
# 
# 
# High freq. dielectric constant tensor:
#      x y z
#    x 1.852470 0.000000 0.000000 
#    y 0.000000 1.852470 0.000000 
#    z 0.000000 0.000000 1.866270 
# 
# From -- ./inp_files/413.got.cif
#   From: 2010.03.12/outbox.cif.g09.slc.cpg/sg188_1_cif.got.tgz:413.got - 2010.04.01 12:01:06.
