data_PCOD8327584
_publ_section_title
;
Structure prediction by ZEFSAII (Michael W. Deem and Ramdas Pophale) SiO2 
 PCOD8327584
Probable space group: P -6 2 M
;
_chemical_formula_sum "Si O2"
_cell_formula_units_Z 72
_cell_length_a 23.288891
_cell_length_b 23.288891
_cell_length_c 8.922341
_cell_angle_alpha 90.000000
_cell_angle_beta 90.000000
_cell_angle_gamma 120.000000
_cell_volume 4190.897755
_symmetry_space_group_name_H-M "P -6 2 M"
_symmetry_group_IT_number 189
_symmetry_cell_setting 'hexagonal'
loop_
_space_group_symop_operation_xyz
x,y,z
-x+y,-x,-z
-y,x-y,z
x,y,-z
-x+y,-x,z
-y,x-y,-z
x-y,-y,-z
-x,-x+y,-z
y,x,-z
y,x,z
x-y,-y,z
-x,-x+y,z
loop_
_atom_site_type_symbol
_atom_site_label
_atom_site_fract_x
_atom_site_fract_y
_atom_site_fract_z
Si Si1 0.131087 0.402199 0.163590
Si Si2 0.733682 0.926157 0.822741
Si Si3 0.859907 0.588824 0.165238
Si Si4 0.924638 0.196423 0.327061
Si Si5 0.791131 0.338719 0.178774
Si Si6 0.212003 0.669858 0.677592
O O1 0.202008 0.408669 0.148822
O O2 0.085396 0.342807 0.275055
O O3 0.146322 0.474735 0.218572
O O4 0.096463 0.385524 0.000000
O O5 0.661362 0.914479 0.772684
O O6 0.750731 0.873081 0.753396
O O7 0.788928 0.000000 0.771771
O O8 0.733111 0.917403 0.000000
O O9 0.848514 0.531041 0.280576
O O10 0.879671 0.574569 0.000000
O O11 0.906926 0.185582 0.500000
O O12 0.000000 0.215662 0.294544
O O13 0.808492 0.406704 0.258111
O O14 0.722865 0.280284 0.245520
O O15 0.782623 0.341212 0.000000
O O16 0.221393 0.672518 0.500000
#
# Coordination Sequence:
#
# PCOD8327584 Si02
#       6
#    12  12  12  12  12  12
#     4   8  16  30  48  67  87 119 162 201 235 274
#     4   9  18  33  54  78 100 124 157 194 227 262
#     4   8  15  29  46  65  91 121 153 191 236 280
#     4  10  20  32  49  76 106 131 153 182 226 276
#     4  10  19  31  44  60  87 122 159 201 249 292
#     4  11  20  28  41  64  91 120 158 200 243 292
#
# _framework density 17.180088999999999
#
# number of rings (size 3 to 8) (size 9 to 14) (size 15 to 20)
#    0.000    2.667    0.000    4.833    0.000    8.333 
#    0.000    0.000    0.000    1.333    0.000    2.333 
#    0.000    0.000    0.000    0.000    0.000    0.000 
#
# Total GULP energy -892302.548751 kJ/mol
# GULP energy per Si atom -12393.090955 kJ/mol
# Density = 1.714099 g / cm^3
# Si number density = 17.180089 Si / 1000 Ang^3
#
#
#
# Elastic Constant Matrix: (Units=GPa)
#
#
# Indices 1 2 3 4 5 6 
#
# 1 86.6064 46.5345 45.0759 0.0000 0.0000 0.0000
# 2 46.5345 86.6064 45.0759 0.0000 0.0000 0.0000
# 3 45.0759 45.0759 89.0043 0.0000 0.0000 0.0000
# 4 0.0000 0.0000 0.0000 15.5710 0.0000 0.0000
# 5 0.0000 0.0000 0.0000 0.0000 15.5710 0.0000
# 6 0.0000 0.0000 0.0000 0.0000 0.0000 20.0359
#
#
#
# Elastic Compliance Matrix: (Units=1/GPa)
#
#
# Indices 1 2 3 4 5 6 
#
# 1 0.018193 -0.006762 -0.005789 0.000000 0.000000 0.000000
# 2 -0.006762 0.018193 -0.005789 0.000000 0.000000 0.000000
# 3 -0.005789 -0.005789 0.017099 0.000000 0.000000 0.000000
# 4 0.000000 0.000000 0.000000 0.064222 0.000000 0.000000
# 5 0.000000 0.000000 0.000000 0.000000 0.064222 0.000000
# 6 0.000000 0.000000 0.000000 0.000000 0.000000 0.049910
#
#
# Mechanical properties :
#
#
# Convention : Reuss Voigt Hill
#
# Bulk Modulus (GPa) = 59.50845 59.50995 59.50920
# Shear Modulus (GPa) = 18.24013 18.60432 18.42223
#
# Velocity S-wave (km/s) = 3.26191 3.29431 3.27815
# Velocity P-wave (km/s) = 6.99285 7.01314 7.00300
#
# Compressibility (1/GPa) = 0.01680434
#
# Stress axis : x y z
#
# Youngs Moduli (GPa) = 54.96647 54.96647 58.48274
#
# Poissons Ratio (x) = 0.37170 0.33856
# Poissons Ratio (y) = 0.37170 0.33856
# Poissons Ratio (z) = 0.31820 0.31820
#
# Static dielectric constant tensor:
#      x y z
#    x 3.284440 0.000000 0.000000 
#    y 0.000000 3.284440 0.000000 
#    z 0.000000 0.000000 3.214210 
# 
# 
# High freq. dielectric constant tensor:
#      x y z
#    x 1.642330 0.000000 0.000000 
#    y 0.000000 1.642330 0.000000 
#    z 0.000000 0.000000 1.665120 
# 
# From -- ./inp_files/1251.got.cif
#   From: 2010.03.12/outbox.cif.g09.slc.cpg/sg189_1_cif.got.tgz:1251.got - 2010.04.01 12:03:36.
