data_PCOD8327651
_publ_section_title
;
Structure prediction by ZEFSAII (Michael W. Deem and Ramdas Pophale) SiO2 
 PCOD8327651
Probable space group: P -6 2 M
;
_chemical_formula_sum "Si O2"
_cell_formula_units_Z 66
_cell_length_a 22.564839
_cell_length_b 22.564839
_cell_length_c 8.118515
_cell_angle_alpha 90.000000
_cell_angle_beta 90.000000
_cell_angle_gamma 120.000000
_cell_volume 3579.906695
_symmetry_space_group_name_H-M "P -6 2 M"
_symmetry_group_IT_number 189
_symmetry_cell_setting 'hexagonal'
loop_
_space_group_symop_operation_xyz
x,y,z
-x+y,-x,-z
-y,x-y,z
x,y,-z
-x+y,-x,z
-y,x-y,-z
x-y,-y,-z
-x,-x+y,-z
y,x,-z
y,x,z
x-y,-y,z
-x,-x+y,z
loop_
_atom_site_type_symbol
_atom_site_label
_atom_site_fract_x
_atom_site_fract_y
_atom_site_fract_z
Si Si1 0.341070 0.923953 0.305709
Si Si2 0.921639 0.761314 0.312632
Si Si3 0.700778 0.228673 0.185056
Si Si4 0.920228 0.078599 0.000000
Si Si5 0.808876 0.196296 0.310126
Si Si6 0.560853 0.190786 0.311709
O O1 0.345733 0.933747 0.500000
O O2 0.261240 0.880788 0.249323
O O3 0.378143 0.881292 0.248402
O O4 0.378611 0.000000 0.223403
O O5 0.908210 0.779672 0.500000
O O6 0.904115 0.799230 0.170005
O O7 0.874309 0.681380 0.278035
O O8 0.000000 0.779482 0.296270
O O9 0.744970 0.191883 0.214520
O O10 0.632163 0.192003 0.294432
O O11 0.745328 0.309658 0.216487
O O12 0.674392 0.216360 0.000000
O O13 0.000000 0.125212 0.000000
O O14 0.900156 0.000000 0.000000
O O15 0.798800 0.207522 0.500000
O O16 0.546823 0.200139 0.500000
#
# Coordination Sequence:
#
# PCOD8327651 Si02
#       6
#    12  12  12   6  12  12
#     4   8  15  29  50  74  98 127 163 207 258 310
#     4   9  19  36  57  81 111 147 186 228 273 323
#     4  11  21  32  50  74 102 132 172 220 268 320
#     4  10  21  36  56  82 114 146 180 220 272 328
#     4   9  18  33  54  77 103 136 177 220 266 319
#     4  10  19  33  51  71  99 132 169 211 262 317
#
# _framework density 18.436235
#
# number of rings (size 3 to 8) (size 9 to 14) (size 15 to 20)
#    0.000    2.545    0.000    3.727    1.273    1.091 
#    0.000    2.727    0.000   16.364    0.000    0.000 
#    0.000    0.000    0.000    0.000    0.000    0.000 
#
# Total GULP energy -818064.754034 kJ/mol
# GULP energy per Si atom -12394.920516 kJ/mol
# Density = 1.839427 g / cm^3
# Si number density = 18.436235 Si / 1000 Ang^3
#
#
#
# Elastic Constant Matrix: (Units=GPa)
#
#
# Indices 1 2 3 4 5 6 
#
# 1 111.7791 67.2307 34.0494 0.0000 0.0000 0.0000
# 2 67.2307 111.7791 34.0494 0.0000 0.0000 0.0000
# 3 34.0494 34.0494 71.9842 0.0000 0.0000 0.0000
# 4 0.0000 0.0000 0.0000 16.4785 0.0000 0.0000
# 5 0.0000 0.0000 0.0000 0.0000 16.4785 0.0000
# 6 0.0000 0.0000 0.0000 0.0000 0.0000 22.2742
#
#
#
# Elastic Compliance Matrix: (Units=1/GPa)
#
#
# Indices 1 2 3 4 5 6 
#
# 1 0.014630 -0.007818 -0.003222 0.000000 0.000000 0.000000
# 2 -0.007818 0.014630 -0.003222 0.000000 0.000000 0.000000
# 3 -0.003222 -0.003222 0.016940 0.000000 0.000000 0.000000
# 4 0.000000 0.000000 0.000000 0.060685 0.000000 0.000000
# 5 0.000000 0.000000 0.000000 0.000000 0.060685 0.000000
# 6 0.000000 0.000000 0.000000 0.000000 0.000000 0.044895
#
#
# Mechanical properties :
#
#
# Convention : Reuss Voigt Hill
#
# Bulk Modulus (GPa) = 56.57521 62.91125 59.74323
# Shear Modulus (GPa) = 20.25268 21.72712 20.98990
#
# Velocity S-wave (km/s) = 3.31800 3.43665 3.37785
# Velocity P-wave (km/s) = 6.74036 7.06719 6.90571
#
# Compressibility (1/GPa) = 0.01767559
#
# Stress axis : x y z
#
# Youngs Moduli (GPa) = 68.35376 68.35376 59.03119
#
# Poissons Ratio (x) = 0.53437 0.19021
# Poissons Ratio (y) = 0.53437 0.19021
# Poissons Ratio (z) = 0.22025 0.22025
#
# Static dielectric constant tensor:
#      x y z
#    x 3.359220 0.000000 0.000000 
#    y 0.000000 3.359220 0.000000 
#    z 0.000000 0.000000 3.371870 
# 
# 
# High freq. dielectric constant tensor:
#      x y z
#    x 1.706710 0.000000 0.000000 
#    y 0.000000 1.706710 0.000000 
#    z 0.000000 0.000000 1.710930 
# 
# From -- ./inp_files/1043.got.cif
#   From: 2010.03.12/outbox.cif.g09.slc.cpg/sg189_1_cif.got.tgz:1043.got - 2010.04.01 12:03:36.
