data_PCOD8327787
_publ_section_title
;
Structure prediction by ZEFSAII (Michael W. Deem and Ramdas Pophale) SiO2 
 PCOD8327787
Probable space group: P -6 2 M
;
_chemical_formula_sum "Si O2"
_cell_formula_units_Z 48
_cell_length_a 15.424824
_cell_length_b 15.424824
_cell_length_c 13.106357
_cell_angle_alpha 90.000000
_cell_angle_beta 90.000000
_cell_angle_gamma 120.000000
_cell_volume 2700.555206
_symmetry_space_group_name_H-M "P -6 2 M"
_symmetry_group_IT_number 189
_symmetry_cell_setting 'hexagonal'
loop_
_space_group_symop_operation_xyz
x,y,z
-x+y,-x,-z
-y,x-y,z
x,y,-z
-x+y,-x,z
-y,x-y,-z
x-y,-y,-z
-x,-x+y,-z
y,x,-z
y,x,z
x-y,-y,z
-x,-x+y,z
loop_
_atom_site_type_symbol
_atom_site_label
_atom_site_fract_x
_atom_site_fract_y
_atom_site_fract_z
Si Si1 0.427023 0.542012 0.117269
Si Si2 0.235270 0.886090 0.385696
Si Si3 0.229244 0.113155 0.211884
Si Si4 0.209969 0.449447 0.194015
O O1 0.488610 0.488610 0.153824
O O2 0.329328 0.504019 0.186644
O O3 0.494729 0.660802 0.127987
O O4 0.394156 0.516638 0.000000
O O5 0.208461 0.841585 0.500000
O O6 0.138312 0.884087 0.333336
O O7 0.266305 0.819726 0.314317
O O8 0.327139 0.000000 0.387479
O O9 0.177279 0.177279 0.187256
O O10 0.335269 0.160772 0.151547
O O11 0.156969 0.000000 0.174300
#
# Coordination Sequence:
#
# PCOD8327787 Si02
#       4
#    12  12  12  12
#     4  11  22  36  56  80 102 133 181 230 281 336
#     4   8  16  32  54  79 112 150 181 215 260 315
#     4   9  17  30  52  79 112 146 180 216 262 320
#     4  10  20  36  54  76 109 141 177 231 279 320
#
# _framework density 17.774122999999999
#
# number of rings (size 3 to 8) (size 9 to 14) (size 15 to 20)
#    1.500    1.000    0.000    3.750    0.000    0.500 
#    0.000    1.250    0.000    3.000    0.000    0.000 
#    0.000   12.000    0.000    0.000    0.000    0.000 
#
# Total GULP energy -594699.938710 kJ/mol
# GULP energy per Si atom -12389.582056 kJ/mol
# Density = 1.773367 g / cm^3
# Si number density = 17.774123 Si / 1000 Ang^3
#
#
#
# Elastic Constant Matrix: (Units=GPa)
#
#
# Indices 1 2 3 4 5 6 
#
# 1 122.0268 50.2256 36.2540 0.0000 0.0000 0.0000
# 2 50.2256 122.0268 36.2540 0.0000 0.0000 0.0000
# 3 36.2540 36.2540 32.0041 0.0000 0.0000 0.0000
# 4 0.0000 0.0000 0.0000 16.5944 0.0000 0.0000
# 5 0.0000 0.0000 0.0000 0.0000 16.5944 0.0000
# 6 0.0000 0.0000 0.0000 0.0000 0.0000 35.9006
#
#
#
# Elastic Compliance Matrix: (Units=1/GPa)
#
#
# Indices 1 2 3 4 5 6 
#
# 1 0.012512 -0.001415 -0.012570 0.000000 0.000000 0.000000
# 2 -0.001415 0.012512 -0.012570 0.000000 0.000000 0.000000
# 3 -0.012570 -0.012570 0.059725 0.000000 0.000000 0.000000
# 4 0.000000 0.000000 0.000000 0.060261 0.000000 0.000000
# 5 0.000000 0.000000 0.000000 0.000000 0.060261 0.000000
# 6 0.000000 0.000000 0.000000 0.000000 0.000000 0.027855
#
#
# Mechanical properties :
#
#
# Convention : Reuss Voigt Hill
#
# Bulk Modulus (GPa) = 31.60827 57.94720 44.77774
# Shear Modulus (GPa) = 16.84726 24.03947 20.44336
#
# Velocity S-wave (km/s) = 3.08206 3.68162 3.39510
# Velocity P-wave (km/s) = 5.52154 7.12357 6.37309
#
# Compressibility (1/GPa) = 0.03163729
#
# Stress axis : x y z
#
# Youngs Moduli (GPa) = 79.92285 79.92285 16.74341
#
# Poissons Ratio (x) = 0.11311 0.21047
# Poissons Ratio (y) = 0.11311 0.21047
# Poissons Ratio (z) = 1.00466 1.00466
#
# Static dielectric constant tensor:
#      x y z
#    x 3.156120 0.000000 0.000000 
#    y 0.000000 3.156120 0.000000 
#    z 0.000000 0.000000 3.038840 
# 
# 
# High freq. dielectric constant tensor:
#      x y z
#    x 1.683340 0.000000 0.000000 
#    y 0.000000 1.683340 0.000000 
#    z 0.000000 0.000000 1.660210 
# 
# From -- ./inp_files/2379.got.cif
#   From: 2010.03.12/outbox.cif.g09.slc.cpg/sg189_2_cif.got.tgz:2379.got - 2010.04.01 12:03:36.
