data_PCOD8327840
_publ_section_title
;
Structure prediction by ZEFSAII (Michael W. Deem and Ramdas Pophale) SiO2 
 PCOD8327840
Probable space group: P -6 2 M
;
_chemical_formula_sum "Si O2"
_cell_formula_units_Z 96
_cell_length_a 13.976207
_cell_length_b 13.976207
_cell_length_c 28.102059
_cell_angle_alpha 90.000000
_cell_angle_beta 90.000000
_cell_angle_gamma 120.000000
_cell_volume 4753.871317
_symmetry_space_group_name_H-M "P -6 2 M"
_symmetry_group_IT_number 189
_symmetry_cell_setting 'hexagonal'
loop_
_space_group_symop_operation_xyz
x,y,z
-x+y,-x,-z
-y,x-y,z
x,y,-z
-x+y,-x,z
-y,x-y,-z
x-y,-y,-z
-x,-x+y,-z
y,x,-z
y,x,z
x-y,-y,z
-x,-x+y,z
loop_
_atom_site_type_symbol
_atom_site_label
_atom_site_fract_x
_atom_site_fract_y
_atom_site_fract_z
Si Si1 0.426868 0.551871 0.622819
Si Si2 0.869314 0.546513 0.096062
Si Si3 0.578595 0.703580 0.551976
Si Si4 0.875468 0.423542 0.724922
Si Si5 0.695074 0.124248 0.797889
Si Si6 0.877162 0.205742 0.270173
Si Si7 0.874810 0.341436 0.945007
Si Si8 0.669777 0.877100 0.624115
O O1 0.529554 0.529554 0.627840
O O2 0.463423 0.647094 0.582451
O O3 0.413414 0.598642 0.673717
O O4 0.316972 0.441803 0.608966
O O5 0.825156 0.546618 0.149523
O O6 0.849092 0.424876 0.084722
O O7 0.787247 0.572613 0.065156
O O8 0.000000 0.638953 0.087610
O O9 0.562358 0.745686 0.500000
O O10 0.611722 0.611722 0.541970
O O11 0.677485 0.800804 0.583299
O O12 0.815095 0.462319 0.763432
O O13 0.879544 0.318255 0.743276
O O14 0.000000 0.527384 0.718196
O O15 0.798820 0.124205 0.771197
O O16 0.598204 0.000000 0.806147
O O17 0.831172 0.166543 0.322874
O O18 0.000000 0.222391 0.266675
O O19 0.000000 0.367681 0.933276
O O20 0.866058 0.365961 0.000000
O O21 0.774312 0.000000 0.620845
#
# Coordination Sequence:
#
# PCOD8327840 Si02
#       8
#    12  12  12  12  12  12  12  12
#     4   9  17  33  54  74 100 134 170 214 263 318
#     4  10  22  38  59  88 127 167 206 257 316 374
#     4  10  21  38  57  77 105 139 176 220 274 335
#     4   9  17  32  52  74 104 139 177 219 267 326
#     4  10  21  37  54  81 119 154 190 234 284 340
#     4  11  21  34  57  83 112 153 193 228 275 334
#     4  10  21  38  62  91 122 162 212 261 312 371
#     4  11  21  35  58  83 109 140 180 226 273 329
#
# _framework density 20.194068000000001
#
# number of rings (size 3 to 8) (size 9 to 14) (size 15 to 20)
#    0.000    2.000    2.500    1.375    1.750    2.000 
#    1.500    2.500    0.000    4.750    0.000    0.000 
#    0.000    0.000    0.000    0.000    0.000    0.000 
#
# Total GULP energy -1189454.224557 kJ/mol
# GULP energy per Si atom -12390.148172 kJ/mol
# Density = 2.014811 g / cm^3
# Si number density = 20.194068 Si / 1000 Ang^3
#
#
#
# Elastic Constant Matrix: (Units=GPa)
#
#
# Indices 1 2 3 4 5 6 
#
# 1 74.2812 25.0823 29.4474 0.0000 0.0000 0.0000
# 2 25.0823 74.2812 29.4474 0.0000 0.0000 0.0000
# 3 29.4474 29.4474 139.8325 0.0000 0.0000 0.0000
# 4 0.0000 0.0000 0.0000 19.9070 0.0000 0.0000
# 5 0.0000 0.0000 0.0000 0.0000 19.9070 0.0000
# 6 0.0000 0.0000 0.0000 0.0000 0.0000 24.5995
#
#
#
# Elastic Compliance Matrix: (Units=1/GPa)
#
#
# Indices 1 2 3 4 5 6 
#
# 1 0.015913 -0.004413 -0.002422 0.000000 0.000000 0.000000
# 2 -0.004413 0.015913 -0.002422 0.000000 0.000000 0.000000
# 3 -0.002422 -0.002422 0.008171 0.000000 0.000000 0.000000
# 4 0.000000 0.000000 0.000000 0.050234 0.000000 0.000000
# 5 0.000000 0.000000 0.000000 0.000000 0.050234 0.000000
# 6 0.000000 0.000000 0.000000 0.000000 0.000000 0.040651
#
#
# Mechanical properties :
#
#
# Convention : Reuss Voigt Hill
#
# Bulk Modulus (GPa) = 46.54723 50.70545 48.62634
# Shear Modulus (GPa) = 24.17925 26.51056 25.34491
#
# Velocity S-wave (km/s) = 3.46402 3.62717 3.54654
# Velocity P-wave (km/s) = 6.25294 6.53494 6.39549
#
# Compressibility (1/GPa) = 0.02148356
#
# Stress axis : x y z
#
# Youngs Moduli (GPa) = 62.84354 62.84354 122.37836
#
# Poissons Ratio (x) = 0.27733 0.29636
# Poissons Ratio (y) = 0.27733 0.29636
# Poissons Ratio (z) = 0.15219 0.15219
#
# Static dielectric constant tensor:
#      x y z
#    x 3.612530 0.000000 0.000000 
#    y 0.000000 3.612530 0.000000 
#    z 0.000000 0.000000 3.990470 
# 
# 
# High freq. dielectric constant tensor:
#      x y z
#    x 1.767180 0.000000 0.000000 
#    y 0.000000 1.767180 0.000000 
#    z 0.000000 0.000000 1.794830 
# 
# From -- ./inp_files/3698.got.cif
#   From: 2010.03.12/outbox.cif.g09.slc.cpg/sg189_2_cif.got.tgz:3698.got - 2010.04.01 12:03:36.
