data_PCOD8327090
_publ_section_title
;
Structure prediction by ZEFSAII (Michael W. Deem and Ramdas Pophale) SiO2 
 PCOD8327090
Probable space group: P -6 M 2
;
_chemical_formula_sum "Si O2"
_cell_formula_units_Z 60
_cell_length_a 12.630151
_cell_length_b 12.630151
_cell_length_c 26.216610
_cell_angle_alpha 90.000000
_cell_angle_beta 90.000000
_cell_angle_gamma 120.000000
_cell_volume 3621.798219
_symmetry_space_group_name_H-M "P -6 M 2"
_symmetry_group_IT_number 187
_symmetry_cell_setting 'hexagonal'
loop_
_space_group_symop_operation_xyz
x,y,z
-x+y,-x,-z
-y,x-y,z
x,y,-z
-x+y,-x,z
-y,x-y,-z
-y,-x,-z
-x+y,y,-z
x,x-y,-z
-x+y,y,z
x,x-y,z
-y,-x,z
loop_
_atom_site_type_symbol
_atom_site_label
_atom_site_fract_x
_atom_site_fract_y
_atom_site_fract_z
Si Si1 0.248394 0.247065 0.202237
Si Si2 0.418482 0.332441 0.702117
Si Si3 0.997735 0.759297 0.500000
Si Si4 0.752747 0.750067 0.610668
Si Si5 0.574686 0.905742 0.000000
Si Si6 0.330800 0.417094 0.889435
O O1 0.123393 0.246785 0.209796
O O2 0.333056 0.314659 0.250132
O O3 0.320006 0.318061 0.151373
O O4 0.217289 0.108645 0.197627
O O5 0.452833 0.226417 0.698809
O O6 0.540417 0.459584 0.708451
O O7 0.349285 0.336690 0.651150
O O8 0.133804 0.866196 0.500000
O O9 0.979096 0.688084 0.446199
O O10 0.907328 0.814656 0.500000
O O11 0.746247 0.873124 0.615825
O O12 0.891981 0.783962 0.621880
O O13 0.645527 0.959165 0.053845
O O14 0.466346 0.932692 0.000000
O O15 0.520788 0.760394 0.000000
O O16 0.226039 0.452078 0.879633
O O17 0.460865 0.539136 0.883901
#
# Coordination Sequence:
#
# PCOD8327090 Si02
#       6
#    12  12   6  12   6  12
#     4  10  20  33  49  68  91 118 148 184 225 271
#     4  10  20  33  48  65  87 116 150 187 225 267
#     4   8  13  22  39  66  96 122 148 180 220 260
#     4   9  16  27  46  71  97 122 149 184 224 265
#     4   8  13  22  39  64  92 120 150 184 220 256
#     4   9  16  27  45  69  95 121 150 185 224 263
#
# _framework density 16.566357
#
# number of rings (size 3 to 8) (size 9 to 14) (size 15 to 20)
#    0.000    2.800    0.000    2.200    0.000    3.200 
#    0.000    3.000    0.000    4.800    0.000    2.800 
#    0.000    0.000    0.000    0.000    0.000    0.000 
#
# Total GULP energy -743305.206543 kJ/mol
# GULP energy per Si atom -12388.420109 kJ/mol
# Density = 1.652865 g / cm^3
# Si number density = 16.566357 Si / 1000 Ang^3
#
#
#
# Elastic Constant Matrix: (Units=GPa)
#
#
# Indices 1 2 3 4 5 6 
#
# 1 71.2415 39.4746 54.7503 0.0000 0.0001 0.0000
# 2 39.4746 71.2415 54.7503 0.0000 -0.0001 0.0000
# 3 54.7503 54.7503 164.1046 0.0000 0.0000 0.0000
# 4 0.0000 0.0000 0.0000 23.2713 0.0000 -0.0001
# 5 0.0001 -0.0001 0.0000 0.0000 23.2713 0.0000
# 6 0.0000 0.0000 0.0000 -0.0001 0.0000 15.8834
#
#
#
# Elastic Compliance Matrix: (Units=1/GPa)
#
#
# Indices 1 2 3 4 5 6 
#
# 1 0.022480 -0.009000 -0.004497 0.000000 0.000000 0.000000
# 2 -0.009000 0.022480 -0.004497 0.000000 0.000000 0.000000
# 3 -0.004497 -0.004497 0.009095 0.000000 0.000000 0.000000
# 4 0.000000 0.000000 0.000000 0.042971 0.000000 0.000000
# 5 0.000000 0.000000 0.000000 0.000000 0.042971 0.000000
# 6 0.000000 0.000000 0.000000 0.000000 0.000000 0.062959
#
#
# Mechanical properties :
#
#
# Convention : Reuss Voigt Hill
#
# Bulk Modulus (GPa) = 55.35465 67.17089 61.26277
# Shear Modulus (GPa) = 20.41101 22.99271 21.70186
#
# Velocity S-wave (km/s) = 3.51390 3.72952 3.62331
# Velocity P-wave (km/s) = 7.06752 7.69287 7.38682
#
# Compressibility (1/GPa) = 0.01806533
#
# Stress axis : x y z
#
# Youngs Moduli (GPa) = 44.48453 44.48453 109.95528
#
# Poissons Ratio (x) = 0.40034 0.49451
# Poissons Ratio (y) = 0.40034 0.49451
# Poissons Ratio (z) = 0.20006 0.20006
#
# Static dielectric constant tensor:
#      x y z
#    x 2.853940 0.000000 0.000000 
#    y 0.000000 2.853940 0.000000 
#    z 0.000000 0.000000 3.792650 
# 
# 
# High freq. dielectric constant tensor:
#      x y z
#    x 1.609870 0.000000 0.000000 
#    y 0.000000 1.609870 0.000000 
#    z 0.000000 0.000000 1.669380 
# 
# From -- ./inp_files/4176.got.cif
#   From: 2010.03.12/outbox.cif.g09.slc.cpg/sg187_3_cif.got.tgz:4176.got - 2010.04.01 11:58:23.
