data_PCOD8327411
_publ_section_title
;
Structure prediction by ZEFSAII (Michael W. Deem and Ramdas Pophale) SiO2 
 PCOD8327411
Probable space group: P -6 C 2
;
_chemical_formula_sum "Si O2"
_cell_formula_units_Z 52
_cell_length_a 11.376090
_cell_length_b 11.376090
_cell_length_c 23.559912
_cell_angle_alpha 90.000000
_cell_angle_beta 90.000000
_cell_angle_gamma 120.000000
_cell_volume 2640.525307
_symmetry_space_group_name_H-M "P -6 C 2"
_symmetry_group_IT_number 188
_symmetry_cell_setting 'hexagonal'
loop_
_space_group_symop_operation_xyz
x,y,z
-x+y,-x,1/2-z
-y,x-y,z
x,y,1/2-z
-x+y,-x,z
-y,x-y,1/2-z
-y,-x,-z
-x+y,y,-z
x,x-y,-z
-x+y,y,1/2+z
x,x-y,1/2+z
-y,-x,1/2+z
loop_
_atom_site_type_symbol
_atom_site_label
_atom_site_fract_x
_atom_site_fract_y
_atom_site_fract_z
Si Si1 0.269466 0.999840 0.380017
Si Si2 0.669308 0.062012 0.000000
Si Si3 0.333335 0.666667 0.317102
Si Si4 0.730373 0.999838 0.380017
Si Si5 0.486607 0.513395 0.182708
O O1 0.403212 0.041293 0.342231
O O2 0.143360 0.856642 0.360003
O O3 0.300477 0.989573 0.445611
O O4 0.229032 0.114517 0.370507
O O5 0.777709 0.222292 0.000000
O O6 0.520463 0.040925 0.000000
O O7 0.689095 0.989573 0.054390
O O8 0.333334 0.666668 0.250000
O O9 0.180955 0.590471 0.339907
O O10 0.638080 0.041288 0.342230
O O11 0.494099 0.505904 0.250000
#
# Coordination Sequence:
#
# PCOD8327411 Si02
#       5
#    12  12   4  12  12
#     4  11  23  40  63  91 125 161 201 248 305 365
#     4  10  20  36  60  90 122 157 197 248 304 364
#     4   9  18  36  63  85 113 154 198 252 304 353
#     4  11  23  40  63  91 125 161 201 248 305 365
#     4  11  22  39  63  89 119 159 207 254 302 357
#
# _framework density 19.693052000000002
#
# number of rings (size 3 to 8) (size 9 to 14) (size 15 to 20)
#    0.000    1.385    4.615    1.385    0.000    0.923 
#    1.385    2.308    0.000    2.769    0.000    0.000 
#    0.000    0.000    0.000    0.000    0.000    0.000 
#
# Total GULP energy -645018.693943 kJ/mol
# GULP energy per Si atom -12404.205653 kJ/mol
# Density = 1.964823 g / cm^3
# Si number density = 19.693052 Si / 1000 Ang^3
#
#
#
# Elastic Constant Matrix: (Units=GPa)
#
#
# Indices 1 2 3 4 5 6 
#
# 1 92.6013 41.3144 29.6404 0.0000 0.0000 -0.0001
# 2 41.3144 92.6013 29.6404 0.0000 0.0000 0.0000
# 3 29.6404 29.6404 110.8956 0.0000 0.0000 0.0000
# 4 0.0000 0.0000 0.0000 13.7451 0.0000 0.0000
# 5 0.0000 0.0000 0.0000 0.0000 13.7451 0.0000
# 6 -0.0001 0.0000 0.0000 0.0000 0.0000 25.6434
#
#
#
# Elastic Compliance Matrix: (Units=1/GPa)
#
#
# Indices 1 2 3 4 5 6 
#
# 1 0.013984 -0.005514 -0.002264 0.000000 0.000000 0.000000
# 2 -0.005514 0.013984 -0.002264 0.000000 0.000000 0.000000
# 3 -0.002264 -0.002264 0.010228 0.000000 0.000000 0.000000
# 4 0.000000 0.000000 0.000000 0.072753 0.000000 0.000000
# 5 0.000000 0.000000 0.000000 0.000000 0.072753 0.000000
# 6 0.000000 0.000000 0.000000 0.000000 0.000000 0.038996
#
#
# Mechanical properties :
#
#
# Convention : Reuss Voigt Hill
#
# Bulk Modulus (GPa) = 55.21323 55.25430 55.23377
# Shear Modulus (GPa) = 20.09494 23.66026 21.87760
#
# Velocity S-wave (km/s) = 3.19785 3.46996 3.33668
# Velocity P-wave (km/s) = 6.46009 6.64626 6.55384
#
# Compressibility (1/GPa) = 0.01811160
#
# Stress axis : x y z
#
# Youngs Moduli (GPa) = 71.51122 71.51117 97.77462
#
# Poissons Ratio (x) = 0.39434 0.22134
# Poissons Ratio (y) = 0.39434 0.22134
# Poissons Ratio (z) = 0.16188 0.16188
#
# Static dielectric constant tensor:
#      x y z
#    x 3.504090 0.000000 0.000000 
#    y 0.000000 3.504100 0.000000 
#    z 0.000000 0.000000 3.473930 
# 
# 
# High freq. dielectric constant tensor:
#      x y z
#    x 1.768170 0.000000 0.000000 
#    y 0.000000 1.768170 0.000000 
#    z 0.000000 0.000000 1.762710 
# 
# From -- ./inp_files/3610.got.cif
#   From: 2010.03.12/outbox.cif.g09.slc.cpg/sg188_2_cif.got.tgz:3610.got - 2010.04.01 12:01:06.
