data_PCOD8327723
_publ_section_title
;
Structure prediction by ZEFSAII (Michael W. Deem and Ramdas Pophale) SiO2 
 PCOD8327723
Probable space group: P -6 2 M
;
_chemical_formula_sum "Si O2"
_cell_formula_units_Z 72
_cell_length_a 23.051994
_cell_length_b 23.051994
_cell_length_c 8.862021
_cell_angle_alpha 90.000000
_cell_angle_beta 90.000000
_cell_angle_gamma 120.000000
_cell_volume 4078.311578
_symmetry_space_group_name_H-M "P -6 2 M"
_symmetry_group_IT_number 189
_symmetry_cell_setting 'hexagonal'
loop_
_space_group_symop_operation_xyz
x,y,z
-x+y,-x,-z
-y,x-y,z
x,y,-z
-x+y,-x,z
-y,x-y,-z
x-y,-y,-z
-x,-x+y,-z
y,x,-z
y,x,z
x-y,-y,z
-x,-x+y,z
loop_
_atom_site_type_symbol
_atom_site_label
_atom_site_fract_x
_atom_site_fract_y
_atom_site_fract_z
Si Si1 0.184373 0.619109 0.174189
Si Si2 0.266994 0.073209 0.323195
Si Si3 0.767485 0.288873 0.176500
Si Si4 0.792115 0.181828 0.678484
Si Si5 0.924774 0.849675 0.829815
Si Si6 0.922325 0.579462 0.179930
O O1 0.253733 0.687750 0.199623
O O2 0.195437 0.560288 0.242064
O O3 0.119719 0.621759 0.240651
O O4 0.169738 0.603063 0.000000
O O5 0.275025 0.070841 0.500000
O O6 0.333299 0.136047 0.256480
O O7 0.206984 0.086647 0.287918
O O8 0.249557 0.000000 0.254949
O O9 0.792220 0.248810 0.277992
O O10 0.783482 0.285802 0.000000
O O11 0.785460 0.170462 0.500000
O O12 0.732423 0.114486 0.754347
O O13 0.911794 0.911794 0.819868
O O14 0.000000 0.874412 0.780979
O O15 0.910386 0.820350 0.000000
O O16 0.000000 0.614850 0.233983
O O17 0.918176 0.581196 0.000000
#
# Coordination Sequence:
#
# PCOD8327723 Si02
#       6
#    12  12  12  12  12  12
#     4   8  14  26  47  72  95 122 155 189 227 274
#     4   9  19  35  50  63  85 120 159 196 232 272
#     4   9  16  29  50  74  99 125 154 189 231 279
#     4  10  20  33  49  69  94 125 162 201 239 281
#     4   9  17  29  46  68  92 115 140 177 228 281
#     4   9  18  33  52  73  99 131 164 198 239 289
#
# _framework density 17.654364999999999
#
# number of rings (size 3 to 8) (size 9 to 14) (size 15 to 20)
#    0.000    3.000    0.000    2.000    0.000    4.667 
#    0.000    7.500    0.000    2.000    0.000    0.000 
#    0.000    0.000    0.000    0.000    0.000    0.000 
#
# Total GULP energy -892075.789647 kJ/mol
# GULP energy per Si atom -12389.941523 kJ/mol
# Density = 1.761418 g / cm^3
# Si number density = 17.654365 Si / 1000 Ang^3
#
#
#
# Elastic Constant Matrix: (Units=GPa)
#
#
# Indices 1 2 3 4 5 6 
#
# 1 116.0215 77.3470 18.5051 0.0000 0.0000 0.0000
# 2 77.3470 116.0215 18.5051 0.0000 0.0000 0.0000
# 3 18.5051 18.5051 15.5307 0.0000 0.0000 0.0000
# 4 0.0000 0.0000 0.0000 21.5140 0.0000 0.0000
# 5 0.0000 0.0000 0.0000 0.0000 21.5140 0.0000
# 6 0.0000 0.0000 0.0000 0.0000 0.0000 19.3373
#
#
#
# Elastic Compliance Matrix: (Units=1/GPa)
#
#
# Indices 1 2 3 4 5 6 
#
# 1 0.016278 -0.009579 -0.007982 0.000000 0.000000 0.000000
# 2 -0.009579 0.016278 -0.007982 0.000000 0.000000 0.000000
# 3 -0.007982 -0.007982 0.083411 0.000000 0.000000 0.000000
# 4 0.000000 0.000000 0.000000 0.046481 0.000000 0.000000
# 5 0.000000 0.000000 0.000000 0.000000 0.046481 0.000000
# 6 0.000000 0.000000 0.000000 0.000000 0.000000 0.051714
#
#
# Mechanical properties :
#
#
# Convention : Reuss Voigt Hill
#
# Bulk Modulus (GPa) = 15.41305 52.92091 34.16698
# Shear Modulus (GPa) = 14.99894 21.35414 18.17654
#
# Velocity S-wave (km/s) = 2.91793 3.48166 3.21218
# Velocity P-wave (km/s) = 4.48351 6.79733 5.75785
#
# Compressibility (1/GPa) = 0.06488009
#
# Stress axis : x y z
#
# Youngs Moduli (GPa) = 61.43243 61.43243 11.98885
#
# Poissons Ratio (x) = 0.58845 0.09570
# Poissons Ratio (y) = 0.58845 0.09570
# Poissons Ratio (z) = 0.49037 0.49037
#
# Static dielectric constant tensor:
#      x y z
#    x 3.488780 0.000000 0.000000 
#    y 0.000000 3.488780 0.000000 
#    z 0.000000 0.000000 2.985700 
# 
# 
# High freq. dielectric constant tensor:
#      x y z
#    x 1.680650 0.000000 0.000000 
#    y 0.000000 1.680650 0.000000 
#    z 0.000000 0.000000 1.655180 
# 
# From -- ./inp_files/1223.got.cif
#   From: 2010.03.12/outbox.cif.g09.slc.cpg/sg189_1_cif.got.tgz:1223.got - 2010.04.01 12:03:36.
