data_PCOD8327392
_publ_section_title
;
Structure prediction by ZEFSAII (Michael W. Deem and Ramdas Pophale) SiO2 
 PCOD8327392
Probable space group: P -6 C 2
;
_chemical_formula_sum "Si O2"
_cell_formula_units_Z 72
_cell_length_a 23.545168
_cell_length_b 23.545168
_cell_length_c 8.630360
_cell_angle_alpha 90.000000
_cell_angle_beta 90.000000
_cell_angle_gamma 120.000000
_cell_volume 4143.459810
_symmetry_space_group_name_H-M "P -6 C 2"
_symmetry_group_IT_number 188
_symmetry_cell_setting 'hexagonal'
loop_
_space_group_symop_operation_xyz
x,y,z
-x+y,-x,1/2-z
-y,x-y,z
x,y,1/2-z
-x+y,-x,z
-y,x-y,1/2-z
-y,-x,-z
-x+y,y,-z
x,x-y,-z
-x+y,y,1/2+z
x,x-y,1/2+z
-y,-x,1/2+z
loop_
_atom_site_type_symbol
_atom_site_label
_atom_site_fract_x
_atom_site_fract_y
_atom_site_fract_z
Si Si1 0.889161 0.219819 0.921713
Si Si2 0.072095 0.264756 0.931524
Si Si3 0.589761 0.060621 0.567159
Si Si4 0.999665 0.124807 0.435222
Si Si5 0.667608 0.675358 0.071161
Si Si6 0.483381 0.297206 0.419569
O O1 0.917962 0.218133 0.750000
O O2 0.839559 0.246620 0.898992
O O3 0.851822 0.148179 0.000000
O O4 0.943230 0.262711 0.046949
O O5 0.072345 0.254501 0.750000
O O6 0.142062 0.284124 0.000000
O O7 0.015312 0.196797 0.006995
O O8 0.062836 0.327224 0.971345
O O9 0.587787 0.060272 0.750000
O O10 0.517659 0.035317 0.500000
O O11 0.612327 0.008941 0.509601
O O12 0.639054 0.134936 0.514840
O O13 0.000125 0.123171 0.250000
O O14 0.054923 0.109845 0.500000
O O15 0.929208 0.070793 0.500000
O O16 0.656472 0.684885 0.250000
O O17 0.515632 0.321220 0.250000
O O18 0.515947 0.257974 0.500000
#
# Coordination Sequence:
#
# PCOD8327392 Si02
#       6
#    12  12  12  12  12  12
#     4   9  16  26  41  63  89 118 150 187 228 272
#     4  11  22  37  54  72  94 124 161 202 245 292
#     4  10  20  33  51  74 101 129 160 197 241 289
#     4  11  21  35  52  72  97 127 165 209 256 303
#     4  10  20  34  50  70  95 125 158 195 238 286
#     4   9  16  27  44  65  91 121 155 190 228 272
#
# _framework density 17.376781999999999
#
# number of rings (size 3 to 8) (size 9 to 14) (size 15 to 20)
#    0.000    2.000    0.000    6.167    0.000    6.667 
#    0.000    3.333    0.000    0.333    0.000    2.333 
#    0.000    0.000    0.000    0.500    0.000    8.000 
#
# Total GULP energy -892363.429445 kJ/mol
# GULP energy per Si atom -12393.936520 kJ/mol
# Density = 1.733723 g / cm^3
# Si number density = 17.376782 Si / 1000 Ang^3
#
#
#
# Elastic Constant Matrix: (Units=GPa)
#
#
# Indices 1 2 3 4 5 6 
#
# 1 83.5575 46.9702 34.1430 0.0003 0.0000 0.0000
# 2 46.9702 83.5575 34.1430 -0.0003 0.0000 0.0000
# 3 34.1430 34.1430 115.8006 0.0000 0.0000 0.0000
# 4 0.0003 -0.0003 0.0000 22.5174 0.0000 0.0000
# 5 0.0000 0.0000 0.0000 0.0000 22.5174 0.0003
# 6 0.0000 0.0000 0.0000 0.0000 0.0003 18.2936
#
#
#
# Elastic Compliance Matrix: (Units=1/GPa)
#
#
# Indices 1 2 3 4 5 6 
#
# 1 0.018195 -0.009137 -0.002671 0.000000 0.000000 0.000000
# 2 -0.009137 0.018195 -0.002671 0.000000 0.000000 0.000000
# 3 -0.002671 -0.002671 0.010210 0.000000 0.000000 0.000000
# 4 0.000000 0.000000 0.000000 0.044410 0.000000 0.000000
# 5 0.000000 0.000000 0.000000 0.000000 0.044410 -0.000001
# 6 0.000000 0.000000 0.000000 0.000000 -0.000001 0.054664
#
#
# Mechanical properties :
#
#
# Convention : Reuss Voigt Hill
#
# Bulk Modulus (GPa) = 56.67613 57.04754 56.86184
# Shear Modulus (GPa) = 22.22982 23.84297 23.03640
#
# Velocity S-wave (km/s) = 3.58059 3.70823 3.64497
# Velocity P-wave (km/s) = 7.05556 7.15791 7.10692
#
# Compressibility (1/GPa) = 0.01764411
#
# Stress axis : x y z
#
# Youngs Moduli (GPa) = 54.95960 54.95960 97.93861
#
# Poissons Ratio (x) = 0.50215 0.26158
# Poissons Ratio (y) = 0.50215 0.26158
# Poissons Ratio (z) = 0.14679 0.14679
#
# Static dielectric constant tensor:
#      x y z
#    x 3.137270 0.000000 0.000000 
#    y 0.000000 3.137270 0.000000 
#    z 0.000000 0.000000 3.491150 
# 
# 
# High freq. dielectric constant tensor:
#      x y z
#    x 1.639340 0.000000 0.000000 
#    y 0.000000 1.639340 0.000000 
#    z 0.000000 0.000000 1.693100 
# 
# From -- ./inp_files/1031.got.cif
#   From: 2010.03.12/outbox.cif.g09.slc.cpg/sg188_1_cif.got.tgz:1031.got - 2010.04.01 12:01:06.
