data_PCOD8327003
_publ_section_title
;
Structure prediction by ZEFSAII (Michael W. Deem and Ramdas Pophale) SiO2 
 PCOD8327003
Probable space group: P -6 M 2
;
_chemical_formula_sum "Si O2"
_cell_formula_units_Z 60
_cell_length_a 17.666458
_cell_length_b 17.666458
_cell_length_c 11.588034
_cell_angle_alpha 90.000000
_cell_angle_beta 90.000000
_cell_angle_gamma 120.000000
_cell_volume 3132.126998
_symmetry_space_group_name_H-M "P -6 M 2"
_symmetry_group_IT_number 187
_symmetry_cell_setting 'hexagonal'
loop_
_space_group_symop_operation_xyz
x,y,z
-x+y,-x,-z
-y,x-y,z
x,y,-z
-x+y,-x,z
-y,x-y,-z
-y,-x,-z
-x+y,y,-z
x,x-y,-z
-x+y,y,z
x,x-y,z
-y,-x,z
loop_
_atom_site_type_symbol
_atom_site_label
_atom_site_fract_x
_atom_site_fract_y
_atom_site_fract_z
Si Si1 0.169415 0.169477 0.250817
Si Si2 0.511383 0.667057 0.233304
Si Si3 0.010231 0.674564 0.635494
Si Si4 0.837039 0.503573 0.362675
Si Si5 0.230459 0.032321 0.000000
Si Si6 0.105632 0.718043 0.000000
O O1 0.075584 0.151168 0.294524
O O2 0.242247 0.261626 0.299164
O O3 0.185154 0.092577 0.298183
O O4 0.169714 0.172267 0.112402
O O5 0.499097 0.749549 0.251900
O O6 0.417588 0.582413 0.239671
O O7 0.570839 0.663905 0.335785
O O8 0.554967 0.670166 0.110947
O O9 0.006603 0.687970 0.500000
O O10 0.923022 0.589690 0.680769
O O11 0.834859 0.500174 0.500000
O O12 0.752442 0.504883 0.313885
O O13 0.837442 0.418721 0.312655
O O14 0.279859 0.139929 0.000000
O O15 0.295072 0.992106 0.000000
O O16 0.178723 0.821278 0.000000
#
# Coordination Sequence:
#
# PCOD8327003 Si02
#       6
#    12  12  12  12   6   6
#     4  11  22  37  58  84 115 149 190 239 291 346
#     4  11  23  39  61  86 114 147 190 244 299 353
#     4  11  23  38  56  79 113 158 199 235 283 347
#     4   9  17  31  52  77 104 135 177 230 284 335
#     4  10  20  35  60  90 117 146 184 232 286 345
#     4  10  19  37  62  86 113 146 182 228 290 349
#
# _framework density 19.156310999999999
#
# number of rings (size 3 to 8) (size 9 to 14) (size 15 to 20)
#    0.000    1.600    2.000    3.600    0.000    4.800 
#    0.000    2.000    0.000    2.600    0.000    0.000 
#    0.000    0.000    0.000    4.000    0.000    2.600 
#
# Total GULP energy -744084.327402 kJ/mol
# GULP energy per Si atom -12401.405457 kJ/mol
# Density = 1.911271 g / cm^3
# Si number density = 19.156311 Si / 1000 Ang^3
#
#
#
# Elastic Constant Matrix: (Units=GPa)
#
#
# Indices 1 2 3 4 5 6 
#
# 1 144.7186 61.7430 28.4496 0.0000 0.0000 0.0000
# 2 61.7430 144.7186 28.4496 0.0000 0.0000 0.0000
# 3 28.4496 28.4496 53.4967 0.0000 0.0000 0.0000
# 4 0.0000 0.0000 0.0000 21.9872 0.0000 0.0000
# 5 0.0000 0.0000 0.0000 0.0000 21.9872 0.0000
# 6 0.0000 0.0000 0.0000 0.0000 0.0000 41.4878
#
#
#
# Elastic Compliance Matrix: (Units=1/GPa)
#
#
# Indices 1 2 3 4 5 6 
#
# 1 0.008864 -0.003188 -0.003018 0.000000 0.000000 0.000000
# 2 -0.003188 0.008864 -0.003018 0.000000 0.000000 0.000000
# 3 -0.003018 -0.003018 0.021903 0.000000 0.000000 0.000000
# 4 0.000000 0.000000 0.000000 0.045481 0.000000 0.000000
# 5 0.000000 0.000000 0.000000 0.000000 0.045481 0.000000
# 6 0.000000 0.000000 0.000000 0.000000 0.000000 0.024103
#
#
# Mechanical properties :
#
#
# Convention : Reuss Voigt Hill
#
# Bulk Modulus (GPa) = 47.21234 64.46870 55.84052
# Shear Modulus (GPa) = 27.74624 32.04521 29.89572
#
# Velocity S-wave (km/s) = 3.80993 4.09446 3.95475
# Velocity P-wave (km/s) = 6.63728 7.48865 7.07578
#
# Compressibility (1/GPa) = 0.02118090
#
# Stress axis : x y z
#
# Youngs Moduli (GPa) = 112.82209 112.82209 45.65619
#
# Poissons Ratio (x) = 0.35970 0.13780
# Poissons Ratio (y) = 0.35970 0.13780
# Poissons Ratio (z) = 0.34051 0.34051
#
# Static dielectric constant tensor:
#      x y z
#    x 3.606630 0.000000 0.000000 
#    y 0.000000 3.606630 0.000000 
#    z 0.000000 0.000000 3.303700 
# 
# 
# High freq. dielectric constant tensor:
#      x y z
#    x 1.752620 0.000000 0.000000 
#    y 0.000000 1.752620 0.000000 
#    z 0.000000 0.000000 1.720830 
# 
# From -- ./inp_files/1690.got.cif
#   From: 2010.03.12/outbox.cif.g09.slc.cpg/sg187_1_cif.got.tgz:1690.got - 2010.04.01 11:58:23.
