data_PCOD8327407
_publ_section_title
;
Structure prediction by ZEFSAII (Michael W. Deem and Ramdas Pophale) SiO2 
 PCOD8327407
Probable space group: P -6 C 2
;
_chemical_formula_sum "Si O2"
_cell_formula_units_Z 64
_cell_length_a 15.732725
_cell_length_b 15.732725
_cell_length_c 17.086045
_cell_angle_alpha 90.000000
_cell_angle_beta 90.000000
_cell_angle_gamma 120.000000
_cell_volume 3662.520637
_symmetry_space_group_name_H-M "P -6 C 2"
_symmetry_group_IT_number 188
_symmetry_cell_setting 'hexagonal'
loop_
_space_group_symop_operation_xyz
x,y,z
-x+y,-x,1/2-z
-y,x-y,z
x,y,1/2-z
-x+y,-x,z
-y,x-y,1/2-z
-y,-x,-z
-x+y,y,-z
x,x-y,-z
-x+y,y,1/2+z
x,x-y,1/2+z
-y,-x,1/2+z
loop_
_atom_site_type_symbol
_atom_site_label
_atom_site_fract_x
_atom_site_fract_y
_atom_site_fract_z
Si Si1 0.553241 0.606720 0.106923
Si Si2 0.486683 0.301362 0.077816
Si Si3 0.037197 0.630024 0.071767
Si Si4 0.642886 0.152139 0.838951
Si Si5 0.333333 0.666667 0.092345
Si Si6 0.213569 0.752109 0.160578
O O1 0.453312 0.503071 0.117013
O O2 0.637028 0.587876 0.142083
O O3 0.558829 0.696654 0.154616
O O4 0.569765 0.639168 0.017422
O O5 0.392855 0.317657 0.075025
O O6 0.476118 0.233198 0.151503
O O7 0.582366 0.407453 0.094968
O O8 0.496000 0.248000 0.000000
O O9 0.114004 0.732169 0.115110
O O10 0.609045 0.155188 0.750000
O O11 0.242613 0.676144 0.123048
O O12 0.333334 0.666667 0.000000
O O13 0.185720 0.724721 0.250000
#
# Coordination Sequence:
#
# PCOD8327407 Si02
#       6
#    12  12  12  12   4  12
#     4  10  20  36  53  76 107 149 184 222 277 328
#     4  11  21  38  56  76 106 147 189 230 280 333
#     4  10  21  35  56  77 104 147 191 229 266 332
#     4  11  22  35  55  81 110 142 186 237 282 330
#     4  12  22  35  52  72 106 155 193 219 259 320
#     4  12  23  34  53  80 112 144 185 233 276 322
#
# _framework density 17.474305000000001
#
# number of rings (size 3 to 8) (size 9 to 14) (size 15 to 20)
#    0.000    1.125    3.750    4.312    0.000    3.750 
#    0.000    0.000    0.000    0.000    0.000    0.000 
#    1.875    0.375    1.125    0.000    0.000    0.000 
#
# Total GULP energy -793301.356504 kJ/mol
# GULP energy per Si atom -12395.333695 kJ/mol
# Density = 1.743453 g / cm^3
# Si number density = 17.474305 Si / 1000 Ang^3
#
#
#
# Elastic Constant Matrix: (Units=GPa)
#
#
# Indices 1 2 3 4 5 6 
#
# 1 79.5656 35.1755 34.0208 -0.0001 0.0000 0.0000
# 2 35.1755 79.5653 34.0209 0.0000 0.0000 0.0000
# 3 34.0208 34.0209 104.9938 -0.0004 -0.0001 0.0000
# 4 -0.0001 0.0000 -0.0004 19.4973 -0.0004 0.0000
# 5 0.0000 0.0000 -0.0001 -0.0004 19.4995 0.0001
# 6 0.0000 0.0000 0.0000 0.0000 0.0001 22.1950
#
#
#
# Elastic Compliance Matrix: (Units=1/GPa)
#
#
# Indices 1 2 3 4 5 6 
#
# 1 0.016658 -0.005870 -0.003496 0.000000 0.000000 0.000000
# 2 -0.005870 0.016658 -0.003496 0.000000 0.000000 0.000000
# 3 -0.003496 -0.003496 0.011790 0.000000 0.000000 0.000000
# 4 0.000000 0.000000 0.000000 0.051289 0.000001 0.000000
# 5 0.000000 0.000000 0.000000 0.000001 0.051283 0.000000
# 6 0.000000 0.000000 0.000000 0.000000 0.000000 0.045055
#
#
# Mechanical properties :
#
#
# Convention : Reuss Voigt Hill
#
# Bulk Modulus (GPa) = 51.59026 52.28434 51.93730
# Shear Modulus (GPa) = 22.23045 22.96552 22.59799
#
# Velocity S-wave (km/s) = 3.57063 3.62918 3.60003
# Velocity P-wave (km/s) = 6.82545 6.89543 6.86053
#
# Compressibility (1/GPa) = 0.01938350
#
# Stress axis : x y z
#
# Youngs Moduli (GPa) = 60.03162 60.03140 84.81935
#
# Poissons Ratio (x) = 0.35237 0.29650
# Poissons Ratio (y) = 0.35237 0.29650
# Poissons Ratio (z) = 0.20985 0.20985
#
# Static dielectric constant tensor:
#      x y z
#    x 3.238020 0.000000 0.000000 
#    y 0.000000 3.238020 0.000000 
#    z 0.000000 0.000000 3.254010 
# 
# 
# High freq. dielectric constant tensor:
#      x y z
#    x 1.649620 0.000000 0.000000 
#    y 0.000000 1.649620 0.000000 
#    z 0.000000 0.000000 1.691660 
# 
# From -- ./inp_files/3110.got.cif
#   From: 2010.03.12/outbox.cif.g09.slc.cpg/sg188_2_cif.got.tgz:3110.got - 2010.04.01 12:01:06.
