data_PCOD8327001
_publ_section_title
;
Structure prediction by ZEFSAII (Michael W. Deem and Ramdas Pophale) SiO2 
 PCOD8327001
Probable space group: P -6 M 2
;
_chemical_formula_sum "Si O2"
_cell_formula_units_Z 60
_cell_length_a 18.134061
_cell_length_b 18.134061
_cell_length_c 11.852343
_cell_angle_alpha 90.000000
_cell_angle_beta 90.000000
_cell_angle_gamma 120.000000
_cell_volume 3375.397990
_symmetry_space_group_name_H-M "P -6 M 2"
_symmetry_group_IT_number 187
_symmetry_cell_setting 'hexagonal'
loop_
_space_group_symop_operation_xyz
x,y,z
-x+y,-x,-z
-y,x-y,z
x,y,-z
-x+y,-x,z
-y,x-y,-z
-y,-x,-z
-x+y,y,-z
x,x-y,-z
-x+y,y,z
x,x-y,z
-y,-x,z
loop_
_atom_site_type_symbol
_atom_site_label
_atom_site_fract_x
_atom_site_fract_y
_atom_site_fract_z
Si Si1 0.000341 0.583066 0.248508
Si Si2 0.825139 0.998656 0.787332
Si Si3 0.078134 0.751391 0.370688
Si Si4 0.055794 0.772536 0.000000
Si Si5 0.558637 0.602238 0.000000
Si Si6 0.498869 0.332023 0.630609
O O1 0.021177 0.510589 0.292161
O O2 0.072489 0.674443 0.294775
O O3 0.988034 0.576185 0.113557
O O4 0.912970 0.569578 0.299359
O O5 0.849366 0.924683 0.803596
O O6 0.769364 0.982573 0.674484
O O7 0.766156 0.999154 0.889953
O O8 0.911271 0.088730 0.779355
O O9 0.052518 0.722543 0.500000
O O10 0.175916 0.824085 0.360109
O O11 0.090852 0.705055 0.000000
O O12 0.138181 0.861820 0.000000
O O13 0.452406 0.547595 0.000000
O O14 0.475958 0.328324 0.500000
O O15 0.491296 0.245648 0.673957
O O16 0.593861 0.406140 0.655786
#
# Coordination Sequence:
#
# PCOD8327001 Si02
#       6
#    12  12  12   6   6  12
#     4  10  20  35  55  77 102 133 171 214 261 314
#     4  10  20  34  53  78 109 145 185 228 271 316
#     4  10  21  36  54  78 107 140 177 216 263 319
#     4  10  19  35  58  80 104 139 181 220 269 324
#     4  10  20  35  54  78 104 133 171 214 262 316
#     4   9  17  30  49  73 100 131 168 210 255 301
#
# _framework density 17.775680999999999
#
# number of rings (size 3 to 8) (size 9 to 14) (size 15 to 20)
#    0.000    2.200    2.000    1.300    0.000    3.200 
#    0.000    1.500    0.000    1.800    0.000    1.400 
#    0.000    0.000    0.000    0.000    0.000    0.000 
#
# Total GULP energy -743462.639892 kJ/mol
# GULP energy per Si atom -12391.043998 kJ/mol
# Density = 1.773522 g / cm^3
# Si number density = 17.775681 Si / 1000 Ang^3
#
#
#
# Elastic Constant Matrix: (Units=GPa)
#
#
# Indices 1 2 3 4 5 6 
#
# 1 86.9405 44.0311 39.7074 0.0000 -0.0001 0.0000
# 2 44.0311 86.9405 39.7074 0.0000 0.0001 0.0000
# 3 39.7074 39.7074 103.7488 0.0000 0.0000 0.0000
# 4 0.0000 0.0000 0.0000 21.2699 0.0000 0.0001
# 5 -0.0001 0.0001 0.0000 0.0000 21.2699 0.0000
# 6 0.0000 0.0000 0.0000 0.0001 0.0000 21.4547
#
#
#
# Elastic Compliance Matrix: (Units=1/GPa)
#
#
# Indices 1 2 3 4 5 6 
#
# 1 0.016624 -0.006681 -0.003805 0.000000 0.000000 0.000000
# 2 -0.006681 0.016624 -0.003805 0.000000 0.000000 0.000000
# 3 -0.003805 -0.003805 0.012551 0.000000 0.000000 0.000000
# 4 0.000000 0.000000 0.000000 0.047015 0.000000 0.000000
# 5 0.000000 0.000000 0.000000 0.000000 0.047015 0.000000
# 6 0.000000 0.000000 0.000000 0.000000 0.000000 0.046610
#
#
# Mechanical properties :
#
#
# Convention : Reuss Voigt Hill
#
# Bulk Modulus (GPa) = 58.08736 58.28017 58.18376
# Shear Modulus (GPa) = 22.64900 23.07783 22.86342
#
# Velocity S-wave (km/s) = 3.57341 3.60708 3.59028
# Velocity P-wave (km/s) = 7.05511 7.08559 7.07037
#
# Compressibility (1/GPa) = 0.01721545
#
# Stress axis : x y z
#
# Youngs Moduli (GPa) = 60.15495 60.15495 79.67224
#
# Poissons Ratio (x) = 0.40190 0.30318
# Poissons Ratio (y) = 0.40190 0.30318
# Poissons Ratio (z) = 0.22891 0.22891
#
# Static dielectric constant tensor:
#      x y z
#    x 3.381680 0.000000 0.000000 
#    y 0.000000 3.381680 0.000000 
#    z 0.000000 0.000000 3.661980 
# 
# 
# High freq. dielectric constant tensor:
#      x y z
#    x 1.676290 0.000000 0.000000 
#    y 0.000000 1.676290 0.000000 
#    z 0.000000 0.000000 1.698590 
# 
# From -- ./inp_files/1683.got.cif
#   From: 2010.03.12/outbox.cif.g09.slc.cpg/sg187_1_cif.got.tgz:1683.got - 2010.04.01 11:58:23.
