data_PCOD8327667
_publ_section_title
;
Structure prediction by ZEFSAII (Michael W. Deem and Ramdas Pophale) SiO2 
 PCOD8327667
Probable space group: P -6 2 M
;
_chemical_formula_sum "Si O2"
_cell_formula_units_Z 84
_cell_length_a 13.794343
_cell_length_b 13.794343
_cell_length_c 24.405916
_cell_angle_alpha 90.000000
_cell_angle_beta 90.000000
_cell_angle_gamma 120.000000
_cell_volume 4021.867745
_symmetry_space_group_name_H-M "P -6 2 M"
_symmetry_group_IT_number 189
_symmetry_cell_setting 'hexagonal'
loop_
_space_group_symop_operation_xyz
x,y,z
-x+y,-x,-z
-y,x-y,z
x,y,-z
-x+y,-x,z
-y,x-y,-z
x-y,-y,-z
-x,-x+y,-z
y,x,-z
y,x,z
x-y,-y,z
-x,-x+y,z
loop_
_atom_site_type_symbol
_atom_site_label
_atom_site_fract_x
_atom_site_fract_y
_atom_site_fract_z
Si Si1 0.474348 0.344650 0.613054
Si Si2 0.747899 0.874261 0.762596
Si Si3 0.335561 0.124128 0.874221
Si Si4 0.868463 0.534922 0.264351
Si Si5 0.551599 0.678906 0.564100
Si Si6 0.332788 0.463555 0.060032
Si Si7 0.869490 0.418976 0.838171
O O1 0.376149 0.376149 0.608074
O O2 0.520017 0.360747 0.675490
O O3 0.580264 0.425365 0.575953
O O4 0.423096 0.215991 0.594410
O O5 0.793710 0.793710 0.742029
O O6 0.744367 0.877523 0.829080
O O7 0.623054 0.823724 0.738433
O O8 0.831394 0.000000 0.741979
O O9 0.362545 0.209895 0.923592
O O10 0.447078 0.153021 0.839749
O O11 0.279268 0.000000 0.900137
O O12 0.815285 0.439095 0.217000
O O13 0.000000 0.605812 0.253713
O O14 0.564095 0.703119 0.500000
O O15 0.639307 0.639307 0.583859
O O16 0.416586 0.416586 0.055399
O O17 0.376097 0.559700 0.106632
O O18 0.325646 0.510738 0.000000
O O19 0.000000 0.509189 0.838130
#
# Coordination Sequence:
#
# PCOD8327667 Si02
#       7
#    12  12  12  12  12  12  12
#     4  10  21  37  59  88 120 160 200 243 301 355
#     4  10  19  33  55  83 115 151 190 231 279 340
#     4  10  20  33  54  79 102 137 181 227 282 339
#     4   9  18  34  55  78 111 148 186 233 282 337
#     4  10  21  37  59  88 120 155 200 249 291 342
#     4  10  20  36  57  76 101 140 180 225 284 342
#     4   9  18  35  53  71 100 138 178 223 276 333
#
# _framework density 20.885818
#
# number of rings (size 3 to 8) (size 9 to 14) (size 15 to 20)
#    0.000    2.286    1.429    1.286    0.000    3.429 
#    0.857    4.286    0.000    0.571    0.000    0.000 
#    0.000    0.000    0.000    0.000    0.000    0.000 
#
# Total GULP energy -1041202.046099 kJ/mol
# GULP energy per Si atom -12395.262454 kJ/mol
# Density = 2.083828 g / cm^3
# Si number density = 20.885818 Si / 1000 Ang^3
#
#
#
# Elastic Constant Matrix: (Units=GPa)
#
#
# Indices 1 2 3 4 5 6 
#
# 1 64.0372 16.0302 20.4242 0.0000 0.0000 0.0000
# 2 16.0302 64.0372 20.4242 0.0000 0.0000 0.0000
# 3 20.4242 20.4242 101.7465 0.0000 0.0000 0.0000
# 4 0.0000 0.0000 0.0000 19.7206 0.0000 0.0000
# 5 0.0000 0.0000 0.0000 0.0000 19.7206 0.0000
# 6 0.0000 0.0000 0.0000 0.0000 0.0000 24.0035
#
#
#
# Elastic Compliance Matrix: (Units=1/GPa)
#
#
# Indices 1 2 3 4 5 6 
#
# 1 0.017372 -0.003458 -0.002793 0.000000 0.000000 0.000000
# 2 -0.003458 0.017372 -0.002793 0.000000 0.000000 0.000000
# 3 -0.002793 -0.002793 0.010950 0.000000 0.000000 0.000000
# 4 0.000000 0.000000 0.000000 0.050708 0.000000 0.000000
# 5 0.000000 0.000000 0.000000 0.000000 0.050708 0.000000
# 6 0.000000 0.000000 0.000000 0.000000 0.000000 0.041661
#
#
# Mechanical properties :
#
#
# Convention : Reuss Voigt Hill
#
# Bulk Modulus (GPa) = 36.22387 38.17533 37.19960
# Shear Modulus (GPa) = 23.14147 24.21842 23.67995
#
# Velocity S-wave (km/s) = 3.33227 3.40893 3.37082
# Velocity P-wave (km/s) = 5.67334 5.81483 5.74452
#
# Compressibility (1/GPa) = 0.02760610
#
# Stress axis : x y z
#
# Youngs Moduli (GPa) = 57.56259 57.56259 91.32656
#
# Poissons Ratio (x) = 0.19905 0.25509
# Poissons Ratio (y) = 0.19905 0.25509
# Poissons Ratio (z) = 0.16078 0.16078
#
# Static dielectric constant tensor:
#      x y z
#    x 3.669490 0.000000 0.000000 
#    y 0.000000 3.669490 0.000000 
#    z 0.000000 0.000000 3.803570 
# 
# 
# High freq. dielectric constant tensor:
#      x y z
#    x 1.806770 0.000000 0.000000 
#    y 0.000000 1.806770 0.000000 
#    z 0.000000 0.000000 1.807050 
# 
# From -- ./inp_files/3593.got.cif
#   From: 2010.03.12/outbox.cif.g09.slc.cpg/sg189_2_cif.got.tgz:3593.got - 2010.04.01 12:03:36.
