data_PCOD8327540
_publ_section_title
;
Structure prediction by ZEFSAII (Michael W. Deem and Ramdas Pophale) SiO2 
 PCOD8327540
Probable space group: P -6 2 M
;
_chemical_formula_sum "Si O2"
_cell_formula_units_Z 48
_cell_length_a 18.209711
_cell_length_b 18.209711
_cell_length_c 8.545880
_cell_angle_alpha 90.000000
_cell_angle_beta 90.000000
_cell_angle_gamma 120.000000
_cell_volume 2454.107194
_symmetry_space_group_name_H-M "P -6 2 M"
_symmetry_group_IT_number 189
_symmetry_cell_setting 'hexagonal'
loop_
_space_group_symop_operation_xyz
x,y,z
-x+y,-x,-z
-y,x-y,z
x,y,-z
-x+y,-x,z
-y,x-y,-z
x-y,-y,-z
-x,-x+y,-z
y,x,-z
y,x,z
x-y,-y,z
-x,-x+y,z
loop_
_atom_site_type_symbol
_atom_site_label
_atom_site_fract_x
_atom_site_fract_y
_atom_site_fract_z
Si Si1 0.218665 0.000000 0.181389
Si Si2 0.526051 0.804208 0.686541
Si Si3 0.625213 0.625213 0.318443
Si Si4 0.837290 0.383036 0.317220
Si Si5 0.716704 0.903133 0.186127
O O1 0.231066 0.088766 0.251972
O O2 0.305172 0.000000 0.207836
O O3 0.200627 0.000000 0.000000
O O4 0.537868 0.809026 0.500000
O O5 0.471971 0.707282 0.747212
O O6 0.467678 0.841441 0.751586
O O7 0.619931 0.854439 0.756871
O O8 0.650083 0.650083 0.500000
O O9 0.613321 0.536213 0.272646
O O10 0.822937 0.385660 0.500000
O O11 0.764266 0.000000 0.248054
O O12 0.715460 0.900383 0.000000
#
# Coordination Sequence:
#
# PCOD8327540 Si02
#       5
#     6  12   6  12  12
#     4  10  20  38  60  78 101 138 180 222 275 334
#     4  10  19  34  56  80 109 146 183 218 259 310
#     4  10  18  32  52  80 107 134 176 222 261 310
#     4   9  18  30  50  79 108 137 175 218 255 300
#     4  10  22  39  56  79 109 138 175 227 280 327
#
# _framework density 19.559048000000001
#
# number of rings (size 3 to 8) (size 9 to 14) (size 15 to 20)
#    0.000    2.250    2.500    0.500    1.750    2.500 
#    0.750    2.500    0.000    0.000    0.000    0.000 
#    0.000    0.000    0.000    0.000    0.000    0.000 
#
# Total GULP energy -594685.854466 kJ/mol
# GULP energy per Si atom -12389.288635 kJ/mol
# Density = 1.951453 g / cm^3
# Si number density = 19.559048 Si / 1000 Ang^3
#
#
#
# Elastic Constant Matrix: (Units=GPa)
#
#
# Indices 1 2 3 4 5 6 
#
# 1 101.9871 129.9178 10.9830 0.0000 0.0000 0.0000
# 2 129.9178 101.9871 10.9830 0.0000 0.0000 0.0000
# 3 10.9830 10.9830 11.6571 0.0000 0.0000 0.0000
# 4 0.0000 0.0000 0.0000 28.2896 0.0000 0.0000
# 5 0.0000 0.0000 0.0000 0.0000 28.2896 0.0000
# 6 0.0000 0.0000 0.0000 0.0000 0.0000 -13.9653
#
#
#
# Elastic Compliance Matrix: (Units=1/GPa)
#
#
# Indices 1 2 3 4 5 6 
#
# 1 -0.015534 0.020269 -0.004461 0.000000 0.000000 0.000000
# 2 0.020269 -0.015534 -0.004461 0.000000 0.000000 0.000000
# 3 -0.004461 -0.004461 0.094190 0.000000 0.000000 0.000000
# 4 0.000000 0.000000 0.000000 0.035349 0.000000 0.000000
# 5 0.000000 0.000000 0.000000 0.000000 0.035349 0.000000
# 6 0.000000 0.000000 0.000000 0.000000 0.000000 -0.071606
#
#
# Mechanical properties :
#
#
# Convention : Reuss Voigt Hill
#
# Bulk Modulus (GPa) = 11.65281 57.71102 34.68192
# Shear Modulus (GPa) = 73.39462 12.77259 43.08361
#
# Velocity S-wave (km/s) = 6.13238 2.55821 4.69843
# Velocity P-wave (km/s) = 7.49081 6.18838 6.87052
#
# Compressibility (1/GPa) = 0.08581617
#
# Stress axis : x y z
#
# Youngs Moduli (GPa) = -64.37437 -64.37437 10.61681
#
# Poissons Ratio (x) = 1.30479 0.04736
# Poissons Ratio (y) = 1.30479 0.04736
# Poissons Ratio (z) = -0.28716 -0.28716
#
# Static dielectric constant tensor:
#      x y z
#    x 3.971410 0.000000 0.000000 
#    y 0.000000 3.971410 0.000000 
#    z 0.000000 0.000000 3.148400 
# 
# 
# High freq. dielectric constant tensor:
#      x y z
#    x 1.776320 0.000000 0.000000 
#    y 0.000000 1.776320 0.000000 
#    z 0.000000 0.000000 1.713880 
# 
# From -- ./inp_files/627.got.cif
#   From: 2010.03.12/outbox.cif.g09.slc.cpg/sg189_1_cif.got.tgz:627.got - 2010.04.01 12:03:36.
