data_PCOD8327703
_publ_section_title
;
Structure prediction by ZEFSAII (Michael W. Deem and Ramdas Pophale) SiO2 
 PCOD8327703
Probable space group: P -6 2 M
;
_chemical_formula_sum "Si O2"
_cell_formula_units_Z 84
_cell_length_a 19.186425
_cell_length_b 19.186425
_cell_length_c 14.660466
_cell_angle_alpha 90.000000
_cell_angle_beta 90.000000
_cell_angle_gamma 120.000000
_cell_volume 4673.761292
_symmetry_space_group_name_H-M "P -6 2 M"
_symmetry_group_IT_number 189
_symmetry_cell_setting 'hexagonal'
loop_
_space_group_symop_operation_xyz
x,y,z
-x+y,-x,-z
-y,x-y,z
x,y,-z
-x+y,-x,z
-y,x-y,-z
x-y,-y,-z
-x,-x+y,-z
y,x,-z
y,x,z
x-y,-y,z
-x,-x+y,z
loop_
_atom_site_type_symbol
_atom_site_label
_atom_site_fract_x
_atom_site_fract_y
_atom_site_fract_z
Si Si1 0.559430 0.093780 0.395190
Si Si2 0.570824 0.475618 0.098257
Si Si3 0.904717 0.344714 0.733439
Si Si4 0.811477 0.905146 0.104324
Si Si5 0.713594 0.093999 0.399404
Si Si6 0.177155 0.339259 0.765877
Si Si7 0.414493 0.322360 0.892981
O O1 0.550981 0.110912 0.500000
O O2 0.514875 0.132476 0.337738
O O3 0.654268 0.129062 0.370388
O O4 0.512521 0.000000 0.371529
O O5 0.522334 0.522334 0.088467
O O6 0.643814 0.520181 0.167237
O O7 0.506444 0.386308 0.131978
O O8 0.607484 0.473066 0.000000
O O9 0.869897 0.250605 0.722867
O O10 0.000000 0.387235 0.723261
O O11 0.875388 0.875388 0.117003
O O12 0.743420 0.861521 0.181665
O O13 0.855901 0.000000 0.122191
O O14 0.776468 0.886136 0.000000
O O15 0.752258 0.128606 0.500000
O O16 0.780722 0.109431 0.324111
O O17 0.656323 0.000000 0.410308
O O18 0.242844 0.395348 0.839252
O O19 0.353850 0.353850 0.861516
O O20 0.403908 0.304092 0.000000
#
# Coordination Sequence:
#
# PCOD8327703 Si02
#       7
#    12  12  12  12  12  12  12
#     4   8  15  31  54  73  89 116 156 197 233 275
#     4   8  15  29  48  66  86 117 155 191 226 271
#     4  10  20  31  44  67  98 130 162 192 231 289
#     4  10  21  37  55  74 100 139 184 225 269 327
#     4   9  18  33  54  78  99 122 157 201 250 302
#     4  12  21  29  47  77 108 131 158 210 269 307
#     4   9  17  30  49  72  94 119 157 203 251 302
#
# _framework density 17.972677000000001
#
# number of rings (size 3 to 8) (size 9 to 14) (size 15 to 20)
#    0.000    2.571    0.000    4.857    0.000    5.714 
#    0.000    1.429    0.000    5.857    0.000    0.000 
#    0.000    1.143    0.000    0.000    0.000    0.000 
#
# Total GULP energy -1040780.833927 kJ/mol
# GULP energy per Si atom -12390.248023 kJ/mol
# Density = 1.793177 g / cm^3
# Si number density = 17.972677 Si / 1000 Ang^3
#
#
#
# Elastic Constant Matrix: (Units=GPa)
#
#
# Indices 1 2 3 4 5 6 
#
# 1 50.9461 17.1556 27.6405 0.0000 0.0000 0.0000
# 2 17.1556 50.9461 27.6405 0.0000 0.0000 0.0000
# 3 27.6405 27.6405 69.9464 0.0000 0.0000 0.0000
# 4 0.0000 0.0000 0.0000 22.6735 0.0000 0.0000
# 5 0.0000 0.0000 0.0000 0.0000 22.6735 0.0000
# 6 0.0000 0.0000 0.0000 0.0000 0.0000 16.8953
#
#
#
# Elastic Compliance Matrix: (Units=1/GPa)
#
#
# Indices 1 2 3 4 5 6 
#
# 1 0.025606 -0.003988 -0.008543 0.000000 0.000000 0.000000
# 2 -0.003988 0.025606 -0.008543 0.000000 0.000000 0.000000
# 3 -0.008543 -0.008543 0.021048 0.000000 0.000000 0.000000
# 4 0.000000 0.000000 0.000000 0.044104 0.000000 0.000000
# 5 0.000000 0.000000 0.000000 0.000000 0.044104 0.000000
# 6 0.000000 0.000000 0.000000 0.000000 0.000000 0.059188
#
#
# Mechanical properties :
#
#
# Convention : Reuss Voigt Hill
#
# Bulk Modulus (GPa) = 33.20734 35.19021 34.19878
# Shear Modulus (GPa) = 18.39296 19.07527 18.73411
#
# Velocity S-wave (km/s) = 3.20251 3.26137 3.23207
# Velocity P-wave (km/s) = 5.67375 5.81415 5.74438
#
# Compressibility (1/GPa) = 0.03011383
#
# Stress axis : x y z
#
# Youngs Moduli (GPa) = 39.05281 39.05281 47.50940
#
# Poissons Ratio (x) = 0.15573 0.40587
# Poissons Ratio (y) = 0.15573 0.40587
# Poissons Ratio (z) = 0.33363 0.33363
#
# Static dielectric constant tensor:
#      x y z
#    x 3.168880 0.000000 0.000000 
#    y 0.000000 3.168880 0.000000 
#    z 0.000000 0.000000 3.059790 
# 
# 
# High freq. dielectric constant tensor:
#      x y z
#    x 1.669540 0.000000 0.000000 
#    y 0.000000 1.669540 0.000000 
#    z 0.000000 0.000000 1.706930 
# 
# From -- ./inp_files/2790.got.cif
#   From: 2010.03.12/outbox.cif.g09.slc.cpg/sg189_2_cif.got.tgz:2790.got - 2010.04.01 12:03:36.
