data_PCOD8327926
_publ_section_title
;
Structure prediction by ZEFSAII (Michael W. Deem and Ramdas Pophale) SiO2 
 PCOD8327926
Probable space group: P -6 2 C
;
_chemical_formula_sum "Si O2"
_cell_formula_units_Z 84
_cell_length_a 18.421381
_cell_length_b 18.421381
_cell_length_c 22.154442
_cell_angle_alpha 90.000000
_cell_angle_beta 90.000000
_cell_angle_gamma 120.000000
_cell_volume 6510.821929
_symmetry_space_group_name_H-M "P -6 2 C"
_symmetry_group_IT_number 190
_symmetry_cell_setting 'hexagonal'
loop_
_space_group_symop_operation_xyz
x,y,z
-x+y,-x,1/2-z
-y,x-y,z
x,y,1/2-z
-x+y,-x,z
-y,x-y,1/2-z
x-y,-y,-z
-x,-x+y,-z
y,x,-z
y,x,1/2+z
x-y,-y,1/2+z
-x,-x+y,1/2+z
loop_
_atom_site_type_symbol
_atom_site_label
_atom_site_fract_x
_atom_site_fract_y
_atom_site_fract_z
Si Si1 0.000000 0.420566 0.182974
Si Si2 0.515559 0.173622 0.128563
Si Si3 0.341937 0.826378 0.371437
Si Si4 0.676376 0.180507 0.178305
Si Si5 0.323624 0.504131 0.178305
Si Si6 0.591758 1.000000 0.184055
Si Si7 0.653927 0.420058 0.500000
O O1 0.000000 0.384392 0.250000
O O2 0.082532 0.438520 0.145779
O O3 0.000000 0.505819 0.191479
O O4 0.917468 0.355988 0.145779
O O5 0.600580 0.197523 0.164211
O O6 0.486996 0.239649 0.146147
O O7 0.532278 0.177450 0.057357
O O8 0.247347 0.760351 0.353853
O O9 0.403057 0.802477 0.335789
O O10 0.354828 0.822550 0.442643
O O11 0.688099 0.183995 0.250000
O O12 0.655923 0.088509 0.152042
O O13 0.311901 0.495895 0.250000
O O14 0.344077 0.432585 0.152042
O O15 0.628361 0.000000 0.250000
O O16 0.579310 0.322113 0.500000
#
# Coordination Sequence:
#
# PCOD8327926 Si02
#       7
#    12  12  12  12  12  12  12
#     4   9  18  29  39  61  81  92 124 172 207 247
#     4  11  18  28  42  54  78 105 130 169 202 232
#     4  11  18  28  42  54  78 105 130 169 202 232
#     4  10  16  25  40  58  73  99 129 163 206 239
#     4  10  16  25  40  58  73  99 129 163 206 239
#     4   7  14  24  35  53  77  91 117 158 195 235
#     4  10  18  31  38  56  78 100 142 177 182 226
#
# _framework density 12.901597000000001
#
# number of rings (size 3 to 8) (size 9 to 14) (size 15 to 20)
#    0.286    2.000    2.857    4.857    0.000    0.571 
#    0.000    0.000    0.000    0.857    0.000    0.000 
#    0.000    0.000    0.000    0.857    0.000   11.571 
#
# Total GULP energy -1040746.400383 kJ/mol
# GULP energy per Si atom -12389.838100 kJ/mol
# Density = 1.287223 g / cm^3
# Si number density = 12.901597 Si / 1000 Ang^3
#
#
#
# Elastic Constant Matrix: (Units=GPa)
#
#
# Indices 1 2 3 4 5 6 
#
# 1 64.8970 34.4667 13.7458 0.0000 0.0000 0.0000
# 2 34.4667 64.8970 13.7458 0.0000 0.0000 0.0000
# 3 13.7458 13.7458 61.1387 0.0000 0.0000 0.0000
# 4 0.0000 0.0000 0.0000 15.5103 0.0000 0.0000
# 5 0.0000 0.0000 0.0000 0.0000 15.5103 0.0000
# 6 0.0000 0.0000 0.0000 0.0000 0.0000 15.2152
#
#
#
# Elastic Compliance Matrix: (Units=1/GPa)
#
#
# Indices 1 2 3 4 5 6 
#
# 1 0.021797 -0.011065 -0.002413 0.000000 0.000000 0.000000
# 2 -0.011065 0.021797 -0.002413 0.000000 0.000000 0.000000
# 3 -0.002413 -0.002413 0.017441 0.000000 0.000000 0.000000
# 4 0.000000 0.000000 0.000000 0.064473 0.000000 0.000000
# 5 0.000000 0.000000 0.000000 0.000000 0.064473 0.000000
# 6 0.000000 0.000000 0.000000 0.000000 0.000000 0.065724
#
#
# Mechanical properties :
#
#
# Convention : Reuss Voigt Hill
#
# Bulk Modulus (GPa) = 34.18424 34.98325 34.58374
# Shear Modulus (GPa) = 16.82152 17.84543 17.33347
#
# Velocity S-wave (km/s) = 3.61478 3.72317 3.66937
# Velocity P-wave (km/s) = 6.63143 6.75699 6.69450
#
# Compressibility (1/GPa) = 0.02925325
#
# Stress axis : x y z
#
# Youngs Moduli (GPa) = 45.87831 45.87831 57.33560
#
# Poissons Ratio (x) = 0.50765 0.13834
# Poissons Ratio (y) = 0.50765 0.13834
# Poissons Ratio (z) = 0.11069 0.11069
#
# Static dielectric constant tensor:
#      x y z
#    x 2.606580 0.000000 0.000000 
#    y 0.000000 2.606580 0.000000 
#    z 0.000000 0.000000 2.567530 
# 
# 
# High freq. dielectric constant tensor:
#      x y z
#    x 1.462330 0.000000 0.000000 
#    y 0.000000 1.462330 0.000000 
#    z 0.000000 0.000000 1.489360 
# 
# From -- ./inp_files/4434.got.cif
#   From: 2010.06.25/outbox.cif.g09.slc.cpg/sg190_3_cif.got.tgz:4434.got - 2010.06.28 13:08:06.
