data_PCOD8327099
_publ_section_title
;
Structure prediction by ZEFSAII (Michael W. Deem and Ramdas Pophale) SiO2 
 PCOD8327099
Probable space group: P -6 M 2
;
_chemical_formula_sum "Si O2"
_cell_formula_units_Z 60
_cell_length_a 12.524955
_cell_length_b 12.524955
_cell_length_c 25.741753
_cell_angle_alpha 90.000000
_cell_angle_beta 90.000000
_cell_angle_gamma 120.000000
_cell_volume 3497.205067
_symmetry_space_group_name_H-M "P -6 M 2"
_symmetry_group_IT_number 187
_symmetry_cell_setting 'hexagonal'
loop_
_space_group_symop_operation_xyz
x,y,z
-x+y,-x,-z
-y,x-y,z
x,y,-z
-x+y,-x,z
-y,x-y,-z
-y,-x,-z
-x+y,y,-z
x,x-y,-z
-x+y,y,z
x,x-y,z
-y,-x,z
loop_
_atom_site_type_symbol
_atom_site_label
_atom_site_fract_x
_atom_site_fract_y
_atom_site_fract_z
Si Si1 0.416694 0.331758 0.000000
Si Si2 0.002310 0.752339 0.387576
Si Si3 0.582241 0.915938 0.804363
Si Si4 0.758960 0.998394 0.500000
Si Si5 0.750246 0.999962 0.901986
Si Si6 0.914935 0.580815 0.293207
O O1 0.338630 0.321908 0.949427
O O2 0.537125 0.462876 0.000000
O O3 0.455631 0.227816 0.000000
O O4 0.890835 0.781669 0.389244
O O5 0.974186 0.642959 0.348113
O O6 0.023295 0.709299 0.445227
O O7 0.124229 0.875772 0.369134
O O8 0.455189 0.910378 0.817757
O O9 0.556159 0.778080 0.799301
O O10 0.677989 0.990840 0.849585
O O11 0.639845 0.985402 0.750840
O O12 0.817085 0.908542 0.500000
O O13 0.861760 0.138241 0.500000
O O14 0.758262 0.879131 0.912833
O O15 0.887471 0.112530 0.896702
O O16 0.793984 0.587967 0.280325
O O17 0.877820 0.438910 0.295695
#
# Coordination Sequence:
#
# PCOD8327099 Si02
#       6
#     6  12  12   6  12  12
#     4  10  20  34  52  74 100 130 164 200 236 274
#     4   9  16  27  45  69  94 118 146 184 232 282
#     4  10  20  34  52  73  97 125 158 198 243 290
#     4   8  13  22  39  64  92 118 144 178 224 278
#     4  10  20  34  53  76 102 131 162 197 238 285
#     4  10  20  33  48  66  91 124 161 198 235 278
#
# _framework density 17.156556999999999
#
# number of rings (size 3 to 8) (size 9 to 14) (size 15 to 20)
#    0.000    2.400    0.000    3.100    0.000    1.600 
#    0.000    1.500    0.000   16.000    0.000    1.400 
#    0.000    0.000    0.000    0.000    0.000    0.000 
#
# Total GULP energy -743815.645902 kJ/mol
# GULP energy per Si atom -12396.927432 kJ/mol
# Density = 1.711751 g / cm^3
# Si number density = 17.156557 Si / 1000 Ang^3
#
#
#
# Elastic Constant Matrix: (Units=GPa)
#
#
# Indices 1 2 3 4 5 6 
#
# 1 85.9512 46.5522 53.4365 0.0000 0.0005 0.0000
# 2 46.5522 85.9512 53.4365 0.0000 -0.0005 0.0000
# 3 53.4365 53.4365 119.1128 0.0000 0.0000 0.0000
# 4 0.0000 0.0000 0.0000 22.1053 0.0000 -0.0005
# 5 0.0005 -0.0005 0.0000 0.0000 22.1053 0.0000
# 6 0.0000 0.0000 0.0000 -0.0005 0.0000 19.6995
#
#
#
# Elastic Compliance Matrix: (Units=1/GPa)
#
#
# Indices 1 2 3 4 5 6 
#
# 1 0.018604 -0.006778 -0.005305 0.000000 -0.000001 0.000000
# 2 -0.006778 0.018604 -0.005305 0.000000 0.000001 0.000000
# 3 -0.005305 -0.005305 0.013156 0.000000 0.000000 0.000000
# 4 0.000000 0.000000 0.000000 0.045238 0.000000 0.000001
# 5 -0.000001 0.000001 0.000000 0.000000 0.045238 0.000000
# 6 0.000000 0.000000 0.000000 0.000001 0.000000 0.050763
#
#
# Mechanical properties :
#
#
# Convention : Reuss Voigt Hill
#
# Bulk Modulus (GPa) = 64.15936 66.42950 65.29443
# Shear Modulus (GPa) = 21.59131 21.95467 21.77299
#
# Velocity S-wave (km/s) = 3.55136 3.58112 3.56628
# Velocity P-wave (km/s) = 7.36844 7.47683 7.42283
#
# Compressibility (1/GPa) = 0.01558619
#
# Stress axis : x y z
#
# Youngs Moduli (GPa) = 53.75248 53.75248 76.01255
#
# Poissons Ratio (x) = 0.36431 0.40328
# Poissons Ratio (y) = 0.36431 0.40328
# Poissons Ratio (z) = 0.28518 0.28518
#
# Static dielectric constant tensor:
#      x y z
#    x 3.081520 0.000000 0.000000 
#    y 0.000000 3.081520 0.000000 
#    z 0.000000 0.000000 3.567920 
# 
# 
# High freq. dielectric constant tensor:
#      x y z
#    x 1.654450 0.000000 0.000000 
#    y 0.000000 1.654450 0.000000 
#    z 0.000000 0.000000 1.682950 
# 
# From -- ./inp_files/4161.got.cif
#   From: 2010.03.12/outbox.cif.g09.slc.cpg/sg187_3_cif.got.tgz:4161.got - 2010.04.01 11:58:23.
