data_PCOD8327918
_publ_section_title
;
Structure prediction by ZEFSAII (Michael W. Deem and Ramdas Pophale) SiO2 
 PCOD8327918
Probable space group: P -6 2 M
;
_chemical_formula_sum "Si O2"
_cell_formula_units_Z 64
_cell_length_a 21.437102
_cell_length_b 21.437102
_cell_length_c 9.780478
_cell_angle_alpha 90.000000
_cell_angle_beta 90.000000
_cell_angle_gamma 120.000000
_cell_volume 3892.448372
_symmetry_space_group_name_H-M "P -6 2 M"
_symmetry_group_IT_number 189
_symmetry_cell_setting 'hexagonal'
loop_
_space_group_symop_operation_xyz
x,y,z
-x+y,-x,-z
-y,x-y,z
x,y,-z
-x+y,-x,z
-y,x-y,-z
x-y,-y,-z
-x,-x+y,-z
y,x,-z
y,x,z
x-y,-y,z
-x,-x+y,z
loop_
_atom_site_type_symbol
_atom_site_label
_atom_site_fract_x
_atom_site_fract_y
_atom_site_fract_z
Si Si1 0.442569 0.275033 0.337521
Si Si2 0.801600 0.328475 0.662175
Si Si3 0.083280 0.917155 0.157294
Si Si4 0.915681 0.720642 0.343442
Si Si5 0.666667 0.333334 0.662126
Si Si6 0.520674 0.439112 0.336978
O O1 0.449497 0.279007 0.500000
O O2 0.472485 0.223750 0.278332
O O3 0.360502 0.238309 0.289472
O O4 0.484742 0.357027 0.280454
O O5 0.801205 0.323362 0.500000
O O6 0.744220 0.350592 0.715269
O O7 0.879392 0.394672 0.709940
O O8 0.112006 0.875601 0.251062
O O9 0.000000 0.889943 0.186942
O O10 0.127574 0.000000 0.198949
O O11 0.095511 0.904807 0.000000
O O12 0.895134 0.725111 0.500000
O O13 0.000000 0.751902 0.325746
O O14 0.666667 0.333334 0.500000
O O15 0.515599 0.436747 0.500000
O O16 0.478932 0.478932 0.277686
#
# Coordination Sequence:
#
# PCOD8327918 Si02
#       6
#    12  12  12  12   4  12
#     4   9  15  23  35  50  73 107 140 168 204 250
#     4   9  14  20  31  47  67  96 135 173 208 246
#     4   9  17  30  48  67  85 106 136 175 214 248
#     4   9  17  28  41  60  87 116 143 170 205 252
#     4   9  12  18  30  45  63  90 130 170 205 246
#     4   9  15  21  30  45  66  94 130 170 208 246
#
# _framework density 16.442094000000001
#
# number of rings (size 3 to 8) (size 9 to 14) (size 15 to 20)
#    0.000    3.000    1.875    0.750    0.000    3.375 
#    0.000    0.938    0.000    4.500    0.000    0.000 
#    0.000    1.500    0.000    5.438    0.000    4.500 
#
# Total GULP energy -792983.102056 kJ/mol
# GULP energy per Si atom -12390.360970 kJ/mol
# Density = 1.640467 g / cm^3
# Si number density = 16.442094 Si / 1000 Ang^3
#
#
#
# Elastic Constant Matrix: (Units=GPa)
#
#
# Indices 1 2 3 4 5 6 
#
# 1 124.9694 64.3155 21.5173 0.0000 0.0000 0.0000
# 2 64.3155 124.9694 21.5173 0.0000 0.0000 -0.0001
# 3 21.5173 21.5173 17.7118 0.0000 0.0000 0.0000
# 4 0.0000 0.0000 0.0000 6.8142 0.0000 0.0000
# 5 0.0000 0.0000 0.0000 0.0000 6.8140 0.0000
# 6 0.0000 -0.0001 0.0000 0.0000 0.0000 30.3269
#
#
#
# Elastic Compliance Matrix: (Units=1/GPa)
#
#
# Indices 1 2 3 4 5 6 
#
# 1 0.011893 -0.004594 -0.008867 0.000000 0.000000 0.000000
# 2 -0.004594 0.011893 -0.008867 0.000000 0.000000 0.000000
# 3 -0.008867 -0.008867 0.078005 0.000000 0.000000 0.000000
# 4 0.000000 0.000000 0.000000 0.146753 -0.000001 0.000000
# 5 0.000000 0.000000 0.000000 -0.000001 0.146756 0.000000
# 6 0.000000 0.000000 0.000000 0.000000 0.000000 0.032974
#
#
# Mechanical properties :
#
#
# Convention : Reuss Voigt Hill
#
# Bulk Modulus (GPa) = 17.50286 53.59452 35.54869
# Shear Modulus (GPa) = 10.16311 19.47773 14.82042
#
# Velocity S-wave (km/s) = 2.48889 3.44557 3.00554
# Velocity P-wave (km/s) = 4.35060 6.96391 5.80619
#
# Compressibility (1/GPa) = 0.05713352
#
# Stress axis : x y z
#
# Youngs Moduli (GPa) = 84.08295 84.08294 12.81974
#
# Poissons Ratio (x) = 0.38627 0.11368
# Poissons Ratio (y) = 0.38627 0.11368
# Poissons Ratio (z) = 0.74559 0.74559
#
# Static dielectric constant tensor:
#      x y z
#    x 3.304060 0.000000 0.000000 
#    y 0.000000 3.304060 0.000000 
#    z 0.000000 0.000000 2.473740 
# 
# 
# High freq. dielectric constant tensor:
#      x y z
#    x 1.638190 0.000000 0.000000 
#    y 0.000000 1.638190 0.000000 
#    z 0.000000 0.000000 1.551860 
# 
# From -- ./inp_files/2035.got.cif
#   From: 2010.03.12/outbox.cif.g09.slc.cpg/sg189_2_cif.got.tgz:2035.got - 2010.04.01 12:03:36.
