data_PCOD8327517
_publ_section_title
;
Structure prediction by ZEFSAII (Michael W. Deem and Ramdas Pophale) SiO2 
 PCOD8327517
Probable space group: P -6 2 M
;
_chemical_formula_sum "Si O2"
_cell_formula_units_Z 96
_cell_length_a 17.666310
_cell_length_b 17.666310
_cell_length_c 20.851769
_cell_angle_alpha 90.000000
_cell_angle_beta 90.000000
_cell_angle_gamma 120.000000
_cell_volume 5635.925332
_symmetry_space_group_name_H-M "P -6 2 M"
_symmetry_group_IT_number 189
_symmetry_cell_setting 'hexagonal'
loop_
_space_group_symop_operation_xyz
x,y,z
-x+y,-x,-z
-y,x-y,z
x,y,-z
-x+y,-x,z
-y,x-y,-z
x-y,-y,-z
-x,-x+y,-z
y,x,-z
y,x,z
x-y,-y,z
-x,-x+y,z
loop_
_atom_site_type_symbol
_atom_site_label
_atom_site_fract_x
_atom_site_fract_y
_atom_site_fract_z
Si Si1 0.435343 0.902370 0.875458
Si Si2 0.640090 0.168570 0.755449
Si Si3 0.306771 0.407414 0.927295
Si Si4 0.460282 0.645477 0.645027
Si Si5 0.901701 0.638714 0.330835
Si Si6 0.801633 0.249624 0.163548
Si Si7 0.100135 0.361048 0.287865
Si Si8 0.502519 0.320338 0.425337
O O1 0.460648 0.897761 0.801734
O O2 0.491808 0.876785 0.922222
O O3 0.331988 0.836728 0.884760
O O4 0.456079 0.000000 0.890418
O O5 0.603350 0.212932 0.706862
O O6 0.676347 0.112989 0.719052
O O7 0.720295 0.243689 0.796329
O O8 0.343036 0.343036 0.906681
O O9 0.228401 0.391111 0.879357
O O10 0.272064 0.388929 0.000000
O O11 0.557260 0.671727 0.668176
O O12 0.459268 0.728380 0.615237
O O13 0.423089 0.567971 0.591387
O O14 0.837045 0.675982 0.315132
O O15 0.883962 0.596103 0.402135
O O16 0.000000 0.718793 0.326757
O O17 0.877558 0.263630 0.213047
O O18 0.000000 0.285462 0.293486
O O19 0.502032 0.301819 0.500000
#
# Coordination Sequence:
#
# PCOD8327517 Si02
#       8
#    12  12  12  12  12  12  12  12
#     4  10  18  30  49  71  98 131 162 207 256 291
#     4   9  18  30  46  70 100 133 167 208 243 292
#     4   9  20  38  52  65  94 137 177 206 241 290
#     4  10  19  30  47  68 101 142 173 206 244 291
#     4   9  19  34  51  72  94 128 168 207 247 295
#     4  10  19  30  48  75  96 124 167 215 248 288
#     4  10  20  34  51  76 102 127 155 200 259 311
#     4  10  20  32  47  70 100 139 180 213 241 274
#
# _framework density 17.033581999999999
#
# number of rings (size 3 to 8) (size 9 to 14) (size 15 to 20)
#    0.000    2.375    1.250    2.125    0.000    5.750 
#    8.250    0.000    0.000   10.375    0.000    0.000 
#    0.000    0.000    0.000    0.375    0.000    0.625 
#
# Total GULP energy -1189797.913590 kJ/mol
# GULP energy per Si atom -12393.728267 kJ/mol
# Density = 1.699481 g / cm^3
# Si number density = 17.033582 Si / 1000 Ang^3
#
#
#
# Elastic Constant Matrix: (Units=GPa)
#
#
# Indices 1 2 3 4 5 6 
#
# 1 84.4326 48.1726 26.5702 0.0000 0.0000 0.0000
# 2 48.1726 84.4326 26.5702 0.0000 0.0000 0.0000
# 3 26.5702 26.5702 76.0351 0.0000 0.0000 0.0000
# 4 0.0000 0.0000 0.0000 15.7201 0.0000 0.0000
# 5 0.0000 0.0000 0.0000 0.0000 15.7201 0.0000
# 6 0.0000 0.0000 0.0000 0.0000 0.0000 18.1300
#
#
#
# Elastic Compliance Matrix: (Units=1/GPa)
#
#
# Indices 1 2 3 4 5 6 
#
# 1 0.018174 -0.009405 -0.003064 0.000000 0.000000 0.000000
# 2 -0.009405 0.018174 -0.003064 0.000000 0.000000 0.000000
# 3 -0.003064 -0.003064 0.015293 0.000000 0.000000 0.000000
# 4 0.000000 0.000000 0.000000 0.063613 0.000000 0.000000
# 5 0.000000 0.000000 0.000000 0.000000 0.063613 0.000000
# 6 0.000000 0.000000 0.000000 0.000000 0.000000 0.055157
#
#
# Mechanical properties :
#
#
# Convention : Reuss Voigt Hill
#
# Bulk Modulus (GPa) = 48.60405 49.72515 49.16460
# Shear Modulus (GPa) = 18.38576 19.48650 18.93613
#
# Velocity S-wave (km/s) = 3.28896 3.38598 3.33782
# Velocity P-wave (km/s) = 6.55890 6.67400 6.61670
#
# Compressibility (1/GPa) = 0.02057442
#
# Stress axis : x y z
#
# Youngs Moduli (GPa) = 55.02390 55.02390 65.38727
#
# Poissons Ratio (x) = 0.51748 0.20037
# Poissons Ratio (y) = 0.51748 0.20037
# Poissons Ratio (z) = 0.16861 0.16861
#
# Static dielectric constant tensor:
#      x y z
#    x 2.984720 0.000000 0.000000 
#    y 0.000000 2.984720 0.000000 
#    z 0.000000 0.000000 3.244270 
# 
# 
# High freq. dielectric constant tensor:
#      x y z
#    x 1.629430 0.000000 0.000000 
#    y 0.000000 1.629430 0.000000 
#    z 0.000000 0.000000 1.653680 
# 
# From -- ./inp_files/3528.got.cif
#   From: 2010.03.12/outbox.cif.g09.slc.cpg/sg189_2_cif.got.tgz:3528.got - 2010.04.01 12:03:36.
