data_PCOD8327020
_publ_section_title
;
Structure prediction by ZEFSAII (Michael W. Deem and Ramdas Pophale) SiO2 
 PCOD8327020
Probable space group: P -6 M 2
;
_chemical_formula_sum "Si O2"
_cell_formula_units_Z 66
_cell_length_a 13.014084
_cell_length_b 13.014084
_cell_length_c 28.126751
_cell_angle_alpha 90.000000
_cell_angle_beta 90.000000
_cell_angle_gamma 120.000000
_cell_volume 4125.507788
_symmetry_space_group_name_H-M "P -6 M 2"
_symmetry_group_IT_number 187
_symmetry_cell_setting 'hexagonal'
loop_
_space_group_symop_operation_xyz
x,y,z
-x+y,-x,-z
-y,x-y,z
x,y,-z
-x+y,-x,z
-y,x-y,-z
-y,-x,-z
-x+y,y,-z
x,x-y,-z
-x+y,y,z
x,x-y,z
-y,-x,z
loop_
_atom_site_type_symbol
_atom_site_label
_atom_site_fract_x
_atom_site_fract_y
_atom_site_fract_z
Si Si1 0.899523 0.335478 0.500000
Si Si2 0.334680 0.909787 0.684241
Si Si3 0.762194 0.761492 0.946559
Si Si4 0.426370 0.336175 0.396595
Si Si5 0.429708 0.096579 0.127940
Si Si6 0.903623 0.570714 0.763958
O O1 0.796874 0.203127 0.500000
O O2 0.844895 0.422448 0.500000
O O3 0.968345 0.353639 0.550137
O O4 0.438713 0.877426 0.680817
O O5 0.209794 0.790207 0.684725
O O6 0.338690 0.989690 0.639700
O O7 0.346324 0.983114 0.731864
O O8 0.759853 0.879927 0.937784
O O9 0.673753 0.668249 0.908310
O O10 0.895192 0.790384 0.937245
O O11 0.720553 0.712208 0.000000
O O12 0.418164 0.209082 0.390727
O O13 0.561873 0.438128 0.386026
O O14 0.545461 0.090922 0.116637
O O15 0.459307 0.229654 0.117962
O O16 0.385882 0.059154 0.181992
O O17 0.791436 0.582871 0.747804
O O18 0.866027 0.433014 0.758459
#
# Coordination Sequence:
#
# PCOD8327020 Si02
#       6
#     6  12  12  12  12  12
#     4   8  13  22  39  66  96 118 136 166 216 270
#     4  10  20  32  45  61  85 118 153 186 217 252
#     4   9  17  29  45  64  86 115 152 191 224 251
#     4   9  16  27  46  71  95 116 140 176 222 268
#     4   9  17  29  46  69  95 119 141 170 215 270
#     4   9  17  30  49  71  92 113 139 176 222 269
#
# _framework density 15.998032
#
# number of rings (size 3 to 8) (size 9 to 14) (size 15 to 20)
#    0.000    2.909    0.000    1.545    0.000    4.727 
#    0.000    2.273    0.000    4.364    0.000    1.273 
#    0.000    0.000    0.000    0.000    0.000    0.000 
#
# Total GULP energy -817980.436732 kJ/mol
# GULP energy per Si atom -12393.642981 kJ/mol
# Density = 1.596162 g / cm^3
# Si number density = 15.998032 Si / 1000 Ang^3
#
#
#
# Elastic Constant Matrix: (Units=GPa)
#
#
# Indices 1 2 3 4 5 6 
#
# 1 86.1186 45.1455 61.6721 0.0000 0.0000 0.0000
# 2 45.1455 86.1186 61.6721 0.0000 0.0000 0.0000
# 3 61.6721 61.6721 129.2340 0.0000 0.0000 0.0000
# 4 0.0000 0.0000 0.0000 23.0266 0.0000 0.0000
# 5 0.0000 0.0000 0.0000 0.0000 23.0266 0.0000
# 6 0.0000 0.0000 0.0000 0.0000 0.0000 20.4866
#
#
#
# Elastic Compliance Matrix: (Units=1/GPa)
#
#
# Indices 1 2 3 4 5 6 
#
# 1 0.019109 -0.005297 -0.006591 0.000000 0.000000 0.000000
# 2 -0.005297 0.019109 -0.006591 0.000000 0.000000 0.000000
# 3 -0.006591 -0.006591 0.014029 0.000000 0.000000 0.000000
# 4 0.000000 0.000000 0.000000 0.043428 0.000000 0.000000
# 5 0.000000 0.000000 0.000000 0.000000 0.043428 0.000000
# 6 0.000000 0.000000 0.000000 0.000000 0.000000 0.048812
#
#
# Mechanical properties :
#
#
# Convention : Reuss Voigt Hill
#
# Bulk Modulus (GPa) = 65.41276 70.93892 68.17584
# Shear Modulus (GPa) = 21.74197 22.17337 21.95767
#
# Velocity S-wave (km/s) = 3.69052 3.72695 3.70878
# Velocity P-wave (km/s) = 7.69004 7.93465 7.81330
#
# Compressibility (1/GPa) = 0.01528754
#
# Stress axis : x y z
#
# Youngs Moduli (GPa) = 52.33152 52.33152 71.28297
#
# Poissons Ratio (x) = 0.27722 0.46983
# Poissons Ratio (y) = 0.27722 0.46983
# Poissons Ratio (z) = 0.34492 0.34492
#
# Static dielectric constant tensor:
#      x y z
#    x 2.812060 0.000000 0.000000 
#    y 0.000000 2.812060 0.000000 
#    z 0.000000 0.000000 3.477600 
# 
# 
# High freq. dielectric constant tensor:
#      x y z
#    x 1.590640 0.000000 0.000000 
#    y 0.000000 1.590640 0.000000 
#    z 0.000000 0.000000 1.636670 
# 
# From -- ./inp_files/4383.got.cif
#   From: 2010.03.12/outbox.cif.g09.slc.cpg/sg187_3_cif.got.tgz:4383.got - 2010.04.01 11:58:23.
