data_PCOD8327318
_publ_section_title
;
Structure prediction by ZEFSAII (Michael W. Deem and Ramdas Pophale) SiO2 
 PCOD8327318
Probable space group: P -6 C 2
;
_chemical_formula_sum "Si O2"
_cell_formula_units_Z 64
_cell_length_a 16.213463
_cell_length_b 16.213463
_cell_length_c 14.371044
_cell_angle_alpha 90.000000
_cell_angle_beta 90.000000
_cell_angle_gamma 120.000000
_cell_volume 3271.677750
_symmetry_space_group_name_H-M "P -6 C 2"
_symmetry_group_IT_number 188
_symmetry_cell_setting 'hexagonal'
loop_
_space_group_symop_operation_xyz
x,y,z
-x+y,-x,1/2-z
-y,x-y,z
x,y,1/2-z
-x+y,-x,z
-y,x-y,1/2-z
-y,-x,-z
-x+y,y,-z
x,x-y,-z
-x+y,y,1/2+z
x,x-y,1/2+z
-y,-x,1/2+z
loop_
_atom_site_type_symbol
_atom_site_label
_atom_site_fract_x
_atom_site_fract_y
_atom_site_fract_z
Si Si1 0.978855 0.418314 0.359986
Si Si2 0.088539 0.730248 0.985720
Si Si3 0.959027 0.599570 0.360157
Si Si4 0.844077 0.041153 0.910652
Si Si5 0.822741 0.220420 0.352010
Si Si6 0.000000 0.000000 0.610455
O O1 0.992609 0.408975 0.250000
O O2 0.068472 0.424766 0.415538
O O3 0.969202 0.508869 0.383592
O O4 0.882864 0.324736 0.399584
O O5 0.041280 0.689754 0.086244
O O6 0.202211 0.797790 0.000000
O O7 0.050434 0.796056 0.941177
O O8 0.968683 0.622780 0.250000
O O9 0.856046 0.579372 0.400473
O O10 0.824422 0.108480 0.844087
O O11 0.908912 0.007170 0.854892
O O12 0.898470 0.101531 0.000000
O O13 0.794850 0.237693 0.250000
O O14 0.000000 0.000000 0.500000
#
# Coordination Sequence:
#
# PCOD8327318 Si02
#       6
#    12  12  12  12  12   4
#     4   9  20  37  56  81 114 145 180 226 274 324
#     4  11  21  33  56  81 104 143 185 223 271 325
#     4  10  20  36  57  83 112 144 182 225 273 326
#     4  10  17  30  47  70 104 141 180 212 259 300
#     4   9  18  33  52  76 109 145 180 219 263 316
#     4   9  18  27  46  68 103 144 178 212 247 312
#
# _framework density 19.56183
#
# number of rings (size 3 to 8) (size 9 to 14) (size 15 to 20)
#    0.000    2.250    1.875    2.250    0.000    0.750 
#    1.125    0.938    0.000    3.000    0.000    0.000 
#    0.000    0.000    0.000    0.000    0.000    0.000 
#
# Total GULP energy -793089.327732 kJ/mol
# GULP energy per Si atom -12392.020746 kJ/mol
# Density = 1.951731 g / cm^3
# Si number density = 19.561830 Si / 1000 Ang^3
#
#
#
# Elastic Constant Matrix: (Units=GPa)
#
#
# Indices 1 2 3 4 5 6 
#
# 1 121.6659 70.0717 22.9135 0.0000 0.0000 0.0000
# 2 70.0717 121.6659 22.9135 0.0000 0.0000 0.0000
# 3 22.9135 22.9135 49.1951 0.0000 0.0000 0.0000
# 4 0.0000 0.0000 0.0000 14.9412 0.0000 0.0000
# 5 0.0000 0.0000 0.0000 0.0000 14.9412 0.0000
# 6 0.0000 0.0000 0.0000 0.0000 0.0000 25.7971
#
#
#
# Elastic Compliance Matrix: (Units=1/GPa)
#
#
# Indices 1 2 3 4 5 6 
#
# 1 0.012625 -0.006757 -0.002733 0.000000 0.000000 0.000000
# 2 -0.006757 0.012625 -0.002733 0.000000 0.000000 0.000000
# 3 -0.002733 -0.002733 0.022874 0.000000 0.000000 0.000000
# 4 0.000000 0.000000 0.000000 0.066929 0.000000 0.000000
# 5 0.000000 0.000000 0.000000 0.000000 0.066929 0.000000
# 6 0.000000 0.000000 0.000000 0.000000 0.000000 0.038764
#
#
# Mechanical properties :
#
#
# Convention : Reuss Voigt Hill
#
# Bulk Modulus (GPa) = 42.23474 58.25825 50.24650
# Shear Modulus (GPa) = 19.75614 22.91113 21.33364
#
# Velocity S-wave (km/s) = 3.18139 3.42602 3.30597
# Velocity P-wave (km/s) = 5.92725 6.74510 6.34936
#
# Compressibility (1/GPa) = 0.02367719
#
# Stress axis : x y z
#
# Youngs Moduli (GPa) = 79.20544 79.20544 43.71855
#
# Poissons Ratio (x) = 0.53516 0.11950
# Poissons Ratio (y) = 0.53516 0.11950
# Poissons Ratio (z) = 0.21651 0.21651
#
# Static dielectric constant tensor:
#      x y z
#    x 3.672050 0.000000 0.000000 
#    y 0.000000 3.672050 0.000000 
#    z 0.000000 0.000000 3.424810 
# 
# 
# High freq. dielectric constant tensor:
#      x y z
#    x 1.748540 0.000000 0.000000 
#    y 0.000000 1.748540 0.000000 
#    z 0.000000 0.000000 1.758650 
# 
# From -- ./inp_files/3057.got.cif
#   From: 2010.03.12/outbox.cif.g09.slc.cpg/sg188_2_cif.got.tgz:3057.got - 2010.04.01 12:01:06.
