data_PCOD8327050
_publ_section_title
;
Structure prediction by ZEFSAII (Michael W. Deem and Ramdas Pophale) SiO2 
 PCOD8327050
Probable space group: P -6 M 2
;
_chemical_formula_sum "Si O2"
_cell_formula_units_Z 66
_cell_length_a 13.283436
_cell_length_b 13.283436
_cell_length_c 27.283902
_cell_angle_alpha 90.000000
_cell_angle_beta 90.000000
_cell_angle_gamma 120.000000
_cell_volume 4169.250293
_symmetry_space_group_name_H-M "P -6 M 2"
_symmetry_group_IT_number 187
_symmetry_cell_setting 'hexagonal'
loop_
_space_group_symop_operation_xyz
x,y,z
-x+y,-x,-z
-y,x-y,z
x,y,-z
-x+y,-x,z
-y,x-y,-z
-y,-x,-z
-x+y,y,-z
x,x-y,-z
-x+y,y,z
x,x-y,z
-y,-x,z
loop_
_atom_site_type_symbol
_atom_site_label
_atom_site_fract_x
_atom_site_fract_y
_atom_site_fract_z
Si Si1 0.100259 0.433935 0.077677
Si Si2 0.666203 0.565735 0.372639
Si Si3 0.428742 0.093313 0.000000
Si Si4 0.102159 0.667278 0.190506
Si Si5 0.000031 0.767524 0.444025
Si Si6 0.898936 0.332855 0.260944
O O1 0.210305 0.420610 0.061845
O O2 0.134731 0.567366 0.067940
O O3 0.067961 0.399609 0.134159
O O4 0.985275 0.347474 0.047219
O O5 0.768339 0.536678 0.381197
O O6 0.547472 0.452529 0.386674
O O7 0.678278 0.666420 0.408492
O O8 0.666591 0.605041 0.316780
O O9 0.564289 0.128577 0.000000
O O10 0.419822 0.209911 0.000000
O O11 0.129606 0.564803 0.200652
O O12 0.214533 0.785468 0.205732
O O13 0.998799 0.654577 0.224773
O O14 0.998056 0.728347 0.500000
O O15 0.898196 0.796391 0.434298
O O16 0.119194 0.880806 0.430630
O O17 0.869919 0.434960 0.252380
O O18 0.785692 0.214309 0.246954
#
# Coordination Sequence:
#
# PCOD8327050 Si02
#       6
#    12  12   6  12  12  12
#     4   9  17  30  49  71  91 112 142 183 227 264
#     4   9  17  29  45  65  89 116 146 181 220 259
#     4  10  20  32  46  66  94 124 150 178 216 262
#     4   9  17  29  46  68  92 116 143 179 223 265
#     4   9  17  29  45  64  85 110 141 178 219 261
#     4   9  17  29  45  65  89 118 150 182 216 256
#
# _framework density 15.830185
#
# number of rings (size 3 to 8) (size 9 to 14) (size 15 to 20)
#    0.000    2.909    0.000    1.273    0.000    5.455 
#    0.000    0.909    0.000    5.455    0.000    0.000 
#    0.000    0.000    0.000    0.000    0.000    0.000 
#
# Total GULP energy -818391.081476 kJ/mol
# GULP energy per Si atom -12399.864871 kJ/mol
# Density = 1.579415 g / cm^3
# Si number density = 15.830185 Si / 1000 Ang^3
#
#
#
# Elastic Constant Matrix: (Units=GPa)
#
#
# Indices 1 2 3 4 5 6 
#
# 1 108.7884 61.5883 67.2128 0.0000 -0.0001 0.0000
# 2 61.5883 108.7884 67.2128 0.0000 0.0001 0.0000
# 3 67.2128 67.2128 96.9388 0.0000 0.0000 0.0000
# 4 0.0000 0.0000 0.0000 27.9022 0.0000 0.0001
# 5 -0.0001 0.0001 0.0000 0.0000 27.9022 0.0000
# 6 0.0000 0.0000 0.0000 0.0001 0.0000 23.6001
#
#
#
# Elastic Compliance Matrix: (Units=1/GPa)
#
#
# Indices 1 2 3 4 5 6 
#
# 1 0.017072 -0.004114 -0.008984 0.000000 0.000000 0.000000
# 2 -0.004114 0.017072 -0.008984 0.000000 0.000000 0.000000
# 3 -0.008984 -0.008984 0.022775 0.000000 0.000000 0.000000
# 4 0.000000 0.000000 0.000000 0.035840 0.000000 0.000000
# 5 0.000000 0.000000 0.000000 0.000000 0.035840 0.000000
# 6 0.000000 0.000000 0.000000 0.000000 0.000000 0.042373
#
#
# Mechanical properties :
#
#
# Convention : Reuss Voigt Hill
#
# Bulk Modulus (GPa) = 78.41458 78.50484 78.45971
# Shear Modulus (GPa) = 22.79067 23.78099 23.28583
#
# Velocity S-wave (km/s) = 3.79845 3.88010 3.83949
# Velocity P-wave (km/s) = 8.29940 8.35303 8.32626
#
# Compressibility (1/GPa) = 0.01275273
#
# Stress axis : x y z
#
# Youngs Moduli (GPa) = 58.57478 58.57478 43.90853
#
# Poissons Ratio (x) = 0.24099 0.39450
# Poissons Ratio (y) = 0.24099 0.39450
# Poissons Ratio (z) = 0.52626 0.52626
#
# Static dielectric constant tensor:
#      x y z
#    x 2.914020 0.000000 0.000000 
#    y 0.000000 2.914020 0.000000 
#    z 0.000000 0.000000 3.154570 
# 
# 
# High freq. dielectric constant tensor:
#      x y z
#    x 1.596280 0.000000 0.000000 
#    y 0.000000 1.596280 0.000000 
#    z 0.000000 0.000000 1.616530 
# 
# From -- ./inp_files/4425.got.cif
#   From: 2010.03.12/outbox.cif.g09.slc.cpg/sg187_3_cif.got.tgz:4425.got - 2010.04.01 11:58:23.
