data_PCOD8327758
_publ_section_title
;
Structure prediction by ZEFSAII (Michael W. Deem and Ramdas Pophale) SiO2 
 PCOD8327758
Probable space group: P -6 2 M
;
_chemical_formula_sum "Si O2"
_cell_formula_units_Z 45
_cell_length_a 18.235989
_cell_length_b 18.235989
_cell_length_c 8.009364
_cell_angle_alpha 90.000000
_cell_angle_beta 90.000000
_cell_angle_gamma 120.000000
_cell_volume 2306.679767
_symmetry_space_group_name_H-M "P -6 2 M"
_symmetry_group_IT_number 189
_symmetry_cell_setting 'hexagonal'
loop_
_space_group_symop_operation_xyz
x,y,z
-x+y,-x,-z
-y,x-y,z
x,y,-z
-x+y,-x,z
-y,x-y,-z
x-y,-y,-z
-x,-x+y,-z
y,x,-z
y,x,z
x-y,-y,z
-x,-x+y,z
loop_
_atom_site_type_symbol
_atom_site_label
_atom_site_fract_x
_atom_site_fract_y
_atom_site_fract_z
Si Si1 0.208670 0.208670 0.801246
Si Si2 0.413611 0.507964 0.306913
Si Si3 0.000000 0.905495 0.500000
Si Si4 0.230573 0.389277 0.803854
Si Si5 0.337913 0.906279 0.193473
O O1 0.140428 0.140428 0.673463
O O2 0.215866 0.297699 0.755354
O O3 0.185138 0.185138 0.000000
O O4 0.432633 0.524375 0.500000
O O5 0.444929 0.444929 0.236165
O O6 0.314782 0.465821 0.273582
O O7 0.467681 0.599651 0.219459
O O8 0.916564 0.916564 0.500000
O O9 0.154190 0.399644 0.727648
O O10 0.238411 0.402100 0.000000
O O11 0.379756 0.000000 0.276749
O O12 0.324540 0.913910 0.000000
#
# Coordination Sequence:
#
# PCOD8327758 Si02
#       5
#     6  12   3  12  12
#     4  10  22  40  68  98 125 165 216 261 315 382
#     4  10  20  34  55  81 113 150 188 235 293 355
#     4  10  26  46  62  94 132 170 210 256 328 372
#     4  10  20  35  60  90 116 155 203 249 303 364
#     4   9  19  36  56  80 113 147 190 242 295 356
#
# _framework density 19.508561
#
# number of rings (size 3 to 8) (size 9 to 14) (size 15 to 20)
#    0.133    2.133    1.333    0.800    1.867    3.733 
#    1.600    2.667    0.000    0.000    0.000    0.000 
#    0.000    0.000    0.000    0.000    0.000    0.000 
#
# Total GULP energy -557785.423645 kJ/mol
# GULP energy per Si atom -12395.231637 kJ/mol
# Density = 1.946416 g / cm^3
# Si number density = 19.508561 Si / 1000 Ang^3
#
#
#
# Elastic Constant Matrix: (Units=GPa)
#
#
# Indices 1 2 3 4 5 6 
#
# 1 150.0682 83.2986 31.9273 0.0000 0.0000 0.0000
# 2 83.2986 150.0682 31.9273 0.0000 0.0000 0.0000
# 3 31.9273 31.9273 45.7564 0.0000 0.0000 0.0000
# 4 0.0000 0.0000 0.0000 21.4867 0.0000 0.0000
# 5 0.0000 0.0000 0.0000 0.0000 21.4867 0.0000
# 6 0.0000 0.0000 0.0000 0.0000 0.0000 33.3848
#
#
#
# Elastic Compliance Matrix: (Units=1/GPa)
#
#
# Indices 1 2 3 4 5 6 
#
# 1 0.010137 -0.004840 -0.003696 0.000000 0.000000 0.000000
# 2 -0.004840 0.010137 -0.003696 0.000000 0.000000 0.000000
# 3 -0.003696 -0.003696 0.027012 0.000000 0.000000 0.000000
# 4 0.000000 0.000000 0.000000 0.046540 0.000000 0.000000
# 5 0.000000 0.000000 0.000000 0.000000 0.046540 0.000000
# 6 0.000000 0.000000 0.000000 0.000000 0.000000 0.029954
#
#
# Mechanical properties :
#
#
# Convention : Reuss Voigt Hill
#
# Bulk Modulus (GPa) = 43.81650 71.13323 57.47486
# Shear Modulus (GPa) = 24.70476 28.52097 26.61286
#
# Velocity S-wave (km/s) = 3.56245 3.82772 3.69746
# Velocity P-wave (km/s) = 6.27935 7.48846 6.91040
#
# Compressibility (1/GPa) = 0.02282245
#
# Stress axis : x y z
#
# Youngs Moduli (GPa) = 98.65259 98.65259 37.02037
#
# Poissons Ratio (x) = 0.47751 0.13681
# Poissons Ratio (y) = 0.47751 0.13681
# Poissons Ratio (z) = 0.36458 0.36458
#
# Static dielectric constant tensor:
#      x y z
#    x 3.732330 0.000000 0.000000 
#    y 0.000000 3.732330 0.000000 
#    z 0.000000 0.000000 3.375610 
# 
# 
# High freq. dielectric constant tensor:
#      x y z
#    x 1.756490 0.000000 0.000000 
#    y 0.000000 1.756490 0.000000 
#    z 0.000000 0.000000 1.752150 
# 
# From -- ./inp_files/561.got.cif
#   From: 2010.03.12/outbox.cif.g09.slc.cpg/sg189_1_cif.got.tgz:561.got - 2010.04.01 12:03:36.
