data_PCOD8327415
_publ_section_title
;
Structure prediction by ZEFSAII (Michael W. Deem and Ramdas Pophale) SiO2 
 PCOD8327415
Probable space group: P -6 C 2
;
_chemical_formula_sum "Si O2"
_cell_formula_units_Z 64
_cell_length_a 15.945340
_cell_length_b 15.945340
_cell_length_c 15.574420
_cell_angle_alpha 90.000000
_cell_angle_beta 90.000000
_cell_angle_gamma 120.000000
_cell_volume 3429.336344
_symmetry_space_group_name_H-M "P -6 C 2"
_symmetry_group_IT_number 188
_symmetry_cell_setting 'hexagonal'
loop_
_space_group_symop_operation_xyz
x,y,z
-x+y,-x,1/2-z
-y,x-y,z
x,y,1/2-z
-x+y,-x,z
-y,x-y,1/2-z
-y,-x,-z
-x+y,y,-z
x,x-y,-z
-x+y,y,1/2+z
x,x-y,1/2+z
-y,-x,1/2+z
loop_
_atom_site_type_symbol
_atom_site_label
_atom_site_fract_x
_atom_site_fract_y
_atom_site_fract_z
Si Si1 0.392017 0.423442 0.992896
Si Si2 0.073021 0.314259 0.150654
Si Si3 0.861855 0.163343 0.151964
Si Si4 0.689394 0.506071 0.432585
Si Si5 0.694864 0.958627 0.150467
Si Si6 0.666667 0.333334 0.847406
O O1 0.315510 0.396671 0.914819
O O2 0.464924 0.385376 0.969634
O O3 0.459386 0.540615 0.000000
O O4 0.341318 0.383423 0.085036
O O5 0.072103 0.346155 0.250000
O O6 0.161378 0.296881 0.133462
O O7 0.975897 0.212068 0.129346
O O8 0.849786 0.180932 0.250000
O O9 0.814326 0.215294 0.101891
O O10 0.801642 0.049309 0.129445
O O11 0.729717 0.459434 0.500000
O O12 0.637225 0.415512 0.368702
O O13 0.664727 0.962155 0.250000
O O14 0.666667 0.333334 0.750000
#
# Coordination Sequence:
#
# PCOD8327415 Si02
#       6
#    12  12  12  12  12   4
#     4  11  22  36  57  83 110 151 192 239 289 342
#     4   9  20  37  58  85 118 151 190 238 288 345
#     4   9  18  34  55  81 115 150 186 229 277 334
#     4  11  20  35  51  74 109 147 189 229 278 322
#     4  10  20  37  60  87 116 152 192 234 287 350
#     4  12  25  35  49  75 112 155 196 237 274 335
#
# _framework density 18.662503000000001
#
# number of rings (size 3 to 8) (size 9 to 14) (size 15 to 20)
#    0.000    1.875    1.875    2.812    0.000    1.500 
#    1.125    0.000    0.000    3.000    0.000    0.000 
#    0.000    0.000    0.000    0.000    0.000    0.000 
#
# Total GULP energy -792988.135517 kJ/mol
# GULP energy per Si atom -12390.439617 kJ/mol
# Density = 1.862003 g / cm^3
# Si number density = 18.662503 Si / 1000 Ang^3
#
#
#
# Elastic Constant Matrix: (Units=GPa)
#
#
# Indices 1 2 3 4 5 6 
#
# 1 128.9250 48.2610 58.3685 0.0000 0.0000 0.0001
# 2 48.2610 128.9241 58.3685 0.0000 0.0000 -0.0008
# 3 58.3685 58.3685 109.5351 0.0000 -0.0001 -0.0003
# 4 0.0000 0.0000 0.0000 27.3507 0.0000 0.0000
# 5 0.0000 0.0000 -0.0001 0.0000 27.3508 0.0002
# 6 0.0001 -0.0008 -0.0003 0.0000 0.0002 40.3317
#
#
#
# Elastic Compliance Matrix: (Units=1/GPa)
#
#
# Indices 1 2 3 4 5 6 
#
# 1 0.010547 -0.001850 -0.004635 0.000000 0.000000 0.000000
# 2 -0.001850 0.010547 -0.004635 0.000000 0.000000 0.000000
# 3 -0.004635 -0.004635 0.014069 0.000000 0.000000 0.000000
# 4 0.000000 0.000000 0.000000 0.036562 0.000000 0.000000
# 5 0.000000 0.000000 0.000000 0.000000 0.036562 0.000000
# 6 0.000000 0.000000 0.000000 0.000000 0.000000 0.024794
#
#
# Mechanical properties :
#
#
# Convention : Reuss Voigt Hill
#
# Bulk Modulus (GPa) = 77.36908 77.48670 77.42789
# Shear Modulus (GPa) = 31.32281 32.49906 31.91094
#
# Velocity S-wave (km/s) = 4.10125 4.17755 4.13957
# Velocity P-wave (km/s) = 7.99837 8.05477 8.02662
#
# Compressibility (1/GPa) = 0.01292506
#
# Stress axis : x y z
#
# Youngs Moduli (GPa) = 94.81235 94.81152 71.07955
#
# Poissons Ratio (x) = 0.17540 0.32942
# Poissons Ratio (y) = 0.17540 0.32942
# Poissons Ratio (z) = 0.43941 0.43941
#
# Static dielectric constant tensor:
#      x y z
#    x 3.382650 0.000000 0.000000 
#    y 0.000000 3.382650 0.000000 
#    z 0.000000 0.000000 3.704640 
# 
# 
# High freq. dielectric constant tensor:
#      x y z
#    x 1.712940 0.000000 0.000000 
#    y 0.000000 1.712940 0.000000 
#    z 0.000000 0.000000 1.741500 
# 
# From -- ./inp_files/3045.got.cif
#   From: 2010.03.12/outbox.cif.g09.slc.cpg/sg188_2_cif.got.tgz:3045.got - 2010.04.01 12:01:06.
