data_PCOD8327343
_publ_section_title
;
Structure prediction by ZEFSAII (Michael W. Deem and Ramdas Pophale) SiO2 
 PCOD8327343
Probable space group: P -6 C 2
;
_chemical_formula_sum "Si O2"
_cell_formula_units_Z 54
_cell_length_a 22.194778
_cell_length_b 22.194778
_cell_length_c 9.442244
_cell_angle_alpha 90.000000
_cell_angle_beta 90.000000
_cell_angle_gamma 120.000000
_cell_volume 4028.166947
_symmetry_space_group_name_H-M "P -6 C 2"
_symmetry_group_IT_number 188
_symmetry_cell_setting 'hexagonal'
loop_
_space_group_symop_operation_xyz
x,y,z
-x+y,-x,1/2-z
-y,x-y,z
x,y,1/2-z
-x+y,-x,z
-y,x-y,1/2-z
-y,-x,-z
-x+y,y,-z
x,x-y,-z
-x+y,y,1/2+z
x,x-y,1/2+z
-y,-x,1/2+z
loop_
_atom_site_type_symbol
_atom_site_label
_atom_site_fract_x
_atom_site_fract_y
_atom_site_fract_z
Si Si1 0.695777 0.228454 0.250000
Si Si2 0.497715 0.146031 0.250000
Si Si3 0.742585 0.657229 0.250000
Si Si4 0.866970 0.623521 0.250000
Si Si5 0.815496 0.407748 0.000000
Si Si6 0.120865 0.997864 0.915220
Si Si7 0.272610 0.206922 0.021399
O O1 0.519512 0.227025 0.250000
O O2 0.699603 0.157442 0.250000
O O3 0.657328 0.231405 0.394104
O O4 0.416571 0.088467 0.250000
O O5 0.529011 0.134533 0.395348
O O6 0.802449 0.636858 0.250000
O O7 0.749103 0.707270 0.378078
O O8 0.916148 0.661095 0.382540
O O9 0.098626 0.995329 0.750000
O O10 0.198276 0.007394 0.918146
O O11 0.115939 0.057970 0.000000
O O12 0.072638 0.927363 0.000000
O O13 0.265016 0.132508 0.000000
#
# Coordination Sequence:
#
# PCOD8327343 Si02
#       7
#     6   6   6   6   6  12  12
#     4  10  19  31  43  53  77  94 126 150 195 232
#     4  10  19  33  41  57  73 100 126 152 197 232
#     4   9  17  27  46  58  73  90 119 164 196 226
#     4   9  15  29  44  58  69  92 115 164 192 224
#     4  10  20  30  38  56  74  96 122 150 180 248
#     4  11  22  33  45  59  84 108 132 152 187 234
#     4   9  17  27  43  62  74  90 126 158 193 220
#
# _framework density 13.405602
#
# number of rings (size 3 to 8) (size 9 to 14) (size 15 to 20)
#    0.000    2.222    1.111    2.889    6.222    3.556 
#   13.333    0.000    0.000    0.000    0.000    0.000 
#    0.000    0.000    0.000    0.000    0.000    0.000 
#
# Total GULP energy -668955.029354 kJ/mol
# GULP energy per Si atom -12388.056099 kJ/mol
# Density = 1.337509 g / cm^3
# Si number density = 13.405602 Si / 1000 Ang^3
#
#
#
# Elastic Constant Matrix: (Units=GPa)
#
#
# Indices 1 2 3 4 5 6 
#
# 1 47.7896 25.1123 26.9615 0.0000 0.0000 0.0000
# 2 25.1123 47.7896 26.9615 0.0000 0.0000 0.0000
# 3 26.9615 26.9615 118.8946 0.0000 0.0000 0.0000
# 4 0.0000 0.0000 0.0000 16.7551 0.0000 0.0000
# 5 0.0000 0.0000 0.0000 0.0000 16.7551 0.0000
# 6 0.0000 0.0000 0.0000 0.0000 0.0000 11.3387
#
#
#
# Elastic Compliance Matrix: (Units=1/GPa)
#
#
# Indices 1 2 3 4 5 6 
#
# 1 0.030289 -0.013808 -0.003737 0.000000 0.000000 0.000000
# 2 -0.013808 0.030289 -0.003737 0.000000 0.000000 0.000000
# 3 -0.003737 -0.003737 0.010106 0.000000 0.000000 0.000000
# 4 0.000000 0.000000 0.000000 0.059683 0.000000 0.000000
# 5 0.000000 0.000000 0.000000 0.000000 0.059683 0.000000
# 6 0.000000 0.000000 0.000000 0.000000 0.000000 0.088194
#
#
# Mechanical properties :
#
#
# Convention : Reuss Voigt Hill
#
# Bulk Modulus (GPa) = 35.56309 41.39383 38.47846
# Shear Modulus (GPa) = 15.14312 17.99901 16.57106
#
# Velocity S-wave (km/s) = 3.36462 3.66819 3.51968
# Velocity P-wave (km/s) = 6.45603 6.99184 6.72927
#
# Compressibility (1/GPa) = 0.02811904
#
# Stress axis : x y z
#
# Youngs Moduli (GPa) = 33.01507 33.01507 98.95207
#
# Poissons Ratio (x) = 0.45586 0.36983
# Poissons Ratio (y) = 0.45586 0.36983
# Poissons Ratio (z) = 0.12339 0.12339
#
# Static dielectric constant tensor:
#      x y z
#    x 2.538480 0.000000 0.000000 
#    y 0.000000 2.538480 0.000000 
#    z 0.000000 0.000000 2.905440 
# 
# 
# High freq. dielectric constant tensor:
#      x y z
#    x 1.467550 0.000000 0.000000 
#    y 0.000000 1.467550 0.000000 
#    z 0.000000 0.000000 1.540910 
# 
# From -- ./inp_files/917.got.cif
#   From: 2010.03.12/outbox.cif.g09.slc.cpg/sg188_1_cif.got.tgz:917.got - 2010.04.01 12:01:06.
