data_PCOD8327331
_publ_section_title
;
Structure prediction by ZEFSAII (Michael W. Deem and Ramdas Pophale) SiO2 
 PCOD8327331
Probable space group: P -6 C 2
;
_chemical_formula_sum "Si O2"
_cell_formula_units_Z 70
_cell_length_a 19.908767
_cell_length_b 19.908767
_cell_length_c 14.914059
_cell_angle_alpha 90.000000
_cell_angle_beta 90.000000
_cell_angle_gamma 120.000000
_cell_volume 5119.354643
_symmetry_space_group_name_H-M "P -6 C 2"
_symmetry_group_IT_number 188
_symmetry_cell_setting 'hexagonal'
loop_
_space_group_symop_operation_xyz
x,y,z
-x+y,-x,1/2-z
-y,x-y,z
x,y,1/2-z
-x+y,-x,z
-y,x-y,1/2-z
-y,-x,-z
-x+y,y,-z
x,x-y,-z
-x+y,y,1/2+z
x,x-y,1/2+z
-y,-x,1/2+z
loop_
_atom_site_type_symbol
_atom_site_label
_atom_site_fract_x
_atom_site_fract_y
_atom_site_fract_z
Si Si1 0.187056 0.949218 0.848995
Si Si2 0.246243 0.581319 0.750000
Si Si3 0.000000 0.000000 0.856395
Si Si4 0.041260 0.788123 0.849646
Si Si5 0.920019 0.091792 0.398756
Si Si6 0.472723 0.807637 0.451014
Si Si7 0.258159 0.900661 0.992792
O O1 0.209340 0.935803 0.750000
O O2 0.103061 0.877267 0.876036
O O3 0.252278 0.953453 0.915102
O O4 0.186269 0.029369 0.848257
O O5 0.257561 0.668140 0.750000
O O6 0.203024 0.538383 0.657516
O O7 0.081729 0.066445 0.893246
O O8 0.000000 0.000000 0.750000
O O9 0.054697 0.767202 0.750000
O O10 0.955920 0.778584 0.855995
O O11 0.052127 0.729275 0.914587
O O12 0.900271 0.099730 0.500000
O O13 0.413861 0.827722 0.500000
O O14 0.462759 0.731380 0.500000
O O15 0.556516 0.883356 0.469856
O O16 0.181537 0.818464 0.000000
#
# Coordination Sequence:
#
# PCOD8327331 Si02
#       7
#    12   6   4  12  12  12  12
#     4  10  19  30  40  56  77 103 138 175 216 256
#     4  10  18  30  52  72  90 104 124 162 214 252
#     4  12  22  26  34  57  70  98 142 187 221 247
#     4  10  19  32  42  56  78 108 143 178 219 259
#     4  12  20  28  41  53  77 105 144 186 226 249
#     4  11  19  34  49  68  89 105 132 168 204 254
#     4   9  20  32  43  59  81 106 128 165 214 252
#
# _framework density 13.673598999999999
#
# number of rings (size 3 to 8) (size 9 to 14) (size 15 to 20)
#    0.171    1.371    5.143    2.229    1.200    0.000 
#    6.171    0.000    0.000    0.000    0.000    0.000 
#    0.000    0.000    0.000    0.000    0.000    0.000 
#
# Total GULP energy -867574.970822 kJ/mol
# GULP energy per Si atom -12393.928155 kJ/mol
# Density = 1.364248 g / cm^3
# Si number density = 13.673599 Si / 1000 Ang^3
#
#
#
# Elastic Constant Matrix: (Units=GPa)
#
#
# Indices 1 2 3 4 5 6 
#
# 1 58.3198 28.9299 32.2428 0.0001 0.0000 0.0000
# 2 28.9299 58.3198 32.2428 -0.0001 0.0000 0.0000
# 3 32.2428 32.2428 115.9960 0.0000 0.0000 0.0000
# 4 0.0001 -0.0001 0.0000 12.2654 0.0000 0.0000
# 5 0.0000 0.0000 0.0000 0.0000 12.2654 0.0001
# 6 0.0000 0.0000 0.0000 0.0000 0.0001 14.6949
#
#
#
# Elastic Compliance Matrix: (Units=1/GPa)
#
#
# Indices 1 2 3 4 5 6 
#
# 1 0.024225 -0.009800 -0.004010 0.000000 0.000000 0.000000
# 2 -0.009800 0.024225 -0.004010 0.000000 0.000000 0.000000
# 3 -0.004010 -0.004010 0.010850 0.000000 0.000000 0.000000
# 4 0.000000 0.000000 0.000000 0.081530 0.000000 0.000000
# 5 0.000000 0.000000 0.000000 0.000000 0.081530 0.000000
# 6 0.000000 0.000000 0.000000 0.000000 0.000000 0.068051
#
#
# Mechanical properties :
#
#
# Convention : Reuss Voigt Hill
#
# Bulk Modulus (GPa) = 42.26309 46.60739 44.43524
# Shear Modulus (GPa) = 14.97285 17.12646 16.04966
#
# Velocity S-wave (km/s) = 3.31270 3.54294 3.42975
# Velocity P-wave (km/s) = 6.75334 7.13416 6.94636
#
# Compressibility (1/GPa) = 0.02366131
#
# Stress axis : x y z
#
# Youngs Moduli (GPa) = 41.27950 41.27950 92.16557
#
# Poissons Ratio (x) = 0.40455 0.36955
# Poissons Ratio (y) = 0.40455 0.36955
# Poissons Ratio (z) = 0.16551 0.16551
#
# Static dielectric constant tensor:
#      x y z
#    x 2.357230 0.000000 0.000000 
#    y 0.000000 2.357230 0.000000 
#    z 0.000000 0.000000 2.914460 
# 
# 
# High freq. dielectric constant tensor:
#      x y z
#    x 1.477550 0.000000 0.000000 
#    y 0.000000 1.477550 0.000000 
#    z 0.000000 0.000000 1.547750 
# 
# From -- ./inp_files/3332.got.cif
#   From: 2010.03.12/outbox.cif.g09.slc.cpg/sg188_2_cif.got.tgz:3332.got - 2010.04.01 12:01:06.
