data_PCOD8327866
_publ_section_title
;
Structure prediction by ZEFSAII (Michael W. Deem and Ramdas Pophale) SiO2 
 PCOD8327866
Probable space group: P -6 2 M
;
_chemical_formula_sum "Si O2"
_cell_formula_units_Z 44
_cell_length_a 17.044696
_cell_length_b 17.044696
_cell_length_c 8.877850
_cell_angle_alpha 90.000000
_cell_angle_beta 90.000000
_cell_angle_gamma 120.000000
_cell_volume 2233.659420
_symmetry_space_group_name_H-M "P -6 2 M"
_symmetry_group_IT_number 189
_symmetry_cell_setting 'hexagonal'
loop_
_space_group_symop_operation_xyz
x,y,z
-x+y,-x,-z
-y,x-y,z
x,y,-z
-x+y,-x,z
-y,x-y,-z
x-y,-y,-z
-x,-x+y,-z
y,x,-z
y,x,z
x-y,-y,z
-x,-x+y,z
loop_
_atom_site_type_symbol
_atom_site_label
_atom_site_fract_x
_atom_site_fract_y
_atom_site_fract_z
Si Si1 0.600184 0.107217 0.831889
Si Si2 0.000000 0.820674 0.320782
Si Si3 0.447642 0.107047 0.667802
Si Si4 0.203870 0.359165 0.178061
Si Si5 0.000000 0.000000 0.321636
O O1 0.549913 0.147174 0.730216
O O2 0.698310 0.135885 0.763704
O O3 0.542292 0.000000 0.836770
O O4 0.610466 0.147216 0.000000
O O5 0.000000 0.816184 0.500000
O O6 0.089556 0.823949 0.259503
O O7 0.000000 0.910490 0.262637
O O8 0.452926 0.146080 0.500000
O O9 0.389373 0.131978 0.778449
O O10 0.399584 0.000000 0.663120
O O11 0.204816 0.344572 0.000000
O O12 0.000000 0.000000 0.500000
#
# Coordination Sequence:
#
# PCOD8327866 Si02
#       5
#    12   6  12  12   2
#     4   9  18  37  60  82 112 148 189 238 291 350
#     4  11  23  41  65  90 123 166 211 261 316 369
#     4  10  22  38  58  86 118 152 195 245 297 356
#     4  11  22  39  62  91 121 158 204 249 305 370
#     4   9  24  45  61  86 127 168 205 257 316 363
#
# _framework density 19.698618
#
# number of rings (size 3 to 8) (size 9 to 14) (size 15 to 20)
#    0.000    1.909    1.364    2.045    1.909    3.818 
#    1.636    2.045    0.000    0.000    0.000    0.000 
#    0.000    0.000    0.000    0.000    0.000    0.000 
#
# Total GULP energy -545650.595919 kJ/mol
# GULP energy per Si atom -12401.149907 kJ/mol
# Density = 1.965378 g / cm^3
# Si number density = 19.698618 Si / 1000 Ang^3
#
#
#
# Elastic Constant Matrix: (Units=GPa)
#
#
# Indices 1 2 3 4 5 6 
#
# 1 107.4772 55.9791 44.7599 0.0000 0.0000 0.0000
# 2 55.9791 107.4772 44.7599 0.0000 0.0000 0.0000
# 3 44.7599 44.7599 85.5846 0.0000 0.0000 0.0000
# 4 0.0000 0.0000 0.0000 31.8890 0.0000 0.0000
# 5 0.0000 0.0000 0.0000 0.0000 31.8890 0.0000
# 6 0.0000 0.0000 0.0000 0.0000 0.0000 25.7491
#
#
#
# Elastic Compliance Matrix: (Units=1/GPa)
#
#
# Indices 1 2 3 4 5 6 
#
# 1 0.013996 -0.005422 -0.004484 0.000000 0.000000 0.000000
# 2 -0.005422 0.013996 -0.004484 0.000000 0.000000 0.000000
# 3 -0.004484 -0.004484 0.016374 0.000000 0.000000 0.000000
# 4 0.000000 0.000000 0.000000 0.031359 0.000000 0.000000
# 5 0.000000 0.000000 0.000000 0.000000 0.031359 0.000000
# 6 0.000000 0.000000 0.000000 0.000000 0.000000 0.038836
#
#
# Mechanical properties :
#
#
# Convention : Reuss Voigt Hill
#
# Bulk Modulus (GPa) = 64.16034 65.72631 64.94332
# Shear Modulus (GPa) = 27.79392 28.24142 28.01767
#
# Velocity S-wave (km/s) = 3.76035 3.79050 3.77545
# Velocity P-wave (km/s) = 7.17602 7.25228 7.21425
#
# Compressibility (1/GPa) = 0.01558595
#
# Stress axis : x y z
#
# Youngs Moduli (GPa) = 71.44976 71.44976 61.07103
#
# Poissons Ratio (x) = 0.38742 0.27383
# Poissons Ratio (y) = 0.38742 0.27383
# Poissons Ratio (z) = 0.32037 0.32037
#
# Static dielectric constant tensor:
#      x y z
#    x 3.604860 0.000000 0.000000 
#    y 0.000000 3.604860 0.000000 
#    z 0.000000 0.000000 3.777580 
# 
# 
# High freq. dielectric constant tensor:
#      x y z
#    x 1.765640 0.000000 0.000000 
#    y 0.000000 1.765640 0.000000 
#    z 0.000000 0.000000 1.769840 
# 
# From -- ./inp_files/587.got.cif
#   From: 2010.03.12/outbox.cif.g09.slc.cpg/sg189_1_cif.got.tgz:587.got - 2010.04.01 12:03:36.
