data_PCOD8327827
_publ_section_title
;
Structure prediction by ZEFSAII (Michael W. Deem and Ramdas Pophale) SiO2 
 PCOD8327827
Probable space group: P -6 2 M
;
_chemical_formula_sum "Si O2"
_cell_formula_units_Z 72
_cell_length_a 22.904002
_cell_length_b 22.904002
_cell_length_c 9.485821
_cell_angle_alpha 90.000000
_cell_angle_beta 90.000000
_cell_angle_gamma 120.000000
_cell_volume 4309.514067
_symmetry_space_group_name_H-M "P -6 2 M"
_symmetry_group_IT_number 189
_symmetry_cell_setting 'hexagonal'
loop_
_space_group_symop_operation_xyz
x,y,z
-x+y,-x,-z
-y,x-y,z
x,y,-z
-x+y,-x,z
-y,x-y,-z
x-y,-y,-z
-x,-x+y,-z
y,x,-z
y,x,z
x-y,-y,z
-x,-x+y,z
loop_
_atom_site_type_symbol
_atom_site_label
_atom_site_fract_x
_atom_site_fract_y
_atom_site_fract_z
Si Si1 0.374731 0.558472 0.831442
Si Si2 0.923152 0.847082 0.158381
Si Si3 0.922948 0.188071 0.335457
Si Si4 0.704002 0.470304 0.161298
Si Si5 0.337587 0.414139 0.167364
Si Si6 0.189173 0.810119 0.838541
O O1 0.307691 0.557205 0.771475
O O2 0.437457 0.628402 0.772573
O O3 0.377340 0.492168 0.777441
O O4 0.370782 0.552824 0.000000
O O5 0.908085 0.908085 0.172091
O O6 0.882669 0.790527 0.272608
O O7 0.000000 0.874270 0.194490
O O8 0.905474 0.816479 0.000000
O O9 0.907636 0.178731 0.500000
O O10 0.872546 0.206840 0.261104
O O11 0.000000 0.245674 0.304341
O O12 0.742849 0.550055 0.176745
O O13 0.691963 0.447390 0.000000
O O14 0.372147 0.372147 0.230356
O O15 0.258770 0.381085 0.212170
O O16 0.341015 0.413191 0.000000
O O17 0.179013 0.825301 0.000000
#
# Coordination Sequence:
#
# PCOD8327827 Si02
#       6
#    12  12  12  12  12  12
#     4   8  12  19  33  55  86 118 143 173 218 269
#     4   9  17  30  49  71  92 113 138 172 217 267
#     4  10  21  35  48  63  86 117 152 187 221 258
#     4   8  13  21  36  61  90 117 144 177 222 272
#     4   8  14  24  38  58  86 118 147 176 215 264
#     4   9  17  29  45  65  88 114 148 189 227 264
#
# _framework density 16.707218999999998
#
# number of rings (size 3 to 8) (size 9 to 14) (size 15 to 20)
#    0.000    3.333    0.000    3.000    0.000    4.000 
#    0.000    2.500    0.000    4.000    0.000    4.667 
#    0.000    0.000    0.000    0.000    0.000    0.000 
#
# Total GULP energy -891983.760181 kJ/mol
# GULP energy per Si atom -12388.663336 kJ/mol
# Density = 1.666919 g / cm^3
# Si number density = 16.707219 Si / 1000 Ang^3
#
#
#
# Elastic Constant Matrix: (Units=GPa)
#
#
# Indices 1 2 3 4 5 6 
#
# 1 102.7061 63.5306 35.9489 0.0000 0.0000 0.0000
# 2 63.5306 102.7061 35.9489 0.0000 0.0000 0.0000
# 3 35.9489 35.9489 44.3397 0.0000 0.0000 0.0000
# 4 0.0000 0.0000 0.0000 6.9089 0.0000 0.0000
# 5 0.0000 0.0000 0.0000 0.0000 6.9089 0.0000
# 6 0.0000 0.0000 0.0000 0.0000 0.0000 19.5877
#
#
#
# Elastic Compliance Matrix: (Units=1/GPa)
#
#
# Indices 1 2 3 4 5 6 
#
# 1 0.017395 -0.008131 -0.007511 0.000000 0.000000 0.000000
# 2 -0.008131 0.017395 -0.007511 0.000000 0.000000 0.000000
# 3 -0.007511 -0.007511 0.034732 0.000000 0.000000 0.000000
# 4 0.000000 0.000000 0.000000 0.144741 0.000000 0.000000
# 5 0.000000 0.000000 0.000000 0.000000 0.144741 0.000000
# 6 0.000000 0.000000 0.000000 0.000000 0.000000 0.051052
#
#
# Mechanical properties :
#
#
# Convention : Reuss Voigt Hill
#
# Bulk Modulus (GPa) = 43.07246 57.84540 50.45893
# Shear Modulus (GPa) = 10.77352 14.30268 12.53810
#
# Velocity S-wave (km/s) = 2.54213 2.92905 2.74242
# Velocity P-wave (km/s) = 5.86969 6.79244 6.34786
#
# Compressibility (1/GPa) = 0.02321669
#
# Stress axis : x y z
#
# Youngs Moduli (GPa) = 57.48751 57.48751 28.79170
#
# Poissons Ratio (x) = 0.46744 0.21625
# Poissons Ratio (y) = 0.46744 0.21625
# Poissons Ratio (z) = 0.43178 0.43178
#
# Static dielectric constant tensor:
#      x y z
#    x 3.284760 0.000000 0.000000 
#    y 0.000000 3.284760 0.000000 
#    z 0.000000 0.000000 2.654080 
# 
# 
# High freq. dielectric constant tensor:
#      x y z
#    x 1.645210 0.000000 0.000000 
#    y 0.000000 1.645210 0.000000 
#    z 0.000000 0.000000 1.583030 
# 
# From -- ./inp_files/1259.got.cif
#   From: 2010.03.12/outbox.cif.g09.slc.cpg/sg189_1_cif.got.tgz:1259.got - 2010.04.01 12:03:36.
