data_PCOD8327008
_publ_section_title
;
Structure prediction by ZEFSAII (Michael W. Deem and Ramdas Pophale) SiO2 
 PCOD8327008
Probable space group: P -6 M 2
;
_chemical_formula_sum "Si O2"
_cell_formula_units_Z 78
_cell_length_a 17.267057
_cell_length_b 17.267057
_cell_length_c 18.947934
_cell_angle_alpha 90.000000
_cell_angle_beta 90.000000
_cell_angle_gamma 120.000000
_cell_volume 4892.480916
_symmetry_space_group_name_H-M "P -6 M 2"
_symmetry_group_IT_number 187
_symmetry_cell_setting 'hexagonal'
loop_
_space_group_symop_operation_xyz
x,y,z
-x+y,-x,-z
-y,x-y,z
x,y,-z
-x+y,-x,z
-y,x-y,-z
-y,-x,-z
-x+y,y,-z
x,x-y,-z
-x+y,y,z
x,x-y,z
-y,-x,z
loop_
_atom_site_type_symbol
_atom_site_label
_atom_site_fract_x
_atom_site_fract_y
_atom_site_fract_z
Si Si1 0.935311 0.245528 0.420178
Si Si2 0.486771 0.153636 0.080190
Si Si3 0.509120 0.843862 0.651753
Si Si4 0.487786 0.332212 0.659244
Si Si5 0.239275 0.301682 0.292756
Si Si6 0.726193 0.631477 0.207414
Si Si7 0.505974 0.840334 0.500000
O O1 0.973536 0.267240 0.500000
O O2 0.856668 0.143333 0.413422
O O3 0.896560 0.310620 0.400790
O O4 0.012608 0.257905 0.366258
O O5 0.574306 0.148612 0.098693
O O6 0.510748 0.255374 0.093312
O O7 0.405955 0.087056 0.131235
O O8 0.455394 0.123534 0.000000
O O9 0.426138 0.852276 0.681392
O O10 0.478336 0.739168 0.643145
O O11 0.590950 0.892004 0.704949
O O12 0.541511 0.893597 0.574373
O O13 0.522065 0.261032 0.657341
O O14 0.569957 0.430044 0.644954
O O15 0.444443 0.329806 0.734867
O O16 0.136091 0.272182 0.279477
O O17 0.276636 0.272195 0.226243
O O18 0.828619 0.657238 0.207746
O O19 0.398159 0.796317 0.500000
O O20 0.536853 0.768427 0.500000
#
# Coordination Sequence:
#
# PCOD8327008 Si02
#       7
#    12  12  12  12  12  12   6
#     4   9  19  34  47  59  81 111 141 179 235 289
#     4   9  16  26  44  73 107 139 165 184 200 226
#     4   9  17  27  39  56  80 108 137 170 212 257
#     4   9  16  26  41  62  88 122 159 188 212 246
#     4  10  20  31  47  66  81 105 144 189 229 270
#     4   9  18  32  47  63  90 122 148 179 225 275
#     4   8  13  22  34  48  69  96 126 160 202 252
#
# _framework density 15.942831999999999
#
# number of rings (size 3 to 8) (size 9 to 14) (size 15 to 20)
#    0.000    2.923    0.000    2.385    1.077    5.538 
#    0.000    1.538    0.000    3.846    0.000    0.000 
#    0.000    0.000    0.000    0.000    0.000    0.000 
#
# Total GULP energy -966737.012275 kJ/mol
# GULP energy per Si atom -12394.064260 kJ/mol
# Density = 1.590655 g / cm^3
# Si number density = 15.942832 Si / 1000 Ang^3
#
#
#
# Elastic Constant Matrix: (Units=GPa)
#
#
# Indices 1 2 3 4 5 6 
#
# 1 73.2041 39.8737 41.6517 0.0000 -0.0001 0.0000
# 2 39.8737 73.2041 41.6517 0.0000 0.0001 0.0000
# 3 41.6517 41.6517 94.3387 0.0000 0.0000 0.0000
# 4 0.0000 0.0000 0.0000 18.7137 0.0000 0.0001
# 5 -0.0001 0.0001 0.0000 0.0000 18.7137 0.0000
# 6 0.0000 0.0000 0.0000 0.0001 0.0000 16.6652
#
#
#
# Elastic Compliance Matrix: (Units=1/GPa)
#
#
# Indices 1 2 3 4 5 6 
#
# 1 0.021555 -0.008448 -0.005787 0.000000 0.000000 0.000000
# 2 -0.008448 0.021555 -0.005787 0.000000 0.000000 0.000000
# 3 -0.005787 -0.005787 0.015710 0.000000 0.000000 0.000000
# 4 0.000000 0.000000 0.000000 0.053437 0.000000 0.000000
# 5 0.000000 0.000000 0.000000 0.000000 0.053437 0.000000
# 6 0.000000 0.000000 0.000000 0.000000 0.000000 0.060005
#
#
# Mechanical properties :
#
#
# Convention : Reuss Voigt Hill
#
# Bulk Modulus (GPa) = 53.25912 54.12234 53.69073
# Shear Modulus (GPa) = 18.38239 18.65650 18.51944
#
# Velocity S-wave (km/s) = 3.39930 3.42455 3.41195
# Velocity P-wave (km/s) = 6.99184 7.04685 7.01940
#
# Compressibility (1/GPa) = 0.01877613
#
# Stress axis : x y z
#
# Youngs Moduli (GPa) = 46.39391 46.39391 63.65421
#
# Poissons Ratio (x) = 0.39194 0.36835
# Poissons Ratio (y) = 0.39194 0.36835
# Poissons Ratio (z) = 0.26847 0.26847
#
# Static dielectric constant tensor:
#      x y z
#    x 2.901360 0.000000 0.000000 
#    y 0.000000 2.901360 0.000000 
#    z 0.000000 0.000000 3.048610 
# 
# 
# High freq. dielectric constant tensor:
#      x y z
#    x 1.598150 0.000000 0.000000 
#    y 0.000000 1.598150 0.000000 
#    z 0.000000 0.000000 1.589220 
# 
# From -- ./inp_files/3193.got.cif
#   From: 2010.03.12/outbox.cif.g09.slc.cpg/sg187_2_cif.got.tgz:3193.got - 2010.04.01 11:58:23.
