data_PCOD8327267
_publ_section_title
;
Structure prediction by ZEFSAII (Michael W. Deem and Ramdas Pophale) SiO2 
 PCOD8327267
Probable space group: P -6 M 2
;
_chemical_formula_sum "Si O2"
_cell_formula_units_Z 84
_cell_length_a 18.475576
_cell_length_b 18.475576
_cell_length_c 14.040706
_cell_angle_alpha 90.000000
_cell_angle_beta 90.000000
_cell_angle_gamma 120.000000
_cell_volume 4150.644628
_symmetry_space_group_name_H-M "P -6 M 2"
_symmetry_group_IT_number 187
_symmetry_cell_setting 'hexagonal'
loop_
_space_group_symop_operation_xyz
x,y,z
-x+y,-x,-z
-y,x-y,z
x,y,-z
-x+y,-x,z
-y,x-y,-z
-y,-x,-z
-x+y,y,-z
x,x-y,-z
-x+y,y,z
x,x-y,z
-y,-x,z
loop_
_atom_site_type_symbol
_atom_site_label
_atom_site_fract_x
_atom_site_fract_y
_atom_site_fract_z
Si Si1 0.333883 0.824806 0.888088
Si Si2 0.838415 0.837386 0.612081
Si Si3 0.832147 0.502074 0.194250
Si Si4 0.243512 0.320983 0.273200
Si Si5 0.641257 0.522810 0.601946
Si Si6 0.645414 0.000220 0.890295
Si Si7 0.078955 0.620740 0.392226
O O1 0.401453 0.802906 0.844373
O O2 0.240984 0.759017 0.846650
O O3 0.366380 0.921386 0.865140
O O4 0.330517 0.813295 0.000000
O O5 0.834365 0.828212 0.500000
O O6 0.910869 0.821738 0.653803
O O7 0.747981 0.768293 0.649415
O O8 0.859792 0.929896 0.643002
O O9 0.750289 0.500577 0.150930
O O10 0.819494 0.409747 0.190463
O O11 0.841793 0.536926 0.302815
O O12 0.913063 0.561718 0.131417
O O13 0.156760 0.313519 0.242452
O O14 0.279734 0.296333 0.180987
O O15 0.302395 0.414044 0.318084
O O16 0.691866 0.547366 0.500000
O O17 0.574828 0.425173 0.596601
O O18 0.594539 0.574523 0.613725
O O19 0.671085 0.999963 0.000000
O O20 0.109645 0.653175 0.500000
O O21 0.109258 0.554629 0.362939
#
# Coordination Sequence:
#
# PCOD8327267 Si02
#       7
#    12  12  12  12  12  12  12
#     4   9  17  31  54  83 110 135 169 219 279 340
#     4   9  18  34  58  89 123 153 179 215 274 348
#     4  11  23  40  62  88 117 150 192 242 294 348
#     4  11  22  36  58  87 117 148 192 246 291 335
#     4   8  15  31  56  84 114 149 186 224 273 337
#     4  11  24  41  58  76 108 154 200 243 294 353
#     4   9  17  32  55  83 118 159 197 230 274 340
#
# _framework density 20.237821
#
# number of rings (size 3 to 8) (size 9 to 14) (size 15 to 20)
#    0.000    2.286    1.429    2.571    0.000    5.429 
#    0.000    0.000    0.000    2.000    0.000    0.000 
#    0.000    1.143    0.000    0.000    0.000    0.000 
#
# Total GULP energy -1040664.302892 kJ/mol
# GULP energy per Si atom -12388.860749 kJ/mol
# Density = 2.019176 g / cm^3
# Si number density = 20.237821 Si / 1000 Ang^3
#
#
#
# Elastic Constant Matrix: (Units=GPa)
#
#
# Indices 1 2 3 4 5 6 
#
# 1 99.4919 49.3643 32.5732 0.0000 -0.0006 0.0000
# 2 49.3643 99.4919 32.5732 0.0000 0.0006 0.0000
# 3 32.5732 32.5732 83.4003 0.0000 0.0000 0.0000
# 4 0.0000 0.0000 0.0000 9.8049 0.0000 0.0006
# 5 -0.0006 0.0006 0.0000 0.0000 9.8049 0.0000
# 6 0.0000 0.0000 0.0000 0.0006 0.0000 25.0638
#
#
#
# Elastic Compliance Matrix: (Units=1/GPa)
#
#
# Indices 1 2 3 4 5 6 
#
# 1 0.014026 -0.005923 -0.003165 0.000000 0.000001 0.000000
# 2 -0.005923 0.014026 -0.003165 0.000000 -0.000001 0.000000
# 3 -0.003165 -0.003165 0.014462 0.000000 0.000000 0.000000
# 4 0.000000 0.000000 0.000000 0.101990 0.000000 -0.000003
# 5 0.000001 -0.000001 0.000000 0.000000 0.101990 0.000000
# 6 0.000000 0.000000 0.000000 -0.000003 0.000000 0.039898
#
#
# Mechanical properties :
#
#
# Convention : Reuss Voigt Hill
#
# Bulk Modulus (GPa) = 55.52658 56.82285 56.17472
# Shear Modulus (GPa) = 15.77779 20.12626 17.95202
#
# Velocity S-wave (km/s) = 2.79520 3.15697 2.98157
# Velocity P-wave (km/s) = 6.15744 6.43639 6.29846
#
# Compressibility (1/GPa) = 0.01800939
#
# Stress axis : x y z
#
# Youngs Moduli (GPa) = 71.29610 71.29610 69.14474
#
# Poissons Ratio (x) = 0.42229 0.21882
# Poissons Ratio (y) = 0.42229 0.21882
# Poissons Ratio (z) = 0.22563 0.22563
#
# Static dielectric constant tensor:
#      x y z
#    x 3.646930 0.000000 0.000000 
#    y 0.000000 3.646930 0.000000 
#    z 0.000000 0.000000 3.890720 
# 
# 
# High freq. dielectric constant tensor:
#      x y z
#    x 1.774700 0.000000 0.000000 
#    y 0.000000 1.774700 0.000000 
#    z 0.000000 0.000000 1.786910 
# 
# From -- ./inp_files/2601.got.cif
#   From: 2010.03.12/outbox.cif.g09.slc.cpg/sg187_2_cif.got.tgz:2601.got - 2010.04.01 11:58:23.
