data_PCOD8327039
_publ_section_title
;
Structure prediction by ZEFSAII (Michael W. Deem and Ramdas Pophale) SiO2 
 PCOD8327039
Probable space group: P -6 M 2
;
_chemical_formula_sum "Si O2"
_cell_formula_units_Z 66
_cell_length_a 12.797595
_cell_length_b 12.797595
_cell_length_c 27.727902
_cell_angle_alpha 90.000000
_cell_angle_beta 90.000000
_cell_angle_gamma 120.000000
_cell_volume 3932.822686
_symmetry_space_group_name_H-M "P -6 M 2"
_symmetry_group_IT_number 187
_symmetry_cell_setting 'hexagonal'
loop_
_space_group_symop_operation_xyz
x,y,z
-x+y,-x,-z
-y,x-y,z
x,y,-z
-x+y,-x,z
-y,x-y,-z
-y,-x,-z
-x+y,y,-z
x,x-y,-z
-x+y,y,z
x,x-y,z
-y,-x,z
loop_
_atom_site_type_symbol
_atom_site_label
_atom_site_fract_x
_atom_site_fract_y
_atom_site_fract_z
Si Si1 0.756075 0.757079 0.500000
Si Si2 0.239847 0.000053 0.944941
Si Si3 0.573223 0.666697 0.582618
Si Si4 0.089084 0.422802 0.862531
Si Si5 0.574158 0.666779 0.307549
Si Si6 0.911256 0.334902 0.775099
O O1 0.792271 0.896136 0.500000
O O2 0.682281 0.690648 0.547844
O O3 0.873859 0.747717 0.500000
O O4 0.100321 0.899680 0.937900
O O5 0.325325 0.971653 0.912001
O O6 0.254657 0.127329 0.929440
O O7 0.280935 0.002927 0.000000
O O8 0.534159 0.767080 0.575239
O O9 0.460455 0.539546 0.568283
O O10 0.615008 0.667977 0.637471
O O11 0.213126 0.426252 0.851380
O O12 0.116753 0.558377 0.867830
O O13 0.998846 0.353097 0.819212
O O14 0.587761 0.793881 0.292477
O O15 0.434537 0.565464 0.300201
O O16 0.659969 0.639406 0.274336
O O17 0.871553 0.435777 0.775445
O O18 0.794670 0.205331 0.779695
#
# Coordination Sequence:
#
# PCOD8327039 Si02
#       6
#     6  12  12  12  12  12
#     4  10  20  32  46  64  90 126 164 198 232 276
#     4   9  17  30  49  72  97 126 160 196 233 275
#     4   9  17  30  50  75  98 120 150 192 240 283
#     4  10  20  33  50  72  97 125 157 195 240 287
#     4   9  17  30  50  75 100 124 151 187 233 283
#     4  10  20  33  49  68  92 124 161 198 233 273
#
# _framework density 16.781839000000002
#
# number of rings (size 3 to 8) (size 9 to 14) (size 15 to 20)
#    0.000    2.545    0.000    2.364    0.000    3.273 
#    0.000    2.727    0.000    6.909    0.000    0.000 
#    0.000    0.000    0.000    0.000    0.000    0.000 
#
# Total GULP energy -818528.661088 kJ/mol
# GULP energy per Si atom -12401.949410 kJ/mol
# Density = 1.674364 g / cm^3
# Si number density = 16.781839 Si / 1000 Ang^3
#
#
#
# Elastic Constant Matrix: (Units=GPa)
#
#
# Indices 1 2 3 4 5 6 
#
# 1 118.0811 72.5825 67.6300 0.0000 0.0001 0.0000
# 2 72.5825 118.0811 67.6300 0.0000 -0.0001 0.0000
# 3 67.6300 67.6300 113.1422 0.0000 0.0000 0.0000
# 4 0.0000 0.0000 0.0000 23.7351 0.0000 -0.0001
# 5 0.0001 -0.0001 0.0000 0.0000 23.7351 0.0000
# 6 0.0000 0.0000 0.0000 -0.0001 0.0000 22.7493
#
#
#
# Elastic Compliance Matrix: (Units=1/GPa)
#
#
# Indices 1 2 3 4 5 6 
#
# 1 0.015543 -0.006436 -0.005443 0.000000 0.000000 0.000000
# 2 -0.006436 0.015543 -0.005443 0.000000 0.000000 0.000000
# 3 -0.005443 -0.005443 0.015346 0.000000 0.000000 0.000000
# 4 0.000000 0.000000 0.000000 0.042132 0.000000 0.000000
# 5 0.000000 0.000000 0.000000 0.000000 0.042132 0.000000
# 6 0.000000 0.000000 0.000000 0.000000 0.000000 0.043957
#
#
# Mechanical properties :
#
#
# Convention : Reuss Voigt Hill
#
# Bulk Modulus (GPa) = 84.85032 84.99880 84.92456
# Shear Modulus (GPa) = 23.44934 23.47470 23.46202
#
# Velocity S-wave (km/s) = 3.74211 3.74413 3.74312
# Velocity P-wave (km/s) = 8.32717 8.33370 8.33044
#
# Compressibility (1/GPa) = 0.01178546
#
# Stress axis : x y z
#
# Youngs Moduli (GPa) = 64.33944 64.33944 65.16435
#
# Poissons Ratio (x) = 0.41410 0.35471
# Poissons Ratio (y) = 0.41410 0.35471
# Poissons Ratio (z) = 0.35022 0.35022
#
# Static dielectric constant tensor:
#      x y z
#    x 3.004240 0.000000 0.000000 
#    y 0.000000 3.004240 0.000000 
#    z 0.000000 0.000000 3.440040 
# 
# 
# High freq. dielectric constant tensor:
#      x y z
#    x 1.637890 0.000000 0.000000 
#    y 0.000000 1.637890 0.000000 
#    z 0.000000 0.000000 1.661870 
# 
# From -- ./inp_files/4418.got.cif
#   From: 2010.03.12/outbox.cif.g09.slc.cpg/sg187_3_cif.got.tgz:4418.got - 2010.04.01 11:58:23.
