data_PCOD8327060
_publ_section_title
;
Structure prediction by ZEFSAII (Michael W. Deem and Ramdas Pophale) SiO2 
 PCOD8327060
Probable space group: P -6 M 2
;
_chemical_formula_sum "Si O2"
_cell_formula_units_Z 66
_cell_length_a 12.800678
_cell_length_b 12.800678
_cell_length_c 27.713793
_cell_angle_alpha 90.000000
_cell_angle_beta 90.000000
_cell_angle_gamma 120.000000
_cell_volume 3932.715652
_symmetry_space_group_name_H-M "P -6 M 2"
_symmetry_group_IT_number 187
_symmetry_cell_setting 'hexagonal'
loop_
_space_group_symop_operation_xyz
x,y,z
-x+y,-x,-z
-y,x-y,z
x,y,-z
-x+y,-x,z
-y,x-y,-z
-y,-x,-z
-x+y,y,-z
x,x-y,-z
-x+y,y,z
x,x-y,z
-y,-x,z
loop_
_atom_site_type_symbol
_atom_site_label
_atom_site_fract_x
_atom_site_fract_y
_atom_site_fract_z
Si Si1 0.088966 0.423048 0.500000
Si Si2 0.239683 0.999937 0.055093
Si Si3 0.910722 0.333774 0.862557
Si Si4 0.088755 0.423576 0.225014
Si Si5 0.426611 0.093077 0.417586
Si Si6 0.907866 0.574139 0.692619
O O1 0.208851 0.417701 0.500000
O O2 0.122283 0.561142 0.500000
O O3 0.015842 0.355294 0.452117
O O4 0.127329 0.872672 0.070668
O O5 0.200437 0.100219 0.062106
O O6 0.353666 0.028552 0.088000
O O7 0.277758 0.996926 0.000000
O O8 0.882506 0.441253 0.868146
O O9 0.787040 0.212961 0.851184
O O10 0.001319 0.355319 0.819265
O O11 0.205696 0.411392 0.219936
O O12 0.128053 0.564027 0.225567
O O13 0.020617 0.358614 0.274300
O O14 0.564897 0.129793 0.426143
O O15 0.414480 0.207240 0.431553
O O16 0.387300 0.052508 0.362544
O O17 0.793348 0.586695 0.706684
O O18 0.871144 0.435572 0.701699
#
# Coordination Sequence:
#
# PCOD8327060 Si02
#       6
#     6  12  12  12  12  12
#     4  10  20  32  46  66  94 128 162 194 230 274
#     4   9  17  30  49  72  97 126 160 196 232 272
#     4  10  20  33  50  72  97 125 157 195 240 287
#     4  10  20  33  49  69  94 125 160 196 233 275
#     4   9  17  30  50  75  98 120 150 192 240 283
#     4   9  17  30  50  75 100 124 151 187 233 283
#
# _framework density 16.782295999999999
#
# number of rings (size 3 to 8) (size 9 to 14) (size 15 to 20)
#    0.000    2.545    0.000    2.364    0.000    3.273 
#    0.000    2.727    0.000    9.091    0.000    0.000 
#    0.000    0.000    0.000    0.000    0.000    0.000 
#
# Total GULP energy -818515.042058 kJ/mol
# GULP energy per Si atom -12401.743061 kJ/mol
# Density = 1.674410 g / cm^3
# Si number density = 16.782296 Si / 1000 Ang^3
#
#
#
# Elastic Constant Matrix: (Units=GPa)
#
#
# Indices 1 2 3 4 5 6 
#
# 1 116.9526 70.1157 66.7699 0.0000 0.0001 0.0000
# 2 70.1157 116.9526 66.7699 0.0000 -0.0001 0.0000
# 3 66.7699 66.7699 109.7385 0.0000 0.0000 0.0000
# 4 0.0000 0.0000 0.0000 25.1549 0.0000 -0.0001
# 5 0.0001 -0.0001 0.0000 0.0000 25.1549 0.0000
# 6 0.0000 0.0000 0.0000 -0.0001 0.0000 23.4185
#
#
#
# Elastic Compliance Matrix: (Units=1/GPa)
#
#
# Indices 1 2 3 4 5 6 
#
# 1 0.015400 -0.005950 -0.005750 0.000000 0.000000 0.000000
# 2 -0.005950 0.015400 -0.005750 0.000000 0.000000 0.000000
# 3 -0.005750 -0.005750 0.016110 0.000000 0.000000 0.000000
# 4 0.000000 0.000000 0.000000 0.039754 0.000000 0.000000
# 5 0.000000 0.000000 0.000000 0.000000 0.039754 0.000000
# 6 0.000000 0.000000 0.000000 0.000000 0.000000 0.042701
#
#
# Mechanical properties :
#
#
# Convention : Reuss Voigt Hill
#
# Bulk Modulus (GPa) = 83.26173 83.43941 83.35057
# Shear Modulus (GPa) = 24.03579 24.07821 24.05700
#
# Velocity S-wave (km/s) = 3.78856 3.79190 3.79023
# Velocity P-wave (km/s) = 8.29808 8.30651 8.30229
#
# Compressibility (1/GPa) = 0.01201032
#
# Stress axis : x y z
#
# Youngs Moduli (GPa) = 64.93302 64.93302 62.07445
#
# Poissons Ratio (x) = 0.38636 0.35693
# Poissons Ratio (y) = 0.38636 0.35693
# Poissons Ratio (z) = 0.37336 0.37336
#
# Static dielectric constant tensor:
#      x y z
#    x 3.012430 0.000000 0.000000 
#    y 0.000000 3.012430 0.000000 
#    z 0.000000 0.000000 3.434560 
# 
# 
# High freq. dielectric constant tensor:
#      x y z
#    x 1.637340 0.000000 0.000000 
#    y 0.000000 1.637340 0.000000 
#    z 0.000000 0.000000 1.662190 
# 
# From -- ./inp_files/4398.got.cif
#   From: 2010.03.12/outbox.cif.g09.slc.cpg/sg187_3_cif.got.tgz:4398.got - 2010.04.01 11:58:23.
