data_PCOD8327761
_publ_section_title
;
Structure prediction by ZEFSAII (Michael W. Deem and Ramdas Pophale) SiO2 
 PCOD8327761
Probable space group: P -6 2 M
;
_chemical_formula_sum "Si O2"
_cell_formula_units_Z 48
_cell_length_a 18.187371
_cell_length_b 18.187371
_cell_length_c 9.232863
_cell_angle_alpha 90.000000
_cell_angle_beta 90.000000
_cell_angle_gamma 120.000000
_cell_volume 2644.885496
_symmetry_space_group_name_H-M "P -6 2 M"
_symmetry_group_IT_number 189
_symmetry_cell_setting 'hexagonal'
loop_
_space_group_symop_operation_xyz
x,y,z
-x+y,-x,-z
-y,x-y,z
x,y,-z
-x+y,-x,z
-y,x-y,-z
x-y,-y,-z
-x,-x+y,-z
y,x,-z
y,x,z
x-y,-y,z
-x,-x+y,z
loop_
_atom_site_type_symbol
_atom_site_label
_atom_site_fract_x
_atom_site_fract_y
_atom_site_fract_z
Si Si1 0.000000 0.906360 0.340084
Si Si2 0.229184 0.398353 0.830409
Si Si3 0.762757 0.000000 0.829395
Si Si4 0.098179 0.434621 0.330290
Si Si5 0.419935 0.517309 0.835034
O O1 0.000000 0.869156 0.500000
O O2 0.000000 0.847467 0.214167
O O3 0.916466 0.916466 0.324311
O O4 0.233270 0.317721 0.768215
O O5 0.155981 0.402639 0.743802
O O6 0.320866 0.480805 0.801648
O O7 0.206481 0.388712 0.000000
O O8 0.754925 0.000000 0.000000
O O9 0.115692 0.443055 0.500000
O O10 0.123452 0.527161 0.270134
O O11 0.000000 0.368026 0.294043
O O12 0.443278 0.443278 0.809970
O O13 0.440948 0.550267 0.000000
#
# Coordination Sequence:
#
# PCOD8327761 Si02
#       5
#     6  12   6  12  12
#     4   8  18  36  52  70 105 152 191 224 271 328
#     4  10  20  36  58  85 112 142 182 227 276 328
#     4  10  20  34  56  86 113 138 183 238 277 320
#     4  10  22  38  55  80 114 148 183 224 269 322
#     4   9  17  35  61  82 105 140 180 225 273 324
#
# _framework density 18.148233000000001
#
# number of rings (size 3 to 8) (size 9 to 14) (size 15 to 20)
#    0.250    2.250    1.250    0.750    0.000    5.000 
#    1.500    5.000    0.000    0.000    0.000    0.000 
#    0.000    0.000    0.000    0.000    0.000    0.000 
#
# Total GULP energy -595139.324013 kJ/mol
# GULP energy per Si atom -12398.735917 kJ/mol
# Density = 1.810693 g / cm^3
# Si number density = 18.148233 Si / 1000 Ang^3
#
#
#
# Elastic Constant Matrix: (Units=GPa)
#
#
# Indices 1 2 3 4 5 6 
#
# 1 117.4089 65.5487 58.5040 0.0000 0.0000 0.0000
# 2 65.5487 117.4089 58.5040 0.0000 0.0000 0.0000
# 3 58.5040 58.5040 73.6400 0.0000 0.0000 0.0000
# 4 0.0000 0.0000 0.0000 22.3645 0.0000 0.0000
# 5 0.0000 0.0000 0.0000 0.0000 22.3645 0.0000
# 6 0.0000 0.0000 0.0000 0.0000 0.0000 25.9301
#
#
#
# Elastic Compliance Matrix: (Units=1/GPa)
#
#
# Indices 1 2 3 4 5 6 
#
# 1 0.015197 -0.004086 -0.008827 0.000000 0.000000 0.000000
# 2 -0.004086 0.015197 -0.008827 0.000000 0.000000 0.000000
# 3 -0.008827 -0.008827 0.027606 0.000000 0.000000 0.000000
# 4 0.000000 0.000000 0.000000 0.044714 0.000000 0.000000
# 5 0.000000 0.000000 0.000000 0.000000 0.044714 0.000000
# 6 0.000000 0.000000 0.000000 0.000000 0.000000 0.038565
#
#
# Mechanical properties :
#
#
# Convention : Reuss Voigt Hill
#
# Bulk Modulus (GPa) = 68.87812 74.84127 71.85970
# Shear Modulus (GPa) = 21.33902 22.52521 21.93211
#
# Velocity S-wave (km/s) = 3.43274 3.52686 3.48012
# Velocity P-wave (km/s) = 7.33124 7.61008 7.47196
#
# Compressibility (1/GPa) = 0.01451840
#
# Stress axis : x y z
#
# Youngs Moduli (GPa) = 65.80295 65.80295 36.22461
#
# Poissons Ratio (x) = 0.26885 0.31977
# Poissons Ratio (y) = 0.26885 0.31977
# Poissons Ratio (z) = 0.58087 0.58087
#
# Static dielectric constant tensor:
#      x y z
#    x 3.288210 0.000000 0.000000 
#    y 0.000000 3.288210 0.000000 
#    z 0.000000 0.000000 3.233100 
# 
# 
# High freq. dielectric constant tensor:
#      x y z
#    x 1.699470 0.000000 0.000000 
#    y 0.000000 1.699470 0.000000 
#    z 0.000000 0.000000 1.696690 
# 
# From -- ./inp_files/661.got.cif
#   From: 2010.03.12/outbox.cif.g09.slc.cpg/sg189_1_cif.got.tgz:661.got - 2010.04.01 12:03:36.
