data_PCOD8327144
_publ_section_title
;
Structure prediction by ZEFSAII (Michael W. Deem and Ramdas Pophale) SiO2 
 PCOD8327144
Probable space group: P -6 M 2
;
_chemical_formula_sum "Si O2"
_cell_formula_units_Z 66
_cell_length_a 12.737477
_cell_length_b 12.737477
_cell_length_c 27.962084
_cell_angle_alpha 90.000000
_cell_angle_beta 90.000000
_cell_angle_gamma 120.000000
_cell_volume 3928.863979
_symmetry_space_group_name_H-M "P -6 M 2"
_symmetry_group_IT_number 187
_symmetry_cell_setting 'hexagonal'
loop_
_space_group_symop_operation_xyz
x,y,z
-x+y,-x,-z
-y,x-y,z
x,y,-z
-x+y,-x,z
-y,x-y,-z
-y,-x,-z
-x+y,y,-z
x,x-y,-z
-x+y,y,z
x,x-y,z
-y,-x,z
loop_
_atom_site_type_symbol
_atom_site_label
_atom_site_fract_x
_atom_site_fract_y
_atom_site_fract_z
Si Si1 0.419584 0.331000 0.500000
Si Si2 0.245880 0.999467 0.411806
Si Si3 0.667528 0.090538 0.132134
Si Si4 0.089108 0.667109 0.676195
Si Si5 0.088951 0.667007 0.946756
Si Si6 0.424613 0.091082 0.239964
O O1 0.537402 0.462599 0.500000
O O2 0.460803 0.230402 0.500000
O O3 0.339348 0.317277 0.546006
O O4 0.117836 0.882165 0.424271
O O5 0.303643 0.981206 0.364124
O O6 0.224467 0.112234 0.404810
O O7 0.552015 0.104029 0.122873
O O8 0.780464 0.219537 0.122001
O O9 0.669793 0.046726 0.186158
O O10 0.670620 0.998426 0.093597
O O11 0.087157 0.543579 0.662866
O O12 0.227373 0.772628 0.681330
O O13 0.021499 0.656553 0.725869
O O14 0.106485 0.553243 0.938316
O O15 0.217979 0.782022 0.939449
O O16 0.036947 0.664139 0.000000
O O17 0.566174 0.132348 0.244268
O O18 0.410698 0.205349 0.254755
#
# Coordination Sequence:
#
# PCOD8327144 Si02
#       6
#     6  12  12  12  12  12
#     4  10  20  34  52  74 100 128 158 194 238 286
#     4  10  20  34  53  75  99 128 163 203 242 280
#     4   9  17  29  46  68  93 119 147 183 229 279
#     4  10  20  33  49  70  98 130 161 194 234 281
#     4   9  17  29  45  65  89 118 152 189 228 270
#     4   9  17  30  48  69  92 119 152 190 232 277
#
# _framework density 16.798749000000001
#
# number of rings (size 3 to 8) (size 9 to 14) (size 15 to 20)
#    0.000    2.545    0.000    2.364    0.000    3.273 
#    0.000    0.909    0.000   12.364    0.000    0.000 
#    0.000    0.000    0.000    0.000    0.000    0.000 
#
# Total GULP energy -818353.451974 kJ/mol
# GULP energy per Si atom -12399.294727 kJ/mol
# Density = 1.676051 g / cm^3
# Si number density = 16.798749 Si / 1000 Ang^3
#
#
#
# Elastic Constant Matrix: (Units=GPa)
#
#
# Indices 1 2 3 4 5 6 
#
# 1 92.4445 42.1609 54.6210 0.0000 0.0002 0.0000
# 2 42.1609 92.4445 54.6210 0.0000 -0.0002 0.0000
# 3 54.6210 54.6210 110.0690 0.0000 0.0000 0.0000
# 4 0.0000 0.0000 0.0000 28.2223 0.0000 -0.0002
# 5 0.0002 -0.0002 0.0000 0.0000 28.2223 0.0000
# 6 0.0000 0.0000 0.0000 -0.0002 0.0000 25.1418
#
#
#
# Elastic Compliance Matrix: (Units=1/GPa)
#
#
# Indices 1 2 3 4 5 6 
#
# 1 0.016163 -0.003724 -0.006173 0.000000 0.000000 0.000000
# 2 -0.003724 0.016163 -0.006173 0.000000 0.000000 0.000000
# 3 -0.006173 -0.006173 0.015211 0.000000 0.000000 0.000000
# 4 0.000000 0.000000 0.000000 0.035433 0.000000 0.000000
# 5 0.000000 0.000000 0.000000 0.000000 0.035433 0.000000
# 6 0.000000 0.000000 0.000000 0.000000 0.000000 0.039774
#
#
# Mechanical properties :
#
#
# Convention : Reuss Voigt Hill
#
# Bulk Modulus (GPa) = 64.94211 66.41818 65.68014
# Shear Modulus (GPa) = 25.58210 25.88763 25.73486
#
# Velocity S-wave (km/s) = 3.90661 3.92987 3.91826
# Velocity P-wave (km/s) = 7.68711 7.75985 7.72357
#
# Compressibility (1/GPa) = 0.01539833
#
# Stress axis : x y z
#
# Youngs Moduli (GPa) = 61.87012 61.87012 65.74012
#
# Poissons Ratio (x) = 0.23042 0.40579
# Poissons Ratio (y) = 0.23042 0.40579
# Poissons Ratio (z) = 0.38190 0.38190
#
# Static dielectric constant tensor:
#      x y z
#    x 3.088340 0.000000 0.000000 
#    y 0.000000 3.088340 0.000000 
#    z 0.000000 0.000000 3.430460 
# 
# 
# High freq. dielectric constant tensor:
#      x y z
#    x 1.642280 0.000000 0.000000 
#    y 0.000000 1.642280 0.000000 
#    z 0.000000 0.000000 1.661570 
# 
# From -- ./inp_files/4473.got.cif
#   From: 2010.03.12/outbox.cif.g09.slc.cpg/sg187_3_cif.got.tgz:4473.got - 2010.04.01 11:58:23.
