data_PCOD8327679
_publ_section_title
;
Structure prediction by ZEFSAII (Michael W. Deem and Ramdas Pophale) SiO2 
 PCOD8327679
Probable space group: P -6 2 M
;
_chemical_formula_sum "Si O2"
_cell_formula_units_Z 60
_cell_length_a 20.368921
_cell_length_b 20.368921
_cell_length_c 8.262379
_cell_angle_alpha 90.000000
_cell_angle_beta 90.000000
_cell_angle_gamma 120.000000
_cell_volume 2968.737455
_symmetry_space_group_name_H-M "P -6 2 M"
_symmetry_group_IT_number 189
_symmetry_cell_setting 'hexagonal'
loop_
_space_group_symop_operation_xyz
x,y,z
-x+y,-x,-z
-y,x-y,z
x,y,-z
-x+y,-x,z
-y,x-y,-z
x-y,-y,-z
-x,-x+y,-z
y,x,-z
y,x,z
x-y,-y,z
-x,-x+y,z
loop_
_atom_site_type_symbol
_atom_site_label
_atom_site_fract_x
_atom_site_fract_y
_atom_site_fract_z
Si Si1 0.167690 0.413977 0.693091
Si Si2 0.913879 0.156933 0.810370
Si Si3 0.854588 0.521807 0.688012
Si Si4 0.000000 0.803300 0.685758
Si Si5 0.582836 0.497017 0.306739
Si Si6 0.000000 0.663141 0.186127
O O1 0.164320 0.405559 0.500000
O O2 0.135190 0.331478 0.768370
O O3 0.254293 0.469833 0.754882
O O4 0.119960 0.451937 0.758015
O O5 0.882618 0.076113 0.721693
O O6 0.000000 0.211251 0.751306
O O7 0.910056 0.142418 0.000000
O O8 0.842177 0.505532 0.500000
O O9 0.864423 0.453517 0.763591
O O10 0.928673 0.600827 0.718774
O O11 0.000000 0.780399 0.500000
O O12 0.000000 0.741380 0.805183
O O13 0.582364 0.496052 0.500000
O O14 0.533019 0.533019 0.241855
O O15 0.000000 0.640510 0.000000
#
# Coordination Sequence:
#
# PCOD8327679 Si02
#       6
#    12  12  12   6  12   6
#     4  10  20  34  57  85 113 153 199 243 287 339
#     4  11  24  41  61  87 120 155 190 237 296 351
#     4  10  19  34  56  82 114 149 190 238 287 337
#     4  12  24  40  64  90 116 149 194 241 288 348
#     4   9  17  31  52  78 111 147 187 236 285 330
#     4  12  22  34  58  88 116 143 184 237 294 350
#
# _framework density 20.210612999999999
#
# number of rings (size 3 to 8) (size 9 to 14) (size 15 to 20)
#    0.000    1.600    3.000    3.000    0.000    2.400 
#    1.800    1.000    0.000    0.000    0.000    0.000 
#    0.000    0.000    0.000    0.000    0.000    0.000 
#
# Total GULP energy -743799.056629 kJ/mol
# GULP energy per Si atom -12396.650944 kJ/mol
# Density = 2.016461 g / cm^3
# Si number density = 20.210613 Si / 1000 Ang^3
#
#
#
# Elastic Constant Matrix: (Units=GPa)
#
#
# Indices 1 2 3 4 5 6 
#
# 1 143.9777 61.2380 17.8649 0.0000 0.0000 0.0000
# 2 61.2380 143.9777 17.8649 0.0000 0.0000 0.0000
# 3 17.8649 17.8649 23.1335 0.0000 0.0000 0.0000
# 4 0.0000 0.0000 0.0000 13.9054 0.0000 0.0000
# 5 0.0000 0.0000 0.0000 0.0000 13.9054 0.0000
# 6 0.0000 0.0000 0.0000 0.0000 0.0000 41.3699
#
#
#
# Elastic Compliance Matrix: (Units=1/GPa)
#
#
# Indices 1 2 3 4 5 6 
#
# 1 0.008858 -0.003228 -0.004348 0.000000 0.000000 0.000000
# 2 -0.003228 0.008858 -0.004348 0.000000 0.000000 0.000000
# 3 -0.004348 -0.004348 0.049942 0.000000 0.000000 0.000000
# 4 0.000000 0.000000 0.000000 0.071915 0.000000 0.000000
# 5 0.000000 0.000000 0.000000 0.000000 0.071915 0.000000
# 6 0.000000 0.000000 0.000000 0.000000 0.000000 0.024172
#
#
# Mechanical properties :
#
#
# Convention : Reuss Voigt Hill
#
# Bulk Modulus (GPa) = 22.82509 56.11381 39.46945
# Shear Modulus (GPa) = 18.24081 28.11088 23.17585
#
# Velocity S-wave (km/s) = 3.00748 3.73352 3.38999
# Velocity P-wave (km/s) = 4.83509 6.81251 5.90713
#
# Compressibility (1/GPa) = 0.04381144
#
# Stress axis : x y z
#
# Youngs Moduli (GPa) = 112.89247 112.89247 20.02306
#
# Poissons Ratio (x) = 0.36443 0.08705
# Poissons Ratio (y) = 0.36443 0.08705
# Poissons Ratio (z) = 0.49082 0.49082
#
# Static dielectric constant tensor:
#      x y z
#    x 3.943010 0.000000 0.000000 
#    y 0.000000 3.943010 0.000000 
#    z 0.000000 0.000000 3.324670 
# 
# 
# High freq. dielectric constant tensor:
#      x y z
#    x 1.793290 0.000000 0.000000 
#    y 0.000000 1.793290 0.000000 
#    z 0.000000 0.000000 1.759400 
# 
# From -- ./inp_files/913.got.cif
#   From: 2010.03.12/outbox.cif.g09.slc.cpg/sg189_1_cif.got.tgz:913.got - 2010.04.01 12:03:36.
