data_PCOD8327795
_publ_section_title
;
Structure prediction by ZEFSAII (Michael W. Deem and Ramdas Pophale) SiO2 
 PCOD8327795
Probable space group: P -6 2 M
;
_chemical_formula_sum "Si O2"
_cell_formula_units_Z 44
_cell_length_a 17.134406
_cell_length_b 17.134406
_cell_length_c 8.900585
_cell_angle_alpha 90.000000
_cell_angle_beta 90.000000
_cell_angle_gamma 120.000000
_cell_volume 2263.014259
_symmetry_space_group_name_H-M "P -6 2 M"
_symmetry_group_IT_number 189
_symmetry_cell_setting 'hexagonal'
loop_
_space_group_symop_operation_xyz
x,y,z
-x+y,-x,-z
-y,x-y,z
x,y,-z
-x+y,-x,z
-y,x-y,-z
x-y,-y,-z
-x,-x+y,-z
y,x,-z
y,x,z
x-y,-y,z
-x,-x+y,z
loop_
_atom_site_type_symbol
_atom_site_label
_atom_site_fract_x
_atom_site_fract_y
_atom_site_fract_z
Si Si1 0.647034 0.540789 0.670875
Si Si2 0.000000 0.821227 0.821264
Si Si3 0.610422 0.105475 0.165956
Si Si4 0.790048 0.149330 0.323018
Si Si5 0.000000 0.000000 0.177865
O O1 0.647615 0.511281 0.500000
O O2 0.599262 0.599262 0.686580
O O3 0.595841 0.448761 0.767174
O O4 0.748360 0.602934 0.729246
O O5 0.910968 0.734389 0.761303
O O6 0.000000 0.910732 0.763651
O O7 0.000000 0.815710 0.000000
O O8 0.689650 0.123082 0.278650
O O9 0.545517 0.000000 0.151723
O O10 0.646956 0.146786 0.000000
O O11 0.793749 0.135006 0.500000
O O12 0.000000 0.000000 0.000000
#
# Coordination Sequence:
#
# PCOD8327795 Si02
#       5
#    12   6  12  12   2
#     4   9  20  38  59  83 114 149 191 241 293 353
#     4  11  23  41  63  88 121 164 211 257 306 367
#     4  10  20  36  58  84 114 148 190 237 286 347
#     4  11  22  37  61  90 119 157 199 246 303 362
#     4   9  24  45  61  86 127 168 205 257 316 357
#
# _framework density 19.443095
#
# number of rings (size 3 to 8) (size 9 to 14) (size 15 to 20)
#    0.000    1.909    1.364    2.045    1.909    3.273 
#    1.636    2.045    0.000    0.000    0.000    0.000 
#    0.000    0.000    0.000    0.000    0.000    0.000 
#
# Total GULP energy -545603.825849 kJ/mol
# GULP energy per Si atom -12400.086951 kJ/mol
# Density = 1.939884 g / cm^3
# Si number density = 19.443095 Si / 1000 Ang^3
#
#
#
# Elastic Constant Matrix: (Units=GPa)
#
#
# Indices 1 2 3 4 5 6 
#
# 1 108.0830 50.6615 42.9710 0.0000 0.0000 0.0000
# 2 50.6615 108.0830 42.9710 0.0000 0.0000 0.0000
# 3 42.9710 42.9710 85.1623 0.0000 0.0000 0.0000
# 4 0.0000 0.0000 0.0000 -26.5672 0.0000 0.0000
# 5 0.0000 0.0000 0.0000 0.0000 -26.5672 0.0000
# 6 0.0000 0.0000 0.0000 0.0000 0.0000 28.7107
#
#
#
# Elastic Compliance Matrix: (Units=1/GPa)
#
#
# Indices 1 2 3 4 5 6 
#
# 1 0.013041 -0.004374 -0.004373 0.000000 0.000000 0.000000
# 2 -0.004374 0.013041 -0.004373 0.000000 0.000000 0.000000
# 3 -0.004373 -0.004373 0.016156 0.000000 0.000000 0.000000
# 4 0.000000 0.000000 0.000000 -0.037640 0.000000 0.000000
# 5 0.000000 0.000000 0.000000 0.000000 -0.037640 0.000000
# 6 0.000000 0.000000 0.000000 0.000000 0.000000 0.034830
#
#
# Mechanical properties :
#
#
# Convention : Reuss Voigt Hill
#
# Bulk Modulus (GPa) = 62.51252 63.83728 63.17490
# Shear Modulus (GPa) = 149.87959 6.09691 77.98825
#
# Velocity S-wave (km/s) = 8.78940 1.77273 6.34020
# Velocity P-wave (km/s) = 11.62868 6.09051 9.28225
#
# Compressibility (1/GPa) = 0.01599679
#
# Stress axis : x y z
#
# Youngs Moduli (GPa) = 76.68092 76.68092 61.89840
#
# Poissons Ratio (x) = 0.33541 0.27069
# Poissons Ratio (y) = 0.33541 0.27069
# Poissons Ratio (z) = 0.33534 0.33534
#
# Static dielectric constant tensor:
#      x y z
#    x 3.624790 0.000000 0.000000 
#    y 0.000000 3.624790 0.000000 
#    z 0.000000 0.000000 3.750060 
# 
# 
# High freq. dielectric constant tensor:
#      x y z
#    x 1.755620 0.000000 0.000000 
#    y 0.000000 1.755620 0.000000 
#    z 0.000000 0.000000 1.762570 
# 
# From -- ./inp_files/593.got.cif
#   From: 2010.03.12/outbox.cif.g09.slc.cpg/sg189_1_cif.got.tgz:593.got - 2010.04.01 12:03:36.
