data_PCOD8327180
_publ_section_title
;
Structure prediction by ZEFSAII (Michael W. Deem and Ramdas Pophale) SiO2 
 PCOD8327180
Probable space group: P -6 M 2
;
_chemical_formula_sum "Si O2"
_cell_formula_units_Z 54
_cell_length_a 12.496802
_cell_length_b 12.496802
_cell_length_c 22.945453
_cell_angle_alpha 90.000000
_cell_angle_beta 90.000000
_cell_angle_gamma 120.000000
_cell_volume 3103.309177
_symmetry_space_group_name_H-M "P -6 M 2"
_symmetry_group_IT_number 187
_symmetry_cell_setting 'hexagonal'
loop_
_space_group_symop_operation_xyz
x,y,z
-x+y,-x,-z
-y,x-y,z
x,y,-z
-x+y,-x,z
-y,x-y,-z
-y,-x,-z
-x+y,y,-z
x,x-y,-z
-x+y,y,z
x,x-y,z
-y,-x,z
loop_
_atom_site_type_symbol
_atom_site_label
_atom_site_fract_x
_atom_site_fract_y
_atom_site_fract_z
Si Si1 0.250795 0.000071 0.889637
Si Si2 0.912543 0.579593 0.433647
Si Si3 0.083557 0.415600 0.000000
Si Si4 0.248795 0.000892 0.329458
Si Si5 0.668193 0.084697 0.779491
O O1 0.239953 0.119977 0.900432
O O2 0.323125 0.008225 0.830929
O O3 0.324186 0.986345 0.943320
O O4 0.114006 0.885995 0.884211
O O5 0.954180 0.621768 0.500000
O O6 0.769520 0.539040 0.424236
O O7 0.927494 0.463747 0.416579
O O8 0.998917 0.694606 0.392540
O O9 0.225736 0.451471 0.000000
O O10 0.076393 0.538197 0.000000
O O11 0.130748 0.869253 0.318247
O O12 0.207873 0.103937 0.325724
O O13 0.351129 0.025366 0.281349
O O14 0.536155 0.072310 0.785844
O O15 0.771731 0.228270 0.782573
#
# Coordination Sequence:
#
# PCOD8327180 Si02
#       5
#    12  12   6  12  12
#     4  10  20  34  54  78 104 134 167 205 247 293
#     4   9  17  30  50  75 100 126 158 199 246 293
#     4  10  20  34  52  74 102 136 172 208 246 290
#     4  10  20  33  50  72  99 131 165 202 244 291
#     4  10  20  34  53  76 101 129 162 203 250 297
#
# _framework density 17.400779
#
# number of rings (size 3 to 8) (size 9 to 14) (size 15 to 20)
#    0.000    2.222    0.000    3.333    0.000    1.333 
#    0.000    5.556    0.000   13.778    0.000    0.000 
#    0.000    0.000    0.000    0.000    0.000    0.000 
#
# Total GULP energy -669780.880866 kJ/mol
# GULP energy per Si atom -12403.349646 kJ/mol
# Density = 1.736117 g / cm^3
# Si number density = 17.400779 Si / 1000 Ang^3
#
#
#
# Elastic Constant Matrix: (Units=GPa)
#
#
# Indices 1 2 3 4 5 6 
#
# 1 95.4620 55.7187 45.1524 0.0000 0.0002 0.0000
# 2 55.7187 95.4620 45.1524 0.0000 -0.0002 0.0000
# 3 45.1524 45.1524 108.0345 0.0000 0.0000 0.0000
# 4 0.0000 0.0000 0.0000 22.2162 0.0000 -0.0002
# 5 0.0002 -0.0002 0.0000 0.0000 22.2162 0.0000
# 6 0.0000 0.0000 0.0000 -0.0002 0.0000 19.8717
#
#
#
# Elastic Compliance Matrix: (Units=1/GPa)
#
#
# Indices 1 2 3 4 5 6 
#
# 1 0.016988 -0.008173 -0.003684 0.000000 0.000000 0.000000
# 2 -0.008173 0.016988 -0.003684 0.000000 0.000000 0.000000
# 3 -0.003684 -0.003684 0.012336 0.000000 0.000000 0.000000
# 4 0.000000 0.000000 0.000000 0.045012 0.000000 0.000001
# 5 0.000000 0.000000 0.000000 0.000000 0.045012 0.000000
# 6 0.000000 0.000000 0.000000 0.000001 0.000000 0.050323
#
#
# Mechanical properties :
#
#
# Convention : Reuss Voigt Hill
#
# Bulk Modulus (GPa) = 65.66250 65.66729 65.66489
# Shear Modulus (GPa) = 22.43964 23.05648 22.74806
#
# Velocity S-wave (km/s) = 3.59496 3.64404 3.61958
# Velocity P-wave (km/s) = 7.41950 7.45154 7.43554
#
# Compressibility (1/GPa) = 0.01522939
#
# Stress axis : x y z
#
# Youngs Moduli (GPa) = 58.86370 58.86370 81.06357
#
# Poissons Ratio (x) = 0.48109 0.29867
# Poissons Ratio (y) = 0.48109 0.29867
# Poissons Ratio (z) = 0.21687 0.21687
#
# Static dielectric constant tensor:
#      x y z
#    x 3.107710 0.000000 0.000000 
#    y 0.000000 3.107710 0.000000 
#    z 0.000000 0.000000 3.504990 
# 
# 
# High freq. dielectric constant tensor:
#      x y z
#    x 1.666640 0.000000 0.000000 
#    y 0.000000 1.666640 0.000000 
#    z 0.000000 0.000000 1.692180 
# 
# From -- ./inp_files/3849.got.cif
#   From: 2010.03.12/outbox.cif.g09.slc.cpg/sg187_2_cif.got.tgz:3849.got - 2010.04.01 11:58:23.
