data_PCOD8327659
_publ_section_title
;
Structure prediction by ZEFSAII (Michael W. Deem and Ramdas Pophale) SiO2 
 PCOD8327659
Probable space group: P -6 2 M
;
_chemical_formula_sum "Si O2"
_cell_formula_units_Z 60
_cell_length_a 20.915599
_cell_length_b 20.915599
_cell_length_c 8.564613
_cell_angle_alpha 90.000000
_cell_angle_beta 90.000000
_cell_angle_gamma 120.000000
_cell_volume 3244.733174
_symmetry_space_group_name_H-M "P -6 2 M"
_symmetry_group_IT_number 189
_symmetry_cell_setting 'hexagonal'
loop_
_space_group_symop_operation_xyz
x,y,z
-x+y,-x,-z
-y,x-y,z
x,y,-z
-x+y,-x,z
-y,x-y,-z
x-y,-y,-z
-x,-x+y,-z
y,x,-z
y,x,z
x-y,-y,z
-x,-x+y,z
loop_
_atom_site_type_symbol
_atom_site_label
_atom_site_fract_x
_atom_site_fract_y
_atom_site_fract_z
Si Si1 0.081388 0.700251 0.683990
Si Si2 0.810512 0.455726 0.683311
Si Si3 0.851818 0.214096 0.685420
Si Si4 0.000000 0.220690 0.686154
Si Si5 0.687376 0.480494 0.182939
Si Si6 0.920508 0.920508 0.683722
O O1 0.072563 0.699086 0.500000
O O2 0.118192 0.651301 0.732721
O O3 0.134348 0.784676 0.739409
O O4 0.000000 0.665656 0.762105
O O5 0.795160 0.454099 0.500000
O O6 0.825992 0.391148 0.731970
O O7 0.738679 0.446580 0.770972
O O8 0.850731 0.223133 0.500000
O O9 0.927607 0.221096 0.746262
O O10 0.843448 0.278704 0.764134
O O11 0.000000 0.217587 0.500000
O O12 0.000000 0.149296 0.762423
O O13 0.674164 0.473875 0.000000
O O14 0.909203 0.909203 0.500000
O O15 0.000000 0.927404 0.729034
#
# Coordination Sequence:
#
# PCOD8327659 Si02
#       6
#    12  12  12   6  12   6
#     4   8  15  29  49  74  98 124 164 211 255 298
#     4  10  19  33  54  76 102 131 168 212 257 305
#     4   9  18  32  50  72 101 136 177 217 255 306
#     4   9  16  28  47  71 101 142 181 212 255 317
#     4  11  21  34  51  74 104 135 172 211 259 309
#     4   7  12  22  38  69 111 138 159 208 275 321
#
# _framework density 18.491505
#
# number of rings (size 3 to 8) (size 9 to 14) (size 15 to 20)
#    0.200    2.600    0.000    4.000    0.000    0.800 
#    1.800    4.500    0.000   14.400    0.000    0.000 
#    0.000    2.400    0.000    0.000    0.000    0.000 
#
# Total GULP energy -743671.525137 kJ/mol
# GULP energy per Si atom -12394.525419 kJ/mol
# Density = 1.844942 g / cm^3
# Si number density = 18.491505 Si / 1000 Ang^3
#
#
#
# Elastic Constant Matrix: (Units=GPa)
#
#
# Indices 1 2 3 4 5 6 
#
# 1 140.7685 90.7162 8.2496 0.0000 0.0000 0.0000
# 2 90.7162 140.7685 8.2496 0.0000 0.0000 0.0000
# 3 8.2496 8.2496 23.8969 0.0000 0.0000 0.0000
# 4 0.0000 0.0000 0.0000 6.2759 0.0000 0.0000
# 5 0.0000 0.0000 0.0000 0.0000 6.2759 0.0000
# 6 0.0000 0.0000 0.0000 0.0000 0.0000 25.0262
#
#
#
# Elastic Compliance Matrix: (Units=1/GPa)
#
#
# Indices 1 2 3 4 5 6 
#
# 1 0.012204 -0.007775 -0.001529 0.000000 0.000000 0.000000
# 2 -0.007775 0.012204 -0.001529 0.000000 0.000000 0.000000
# 3 -0.001529 -0.001529 0.042902 0.000000 0.000000 0.000000
# 4 0.000000 0.000000 0.000000 0.159340 0.000000 0.000000
# 5 0.000000 0.000000 0.000000 0.000000 0.159340 0.000000
# 6 0.000000 0.000000 0.000000 0.000000 0.000000 0.039958
#
#
# Mechanical properties :
#
#
# Convention : Reuss Voigt Hill
#
# Bulk Modulus (GPa) = 21.90862 57.76274 39.83568
# Shear Modulus (GPa) = 10.80313 20.73017 15.76665
#
# Velocity S-wave (km/s) = 2.41969 3.35186 2.92317
# Velocity P-wave (km/s) = 4.43624 6.80333 5.74306
#
# Compressibility (1/GPa) = 0.04564413
#
# Stress axis : x y z
#
# Youngs Moduli (GPa) = 81.94035 81.94035 23.30894
#
# Poissons Ratio (x) = 0.63709 0.03564
# Poissons Ratio (y) = 0.63709 0.03564
# Poissons Ratio (z) = 0.12528 0.12528
#
# Static dielectric constant tensor:
#      x y z
#    x 3.603910 0.000000 0.000000 
#    y 0.000000 3.603910 0.000000 
#    z 0.000000 0.000000 2.975570 
# 
# 
# High freq. dielectric constant tensor:
#      x y z
#    x 1.717240 0.000000 0.000000 
#    y 0.000000 1.717240 0.000000 
#    z 0.000000 0.000000 1.678550 
# 
# From -- ./inp_files/972.got.cif
#   From: 2010.03.12/outbox.cif.g09.slc.cpg/sg189_1_cif.got.tgz:972.got - 2010.04.01 12:03:36.
