data_PCOD8327553
_publ_section_title
;
Structure prediction by ZEFSAII (Michael W. Deem and Ramdas Pophale) SiO2 
 PCOD8327553
Probable space group: P -6 2 M
;
_chemical_formula_sum "Si O2"
_cell_formula_units_Z 48
_cell_length_a 18.095127
_cell_length_b 18.095127
_cell_length_c 8.537097
_cell_angle_alpha 90.000000
_cell_angle_beta 90.000000
_cell_angle_gamma 120.000000
_cell_volume 2420.829030
_symmetry_space_group_name_H-M "P -6 2 M"
_symmetry_group_IT_number 189
_symmetry_cell_setting 'hexagonal'
loop_
_space_group_symop_operation_xyz
x,y,z
-x+y,-x,-z
-y,x-y,z
x,y,-z
-x+y,-x,z
-y,x-y,-z
x-y,-y,-z
-x,-x+y,-z
y,x,-z
y,x,z
x-y,-y,z
-x,-x+y,z
loop_
_atom_site_type_symbol
_atom_site_label
_atom_site_fract_x
_atom_site_fract_y
_atom_site_fract_z
Si Si1 0.000000 0.218947 0.318647
Si Si2 0.374304 0.000000 0.822792
Si Si3 0.476326 0.281041 0.681383
Si Si4 0.716169 0.902567 0.312574
Si Si5 0.535445 0.149498 0.682957
O O1 0.000000 0.200149 0.500000
O O2 0.000000 0.306770 0.297480
O O3 0.911476 0.142086 0.246709
O O4 0.465248 0.080556 0.793905
O O5 0.344287 0.000000 0.000000
O O6 0.462026 0.288387 0.500000
O O7 0.380863 0.232304 0.756525
O O8 0.530768 0.234665 0.709735
O O9 0.535703 0.376135 0.747124
O O10 0.713997 0.898123 0.500000
O O11 0.762631 0.000000 0.252651
O O12 0.520173 0.122558 0.500000
#
# Coordination Sequence:
#
# PCOD8327553 Si02
#       5
#     6   6  12  12  12
#     4  10  18  36  60  78 105 144 182 227 280 329
#     4  12  24  36  52  78 109 148 192 225 260 321
#     4   9  17  29  52  81 107 133 172 223 270 323
#     4   9  17  29  49  82 112 133 168 222 279 325
#     4  10  19  34  56  82 107 138 180 226 276 328
#
# _framework density 19.827919000000001
#
# number of rings (size 3 to 8) (size 9 to 14) (size 15 to 20)
#    0.000    2.250    2.500    1.625    1.750    2.000 
#    0.750    1.250    0.000    0.750    0.000    0.000 
#    0.000    0.000    0.000    0.000    0.000    0.000 
#
# Total GULP energy -594872.879634 kJ/mol
# GULP energy per Si atom -12393.184992 kJ/mol
# Density = 1.978279 g / cm^3
# Si number density = 19.827919 Si / 1000 Ang^3
#
#
#
# Elastic Constant Matrix: (Units=GPa)
#
#
# Indices 1 2 3 4 5 6 
#
# 1 139.7184 62.6936 1.2534 0.0000 0.0000 0.0000
# 2 62.6936 139.7184 1.2534 0.0000 0.0000 0.0000
# 3 1.2534 1.2534 13.6594 0.0000 0.0000 0.0000
# 4 0.0000 0.0000 0.0000 11.3649 0.0000 0.0000
# 5 0.0000 0.0000 0.0000 0.0000 11.3649 0.0000
# 6 0.0000 0.0000 0.0000 0.0000 0.0000 38.5124
#
#
#
# Elastic Compliance Matrix: (Units=1/GPa)
#
#
# Indices 1 2 3 4 5 6 
#
# 1 0.008964 -0.004018 -0.000454 0.000000 0.000000 0.000000
# 2 -0.004018 0.008964 -0.000454 0.000000 0.000000 0.000000
# 3 -0.000454 -0.000454 0.073293 0.000000 0.000000 0.000000
# 4 0.000000 0.000000 0.000000 0.087990 0.000000 0.000000
# 5 0.000000 0.000000 0.000000 0.000000 0.087990 0.000000
# 6 0.000000 0.000000 0.000000 0.000000 0.000000 0.025966
#
#
# Mechanical properties :
#
#
# Convention : Reuss Voigt Hill
#
# Bulk Modulus (GPa) = 12.28959 47.05520 29.67240
# Shear Modulus (GPa) = 15.14491 27.44147 21.29319
#
# Velocity S-wave (km/s) = 2.76672 3.72423 3.28060
# Velocity P-wave (km/s) = 4.05190 6.50203 5.41730
#
# Compressibility (1/GPa) = 0.08136969
#
# Stress axis : x y z
#
# Youngs Moduli (GPa) = 111.55188 111.55188 13.64387
#
# Poissons Ratio (x) = 0.44826 0.00619
# Poissons Ratio (y) = 0.44826 0.00619
# Poissons Ratio (z) = 0.05063 0.05063
#
# Static dielectric constant tensor:
#      x y z
#    x 3.796650 0.000000 0.000000 
#    y 0.000000 3.796650 0.000000 
#    z 0.000000 0.000000 2.912630 
# 
# 
# High freq. dielectric constant tensor:
#      x y z
#    x 1.783100 0.000000 0.000000 
#    y 0.000000 1.783100 0.000000 
#    z 0.000000 0.000000 1.700130 
# 
# From -- ./inp_files/628.got.cif
#   From: 2010.03.12/outbox.cif.g09.slc.cpg/sg189_1_cif.got.tgz:628.got - 2010.04.01 12:03:36.
