data_PCOD8327295
_publ_section_title
;
Structure prediction by ZEFSAII (Michael W. Deem and Ramdas Pophale) SiO2 
 PCOD8327295
Probable space group: P -6 M 2
;
_chemical_formula_sum "Si O2"
_cell_formula_units_Z 84
_cell_length_a 17.144142
_cell_length_b 17.144142
_cell_length_c 23.021934
_cell_angle_alpha 90.000000
_cell_angle_beta 90.000000
_cell_angle_gamma 120.000000
_cell_volume 5860.085420
_symmetry_space_group_name_H-M "P -6 M 2"
_symmetry_group_IT_number 187
_symmetry_cell_setting 'hexagonal'
loop_
_space_group_symop_operation_xyz
x,y,z
-x+y,-x,-z
-y,x-y,z
x,y,-z
-x+y,-x,z
-y,x-y,-z
-y,-x,-z
-x+y,y,-z
x,x-y,-z
-x+y,y,z
x,x-y,z
-y,-x,z
loop_
_atom_site_type_symbol
_atom_site_label
_atom_site_fract_x
_atom_site_fract_y
_atom_site_fract_z
Si Si1 0.605454 0.034044 0.673605
Si Si2 0.238304 0.938126 0.719401
Si Si3 0.000970 0.177696 0.612265
Si Si4 0.760920 0.059778 0.827917
Si Si5 0.000001 0.179607 0.065662
Si Si6 0.845175 0.511024 0.782483
Si Si7 0.905607 0.631731 0.434654
O O1 0.499113 0.998225 0.672869
O O2 0.658063 0.117811 0.717228
O O3 0.644431 0.067745 0.609397
O O4 0.619210 0.952132 0.695077
O O5 0.168544 0.831457 0.721364
O O6 0.203454 0.989518 0.677781
O O7 0.247140 0.978595 0.783144
O O8 0.094522 0.189044 0.588927
O O9 0.973232 0.234461 0.570279
O O10 0.927060 0.072941 0.612444
O O11 0.860344 0.139657 0.810839
O O12 0.758978 0.022131 0.892253
O O13 0.691788 0.097889 0.826369
O O14 0.924880 0.075121 0.071657
O O15 0.094446 0.188892 0.083818
O O16 0.003109 0.213897 0.000000
O O17 0.740658 0.481315 0.782077
O O18 0.855685 0.427843 0.804489
O O19 0.912036 0.601840 0.500000
O O20 0.804775 0.609549 0.420029
#
# Coordination Sequence:
#
# PCOD8327295 Si02
#       7
#    12  12  12  12  12  12  12
#     4   9  17  28  42  59  76  95 123 157 192 233
#     4   9  16  26  40  57  78 102 126 155 193 232
#     4   9  16  25  37  54  77 104 131 156 181 211
#     4   9  16  25  38  57  80 105 133 162 191 225
#     4   9  16  25  37  54  78 108 139 167 192 219
#     4   9  16  26  41  60  80 101 126 158 195 233
#     4   9  17  28  40  54  74  99 124 151 185 224
#
# _framework density 14.334263
#
# number of rings (size 3 to 8) (size 9 to 14) (size 15 to 20)
#    0.000    3.000    0.000    1.714    0.000    4.571 
#    0.000    0.000    0.000    6.429    0.000    0.000 
#    0.000    1.143    0.000    0.429    0.000    4.429 
#
# Total GULP energy -1041435.187780 kJ/mol
# GULP energy per Si atom -12398.037950 kJ/mol
# Density = 1.430164 g / cm^3
# Si number density = 14.334263 Si / 1000 Ang^3
#
#
#
# Elastic Constant Matrix: (Units=GPa)
#
#
# Indices 1 2 3 4 5 6 
#
# 1 84.4221 42.8594 41.7165 0.0000 0.0000 0.0000
# 2 42.8594 84.4221 41.7165 0.0000 0.0000 0.0000
# 3 41.7165 41.7165 86.2578 0.0000 0.0000 0.0000
# 4 0.0000 0.0000 0.0000 16.6889 0.0000 0.0000
# 5 0.0000 0.0000 0.0000 0.0000 16.6889 0.0000
# 6 0.0000 0.0000 0.0000 0.0000 0.0000 20.7814
#
#
#
# Elastic Compliance Matrix: (Units=1/GPa)
#
#
# Indices 1 2 3 4 5 6 
#
# 1 0.017782 -0.006278 -0.005563 0.000000 0.000000 0.000000
# 2 -0.006278 0.017782 -0.005563 0.000000 0.000000 0.000000
# 3 -0.005563 -0.005563 0.016974 0.000000 0.000000 0.000000
# 4 0.000000 0.000000 0.000000 0.059920 0.000000 0.000000
# 5 0.000000 0.000000 0.000000 0.000000 0.059920 0.000000
# 6 0.000000 0.000000 0.000000 0.000000 0.000000 0.048120
#
#
# Mechanical properties :
#
#
# Convention : Reuss Voigt Hill
#
# Bulk Modulus (GPa) = 56.40886 56.40966 56.40926
# Shear Modulus (GPa) = 19.14115 19.41912 19.28014
#
# Velocity S-wave (km/s) = 3.65820 3.68467 3.67146
# Velocity P-wave (km/s) = 7.56843 7.58557 7.57700
#
# Compressibility (1/GPa) = 0.01772771
#
# Stress axis : x y z
#
# Youngs Moduli (GPa) = 56.23759 56.23759 58.91259
#
# Poissons Ratio (x) = 0.35308 0.32775
# Poissons Ratio (y) = 0.35308 0.32775
# Poissons Ratio (z) = 0.31287 0.31287
#
# Static dielectric constant tensor:
#      x y z
#    x 2.728190 0.000000 0.000000 
#    y 0.000000 2.728190 0.000000 
#    z 0.000000 0.000000 2.759180 
# 
# 
# High freq. dielectric constant tensor:
#      x y z
#    x 1.533090 0.000000 0.000000 
#    y 0.000000 1.533090 0.000000 
#    z 0.000000 0.000000 1.541140 
# 
# From -- ./inp_files/3656.got.cif
#   From: 2010.03.12/outbox.cif.g09.slc.cpg/sg187_2_cif.got.tgz:3656.got - 2010.04.01 11:58:23.
