data_PCOD8327643
_publ_section_title
;
Structure prediction by ZEFSAII (Michael W. Deem and Ramdas Pophale) SiO2 
 PCOD8327643
Probable space group: P -6 2 M
;
_chemical_formula_sum "Si O2"
_cell_formula_units_Z 60
_cell_length_a 17.938073
_cell_length_b 17.938073
_cell_length_c 11.464632
_cell_angle_alpha 90.000000
_cell_angle_beta 90.000000
_cell_angle_gamma 120.000000
_cell_volume 3194.790062
_symmetry_space_group_name_H-M "P -6 2 M"
_symmetry_group_IT_number 189
_symmetry_cell_setting 'hexagonal'
loop_
_space_group_symop_operation_xyz
x,y,z
-x+y,-x,-z
-y,x-y,z
x,y,-z
-x+y,-x,z
-y,x-y,-z
x-y,-y,-z
-x,-x+y,-z
y,x,-z
y,x,z
x-y,-y,z
-x,-x+y,z
loop_
_atom_site_type_symbol
_atom_site_label
_atom_site_fract_x
_atom_site_fract_y
_atom_site_fract_z
Si Si1 0.630370 0.476045 0.500000
Si Si2 0.367630 0.901586 0.249406
Si Si3 0.100389 0.748748 0.720248
Si Si4 0.101065 0.315694 0.137333
Si Si5 0.609792 0.101213 0.872530
Si Si6 0.712378 0.183327 0.500000
O O1 0.641460 0.534162 0.611816
O O2 0.535989 0.390453 0.500000
O O3 0.713587 0.463540 0.500000
O O4 0.278397 0.864573 0.179668
O O5 0.420876 0.856092 0.204214
O O6 0.419578 0.000000 0.214422
O O7 0.131792 0.843102 0.778310
O O8 0.120294 0.699094 0.819680
O O9 0.152811 0.746937 0.608414
O O10 0.000000 0.705414 0.687043
O O11 0.000000 0.252161 0.163492
O O12 0.120143 0.313344 0.000000
O O13 0.546227 0.000000 0.879426
O O14 0.628185 0.143456 0.000000
#
# Coordination Sequence:
#
# PCOD8327643 Si02
#       6
#     6  12  12  12  12   6
#     4  12  22  37  55  74 112 156 195 232 278 336
#     4  10  19  32  54  80 107 144 188 234 282 343
#     4  11  22  37  59  86 116 151 197 254 306 352
#     4  10  21  38  59  84 117 156 196 241 299 367
#     4   9  17  30  51  79 108 139 177 226 285 344
#     4  12  24  39  57  82 117 162 201 240 288 348
#
# _framework density 18.780577000000001
#
# number of rings (size 3 to 8) (size 9 to 14) (size 15 to 20)
#    0.000    1.600    4.000    2.000    0.000    4.400 
#    0.000    0.500    0.000    0.400    0.000    5.600 
#    0.000    0.000    0.000    0.000    0.000    0.000 
#
# Total GULP energy -743459.662711 kJ/mol
# GULP energy per Si atom -12390.994379 kJ/mol
# Density = 1.873783 g / cm^3
# Si number density = 18.780577 Si / 1000 Ang^3
#
#
#
# Elastic Constant Matrix: (Units=GPa)
#
#
# Indices 1 2 3 4 5 6 
#
# 1 66.0082 23.2988 29.7080 0.0000 0.0000 0.0000
# 2 23.2988 66.0082 29.7080 0.0000 0.0000 0.0000
# 3 29.7080 29.7080 132.1618 0.0000 0.0000 0.0000
# 4 0.0000 0.0000 0.0000 19.2117 0.0000 0.0000
# 5 0.0000 0.0000 0.0000 0.0000 19.2117 0.0000
# 6 0.0000 0.0000 0.0000 0.0000 0.0000 21.3547
#
#
#
# Elastic Compliance Matrix: (Units=1/GPa)
#
#
# Indices 1 2 3 4 5 6 
#
# 1 0.018290 -0.005124 -0.002960 0.000000 0.000000 0.000000
# 2 -0.005124 0.018290 -0.002960 0.000000 0.000000 0.000000
# 3 -0.002960 -0.002960 0.008897 0.000000 0.000000 0.000000
# 4 0.000000 0.000000 0.000000 0.052052 0.000000 0.000000
# 5 0.000000 0.000000 0.000000 0.000000 0.052052 0.000000
# 6 0.000000 0.000000 0.000000 0.000000 0.000000 0.046828
#
#
# Mechanical properties :
#
#
# Convention : Reuss Voigt Hill
#
# Bulk Modulus (GPa) = 42.75086 47.73420 45.24253
# Shear Modulus (GPa) = 22.09534 24.05317 23.07426
#
# Velocity S-wave (km/s) = 3.43374 3.58264 3.50898
# Velocity P-wave (km/s) = 6.20753 6.52577 6.36864
#
# Compressibility (1/GPa) = 0.02339134
#
# Stress axis : x y z
#
# Youngs Moduli (GPa) = 54.67402 54.67402 112.39700
#
# Poissons Ratio (x) = 0.28014 0.33265
# Poissons Ratio (y) = 0.28014 0.33265
# Poissons Ratio (z) = 0.16181 0.16181
#
# Static dielectric constant tensor:
#      x y z
#    x 3.351320 0.000000 0.000000 
#    y 0.000000 3.351320 0.000000 
#    z 0.000000 0.000000 4.102200 
# 
# 
# High freq. dielectric constant tensor:
#      x y z
#    x 1.707170 0.000000 0.000000 
#    y 0.000000 1.707170 0.000000 
#    z 0.000000 0.000000 1.748120 
# 
# From -- ./inp_files/1959.got.cif
#   From: 2010.03.12/outbox.cif.g09.slc.cpg/sg189_1_cif.got.tgz:1959.got - 2010.04.01 12:03:36.
