data_PCOD8327950
_publ_section_title
;
Structure prediction by ZEFSAII (Michael W. Deem and Ramdas Pophale) SiO2 
 PCOD8327950
Probable space group: P -6 2 C
;
_chemical_formula_sum "Si O2"
_cell_formula_units_Z 64
_cell_length_a 13.930021
_cell_length_b 13.930021
_cell_length_c 19.345440
_cell_angle_alpha 90.000000
_cell_angle_beta 90.000000
_cell_angle_gamma 120.000000
_cell_volume 3250.968683
_symmetry_space_group_name_H-M "P -6 2 C"
_symmetry_group_IT_number 190
_symmetry_cell_setting 'hexagonal'
loop_
_space_group_symop_operation_xyz
x,y,z
-x+y,-x,1/2-z
-y,x-y,z
x,y,1/2-z
-x+y,-x,z
-y,x-y,1/2-z
x-y,-y,-z
-x,-x+y,-z
y,x,-z
y,x,1/2+z
x-y,-y,1/2+z
-x,-x+y,1/2+z
loop_
_atom_site_type_symbol
_atom_site_label
_atom_site_fract_x
_atom_site_fract_y
_atom_site_fract_z
Si Si1 0.282968 0.935560 0.325427
Si Si2 0.935559 0.652592 0.674573
Si Si3 0.551957 0.886690 0.033788
Si Si4 0.113310 0.448043 0.466212
Si Si5 0.000000 0.000000 0.583657
Si Si6 0.783074 0.891537 0.671256
O O1 0.332538 0.932668 0.250000
O O2 0.151644 0.848357 0.327646
O O3 0.345015 0.904612 0.383475
O O4 0.295633 0.055386 0.339273
O O5 0.932669 0.600132 0.750000
O O6 0.904611 0.559597 0.616525
O O7 0.055386 0.759754 0.660726
O O8 0.430707 0.861414 0.009657
O O9 0.569075 0.784537 0.011603
O O10 0.648225 0.000000 0.000000
O O11 0.000000 0.351775 0.500000
O O12 0.875639 0.937817 0.612245
O O13 0.000000 0.000000 0.500000
O O14 0.832576 0.916288 0.750000
#
# Coordination Sequence:
#
# PCOD8327950 Si02
#       6
#    12  12  12  12   4  12
#     4   9  18  32  52  77 105 141 185 229 279 337
#     4   9  18  32  52  77 105 141 185 229 279 337
#     4  10  22  39  59  83 114 151 190 235 285 340
#     4  10  22  39  59  83 114 151 190 235 285 340
#     4  12  22  26  40  72 112 158 196 228 262 323
#     4  10  18  32  48  68 108 154 186 222 280 343
#
# _framework density 19.686440000000001
#
# number of rings (size 3 to 8) (size 9 to 14) (size 15 to 20)
#    0.000    2.250    1.875    0.938    2.625    2.250 
#    0.000    0.000    0.000    2.625    0.000    0.000 
#    0.000    0.000    0.000    0.000    0.000    0.000 
#
# Total GULP energy -793269.528273 kJ/mol
# GULP energy per Si atom -12394.836379 kJ/mol
# Density = 1.964163 g / cm^3
# Si number density = 19.686440 Si / 1000 Ang^3
#
#
#
# Elastic Constant Matrix: (Units=GPa)
#
#
# Indices 1 2 3 4 5 6 
#
# 1 83.1428 42.9641 25.2672 0.0000 0.0000 0.0000
# 2 42.9641 83.1428 25.2672 0.0000 0.0000 0.0000
# 3 25.2672 25.2672 95.1301 0.0000 0.0000 0.0000
# 4 0.0000 0.0000 0.0000 24.1499 0.0000 0.0000
# 5 0.0000 0.0000 0.0000 0.0000 24.1499 0.0000
# 6 0.0000 0.0000 0.0000 0.0000 0.0000 20.0893
#
#
#
# Elastic Compliance Matrix: (Units=1/GPa)
#
#
# Indices 1 2 3 4 5 6 
#
# 1 0.016882 -0.008007 -0.002357 0.000000 0.000000 0.000000
# 2 -0.008007 0.016882 -0.002357 0.000000 0.000000 0.000000
# 3 -0.002357 -0.002357 0.011764 0.000000 0.000000 0.000000
# 4 0.000000 0.000000 0.000000 0.041408 0.000000 0.000000
# 5 0.000000 0.000000 0.000000 0.000000 0.041408 0.000000
# 6 0.000000 0.000000 0.000000 0.000000 0.000000 0.049778
#
#
# Mechanical properties :
#
#
# Convention : Reuss Voigt Hill
#
# Bulk Modulus (GPa) = 49.78999 49.82364 49.80682
# Shear Modulus (GPa) = 23.78024 24.87230 24.32627
#
# Velocity S-wave (km/s) = 3.47933 3.55832 3.51905
# Velocity P-wave (km/s) = 6.44107 6.49967 6.47044
#
# Compressibility (1/GPa) = 0.02008436
#
# Stress axis : x y z
#
# Youngs Moduli (GPa) = 59.23615 59.23615 85.00479
#
# Poissons Ratio (x) = 0.47432 0.20036
# Poissons Ratio (y) = 0.47432 0.20036
# Poissons Ratio (z) = 0.13962 0.13962
#
# Static dielectric constant tensor:
#      x y z
#    x 3.265860 0.000000 0.000000 
#    y 0.000000 3.265860 0.000000 
#    z 0.000000 0.000000 3.712900 
# 
# 
# High freq. dielectric constant tensor:
#      x y z
#    x 1.743670 0.000000 0.000000 
#    y 0.000000 1.743670 0.000000 
#    z 0.000000 0.000000 1.771660 
# 
# From -- ./inp_files/3678.got.cif
#   From: 2010.06.25/outbox.cif.g09.slc.cpg/sg190_2_cif.got.tgz:3678.got - 2010.06.28 13:08:06.
