data_PCOD8327186
_publ_section_title
;
Structure prediction by ZEFSAII (Michael W. Deem and Ramdas Pophale) SiO2 
 PCOD8327186
Probable space group: P -6 M 2
;
_chemical_formula_sum "Si O2"
_cell_formula_units_Z 72
_cell_length_a 23.112663
_cell_length_b 23.112663
_cell_length_c 9.099942
_cell_angle_alpha 90.000000
_cell_angle_beta 90.000000
_cell_angle_gamma 120.000000
_cell_volume 4209.875282
_symmetry_space_group_name_H-M "P -6 M 2"
_symmetry_group_IT_number 187
_symmetry_cell_setting 'hexagonal'
loop_
_space_group_symop_operation_xyz
x,y,z
-x+y,-x,-z
-y,x-y,z
x,y,-z
-x+y,-x,z
-y,x-y,-z
-y,-x,-z
-x+y,y,-z
x,x-y,-z
-x+y,y,z
x,x-y,z
-y,-x,z
loop_
_atom_site_type_symbol
_atom_site_label
_atom_site_fract_x
_atom_site_fract_y
_atom_site_fract_z
Si Si1 0.401918 0.940912 0.337025
Si Si2 0.868420 0.265708 0.327735
Si Si3 0.204594 0.667019 0.324935
Si Si4 0.468804 0.397130 0.828310
Si Si5 0.936599 0.735781 0.165826
Si Si6 0.866703 0.999682 0.328256
O O1 0.384846 0.957019 0.500000
O O2 0.468194 0.936387 0.348041
O O3 0.344092 0.868301 0.278837
O O4 0.411574 0.998387 0.224549
O O5 0.881733 0.275374 0.500000
O O6 0.795038 0.204963 0.291698
O O7 0.872992 0.331825 0.257124
O O8 0.925789 0.254380 0.255986
O O9 0.207805 0.666135 0.500000
O O10 0.215866 0.607933 0.261684
O O11 0.262254 0.737747 0.261113
O O12 0.542295 0.457706 0.789417
O O13 0.460020 0.382247 0.000000
O O14 0.868811 0.737621 0.168481
O O15 0.993678 0.803166 0.241899
O O16 0.958353 0.731396 0.000000
O O17 0.852356 0.999841 0.500000
O O18 0.862560 0.931280 0.278031
O O19 0.940323 0.059678 0.288605
#
# Coordination Sequence:
#
# PCOD8327186 Si02
#       6
#    12  12  12  12  12  12
#     4   8  14  25  41  62  89 121 156 194 234 273
#     4  10  20  34  54  78 100 122 149 183 224 269
#     4   8  12  18  32  57  88 120 155 197 243 285
#     4  10  20  33  51  75 100 125 152 183 220 262
#     4   9  17  29  45  66  93 124 157 195 238 281
#     4   9  16  26  41  62  90 125 165 207 249 292
#
# _framework density 17.102644000000002
#
# number of rings (size 3 to 8) (size 9 to 14) (size 15 to 20)
#    0.000    3.000    0.000    2.833    0.000    5.667 
#    0.000    0.000    0.000    2.833    0.000    2.333 
#    0.000    1.333    0.000    0.000    0.000    0.000 
#
# Total GULP energy -892503.709499 kJ/mol
# GULP energy per Si atom -12395.884854 kJ/mol
# Density = 1.706372 g / cm^3
# Si number density = 17.102644 Si / 1000 Ang^3
#
#
#
# Elastic Constant Matrix: (Units=GPa)
#
#
# Indices 1 2 3 4 5 6 
#
# 1 90.5819 49.7805 49.3112 0.0000 0.0001 0.0000
# 2 49.7805 90.5819 49.3112 0.0000 -0.0001 0.0000
# 3 49.3112 49.3112 87.4304 0.0000 0.0000 0.0000
# 4 0.0000 0.0000 0.0000 21.3578 0.0000 -0.0001
# 5 0.0001 -0.0001 0.0000 0.0000 21.3578 0.0000
# 6 0.0000 0.0000 0.0000 -0.0001 0.0000 20.4007
#
#
#
# Elastic Compliance Matrix: (Units=1/GPa)
#
#
# Indices 1 2 3 4 5 6 
#
# 1 0.018155 -0.006354 -0.006656 0.000000 0.000000 0.000000
# 2 -0.006354 0.018155 -0.006656 0.000000 0.000000 0.000000
# 3 -0.006656 -0.006656 0.018945 0.000000 0.000000 0.000000
# 4 0.000000 0.000000 0.000000 0.046821 0.000000 0.000000
# 5 0.000000 0.000000 0.000000 0.000000 0.046821 0.000000
# 6 0.000000 0.000000 0.000000 0.000000 0.000000 0.049018
#
#
# Mechanical properties :
#
#
# Convention : Reuss Voigt Hill
#
# Bulk Modulus (GPa) = 62.79750 62.82220 62.80985
# Shear Modulus (GPa) = 20.61387 20.63602 20.62495
#
# Velocity S-wave (km/s) = 3.47551 3.47738 3.47645
# Velocity P-wave (km/s) = 7.27347 7.27565 7.27456
#
# Compressibility (1/GPa) = 0.01592420
#
# Stress axis : x y z
#
# Youngs Moduli (GPa) = 55.08141 55.08141 52.78303
#
# Poissons Ratio (x) = 0.34999 0.35131
# Poissons Ratio (y) = 0.34999 0.35131
# Poissons Ratio (z) = 0.36661 0.36661
#
# Static dielectric constant tensor:
#      x y z
#    x 3.188830 0.000000 0.000000 
#    y 0.000000 3.188830 0.000000 
#    z 0.000000 0.000000 3.098170 
# 
# 
# High freq. dielectric constant tensor:
#      x y z
#    x 1.641660 0.000000 0.000000 
#    y 0.000000 1.641660 0.000000 
#    z 0.000000 0.000000 1.647870 
# 
# From -- ./inp_files/989.got.cif
#   From: 2010.03.12/outbox.cif.g09.slc.cpg/sg187_1_cif.got.tgz:989.got - 2010.04.01 11:58:23.
