data_PCOD8327211
_publ_section_title
;
Structure prediction by ZEFSAII (Michael W. Deem and Ramdas Pophale) SiO2 
 PCOD8327211
Probable space group: P -6 M 2
;
_chemical_formula_sum "Si O2"
_cell_formula_units_Z 84
_cell_length_a 18.957137
_cell_length_b 18.957137
_cell_length_c 13.977102
_cell_angle_alpha 90.000000
_cell_angle_beta 90.000000
_cell_angle_gamma 120.000000
_cell_volume 4350.040131
_symmetry_space_group_name_H-M "P -6 M 2"
_symmetry_group_IT_number 187
_symmetry_cell_setting 'hexagonal'
loop_
_space_group_symop_operation_xyz
x,y,z
-x+y,-x,-z
-y,x-y,z
x,y,-z
-x+y,-x,z
-y,x-y,-z
-y,-x,-z
-x+y,y,-z
x,x-y,-z
-x+y,y,z
x,x-y,z
-y,-x,z
loop_
_atom_site_type_symbol
_atom_site_label
_atom_site_fract_x
_atom_site_fract_y
_atom_site_fract_z
Si Si1 0.820160 0.487398 0.389547
Si Si2 0.160930 0.159523 0.196288
Si Si3 0.490715 0.667313 0.112916
Si Si4 0.375946 0.369242 0.606740
Si Si5 0.007182 0.423607 0.193985
Si Si6 0.750813 0.085690 0.112603
Si Si7 0.769598 0.804962 0.604878
O O1 0.800514 0.466581 0.500000
O O2 0.742097 0.484193 0.338651
O O3 0.837718 0.418859 0.342945
O O4 0.896102 0.577434 0.377805
O O5 0.088055 0.176110 0.167132
O O6 0.242819 0.224168 0.142087
O O7 0.175981 0.165902 0.310925
O O8 0.136116 0.068058 0.165905
O O9 0.505767 0.752884 0.156124
O O10 0.405679 0.594322 0.154054
O O11 0.563866 0.651996 0.141613
O O12 0.486366 0.669546 0.000000
O O13 0.395183 0.409874 0.500000
O O14 0.407160 0.434727 0.692120
O O15 0.281488 0.309148 0.621248
O O16 0.984708 0.492354 0.161697
O O17 0.934161 0.332980 0.166621
O O18 0.823610 0.176391 0.141251
O O19 0.734643 0.079803 0.000000
O O20 0.809069 0.808338 0.500000
O O21 0.737616 0.868808 0.608812
#
# Coordination Sequence:
#
# PCOD8327211 Si02
#       7
#    12  12  12  12  12  12  12
#     4   9  17  29  46  69  98 133 173 217 265 314
#     4  10  20  35  56  83 114 148 187 232 280 332
#     4   9  18  33  55  84 115 142 169 209 268 333
#     4  10  20  34  52  76 108 145 184 227 271 321
#     4  11  22  36  57  85 113 142 181 229 274 322
#     4  10  22  40  59  80 110 148 186 226 279 338
#     4   9  18  33  53  77 107 146 190 233 274 321
#
# _framework density 19.310165999999999
#
# number of rings (size 3 to 8) (size 9 to 14) (size 15 to 20)
#    0.000    2.286    1.429    1.286    0.000    5.714 
#    0.000    1.429    0.000    2.000    0.000    0.000 
#    0.000    1.143    0.000    0.000    0.000    0.000 
#
# Total GULP energy -1040986.600327 kJ/mol
# GULP energy per Si atom -12392.697623 kJ/mol
# Density = 1.926622 g / cm^3
# Si number density = 19.310166 Si / 1000 Ang^3
#
#
#
# Elastic Constant Matrix: (Units=GPa)
#
#
# Indices 1 2 3 4 5 6 
#
# 1 97.9792 52.2600 24.2626 0.0000 0.0000 0.0000
# 2 52.2600 97.9792 24.2626 0.0000 0.0000 0.0000
# 3 24.2626 24.2626 65.9388 0.0000 0.0000 0.0000
# 4 0.0000 0.0000 0.0000 19.8955 0.0000 0.0000
# 5 0.0000 0.0000 0.0000 0.0000 19.8955 0.0000
# 6 0.0000 0.0000 0.0000 0.0000 0.0000 22.8596
#
#
#
# Elastic Compliance Matrix: (Units=1/GPa)
#
#
# Indices 1 2 3 4 5 6 
#
# 1 0.014713 -0.007159 -0.002779 0.000000 0.000000 0.000000
# 2 -0.007159 0.014713 -0.002779 0.000000 0.000000 0.000000
# 3 -0.002779 -0.002779 0.017211 0.000000 0.000000 0.000000
# 4 0.000000 0.000000 0.000000 0.050263 0.000000 0.000000
# 5 0.000000 0.000000 0.000000 0.000000 0.050263 0.000000
# 6 0.000000 0.000000 0.000000 0.000000 0.000000 0.043745
#
#
# Mechanical properties :
#
#
# Convention : Reuss Voigt Hill
#
# Bulk Modulus (GPa) = 47.16818 51.49641 49.33229
# Shear Modulus (GPa) = 22.38019 23.27090 22.82554
#
# Velocity S-wave (km/s) = 3.40808 3.47524 3.44182
# Velocity P-wave (km/s) = 6.32189 6.54438 6.43410
#
# Compressibility (1/GPa) = 0.02120073
#
# Stress axis : x y z
#
# Youngs Moduli (GPa) = 67.96610 67.96610 58.10226
#
# Poissons Ratio (x) = 0.48660 0.16149
# Poissons Ratio (y) = 0.48660 0.16149
# Poissons Ratio (z) = 0.18891 0.18891
#
# Static dielectric constant tensor:
#      x y z
#    x 3.507130 0.000000 0.000000 
#    y 0.000000 3.507130 0.000000 
#    z 0.000000 0.000000 3.620870 
# 
# 
# High freq. dielectric constant tensor:
#      x y z
#    x 1.744040 0.000000 0.000000 
#    y 0.000000 1.744040 0.000000 
#    z 0.000000 0.000000 1.740480 
# 
# From -- ./inp_files/2608.got.cif
#   From: 2010.03.12/outbox.cif.g09.slc.cpg/sg187_2_cif.got.tgz:2608.got - 2010.04.01 11:58:23.
