data_PCOD8327219
_publ_section_title
;
Structure prediction by ZEFSAII (Michael W. Deem and Ramdas Pophale) SiO2 
 PCOD8327219
Probable space group: P -6 M 2
;
_chemical_formula_sum "Si O2"
_cell_formula_units_Z 36
_cell_length_a 15.770300
_cell_length_b 15.770300
_cell_length_c 9.745208
_cell_angle_alpha 90.000000
_cell_angle_beta 90.000000
_cell_angle_gamma 120.000000
_cell_volume 2098.947881
_symmetry_space_group_name_H-M "P -6 M 2"
_symmetry_group_IT_number 187
_symmetry_cell_setting 'hexagonal'
loop_
_space_group_symop_operation_xyz
x,y,z
-x+y,-x,-z
-y,x-y,z
x,y,-z
-x+y,-x,z
-y,x-y,-z
-y,-x,-z
-x+y,y,-z
x,x-y,-z
-x+y,y,z
x,x-y,z
-y,-x,z
loop_
_atom_site_type_symbol
_atom_site_label
_atom_site_fract_x
_atom_site_fract_y
_atom_site_fract_z
Si Si1 0.758042 0.707066 0.341653
Si Si2 0.859565 0.333633 0.844215
Si Si3 0.270479 0.540958 0.157890
Si Si4 0.172507 0.827494 0.340602
O O1 0.738698 0.677077 0.500000
O O2 0.872505 0.745010 0.304763
O O3 0.686041 0.613416 0.254626
O O4 0.727051 0.786370 0.304115
O O5 0.873535 0.436768 0.799926
O O6 0.746244 0.253757 0.825826
O O7 0.893829 0.334775 0.000000
O O8 0.388701 0.611300 0.183943
O O9 0.222944 0.445888 0.254808
O O10 0.252398 0.504796 0.000000
O O11 0.188119 0.811882 0.500000
#
# Coordination Sequence:
#
# PCOD8327219 Si02
#       4
#    12  12   6   6
#     4   9  19  35  50  69  99 129 164 209 251 297
#     4   9  17  30  49  73 100 130 162 196 236 288
#     4   8  18  36  54  76 106 136 168 206 251 310
#     4  10  20  34  54  76  98 132 172 212 261 304
#
# _framework density 17.151451000000002
#
# number of rings (size 3 to 8) (size 9 to 14) (size 15 to 20)
#    0.333    2.667    0.000    0.333    0.000    5.333 
#    1.000    6.667    0.000    2.000    0.000    0.000 
#    0.000    0.000    0.000    0.000    0.000    0.000 
#
# Total GULP energy -446129.969977 kJ/mol
# GULP energy per Si atom -12392.499166 kJ/mol
# Density = 1.711241 g / cm^3
# Si number density = 17.151451 Si / 1000 Ang^3
#
#
#
# Elastic Constant Matrix: (Units=GPa)
#
#
# Indices 1 2 3 4 5 6 
#
# 1 126.2595 92.4747 68.3052 0.0000 -0.0001 0.0000
# 2 92.4747 126.2595 68.3052 0.0000 0.0001 0.0000
# 3 68.3052 68.3052 72.0156 0.0000 0.0000 0.0000
# 4 0.0000 0.0000 0.0000 22.9617 0.0000 0.0001
# 5 -0.0001 0.0001 0.0000 0.0000 22.9617 0.0000
# 6 0.0000 0.0000 0.0000 0.0001 0.0000 16.8924
#
#
#
# Elastic Compliance Matrix: (Units=1/GPa)
#
#
# Indices 1 2 3 4 5 6 
#
# 1 0.020407 -0.009192 -0.010638 0.000000 0.000000 0.000000
# 2 -0.009192 0.020407 -0.010638 0.000000 0.000000 0.000000
# 3 -0.010638 -0.010638 0.034065 0.000000 0.000000 0.000000
# 4 0.000000 0.000000 0.000000 0.043551 0.000000 0.000000
# 5 0.000000 0.000000 0.000000 0.000000 0.043551 0.000000
# 6 0.000000 0.000000 0.000000 0.000000 0.000000 0.059198
#
#
# Mechanical properties :
#
#
# Convention : Reuss Voigt Hill
#
# Bulk Modulus (GPa) = 71.70813 86.96720 79.33766
# Shear Modulus (GPa) = 17.43606 18.92645 18.18126
#
# Velocity S-wave (km/s) = 3.19187 3.32549 3.25936
# Velocity P-wave (km/s) = 7.44873 8.09695 7.77960
#
# Compressibility (1/GPa) = 0.01394542
#
# Stress axis : x y z
#
# Youngs Moduli (GPa) = 49.00212 49.00212 29.35561
#
# Poissons Ratio (x) = 0.45042 0.31227
# Poissons Ratio (y) = 0.45042 0.31227
# Poissons Ratio (z) = 0.52127 0.52127
#
# Static dielectric constant tensor:
#      x y z
#    x 3.232390 0.000000 0.000000 
#    y 0.000000 3.232390 0.000000 
#    z 0.000000 0.000000 3.233490 
# 
# 
# High freq. dielectric constant tensor:
#      x y z
#    x 1.656910 0.000000 0.000000 
#    y 0.000000 1.656910 0.000000 
#    z 0.000000 0.000000 1.662640 
# 
# From -- ./inp_files/267.got.cif
#   From: 2010.03.12/outbox.cif.g09.slc.cpg/sg187_1_cif.got.tgz:267.got - 2010.04.01 11:58:23.
