data_PCOD8327451
_publ_section_title
;
Structure prediction by ZEFSAII (Michael W. Deem and Ramdas Pophale) SiO2 
 PCOD8327451
Probable space group: P -6 C 2
;
_chemical_formula_sum "Si O2"
_cell_formula_units_Z 52
_cell_length_a 11.319592
_cell_length_b 11.319592
_cell_length_c 21.969680
_cell_angle_alpha 90.000000
_cell_angle_beta 90.000000
_cell_angle_gamma 120.000000
_cell_volume 2437.900127
_symmetry_space_group_name_H-M "P -6 C 2"
_symmetry_group_IT_number 188
_symmetry_cell_setting 'hexagonal'
loop_
_space_group_symop_operation_xyz
x,y,z
-x+y,-x,1/2-z
-y,x-y,z
x,y,1/2-z
-x+y,-x,z
-y,x-y,1/2-z
-y,-x,-z
-x+y,y,-z
x,x-y,-z
-x+y,y,1/2+z
x,x-y,1/2+z
-y,-x,1/2+z
loop_
_atom_site_type_symbol
_atom_site_label
_atom_site_fract_x
_atom_site_fract_y
_atom_site_fract_z
Si Si1 0.787627 0.609783 0.870225
Si Si2 0.376611 0.432188 0.820081
Si Si3 0.843745 0.156256 0.500000
Si Si4 0.683010 0.841505 0.000000
Si Si5 0.666667 0.333334 0.320422
Si Si6 0.596807 0.712981 0.872021
O O1 0.778674 0.588911 0.942691
O O2 0.667154 0.467840 0.843455
O O3 0.743629 0.723874 0.857512
O O4 0.931506 0.645477 0.841409
O O5 0.426307 0.458091 0.750000
O O6 0.479090 0.556047 0.863361
O O7 0.230299 0.422525 0.823976
O O8 0.001624 0.219727 0.483155
O O9 0.590840 0.829709 0.058772
O O10 0.666667 0.333334 0.250000
#
# Coordination Sequence:
#
# PCOD8327451 Si02
#       6
#    12  12   6   6   4  12
#     4  11  24  43  70 101 135 182 230 289 360 426
#     4  12  25  44  69 100 142 188 240 297 356 432
#     4  10  21  42  68 100 137 176 224 290 352 423
#     4  10  21  42  70 100 141 176 230 288 360 425
#     4  12  24  43  68  97 138 180 223 287 349 423
#     4  11  25  45  70 103 136 192 239 296 363 432
#
# _framework density 21.329832
#
# number of rings (size 3 to 8) (size 9 to 14) (size 15 to 20)
#    0.000    0.923    4.615    2.077    0.000    4.615 
#    1.385    0.000    0.000    0.000    0.000    0.000 
#    0.000    0.000    0.000    0.000    0.000    0.000 
#
# Total GULP energy -644665.839265 kJ/mol
# GULP energy per Si atom -12397.419986 kJ/mol
# Density = 2.128128 g / cm^3
# Si number density = 21.329832 Si / 1000 Ang^3
#
#
#
# Elastic Constant Matrix: (Units=GPa)
#
#
# Indices 1 2 3 4 5 6 
#
# 1 110.9566 42.8095 56.7071 0.0000 0.0000 -0.0001
# 2 42.8095 110.9564 56.7074 0.0001 0.0000 0.0000
# 3 56.7071 56.7074 159.1384 0.0000 0.0000 0.0000
# 4 0.0000 0.0001 0.0000 35.5229 0.0001 0.0000
# 5 0.0000 0.0000 0.0000 0.0001 35.5228 0.0000
# 6 -0.0001 0.0000 0.0000 0.0000 0.0000 34.0736
#
#
#
# Elastic Compliance Matrix: (Units=1/GPa)
#
#
# Indices 1 2 3 4 5 6 
#
# 1 0.011748 -0.002926 -0.003144 0.000000 0.000000 0.000000
# 2 -0.002926 0.011748 -0.003144 0.000000 0.000000 0.000000
# 3 -0.003144 -0.003144 0.008524 0.000000 0.000000 0.000000
# 4 0.000000 0.000000 0.000000 0.028151 0.000000 0.000000
# 5 0.000000 0.000000 0.000000 0.000000 0.028151 0.000000
# 6 0.000000 0.000000 0.000000 0.000000 0.000000 0.029348
#
#
# Mechanical properties :
#
#
# Convention : Reuss Voigt Hill
#
# Bulk Modulus (GPa) = 73.56295 77.05549 75.30922
# Shear Modulus (GPa) = 35.55469 36.01236 35.78353
#
# Velocity S-wave (km/s) = 4.08720 4.11342 4.10033
# Velocity P-wave (km/s) = 7.53901 7.66579 7.60267
#
# Compressibility (1/GPa) = 0.01359380
#
# Stress axis : x y z
#
# Youngs Moduli (GPa) = 85.12015 85.11985 117.31238
#
# Poissons Ratio (x) = 0.24906 0.36879
# Poissons Ratio (y) = 0.24907 0.36879
# Poissons Ratio (z) = 0.26759 0.26759
#
# Static dielectric constant tensor:
#      x y z
#    x 3.843050 0.000010 0.000000 
#    y 0.000010 3.843060 0.000000 
#    z 0.000000 0.000000 3.859970 
# 
# 
# High freq. dielectric constant tensor:
#      x y z
#    x 1.840160 0.000000 0.000000 
#    y 0.000000 1.840160 0.000000 
#    z 0.000000 0.000000 1.841810 
# 
# From -- ./inp_files/3661.got.cif
#   From: 2010.03.12/outbox.cif.g09.slc.cpg/sg188_2_cif.got.tgz:3661.got - 2010.04.01 12:01:06.
