data_PCOD8327168
_publ_section_title
;
Structure prediction by ZEFSAII (Michael W. Deem and Ramdas Pophale) SiO2 
 PCOD8327168
Probable space group: P -6 M 2
;
_chemical_formula_sum "Si O2"
_cell_formula_units_Z 60
_cell_length_a 12.799571
_cell_length_b 12.799571
_cell_length_c 25.756268
_cell_angle_alpha 90.000000
_cell_angle_beta 90.000000
_cell_angle_gamma 120.000000
_cell_volume 3654.301655
_symmetry_space_group_name_H-M "P -6 M 2"
_symmetry_group_IT_number 187
_symmetry_cell_setting 'hexagonal'
loop_
_space_group_symop_operation_xyz
x,y,z
-x+y,-x,-z
-y,x-y,z
x,y,-z
-x+y,-x,z
-y,x-y,-z
-y,-x,-z
-x+y,y,-z
x,x-y,-z
-x+y,y,z
x,x-y,z
-y,-x,z
loop_
_atom_site_type_symbol
_atom_site_label
_atom_site_fract_x
_atom_site_fract_y
_atom_site_fract_z
Si Si1 0.086324 0.421721 0.000000
Si Si2 0.575512 0.908044 0.697308
Si Si3 0.909361 0.579162 0.612063
Si Si4 0.091364 0.666541 0.184929
Si Si5 0.422284 0.087320 0.094950
Si Si6 0.903283 0.571929 0.500000
O O1 0.006857 0.354047 0.049984
O O2 0.205971 0.411942 0.000000
O O3 0.124396 0.562198 0.000000
O O4 0.445120 0.890240 0.687564
O O5 0.565318 0.782659 0.684649
O O6 0.619115 0.949869 0.756193
O O7 0.670291 0.003892 0.656863
O O8 0.777928 0.555855 0.625001
O O9 0.902029 0.451015 0.613012
O O10 0.955850 0.643080 0.554752
O O11 0.129163 0.564582 0.177780
O O12 0.206539 0.793462 0.169027
O O13 0.977332 0.637407 0.149222
O O14 0.562719 0.125438 0.092196
O O15 0.411855 0.205928 0.088778
O O16 0.759461 0.518922 0.500000
O O17 0.931357 0.465679 0.500000
#
# Coordination Sequence:
#
# PCOD8327168 Si02
#       6
#     6  12  12  12  12   6
#     4  10  20  34  54  78 100 122 152 194 236 266
#     4   9  17  29  45  65  89 118 150 183 221 266
#     4   9  16  26  42  64  88 113 142 179 224 270
#     4   9  17  30  49  70  90 115 150 192 232 266
#     4  10  20  33  50  72  99 129 156 183 220 270
#     4   8  13  22  37  58  84 112 142 176 216 264
#
# _framework density 16.419006
#
# number of rings (size 3 to 8) (size 9 to 14) (size 15 to 20)
#    0.000    2.800    0.000    1.900    0.000    4.000 
#    0.000    3.500    0.000    8.400    0.000    1.400 
#    0.000    0.000    0.000    0.000    0.000    0.000 
#
# Total GULP energy -743571.696905 kJ/mol
# GULP energy per Si atom -12392.861615 kJ/mol
# Density = 1.638164 g / cm^3
# Si number density = 16.419006 Si / 1000 Ang^3
#
#
#
# Elastic Constant Matrix: (Units=GPa)
#
#
# Indices 1 2 3 4 5 6 
#
# 1 82.3001 37.2867 55.6303 0.0000 0.0001 0.0000
# 2 37.2867 82.3001 55.6303 0.0000 -0.0001 0.0000
# 3 55.6303 55.6303 127.9907 0.0000 0.0000 0.0000
# 4 0.0000 0.0000 0.0000 23.6921 0.0000 -0.0001
# 5 0.0001 -0.0001 0.0000 0.0000 23.6921 0.0000
# 6 0.0000 0.0000 0.0000 -0.0001 0.0000 22.5067
#
#
#
# Elastic Compliance Matrix: (Units=1/GPa)
#
#
# Indices 1 2 3 4 5 6 
#
# 1 0.018127 -0.004088 -0.006102 0.000000 0.000000 0.000000
# 2 -0.004088 0.018127 -0.006102 0.000000 0.000000 0.000000
# 3 -0.006102 -0.006102 0.013118 0.000000 0.000000 0.000000
# 4 0.000000 0.000000 0.000000 0.042208 0.000000 0.000000
# 5 0.000000 0.000000 0.000000 0.000000 0.042208 0.000000
# 6 0.000000 0.000000 0.000000 0.000000 0.000000 0.044431
#
#
# Mechanical properties :
#
#
# Convention : Reuss Voigt Hill
#
# Bulk Modulus (GPa) = 59.56691 65.52059 62.54375
# Shear Modulus (GPa) = 23.10530 23.58111 23.34320
#
# Velocity S-wave (km/s) = 3.75537 3.79384 3.77466
# Velocity P-wave (km/s) = 7.42710 7.69305 7.56124
#
# Compressibility (1/GPa) = 0.01678784
#
# Stress axis : x y z
#
# Youngs Moduli (GPa) = 55.16483 55.16483 76.23372
#
# Poissons Ratio (x) = 0.22552 0.46519
# Poissons Ratio (y) = 0.22552 0.46519
# Poissons Ratio (z) = 0.33662 0.33662
#
# Static dielectric constant tensor:
#      x y z
#    x 2.885110 0.000000 0.000000 
#    y 0.000000 2.885110 0.000000 
#    z 0.000000 0.000000 3.630240 
# 
# 
# High freq. dielectric constant tensor:
#      x y z
#    x 1.607560 0.000000 0.000000 
#    y 0.000000 1.607560 0.000000 
#    z 0.000000 0.000000 1.656660 
# 
# From -- ./inp_files/4196.got.cif
#   From: 2010.03.12/outbox.cif.g09.slc.cpg/sg187_3_cif.got.tgz:4196.got - 2010.04.01 11:58:23.
