data_PCOD8327964
_publ_section_title
;
Structure prediction by ZEFSAII (Michael W. Deem and Ramdas Pophale) SiO2 
 PCOD8327964
Probable space group: P -6 2 C
;
_chemical_formula_sum "Si O2"
_cell_formula_units_Z 76
_cell_length_a 19.480477
_cell_length_b 19.480477
_cell_length_c 13.315178
_cell_angle_alpha 90.000000
_cell_angle_beta 90.000000
_cell_angle_gamma 120.000000
_cell_volume 4375.994645
_symmetry_space_group_name_H-M "P -6 2 C"
_symmetry_group_IT_number 190
_symmetry_cell_setting 'hexagonal'
loop_
_space_group_symop_operation_xyz
x,y,z
-x+y,-x,1/2-z
-y,x-y,z
x,y,1/2-z
-x+y,-x,z
-y,x-y,1/2-z
x-y,-y,-z
-x,-x+y,-z
y,x,-z
y,x,1/2+z
x-y,-y,1/2+z
-x,-x+y,1/2+z
loop_
_atom_site_type_symbol
_atom_site_label
_atom_site_fract_x
_atom_site_fract_y
_atom_site_fract_z
Si Si1 0.135451 0.907034 0.980882
Si Si2 0.608750 0.776652 0.633832
Si Si3 0.543225 0.884906 0.941090
Si Si4 0.832359 0.376075 0.132554
Si Si5 0.333335 0.666667 0.632577
Si Si6 0.669325 0.041883 0.862551
Si Si7 0.016478 0.813070 0.137047
O O1 0.194923 0.879674 0.937182
O O2 0.057631 0.874554 0.910486
O O3 0.102306 0.870545 0.089752
O O4 0.179938 0.000000 0.000000
O O5 0.636720 0.790769 0.750000
O O6 0.559751 0.821753 0.614734
O O7 0.550158 0.682325 0.613025
O O8 0.452926 0.866385 0.938300
O O9 0.583767 0.967517 0.881665
O O10 0.574632 0.891137 0.055834
O O11 0.841887 0.401231 0.250000
O O12 0.740948 0.325359 0.097149
O O13 0.333334 0.666668 0.750000
O O14 0.677442 0.076929 0.750000
O O15 0.725578 0.003604 0.876800
O O16 0.021755 0.840567 0.250000
#
# Coordination Sequence:
#
# PCOD8327964 Si02
#       7
#    12  12  12  12   4  12  12
#     4  11  22  38  56  80 116 147 181 227 284 347
#     4  11  20  33  55  81 111 150 191 228 277 338
#     4  11  18  32  55  80 108 140 179 232 287 325
#     4  10  19  29  48  80 113 143 181 227 279 330
#     4   9  15  24  42  75 106 131 169 225 273 309
#     4  10  19  33  58  84 104 131 181 239 283 326
#     4  10  20  38  62  85 104 137 190 235 281 342
#
# _framework density 17.36748
#
# number of rings (size 3 to 8) (size 9 to 14) (size 15 to 20)
#    0.000    1.579    4.737    2.842    0.000    1.263 
#    6.632    0.000    0.000    1.895    0.000    0.000 
#    0.000    0.000    0.000    0.000    0.000    0.000 
#
# Total GULP energy -941657.603577 kJ/mol
# GULP energy per Si atom -12390.231626 kJ/mol
# Density = 1.732795 g / cm^3
# Si number density = 17.367480 Si / 1000 Ang^3
#
#
#
# Elastic Constant Matrix: (Units=GPa)
#
#
# Indices 1 2 3 4 5 6 
#
# 1 103.7714 40.1957 42.8100 -0.0002 0.0001 -0.0056
# 2 40.1957 103.7721 42.8108 0.0002 -0.0001 0.0063
# 3 42.8100 42.8108 109.6787 0.0000 0.0000 -0.0002
# 4 -0.0002 0.0002 0.0000 20.0754 0.0000 0.0001
# 5 0.0001 -0.0001 0.0000 0.0000 20.0755 0.0002
# 6 -0.0056 0.0063 -0.0002 0.0001 0.0002 31.8012
#
#
#
# Elastic Compliance Matrix: (Units=1/GPa)
#
#
# Indices 1 2 3 4 5 6 
#
# 1 0.012388 -0.003342 -0.003531 0.000000 0.000000 0.000003
# 2 -0.003342 0.012388 -0.003531 0.000000 0.000000 -0.000003
# 3 -0.003531 -0.003531 0.011874 0.000000 0.000000 0.000000
# 4 0.000000 0.000000 0.000000 0.049812 0.000000 0.000000
# 5 0.000000 0.000000 0.000000 0.000000 0.049812 0.000000
# 6 0.000003 -0.000003 0.000000 0.000000 0.000000 0.031445
#
#
# Mechanical properties :
#
#
# Convention : Reuss Voigt Hill
#
# Bulk Modulus (GPa) = 63.12214 63.20615 63.16415
# Shear Modulus (GPa) = 25.79903 27.15082 26.47492
#
# Velocity S-wave (km/s) = 3.85837 3.95817 3.90859
# Velocity P-wave (km/s) = 7.50155 7.57376 7.53774
#
# Compressibility (1/GPa) = 0.01584230
#
# Stress axis : x y z
#
# Youngs Moduli (GPa) = 80.72626 80.72629 84.21839
#
# Poissons Ratio (x) = 0.26976 0.29736
# Poissons Ratio (y) = 0.26976 0.29737
# Poissons Ratio (z) = 0.28503 0.28504
#
# Static dielectric constant tensor:
#      x y z
#    x 2.023120 -0.000580 -0.000030 
#    y -0.000580 2.024030 0.000010 
#    z -0.000030 0.000010 3.266900 
# 
# 
# High freq. dielectric constant tensor:
#      x y z
#    x 1.660420 0.000000 0.000000 
#    y 0.000000 1.660420 0.000000 
#    z 0.000000 0.000000 1.660470 
# 
# From -- ./inp_files/3088.got.cif
#   From: 2010.06.25/outbox.cif.g09.slc.cpg/sg190_2_cif.got.tgz:3088.got - 2010.06.28 13:08:06.
