data_PCOD8327250
_publ_section_title
;
Structure prediction by ZEFSAII (Michael W. Deem and Ramdas Pophale) SiO2 
 PCOD8327250
Probable space group: P -6 M 2
;
_chemical_formula_sum "Si O2"
_cell_formula_units_Z 90
_cell_length_a 17.344602
_cell_length_b 17.344602
_cell_length_c 18.035636
_cell_angle_alpha 90.000000
_cell_angle_beta 90.000000
_cell_angle_gamma 120.000000
_cell_volume 4698.841230
_symmetry_space_group_name_H-M "P -6 M 2"
_symmetry_group_IT_number 187
_symmetry_cell_setting 'hexagonal'
loop_
_space_group_symop_operation_xyz
x,y,z
-x+y,-x,-z
-y,x-y,z
x,y,-z
-x+y,-x,z
-y,x-y,-z
-y,-x,-z
-x+y,y,-z
x,x-y,-z
-x+y,y,z
x,x-y,z
-y,-x,z
loop_
_atom_site_type_symbol
_atom_site_label
_atom_site_fract_x
_atom_site_fract_y
_atom_site_fract_z
Si Si1 0.978293 0.399638 0.786267
Si Si2 0.668386 0.515964 0.339654
Si Si3 0.842846 0.510725 0.500000
Si Si4 0.999578 0.179353 0.674935
Si Si5 0.265295 0.348056 0.417469
Si Si6 0.513444 0.847223 0.295138
Si Si7 0.355053 0.090097 0.915448
Si Si8 0.172652 0.172493 0.157383
O O1 0.959393 0.479697 0.791085
O O2 0.919939 0.336646 0.718523
O O3 0.945679 0.350286 0.863942
O O4 0.082978 0.435996 0.771628
O O5 0.753356 0.506712 0.319491
O O6 0.582031 0.417970 0.337837
O O7 0.679137 0.562056 0.421675
O O8 0.737488 0.474976 0.500000
O O9 0.858477 0.429239 0.500000
O O10 0.907553 0.092448 0.653389
O O11 0.000566 0.209702 0.760115
O O12 0.078813 0.157625 0.663134
O O13 0.008982 0.259105 0.623562
O O14 0.305458 0.354674 0.500000
O O15 0.170661 0.341321 0.423530
O O16 0.330953 0.437082 0.371748
O O17 0.411590 0.823179 0.302629
O O18 0.517338 0.758669 0.276891
O O19 0.386555 0.193278 0.897899
O O20 0.249963 0.030339 0.902326
O O21 0.376306 0.078960 0.000000
O O22 0.132840 0.066420 0.158057
O O23 0.096487 0.192974 0.132765
#
# Coordination Sequence:
#
# PCOD8327250 Si02
#       8
#    12  12   6  12  12  12  12  12
#     4  10  21  36  55  80 106 136 174 219 273 325
#     4   9  16  28  48  75 107 142 177 210 246 295
#     4   8  13  22  40  68 101 136 172 206 240 284
#     4   9  16  27  46  72 106 148 190 223 253 295
#     4   9  18  32  49  72 102 135 172 220 274 322
#     4  10  21  39  61  82 101 126 167 222 287 354
#     4  10  21  36  54  78 109 147 186 219 254 302
#     4   9  17  30  50  76 105 138 176 218 259 302
#
# _framework density 19.153658
#
# number of rings (size 3 to 8) (size 9 to 14) (size 15 to 20)
#    0.000    2.667    0.000    1.800    0.000    4.800 
#    1.200    0.667    0.000    2.667    0.000    0.000 
#    0.000    1.067    0.000    0.400    0.000    1.867 
#
# Total GULP energy -1115684.805919 kJ/mol
# GULP energy per Si atom -12396.497844 kJ/mol
# Density = 1.911006 g / cm^3
# Si number density = 19.153658 Si / 1000 Ang^3
#
#
#
# Elastic Constant Matrix: (Units=GPa)
#
#
# Indices 1 2 3 4 5 6 
#
# 1 71.1642 36.0666 52.7014 0.0000 0.0003 0.0000
# 2 36.0666 71.1642 52.7014 0.0000 -0.0003 0.0000
# 3 52.7014 52.7014 123.1528 0.0000 0.0000 0.0000
# 4 0.0000 0.0000 0.0000 25.1351 0.0000 -0.0003
# 5 0.0003 -0.0003 0.0000 0.0000 25.1351 0.0000
# 6 0.0000 0.0000 0.0000 -0.0003 0.0000 17.5488
#
#
#
# Elastic Compliance Matrix: (Units=1/GPa)
#
#
# Indices 1 2 3 4 5 6 
#
# 1 0.022294 -0.006198 -0.006888 0.000000 0.000000 0.000000
# 2 -0.006198 0.022294 -0.006888 0.000000 0.000000 0.000000
# 3 -0.006888 -0.006888 0.014015 0.000000 0.000000 0.000000
# 4 0.000000 0.000000 0.000000 0.039785 0.000000 0.000001
# 5 0.000000 0.000000 0.000000 0.000000 0.039785 0.000000
# 6 0.000000 0.000000 0.000000 0.000001 0.000000 0.056984
#
#
# Mechanical properties :
#
#
# Convention : Reuss Voigt Hill
#
# Bulk Modulus (GPa) = 53.60365 60.93555 57.26960
# Shear Modulus (GPa) = 20.71895 21.83125 21.27510
#
# Velocity S-wave (km/s) = 3.29252 3.37975 3.33642
# Velocity P-wave (km/s) = 6.51929 6.86392 6.69382
#
# Compressibility (1/GPa) = 0.01865545
#
# Stress axis : x y z
#
# Youngs Moduli (GPa) = 44.85459 44.85459 71.34973
#
# Poissons Ratio (x) = 0.27800 0.49148
# Poissons Ratio (y) = 0.27800 0.49148
# Poissons Ratio (z) = 0.30897 0.30897
#
# Static dielectric constant tensor:
#      x y z
#    x 3.381250 0.000000 0.000000 
#    y 0.000000 3.381250 0.000000 
#    z 0.000000 0.000000 3.549610 
# 
# 
# High freq. dielectric constant tensor:
#      x y z
#    x 1.741890 0.000000 0.000000 
#    y 0.000000 1.741890 0.000000 
#    z 0.000000 0.000000 1.731430 
# 
# From -- ./inp_files/3230.got.cif
#   From: 2010.03.12/outbox.cif.g09.slc.cpg/sg187_2_cif.got.tgz:3230.got - 2010.04.01 11:58:23.
