data_PCOD8327036
_publ_section_title
;
Structure prediction by ZEFSAII (Michael W. Deem and Ramdas Pophale) SiO2 
 PCOD8327036
Probable space group: P -6 M 2
;
_chemical_formula_sum "Si O2"
_cell_formula_units_Z 72
_cell_length_a 12.573210
_cell_length_b 12.573210
_cell_length_c 30.604926
_cell_angle_alpha 90.000000
_cell_angle_beta 90.000000
_cell_angle_gamma 120.000000
_cell_volume 4190.002711
_symmetry_space_group_name_H-M "P -6 M 2"
_symmetry_group_IT_number 187
_symmetry_cell_setting 'hexagonal'
loop_
_space_group_symop_operation_xyz
x,y,z
-x+y,-x,-z
-y,x-y,z
x,y,-z
-x+y,-x,z
-y,x-y,-z
-y,-x,-z
-x+y,y,-z
x,x-y,-z
-x+y,y,z
x,x-y,z
-y,-x,z
loop_
_atom_site_type_symbol
_atom_site_label
_atom_site_fract_x
_atom_site_fract_y
_atom_site_fract_z
Si Si1 0.335166 0.418897 0.500000
Si Si2 0.249197 0.001750 0.335196
Si Si3 0.084871 0.666233 0.000000
Si Si4 0.913812 0.332095 0.254157
Si Si5 0.915915 0.333162 0.582331
Si Si6 0.245418 0.999942 0.077265
Si Si7 0.754684 0.754921 0.823921
O O1 0.438361 0.561640 0.500000
O O2 0.203549 0.407097 0.500000
O O3 0.346389 0.350691 0.457757
O O4 0.130120 0.869881 0.339748
O O5 0.208428 0.104214 0.335960
O O6 0.317633 0.007355 0.290420
O O7 0.340920 0.020957 0.374390
O O8 0.013603 0.664622 0.043770
O O9 0.220152 0.779849 0.000000
O O10 0.095224 0.547612 0.000000
O O11 0.926750 0.463375 0.261252
O O12 0.770947 0.229054 0.257787
O O13 0.969019 0.328680 0.207112
O O14 0.894554 0.447277 0.588245
O O15 0.785302 0.214699 0.573166
O O16 0.253063 0.126532 0.066183
O O17 0.287859 0.995959 0.126711
O O18 0.105585 0.894416 0.070032
O O19 0.741249 0.870625 0.810053
O O20 0.897748 0.795495 0.819351
#
# Coordination Sequence:
#
# PCOD8327036 Si02
#       7
#     6  12   6  12  12  12  12
#     4  10  20  34  52  74 102 136 172 208 246 290
#     4  10  20  34  53  76 101 129 162 203 250 297
#     4  10  20  32  46  64  90 126 164 198 230 272
#     4  10  20  33  50  71  97 130 166 203 239 280
#     4  10  20  34  54  78 104 134 167 205 246 291
#     4   9  17  30  50  75  98 120 150 193 244 290
#     4   9  17  30  50  75 100 124 152 191 240 291
#
# _framework density 17.183759999999999
#
# number of rings (size 3 to 8) (size 9 to 14) (size 15 to 20)
#    0.000    2.333    0.000    3.000    0.000    2.000 
#    0.000    5.000    0.000   10.667    0.000    0.000 
#    0.000    0.000    0.000    0.000    0.000    0.000 
#
# Total GULP energy -892963.125082 kJ/mol
# GULP energy per Si atom -12402.265626 kJ/mol
# Density = 1.714465 g / cm^3
# Si number density = 17.183760 Si / 1000 Ang^3
#
#
#
# Elastic Constant Matrix: (Units=GPa)
#
#
# Indices 1 2 3 4 5 6 
#
# 1 90.7854 46.0437 48.1129 0.0000 0.0000 0.0000
# 2 46.0437 90.7854 48.1129 0.0000 0.0000 0.0000
# 3 48.1129 48.1129 116.8485 0.0000 0.0000 0.0000
# 4 0.0000 0.0000 0.0000 22.9248 0.0000 0.0000
# 5 0.0000 0.0000 0.0000 0.0000 22.9248 0.0000
# 6 0.0000 0.0000 0.0000 0.0000 0.0000 22.3709
#
#
#
# Elastic Compliance Matrix: (Units=1/GPa)
#
#
# Indices 1 2 3 4 5 6 
#
# 1 0.016319 -0.006032 -0.004236 0.000000 0.000000 0.000000
# 2 -0.006032 0.016319 -0.004236 0.000000 0.000000 0.000000
# 3 -0.004236 -0.004236 0.012046 0.000000 0.000000 0.000000
# 4 0.000000 0.000000 0.000000 0.043621 0.000000 0.000000
# 5 0.000000 0.000000 0.000000 0.000000 0.043621 0.000000
# 6 0.000000 0.000000 0.000000 0.000000 0.000000 0.044701
#
#
# Mechanical properties :
#
#
# Convention : Reuss Voigt Hill
#
# Bulk Modulus (GPa) = 63.78550 64.77314 64.27932
# Shear Modulus (GPa) = 23.71253 24.05411 23.88332
#
# Velocity S-wave (km/s) = 3.71878 3.74547 3.73215
# Velocity P-wave (km/s) = 7.45918 7.51538 7.48733
#
# Compressibility (1/GPa) = 0.01567754
#
# Stress axis : x y z
#
# Youngs Moduli (GPa) = 61.27875 61.27875 83.01294
#
# Poissons Ratio (x) = 0.36961 0.35163
# Poissons Ratio (y) = 0.36961 0.35163
# Poissons Ratio (z) = 0.25957 0.25957
#
# Static dielectric constant tensor:
#      x y z
#    x 3.057200 0.000000 0.000000 
#    y 0.000000 3.057200 0.000000 
#    z 0.000000 0.000000 3.496860 
# 
# 
# High freq. dielectric constant tensor:
#      x y z
#    x 1.655480 0.000000 0.000000 
#    y 0.000000 1.655480 0.000000 
#    z 0.000000 0.000000 1.683530 
# 
# From -- ./inp_files/4574.got.cif
#   From: 2010.03.12/outbox.cif.g09.slc.cpg/sg187_3_cif.got.tgz:4574.got - 2010.04.01 11:58:23.
