data_PCOD8327775
_publ_section_title
;
Structure prediction by ZEFSAII (Michael W. Deem and Ramdas Pophale) SiO2 
 PCOD8327775
Probable space group: P -6 2 M
;
_chemical_formula_sum "Si O2"
_cell_formula_units_Z 72
_cell_length_a 19.717581
_cell_length_b 19.717581
_cell_length_c 11.668854
_cell_angle_alpha 90.000000
_cell_angle_beta 90.000000
_cell_angle_gamma 120.000000
_cell_volume 3928.855941
_symmetry_space_group_name_H-M "P -6 2 M"
_symmetry_group_IT_number 189
_symmetry_cell_setting 'hexagonal'
loop_
_space_group_symop_operation_xyz
x,y,z
-x+y,-x,-z
-y,x-y,z
x,y,-z
-x+y,-x,z
-y,x-y,-z
x-y,-y,-z
-x,-x+y,-z
y,x,-z
y,x,z
x-y,-y,z
-x,-x+y,z
loop_
_atom_site_type_symbol
_atom_site_label
_atom_site_fract_x
_atom_site_fract_y
_atom_site_fract_z
Si Si1 0.908621 0.219497 0.500000
Si Si2 0.178171 0.844470 0.733018
Si Si3 0.090180 0.423987 0.870645
Si Si4 0.448100 0.615256 0.700087
Si Si5 0.085741 0.455757 0.500000
Si Si6 0.910343 0.820089 0.864885
Si Si7 0.280543 0.491931 0.634407
O O1 0.880297 0.168413 0.385726
O O2 0.865782 0.273888 0.500000
O O3 0.000000 0.265504 0.500000
O O4 0.263069 0.898118 0.789657
O O5 0.114186 0.848314 0.813921
O O6 0.168509 0.759573 0.703587
O O7 0.142273 0.513164 0.825838
O O8 0.000000 0.400226 0.867538
O O9 0.117209 0.420438 0.000000
O O10 0.494490 0.590037 0.612797
O O11 0.360024 0.545593 0.704152
O O12 0.459107 0.694949 0.645197
O O13 0.000000 0.382915 0.500000
O O14 0.855450 0.855450 0.821911
O O15 0.000000 0.880325 0.829892
O O16 0.902069 0.808961 0.000000
O O17 0.296040 0.482686 0.500000
#
# Coordination Sequence:
#
# PCOD8327775 Si02
#       7
#     6  12  12  12   6  12  12
#     4  11  18  29  52  84 114 140 172 220 278 334
#     4  11  20  34  56  85 116 145 181 224 280 337
#     4  10  20  35  55  80 108 138 177 227 278 324
#     4  11  20  33  52  77 107 141 187 228 274 319
#     4  11  18  29  51  78 106 134 176 232 278 320
#     4  10  21  39  63  88 112 143 187 237 285 337
#     4  11  19  34  52  80 109 147 187 233 277 324
#
# _framework density 18.325946999999999
#
# number of rings (size 3 to 8) (size 9 to 14) (size 15 to 20)
#    0.000    1.333    5.833    3.000    0.000    2.000 
#    0.000    6.250    0.000    2.000    0.000    1.167 
#    0.000    0.000    0.000    0.000    0.000    0.000 
#
# Total GULP energy -892269.921650 kJ/mol
# GULP energy per Si atom -12392.637801 kJ/mol
# Density = 1.828424 g / cm^3
# Si number density = 18.325947 Si / 1000 Ang^3
#
#
#
# Elastic Constant Matrix: (Units=GPa)
#
#
# Indices 1 2 3 4 5 6 
#
# 1 80.6591 30.0660 26.7220 0.0000 0.0000 0.0000
# 2 30.0660 80.6591 26.7220 0.0000 0.0000 0.0000
# 3 26.7220 26.7220 88.9450 0.0000 0.0000 0.0000
# 4 0.0000 0.0000 0.0000 25.6544 0.0000 0.0000
# 5 0.0000 0.0000 0.0000 0.0000 25.6544 0.0000
# 6 0.0000 0.0000 0.0000 0.0000 0.0000 25.2965
#
#
#
# Elastic Compliance Matrix: (Units=1/GPa)
#
#
# Indices 1 2 3 4 5 6 
#
# 1 0.015164 -0.004601 -0.003174 0.000000 0.000000 0.000000
# 2 -0.004601 0.015164 -0.003174 0.000000 0.000000 0.000000
# 3 -0.003174 -0.003174 0.013150 0.000000 0.000000 0.000000
# 4 0.000000 0.000000 0.000000 0.038980 0.000000 0.000000
# 5 0.000000 0.000000 0.000000 0.000000 0.038980 0.000000
# 6 0.000000 0.000000 0.000000 0.000000 0.000000 0.039531
#
#
# Mechanical properties :
#
#
# Convention : Reuss Voigt Hill
#
# Bulk Modulus (GPa) = 46.33493 46.36479 46.34986
# Shear Modulus (GPa) = 26.30757 26.43795 26.37276
#
# Velocity S-wave (km/s) = 3.79296 3.80235 3.79765
# Velocity P-wave (km/s) = 6.67238 6.68073 6.67656
#
# Compressibility (1/GPa) = 0.02158199
#
# Stress axis : x y z
#
# Youngs Moduli (GPa) = 65.94419 65.94419 76.04704
#
# Poissons Ratio (x) = 0.30342 0.24134
# Poissons Ratio (y) = 0.30342 0.24134
# Poissons Ratio (z) = 0.20927 0.20927
#
# Static dielectric constant tensor:
#      x y z
#    x 3.310920 0.000000 0.000000 
#    y 0.000000 3.310920 0.000000 
#    z 0.000000 0.000000 3.458640 
# 
# 
# High freq. dielectric constant tensor:
#      x y z
#    x 1.694770 0.000000 0.000000 
#    y 0.000000 1.694770 0.000000 
#    z 0.000000 0.000000 1.711700 
# 
# From -- ./inp_files/2103.got.cif
#   From: 2010.03.12/outbox.cif.g09.slc.cpg/sg189_2_cif.got.tgz:2103.got - 2010.04.01 12:03:36.
