data_PCOD8327386
_publ_section_title
;
Structure prediction by ZEFSAII (Michael W. Deem and Ramdas Pophale) SiO2 
 PCOD8327386
Probable space group: P -6 C 2
;
_chemical_formula_sum "Si O2"
_cell_formula_units_Z 72
_cell_length_a 23.778189
_cell_length_b 23.778189
_cell_length_c 9.291555
_cell_angle_alpha 90.000000
_cell_angle_beta 90.000000
_cell_angle_gamma 120.000000
_cell_volume 4549.635281
_symmetry_space_group_name_H-M "P -6 C 2"
_symmetry_group_IT_number 188
_symmetry_cell_setting 'hexagonal'
loop_
_space_group_symop_operation_xyz
x,y,z
-x+y,-x,1/2-z
-y,x-y,z
x,y,1/2-z
-x+y,-x,z
-y,x-y,1/2-z
-y,-x,-z
-x+y,y,-z
x,x-y,-z
-x+y,y,1/2+z
x,x-y,1/2+z
-y,-x,1/2+z
loop_
_atom_site_type_symbol
_atom_site_label
_atom_site_fract_x
_atom_site_fract_y
_atom_site_fract_z
Si Si1 0.221866 0.341963 0.591833
Si Si2 0.478683 0.407157 0.417280
Si Si3 0.993583 0.653607 0.580277
Si Si4 0.144812 0.956900 0.408703
Si Si5 0.552874 0.331389 0.081174
Si Si6 0.809313 0.079712 0.919246
O O1 0.230628 0.372045 0.750000
O O2 0.186378 0.372756 0.500000
O O3 0.292481 0.359072 0.531875
O O4 0.177148 0.264948 0.599500
O O5 0.477941 0.423507 0.250000
O O6 0.528022 0.471978 0.500000
O O7 0.408931 0.383107 0.485449
O O8 0.498844 0.352368 0.437806
O O9 0.991171 0.638401 0.750000
O O10 0.943963 0.678956 0.543817
O O11 0.124691 0.966815 0.250000
O O12 0.078463 0.921538 0.500000
O O13 0.198046 0.026455 0.474279
O O14 0.566987 0.326881 0.250000
O O15 0.618820 0.381181 0.000000
O O16 0.525145 0.262573 0.000000
O O17 0.821384 0.089997 0.750000
O O18 0.852846 0.147155 0.000000
#
# Coordination Sequence:
#
# PCOD8327386 Si02
#       6
#    12  12  12  12  12  12
#     4   8  14  25  42  64  88 112 136 165 203 244
#     4  10  21  35  50  67  87 116 153 188 225 274
#     4   9  18  32  47  64  90 120 147 180 222 265
#     4   8  14  25  40  58  79 104 135 169 207 252
#     4  10  20  33  48  65  84 107 140 186 239 289
#     4   9  18  30  43  62  88 115 144 182 228 274
#
# _framework density 15.825443999999999
#
# number of rings (size 3 to 8) (size 9 to 14) (size 15 to 20)
#    0.000    3.000    0.000    3.167    0.000    4.667 
#    0.000    6.667    0.000    0.333    0.000    0.000 
#    0.000    0.000    0.000    0.500    0.000    8.000 
#
# Total GULP energy -892411.269642 kJ/mol
# GULP energy per Si atom -12394.600967 kJ/mol
# Density = 1.578942 g / cm^3
# Si number density = 15.825444 Si / 1000 Ang^3
#
#
#
# Elastic Constant Matrix: (Units=GPa)
#
#
# Indices 1 2 3 4 5 6 
#
# 1 81.0875 52.2362 54.8484 0.0000 0.0000 0.0000
# 2 52.2362 81.0875 54.8484 0.0000 0.0000 0.0000
# 3 54.8484 54.8484 92.3971 0.0000 0.0000 0.0000
# 4 0.0000 0.0000 0.0000 25.3590 0.0000 0.0000
# 5 0.0000 0.0000 0.0000 0.0000 25.3590 0.0000
# 6 0.0000 0.0000 0.0000 0.0000 0.0000 14.4256
#
#
#
# Elastic Compliance Matrix: (Units=1/GPa)
#
#
# Indices 1 2 3 4 5 6 
#
# 1 0.024661 -0.010000 -0.008703 0.000000 0.000000 0.000000
# 2 -0.010000 0.024661 -0.008703 0.000000 0.000000 0.000000
# 3 -0.008703 -0.008703 0.021156 0.000000 0.000000 0.000000
# 4 0.000000 0.000000 0.000000 0.039434 0.000000 0.000000
# 5 0.000000 0.000000 0.000000 0.000000 0.039434 0.000000
# 6 0.000000 0.000000 0.000000 0.000000 0.000000 0.069321
#
#
# Mechanical properties :
#
#
# Convention : Reuss Voigt Hill
#
# Bulk Modulus (GPa) = 63.83460 64.27087 64.05274
# Shear Modulus (GPa) = 17.94044 19.20468 18.57256
#
# Velocity S-wave (km/s) = 3.37062 3.48736 3.42948
# Velocity P-wave (km/s) = 7.45469 7.54427 7.49961
#
# Compressibility (1/GPa) = 0.01566548
#
# Stress axis : x y z
#
# Youngs Moduli (GPa) = 40.54988 40.54988 47.26868
#
# Poissons Ratio (x) = 0.40548 0.41139
# Poissons Ratio (y) = 0.40548 0.41139
# Poissons Ratio (z) = 0.35292 0.35292
#
# Static dielectric constant tensor:
#      x y z
#    x 2.848820 0.000000 0.000000 
#    y 0.000000 2.848820 0.000000 
#    z 0.000000 0.000000 3.182380 
# 
# 
# High freq. dielectric constant tensor:
#      x y z
#    x 1.581400 0.000000 0.000000 
#    y 0.000000 1.581400 0.000000 
#    z 0.000000 0.000000 1.613710 
# 
# From -- ./inp_files/989.got.cif
#   From: 2010.03.12/outbox.cif.g09.slc.cpg/sg188_1_cif.got.tgz:989.got - 2010.04.01 12:01:06.
