data_PCOD8327065
_publ_section_title
;
Structure prediction by ZEFSAII (Michael W. Deem and Ramdas Pophale) SiO2 
 PCOD8327065
Probable space group: P -6 M 2
;
_chemical_formula_sum "Si O2"
_cell_formula_units_Z 66
_cell_length_a 12.776636
_cell_length_b 12.776636
_cell_length_c 27.790638
_cell_angle_alpha 90.000000
_cell_angle_beta 90.000000
_cell_angle_gamma 120.000000
_cell_volume 3928.820553
_symmetry_space_group_name_H-M "P -6 M 2"
_symmetry_group_IT_number 187
_symmetry_cell_setting 'hexagonal'
loop_
_space_group_symop_operation_xyz
x,y,z
-x+y,-x,-z
-y,x-y,z
x,y,-z
-x+y,-x,z
-y,x-y,-z
-y,-x,-z
-x+y,y,-z
x,x-y,-z
-x+y,y,z
x,x-y,z
-y,-x,z
loop_
_atom_site_type_symbol
_atom_site_label
_atom_site_fract_x
_atom_site_fract_y
_atom_site_fract_z
Si Si1 0.244745 0.244101 0.500000
Si Si2 0.666810 0.092693 0.417483
Si Si3 0.668081 0.578439 0.862611
Si Si4 0.759315 0.000099 0.944876
Si Si5 0.425096 0.092147 0.692301
Si Si6 0.756153 0.754762 0.775006
O O1 0.124154 0.248308 0.500000
O O2 0.317496 0.312168 0.547808
O O3 0.212227 0.106114 0.500000
O O4 0.540667 0.081334 0.431336
O O5 0.768921 0.231080 0.425884
O O6 0.667789 0.052729 0.362635
O O7 0.769800 0.539600 0.861869
O O8 0.539114 0.460887 0.857532
O O9 0.671948 0.645027 0.912319
O O10 0.685864 0.666995 0.818943
O O11 0.898353 0.101647 0.936178
O O12 0.745977 0.872989 0.929833
O O13 0.720888 0.999170 0.000000
O O14 0.539762 0.079525 0.706444
O O15 0.462444 0.231222 0.700928
O O16 0.312419 0.004885 0.725528
O O17 0.896587 0.793173 0.775421
O O18 0.745291 0.872646 0.779944
#
# Coordination Sequence:
#
# PCOD8327065 Si02
#       6
#     6  12  12  12  12  12
#     4  10  20  32  46  66  94 128 162 194 232 280
#     4   9  17  30  50  75  98 120 150 192 240 283
#     4  10  20  33  50  72  97 125 157 195 240 287
#     4   9  17  30  50  75 100 126 157 194 235 278
#     4   9  17  30  50  75 100 124 151 187 233 283
#     4  10  20  33  50  72  97 125 157 194 235 278
#
# _framework density 16.798933999999999
#
# number of rings (size 3 to 8) (size 9 to 14) (size 15 to 20)
#    0.000    2.545    0.000    2.364    0.000    3.273 
#    0.000    4.545    0.000   11.273    0.000    0.000 
#    0.000    0.000    0.000    0.000    0.000    0.000 
#
# Total GULP energy -818510.288396 kJ/mol
# GULP energy per Si atom -12401.671036 kJ/mol
# Density = 1.676070 g / cm^3
# Si number density = 16.798934 Si / 1000 Ang^3
#
#
#
# Elastic Constant Matrix: (Units=GPa)
#
#
# Indices 1 2 3 4 5 6 
#
# 1 117.2176 72.2955 67.3553 0.0000 -0.0002 0.0000
# 2 72.2955 117.2176 67.3553 0.0000 0.0002 0.0000
# 3 67.3553 67.3553 113.8167 0.0000 0.0000 0.0000
# 4 0.0000 0.0000 0.0000 23.4901 0.0000 0.0002
# 5 -0.0002 0.0002 0.0000 0.0000 23.4901 0.0000
# 6 0.0000 0.0000 0.0000 0.0002 0.0000 22.4610
#
#
#
# Elastic Compliance Matrix: (Units=1/GPa)
#
#
# Indices 1 2 3 4 5 6 
#
# 1 0.015684 -0.006576 -0.005390 0.000000 0.000000 0.000000
# 2 -0.006576 0.015684 -0.005390 0.000000 0.000000 0.000000
# 3 -0.005390 -0.005390 0.015166 0.000000 0.000000 0.000000
# 4 0.000000 0.000000 0.000000 0.042571 0.000000 0.000000
# 5 0.000000 0.000000 0.000000 0.000000 0.042571 0.000000
# 6 0.000000 0.000000 0.000000 0.000000 0.000000 0.044522
#
#
# Mechanical properties :
#
#
# Convention : Reuss Voigt Hill
#
# Bulk Modulus (GPa) = 84.59134 84.69600 84.64367
# Shear Modulus (GPa) = 23.27188 23.30463 23.28825
#
# Velocity S-wave (km/s) = 3.72603 3.72865 3.72734
# Velocity P-wave (km/s) = 8.30515 8.31048 8.30781
#
# Compressibility (1/GPa) = 0.01182154
#
# Stress axis : x y z
#
# Youngs Moduli (GPa) = 63.75758 63.75758 65.93900
#
# Poissons Ratio (x) = 0.41929 0.35541
# Poissons Ratio (y) = 0.41929 0.35541
# Poissons Ratio (z) = 0.34365 0.34365
#
# Static dielectric constant tensor:
#      x y z
#    x 2.961510 0.000000 0.000000 
#    y 0.000000 2.961510 0.000000 
#    z 0.000000 0.000000 3.512850 
# 
# 
# High freq. dielectric constant tensor:
#      x y z
#    x 1.632230 0.000000 0.000000 
#    y 0.000000 1.632230 0.000000 
#    z 0.000000 0.000000 1.667320 
# 
# From -- ./inp_files/4464.got.cif
#   From: 2010.03.12/outbox.cif.g09.slc.cpg/sg187_3_cif.got.tgz:4464.got - 2010.04.01 11:58:23.
