data_PCOD8327764
_publ_section_title
;
Structure prediction by ZEFSAII (Michael W. Deem and Ramdas Pophale) SiO2 
 PCOD8327764
Probable space group: P -6 2 M
;
_chemical_formula_sum "Si O2"
_cell_formula_units_Z 66
_cell_length_a 21.009353
_cell_length_b 21.009353
_cell_length_c 7.852409
_cell_angle_alpha 90.000000
_cell_angle_beta 90.000000
_cell_angle_gamma 120.000000
_cell_volume 3001.642046
_symmetry_space_group_name_H-M "P -6 2 M"
_symmetry_group_IT_number 189
_symmetry_cell_setting 'hexagonal'
loop_
_space_group_symop_operation_xyz
x,y,z
-x+y,-x,-z
-y,x-y,z
x,y,-z
-x+y,-x,z
-y,x-y,-z
x-y,-y,-z
-x,-x+y,-z
y,x,-z
y,x,z
x-y,-y,z
-x,-x+y,z
loop_
_atom_site_type_symbol
_atom_site_label
_atom_site_fract_x
_atom_site_fract_y
_atom_site_fract_z
Si Si1 0.841703 0.175016 0.803065
Si Si2 0.854328 0.441580 0.193661
Si Si3 0.349669 0.596111 0.500000
Si Si4 0.917745 0.339121 0.797280
Si Si5 0.917837 0.595093 0.305294
Si Si6 0.915818 0.083707 0.796985
O O1 0.875047 0.256427 0.721722
O O2 0.754979 0.134079 0.780280
O O3 0.877744 0.129064 0.722619
O O4 0.862314 0.185352 0.000000
O O5 0.793700 0.438442 0.322672
O O6 0.882783 0.388238 0.264519
O O7 0.916238 0.527511 0.202183
O O8 0.824267 0.420586 0.000000
O O9 0.268938 0.586911 0.500000
O O10 0.000000 0.376896 0.725349
O O11 0.917330 0.338974 0.000000
O O12 0.893366 0.571251 0.500000
O O13 0.000000 0.663269 0.294795
O O14 0.000000 0.122777 0.732563
O O15 0.871763 0.000000 0.726968
O O16 0.913132 0.082469 0.000000
#
# Coordination Sequence:
#
# PCOD8327764 Si02
#       6
#    12  12   6  12  12  12
#     4  10  20  34  58  87 118 154 201 255 309 371
#     4  11  23  41  68  93 123 166 214 259 314 380
#     4  10  26  44  63  92 136 168 200 264 312 372
#     4   9  19  36  59  88 120 158 202 253 312 371
#     4  11  24  41  61  86 121 164 205 257 320 379
#     4   9  16  27  47  79 119 159 199 248 306 368
#
# _framework density 21.987966
#
# number of rings (size 3 to 8) (size 9 to 14) (size 15 to 20)
#    0.182    1.818    0.909    2.364    2.545    6.545 
#    0.000    0.000    0.000    1.636    0.000    0.000 
#    0.000    1.455    0.000    0.000    0.000    0.000 
#
# Total GULP energy -818139.530032 kJ/mol
# GULP energy per Si atom -12396.053485 kJ/mol
# Density = 2.193792 g / cm^3
# Si number density = 21.987966 Si / 1000 Ang^3
#
#
#
# Elastic Constant Matrix: (Units=GPa)
#
#
# Indices 1 2 3 4 5 6 
#
# 1 129.2978 40.8033 3.9198 0.0000 0.0000 0.0000
# 2 40.8033 129.2978 3.9198 0.0000 0.0000 0.0000
# 3 3.9198 3.9198 53.4511 0.0000 0.0000 0.0000
# 4 0.0000 0.0000 0.0000 11.7388 0.0000 0.0000
# 5 0.0000 0.0000 0.0000 0.0000 11.7388 0.0000
# 6 0.0000 0.0000 0.0000 0.0000 0.0000 44.2472
#
#
#
# Elastic Compliance Matrix: (Units=1/GPa)
#
#
# Indices 1 2 3 4 5 6 
#
# 1 0.008599 -0.002701 -0.000433 0.000000 0.000000 0.000000
# 2 -0.002701 0.008599 -0.000433 0.000000 0.000000 0.000000
# 3 -0.000433 -0.000433 0.018772 0.000000 0.000000 0.000000
# 4 0.000000 0.000000 0.000000 0.085188 0.000000 0.000000
# 5 0.000000 0.000000 0.000000 0.000000 0.085188 0.000000
# 6 0.000000 0.000000 0.000000 0.000000 0.000000 0.022600
#
#
# Mechanical properties :
#
#
# Convention : Reuss Voigt Hill
#
# Bulk Modulus (GPa) = 34.67480 45.48139 40.07809
# Shear Modulus (GPa) = 20.35074 31.10521 25.72797
#
# Velocity S-wave (km/s) = 3.04557 3.76526 3.42437
# Velocity P-wave (km/s) = 5.30768 6.29543 5.82254
#
# Compressibility (1/GPa) = 0.02883939
#
# Stress axis : x y z
#
# Youngs Moduli (GPa) = 116.28627 116.28627 53.27041
#
# Poissons Ratio (x) = 0.31405 0.02304
# Poissons Ratio (y) = 0.31405 0.02304
# Poissons Ratio (z) = 0.05030 0.05030
#
# Static dielectric constant tensor:
#      x y z
#    x 4.046080 0.000000 0.000000 
#    y 0.000000 4.046080 0.000000 
#    z 0.000000 0.000000 3.489340 
# 
# 
# High freq. dielectric constant tensor:
#      x y z
#    x 1.871980 0.000000 0.000000 
#    y 0.000000 1.871980 0.000000 
#    z 0.000000 0.000000 1.830700 
# 
# From -- ./inp_files/1019.got.cif
#   From: 2010.03.12/outbox.cif.g09.slc.cpg/sg189_1_cif.got.tgz:1019.got - 2010.04.01 12:03:36.
