data_PCOD8327434
_publ_section_title
;
Structure prediction by ZEFSAII (Michael W. Deem and Ramdas Pophale) SiO2 
 PCOD8327434
Probable space group: P -6 C 2
;
_chemical_formula_sum "Si O2"
_cell_formula_units_Z 44
_cell_length_a 12.893630
_cell_length_b 12.893630
_cell_length_c 15.131928
_cell_angle_alpha 90.000000
_cell_angle_beta 90.000000
_cell_angle_gamma 120.000000
_cell_volume 2178.588991
_symmetry_space_group_name_H-M "P -6 C 2"
_symmetry_group_IT_number 188
_symmetry_cell_setting 'hexagonal'
loop_
_space_group_symop_operation_xyz
x,y,z
-x+y,-x,1/2-z
-y,x-y,z
x,y,1/2-z
-x+y,-x,z
-y,x-y,1/2-z
-y,-x,-z
-x+y,y,-z
x,x-y,-z
-x+y,y,1/2+z
x,x-y,1/2+z
-y,-x,1/2+z
loop_
_atom_site_type_symbol
_atom_site_label
_atom_site_fract_x
_atom_site_fract_y
_atom_site_fract_z
Si Si1 0.804978 0.055518 0.912522
Si Si2 0.383857 0.471303 0.582898
Si Si3 0.533186 0.473141 0.250000
Si Si4 0.000000 0.000000 0.397088
Si Si5 0.333335 0.666667 0.855718
Si Si6 0.799063 0.595670 0.750000
O O1 0.810430 0.145421 0.839525
O O2 0.876293 0.993911 0.868446
O O3 0.668232 0.954711 0.934560
O O4 0.870049 0.129952 0.000000
O O5 0.471393 0.528608 0.500000
O O6 0.466761 0.486093 0.664947
O O7 0.311968 0.540651 0.605784
O O8 0.435193 0.335863 0.250000
O O9 0.662656 0.482524 0.250000
O O10 0.000000 0.000000 0.500000
O O11 0.333334 0.666668 0.750000
#
# Coordination Sequence:
#
# PCOD8327434 Si02
#       6
#    12  12   6   4   4   6
#     4  10  22  40  62  90 122 159 204 252 306 369
#     4  11  23  40  64  90 124 164 207 257 315 369
#     4  10  21  38  58  90 123 160 206 254 306 372
#     4   9  21  40  59  85 121 149 193 250 296 355
#     4  12  25  44  61  91 128 163 211 263 313 382
#     4  10  21  36  60  86 121 160 200 250 302 362
#
# _framework density 20.196560000000002
#
# number of rings (size 3 to 8) (size 9 to 14) (size 15 to 20)
#    0.000    1.636    1.364    2.727    0.000    9.818 
#    0.000    0.000    0.000    8.727    0.000    0.000 
#    0.000    0.000    0.000    0.000    0.000    0.000 
#
# Total GULP energy -545464.678322 kJ/mol
# GULP energy per Si atom -12396.924507 kJ/mol
# Density = 2.015059 g / cm^3
# Si number density = 20.196560 Si / 1000 Ang^3
#
#
#
# Elastic Constant Matrix: (Units=GPa)
#
#
# Indices 1 2 3 4 5 6 
#
# 1 140.9306 80.1001 34.8363 -0.0005 -0.0002 -0.0001
# 2 80.1001 140.9309 34.8362 0.0006 -0.0001 0.0003
# 3 34.8363 34.8362 110.9553 0.0000 -0.0001 0.0000
# 4 -0.0005 0.0006 0.0000 39.1723 0.0002 -0.0001
# 5 -0.0002 -0.0001 -0.0001 0.0002 39.1728 -0.0007
# 6 -0.0001 0.0003 0.0000 -0.0001 -0.0007 30.4157
#
#
#
# Elastic Compliance Matrix: (Units=1/GPa)
#
#
# Indices 1 2 3 4 5 6 
#
# 1 0.010730 -0.005709 -0.001576 0.000000 0.000000 0.000000
# 2 -0.005709 0.010730 -0.001576 0.000000 0.000000 0.000000
# 3 -0.001576 -0.001576 0.010003 0.000000 0.000000 0.000000
# 4 0.000000 0.000000 0.000000 0.025528 0.000000 0.000000
# 5 0.000000 0.000000 0.000000 0.000000 0.025528 0.000001
# 6 0.000000 0.000000 0.000000 0.000000 0.000001 0.032878
#
#
# Mechanical properties :
#
#
# Convention : Reuss Voigt Hill
#
# Bulk Modulus (GPa) = 72.78549 76.92912 74.85730
# Shear Modulus (GPa) = 36.31074 37.95509 37.13291
#
# Velocity S-wave (km/s) = 4.24473 4.33977 4.29251
# Velocity P-wave (km/s) = 7.75502 7.95515 7.85572
#
# Compressibility (1/GPa) = 0.01373900
#
# Stress axis : x y z
#
# Youngs Moduli (GPa) = 93.19536 93.19555 99.97430
#
# Poissons Ratio (x) = 0.53205 0.15761
# Poissons Ratio (y) = 0.53205 0.15761
# Poissons Ratio (z) = 0.14692 0.14692
#
# Static dielectric constant tensor:
#      x y z
#    x -3.264030 0.000300 -0.000030 
#    y 0.000300 -3.264080 -0.000030 
#    z -0.000030 -0.000030 3.585040 
# 
# 
# High freq. dielectric constant tensor:
#      x y z
#    x 1.793140 0.000000 0.000000 
#    y 0.000000 1.793140 0.000000 
#    z 0.000000 0.000000 1.803990 
# 
# From -- ./inp_files/2951.got.cif
#   From: 2010.03.12/outbox.cif.g09.slc.cpg/sg188_2_cif.got.tgz:2951.got - 2010.04.01 12:01:06.
