data_PCOD8327403
_publ_section_title
;
Structure prediction by ZEFSAII (Michael W. Deem and Ramdas Pophale) SiO2 
 PCOD8327403
Probable space group: P -6 C 2
;
_chemical_formula_sum "Si O2"
_cell_formula_units_Z 64
_cell_length_a 15.322583
_cell_length_b 15.322583
_cell_length_c 16.838090
_cell_angle_alpha 90.000000
_cell_angle_beta 90.000000
_cell_angle_gamma 120.000000
_cell_volume 3423.634730
_symmetry_space_group_name_H-M "P -6 C 2"
_symmetry_group_IT_number 188
_symmetry_cell_setting 'hexagonal'
loop_
_space_group_symop_operation_xyz
x,y,z
-x+y,-x,1/2-z
-y,x-y,z
x,y,1/2-z
-x+y,-x,z
-y,x-y,1/2-z
-y,-x,-z
-x+y,y,-z
x,x-y,-z
-x+y,y,1/2+z
x,x-y,1/2+z
-y,-x,1/2+z
loop_
_atom_site_type_symbol
_atom_site_label
_atom_site_fract_x
_atom_site_fract_y
_atom_site_fract_z
Si Si1 0.134741 0.277501 0.343151
Si Si2 0.333334 0.666667 0.841539
Si Si3 0.423699 0.386902 0.972007
Si Si4 0.756847 0.673497 0.160260
Si Si5 0.262822 0.203279 0.068022
Si Si6 0.522685 0.708563 0.078456
O O1 0.154299 0.266198 0.250000
O O2 0.168739 0.214659 0.400919
O O3 0.194427 0.393680 0.369379
O O4 0.017775 0.238876 0.360351
O O5 0.333334 0.666668 0.750000
O O6 0.350735 0.577424 0.870427
O O7 0.418810 0.320245 0.895750
O O8 0.378203 0.454226 0.943437
O O9 0.539554 0.460446 0.000000
O O10 0.353533 0.311028 0.040345
O O11 0.723102 0.639840 0.250000
O O12 0.868962 0.694605 0.144901
O O13 0.231938 0.115969 0.000000
O O14 0.499170 0.749585 0.000000
#
# Coordination Sequence:
#
# PCOD8327403 Si02
#       6
#    12   4  12  12  12  12
#     4  10  20  36  57  83 120 154 187 235 287 337
#     4  12  25  35  49  84 121 155 199 237 274 329
#     4  10  20  35  57  83 109 148 193 232 283 338
#     4   9  20  37  58  83 119 152 186 237 291 342
#     4  10  20  35  60  85 111 148 196 238 283 351
#     4  11  20  35  55  77 113 154 193 230 275 331
#
# _framework density 18.693584000000001
#
# number of rings (size 3 to 8) (size 9 to 14) (size 15 to 20)
#    0.000    1.875    1.875    2.812    0.000    0.750 
#    1.125    1.875    4.125   10.125    0.000    0.000 
#    0.000    0.000    0.000    0.000    0.000    0.000 
#
# Total GULP energy -793253.275066 kJ/mol
# GULP energy per Si atom -12394.582423 kJ/mol
# Density = 1.865104 g / cm^3
# Si number density = 18.693584 Si / 1000 Ang^3
#
#
#
# Elastic Constant Matrix: (Units=GPa)
#
#
# Indices 1 2 3 4 5 6 
#
# 1 84.9024 37.7854 42.9263 0.0002 -0.0001 -0.0001
# 2 37.7854 84.9026 42.9263 -0.0002 0.0000 0.0001
# 3 42.9263 42.9263 103.3794 0.0000 0.0000 -0.0001
# 4 0.0002 -0.0002 0.0000 28.9137 0.0000 0.0000
# 5 -0.0001 0.0000 0.0000 0.0000 28.9136 0.0002
# 6 -0.0001 0.0001 -0.0001 0.0000 0.0002 23.5589
#
#
#
# Elastic Compliance Matrix: (Units=1/GPa)
#
#
# Indices 1 2 3 4 5 6 
#
# 1 0.016356 -0.004867 -0.004771 0.000000 0.000000 0.000000
# 2 -0.004867 0.016356 -0.004771 0.000000 0.000000 0.000000
# 3 -0.004771 -0.004771 0.013635 0.000000 0.000000 0.000000
# 4 0.000000 0.000000 0.000000 0.034586 0.000000 0.000000
# 5 0.000000 0.000000 0.000000 0.000000 0.034586 0.000000
# 6 0.000000 0.000000 0.000000 0.000000 0.000000 0.042447
#
#
# Mechanical properties :
#
#
# Convention : Reuss Voigt Hill
#
# Bulk Modulus (GPa) = 57.04313 57.82894 57.43604
# Shear Modulus (GPa) = 25.95695 26.24700 26.10197
#
# Velocity S-wave (km/s) = 3.73037 3.75115 3.74077
# Velocity P-wave (km/s) = 7.00965 7.05435 7.03204
#
# Compressibility (1/GPa) = 0.01753060
#
# Stress axis : x y z
#
# Youngs Moduli (GPa) = 61.13800 61.13822 73.34109
#
# Poissons Ratio (x) = 0.29758 0.34988
# Poissons Ratio (y) = 0.29758 0.34988
# Poissons Ratio (z) = 0.29167 0.29167
#
# Static dielectric constant tensor:
#      x y z
#    x 3.426870 0.000000 0.000000 
#    y 0.000000 3.426870 0.000000 
#    z 0.000000 0.000000 3.587030 
# 
# 
# High freq. dielectric constant tensor:
#      x y z
#    x 1.711300 0.000000 0.000000 
#    y 0.000000 1.711300 0.000000 
#    z 0.000000 0.000000 1.738250 
# 
# From -- ./inp_files/3046.got.cif
#   From: 2010.03.12/outbox.cif.g09.slc.cpg/sg188_2_cif.got.tgz:3046.got - 2010.04.01 12:01:06.
