data_PCOD8327349
_publ_section_title
;
Structure prediction by ZEFSAII (Michael W. Deem and Ramdas Pophale) SiO2 
 PCOD8327349
Probable space group: P -6 C 2
;
_chemical_formula_sum "Si O2"
_cell_formula_units_Z 72
_cell_length_a 23.452172
_cell_length_b 23.452172
_cell_length_c 9.034280
_cell_angle_alpha 90.000000
_cell_angle_beta 90.000000
_cell_angle_gamma 120.000000
_cell_volume 4303.187994
_symmetry_space_group_name_H-M "P -6 C 2"
_symmetry_group_IT_number 188
_symmetry_cell_setting 'hexagonal'
loop_
_space_group_symop_operation_xyz
x,y,z
-x+y,-x,1/2-z
-y,x-y,z
x,y,1/2-z
-x+y,-x,z
-y,x-y,1/2-z
-y,-x,-z
-x+y,y,-z
x,x-y,-z
-x+y,y,1/2+z
x,x-y,1/2+z
-y,-x,1/2+z
loop_
_atom_site_type_symbol
_atom_site_label
_atom_site_fract_x
_atom_site_fract_y
_atom_site_fract_z
Si Si1 0.547060 0.212804 0.073056
Si Si2 0.253534 0.388443 0.426956
Si Si3 0.857465 0.601967 0.919736
Si Si4 0.450406 0.004242 0.586502
Si Si5 0.374207 0.852174 0.590269
Si Si6 0.664711 0.996486 0.578649
O O1 0.557652 0.220494 0.250000
O O2 0.471265 0.158472 0.029370
O O3 0.594570 0.189140 0.000000
O O4 0.564650 0.282325 0.000000
O O5 0.249242 0.385047 0.250000
O O6 0.184089 0.368178 0.500000
O O7 0.307776 0.462087 0.482681
O O8 0.273792 0.335313 0.482743
O O9 0.838478 0.595903 0.750000
O O10 0.932310 0.661243 0.946680
O O11 0.812891 0.625782 0.000000
O O12 0.455479 0.036080 0.750000
O O13 0.519924 0.039848 0.500000
O O14 0.427308 0.928160 0.612510
O O15 0.401807 0.010080 0.475093
O O16 0.355165 0.816890 0.750000
O O17 0.409037 0.818073 0.500000
O O18 0.654310 0.975216 0.750000
#
# Coordination Sequence:
#
# PCOD8327349 Si02
#       6
#    12  12  12  12  12  12
#     4  10  19  32  47  65  88 118 156 199 245 291
#     4  10  20  33  49  72  97 124 155 190 233 282
#     4   9  20  35  50  67  89 119 157 196 237 282
#     4   9  16  26  40  61  87 116 148 183 222 266
#     4   8  15  26  41  61  85 112 145 178 214 258
#     4  10  19  32  48  68  93 121 152 190 234 283
#
# _framework density 16.731781999999999
#
# number of rings (size 3 to 8) (size 9 to 14) (size 15 to 20)
#    0.000    2.667    0.000    3.167    0.000    7.333 
#    0.000    1.667    0.000    0.333    0.000    0.000 
#    0.000    0.000    0.000    0.500    0.000    8.000 
#
# Total GULP energy -892060.751895 kJ/mol
# GULP energy per Si atom -12389.732665 kJ/mol
# Density = 1.669370 g / cm^3
# Si number density = 16.731782 Si / 1000 Ang^3
#
#
#
# Elastic Constant Matrix: (Units=GPa)
#
#
# Indices 1 2 3 4 5 6 
#
# 1 63.7274 41.0914 40.7476 -0.0001 0.0000 0.0000
# 2 41.0914 63.7274 40.7476 0.0001 0.0000 0.0000
# 3 40.7476 40.7476 82.6051 0.0000 0.0000 0.0000
# 4 -0.0001 0.0001 0.0000 21.0382 0.0000 0.0000
# 5 0.0000 0.0000 0.0000 0.0000 21.0382 -0.0001
# 6 0.0000 0.0000 0.0000 0.0000 -0.0001 11.3180
#
#
#
# Elastic Compliance Matrix: (Units=1/GPa)
#
#
# Indices 1 2 3 4 5 6 
#
# 1 0.029826 -0.014351 -0.007634 0.000000 0.000000 0.000000
# 2 -0.014351 0.029826 -0.007634 0.000000 0.000000 0.000000
# 3 -0.007634 -0.007634 0.019637 0.000000 0.000000 0.000000
# 4 0.000000 0.000000 0.000000 0.047533 0.000000 0.000000
# 5 0.000000 0.000000 0.000000 0.000000 0.047533 0.000000
# 6 0.000000 0.000000 0.000000 0.000000 0.000000 0.088355
#
#
# Mechanical properties :
#
#
# Convention : Reuss Voigt Hill
#
# Bulk Modulus (GPa) = 49.86829 50.58145 50.22487
# Shear Modulus (GPa) = 15.21464 16.51044 15.86254
#
# Velocity S-wave (km/s) = 3.01877 3.14470 3.08238
# Velocity P-wave (km/s) = 6.48228 6.59408 6.53842
#
# Compressibility (1/GPa) = 0.02005282
#
# Stress axis : x y z
#
# Youngs Moduli (GPa) = 33.52732 33.52732 50.92439
#
# Poissons Ratio (x) = 0.48115 0.38874
# Poissons Ratio (y) = 0.48115 0.38874
# Poissons Ratio (z) = 0.25594 0.25594
#
# Static dielectric constant tensor:
#      x y z
#    x 2.966810 0.000000 0.000000 
#    y 0.000000 2.966810 0.000000 
#    z 0.000000 0.000000 3.441840 
# 
# 
# High freq. dielectric constant tensor:
#      x y z
#    x 1.608590 0.000000 0.000000 
#    y 0.000000 1.608590 0.000000 
#    z 0.000000 0.000000 1.662090 
# 
# From -- ./inp_files/1029.got.cif
#   From: 2010.03.12/outbox.cif.g09.slc.cpg/sg188_1_cif.got.tgz:1029.got - 2010.04.01 12:01:06.
