data_PCOD8327544
_publ_section_title
;
Structure prediction by ZEFSAII (Michael W. Deem and Ramdas Pophale) SiO2 
 PCOD8327544
Probable space group: P -6 2 M
;
_chemical_formula_sum "Si O2"
_cell_formula_units_Z 48
_cell_length_a 18.142033
_cell_length_b 18.142033
_cell_length_c 8.529194
_cell_angle_alpha 90.000000
_cell_angle_beta 90.000000
_cell_angle_gamma 120.000000
_cell_volume 2431.143139
_symmetry_space_group_name_H-M "P -6 2 M"
_symmetry_group_IT_number 189
_symmetry_cell_setting 'hexagonal'
loop_
_space_group_symop_operation_xyz
x,y,z
-x+y,-x,-z
-y,x-y,z
x,y,-z
-x+y,-x,z
-y,x-y,-z
x-y,-y,-z
-x,-x+y,-z
y,x,-z
y,x,z
x-y,-y,z
-x,-x+y,z
loop_
_atom_site_type_symbol
_atom_site_label
_atom_site_fract_x
_atom_site_fract_y
_atom_site_fract_z
Si Si1 0.000000 0.785262 0.682358
Si Si2 0.802622 0.277226 0.187105
Si Si3 0.161011 0.615432 0.184596
Si Si4 0.626357 0.000000 0.816038
Si Si5 0.182494 0.902252 0.814065
O O1 0.000000 0.802363 0.500000
O O2 0.000000 0.698793 0.713381
O O3 0.085883 0.862940 0.754289
O O4 0.705425 0.236431 0.246872
O O5 0.843262 0.373477 0.253381
O O6 0.850830 0.228407 0.253279
O O7 0.806484 0.273562 0.000000
O O8 0.077562 0.615649 0.235112
O O9 0.169838 0.611406 0.000000
O O10 0.648070 0.000000 0.000000
O O11 0.236903 0.000000 0.757192
O O12 0.179112 0.896572 0.000000
#
# Coordination Sequence:
#
# PCOD8327544 Si02
#       5
#     6  12  12   6  12
#     4  12  24  40  62  82 109 150 197 238 287 350
#     4   9  16  27  47  82 121 151 179 223 279 329
#     4   9  16  25  45  78 116 147 180 226 275 327
#     4  10  18  32  54  82 111 146 189 234 279 326
#     4  10  21  38  61  88 116 145 185 237 297 355
#
# _framework density 19.743798000000002
#
# number of rings (size 3 to 8) (size 9 to 14) (size 15 to 20)
#    0.000    2.250    2.500    1.625    1.750    2.500 
#    0.750    0.000    0.000    1.500    0.000    0.000 
#    0.000    0.000    0.000    0.000    0.000    0.000 
#
# Total GULP energy -594762.288025 kJ/mol
# GULP energy per Si atom -12390.881001 kJ/mol
# Density = 1.969886 g / cm^3
# Si number density = 19.743798 Si / 1000 Ang^3
#
#
#
# Elastic Constant Matrix: (Units=GPa)
#
#
# Indices 1 2 3 4 5 6 
#
# 1 118.7309 89.2594 14.9554 0.0000 0.0000 0.0000
# 2 89.2594 118.7309 14.9554 0.0000 0.0000 0.0000
# 3 14.9554 14.9554 16.1213 0.0000 0.0000 0.0000
# 4 0.0000 0.0000 0.0000 5.1679 0.0000 0.0000
# 5 0.0000 0.0000 0.0000 0.0000 5.1679 0.0000
# 6 0.0000 0.0000 0.0000 0.0000 0.0000 14.7357
#
#
#
# Elastic Compliance Matrix: (Units=1/GPa)
#
#
# Indices 1 2 3 4 5 6 
#
# 1 0.019740 -0.014192 -0.005147 0.000000 0.000000 0.000000
# 2 -0.014192 0.019740 -0.005147 0.000000 0.000000 0.000000
# 3 -0.005147 -0.005147 0.071579 0.000000 0.000000 0.000000
# 4 0.000000 0.000000 0.000000 0.193504 0.000000 0.000000
# 5 0.000000 0.000000 0.000000 0.000000 0.193504 0.000000
# 6 0.000000 0.000000 0.000000 0.000000 0.000000 0.067862
#
#
# Mechanical properties :
#
#
# Convention : Reuss Voigt Hill
#
# Bulk Modulus (GPa) = 16.10622 54.65817 35.38220
# Shear Modulus (GPa) = 7.86664 13.97514 10.92089
#
# Velocity S-wave (km/s) = 1.99825 2.66338 2.35442
# Velocity P-wave (km/s) = 3.67414 6.09934 5.03494
#
# Compressibility (1/GPa) = 0.06208780
#
# Stress axis : x y z
#
# Youngs Moduli (GPa) = 50.65957 50.65957 13.97056
#
# Poissons Ratio (x) = 0.71894 0.07190
# Poissons Ratio (y) = 0.71894 0.07190
# Poissons Ratio (z) = 0.26074 0.26074
#
# Static dielectric constant tensor:
#      x y z
#    x 4.010530 0.000000 0.000000 
#    y 0.000000 4.010530 0.000000 
#    z 0.000000 0.000000 2.918970 
# 
# 
# High freq. dielectric constant tensor:
#      x y z
#    x 1.783380 0.000000 0.000000 
#    y 0.000000 1.783380 0.000000 
#    z 0.000000 0.000000 1.697620 
# 
# From -- ./inp_files/629.got.cif
#   From: 2010.03.12/outbox.cif.g09.slc.cpg/sg189_1_cif.got.tgz:629.got - 2010.04.01 12:03:36.
