data_PCOD8327390
_publ_section_title
;
Structure prediction by ZEFSAII (Michael W. Deem and Ramdas Pophale) SiO2 
 PCOD8327390
Probable space group: P -6 C 2
;
_chemical_formula_sum "Si O2"
_cell_formula_units_Z 52
_cell_length_a 15.447670
_cell_length_b 15.447670
_cell_length_c 15.448309
_cell_angle_alpha 90.000000
_cell_angle_beta 90.000000
_cell_angle_gamma 120.000000
_cell_volume 3192.548811
_symmetry_space_group_name_H-M "P -6 C 2"
_symmetry_group_IT_number 188
_symmetry_cell_setting 'hexagonal'
loop_
_space_group_symop_operation_xyz
x,y,z
-x+y,-x,1/2-z
-y,x-y,z
x,y,1/2-z
-x+y,-x,z
-y,x-y,1/2-z
-y,-x,-z
-x+y,y,-z
x,x-y,-z
-x+y,y,1/2+z
x,x-y,1/2+z
-y,-x,1/2+z
loop_
_atom_site_type_symbol
_atom_site_label
_atom_site_fract_x
_atom_site_fract_y
_atom_site_fract_z
Si Si1 0.463896 0.334082 0.499832
Si Si2 0.560241 0.781168 0.900442
Si Si3 0.333335 0.666668 0.353340
Si Si4 0.393591 0.982760 0.847033
Si Si5 0.592870 0.608709 0.346969
O O1 0.578259 0.421742 0.500000
O O2 0.460651 0.230326 0.500000
O O3 0.407025 0.339859 0.414633
O O4 0.406813 0.337654 0.585499
O O5 0.442771 0.729166 0.890676
O O6 0.601915 0.715737 0.855459
O O7 0.609204 0.889709 0.856304
O O8 0.591170 0.795585 0.000000
O O9 0.333334 0.666668 0.250000
O O10 0.405389 0.026152 0.750000
O O11 0.476697 0.950174 0.865376
O O12 0.623887 0.596188 0.250000
#
# Coordination Sequence:
#
# PCOD8327390 Si02
#       5
#    12  12   4  12  12
#     4  10  21  37  54  72  94 128 172 221 265 300
#     4  12  20  30  46  73 109 148 175 195 230 287
#     4  12  22  26  40  72 112 155 181 190 221 283
#     4  10  20  33  49  73 105 138 169 201 241 294
#     4  10  20  33  49  73 105 138 169 201 241 294
#
# _framework density 16.287928000000001
#
# number of rings (size 3 to 8) (size 9 to 14) (size 15 to 20)
#    0.000    1.385    4.615    3.000    0.000    0.923 
#    0.000    0.000    0.000    2.769    0.000    0.000 
#    9.231    0.000    2.769    0.000    0.000    0.000 
#
# Total GULP energy -644885.379731 kJ/mol
# GULP energy per Si atom -12401.641918 kJ/mol
# Density = 1.625086 g / cm^3
# Si number density = 16.287928 Si / 1000 Ang^3
#
#
#
# Elastic Constant Matrix: (Units=GPa)
#
#
# Indices 1 2 3 4 5 6 
#
# 1 96.2675 39.9163 42.5134 0.0001 -0.0005 -0.0005
# 2 39.9163 96.2650 42.5133 0.0000 -0.0006 -0.0005
# 3 42.5134 42.5133 135.7228 0.0002 -0.0001 -0.0001
# 4 0.0001 0.0000 0.0002 12.9860 0.0000 0.0000
# 5 -0.0005 -0.0006 -0.0001 0.0000 12.9857 0.0000
# 6 -0.0005 -0.0005 -0.0001 0.0000 0.0000 28.1751
#
#
#
# Elastic Compliance Matrix: (Units=1/GPa)
#
#
# Indices 1 2 3 4 5 6 
#
# 1 0.013437 -0.004309 -0.002859 0.000000 0.000000 0.000000
# 2 -0.004309 0.013437 -0.002859 0.000000 0.000000 0.000000
# 3 -0.002859 -0.002859 0.009159 0.000000 0.000000 0.000000
# 4 0.000000 0.000000 0.000000 0.077006 0.000000 0.000000
# 5 0.000000 0.000000 0.000000 0.000000 0.077008 0.000000
# 6 0.000000 0.000000 0.000000 0.000000 0.000000 0.035492
#
#
# Mechanical properties :
#
#
# Convention : Reuss Voigt Hill
#
# Bulk Modulus (GPa) = 62.58370 64.23792 63.41081
# Shear Modulus (GPa) = 19.92654 24.38350 22.15502
#
# Velocity S-wave (km/s) = 3.50150 3.87334 3.69211
# Velocity P-wave (km/s) = 7.40636 7.71546 7.56249
#
# Compressibility (1/GPa) = 0.01597860
#
# Stress axis : x y z
#
# Youngs Moduli (GPa) = 74.42081 74.41866 109.17926
#
# Poissons Ratio (x) = 0.32067 0.31217
# Poissons Ratio (y) = 0.32068 0.31218
# Poissons Ratio (z) = 0.21279 0.21279
#
# Static dielectric constant tensor:
#      x y z
#    x 2.798890 0.000000 0.000100 
#    y 0.000000 2.798890 -0.000050 
#    z 0.000100 -0.000050 4.057210 
# 
# 
# High freq. dielectric constant tensor:
#      x y z
#    x 1.595240 0.000000 0.000000 
#    y 0.000000 1.595240 0.000000 
#    z 0.000000 0.000000 1.652650 
# 
# From -- ./inp_files/2173.got.cif
#   From: 2010.03.12/outbox.cif.g09.slc.cpg/sg188_2_cif.got.tgz:2173.got - 2010.04.01 12:01:06.
