data_PCOD8327554
_publ_section_title
;
Structure prediction by ZEFSAII (Michael W. Deem and Ramdas Pophale) SiO2 
 PCOD8327554
Probable space group: P -6 2 M
;
_chemical_formula_sum "Si O2"
_cell_formula_units_Z 48
_cell_length_a 17.899157
_cell_length_b 17.899157
_cell_length_c 8.597739
_cell_angle_alpha 90.000000
_cell_angle_beta 90.000000
_cell_angle_gamma 120.000000
_cell_volume 2385.503421
_symmetry_space_group_name_H-M "P -6 2 M"
_symmetry_group_IT_number 189
_symmetry_cell_setting 'hexagonal'
loop_
_space_group_symop_operation_xyz
x,y,z
-x+y,-x,-z
-y,x-y,z
x,y,-z
-x+y,-x,z
-y,x-y,-z
x-y,-y,-z
-x,-x+y,-z
y,x,-z
y,x,z
x-y,-y,z
-x,-x+y,z
loop_
_atom_site_type_symbol
_atom_site_label
_atom_site_fract_x
_atom_site_fract_y
_atom_site_fract_z
Si Si1 0.217704 0.217704 0.819922
Si Si2 0.553201 0.387694 0.320646
Si Si3 0.723439 0.516934 0.818008
Si Si4 0.373491 0.373491 0.676656
Si Si5 0.811554 0.713960 0.814200
O O1 0.306132 0.306132 0.797028
O O2 0.229434 0.139825 0.749482
O O3 0.198982 0.198982 0.000000
O O4 0.581054 0.404715 0.500000
O O5 0.622005 0.468273 0.218752
O O6 0.541677 0.296685 0.268643
O O7 0.463899 0.382411 0.287165
O O8 0.768943 0.615320 0.753582
O O9 0.740866 0.517742 0.000000
O O10 0.342804 0.342804 0.500000
O O11 0.757064 0.757064 0.749428
O O12 0.810841 0.713544 0.000000
#
# Coordination Sequence:
#
# PCOD8327554 Si02
#       5
#     6  12  12   6  12
#     4  10  18  36  64  86 113 150 192 239 288 347
#     4  11  23  39  57  81 115 151 190 235 284 340
#     4  11  22  37  59  84 115 152 194 238 283 337
#     4  10  22  38  58  82 111 148 192 237 282 341
#     4   9  19  35  56  87 120 148 184 236 292 343
#
# _framework density 20.121538000000001
#
# number of rings (size 3 to 8) (size 9 to 14) (size 15 to 20)
#    0.000    1.750    2.500    2.000    1.750    1.000 
#    0.750    0.000    0.000    3.750    0.000    0.000 
#    0.000    0.000    0.000    0.000    0.000    0.000 
#
# Total GULP energy -595149.977397 kJ/mol
# GULP energy per Si atom -12398.957862 kJ/mol
# Density = 2.007574 g / cm^3
# Si number density = 20.121538 Si / 1000 Ang^3
#
#
#
# Elastic Constant Matrix: (Units=GPa)
#
#
# Indices 1 2 3 4 5 6 
#
# 1 101.5818 75.8857 12.5834 0.0000 0.0000 0.0000
# 2 75.8857 101.5818 12.5834 0.0000 0.0000 0.0000
# 3 12.5834 12.5834 18.1442 0.0000 0.0000 0.0000
# 4 0.0000 0.0000 0.0000 27.7266 0.0000 0.0000
# 5 0.0000 0.0000 0.0000 0.0000 27.7266 0.0000
# 6 0.0000 0.0000 0.0000 0.0000 0.0000 12.8480
#
#
#
# Elastic Compliance Matrix: (Units=1/GPa)
#
#
# Indices 1 2 3 4 5 6 
#
# 1 0.022583 -0.016334 -0.004334 0.000000 0.000000 0.000000
# 2 -0.016334 0.022583 -0.004334 0.000000 0.000000 0.000000
# 3 -0.004334 -0.004334 0.061125 0.000000 0.000000 0.000000
# 4 0.000000 0.000000 0.000000 0.036066 0.000000 0.000000
# 5 0.000000 0.000000 0.000000 0.000000 0.036066 0.000000
# 6 0.000000 0.000000 0.000000 0.000000 0.000000 0.077833
#
#
# Mechanical properties :
#
#
# Convention : Reuss Voigt Hill
#
# Bulk Modulus (GPa) = 17.76579 47.04586 32.40582
# Shear Modulus (GPa) = 15.38351 21.67727 18.53039
#
# Velocity S-wave (km/s) = 2.76801 3.28581 3.03796
# Velocity P-wave (km/s) = 4.36626 6.15037 5.33345
#
# Compressibility (1/GPa) = 0.05628795
#
# Stress axis : x y z
#
# Youngs Moduli (GPa) = 44.28114 44.28114 16.35979
#
# Poissons Ratio (x) = 0.72327 0.07091
# Poissons Ratio (y) = 0.72327 0.07091
# Poissons Ratio (z) = 0.19192 0.19192
#
# Static dielectric constant tensor:
#      x y z
#    x 3.808930 0.000000 0.000000 
#    y 0.000000 3.808930 0.000000 
#    z 0.000000 0.000000 3.329400 
# 
# 
# High freq. dielectric constant tensor:
#      x y z
#    x 1.793090 0.000000 0.000000 
#    y 0.000000 1.793090 0.000000 
#    z 0.000000 0.000000 1.755240 
# 
# From -- ./inp_files/636.got.cif
#   From: 2010.03.12/outbox.cif.g09.slc.cpg/sg189_1_cif.got.tgz:636.got - 2010.04.01 12:03:36.
