data_PCOD8327275
_publ_section_title
;
Structure prediction by ZEFSAII (Michael W. Deem and Ramdas Pophale) SiO2 
 PCOD8327275
Probable space group: P -6 M 2
;
_chemical_formula_sum "Si O2"
_cell_formula_units_Z 36
_cell_length_a 15.953862
_cell_length_b 15.953862
_cell_length_c 9.776268
_cell_angle_alpha 90.000000
_cell_angle_beta 90.000000
_cell_angle_gamma 120.000000
_cell_volume 2154.941041
_symmetry_space_group_name_H-M "P -6 M 2"
_symmetry_group_IT_number 187
_symmetry_cell_setting 'hexagonal'
loop_
_space_group_symop_operation_xyz
x,y,z
-x+y,-x,-z
-y,x-y,z
x,y,-z
-x+y,-x,z
-y,x-y,-z
-y,-x,-z
-x+y,y,-z
x,x-y,-z
-x+y,y,z
x,x-y,z
-y,-x,z
loop_
_atom_site_type_symbol
_atom_site_label
_atom_site_fract_x
_atom_site_fract_y
_atom_site_fract_z
Si Si1 0.757432 0.705236 0.159639
Si Si2 0.858318 0.333241 0.655570
Si Si3 0.272790 0.545580 0.161108
Si Si4 0.164507 0.835494 0.161693
O O1 0.869667 0.739333 0.192395
O O2 0.685339 0.610271 0.242423
O O3 0.733585 0.787056 0.209444
O O4 0.735100 0.681609 0.000000
O O5 0.891545 0.332491 0.500000
O O6 0.871204 0.435602 0.696124
O O7 0.746435 0.253566 0.674941
O O8 0.388213 0.611788 0.201616
O O9 0.219042 0.438084 0.228565
O O10 0.265097 0.530194 0.000000
O O11 0.169733 0.830268 0.000000
#
# Coordination Sequence:
#
# PCOD8327275 Si02
#       4
#    12  12   6   6
#     4   9  18  31  45  66  94 120 154 198 237 276
#     4   9  17  30  48  69  94 124 155 186 224 277
#     4   7  12  22  36  57  83 109 143 183 218 263
#     4   9  16  28  45  63  89 123 153 187 236 283
#
# _framework density 16.705794000000001
#
# number of rings (size 3 to 8) (size 9 to 14) (size 15 to 20)
#    0.333    3.000    0.000    0.333    0.000    3.333 
#    1.000    4.167    0.000    2.000    0.000    0.000 
#    0.000    0.000    0.000    0.000    0.000    0.000 
#
# Total GULP energy -446030.801365 kJ/mol
# GULP energy per Si atom -12389.744482 kJ/mol
# Density = 1.666777 g / cm^3
# Si number density = 16.705794 Si / 1000 Ang^3
#
#
#
# Elastic Constant Matrix: (Units=GPa)
#
#
# Indices 1 2 3 4 5 6 
#
# 1 134.0596 92.9253 41.6593 0.0000 0.0001 0.0000
# 2 92.9253 134.0596 41.6593 0.0000 -0.0001 0.0000
# 3 41.6593 41.6593 39.9977 0.0000 0.0000 0.0000
# 4 0.0000 0.0000 0.0000 15.5137 0.0000 -0.0001
# 5 0.0001 -0.0001 0.0000 0.0000 15.5137 0.0000
# 6 0.0000 0.0000 0.0000 -0.0001 0.0000 20.5672
#
#
#
# Elastic Compliance Matrix: (Units=1/GPa)
#
#
# Indices 1 2 3 4 5 6 
#
# 1 0.015722 -0.008589 -0.007429 0.000000 0.000000 0.000000
# 2 -0.008589 0.015722 -0.007429 0.000000 0.000000 0.000000
# 3 -0.007429 -0.007429 0.040476 0.000000 0.000000 0.000000
# 4 0.000000 0.000000 0.000000 0.064459 0.000000 0.000000
# 5 0.000000 0.000000 0.000000 0.000000 0.064459 0.000000
# 6 0.000000 0.000000 0.000000 0.000000 0.000000 0.048621
#
#
# Mechanical properties :
#
#
# Convention : Reuss Voigt Hill
#
# Bulk Modulus (GPa) = 39.95831 73.40052 56.67941
# Shear Modulus (GPa) = 16.40991 19.11043 17.76017
#
# Velocity S-wave (km/s) = 3.13755 3.38589 3.26408
# Velocity P-wave (km/s) = 6.09068 7.70183 6.94315
#
# Compressibility (1/GPa) = 0.02502608
#
# Stress axis : x y z
#
# Youngs Moduli (GPa) = 63.60713 63.60713 24.70592
#
# Poissons Ratio (x) = 0.54633 0.18353
# Poissons Ratio (y) = 0.54633 0.18353
# Poissons Ratio (z) = 0.47252 0.47252
#
# Static dielectric constant tensor:
#      x y z
#    x 3.304560 0.000000 0.000000 
#    y 0.000000 3.304560 0.000000 
#    z 0.000000 0.000000 2.849660 
# 
# 
# High freq. dielectric constant tensor:
#      x y z
#    x 1.641410 0.000000 0.000000 
#    y 0.000000 1.641410 0.000000 
#    z 0.000000 0.000000 1.607290 
# 
# From -- ./inp_files/268.got.cif
#   From: 2010.03.12/outbox.cif.g09.slc.cpg/sg187_1_cif.got.tgz:268.got - 2010.04.01 11:58:23.
