data_PCOD8327688
_publ_section_title
;
Structure prediction by ZEFSAII (Michael W. Deem and Ramdas Pophale) SiO2 
 PCOD8327688
Probable space group: P -6 2 M
;
_chemical_formula_sum "Si O2"
_cell_formula_units_Z 72
_cell_length_a 15.094445
_cell_length_b 15.094445
_cell_length_c 18.580232
_cell_angle_alpha 90.000000
_cell_angle_beta 90.000000
_cell_angle_gamma 120.000000
_cell_volume 3666.199238
_symmetry_space_group_name_H-M "P -6 2 M"
_symmetry_group_IT_number 189
_symmetry_cell_setting 'hexagonal'
loop_
_space_group_symop_operation_xyz
x,y,z
-x+y,-x,-z
-y,x-y,z
x,y,-z
-x+y,-x,z
-y,x-y,-z
x-y,-y,-z
-x,-x+y,-z
y,x,-z
y,x,z
x-y,-y,z
-x,-x+y,z
loop_
_atom_site_type_symbol
_atom_site_label
_atom_site_fract_x
_atom_site_fract_y
_atom_site_fract_z
Si Si1 0.666879 0.779092 0.852180
Si Si2 0.246779 0.880388 0.579420
Si Si3 0.881907 0.120425 0.296097
Si Si4 0.880097 0.560680 0.920589
Si Si5 0.470787 0.585686 0.813617
Si Si6 0.343050 0.782628 0.663778
O O1 0.759131 0.759131 0.878144
O O2 0.688537 0.819446 0.770449
O O3 0.653183 0.859145 0.900789
O O4 0.561548 0.672514 0.860711
O O5 0.210284 0.830641 0.500000
O O6 0.151033 0.838495 0.634111
O O7 0.336766 0.861475 0.609411
O O8 0.294470 0.000000 0.573395
O O9 0.000000 0.151785 0.306634
O O10 0.815461 0.000000 0.283287
O O11 0.835203 0.468811 0.861548
O O12 0.000000 0.605521 0.922891
O O13 0.834035 0.518147 0.000000
O O14 0.501755 0.501755 0.788297
O O15 0.462185 0.645327 0.745910
O O16 0.236475 0.674740 0.650143
#
# Coordination Sequence:
#
# PCOD8327688 Si02
#       6
#    12  12  12  12  12  12
#     4  10  20  36  60  85 113 153 196 237 284 344
#     4  10  21  39  60  82 114 154 193 238 293 347
#     4  10  20  36  59  88 118 151 192 240 292 349
#     4  10  22  38  56  83 119 153 189 240 293 340
#     4  10  19  35  58  81 111 146 188 234 285 344
#     4  10  21  34  56  83 110 146 190 237 283 340
#
# _framework density 19.638866
#
# number of rings (size 3 to 8) (size 9 to 14) (size 15 to 20)
#    0.333    1.667    1.667    2.167    0.000    2.000 
#    1.000    2.500    0.000    1.333    0.000    0.000 
#    0.000    0.000    0.000    0.000    0.000    0.000 
#
# Total GULP energy -892145.149032 kJ/mol
# GULP energy per Si atom -12390.904848 kJ/mol
# Density = 1.959417 g / cm^3
# Si number density = 19.638866 Si / 1000 Ang^3
#
#
#
# Elastic Constant Matrix: (Units=GPa)
#
#
# Indices 1 2 3 4 5 6 
#
# 1 72.3400 19.5837 38.1288 0.0000 0.0000 0.0000
# 2 19.5837 72.3400 38.1288 0.0000 0.0000 0.0000
# 3 38.1288 38.1288 101.1831 0.0000 0.0000 0.0000
# 4 0.0000 0.0000 0.0000 22.3142 0.0000 0.0000
# 5 0.0000 0.0000 0.0000 0.0000 22.3142 0.0000
# 6 0.0000 0.0000 0.0000 0.0000 0.0000 26.3782
#
#
#
# Elastic Compliance Matrix: (Units=1/GPa)
#
#
# Indices 1 2 3 4 5 6 
#
# 1 0.017390 -0.001565 -0.005964 0.000000 0.000000 0.000000
# 2 -0.001565 0.017390 -0.005964 0.000000 0.000000 0.000000
# 3 -0.005964 -0.005964 0.014378 0.000000 0.000000 0.000000
# 4 0.000000 0.000000 0.000000 0.044814 0.000000 0.000000
# 5 0.000000 0.000000 0.000000 0.000000 0.044814 0.000000
# 6 0.000000 0.000000 0.000000 0.000000 0.000000 0.037910
#
#
# Mechanical properties :
#
#
# Convention : Reuss Voigt Hill
#
# Bulk Modulus (GPa) = 45.09632 48.61622 46.85627
# Shear Modulus (GPa) = 23.68848 24.20279 23.94563
#
# Velocity S-wave (km/s) = 3.47681 3.51435 3.49563
# Velocity P-wave (km/s) = 6.25542 6.42467 6.34061
#
# Compressibility (1/GPa) = 0.02217476
#
# Stress axis : x y z
#
# Youngs Moduli (GPa) = 57.50271 57.50271 69.55237
#
# Poissons Ratio (x) = 0.08997 0.41479
# Poissons Ratio (y) = 0.08997 0.41479
# Poissons Ratio (z) = 0.34293 0.34293
#
# Static dielectric constant tensor:
#      x y z
#    x 3.549080 0.000000 0.000000 
#    y 0.000000 3.549080 0.000000 
#    z 0.000000 0.000000 3.747040 
# 
# 
# High freq. dielectric constant tensor:
#      x y z
#    x 1.756320 0.000000 0.000000 
#    y 0.000000 1.756320 0.000000 
#    z 0.000000 0.000000 1.754900 
# 
# From -- ./inp_files/3106.got.cif
#   From: 2010.03.12/outbox.cif.g09.slc.cpg/sg189_2_cif.got.tgz:3106.got - 2010.04.01 12:03:36.
