data_PCOD8327389
_publ_section_title
;
Structure prediction by ZEFSAII (Michael W. Deem and Ramdas Pophale) SiO2 
 PCOD8327389
Probable space group: P -6 C 2
;
_chemical_formula_sum "Si O2"
_cell_formula_units_Z 72
_cell_length_a 23.489724
_cell_length_b 23.489724
_cell_length_c 8.780979
_cell_angle_alpha 90.000000
_cell_angle_beta 90.000000
_cell_angle_gamma 120.000000
_cell_volume 4195.941244
_symmetry_space_group_name_H-M "P -6 C 2"
_symmetry_group_IT_number 188
_symmetry_cell_setting 'hexagonal'
loop_
_space_group_symop_operation_xyz
x,y,z
-x+y,-x,1/2-z
-y,x-y,z
x,y,1/2-z
-x+y,-x,z
-y,x-y,1/2-z
-y,-x,-z
-x+y,y,-z
x,x-y,-z
-x+y,y,1/2+z
x,x-y,1/2+z
-y,-x,1/2+z
loop_
_atom_site_type_symbol
_atom_site_label
_atom_site_fract_x
_atom_site_fract_y
_atom_site_fract_z
Si Si1 0.542854 0.208931 0.067673
Si Si2 0.253631 0.387992 0.569644
Si Si3 0.856889 0.594776 0.071596
Si Si4 0.555763 0.005094 0.582362
Si Si5 0.373086 0.853147 0.414168
Si Si6 0.668308 0.998561 0.076409
O O1 0.547274 0.212878 0.250000
O O2 0.596094 0.192188 0.000000
O O3 0.556203 0.278102 0.000000
O O4 0.470163 0.151575 0.015184
O O5 0.251184 0.389861 0.750000
O O6 0.182810 0.365619 0.500000
O O7 0.307523 0.460653 0.505228
O O8 0.274063 0.333585 0.525146
O O9 0.841767 0.577461 0.250000
O O10 0.928997 0.659807 0.048714
O O11 0.808070 0.616139 0.000000
O O12 0.583719 0.036974 0.750000
O O13 0.520249 0.040498 0.500000
O O14 0.503463 0.929067 0.609383
O O15 0.609558 0.011184 0.464791
O O16 0.352009 0.818079 0.250000
O O17 0.409570 0.819139 0.500000
O O18 0.662512 0.975628 0.250000
#
# Coordination Sequence:
#
# PCOD8327389 Si02
#       6
#    12  12  12  12  12  12
#     4  11  21  34  51  70  94 124 162 207 254 301
#     4  10  20  33  50  73  99 126 157 193 237 286
#     4  10  21  36  52  70  92 122 160 200 243 289
#     4   9  16  26  41  62  88 117 149 185 225 268
#     4   8  15  26  41  62  86 114 147 181 218 262
#     4  10  20  33  49  69  94 123 155 192 236 286
#
# _framework density 17.159438999999999
#
# number of rings (size 3 to 8) (size 9 to 14) (size 15 to 20)
#    0.000    2.333    0.000    5.667    0.000    8.000 
#    0.000    0.000    0.000    0.333    0.000    0.000 
#    0.000    0.000    0.000    0.500    0.000    8.000 
#
# Total GULP energy -892089.758146 kJ/mol
# GULP energy per Si atom -12390.135530 kJ/mol
# Density = 1.712038 g / cm^3
# Si number density = 17.159439 Si / 1000 Ang^3
#
#
#
# Elastic Constant Matrix: (Units=GPa)
#
#
# Indices 1 2 3 4 5 6 
#
# 1 66.3033 43.7404 35.1672 0.0000 0.0000 0.0000
# 2 43.7404 66.3033 35.1672 0.0000 0.0000 0.0000
# 3 35.1672 35.1672 103.5540 0.0000 0.0000 0.0000
# 4 0.0000 0.0000 0.0000 21.2433 0.0000 0.0000
# 5 0.0000 0.0000 0.0000 0.0000 21.2433 0.0000
# 6 0.0000 0.0000 0.0000 0.0000 0.0000 11.2815
#
#
#
# Elastic Compliance Matrix: (Units=1/GPa)
#
#
# Indices 1 2 3 4 5 6 
#
# 1 0.027964 -0.016357 -0.003942 0.000000 0.000000 0.000000
# 2 -0.016357 0.027964 -0.003942 0.000000 0.000000 0.000000
# 3 -0.003942 -0.003942 0.012334 0.000000 0.000000 0.000000
# 4 0.000000 0.000000 0.000000 0.047074 0.000000 0.000000
# 5 0.000000 0.000000 0.000000 0.000000 0.047074 0.000000
# 6 0.000000 0.000000 0.000000 0.000000 0.000000 0.088641
#
#
# Mechanical properties :
#
#
# Convention : Reuss Voigt Hill
#
# Bulk Modulus (GPa) = 50.55450 51.59003 51.07227
# Shear Modulus (GPa) = 16.33328 18.89266 17.61297
#
# Velocity S-wave (km/s) = 3.08856 3.32174 3.20727
# Velocity P-wave (km/s) = 6.49958 6.69644 6.59874
#
# Compressibility (1/GPa) = 0.01978063
#
# Stress axis : x y z
#
# Youngs Moduli (GPa) = 35.76083 35.76083 81.07691
#
# Poissons Ratio (x) = 0.58494 0.31957
# Poissons Ratio (y) = 0.58494 0.31957
# Poissons Ratio (z) = 0.14096 0.14096
#
# Static dielectric constant tensor:
#      x y z
#    x 3.077060 0.000000 0.000000 
#    y 0.000000 3.077060 0.000000 
#    z 0.000000 0.000000 3.532310 
# 
# 
# High freq. dielectric constant tensor:
#      x y z
#    x 1.628170 0.000000 0.000000 
#    y 0.000000 1.628170 0.000000 
#    z 0.000000 0.000000 1.681400 
# 
# From -- ./inp_files/996.got.cif
#   From: 2010.03.12/outbox.cif.g09.slc.cpg/sg188_1_cif.got.tgz:996.got - 2010.04.01 12:01:06.
