data_PCOD8327111
_publ_section_title
;
Structure prediction by ZEFSAII (Michael W. Deem and Ramdas Pophale) SiO2 
 PCOD8327111
Probable space group: P -6 M 2
;
_chemical_formula_sum "Si O2"
_cell_formula_units_Z 60
_cell_length_a 12.662123
_cell_length_b 12.662123
_cell_length_c 26.081725
_cell_angle_alpha 90.000000
_cell_angle_beta 90.000000
_cell_angle_gamma 120.000000
_cell_volume 3621.429200
_symmetry_space_group_name_H-M "P -6 M 2"
_symmetry_group_IT_number 187
_symmetry_cell_setting 'hexagonal'
loop_
_space_group_symop_operation_xyz
x,y,z
-x+y,-x,-z
-y,x-y,z
x,y,-z
-x+y,-x,z
-y,x-y,-z
-y,-x,-z
-x+y,y,-z
x,x-y,-z
-x+y,y,z
x,x-y,z
-y,-x,z
loop_
_atom_site_type_symbol
_atom_site_label
_atom_site_fract_x
_atom_site_fract_y
_atom_site_fract_z
Si Si1 0.422063 0.087441 0.852345
Si Si2 0.424535 0.088872 0.554188
Si Si3 0.334456 0.420312 0.242920
Si Si4 0.333599 0.909973 0.058571
Si Si5 0.916432 0.335180 0.334604
O O1 0.564408 0.128815 0.852470
O O2 0.408425 0.204213 0.844594
O O3 0.352442 0.995068 0.806619
O O4 0.359084 0.023385 0.905826
O O5 0.367791 0.013464 0.500000
O O6 0.567587 0.135174 0.555468
O O7 0.407862 0.203931 0.552260
O O8 0.368738 0.021677 0.608616
O O9 0.207476 0.414952 0.237485
O O10 0.439764 0.560237 0.247708
O O11 0.330694 0.344252 0.293084
O O12 0.436113 0.872225 0.067815
O O13 0.205313 0.794688 0.073720
O O14 0.334220 0.950021 0.000000
O O15 0.885751 0.442876 0.325198
O O16 0.791921 0.208080 0.328405
#
# Coordination Sequence:
#
# PCOD8327111 Si02
#       5
#    12  12  12  12  12
#     4  10  20  33  50  72  97 123 149 181 225 276
#     4   8  12  18  31  55  87 118 144 171 208 257
#     4  10  20  33  49  67  87 114 149 189 229 267
#     4   9  17  30  50  75 100 126 157 193 228 258
#     4   9  16  26  43  67  93 119 145 177 220 269
#
# _framework density 16.568045000000001
#
# number of rings (size 3 to 8) (size 9 to 14) (size 15 to 20)
#    0.000    2.800    0.000    2.200    0.000    3.600 
#    0.000    4.000    0.000    9.000    0.000    0.000 
#    0.000    1.600    0.000    0.000    0.000    0.000 
#
# Total GULP energy -743361.501536 kJ/mol
# GULP energy per Si atom -12389.358359 kJ/mol
# Density = 1.653034 g / cm^3
# Si number density = 16.568045 Si / 1000 Ang^3
#
#
#
# Elastic Constant Matrix: (Units=GPa)
#
#
# Indices 1 2 3 4 5 6 
#
# 1 72.9827 42.4480 46.4901 0.0000 0.0002 0.0000
# 2 42.4480 72.9827 46.4901 0.0000 -0.0002 0.0000
# 3 46.4901 46.4901 133.5957 0.0000 0.0000 0.0000
# 4 0.0000 0.0000 0.0000 17.1104 0.0000 -0.0002
# 5 0.0002 -0.0002 0.0000 0.0000 17.1104 0.0000
# 6 0.0000 0.0000 0.0000 -0.0002 0.0000 15.2674
#
#
#
# Elastic Compliance Matrix: (Units=1/GPa)
#
#
# Indices 1 2 3 4 5 6 
#
# 1 0.022394 -0.010356 -0.004189 0.000000 0.000000 0.000000
# 2 -0.010356 0.022394 -0.004189 0.000000 0.000000 0.000000
# 3 -0.004189 -0.004189 0.010401 0.000000 0.000000 0.000000
# 4 0.000000 0.000000 0.000000 0.058444 0.000000 0.000001
# 5 0.000000 0.000000 0.000000 0.000000 0.058444 0.000000
# 6 0.000000 0.000000 0.000000 0.000001 0.000000 0.065499
#
#
# Mechanical properties :
#
#
# Convention : Reuss Voigt Hill
#
# Bulk Modulus (GPa) = 56.43391 61.15751 58.79571
# Shear Modulus (GPa) = 17.79679 19.50648 18.65164
#
# Velocity S-wave (km/s) = 3.28100 3.43498 3.35887
# Velocity P-wave (km/s) = 6.96341 7.26121 7.11387
#
# Compressibility (1/GPa) = 0.01771984
#
# Stress axis : x y z
#
# Youngs Moduli (GPa) = 44.65580 44.65580 96.14759
#
# Poissons Ratio (x) = 0.46246 0.40275
# Poissons Ratio (y) = 0.46246 0.40275
# Poissons Ratio (z) = 0.18706 0.18706
#
# Static dielectric constant tensor:
#      x y z
#    x 2.802400 0.000000 0.000000 
#    y 0.000000 2.802400 0.000000 
#    z 0.000000 0.000000 3.847060 
# 
# 
# High freq. dielectric constant tensor:
#      x y z
#    x 1.604210 0.000000 0.000000 
#    y 0.000000 1.604210 0.000000 
#    z 0.000000 0.000000 1.672140 
# 
# From -- ./inp_files/4142.got.cif
#   From: 2010.03.12/outbox.cif.g09.slc.cpg/sg187_3_cif.got.tgz:4142.got - 2010.04.01 11:58:23.
