data_PCOD8327254
_publ_section_title
;
Structure prediction by ZEFSAII (Michael W. Deem and Ramdas Pophale) SiO2 
 PCOD8327254
Probable space group: P -6 M 2
;
_chemical_formula_sum "Si O2"
_cell_formula_units_Z 60
_cell_length_a 21.978061
_cell_length_b 21.978061
_cell_length_c 7.509233
_cell_angle_alpha 90.000000
_cell_angle_beta 90.000000
_cell_angle_gamma 120.000000
_cell_volume 3141.267786
_symmetry_space_group_name_H-M "P -6 M 2"
_symmetry_group_IT_number 187
_symmetry_cell_setting 'hexagonal'
loop_
_space_group_symop_operation_xyz
x,y,z
-x+y,-x,-z
-y,x-y,z
x,y,-z
-x+y,-x,z
-y,x-y,-z
-y,-x,-z
-x+y,y,-z
x,x-y,-z
-x+y,y,z
x,x-y,z
-y,-x,z
loop_
_atom_site_type_symbol
_atom_site_label
_atom_site_fract_x
_atom_site_fract_y
_atom_site_fract_z
Si Si1 0.585938 0.863855 0.297165
Si Si2 0.476311 0.809070 0.000000
Si Si3 0.000000 0.861966 0.712300
Si Si4 0.414061 0.136145 0.702835
Si Si5 0.809070 0.476311 0.000000
Si Si6 0.274929 1.000000 0.711014
O O1 0.568218 0.874040 0.500000
O O2 0.603058 0.801529 0.283032
O O3 0.654461 0.932082 0.222347
O O4 0.519796 0.848473 0.176138
O O5 0.406292 0.812583 0.000000
O O6 0.456698 0.728349 0.000000
O O7 0.000002 0.861078 0.500000
O O8 0.068860 0.931141 0.784154
O O9 0.000001 0.793316 0.789848
O O10 0.931140 0.862280 0.784150
O O11 0.431781 0.125961 0.500000
O O12 0.396939 0.198470 0.716969
O O13 0.345539 0.067917 0.777653
O O14 0.480203 0.151528 0.823862
O O15 0.728348 0.456696 0.000000
O O16 0.812584 0.406292 0.000000
O O17 0.270230 1.000000 0.500000
#
# Coordination Sequence:
#
# PCOD8327254 Si02
#       6
#    12   6  12  12   6  12
#     4   9  18  33  52  75 104 136 171 211 250 292
#     4  10  21  37  57  79 102 128 160 201 251 307
#     4   9  15  22  36  63 100 139 178 220 262 300
#     4   9  18  33  52  75 104 136 171 211 250 292
#     4  10  21  37  57  79 102 128 160 201 251 307
#     4   9  16  28  47  69  96 136 179 213 252 299
#
# _framework density 19.100569
#
# number of rings (size 3 to 8) (size 9 to 14) (size 15 to 20)
#    0.000    2.800    0.000    1.600    0.000    7.200 
#    0.000    2.000    0.000    6.000    0.000    0.000 
#    0.000    0.000    0.000   15.200    0.000   41.400 
#
# Total GULP energy -743998.275538 kJ/mol
# GULP energy per Si atom -12399.971259 kJ/mol
# Density = 1.905709 g / cm^3
# Si number density = 19.100569 Si / 1000 Ang^3
#
#
#
# Elastic Constant Matrix: (Units=GPa)
#
#
# Indices 1 2 3 4 5 6 
#
# 1 162.4657 93.0468 49.2672 0.0000 0.0000 0.0000
# 2 93.0468 162.4657 49.2672 0.0000 0.0000 0.0000
# 3 49.2672 49.2672 78.5668 0.0000 0.0000 0.0000
# 4 0.0000 0.0000 0.0000 0.9766 0.0000 0.0000
# 5 0.0000 0.0000 0.0000 0.0000 0.9766 0.0000
# 6 0.0000 0.0000 0.0000 0.0000 0.0000 34.7095
#
#
#
# Elastic Compliance Matrix: (Units=1/GPa)
#
#
# Indices 1 2 3 4 5 6 
#
# 1 0.009784 -0.004622 -0.003237 0.000000 0.000001 0.000000
# 2 -0.004622 0.009784 -0.003237 0.000000 -0.000001 0.000000
# 3 -0.003237 -0.003237 0.016788 0.000000 0.000000 0.000000
# 4 0.000000 0.000000 0.000000 1.023955 0.000000 -0.000001
# 5 0.000001 -0.000001 0.000000 0.000000 1.023955 0.000000
# 6 0.000000 0.000000 0.000000 -0.000001 0.000000 0.028811
#
#
# Mechanical properties :
#
#
# Convention : Reuss Voigt Hill
#
# Bulk Modulus (GPa) = 70.60245 87.40673 79.00459
# Shear Modulus (GPa) = 2.33646 21.46034 11.89840
#
# Velocity S-wave (km/s) = 1.10720 3.35557 2.49857
# Velocity P-wave (km/s) = 6.21919 7.80217 7.05521
#
# Compressibility (1/GPa) = 0.01416382
#
# Stress axis : x y z
#
# Youngs Moduli (GPa) = 102.21150 102.21150 59.56771
#
# Poissons Ratio (x) = 0.47239 0.19282
# Poissons Ratio (y) = 0.47239 0.19282
# Poissons Ratio (z) = 0.33085 0.33085
#
# Static dielectric constant tensor:
#      x y z
#    x 3.434090 0.000000 0.000000 
#    y 0.000000 3.434090 0.000000 
#    z 0.000000 0.000000 3.547550 
# 
# 
# High freq. dielectric constant tensor:
#      x y z
#    x 1.736390 0.000000 0.000000 
#    y 0.000000 1.736390 0.000000 
#    z 0.000000 0.000000 1.733270 
# 
# From -- ./inp_files/660.got.cif
#   From: 2010.03.12/outbox.cif.g09.slc.cpg/sg187_1_cif.got.tgz:660.got - 2010.04.01 11:58:23.
