data_PCOD8327160
_publ_section_title
;
Structure prediction by ZEFSAII (Michael W. Deem and Ramdas Pophale) SiO2 
 PCOD8327160
Probable space group: P -6 M 2
;
_chemical_formula_sum "Si O2"
_cell_formula_units_Z 66
_cell_length_a 12.698904
_cell_length_b 12.698904
_cell_length_c 28.097167
_cell_angle_alpha 90.000000
_cell_angle_beta 90.000000
_cell_angle_gamma 120.000000
_cell_volume 3923.969695
_symmetry_space_group_name_H-M "P -6 M 2"
_symmetry_group_IT_number 187
_symmetry_cell_setting 'hexagonal'
loop_
_space_group_symop_operation_xyz
x,y,z
-x+y,-x,-z
-y,x-y,z
x,y,-z
-x+y,-x,z
-y,x-y,-z
-y,-x,-z
-x+y,y,-z
x,x-y,-z
-x+y,y,z
x,x-y,z
-y,-x,z
loop_
_atom_site_type_symbol
_atom_site_label
_atom_site_fract_x
_atom_site_fract_y
_atom_site_fract_z
Si Si1 0.085057 0.664542 0.411500
Si Si2 0.756236 0.999897 0.867468
Si Si3 0.666579 0.087463 0.323779
Si Si4 0.332660 0.911279 0.052729
Si Si5 0.757073 0.999759 0.239630
Si Si6 0.915848 0.335164 0.500000
O O1 0.124351 0.562176 0.414680
O O2 0.204554 0.795447 0.414243
O O3 0.014152 0.653445 0.363047
O O4 0.995387 0.649812 0.454220
O O5 0.780534 0.890267 0.877286
O O6 0.663809 0.001139 0.906122
O O7 0.707146 0.993041 0.813823
O O8 0.880209 0.119791 0.876362
O O9 0.559602 0.119204 0.320585
O O10 0.789993 0.210008 0.337165
O O11 0.676641 0.032826 0.273604
O O12 0.451638 0.903276 0.057383
O O13 0.222295 0.777706 0.062262
O O14 0.322894 0.958387 0.000000
O O15 0.743945 0.871973 0.255182
O O16 0.899115 0.100885 0.242725
O O17 0.794059 0.205942 0.500000
O O18 0.878991 0.439496 0.500000
#
# Coordination Sequence:
#
# PCOD8327160 Si02
#       6
#    12  12  12  12  12   6
#     4  10  20  34  53  75  99 127 159 197 239 283
#     4   9  17  29  46  68  93 120 150 186 229 276
#     4  10  20  33  50  71  96 126 159 197 238 280
#     4   9  17  29  45  64  86 114 148 186 227 271
#     4   9  17  30  48  69  93 122 155 190 229 275
#     4  10  20  34  54  78 104 134 166 200 236 278
#
# _framework density 16.819703000000001
#
# number of rings (size 3 to 8) (size 9 to 14) (size 15 to 20)
#    0.000    2.545    0.000    2.364    0.000    3.273 
#    0.000    2.727    0.000    8.000    0.000    0.000 
#    0.000    0.000    0.000    0.000    0.000    0.000 
#
# Total GULP energy -818334.263562 kJ/mol
# GULP energy per Si atom -12399.003993 kJ/mol
# Density = 1.678142 g / cm^3
# Si number density = 16.819703 Si / 1000 Ang^3
#
#
#
# Elastic Constant Matrix: (Units=GPa)
#
#
# Indices 1 2 3 4 5 6 
#
# 1 94.1722 47.4487 57.0410 0.0000 0.0000 0.0000
# 2 47.4487 94.1722 57.0410 0.0000 0.0000 0.0000
# 3 57.0410 57.0410 122.8732 0.0000 0.0000 0.0000
# 4 0.0000 0.0000 0.0000 27.4029 0.0000 0.0000
# 5 0.0000 0.0000 0.0000 0.0000 27.4029 0.0000
# 6 0.0000 0.0000 0.0000 0.0000 0.0000 23.3618
#
#
#
# Elastic Compliance Matrix: (Units=1/GPa)
#
#
# Indices 1 2 3 4 5 6 
#
# 1 0.016341 -0.005062 -0.005236 0.000000 0.000000 0.000000
# 2 -0.005062 0.016341 -0.005236 0.000000 0.000000 0.000000
# 3 -0.005236 -0.005236 0.013000 0.000000 0.000000 0.000000
# 4 0.000000 0.000000 0.000000 0.036493 0.000000 0.000000
# 5 0.000000 0.000000 0.000000 0.000000 0.036493 0.000000
# 6 0.000000 0.000000 0.000000 0.000000 0.000000 0.042805
#
#
# Mechanical properties :
#
#
# Convention : Reuss Voigt Hill
#
# Bulk Modulus (GPa) = 68.42862 70.47544 69.45203
# Shear Modulus (GPa) = 25.32800 25.61263 25.47032
#
# Velocity S-wave (km/s) = 3.88474 3.90651 3.89564
# Velocity P-wave (km/s) = 7.80343 7.89552 7.84961
#
# Compressibility (1/GPa) = 0.01461377
#
# Stress axis : x y z
#
# Youngs Moduli (GPa) = 61.19691 61.19691 76.92419
#
# Poissons Ratio (x) = 0.30977 0.40277
# Poissons Ratio (y) = 0.30977 0.40277
# Poissons Ratio (z) = 0.32042 0.32042
#
# Static dielectric constant tensor:
#      x y z
#    x 3.033570 0.000000 0.000000 
#    y 0.000000 3.033570 0.000000 
#    z 0.000000 0.000000 3.481140 
# 
# 
# High freq. dielectric constant tensor:
#      x y z
#    x 1.640340 0.000000 0.000000 
#    y 0.000000 1.640340 0.000000 
#    z 0.000000 0.000000 1.665430 
# 
# From -- ./inp_files/4395.got.cif
#   From: 2010.03.12/outbox.cif.g09.slc.cpg/sg187_3_cif.got.tgz:4395.got - 2010.04.01 11:58:23.
