data_PCOD8327632
_publ_section_title
;
Structure prediction by ZEFSAII (Michael W. Deem and Ramdas Pophale) SiO2 
 PCOD8327632
Probable space group: P -6 2 M
;
_chemical_formula_sum "Si O2"
_cell_formula_units_Z 54
_cell_length_a 17.882642
_cell_length_b 17.882642
_cell_length_c 10.491125
_cell_angle_alpha 90.000000
_cell_angle_beta 90.000000
_cell_angle_gamma 120.000000
_cell_volume 2905.467741
_symmetry_space_group_name_H-M "P -6 2 M"
_symmetry_group_IT_number 189
_symmetry_cell_setting 'hexagonal'
loop_
_space_group_symop_operation_xyz
x,y,z
-x+y,-x,-z
-y,x-y,z
x,y,-z
-x+y,-x,z
-y,x-y,-z
x-y,-y,-z
-x,-x+y,-z
y,x,-z
y,x,z
x-y,-y,z
-x,-x+y,z
loop_
_atom_site_type_symbol
_atom_site_label
_atom_site_fract_x
_atom_site_fract_y
_atom_site_fract_z
Si Si1 0.903630 0.267109 0.139084
Si Si2 0.160227 0.503052 0.647621
Si Si3 0.692430 0.902745 0.259861
Si Si4 0.507611 0.833310 0.355404
Si Si5 0.896041 0.100074 0.500000
O O1 0.894377 0.319810 0.255854
O O2 0.843395 0.164054 0.149490
O O3 0.000000 0.284447 0.142657
O O4 0.883891 0.294546 0.000000
O O5 0.128942 0.477409 0.500000
O O6 0.259585 0.528145 0.658937
O O7 0.149275 0.582382 0.697163
O O8 0.598666 0.891760 0.286902
O O9 0.732760 0.879250 0.380204
O O10 0.755705 0.000000 0.212945
O O11 0.524517 0.863008 0.500000
O O12 0.000000 0.160745 0.500000
O O13 0.871639 0.000000 0.500000
#
# Coordination Sequence:
#
# PCOD8327632 Si02
#       5
#    12  12  12  12   6
#     4  10  22  39  55  75 106 142 181 227 276 328
#     4   9  18  32  55  82 107 142 183 222 264 319
#     4  10  20  34  54  80 109 142 179 225 279 334
#     4   9  16  30  51  80 114 141 175 222 267 310
#     4  10  19  32  52  80 112 144 180 226 281 338
#
# _framework density 18.585647000000002
#
# number of rings (size 3 to 8) (size 9 to 14) (size 15 to 20)
#    0.000    2.444    1.111    1.222    1.556    3.556 
#    0.000    6.667    0.000    0.444    0.000    0.000 
#    0.000    0.000    0.000    0.000    0.000    0.000 
#
# Total GULP energy -669186.817111 kJ/mol
# GULP energy per Si atom -12392.348465 kJ/mol
# Density = 1.854335 g / cm^3
# Si number density = 18.585647 Si / 1000 Ang^3
#
#
#
# Elastic Constant Matrix: (Units=GPa)
#
#
# Indices 1 2 3 4 5 6 
#
# 1 101.6705 51.0713 44.5864 0.0000 0.0000 0.0000
# 2 51.0713 101.6705 44.5864 0.0000 0.0000 0.0000
# 3 44.5864 44.5864 91.1732 0.0000 0.0000 0.0000
# 4 0.0000 0.0000 0.0000 17.3017 0.0000 0.0000
# 5 0.0000 0.0000 0.0000 0.0000 17.3017 0.0000
# 6 0.0000 0.0000 0.0000 0.0000 0.0000 25.2996
#
#
#
# Elastic Compliance Matrix: (Units=1/GPa)
#
#
# Indices 1 2 3 4 5 6 
#
# 1 0.014463 -0.005300 -0.004481 0.000000 0.000000 0.000000
# 2 -0.005300 0.014463 -0.004481 0.000000 0.000000 0.000000
# 3 -0.004481 -0.004481 0.015351 0.000000 0.000000 0.000000
# 4 0.000000 0.000000 0.000000 0.057798 0.000000 0.000000
# 5 0.000000 0.000000 0.000000 0.000000 0.057798 0.000000
# 6 0.000000 0.000000 0.000000 0.000000 0.000000 0.039526
#
#
# Mechanical properties :
#
#
# Convention : Reuss Voigt Hill
#
# Bulk Modulus (GPa) = 63.48028 63.88916 63.68472
# Shear Modulus (GPa) = 21.44320 22.26527 21.85423
#
# Velocity S-wave (km/s) = 3.40038 3.46494 3.43281
# Velocity P-wave (km/s) = 7.04602 7.10337 7.07476
#
# Compressibility (1/GPa) = 0.01575292
#
# Stress axis : x y z
#
# Youngs Moduli (GPa) = 69.14140 69.14140 65.14309
#
# Poissons Ratio (x) = 0.36645 0.29191
# Poissons Ratio (y) = 0.36645 0.29191
# Poissons Ratio (z) = 0.30982 0.30982
#
# Static dielectric constant tensor:
#      x y z
#    x 3.472940 0.000000 0.000000 
#    y 0.000000 3.472940 0.000000 
#    z 0.000000 0.000000 3.321360 
# 
# 
# High freq. dielectric constant tensor:
#      x y z
#    x 1.721610 0.000000 0.000000 
#    y 0.000000 1.721610 0.000000 
#    z 0.000000 0.000000 1.697070 
# 
# From -- ./inp_files/1832.got.cif
#   From: 2010.03.12/outbox.cif.g09.slc.cpg/sg189_1_cif.got.tgz:1832.got - 2010.04.01 12:03:36.
