data_PCOD8327598
_publ_section_title
;
Structure prediction by ZEFSAII (Michael W. Deem and Ramdas Pophale) SiO2 
 PCOD8327598
Probable space group: P -6 2 M
;
_chemical_formula_sum "Si O2"
_cell_formula_units_Z 72
_cell_length_a 23.761986
_cell_length_b 23.761986
_cell_length_c 8.931511
_cell_angle_alpha 90.000000
_cell_angle_beta 90.000000
_cell_angle_gamma 120.000000
_cell_volume 4367.380598
_symmetry_space_group_name_H-M "P -6 2 M"
_symmetry_group_IT_number 189
_symmetry_cell_setting 'hexagonal'
loop_
_space_group_symop_operation_xyz
x,y,z
-x+y,-x,-z
-y,x-y,z
x,y,-z
-x+y,-x,z
-y,x-y,-z
x-y,-y,-z
-x,-x+y,-z
y,x,-z
y,x,z
x-y,-y,z
-x,-x+y,z
loop_
_atom_site_type_symbol
_atom_site_label
_atom_site_fract_x
_atom_site_fract_y
_atom_site_fract_z
Si Si1 0.594071 0.408742 0.178419
Si Si2 0.924804 0.736043 0.675029
Si Si3 0.737974 0.475674 0.824709
Si Si4 0.264949 0.399610 0.823528
Si Si5 0.074263 0.148909 0.173713
Si Si6 0.401128 0.475928 0.326797
O O1 0.667009 0.454604 0.242196
O O2 0.571114 0.335510 0.232962
O O3 0.546897 0.431148 0.252626
O O4 0.588529 0.412382 0.000000
O O5 0.911937 0.724035 0.500000
O O6 0.881117 0.669365 0.760867
O O7 0.902975 0.786670 0.729102
O O8 0.000000 0.763060 0.715658
O O9 0.789939 0.549978 0.783408
O O10 0.728161 0.465602 0.000000
O O11 0.334667 0.422884 0.750825
O O12 0.272642 0.395503 0.000000
O O13 0.095957 0.095957 0.206235
O O14 0.000000 0.118207 0.224379
O O15 0.083626 0.168565 0.000000
O O16 0.385901 0.479275 0.500000
O O17 0.454502 0.454502 0.304359
#
# Coordination Sequence:
#
# PCOD8327598 Si02
#       6
#    12  12  12  12  12  12
#     4   9  16  29  49  70  93 120 150 183 223 273
#     4  10  20  32  46  67  96 127 156 189 232 279
#     4   8  15  27  46  71  93 115 145 183 224 266
#     4  10  19  31  49  71  93 120 156 194 232 275
#     4   9  17  30  49  72  96 122 153 190 231 275
#     4  10  20  32  45  65  95 125 152 187 230 272
#
# _framework density 16.485855000000001
#
# number of rings (size 3 to 8) (size 9 to 14) (size 15 to 20)
#    0.000    2.667    0.000    3.500    0.000    6.667 
#    0.000    4.167    0.000    2.000    0.000    2.333 
#    0.000    0.000    0.000    0.000    0.000    0.000 
#
# Total GULP energy -892731.553804 kJ/mol
# GULP energy per Si atom -12399.049358 kJ/mol
# Density = 1.644833 g / cm^3
# Si number density = 16.485855 Si / 1000 Ang^3
#
#
#
# Elastic Constant Matrix: (Units=GPa)
#
#
# Indices 1 2 3 4 5 6 
#
# 1 117.9448 66.0933 48.5793 0.0000 0.0000 0.0000
# 2 66.0933 117.9448 48.5793 0.0000 0.0000 0.0000
# 3 48.5793 48.5793 68.5481 0.0000 0.0000 0.0000
# 4 0.0000 0.0000 0.0000 17.4271 0.0000 0.0000
# 5 0.0000 0.0000 0.0000 0.0000 17.4271 0.0000
# 6 0.0000 0.0000 0.0000 0.0000 0.0000 25.9258
#
#
#
# Elastic Compliance Matrix: (Units=1/GPa)
#
#
# Indices 1 2 3 4 5 6 
#
# 1 0.013984 -0.005302 -0.006153 0.000000 0.000000 0.000000
# 2 -0.005302 0.013984 -0.006153 0.000000 0.000000 0.000000
# 3 -0.006153 -0.006153 0.023309 0.000000 0.000000 0.000000
# 4 0.000000 0.000000 0.000000 0.057382 0.000000 0.000000
# 5 0.000000 0.000000 0.000000 0.000000 0.057382 0.000000
# 6 0.000000 0.000000 0.000000 0.000000 0.000000 0.038572
#
#
# Mechanical properties :
#
#
# Convention : Reuss Voigt Hill
#
# Bulk Modulus (GPa) = 62.25946 70.10463 66.18205
# Shear Modulus (GPa) = 20.39309 21.56838 20.98073
#
# Velocity S-wave (km/s) = 3.52092 3.62096 3.57129
# Velocity P-wave (km/s) = 7.37405 7.75231 7.56554
#
# Compressibility (1/GPa) = 0.01606182
#
# Stress axis : x y z
#
# Youngs Moduli (GPa) = 71.51111 71.51111 42.90172
#
# Poissons Ratio (x) = 0.37915 0.26396
# Poissons Ratio (y) = 0.37915 0.26396
# Poissons Ratio (z) = 0.43999 0.43999
#
# Static dielectric constant tensor:
#      x y z
#    x 3.130170 0.000000 0.000000 
#    y 0.000000 3.130170 0.000000 
#    z 0.000000 0.000000 3.026560 
# 
# 
# High freq. dielectric constant tensor:
#      x y z
#    x 1.626230 0.000000 0.000000 
#    y 0.000000 1.626230 0.000000 
#    z 0.000000 0.000000 1.628210 
# 
# From -- ./inp_files/1230.got.cif
#   From: 2010.03.12/outbox.cif.g09.slc.cpg/sg189_1_cif.got.tgz:1230.got - 2010.04.01 12:03:36.
