data_PCOD8327163
_publ_section_title
;
Structure prediction by ZEFSAII (Michael W. Deem and Ramdas Pophale) SiO2 
 PCOD8327163
Probable space group: P -6 M 2
;
_chemical_formula_sum "Si O2"
_cell_formula_units_Z 72
_cell_length_a 23.334397
_cell_length_b 23.334397
_cell_length_c 9.062156
_cell_angle_alpha 90.000000
_cell_angle_beta 90.000000
_cell_angle_gamma 120.000000
_cell_volume 4273.220771
_symmetry_space_group_name_H-M "P -6 M 2"
_symmetry_group_IT_number 187
_symmetry_cell_setting 'hexagonal'
loop_
_space_group_symop_operation_xyz
x,y,z
-x+y,-x,-z
-y,x-y,z
x,y,-z
-x+y,-x,z
-y,x-y,-z
-y,-x,-z
-x+y,y,-z
x,x-y,-z
-x+y,y,z
x,x-y,z
-y,-x,z
loop_
_atom_site_type_symbol
_atom_site_label
_atom_site_fract_x
_atom_site_fract_y
_atom_site_fract_z
Si Si1 0.394177 0.263923 0.327884
Si Si2 0.461839 0.794606 0.176969
Si Si3 0.474394 0.079296 0.176050
Si Si4 0.868138 0.999726 0.672862
Si Si5 0.936874 0.737572 0.166686
Si Si6 0.535444 0.599796 0.160666
O O1 0.390795 0.275648 0.500000
O O2 0.404352 0.202176 0.295952
O O3 0.457155 0.326914 0.254958
O O4 0.326618 0.253529 0.254478
O O5 0.389467 0.778934 0.230918
O O6 0.475210 0.737605 0.238637
O O7 0.519515 0.866572 0.240430
O O8 0.464214 0.796976 0.000000
O O9 0.549078 0.098156 0.218435
O O10 0.421409 0.005551 0.240154
O O11 0.468038 0.081661 0.000000
O O12 0.855144 0.000034 0.500000
O O13 0.863470 0.931735 0.724159
O O14 0.811090 0.006708 0.756792
O O15 0.940914 0.059087 0.714615
O O16 0.869328 0.738655 0.171203
O O17 0.958570 0.734165 0.000000
O O18 0.465595 0.534406 0.138402
O O19 0.566307 0.628245 0.000000
#
# Coordination Sequence:
#
# PCOD8327163 Si02
#       6
#    12  12  12  12  12  12
#     4  10  20  33  50  72  95 117 143 178 221 268
#     4   8  11  14  23  43  74 111 147 180 214 252
#     4   9  17  30  49  71  93 118 147 177 211 254
#     4   9  16  26  41  62  90 124 160 197 239 287
#     4   9  17  29  45  65  89 118 153 193 233 270
#     4   7  11  20  33  51  77 109 144 179 212 245
#
# _framework density 16.849117
#
# number of rings (size 3 to 8) (size 9 to 14) (size 15 to 20)
#    0.000    3.333    0.000    3.333    0.000    5.000 
#    0.000    0.000    0.000    2.333    0.000    2.333 
#    0.000    0.000    0.000    0.500    0.000    6.167 
#
# Total GULP energy -891952.272063 kJ/mol
# GULP energy per Si atom -12388.226001 kJ/mol
# Density = 1.681077 g / cm^3
# Si number density = 16.849117 Si / 1000 Ang^3
#
#
#
# Elastic Constant Matrix: (Units=GPa)
#
#
# Indices 1 2 3 4 5 6 
#
# 1 90.8941 47.9440 42.1631 0.0000 0.0001 0.0000
# 2 47.9440 90.8941 42.1631 0.0000 -0.0001 0.0000
# 3 42.1631 42.1631 59.1258 0.0000 0.0000 0.0000
# 4 0.0000 0.0000 0.0000 18.3321 0.0000 -0.0001
# 5 0.0001 -0.0001 0.0000 0.0000 18.3321 0.0000
# 6 0.0000 0.0000 0.0000 -0.0001 0.0000 21.4751
#
#
#
# Elastic Compliance Matrix: (Units=1/GPa)
#
#
# Indices 1 2 3 4 5 6 
#
# 1 0.017994 -0.005289 -0.009061 0.000000 0.000000 0.000000
# 2 -0.005289 0.017994 -0.009061 0.000000 0.000000 0.000000
# 3 -0.009061 -0.009061 0.029835 0.000000 0.000000 0.000000
# 4 0.000000 0.000000 0.000000 0.054549 0.000000 0.000000
# 5 0.000000 0.000000 0.000000 0.000000 0.054549 0.000000
# 6 0.000000 0.000000 0.000000 0.000000 0.000000 0.046566
#
#
# Mechanical properties :
#
#
# Convention : Reuss Voigt Hill
#
# Bulk Modulus (GPa) = 52.61875 56.16159 54.39017
# Shear Modulus (GPa) = 18.20550 18.87077 18.53813
#
# Velocity S-wave (km/s) = 3.29066 3.35025 3.32059
# Velocity P-wave (km/s) = 6.76278 6.95485 6.85949
#
# Compressibility (1/GPa) = 0.01900463
#
# Stress axis : x y z
#
# Youngs Moduli (GPa) = 55.57313 55.57313 33.51716
#
# Poissons Ratio (x) = 0.29390 0.30369
# Poissons Ratio (y) = 0.29390 0.30369
# Poissons Ratio (z) = 0.50353 0.50353
#
# Static dielectric constant tensor:
#      x y z
#    x 3.178430 0.000000 0.000000 
#    y 0.000000 3.178430 0.000000 
#    z 0.000000 0.000000 2.828180 
# 
# 
# High freq. dielectric constant tensor:
#      x y z
#    x 1.634050 0.000000 0.000000 
#    y 0.000000 1.634050 0.000000 
#    z 0.000000 0.000000 1.613170 
# 
# From -- ./inp_files/1001.got.cif
#   From: 2010.03.12/outbox.cif.g09.slc.cpg/sg187_1_cif.got.tgz:1001.got - 2010.04.01 11:58:23.
