data_PCOD8327291
_publ_section_title
;
Structure prediction by ZEFSAII (Michael W. Deem and Ramdas Pophale) SiO2 
 PCOD8327291
Probable space group: P -6 M 2
;
_chemical_formula_sum "Si O2"
_cell_formula_units_Z 60
_cell_length_a 16.590082
_cell_length_b 16.590082
_cell_length_c 19.028994
_cell_angle_alpha 90.000000
_cell_angle_beta 90.000000
_cell_angle_gamma 120.000000
_cell_volume 4535.691691
_symmetry_space_group_name_H-M "P -6 M 2"
_symmetry_group_IT_number 187
_symmetry_cell_setting 'hexagonal'
loop_
_space_group_symop_operation_xyz
x,y,z
-x+y,-x,-z
-y,x-y,z
x,y,-z
-x+y,-x,z
-y,x-y,-z
-y,-x,-z
-x+y,y,-z
x,x-y,-z
-x+y,y,z
x,x-y,z
-y,-x,z
loop_
_atom_site_type_symbol
_atom_site_label
_atom_site_fract_x
_atom_site_fract_y
_atom_site_fract_z
Si Si1 0.001350 0.812758 0.655015
Si Si2 0.811793 0.000175 0.921022
Si Si3 0.719257 0.089948 0.422716
Si Si4 0.478846 0.143575 0.712429
Si Si5 0.755811 0.701724 0.788954
O O1 0.094552 0.905449 0.634116
O O2 0.916570 0.833140 0.652001
O O3 0.987652 0.733064 0.600054
O O4 0.011768 0.779345 0.732647
O O5 0.811787 0.905894 0.905636
O O6 0.741822 0.009406 0.866642
O O7 0.777046 0.001910 0.000000
O O8 0.916700 0.083301 0.909466
O O9 0.671440 0.064697 0.500000
O O10 0.812914 0.187087 0.425442
O O11 0.652744 0.099491 0.365597
O O12 0.574469 0.148937 0.732832
O O13 0.493035 0.246518 0.715816
O O14 0.400897 0.073441 0.768110
O O15 0.847202 0.694403 0.785266
#
# Coordination Sequence:
#
# PCOD8327291 Si02
#       5
#    12  12  12  12  12
#     4   9  15  22  33  48  68  97 130 155 169 189
#     4   9  15  22  34  53  77 104 131 153 168 187
#     4   8  15  26  35  46  68  92 112 142 185 220
#     4   9  16  26  40  54  66  84 114 150 184 219
#     4   8  15  25  34  48  71  95 117 145 184 217
#
# _framework density 13.228413
#
# number of rings (size 3 to 8) (size 9 to 14) (size 15 to 20)
#    0.000    3.400    0.000    3.600    0.000    1.600 
#    0.000    2.000    0.000    3.000    0.000    0.000 
#    0.000    1.600    0.000   75.000    0.000   59.000 
#
# Total GULP energy -743436.109909 kJ/mol
# GULP energy per Si atom -12390.601832 kJ/mol
# Density = 1.319830 g / cm^3
# Si number density = 13.228413 Si / 1000 Ang^3
#
#
#
# Elastic Constant Matrix: (Units=GPa)
#
#
# Indices 1 2 3 4 5 6 
#
# 1 57.2769 20.3324 30.1039 0.0000 -0.0001 0.0000
# 2 20.3324 57.2769 30.1039 0.0000 0.0001 0.0000
# 3 30.1039 30.1039 102.1088 0.0000 0.0000 0.0000
# 4 0.0000 0.0000 0.0000 12.0019 0.0000 0.0001
# 5 -0.0001 0.0001 0.0000 0.0000 12.0019 0.0000
# 6 0.0000 0.0000 0.0000 0.0001 0.0000 18.4723
#
#
#
# Elastic Compliance Matrix: (Units=1/GPa)
#
#
# Indices 1 2 3 4 5 6 
#
# 1 0.021887 -0.005181 -0.004925 0.000000 0.000000 0.000000
# 2 -0.005181 0.021887 -0.004925 0.000000 0.000000 0.000000
# 3 -0.004925 -0.004925 0.012698 0.000000 0.000000 0.000000
# 4 0.000000 0.000000 0.000000 0.083320 0.000000 -0.000001
# 5 0.000000 0.000000 0.000000 0.000000 0.083320 0.000000
# 6 0.000000 0.000000 0.000000 -0.000001 0.000000 0.054135
#
#
# Mechanical properties :
#
#
# Convention : Reuss Voigt Hill
#
# Bulk Modulus (GPa) = 37.86666 41.97147 39.91906
# Shear Modulus (GPa) = 15.81715 17.57004 16.69359
#
# Velocity S-wave (km/s) = 3.46163 3.64841 3.55625
# Velocity P-wave (km/s) = 6.68316 7.03882 6.86329
#
# Compressibility (1/GPa) = 0.02640846
#
# Stress axis : x y z
#
# Youngs Moduli (GPa) = 45.68964 45.68964 78.75473
#
# Poissons Ratio (x) = 0.23671 0.38789
# Poissons Ratio (y) = 0.23671 0.38789
# Poissons Ratio (z) = 0.22504 0.22504
#
# Static dielectric constant tensor:
#      x y z
#    x 2.411540 0.000000 0.000000 
#    y 0.000000 2.411540 0.000000 
#    z 0.000000 0.000000 3.058940 
# 
# 
# High freq. dielectric constant tensor:
#      x y z
#    x 1.470800 0.000000 0.000000 
#    y 0.000000 1.470800 0.000000 
#    z 0.000000 0.000000 1.510570 
# 
# From -- ./inp_files/3498.got.cif
#   From: 2010.03.12/outbox.cif.g09.slc.cpg/sg187_2_cif.got.tgz:3498.got - 2010.04.01 11:58:23.
