data_PCOD8327192
_publ_section_title
;
Structure prediction by ZEFSAII (Michael W. Deem and Ramdas Pophale) SiO2 
 PCOD8327192
Probable space group: P -6 M 2
;
_chemical_formula_sum "Si O2"
_cell_formula_units_Z 72
_cell_length_a 23.661545
_cell_length_b 23.661545
_cell_length_c 8.708528
_cell_angle_alpha 90.000000
_cell_angle_beta 90.000000
_cell_angle_gamma 120.000000
_cell_volume 4222.421477
_symmetry_space_group_name_H-M "P -6 M 2"
_symmetry_group_IT_number 187
_symmetry_cell_setting 'hexagonal'
loop_
_space_group_symop_operation_xyz
x,y,z
-x+y,-x,-z
-y,x-y,z
x,y,-z
-x+y,-x,z
-y,x-y,-z
-y,-x,-z
-x+y,y,-z
x,x-y,-z
-x+y,y,z
x,x-y,z
-y,-x,z
loop_
_atom_site_type_symbol
_atom_site_label
_atom_site_fract_x
_atom_site_fract_y
_atom_site_fract_z
Si Si1 0.032295 0.194997 0.678842
Si Si2 0.477437 0.522564 0.829893
Si Si3 0.101273 0.333140 0.177420
Si Si4 0.819059 0.638118 0.817631
Si Si5 0.429010 0.328458 0.816038
Si Si6 0.212184 0.106092 0.182742
Si Si7 0.365484 0.405274 0.320338
Si Si8 0.554899 0.445102 0.831793
O O1 0.022961 0.203802 0.500000
O O2 0.087745 0.175489 0.705166
O O3 0.050059 0.261238 0.765421
O O4 0.966325 0.139363 0.751850
O O5 0.410645 0.478876 0.738680
O O6 0.516119 0.483882 0.843929
O O7 0.461775 0.538226 0.000000
O O8 0.174543 0.349086 0.204549
O O9 0.093354 0.385507 0.276897
O O10 0.086579 0.338370 0.000000
O O11 0.854443 0.599402 0.754916
O O12 0.856332 0.712663 0.758033
O O13 0.818947 0.637893 0.000000
O O14 0.381492 0.353645 0.758662
O O15 0.504026 0.375584 0.751152
O O16 0.430768 0.332074 0.000000
O O17 0.209651 0.104826 0.000000
O O18 0.374652 0.402948 0.500000
O O19 0.571155 0.428846 0.000000
#
# Coordination Sequence:
#
# PCOD8327192 Si02
#       8
#    12   6  12   6  12   6  12   6
#     4  10  21  37  54  72  95 125 161 208 265 315
#     4   9  17  31  49  69  96 128 159 190 228 277
#     4  10  20  34  52  72  97 131 168 202 240 295
#     4   9  18  29  45  68  93 123 162 206 245 290
#     4   9  16  29  46  65  91 126 165 201 243 293
#     4  11  21  33  51  73  96 125 163 206 256 314
#     4  11  20  30  47  73 102 129 159 198 245 292
#     4   7  12  23  43  64  83 114 152 190 231 277
#
# _framework density 17.051828
#
# number of rings (size 3 to 8) (size 9 to 14) (size 15 to 20)
#    0.000    2.333    0.000    5.000    0.000    3.333 
#    0.500    1.250    0.000    0.333    0.000    2.333 
#    0.833    0.000    1.500    2.333    1.500    2.833 
#
# Total GULP energy -892555.455635 kJ/mol
# GULP energy per Si atom -12396.603550 kJ/mol
# Density = 1.701302 g / cm^3
# Si number density = 17.051828 Si / 1000 Ang^3
#
#
#
# Elastic Constant Matrix: (Units=GPa)
#
#
# Indices 1 2 3 4 5 6 
#
# 1 100.2975 49.6367 25.3296 0.0000 -0.0001 0.0000
# 2 49.6367 100.2975 25.3296 0.0000 0.0001 0.0000
# 3 25.3296 25.3296 51.3364 0.0000 0.0000 0.0000
# 4 0.0000 0.0000 0.0000 20.3962 0.0000 0.0001
# 5 -0.0001 0.0001 0.0000 0.0000 20.3962 0.0000
# 6 0.0000 0.0000 0.0000 0.0001 0.0000 25.3304
#
#
#
# Elastic Compliance Matrix: (Units=1/GPa)
#
#
# Indices 1 2 3 4 5 6 
#
# 1 0.013872 -0.005868 -0.003949 0.000000 0.000000 0.000000
# 2 -0.005868 0.013872 -0.003949 0.000000 0.000000 0.000000
# 3 -0.003949 -0.003949 0.023376 0.000000 0.000000 0.000000
# 4 0.000000 0.000000 0.000000 0.049029 0.000000 0.000000
# 5 0.000000 0.000000 0.000000 0.000000 0.049029 0.000000
# 6 0.000000 0.000000 0.000000 0.000000 0.000000 0.039478
#
#
# Mechanical properties :
#
#
# Convention : Reuss Voigt Hill
#
# Bulk Modulus (GPa) = 42.39520 50.28038 46.33779
# Shear Modulus (GPa) = 22.31649 23.33361 22.82505
#
# Velocity S-wave (km/s) = 3.62158 3.70319 3.66262
# Velocity P-wave (km/s) = 6.51186 6.91633 6.71714
#
# Compressibility (1/GPa) = 0.02358758
#
# Stress axis : x y z
#
# Youngs Moduli (GPa) = 72.09019 72.09019 42.77814
#
# Poissons Ratio (x) = 0.42300 0.16894
# Poissons Ratio (y) = 0.42300 0.16894
# Poissons Ratio (z) = 0.28470 0.28470
#
# Static dielectric constant tensor:
#      x y z
#    x 3.284500 0.000000 0.000000 
#    y 0.000000 3.284500 0.000000 
#    z 0.000000 0.000000 3.134100 
# 
# 
# High freq. dielectric constant tensor:
#      x y z
#    x 1.646830 0.000000 0.000000 
#    y 0.000000 1.646830 0.000000 
#    z 0.000000 0.000000 1.652490 
# 
# From -- ./inp_files/1115.got.cif
#   From: 2010.03.12/outbox.cif.g09.slc.cpg/sg187_1_cif.got.tgz:1115.got - 2010.04.01 11:58:23.
