data_PCOD8327283
_publ_section_title
;
Structure prediction by ZEFSAII (Michael W. Deem and Ramdas Pophale) SiO2 
 PCOD8327283
Probable space group: P -6 M 2
;
_chemical_formula_sum "Si O2"
_cell_formula_units_Z 84
_cell_length_a 18.385621
_cell_length_b 18.385621
_cell_length_c 19.612726
_cell_angle_alpha 90.000000
_cell_angle_beta 90.000000
_cell_angle_gamma 120.000000
_cell_volume 5741.497757
_symmetry_space_group_name_H-M "P -6 M 2"
_symmetry_group_IT_number 187
_symmetry_cell_setting 'hexagonal'
loop_
_space_group_symop_operation_xyz
x,y,z
-x+y,-x,-z
-y,x-y,z
x,y,-z
-x+y,-x,z
-y,x-y,-z
-y,-x,-z
-x+y,y,-z
x,x-y,-z
-x+y,y,z
x,x-y,z
-y,-x,z
loop_
_atom_site_type_symbol
_atom_site_label
_atom_site_fract_x
_atom_site_fract_y
_atom_site_fract_z
Si Si1 0.494299 0.827949 0.418919
Si Si2 0.926378 0.681991 0.675461
Si Si3 0.753293 0.073724 0.829130
Si Si4 0.504135 0.333640 0.837566
Si Si5 0.244305 0.926080 0.421839
Si Si6 0.167859 0.999463 0.079097
Si Si7 0.506007 0.333565 0.675323
O O1 0.491178 0.823801 0.500000
O O2 0.424565 0.849130 0.389748
O O3 0.474373 0.737187 0.390661
O O4 0.587472 0.898728 0.396499
O O5 0.850315 0.700630 0.670709
O O6 0.962777 0.696752 0.752424
O O7 0.896836 0.586929 0.651210
O O8 0.998678 0.746027 0.625315
O O9 0.837885 0.162116 0.827699
O O10 0.681234 0.092910 0.857381
O O11 0.761474 0.008427 0.878469
O O12 0.517963 0.258982 0.866978
O O13 0.577052 0.422949 0.866955
O O14 0.508364 0.332423 0.756490
O O15 0.261479 0.956615 0.500000
O O16 0.150587 0.849414 0.413558
O O17 0.085809 0.914192 0.101765
O O18 0.150987 0.075494 0.095176
O O19 0.188292 0.997854 0.000000
O O20 0.527677 0.263839 0.647499
O O21 0.575142 0.424859 0.646510
#
# Coordination Sequence:
#
# PCOD8327283 Si02
#       7
#    12  12  12  12  12  12  12
#     4   8  13  22  37  56  76  96 117 142 176 222
#     4   9  17  28  41  57  76  99 128 159 191 227
#     4   8  15  26  38  56  81 103 124 154 190 223
#     4   8  12  19  33  53  77 105 136 165 188 212
#     4   9  18  30  41  54  72  94 122 157 194 227
#     4   9  16  26  41  60  80 101 124 149 180 224
#     4   8  13  21  35  56  80 104 129 157 187 218
#
# _framework density 14.630328
#
# number of rings (size 3 to 8) (size 9 to 14) (size 15 to 20)
#    0.000    3.571    0.000    3.143    0.000    3.714 
#    0.000    0.000    0.000    0.714    0.000    0.000 
#    0.000    2.286    0.000    0.429    0.000    1.000 
#
# Total GULP energy -1040912.241684 kJ/mol
# GULP energy per Si atom -12391.812401 kJ/mol
# Density = 1.459703 g / cm^3
# Si number density = 14.630328 Si / 1000 Ang^3
#
#
#
# Elastic Constant Matrix: (Units=GPa)
#
#
# Indices 1 2 3 4 5 6 
#
# 1 80.7366 46.6784 36.4250 0.0000 0.0000 0.0000
# 2 46.6784 80.7366 36.4250 0.0000 0.0000 0.0000
# 3 36.4250 36.4250 41.4750 0.0000 0.0000 0.0000
# 4 0.0000 0.0000 0.0000 15.3164 0.0000 0.0000
# 5 0.0000 0.0000 0.0000 0.0000 15.3164 0.0000
# 6 0.0000 0.0000 0.0000 0.0000 0.0000 17.0291
#
#
#
# Elastic Compliance Matrix: (Units=1/GPa)
#
#
# Indices 1 2 3 4 5 6 
#
# 1 0.022563 -0.006799 -0.013845 0.000000 0.000000 0.000000
# 2 -0.006799 0.022563 -0.013845 0.000000 0.000000 0.000000
# 3 -0.013845 -0.013845 0.048429 0.000000 0.000000 0.000000
# 4 0.000000 0.000000 0.000000 0.065289 0.000000 0.000000
# 5 0.000000 0.000000 0.000000 0.000000 0.065289 0.000000
# 6 0.000000 0.000000 0.000000 0.000000 0.000000 0.058723
#
#
# Mechanical properties :
#
#
# Convention : Reuss Voigt Hill
#
# Bulk Modulus (GPa) = 40.68622 49.11168 44.89895
# Shear Modulus (GPa) = 13.88792 15.09371 14.49081
#
# Velocity S-wave (km/s) = 3.08434 3.21545 3.15058
# Velocity P-wave (km/s) = 6.36821 6.88671 6.63253
#
# Compressibility (1/GPa) = 0.02457835
#
# Stress axis : x y z
#
# Youngs Moduli (GPa) = 44.32070 44.32070 20.64884
#
# Poissons Ratio (x) = 0.30132 0.28588
# Poissons Ratio (y) = 0.30132 0.28588
# Poissons Ratio (z) = 0.61361 0.61361
#
# Static dielectric constant tensor:
#      x y z
#    x 2.915490 0.000000 0.000000 
#    y 0.000000 2.915490 0.000000 
#    z 0.000000 0.000000 2.488740 
# 
# 
# High freq. dielectric constant tensor:
#      x y z
#    x 1.550500 0.000000 0.000000 
#    y 0.000000 1.550500 0.000000 
#    z 0.000000 0.000000 1.513690 
# 
# From -- ./inp_files/3643.got.cif
#   From: 2010.03.12/outbox.cif.g09.slc.cpg/sg187_2_cif.got.tgz:3643.got - 2010.04.01 11:58:23.
