data_PCOD8327380
_publ_section_title
;
Structure prediction by ZEFSAII (Michael W. Deem and Ramdas Pophale) SiO2 
 PCOD8327380
Probable space group: P -6 C 2
;
_chemical_formula_sum "Si O2"
_cell_formula_units_Z 52
_cell_length_a 15.526131
_cell_length_b 15.526131
_cell_length_c 15.320500
_cell_angle_alpha 90.000000
_cell_angle_beta 90.000000
_cell_angle_gamma 120.000000
_cell_volume 3198.380015
_symmetry_space_group_name_H-M "P -6 C 2"
_symmetry_group_IT_number 188
_symmetry_cell_setting 'hexagonal'
loop_
_space_group_symop_operation_xyz
x,y,z
-x+y,-x,1/2-z
-y,x-y,z
x,y,1/2-z
-x+y,-x,z
-y,x-y,1/2-z
-y,-x,-z
-x+y,y,-z
x,x-y,-z
-x+y,y,1/2+z
x,x-y,1/2+z
-y,-x,1/2+z
loop_
_atom_site_type_symbol
_atom_site_label
_atom_site_fract_x
_atom_site_fract_y
_atom_site_fract_z
Si Si1 0.000000 0.000000 0.396115
Si Si2 0.684817 0.744037 0.848617
Si Si3 0.888819 0.777637 0.396584
Si Si4 0.684817 0.940780 0.848617
Si Si5 0.535508 0.867911 1.000000
O O1 0.944481 0.888961 0.359002
O O2 0.000000 0.000000 0.500000
O O3 0.644363 0.716193 0.750000
O O4 0.776463 0.724236 0.861294
O O5 0.719009 0.859505 0.869901
O O6 0.597235 0.673386 0.913770
O O7 0.887793 0.775585 0.500000
O O8 0.776463 0.724236 0.361294
O O9 0.644364 0.928171 0.750000
O O10 0.597236 0.923849 0.913770
O O11 0.436865 0.873730 0.000000
O O12 0.506892 0.753446 0.000000
#
# Coordination Sequence:
#
# PCOD8327380 Si02
#       5
#     4  12  12  12  12
#     4   9  18  21  43  71 106 151 179 184 211 269
#     4  10  20  32  48  73 104 136 167 199 238 290
#     4  11  17  29  47  72 109 147 170 191 225 278
#     4  10  20  32  48  73 104 136 167 199 238 290
#     4  10  21  37  54  70  92 126 170 219 263 298
#
# _framework density 16.258230999999999
#
# number of rings (size 3 to 8) (size 9 to 14) (size 15 to 20)
#    0.000    1.846    4.615    0.923    0.000    0.923 
#    0.000    0.000    0.000    2.769    0.000    0.000 
#    9.231    0.000    2.769    0.000    0.000    0.000 
#
# Total GULP energy -644845.774866 kJ/mol
# GULP energy per Si atom -12400.880286 kJ/mol
# Density = 1.622123 g / cm^3
# Si number density = 16.258231 Si / 1000 Ang^3
#
#
#
# Elastic Constant Matrix: (Units=GPa)
#
#
# Indices 1 2 3 4 5 6 
#
# 1 105.1326 49.5854 47.0762 0.0000 0.0000 0.0000
# 2 49.5854 105.1326 47.0762 0.0000 0.0000 0.0000
# 3 47.0762 47.0762 122.2865 0.0000 0.0000 0.0000
# 4 0.0000 0.0000 0.0000 15.0238 0.0000 0.0000
# 5 0.0000 0.0000 0.0000 0.0000 15.0238 0.0000
# 6 0.0000 0.0000 0.0000 0.0000 0.0000 27.7736
#
#
#
# Elastic Compliance Matrix: (Units=1/GPa)
#
#
# Indices 1 2 3 4 5 6 
#
# 1 0.013222 -0.004781 -0.003249 0.000000 0.000000 0.000000
# 2 -0.004781 0.013222 -0.003249 0.000000 0.000000 0.000000
# 3 -0.003249 -0.003249 0.010679 0.000000 0.000000 0.000000
# 4 0.000000 0.000000 0.000000 0.066561 0.000000 0.000000
# 5 0.000000 0.000000 0.000000 0.000000 0.066561 0.000000
# 6 0.000000 0.000000 0.000000 0.000000 0.000000 0.036005
#
#
# Mechanical properties :
#
#
# Convention : Reuss Voigt Hill
#
# Bulk Modulus (GPa) = 68.66604 68.89192 68.77898
# Shear Modulus (GPa) = 21.39824 24.15185 22.77505
#
# Velocity S-wave (km/s) = 3.63181 3.85842 3.74683
# Velocity P-wave (km/s) = 7.74035 7.89401 7.81756
#
# Compressibility (1/GPa) = 0.01456324
#
# Stress axis : x y z
#
# Youngs Moduli (GPa) = 75.63303 75.63303 93.63868
#
# Poissons Ratio (x) = 0.36160 0.30427
# Poissons Ratio (y) = 0.36160 0.30427
# Poissons Ratio (z) = 0.24576 0.24576
#
# Static dielectric constant tensor:
#      x y z
#    x 2.788640 0.000000 0.000000 
#    y 0.000000 2.788640 0.000000 
#    z 0.000000 0.000000 3.179160 
# 
# 
# High freq. dielectric constant tensor:
#      x y z
#    x 1.593140 0.000000 0.000000 
#    y 0.000000 1.593140 0.000000 
#    z 0.000000 0.000000 1.644370 
# 
# From -- ./inp_files/2172.got.cif
#   From: 2010.03.12/outbox.cif.g09.slc.cpg/sg188_2_cif.got.tgz:2172.got - 2010.04.01 12:01:06.
