data_PCOD8327078
_publ_section_title
;
Structure prediction by ZEFSAII (Michael W. Deem and Ramdas Pophale) SiO2 
 PCOD8327078
Probable space group: P -6 M 2
;
_chemical_formula_sum "Si O2"
_cell_formula_units_Z 96
_cell_length_a 17.172922
_cell_length_b 17.172922
_cell_length_c 22.693119
_cell_angle_alpha 90.000000
_cell_angle_beta 90.000000
_cell_angle_gamma 120.000000
_cell_volume 5795.797683
_symmetry_space_group_name_H-M "P -6 M 2"
_symmetry_group_IT_number 187
_symmetry_cell_setting 'hexagonal'
loop_
_space_group_symop_operation_xyz
x,y,z
-x+y,-x,-z
-y,x-y,z
x,y,-z
-x+y,-x,z
-y,x-y,-z
-y,-x,-z
-x+y,y,-z
x,x-y,-z
-x+y,y,z
x,x-y,z
-y,-x,z
loop_
_atom_site_type_symbol
_atom_site_label
_atom_site_fract_x
_atom_site_fract_y
_atom_site_fract_z
Si Si1 0.000331 0.829421 0.570011
Si Si2 0.426465 0.030856 0.326090
Si Si3 0.245479 0.311356 0.065881
Si Si4 0.999708 0.177150 0.831785
Si Si5 0.152478 0.665264 0.732356
Si Si6 0.037955 0.608453 0.848063
Si Si7 0.904350 0.277035 0.568066
Si Si8 0.729394 0.635130 0.779229
O O1 0.999561 0.833196 0.500000
O O2 0.927026 0.854052 0.594698
O O3 0.972706 0.729187 0.589019
O O4 0.098401 0.901600 0.595365
O O5 0.525565 0.051130 0.307625
O O6 0.431375 0.065864 0.392753
O O7 0.396525 0.088750 0.286272
O O8 0.357368 0.924127 0.317186
O O9 0.168782 0.337564 0.064067
O O10 0.214900 0.222177 0.104547
O O11 0.331783 0.397123 0.093523
O O12 0.268311 0.293189 0.000000
O O13 0.094527 0.189054 0.810899
O O14 0.969025 0.225458 0.783630
O O15 0.927807 0.072194 0.837823
O O16 0.186374 0.593187 0.728807
O O17 0.235821 0.764180 0.720703
O O18 0.110293 0.660923 0.796530
O O19 0.032388 0.516194 0.865494
O O20 0.939932 0.587542 0.825525
O O21 0.918318 0.306691 0.500000
O O22 0.801392 0.198608 0.578395
O O23 0.802936 0.605872 0.793922
#
# Coordination Sequence:
#
# PCOD8327078 Si02
#       8
#    12  12  12  12  12  12  12  12
#     4   8  13  22  38  61  88 117 147 175 202 236
#     4  10  20  32  48  70  91 114 147 184 224 272
#     4   9  17  28  42  63  93 127 160 192 226 266
#     4   9  17  29  46  69  97 128 159 188 218 255
#     4   9  17  29  46  68  92 118 149 187 230 273
#     4   9  17  29  46  67  89 116 154 196 236 279
#     4   9  18  32  49  68  91 120 150 180 219 266
#     4   9  17  30  48  67  89 117 145 180 229 277
#
# _framework density 16.563725999999999
#
# number of rings (size 3 to 8) (size 9 to 14) (size 15 to 20)
#    0.000    3.000    0.000    3.000    0.000    4.750 
#    0.000    0.000    0.000    5.500    0.000    1.750 
#    0.000    1.000    0.000    0.750    0.000    0.000 
#
# Total GULP energy -1189925.073618 kJ/mol
# GULP energy per Si atom -12395.052850 kJ/mol
# Density = 1.652603 g / cm^3
# Si number density = 16.563726 Si / 1000 Ang^3
#
#
#
# Elastic Constant Matrix: (Units=GPa)
#
#
# Indices 1 2 3 4 5 6 
#
# 1 79.7925 39.3537 32.5256 0.0000 -0.0001 0.0000
# 2 39.3537 79.7925 32.5256 0.0000 0.0001 0.0000
# 3 32.5256 32.5256 77.4908 0.0000 0.0000 0.0000
# 4 0.0000 0.0000 0.0000 19.8281 0.0000 0.0001
# 5 -0.0001 0.0001 0.0000 0.0000 19.8281 0.0000
# 6 0.0000 0.0000 0.0000 0.0001 0.0000 20.2194
#
#
#
# Elastic Compliance Matrix: (Units=1/GPa)
#
#
# Indices 1 2 3 4 5 6 
#
# 1 0.017809 -0.006920 -0.004570 0.000000 0.000000 0.000000
# 2 -0.006920 0.017809 -0.004570 0.000000 0.000000 0.000000
# 3 -0.004570 -0.004570 0.016741 0.000000 0.000000 0.000000
# 4 0.000000 0.000000 0.000000 0.050434 0.000000 0.000000
# 5 0.000000 0.000000 0.000000 0.000000 0.050434 0.000000
# 6 0.000000 0.000000 0.000000 0.000000 0.000000 0.049457
#
#
# Mechanical properties :
#
#
# Convention : Reuss Voigt Hill
#
# Bulk Modulus (GPa) = 49.41424 49.54285 49.47855
# Shear Modulus (GPa) = 20.69967 20.81983 20.75975
#
# Velocity S-wave (km/s) = 3.53894 3.54920 3.54408
# Velocity P-wave (km/s) = 6.82616 6.83894 6.83255
#
# Compressibility (1/GPa) = 0.02023708
#
# Stress axis : x y z
#
# Youngs Moduli (GPa) = 56.15295 56.15295 59.73248
#
# Poissons Ratio (x) = 0.38859 0.27299
# Poissons Ratio (y) = 0.38859 0.27299
# Poissons Ratio (z) = 0.25663 0.25663
#
# Static dielectric constant tensor:
#      x y z
#    x 3.108970 0.000000 0.000000 
#    y 0.000000 3.108970 0.000000 
#    z 0.000000 0.000000 2.960700 
# 
# 
# High freq. dielectric constant tensor:
#      x y z
#    x 1.631330 0.000000 0.000000 
#    y 0.000000 1.631330 0.000000 
#    z 0.000000 0.000000 1.616130 
# 
# From -- ./inp_files/3789.got.cif
#   From: 2010.03.12/outbox.cif.g09.slc.cpg/sg187_2_cif.got.tgz:3789.got - 2010.04.01 11:58:23.
