data_PCOD8327968
_publ_section_title
;
Structure prediction by ZEFSAII (Michael W. Deem and Ramdas Pophale) SiO2 
 PCOD8327968
Probable space group: P -6 2 C
;
_chemical_formula_sum "Si O2"
_cell_formula_units_Z 78
_cell_length_a 24.458333
_cell_length_b 24.458333
_cell_length_c 8.204464
_cell_angle_alpha 90.000000
_cell_angle_beta 90.000000
_cell_angle_gamma 120.000000
_cell_volume 4250.446486
_symmetry_space_group_name_H-M "P -6 2 C"
_symmetry_group_IT_number 190
_symmetry_cell_setting 'hexagonal'
loop_
_space_group_symop_operation_xyz
x,y,z
-x+y,-x,1/2-z
-y,x-y,z
x,y,1/2-z
-x+y,-x,z
-y,x-y,1/2-z
x-y,-y,-z
-x,-x+y,-z
y,x,-z
y,x,1/2+z
x-y,-y,1/2+z
-x,-x+y,1/2+z
loop_
_atom_site_type_symbol
_atom_site_label
_atom_site_fract_x
_atom_site_fract_y
_atom_site_fract_z
Si Si1 0.479335 0.857553 0.441262
Si Si2 0.273661 0.590276 0.250000
Si Si3 0.311805 0.380015 0.436770
Si Si4 0.376670 0.194431 0.066129
Si Si5 0.583750 0.515690 0.057015
Si Si6 0.259783 0.734528 0.931833
Si Si7 0.932321 0.292530 0.057103
O O1 0.484204 0.846185 0.250000
O O2 0.549868 0.906459 0.511702
O O3 0.429909 0.881079 0.472587
O O4 0.454614 0.792793 0.540285
O O5 0.264288 0.651069 0.250000
O O6 0.242970 0.552975 0.418684
O O7 0.326158 0.385471 0.250000
O O8 0.328442 0.328442 0.500000
O O9 0.237604 0.356006 0.466224
O O10 0.353551 0.192569 0.250000
O O11 0.450926 0.221803 0.058608
O O12 0.347165 0.123109 0.993435
O O13 0.583013 0.508072 0.250000
O O14 0.650848 0.572450 0.992157
O O15 0.528548 0.528548 0.000000
O O16 0.290306 0.741263 0.750000
O O17 0.929811 0.293193 0.250000
O O18 0.000000 0.303364 0.000000
#
# Coordination Sequence:
#
# PCOD8327968 Si02
#       7
#    12   6  12  12  12  12  12
#     4  10  19  32  50  73 101 129 166 212 260 316
#     4  10  24  40  52  72  98 124 168 226 256 320
#     4  10  20  32  50  75 104 135 170 210 255 311
#     4   9  19  35  55  76 101 135 172 213 255 313
#     4  10  19  30  45  68  97 127 164 206 260 312
#     4  10  20  37  57  74  98 130 170 212 266 321
#     4   9  19  35  51  74 102 129 170 213 257 313
#
# _framework density 18.351012000000001
#
# number of rings (size 3 to 8) (size 9 to 14) (size 15 to 20)
#    0.154    2.154    0.769    1.846    1.077    6.154 
#    0.000    1.538    0.000    0.000    0.000    0.000 
#    0.000    0.000    0.000    0.462    0.000    7.385 
#
# Total GULP energy -966667.098860 kJ/mol
# GULP energy per Si atom -12393.167934 kJ/mol
# Density = 1.830924 g / cm^3
# Si number density = 18.351012 Si / 1000 Ang^3
#
#
#
# Elastic Constant Matrix: (Units=GPa)
#
#
# Indices 1 2 3 4 5 6 
#
# 1 70.5048 26.6640 15.5128 0.0000 0.0000 0.0000
# 2 26.6640 70.5048 15.5128 0.0000 0.0000 0.0000
# 3 15.5128 15.5128 76.0679 0.0000 0.0000 0.0000
# 4 0.0000 0.0000 0.0000 21.0080 0.0000 0.0000
# 5 0.0000 0.0000 0.0000 0.0000 21.0080 0.0000
# 6 0.0000 0.0000 0.0000 0.0000 0.0000 21.9204
#
#
#
# Elastic Compliance Matrix: (Units=1/GPa)
#
#
# Indices 1 2 3 4 5 6 
#
# 1 0.016909 -0.005901 -0.002245 0.000000 0.000000 0.000000
# 2 -0.005901 0.016909 -0.002245 0.000000 0.000000 0.000000
# 3 -0.002245 -0.002245 0.014062 0.000000 0.000000 0.000000
# 4 0.000000 0.000000 0.000000 0.047601 0.000000 0.000000
# 5 0.000000 0.000000 0.000000 0.000000 0.047601 0.000000
# 6 0.000000 0.000000 0.000000 0.000000 0.000000 0.045620
#
#
# Mechanical properties :
#
#
# Convention : Reuss Voigt Hill
#
# Bulk Modulus (GPa) = 36.90258 36.93964 36.92111
# Shear Modulus (GPa) = 22.88168 23.41313 23.14741
#
# Velocity S-wave (km/s) = 3.53496 3.57578 3.55543
# Velocity P-wave (km/s) = 6.06747 6.10094 6.08423
#
# Compressibility (1/GPa) = 0.02709837
#
# Stress axis : x y z
#
# Youngs Moduli (GPa) = 59.14020 59.14020 71.11467
#
# Poissons Ratio (x) = 0.34897 0.15965
# Poissons Ratio (y) = 0.34897 0.15965
# Poissons Ratio (z) = 0.13277 0.13277
#
# Static dielectric constant tensor:
#      x y z
#    x 3.351820 0.000000 0.000000 
#    y 0.000000 3.351820 0.000000 
#    z 0.000000 0.000000 3.457180 
# 
# 
# High freq. dielectric constant tensor:
#      x y z
#    x 1.683020 0.000000 0.000000 
#    y 0.000000 1.683020 0.000000 
#    z 0.000000 0.000000 1.717070 
# 
# From -- ./inp_files/1348.got.cif
#   From: 2010.06.25/outbox.cif.g09.slc.cpg/sg190_1_cif.got.tgz:1348.got - 2010.06.28 13:08:06.
