data_PCOD8327128
_publ_section_title
;
Structure prediction by ZEFSAII (Michael W. Deem and Ramdas Pophale) SiO2 
 PCOD8327128
Probable space group: P -6 M 2
;
_chemical_formula_sum "Si O2"
_cell_formula_units_Z 60
_cell_length_a 12.468439
_cell_length_b 12.468439
_cell_length_c 25.992608
_cell_angle_alpha 90.000000
_cell_angle_beta 90.000000
_cell_angle_gamma 120.000000
_cell_volume 3499.489209
_symmetry_space_group_name_H-M "P -6 M 2"
_symmetry_group_IT_number 187
_symmetry_cell_setting 'hexagonal'
loop_
_space_group_symop_operation_xyz
x,y,z
-x+y,-x,-z
-y,x-y,z
x,y,-z
-x+y,-x,z
-y,x-y,-z
-y,-x,-z
-x+y,y,-z
x,x-y,-z
-x+y,y,z
x,x-y,z
-y,-x,z
loop_
_atom_site_type_symbol
_atom_site_label
_atom_site_fract_x
_atom_site_fract_y
_atom_site_fract_z
Si Si1 0.332070 0.414903 0.000000
Si Si2 0.251563 0.251482 0.097939
Si Si3 0.749573 0.748503 0.706479
Si Si4 0.578098 0.668987 0.500000
Si Si5 0.916753 0.584764 0.196044
Si Si6 0.083249 0.414007 0.388539
O O1 0.324405 0.336858 0.049970
O O2 0.461825 0.538176 0.000000
O O3 0.225198 0.450396 0.000000
O O4 0.238718 0.119359 0.089180
O O5 0.326146 0.317288 0.149148
O O6 0.115217 0.230434 0.103174
O O7 0.891006 0.782012 0.706498
O O8 0.672426 0.654178 0.751577
O O9 0.687146 0.682604 0.652756
O O10 0.747129 0.873565 0.715369
O O11 0.467703 0.532297 0.500000
O O12 0.524150 0.762075 0.500000
O O13 0.649701 0.686168 0.445666
O O14 0.773559 0.547117 0.194971
O O15 0.925983 0.462992 0.191460
O O16 0.225440 0.450879 0.379223
O O17 0.073886 0.536943 0.382711
#
# Coordination Sequence:
#
# PCOD8327128 Si02
#       6
#     6  12  12   6  12  12
#     4  10  20  34  52  74 102 136 172 210 252 296
#     4  10  20  34  54  78 104 134 167 204 242 284
#     4  10  20  33  49  68  93 126 162 199 236 279
#     4   8  13  22  39  64  92 120 150 186 232 284
#     4  10  20  34  52  73  97 125 158 198 243 290
#     4   9  16  27  45  69  95 121 151 191 239 288
#
# _framework density 17.145358999999999
#
# number of rings (size 3 to 8) (size 9 to 14) (size 15 to 20)
#    0.000    2.400    0.000    3.100    0.000    1.600 
#    0.000    3.500    0.000    8.800    0.000    1.400 
#    0.000    0.000    0.000    0.000    0.000    0.000 
#
# Total GULP energy -743775.084118 kJ/mol
# GULP energy per Si atom -12396.251402 kJ/mol
# Density = 1.710634 g / cm^3
# Si number density = 17.145359 Si / 1000 Ang^3
#
#
#
# Elastic Constant Matrix: (Units=GPa)
#
#
# Indices 1 2 3 4 5 6 
#
# 1 82.5699 48.0705 55.5792 0.0000 0.0000 0.0000
# 2 48.0705 82.5699 55.5792 0.0000 0.0000 0.0000
# 3 55.5792 55.5792 153.4257 0.0000 0.0000 0.0000
# 4 0.0000 0.0000 0.0000 23.6643 0.0000 0.0000
# 5 0.0000 0.0000 0.0000 0.0000 23.6643 0.0000
# 6 0.0000 0.0000 0.0000 0.0000 0.0000 17.2497
#
#
#
# Elastic Compliance Matrix: (Units=1/GPa)
#
#
# Indices 1 2 3 4 5 6 
#
# 1 0.020026 -0.008960 -0.004008 0.000000 0.000000 0.000000
# 2 -0.008960 0.020026 -0.004008 0.000000 0.000000 0.000000
# 3 -0.004008 -0.004008 0.009422 0.000000 0.000000 0.000000
# 4 0.000000 0.000000 0.000000 0.042258 0.000000 0.000000
# 5 0.000000 0.000000 0.000000 0.000000 0.042258 0.000000
# 6 0.000000 0.000000 0.000000 0.000000 0.000000 0.057972
#
#
# Mechanical properties :
#
#
# Convention : Reuss Voigt Hill
#
# Bulk Modulus (GPa) = 64.43824 70.78038 67.60931
# Shear Modulus (GPa) = 21.63674 23.53809 22.58741
#
# Velocity S-wave (km/s) = 3.55626 3.70922 3.63355
# Velocity P-wave (km/s) = 7.38429 7.72765 7.55792
#
# Compressibility (1/GPa) = 0.01551873
#
# Stress axis : x y z
#
# Youngs Moduli (GPa) = 49.93592 49.93592 106.13483
#
# Poissons Ratio (x) = 0.44744 0.42544
# Poissons Ratio (y) = 0.44744 0.42544
# Poissons Ratio (z) = 0.20017 0.20017
#
# Static dielectric constant tensor:
#      x y z
#    x 3.055000 0.000000 0.000000 
#    y 0.000000 3.055000 0.000000 
#    z 0.000000 0.000000 6.416290 
# 
# 
# High freq. dielectric constant tensor:
#      x y z
#    x 1.651100 0.000000 0.000000 
#    y 0.000000 1.651100 0.000000 
#    z 0.000000 0.000000 1.687620 
# 
# From -- ./inp_files/4178.got.cif
#   From: 2010.03.12/outbox.cif.g09.slc.cpg/sg187_3_cif.got.tgz:4178.got - 2010.04.01 11:58:23.
