data_PCOD8327531
_publ_section_title
;
Structure prediction by ZEFSAII (Michael W. Deem and Ramdas Pophale) SiO2 
 PCOD8327531
Probable space group: P -6 2 M
;
_chemical_formula_sum "Si O2"
_cell_formula_units_Z 72
_cell_length_a 22.708363
_cell_length_b 22.708363
_cell_length_c 9.308510
_cell_angle_alpha 90.000000
_cell_angle_beta 90.000000
_cell_angle_gamma 120.000000
_cell_volume 4157.023286
_symmetry_space_group_name_H-M "P -6 2 M"
_symmetry_group_IT_number 189
_symmetry_cell_setting 'hexagonal'
loop_
_space_group_symop_operation_xyz
x,y,z
-x+y,-x,-z
-y,x-y,z
x,y,-z
-x+y,-x,z
-y,x-y,-z
x-y,-y,-z
-x,-x+y,-z
y,x,-z
y,x,z
x-y,-y,z
-x,-x+y,z
loop_
_atom_site_type_symbol
_atom_site_label
_atom_site_fract_x
_atom_site_fract_y
_atom_site_fract_z
Si Si1 0.446681 0.367641 0.665003
Si Si2 0.707527 0.707527 0.168302
Si Si3 0.156678 0.000000 0.170283
Si Si4 0.422017 0.132066 0.169479
Si Si5 0.785731 0.921054 0.332960
Si Si6 0.158054 0.786822 0.330659
Si Si7 0.078062 0.519627 0.832641
O O1 0.467164 0.371417 0.500000
O O2 0.401662 0.401662 0.696338
O O3 0.400755 0.290693 0.716724
O O4 0.517074 0.408363 0.752158
O O5 0.775101 0.775101 0.210332
O O6 0.709792 0.643757 0.233131
O O7 0.696188 0.696188 0.000000
O O8 0.096063 0.931735 0.240835
O O9 0.144195 0.000000 0.000000
O O10 0.422314 0.193672 0.252581
O O11 0.487696 0.125496 0.206963
O O12 0.416590 0.141177 0.000000
O O13 0.791722 0.906423 0.500000
O O14 0.707450 0.876514 0.279474
O O15 0.809689 0.000000 0.308642
O O16 0.169801 0.794313 0.500000
O O17 0.000000 0.467120 0.786622
O O18 0.081327 0.534671 0.000000
#
# Coordination Sequence:
#
# PCOD8327531 Si02
#       7
#    12   6   6  12  12  12  12
#     4   9  18  33  51  71 100 134 165 202 248 293
#     4   9  16  29  49  73 103 133 156 191 252 307
#     4  11  21  35  55  77 103 133 170 217 268 315
#     4  10  18  31  51  75 104 135 162 197 249 303
#     4  10  21  37  55  74 100 136 176 216 262 316
#     4  10  20  33  51  76 103 133 170 210 251 299
#     4   9  17  30  50  74 100 129 160 194 237 292
#
# _framework density 17.320086
#
# number of rings (size 3 to 8) (size 9 to 14) (size 15 to 20)
#    0.000    2.333    2.500    0.750    0.000    3.667 
#    0.500    0.417    0.000    3.667    0.000    0.000 
#    0.000    0.000    0.000    0.000    0.000    0.000 
#
# Total GULP energy -892678.172086 kJ/mol
# GULP energy per Si atom -12398.307946 kJ/mol
# Density = 1.728066 g / cm^3
# Si number density = 17.320086 Si / 1000 Ang^3
#
#
#
# Elastic Constant Matrix: (Units=GPa)
#
#
# Indices 1 2 3 4 5 6 
#
# 1 93.2719 40.2075 40.2556 0.0000 0.0000 0.0000
# 2 40.2075 93.2719 40.2556 0.0000 0.0000 0.0000
# 3 40.2556 40.2556 44.8113 0.0000 0.0000 0.0000
# 4 0.0000 0.0000 0.0000 27.8998 0.0000 0.0000
# 5 0.0000 0.0000 0.0000 0.0000 27.8998 0.0000
# 6 0.0000 0.0000 0.0000 0.0000 0.0000 26.5322
#
#
#
# Elastic Compliance Matrix: (Units=1/GPa)
#
#
# Indices 1 2 3 4 5 6 
#
# 1 0.017599 -0.001246 -0.014690 0.000000 0.000000 0.000000
# 2 -0.001246 0.017599 -0.014690 0.000000 0.000000 0.000000
# 3 -0.014690 -0.014690 0.048709 0.000000 0.000000 0.000000
# 4 0.000000 0.000000 0.000000 0.035843 0.000000 0.000000
# 5 0.000000 0.000000 0.000000 0.000000 0.035843 0.000000
# 6 0.000000 0.000000 0.000000 0.000000 0.000000 0.037690
#
#
# Mechanical properties :
#
#
# Convention : Reuss Voigt Hill
#
# Bulk Modulus (GPa) = 44.14263 52.53250 48.33756
# Shear Modulus (GPa) = 19.07779 23.84213 21.45996
#
# Velocity S-wave (km/s) = 3.32246 3.71423 3.52379
# Velocity P-wave (km/s) = 6.34508 6.98500 6.67271
#
# Compressibility (1/GPa) = 0.02265384
#
# Stress axis : x y z
#
# Youngs Moduli (GPa) = 56.82245 56.82245 20.53017
#
# Poissons Ratio (x) = 0.07082 0.30159
# Poissons Ratio (y) = 0.07082 0.30159
# Poissons Ratio (z) = 0.83472 0.83472
#
# Static dielectric constant tensor:
#      x y z
#    x 3.244660 0.000000 0.000000 
#    y 0.000000 3.244660 0.000000 
#    z 0.000000 0.000000 3.073900 
# 
# 
# High freq. dielectric constant tensor:
#      x y z
#    x 1.661130 0.000000 0.000000 
#    y 0.000000 1.661130 0.000000 
#    z 0.000000 0.000000 1.656240 
# 
# From -- ./inp_files/1373.got.cif
#   From: 2010.03.12/outbox.cif.g09.slc.cpg/sg189_1_cif.got.tgz:1373.got - 2010.04.01 12:03:36.
