data_PCOD8327375
_publ_section_title
;
Structure prediction by ZEFSAII (Michael W. Deem and Ramdas Pophale) SiO2 
 PCOD8327375
Probable space group: P -6 C 2
;
_chemical_formula_sum "Si O2"
_cell_formula_units_Z 96
_cell_length_a 15.916436
_cell_length_b 15.916436
_cell_length_c 28.494454
_cell_angle_alpha 90.000000
_cell_angle_beta 90.000000
_cell_angle_gamma 120.000000
_cell_volume 6251.476830
_symmetry_space_group_name_H-M "P -6 C 2"
_symmetry_group_IT_number 188
_symmetry_cell_setting 'hexagonal'
loop_
_space_group_symop_operation_xyz
x,y,z
-x+y,-x,1/2-z
-y,x-y,z
x,y,1/2-z
-x+y,-x,z
-y,x-y,1/2-z
-y,-x,-z
-x+y,y,-z
x,x-y,-z
-x+y,y,1/2+z
x,x-y,1/2+z
-y,-x,1/2+z
loop_
_atom_site_type_symbol
_atom_site_label
_atom_site_fract_x
_atom_site_fract_y
_atom_site_fract_z
Si Si1 0.763041 0.043260 0.851913
Si Si2 0.675275 0.837637 0.694180
Si Si3 0.475836 0.142151 0.196645
Si Si4 0.807581 0.001182 0.051800
Si Si5 0.475836 0.142151 0.803355
Si Si6 0.272379 0.544758 0.305190
Si Si7 0.807581 0.806399 0.051800
Si Si8 0.956740 0.719780 0.351913
O O1 0.687080 0.076769 0.838389
O O2 0.750974 0.023767 0.907898
O O3 0.872950 0.127050 0.838870
O O4 0.736274 0.947461 0.823126
O O5 0.672561 0.836281 0.750000
O O6 0.564066 0.782033 0.672789
O O7 0.736274 0.788813 0.676874
O O8 0.442499 0.107097 0.250000
O O9 0.563801 0.127601 0.181433
O O10 0.509744 0.254872 0.191549
O O11 0.793965 0.896982 0.062409
O O12 0.921621 0.078379 0.054023
O O13 0.750974 0.023767 0.092102
O O14 0.766038 0.003959 1.000000
O O15 0.442499 0.107097 0.750000
O O16 0.389688 0.076769 0.838389
O O17 0.388345 0.611654 0.318998
O O18 0.264593 0.529185 0.250000
#
# Coordination Sequence:
#
# PCOD8327375 Si02
#       8
#    12  12  12  12  12  12  12  12
#     4  10  20  32  44  66  97 124 155 193 231 281
#     4  11  20  30  45  63  93 135 164 186 230 286
#     4   9  17  30  48  68  91 121 159 200 234 267
#     4   9  16  28  47  67  87 115 154 198 239 272
#     4   9  17  30  48  68  91 121 159 200 234 267
#     4   7  14  30  48  67  87 109 149 208 251 272
#     4   9  16  28  47  67  87 115 154 198 239 272
#     4  10  20  32  44  66  97 124 155 193 231 281
#
# _framework density 15.356372
#
# number of rings (size 3 to 8) (size 9 to 14) (size 15 to 20)
#    0.250    2.500    1.250    1.250    0.000    4.500 
#    0.750    2.500    0.000    0.750    0.000    0.000 
#    0.000    3.000    0.000    0.000    0.000    0.000 
#
# Total GULP energy -1189477.268684 kJ/mol
# GULP energy per Si atom -12390.388215 kJ/mol
# Density = 1.532142 g / cm^3
# Si number density = 15.356372 Si / 1000 Ang^3
#
#
#
# Elastic Constant Matrix: (Units=GPa)
#
#
# Indices 1 2 3 4 5 6 
#
# 1 98.0925 57.6559 55.8346 0.0000 0.0000 0.0000
# 2 57.6559 98.0925 55.8346 0.0000 0.0000 0.0000
# 3 55.8346 55.8346 102.2682 0.0000 0.0000 0.0000
# 4 0.0000 0.0000 0.0000 16.8692 0.0000 0.0000
# 5 0.0000 0.0000 0.0000 0.0000 16.8692 0.0000
# 6 0.0000 0.0000 0.0000 0.0000 0.0000 20.2183
#
#
#
# Elastic Compliance Matrix: (Units=1/GPa)
#
#
# Indices 1 2 3 4 5 6 
#
# 1 0.017640 -0.007090 -0.005760 0.000000 0.000000 0.000000
# 2 -0.007090 0.017640 -0.005760 0.000000 0.000000 0.000000
# 3 -0.005760 -0.005760 0.016068 0.000000 0.000000 0.000000
# 4 0.000000 0.000000 0.000000 0.059280 0.000000 0.000000
# 5 0.000000 0.000000 0.000000 0.000000 0.059280 0.000000
# 6 0.000000 0.000000 0.000000 0.000000 0.000000 0.049460
#
#
# Mechanical properties :
#
#
# Convention : Reuss Voigt Hill
#
# Bulk Modulus (GPa) = 70.78025 70.78925 70.78475
# Shear Modulus (GPa) = 19.13526 19.39989 19.26757
#
# Velocity S-wave (km/s) = 3.53381 3.55817 3.54601
# Velocity P-wave (km/s) = 7.92731 7.94219 7.93476
#
# Compressibility (1/GPa) = 0.01412823
#
# Stress axis : x y z
#
# Youngs Moduli (GPa) = 56.68824 56.68824 62.23570
#
# Poissons Ratio (x) = 0.40190 0.35849
# Poissons Ratio (y) = 0.40190 0.35849
# Poissons Ratio (z) = 0.32654 0.32654
#
# Static dielectric constant tensor:
#      x y z
#    x 2.997680 0.000000 0.000000 
#    y 0.000000 2.997680 0.000000 
#    z 0.000000 0.000000 2.978850 
# 
# 
# High freq. dielectric constant tensor:
#      x y z
#    x 1.580930 0.000000 0.000000 
#    y 0.000000 1.580930 0.000000 
#    z 0.000000 0.000000 1.571890 
# 
# From -- ./inp_files/4576.got.cif
#   From: 2010.03.12/outbox.cif.g09.slc.cpg/sg188_3_cif.got.tgz:4576.got - 2010.04.01 12:01:06.
