data_PCOD8327572
_publ_section_title
;
Structure prediction by ZEFSAII (Michael W. Deem and Ramdas Pophale) SiO2 
 PCOD8327572
Probable space group: P -6 2 M
;
_chemical_formula_sum "Si O2"
_cell_formula_units_Z 72
_cell_length_a 23.907352
_cell_length_b 23.907352
_cell_length_c 9.077476
_cell_angle_alpha 90.000000
_cell_angle_beta 90.000000
_cell_angle_gamma 120.000000
_cell_volume 4493.230445
_symmetry_space_group_name_H-M "P -6 2 M"
_symmetry_group_IT_number 189
_symmetry_cell_setting 'hexagonal'
loop_
_space_group_symop_operation_xyz
x,y,z
-x+y,-x,-z
-y,x-y,z
x,y,-z
-x+y,-x,z
-y,x-y,-z
x-y,-y,-z
-x,-x+y,-z
y,x,-z
y,x,z
x-y,-y,z
-x,-x+y,z
loop_
_atom_site_type_symbol
_atom_site_label
_atom_site_fract_x
_atom_site_fract_y
_atom_site_fract_z
Si Si1 0.196747 0.269793 0.672538
Si Si2 0.148467 0.409408 0.325575
Si Si3 0.855093 0.595956 0.825831
Si Si4 0.926408 0.519536 0.828039
Si Si5 0.073516 0.481049 0.673688
Si Si6 0.192539 0.929551 0.673229
O O1 0.206204 0.287995 0.500000
O O2 0.216629 0.216629 0.711898
O O3 0.240950 0.334425 0.762530
O O4 0.121524 0.240164 0.718318
O O5 0.160092 0.413325 0.500000
O O6 0.216445 0.432173 0.245047
O O7 0.119666 0.454000 0.272671
O O8 0.097980 0.336532 0.275122
O O9 0.880504 0.547520 0.781877
O O10 0.850966 0.601970 0.000000
O O11 0.900782 0.451698 0.745444
O O12 0.000000 0.570279 0.780810
O O13 0.922307 0.505375 0.000000
O O14 0.077110 0.489390 0.500000
O O15 0.000000 0.431624 0.724037
O O16 0.198049 0.938609 0.500000
O O17 0.216929 0.000000 0.747160
#
# Coordination Sequence:
#
# PCOD8327572 Si02
#       6
#    12  12  12  12  12  12
#     4   9  17  28  43  64  88 115 148 184 221 261
#     4   9  17  29  45  66  90 114 142 178 218 259
#     4  10  19  30  45  65  89 118 149 180 218 262
#     4   9  18  31  45  63  89 118 145 176 216 259
#     4   9  17  29  47  70  92 115 144 177 215 261
#     4   8  13  23  41  62  84 112 142 172 210 256
#
# _framework density 16.024106
#
# number of rings (size 3 to 8) (size 9 to 14) (size 15 to 20)
#    0.000    3.000    0.000    2.500    0.000    5.000 
#    0.000    1.667    0.000   13.000    0.000    2.333 
#    0.000    0.000    0.000    0.500    0.000    2.667 
#
# Total GULP energy -892540.737148 kJ/mol
# GULP energy per Si atom -12396.399127 kJ/mol
# Density = 1.598763 g / cm^3
# Si number density = 16.024106 Si / 1000 Ang^3
#
#
#
# Elastic Constant Matrix: (Units=GPa)
#
#
# Indices 1 2 3 4 5 6 
#
# 1 138.7409 84.6951 36.9054 0.0000 0.0000 0.0000
# 2 84.6951 138.7409 36.9054 0.0000 0.0000 0.0000
# 3 36.9054 36.9054 33.3600 0.0000 0.0000 0.0000
# 4 0.0000 0.0000 0.0000 19.1136 0.0000 0.0000
# 5 0.0000 0.0000 0.0000 0.0000 19.1136 0.0000
# 6 0.0000 0.0000 0.0000 0.0000 0.0000 27.0229
#
#
#
# Elastic Compliance Matrix: (Units=1/GPa)
#
#
# Indices 1 2 3 4 5 6 
#
# 1 0.012778 -0.005725 -0.007803 0.000000 0.000000 0.000000
# 2 -0.005725 0.012778 -0.007803 0.000000 0.000000 0.000000
# 3 -0.007803 -0.007803 0.047240 0.000000 0.000000 0.000000
# 4 0.000000 0.000000 0.000000 0.052319 0.000000 0.000000
# 5 0.000000 0.000000 0.000000 0.000000 0.052319 0.000000
# 6 0.000000 0.000000 0.000000 0.000000 0.000000 0.037006
#
#
# Mechanical properties :
#
#
# Convention : Reuss Voigt Hill
#
# Bulk Modulus (GPa) = 33.18364 69.76152 51.47258
# Shear Modulus (GPa) = 18.71644 23.20574 20.96109
#
# Velocity S-wave (km/s) = 3.42134 3.80962 3.62069
# Velocity P-wave (km/s) = 6.03000 7.93604 7.04776
#
# Compressibility (1/GPa) = 0.03013533
#
# Stress axis : x y z
#
# Youngs Moduli (GPa) = 78.25953 78.25953 21.16852
#
# Poissons Ratio (x) = 0.44802 0.16517
# Poissons Ratio (y) = 0.44802 0.16517
# Poissons Ratio (z) = 0.61064 0.61064
#
# Static dielectric constant tensor:
#      x y z
#    x 3.136640 0.000000 0.000000 
#    y 0.000000 3.136640 0.000000 
#    z 0.000000 0.000000 2.853340 
# 
# 
# High freq. dielectric constant tensor:
#      x y z
#    x 1.608820 0.000000 0.000000 
#    y 0.000000 1.608820 0.000000 
#    z 0.000000 0.000000 1.598730 
# 
# From -- ./inp_files/1234.got.cif
#   From: 2010.03.12/outbox.cif.g09.slc.cpg/sg189_1_cif.got.tgz:1234.got - 2010.04.01 12:03:36.
