data_PCOD8327646
_publ_section_title
;
Structure prediction by ZEFSAII (Michael W. Deem and Ramdas Pophale) SiO2 
 PCOD8327646
Probable space group: P -6 2 M
;
_chemical_formula_sum "Si O2"
_cell_formula_units_Z 54
_cell_length_a 15.138349
_cell_length_b 15.138349
_cell_length_c 16.137957
_cell_angle_alpha 90.000000
_cell_angle_beta 90.000000
_cell_angle_gamma 120.000000
_cell_volume 3202.847142
_symmetry_space_group_name_H-M "P -6 2 M"
_symmetry_group_IT_number 189
_symmetry_cell_setting 'hexagonal'
loop_
_space_group_symop_operation_xyz
x,y,z
-x+y,-x,-z
-y,x-y,z
x,y,-z
-x+y,-x,z
-y,x-y,-z
x-y,-y,-z
-x,-x+y,-z
y,x,-z
y,x,z
x-y,-y,z
-x,-x+y,z
loop_
_atom_site_type_symbol
_atom_site_label
_atom_site_fract_x
_atom_site_fract_y
_atom_site_fract_z
Si Si1 0.881194 0.658461 0.664902
Si Si2 0.231481 0.116321 0.173612
Si Si3 0.456345 0.764648 0.245819
Si Si4 0.116504 0.704660 0.906242
Si Si5 0.120526 0.878613 0.500000
O O1 0.854101 0.713270 0.737435
O O2 0.823185 0.537035 0.681006
O O3 0.845934 0.684085 0.579127
O O4 0.000000 0.694670 0.664265
O O5 0.137425 0.137425 0.177345
O O6 0.311660 0.184459 0.103371
O O7 0.190473 0.000000 0.150469
O O8 0.355951 0.776717 0.253874
O O9 0.501298 0.806937 0.155226
O O10 0.000000 0.618944 0.884684
O O11 0.144791 0.692615 0.000000
O O12 0.000000 0.838253 0.500000
O O13 0.178104 0.000000 0.500000
#
# Coordination Sequence:
#
# PCOD8327646 Si02
#       5
#    12  12  12  12   6
#     4   9  18  34  52  73 105 137 163 201 257 305
#     4   9  16  27  45  68  97 133 168 201 239 295
#     4   9  19  34  55  74  92 129 171 215 251 292
#     4   9  18  33  50  70 100 132 161 203 262 313
#     4  10  19  32  54  82 112 142 171 204 244 300
#
# _framework density 16.859998999999998
#
# number of rings (size 3 to 8) (size 9 to 14) (size 15 to 20)
#    0.444    2.444    0.000    3.000    0.000    1.333 
#    0.000   14.444    0.000    2.667    0.000    0.000 
#    0.000    0.000    0.000    0.000    0.000    0.000 
#
# Total GULP energy -669352.967980 kJ/mol
# GULP energy per Si atom -12395.425333 kJ/mol
# Density = 1.682162 g / cm^3
# Si number density = 16.859999 Si / 1000 Ang^3
#
#
#
# Elastic Constant Matrix: (Units=GPa)
#
#
# Indices 1 2 3 4 5 6 
#
# 1 93.9012 39.6685 36.5417 0.0000 0.0000 0.0000
# 2 39.6685 93.9012 36.5417 0.0000 0.0000 0.0000
# 3 36.5417 36.5417 96.0473 0.0000 0.0000 0.0000
# 4 0.0000 0.0000 0.0000 20.1101 0.0000 0.0000
# 5 0.0000 0.0000 0.0000 0.0000 20.1101 0.0000
# 6 0.0000 0.0000 0.0000 0.0000 0.0000 27.1163
#
#
#
# Elastic Compliance Matrix: (Units=1/GPa)
#
#
# Indices 1 2 3 4 5 6 
#
# 1 0.013947 -0.004492 -0.003597 0.000000 0.000000 0.000000
# 2 -0.004492 0.013947 -0.003597 0.000000 0.000000 0.000000
# 3 -0.003597 -0.003597 0.013149 0.000000 0.000000 0.000000
# 4 0.000000 0.000000 0.000000 0.049726 0.000000 0.000000
# 5 0.000000 0.000000 0.000000 0.000000 0.049726 0.000000
# 6 0.000000 0.000000 0.000000 0.000000 0.000000 0.036878
#
#
# Mechanical properties :
#
#
# Convention : Reuss Voigt Hill
#
# Bulk Modulus (GPa) = 56.59365 56.59484 56.59425
# Shear Modulus (GPa) = 24.19712 24.87382 24.53547
#
# Velocity S-wave (km/s) = 3.79249 3.84515 3.81891
# Velocity P-wave (km/s) = 7.26753 7.30438 7.28598
#
# Compressibility (1/GPa) = 0.01766983
#
# Stress axis : x y z
#
# Youngs Moduli (GPa) = 71.69996 71.69996 76.05329
#
# Poissons Ratio (x) = 0.32208 0.27358
# Poissons Ratio (y) = 0.32208 0.27358
# Poissons Ratio (z) = 0.25792 0.25792
#
# Static dielectric constant tensor:
#      x y z
#    x 3.012340 0.000000 0.000000 
#    y 0.000000 3.012340 0.000000 
#    z 0.000000 0.000000 3.200730 
# 
# 
# High freq. dielectric constant tensor:
#      x y z
#    x 1.638290 0.000000 0.000000 
#    y 0.000000 1.638290 0.000000 
#    z 0.000000 0.000000 1.648070 
# 
# From -- ./inp_files/2992.got.cif
#   From: 2010.03.12/outbox.cif.g09.slc.cpg/sg189_2_cif.got.tgz:2992.got - 2010.04.01 12:03:36.
