data_PCOD8327999
_publ_section_title
;
Structure prediction by ZEFSAII (Michael W. Deem and Ramdas Pophale) SiO2 
 PCOD8327999
Probable space group: P -6 2 C
;
_chemical_formula_sum "Si O2"
_cell_formula_units_Z 72
_cell_length_a 23.690281
_cell_length_b 23.690281
_cell_length_c 8.644089
_cell_angle_alpha 90.000000
_cell_angle_beta 90.000000
_cell_angle_gamma 120.000000
_cell_volume 4201.363766
_symmetry_space_group_name_H-M "P -6 2 C"
_symmetry_group_IT_number 190
_symmetry_cell_setting 'hexagonal'
loop_
_space_group_symop_operation_xyz
x,y,z
-x+y,-x,1/2-z
-y,x-y,z
x,y,1/2-z
-x+y,-x,z
-y,x-y,1/2-z
x-y,-y,-z
-x,-x+y,-z
y,x,-z
y,x,1/2+z
x-y,-y,1/2+z
-x,-x+y,1/2+z
loop_
_atom_site_type_symbol
_atom_site_label
_atom_site_fract_x
_atom_site_fract_y
_atom_site_fract_z
Si Si1 0.070781 0.140274 0.066549
Si Si2 0.930966 0.189723 0.432045
Si Si3 0.527186 0.261014 0.569622
Si Si4 0.931579 0.406322 0.429426
Si Si5 0.852976 0.260873 0.068353
Si Si6 0.602436 0.196226 0.430327
O O1 0.068498 0.135486 0.250000
O O2 0.123535 0.123535 0.000000
O O3 0.092831 0.213434 0.013395
O O4 0.000000 0.089616 0.000000
O O5 0.938982 0.183237 0.250000
O O6 0.877770 0.210711 0.469619
O O7 0.000000 0.244152 0.500000
O O8 0.536216 0.253853 0.750000
O O9 0.451941 0.214628 0.521022
O O10 0.574540 0.243358 0.475241
O O11 0.546584 0.334534 0.529822
O O12 0.943229 0.406585 0.250000
O O13 0.906120 0.333012 0.492001
O O14 0.878364 0.427452 0.469233
O O15 0.000000 0.458484 0.500000
O O16 0.840311 0.263500 0.250000
O O17 0.620207 0.205960 0.250000
#
# Coordination Sequence:
#
# PCOD8327999 Si02
#       6
#    12  12  12  12  12  12
#     4  11  21  34  51  73 101 131 165 203 248 296
#     4  10  19  32  51  75 102 132 166 202 243 292
#     4  11  21  32  50  76 100 125 164 208 244 282
#     4   9  18  31  49  72  97 128 161 194 235 282
#     4   9  19  34  50  71 101 135 164 192 239 296
#     4  10  20  35  51  69  99 135 163 193 244 300
#
# _framework density 17.137294000000001
#
# number of rings (size 3 to 8) (size 9 to 14) (size 15 to 20)
#    0.000    2.000    0.000    7.000    0.000    4.667 
#    0.000    0.000    0.000    1.000    0.000    4.667 
#    0.000    0.000    0.000    0.000    0.000    0.000 
#
# Total GULP energy -892964.230278 kJ/mol
# GULP energy per Si atom -12402.280976 kJ/mol
# Density = 1.709829 g / cm^3
# Si number density = 17.137294 Si / 1000 Ang^3
#
#
#
# Elastic Constant Matrix: (Units=GPa)
#
#
# Indices 1 2 3 4 5 6 
#
# 1 102.1770 57.4071 41.1520 0.0000 0.0000 0.0000
# 2 57.4071 102.1770 41.1520 0.0000 0.0000 0.0000
# 3 41.1520 41.1520 82.0752 0.0000 0.0000 0.0000
# 4 0.0000 0.0000 0.0000 27.9700 0.0000 0.0000
# 5 0.0000 0.0000 0.0000 0.0000 27.9700 0.0000
# 6 0.0000 0.0000 0.0000 0.0000 0.0000 22.3850
#
#
#
# Elastic Compliance Matrix: (Units=1/GPa)
#
#
# Indices 1 2 3 4 5 6 
#
# 1 0.015394 -0.006942 -0.004238 0.000000 0.000000 0.000000
# 2 -0.006942 0.015394 -0.004238 0.000000 0.000000 0.000000
# 3 -0.004238 -0.004238 0.016433 0.000000 0.000000 0.000000
# 4 0.000000 0.000000 0.000000 0.035753 0.000000 0.000000
# 5 0.000000 0.000000 0.000000 0.000000 0.035753 0.000000
# 6 0.000000 0.000000 0.000000 0.000000 0.000000 0.044673
#
#
# Mechanical properties :
#
#
# Convention : Reuss Voigt Hill
#
# Bulk Modulus (GPa) = 61.02644 62.87238 61.94941
# Shear Modulus (GPa) = 25.03790 25.44620 25.24205
#
# Velocity S-wave (km/s) = 3.82647 3.85755 3.84204
# Velocity P-wave (km/s) = 7.43035 7.52383 7.47724
#
# Compressibility (1/GPa) = 0.01638634
#
# Stress axis : x y z
#
# Youngs Moduli (GPa) = 64.95978 64.95978 60.85144
#
# Poissons Ratio (x) = 0.45097 0.25787
# Poissons Ratio (y) = 0.45097 0.25787
# Poissons Ratio (z) = 0.27528 0.27528
#
# Static dielectric constant tensor:
#      x y z
#    x 3.200220 0.000000 0.000000 
#    y 0.000000 3.200220 0.000000 
#    z 0.000000 0.000000 3.241680 
# 
# 
# High freq. dielectric constant tensor:
#      x y z
#    x 1.651060 0.000000 0.000000 
#    y 0.000000 1.651060 0.000000 
#    z 0.000000 0.000000 1.673080 
# 
# From -- ./inp_files/1245.got.cif
#   From: 2010.06.25/outbox.cif.g09.slc.cpg/sg190_1_cif.got.tgz:1245.got - 2010.06.28 13:08:06.
