data_PCOD8327828
_publ_section_title
;
Structure prediction by ZEFSAII (Michael W. Deem and Ramdas Pophale) SiO2 
 PCOD8327828
Probable space group: P -6 2 M
;
_chemical_formula_sum "Si O2"
_cell_formula_units_Z 48
_cell_length_a 18.766070
_cell_length_b 18.766070
_cell_length_c 9.027647
_cell_angle_alpha 90.000000
_cell_angle_beta 90.000000
_cell_angle_gamma 120.000000
_cell_volume 2753.289411
_symmetry_space_group_name_H-M "P -6 2 M"
_symmetry_group_IT_number 189
_symmetry_cell_setting 'hexagonal'
loop_
_space_group_symop_operation_xyz
x,y,z
-x+y,-x,-z
-y,x-y,z
x,y,-z
-x+y,-x,z
-y,x-y,-z
x-y,-y,-z
-x,-x+y,-z
y,x,-z
y,x,z
x-y,-y,z
-x,-x+y,z
loop_
_atom_site_type_symbol
_atom_site_label
_atom_site_fract_x
_atom_site_fract_y
_atom_site_fract_z
Si Si1 0.766106 0.673098 0.825173
Si Si2 0.333403 0.823362 0.173751
Si Si3 0.905888 0.662150 0.670866
Si Si4 0.170058 0.664056 0.175680
O O1 0.739143 0.739143 0.780724
O O2 0.694008 0.582467 0.773953
O O3 0.850963 0.696576 0.744578
O O4 0.780584 0.672519 0.000000
O O5 0.262968 0.732164 0.219377
O O6 0.421780 0.844721 0.240819
O O7 0.345765 0.827758 0.000000
O O8 0.881236 0.642955 0.500000
O O9 0.893358 0.579343 0.747467
O O10 0.000000 0.732677 0.691191
O O11 0.156232 0.662751 0.000000
#
# Coordination Sequence:
#
# PCOD8327828 Si02
#       4
#    12  12  12  12
#     4   9  18  33  53  76  98 120 152 196 244 293
#     4   8  14  25  44  71  98 124 158 197 232 266
#     4  10  21  35  49  68  96 128 161 196 235 283
#     4   9  16  28  48  71  96 129 167 203 237 273
#
# _framework density 17.433692000000001
#
# number of rings (size 3 to 8) (size 9 to 14) (size 15 to 20)
#    0.000    3.000    0.000    2.750    0.000    5.500 
#    0.000    7.500    0.000    0.500    0.000    0.000 
#    0.000    0.000    0.000    0.000    0.000    0.000 
#
# Total GULP energy -594970.728710 kJ/mol
# GULP energy per Si atom -12395.223515 kJ/mol
# Density = 1.739401 g / cm^3
# Si number density = 17.433692 Si / 1000 Ang^3
#
#
#
# Elastic Constant Matrix: (Units=GPa)
#
#
# Indices 1 2 3 4 5 6 
#
# 1 110.0016 61.9096 43.8593 0.0000 0.0000 0.0000
# 2 61.9096 110.0016 43.8593 0.0000 0.0000 0.0000
# 3 43.8593 43.8593 56.9644 0.0000 0.0000 0.0000
# 4 0.0000 0.0000 0.0000 14.4302 0.0000 0.0000
# 5 0.0000 0.0000 0.0000 0.0000 14.4302 0.0000
# 6 0.0000 0.0000 0.0000 0.0000 0.0000 24.0460
#
#
#
# Elastic Compliance Matrix: (Units=1/GPa)
#
#
# Indices 1 2 3 4 5 6 
#
# 1 0.015187 -0.005606 -0.007377 0.000000 0.000000 0.000000
# 2 -0.005606 0.015187 -0.007377 0.000000 0.000000 0.000000
# 3 -0.007377 -0.007377 0.028914 0.000000 0.000000 0.000000
# 4 0.000000 0.000000 0.000000 0.069299 0.000000 0.000000
# 5 0.000000 0.000000 0.000000 0.000000 0.069299 0.000000
# 6 0.000000 0.000000 0.000000 0.000000 0.000000 0.041587
#
#
# Mechanical properties :
#
#
# Convention : Reuss Voigt Hill
#
# Bulk Modulus (GPa) = 53.85315 64.02488 58.93901
# Shear Modulus (GPa) = 17.45912 19.07059 18.26486
#
# Velocity S-wave (km/s) = 3.16802 3.31099 3.24029
# Velocity P-wave (km/s) = 6.65876 7.17087 6.91956
#
# Compressibility (1/GPa) = 0.01856902
#
# Stress axis : x y z
#
# Youngs Moduli (GPa) = 65.84473 65.84473 34.58498
#
# Poissons Ratio (x) = 0.36914 0.25513
# Poissons Ratio (y) = 0.36914 0.25513
# Poissons Ratio (z) = 0.48572 0.48572
#
# Static dielectric constant tensor:
#      x y z
#    x 3.237210 0.000000 0.000000 
#    y 0.000000 3.237210 0.000000 
#    z 0.000000 0.000000 2.988230 
# 
# 
# High freq. dielectric constant tensor:
#      x y z
#    x 1.666190 0.000000 0.000000 
#    y 0.000000 1.666190 0.000000 
#    z 0.000000 0.000000 1.644200 
# 
# From -- ./inp_files/540.got.cif
#   From: 2010.03.12/outbox.cif.g09.slc.cpg/sg189_1_cif.got.tgz:540.got - 2010.04.01 12:03:36.
