data_PCOD8327317
_publ_section_title
;
Structure prediction by ZEFSAII (Michael W. Deem and Ramdas Pophale) SiO2 
 PCOD8327317
Probable space group: P -6 C 2
;
_chemical_formula_sum "Si O2"
_cell_formula_units_Z 64
_cell_length_a 13.814650
_cell_length_b 13.814650
_cell_length_c 18.155087
_cell_angle_alpha 90.000000
_cell_angle_beta 90.000000
_cell_angle_gamma 120.000000
_cell_volume 3000.604380
_symmetry_space_group_name_H-M "P -6 C 2"
_symmetry_group_IT_number 188
_symmetry_cell_setting 'hexagonal'
loop_
_space_group_symop_operation_xyz
x,y,z
-x+y,-x,1/2-z
-y,x-y,z
x,y,1/2-z
-x+y,-x,z
-y,x-y,1/2-z
-y,-x,-z
-x+y,y,-z
x,x-y,-z
-x+y,y,1/2+z
x,x-y,1/2+z
-y,-x,1/2+z
loop_
_atom_site_type_symbol
_atom_site_label
_atom_site_fract_x
_atom_site_fract_y
_atom_site_fract_z
Si Si1 0.658675 0.877641 0.167456
Si Si2 0.907920 0.451013 0.836188
Si Si3 0.000770 0.318973 0.102190
Si Si4 0.124516 0.456049 0.974656
Si Si5 0.666667 0.333334 0.336659
Si Si6 0.879820 0.663080 0.334183
O O1 0.608192 0.860092 0.250000
O O2 0.689912 0.783208 0.150328
O O3 0.565946 0.878515 0.112834
O O4 0.773444 0.998346 0.163190
O O5 0.930128 0.464794 0.750000
O O6 0.997144 0.566441 0.873971
O O7 0.787116 0.434049 0.861197
O O8 0.905902 0.338920 0.863567
O O9 0.882800 0.206114 0.113278
O O10 0.040430 0.338700 0.016904
O O11 0.251105 0.502209 0.000000
O O12 0.088238 0.544119 0.000000
O O13 0.666667 0.333334 0.250000
O O14 0.831697 0.636635 0.250000
#
# Coordination Sequence:
#
# PCOD8327317 Si02
#       6
#    12  12  12  12   4  12
#     4  10  22  40  59  85 123 165 212 256 307 372
#     4  10  17  29  53  87 126 162 197 242 304 376
#     4  11  21  36  61  88 123 165 209 256 315 374
#     4  10  22  41  64  90 122 163 207 261 323 374
#     4   9  15  24  45  81 124 155 185 224 289 375
#     4  10  20  34  56  88 123 160 204 255 302 362
#
# _framework density 21.329035999999999
#
# number of rings (size 3 to 8) (size 9 to 14) (size 15 to 20)
#    0.000    1.875    1.875    3.000    0.000    0.750 
#    1.125    4.688    0.000    0.750    0.000    2.625 
#    0.000    0.000    0.000    0.000    0.000    0.000 
#
# Total GULP energy -792934.697009 kJ/mol
# GULP energy per Si atom -12389.604641 kJ/mol
# Density = 2.128049 g / cm^3
# Si number density = 21.329036 Si / 1000 Ang^3
#
#
#
# Elastic Constant Matrix: (Units=GPa)
#
#
# Indices 1 2 3 4 5 6 
#
# 1 105.9544 55.2121 42.7266 -0.0001 0.0000 0.0000
# 2 55.2121 105.9534 42.7266 0.0000 0.0000 -0.0008
# 3 42.7266 42.7266 122.3961 0.0000 0.0000 0.0001
# 4 -0.0001 0.0000 0.0000 19.8335 0.0000 0.0000
# 5 0.0000 0.0000 0.0000 0.0000 19.8335 -0.0002
# 6 0.0000 -0.0008 0.0001 0.0000 -0.0002 25.3691
#
#
#
# Elastic Compliance Matrix: (Units=1/GPa)
#
#
# Indices 1 2 3 4 5 6 
#
# 1 0.013661 -0.006047 -0.002658 0.000000 0.000000 0.000000
# 2 -0.006047 0.013661 -0.002658 0.000000 0.000000 0.000000
# 3 -0.002658 -0.002658 0.010026 0.000000 0.000000 0.000000
# 4 0.000000 0.000000 0.000000 0.050420 0.000000 0.000000
# 5 0.000000 0.000000 0.000000 0.000000 0.050420 0.000000
# 6 0.000000 0.000000 0.000000 0.000000 0.000000 0.039418
#
#
# Mechanical properties :
#
#
# Convention : Reuss Voigt Hill
#
# Bulk Modulus (GPa) = 68.38904 68.40384 68.39644
# Shear Modulus (GPa) = 24.36593 25.91646 25.14119
#
# Velocity S-wave (km/s) = 3.38358 3.48958 3.43699
# Velocity P-wave (km/s) = 6.88464 6.95533 6.92007
#
# Compressibility (1/GPa) = 0.01462223
#
# Stress axis : x y z
#
# Youngs Moduli (GPa) = 73.20230 73.20145 99.74164
#
# Poissons Ratio (x) = 0.44263 0.26511
# Poissons Ratio (y) = 0.44264 0.26511
# Poissons Ratio (z) = 0.19457 0.19457
#
# Static dielectric constant tensor:
#      x y z
#    x 4.726670 0.000060 0.000000 
#    y 0.000060 4.726600 0.000010 
#    z 0.000000 0.000010 3.742850 
# 
# 
# High freq. dielectric constant tensor:
#      x y z
#    x 1.833500 0.000000 0.000000 
#    y 0.000000 1.833500 0.000000 
#    z 0.000000 0.000000 1.821630 
# 
# From -- ./inp_files/3066.got.cif
#   From: 2010.03.12/outbox.cif.g09.slc.cpg/sg188_2_cif.got.tgz:3066.got - 2010.04.01 12:01:06.
