data_PCOD8327456
_publ_section_title
;
Structure prediction by ZEFSAII (Michael W. Deem and Ramdas Pophale) SiO2 
 PCOD8327456
Probable space group: P -6 C 2
;
_chemical_formula_sum "Si O2"
_cell_formula_units_Z 72
_cell_length_a 15.739687
_cell_length_b 15.739687
_cell_length_c 17.898135
_cell_angle_alpha 90.000000
_cell_angle_beta 90.000000
_cell_angle_gamma 120.000000
_cell_volume 3839.994432
_symmetry_space_group_name_H-M "P -6 C 2"
_symmetry_group_IT_number 188
_symmetry_cell_setting 'hexagonal'
loop_
_space_group_symop_operation_xyz
x,y,z
-x+y,-x,1/2-z
-y,x-y,z
x,y,1/2-z
-x+y,-x,z
-y,x-y,1/2-z
-y,-x,-z
-x+y,y,-z
x,x-y,-z
-x+y,y,1/2+z
x,x-y,1/2+z
-y,-x,1/2+z
loop_
_atom_site_type_symbol
_atom_site_label
_atom_site_fract_x
_atom_site_fract_y
_atom_site_fract_z
Si Si1 0.235171 0.276005 0.413355
Si Si2 0.333058 0.858852 0.834526
Si Si3 0.330839 0.165420 0.337961
Si Si4 0.729291 0.270711 0.585912
Si Si5 0.235172 0.276005 0.586644
Si Si6 0.141147 0.666942 0.834526
O O1 0.307053 0.388899 0.393507
O O2 0.267917 0.213458 0.364615
O O3 0.247082 0.259530 0.500000
O O4 0.122704 0.245408 0.394348
O O5 0.332821 0.895765 0.750000
O O6 0.256628 0.743372 0.840330
O O7 0.438970 0.877941 0.857262
O O8 0.336083 0.168040 0.250000
O O9 0.443477 0.221741 0.365397
O O10 0.267919 0.054461 0.364616
O O11 0.777628 0.388815 0.601741
O O12 0.746174 0.253827 0.500000
O O13 0.307054 0.388899 0.606492
O O14 0.104235 0.667178 0.750000
#
# Coordination Sequence:
#
# PCOD8327456 Si02
#       6
#    12  12  12  12  12  12
#     4  10  22  40  59  80 109 146 190 238 284 337
#     4   9  17  31  53  82 116 151 186 226 273 327
#     4  12  24  38  62  88 114 150 188 238 299 352
#     4   8  18  38  62  88 120 156 194 238 285 342
#     4  10  22  40  59  80 109 146 190 238 284 337
#     4   9  17  31  53  82 116 151 186 226 273 327
#
# _framework density 18.750026999999999
#
# number of rings (size 3 to 8) (size 9 to 14) (size 15 to 20)
#    0.333    2.000    0.000    2.833    0.000    6.000 
#    1.000    0.000    0.000    2.000    0.000    0.000 
#    0.000    0.000    0.000    0.000    0.000    0.000 
#
# Total GULP energy -892493.691370 kJ/mol
# GULP energy per Si atom -12395.745713 kJ/mol
# Density = 1.870735 g / cm^3
# Si number density = 18.750027 Si / 1000 Ang^3
#
#
#
# Elastic Constant Matrix: (Units=GPa)
#
#
# Indices 1 2 3 4 5 6 
#
# 1 109.8465 71.7808 68.7921 0.0000 0.0000 0.0000
# 2 71.7808 109.8465 68.7921 0.0000 0.0000 0.0000
# 3 68.7921 68.7921 127.9464 0.0000 0.0000 0.0000
# 4 0.0000 0.0000 0.0000 27.8431 0.0000 0.0000
# 5 0.0000 0.0000 0.0000 0.0000 27.8431 0.0000
# 6 0.0000 0.0000 0.0000 0.0000 0.0000 19.0329
#
#
#
# Elastic Compliance Matrix: (Units=1/GPa)
#
#
# Indices 1 2 3 4 5 6 
#
# 1 0.017780 -0.008491 -0.004994 0.000000 0.000000 0.000000
# 2 -0.008491 0.017780 -0.004994 0.000000 0.000000 0.000000
# 3 -0.004994 -0.004994 0.013186 0.000000 0.000000 0.000000
# 4 0.000000 0.000000 0.000000 0.035916 0.000000 0.000000
# 5 0.000000 0.000000 0.000000 0.000000 0.035916 0.000000
# 6 0.000000 0.000000 0.000000 0.000000 0.000000 0.052541
#
#
# Mechanical properties :
#
#
# Convention : Reuss Voigt Hill
#
# Bulk Modulus (GPa) = 84.83960 85.15215 84.99587
# Shear Modulus (GPa) = 23.36389 24.16211 23.76300
#
# Velocity S-wave (km/s) = 3.53380 3.59366 3.56386
# Velocity P-wave (km/s) = 7.87377 7.92037 7.89711
#
# Compressibility (1/GPa) = 0.01178695
#
# Stress axis : x y z
#
# Youngs Moduli (GPa) = 56.24384 56.24384 75.83574
#
# Poissons Ratio (x) = 0.47755 0.37875
# Poissons Ratio (y) = 0.47755 0.37875
# Poissons Ratio (z) = 0.28090 0.28090
#
# Static dielectric constant tensor:
#      x y z
#    x 3.517960 0.000000 0.000000 
#    y 0.000000 3.517960 0.000000 
#    z 0.000000 0.000000 3.414990 
# 
# 
# High freq. dielectric constant tensor:
#      x y z
#    x 1.724940 0.000000 0.000000 
#    y 0.000000 1.724940 0.000000 
#    z 0.000000 0.000000 1.730560 
# 
# From -- ./inp_files/3183.got.cif
#   From: 2010.03.12/outbox.cif.g09.slc.cpg/sg188_2_cif.got.tgz:3183.got - 2010.04.01 12:01:06.
