data_PCOD8327923
_publ_section_title
;
Structure prediction by ZEFSAII (Michael W. Deem and Ramdas Pophale) SiO2 
 PCOD8327923
Probable space group: P -6 2 M
;
_chemical_formula_sum "Si O2"
_cell_formula_units_Z 96
_cell_length_a 27.192902
_cell_length_b 27.192902
_cell_length_c 9.719326
_cell_angle_alpha 90.000000
_cell_angle_beta 90.000000
_cell_angle_gamma 120.000000
_cell_volume 6224.119123
_symmetry_space_group_name_H-M "P -6 2 M"
_symmetry_group_IT_number 189
_symmetry_cell_setting 'hexagonal'
loop_
_space_group_symop_operation_xyz
x,y,z
-x+y,-x,-z
-y,x-y,z
x,y,-z
-x+y,-x,z
-y,x-y,-z
x-y,-y,-z
-x,-x+y,-z
y,x,-z
y,x,z
x-y,-y,z
-x,-x+y,z
loop_
_atom_site_type_symbol
_atom_site_label
_atom_site_fract_x
_atom_site_fract_y
_atom_site_fract_z
Si Si1 0.734854 0.064567 0.341600
Si Si2 0.172993 0.236403 0.841976
Si Si3 0.666493 0.220042 0.159193
Si Si4 0.832506 0.281004 0.341703
Si Si5 0.064567 0.329713 0.658400
Si Si6 0.553549 0.220042 0.840807
Si Si7 0.448498 0.281004 0.341703
Si Si8 0.936590 0.172993 0.158024
O O1 0.754634 0.073140 0.500000
O O2 0.789567 0.080739 0.250216
O O3 0.711773 0.106748 0.302628
O O4 0.685120 0.000000 0.313119
O O5 0.185978 0.185978 0.805755
O O6 0.106693 0.213386 0.811824
O O7 0.188221 0.255504 0.000000
O O8 0.607781 0.215563 0.203720
O O9 0.716192 0.283808 0.190214
O O10 0.674743 0.175182 0.248526
O O11 0.666133 0.204515 0.000000
O O12 0.830785 0.296851 0.500000
O O13 0.893252 0.288227 0.302629
O O14 0.824818 0.325257 0.248526
O O15 0.783462 0.216538 0.310794
O O16 0.073140 0.318505 0.500000
O O17 0.080739 0.291173 0.749785
O O18 0.000000 0.314880 0.686881
O O19 0.538382 0.204514 0.000000
O O20 0.466066 0.296851 0.500000
O O21 0.000000 0.185978 0.194246
O O22 0.932718 0.188221 0.000000
#
# Coordination Sequence:
#
# PCOD8327923 Si02
#       8
#    12  12  12  12  12  12  12  12
#     4   9  17  29  45  64  86 112 141 173 209 249
#     4   9  17  28  42  61  85 112 141 174 212 252
#     4   9  17  29  45  64  85 109 137 169 205 245
#     4   9  17  28  42  62  87 111 135 167 207 248
#     4   9  17  29  45  64  86 112 141 173 209 249
#     4   9  17  29  45  64  85 109 137 169 205 245
#     4   9  17  28  42  62  87 111 135 167 207 248
#     4   9  17  28  42  61  85 112 141 174 212 252
#
# _framework density 15.423870000000001
#
# number of rings (size 3 to 8) (size 9 to 14) (size 15 to 20)
#    0.000    3.000    0.000    1.000    0.000    4.000 
#    0.000    2.500    0.000    2.500    0.000    7.000 
#    0.000    0.000    0.000    6.250    0.000    6.500 
#
# Total GULP energy -1190364.678467 kJ/mol
# GULP energy per Si atom -12399.632067 kJ/mol
# Density = 1.538876 g / cm^3
# Si number density = 15.423870 Si / 1000 Ang^3
#
#
#
# Elastic Constant Matrix: (Units=GPa)
#
#
# Indices 1 2 3 4 5 6 
#
# 1 112.0447 65.8459 54.1857 0.0000 0.0000 0.0000
# 2 65.8459 112.0447 54.1857 0.0000 0.0000 0.0000
# 3 54.1857 54.1857 60.1588 0.0000 0.0000 0.0000
# 4 0.0000 0.0000 0.0000 23.6278 0.0000 0.0000
# 5 0.0000 0.0000 0.0000 0.0000 23.6278 0.0000
# 6 0.0000 0.0000 0.0000 0.0000 0.0000 23.0994
#
#
#
# Elastic Compliance Matrix: (Units=1/GPa)
#
#
# Indices 1 2 3 4 5 6 
#
# 1 0.017051 -0.004595 -0.011220 0.000000 0.000000 0.000000
# 2 -0.004595 0.017051 -0.011220 0.000000 0.000000 0.000000
# 3 -0.011220 -0.011220 0.036834 0.000000 0.000000 0.000000
# 4 0.000000 0.000000 0.000000 0.042323 0.000000 0.000000
# 5 0.000000 0.000000 0.000000 0.000000 0.042323 0.000000
# 6 0.000000 0.000000 0.000000 0.000000 0.000000 0.043291
#
#
# Mechanical properties :
#
#
# Convention : Reuss Voigt Hill
#
# Bulk Modulus (GPa) = 59.28287 70.29807 64.79047
# Shear Modulus (GPa) = 19.33757 21.40640 20.37198
#
# Velocity S-wave (km/s) = 3.54466 3.72946 3.63824
# Velocity P-wave (km/s) = 7.43452 8.01384 7.72961
#
# Compressibility (1/GPa) = 0.01686828
#
# Stress axis : x y z
#
# Youngs Moduli (GPa) = 58.64746 58.64746 27.14876
#
# Poissons Ratio (x) = 0.26946 0.30460
# Poissons Ratio (y) = 0.26946 0.30460
# Poissons Ratio (z) = 0.65801 0.65801
#
# Static dielectric constant tensor:
#      x y z
#    x 2.921860 0.000000 0.000000 
#    y 0.000000 2.921860 0.000000 
#    z 0.000000 0.000000 3.015230 
# 
# 
# High freq. dielectric constant tensor:
#      x y z
#    x 1.579380 0.000000 0.000000 
#    y 0.000000 1.579380 0.000000 
#    z 0.000000 0.000000 1.596330 
# 
# From -- ./inp_files/2286.got.cif
#   From: 2010.03.12/outbox.cif.g09.slc.cpg/sg189_2_cif.got.tgz:2286.got - 2010.04.01 12:03:36.
