data_PCOD8327227
_publ_section_title
;
Structure prediction by ZEFSAII (Michael W. Deem and Ramdas Pophale) SiO2 
 PCOD8327227
Probable space group: P -6 M 2
;
_chemical_formula_sum "Si O2"
_cell_formula_units_Z 45
_cell_length_a 14.832355
_cell_length_b 14.832355
_cell_length_c 12.576823
_cell_angle_alpha 90.000000
_cell_angle_beta 90.000000
_cell_angle_gamma 120.000000
_cell_volume 2396.193046
_symmetry_space_group_name_H-M "P -6 M 2"
_symmetry_group_IT_number 187
_symmetry_cell_setting 'hexagonal'
loop_
_space_group_symop_operation_xyz
x,y,z
-x+y,-x,-z
-y,x-y,z
x,y,-z
-x+y,-x,z
-y,x-y,-z
-y,-x,-z
-x+y,y,-z
x,x-y,-z
-x+y,y,z
x,x-y,z
-y,-x,z
loop_
_atom_site_type_symbol
_atom_site_label
_atom_site_fract_x
_atom_site_fract_y
_atom_site_fract_z
Si Si1 0.983624 0.593401 0.621229
Si Si2 0.854984 0.145017 0.000000
Si Si3 0.846871 0.153130 0.623203
Si Si4 0.535719 0.665700 0.808769
Si Si5 0.932428 0.864857 0.800579
Si Si6 0.411315 0.386374 0.000000
O O1 0.020080 0.622925 0.500000
O O2 0.940617 0.470309 0.642650
O O3 0.894628 0.620270 0.650818
O O4 0.084404 0.663035 0.692399
O O5 0.892534 0.107467 0.101799
O O6 0.892583 0.266088 0.000000
O O7 0.864244 0.135757 0.500000
O O8 0.899710 0.100291 0.691658
O O9 0.561253 0.780627 0.834628
O O10 0.412037 0.587964 0.814282
O O11 0.593855 0.635421 0.894803
O O12 0.881825 0.940913 0.804641
O O13 0.537494 0.462507 0.000000
#
# Coordination Sequence:
#
# PCOD8327227 Si02
#       6
#    12   3   6  12   6   6
#     4   9  19  35  53  78 110 141 184 233 274 332
#     4  12  22  40  64  80 114 152 184 232 286 332
#     4  10  20  36  58  80 110 152 188 234 294 336
#     4  10  20  35  55  80 110 142 177 221 271 326
#     4  10  24  40  56  84 116 146 192 242 279 335
#     4  10  23  38  55  85 112 139 182 228 269 328
#
# _framework density 18.779789999999998
#
# number of rings (size 3 to 8) (size 9 to 14) (size 15 to 20)
#    0.267    1.867    0.000    2.667    0.000    6.400 
#    1.200    4.000    0.000    1.600    0.000    0.000 
#    0.000    0.000    0.000    0.000    0.000    0.000 
#
# Total GULP energy -557859.652487 kJ/mol
# GULP energy per Si atom -12396.881166 kJ/mol
# Density = 1.873705 g / cm^3
# Si number density = 18.779790 Si / 1000 Ang^3
#
#
#
# Elastic Constant Matrix: (Units=GPa)
#
#
# Indices 1 2 3 4 5 6 
#
# 1 122.3267 80.4387 51.9594 0.0000 0.0009 0.0000
# 2 80.4387 122.3267 51.9594 0.0000 -0.0009 0.0000
# 3 51.9594 51.9594 98.5379 0.0000 0.0000 0.0000
# 4 0.0000 0.0000 0.0000 -25.1410 0.0000 -0.0009
# 5 0.0009 -0.0009 0.0000 0.0000 -25.1410 0.0000
# 6 0.0000 0.0000 0.0000 -0.0009 0.0000 20.9440
#
#
#
# Elastic Compliance Matrix: (Units=1/GPa)
#
#
# Indices 1 2 3 4 5 6 
#
# 1 0.015316 -0.008557 -0.003564 0.000000 0.000001 0.000000
# 2 -0.008557 0.015316 -0.003564 0.000000 -0.000001 0.000000
# 3 -0.003564 -0.003564 0.013907 0.000000 0.000000 0.000000
# 4 0.000000 0.000000 0.000000 -0.039776 0.000000 -0.000002
# 5 0.000001 -0.000001 0.000000 0.000000 -0.039776 0.000000
# 6 0.000000 0.000000 0.000000 -0.000002 0.000000 0.047746
#
#
# Mechanical properties :
#
#
# Convention : Reuss Voigt Hill
#
# Bulk Modulus (GPa) = 75.93880 79.10072 77.51976
# Shear Modulus (GPa) = 103.11027 4.72134 53.91580
#
# Velocity S-wave (km/s) = 7.41782 1.58730 5.36394
# Velocity P-wave (km/s) = 10.67191 6.75062 8.92918
#
# Compressibility (1/GPa) = 0.01316850
#
# Stress axis : x y z
#
# Youngs Moduli (GPa) = 65.29261 65.29261 71.90829
#
# Poissons Ratio (x) = 0.55874 0.25625
# Poissons Ratio (y) = 0.55874 0.25625
# Poissons Ratio (z) = 0.23268 0.23268
#
# Static dielectric constant tensor:
#      x y z
#    x 3.421360 0.000000 0.000000 
#    y 0.000000 3.421360 0.000000 
#    z 0.000000 0.000000 3.689960 
# 
# 
# High freq. dielectric constant tensor:
#      x y z
#    x 1.723000 0.000000 0.000000 
#    y 0.000000 1.723000 0.000000 
#    z 0.000000 0.000000 1.748300 
# 
# From -- ./inp_files/1455.got.cif
#   From: 2010.03.12/outbox.cif.g09.slc.cpg/sg187_1_cif.got.tgz:1455.got - 2010.04.01 11:58:23.
