data_PCOD8327902
_publ_section_title
;
Structure prediction by ZEFSAII (Michael W. Deem and Ramdas Pophale) SiO2 
 PCOD8327902
Probable space group: P -6 2 M
;
_chemical_formula_sum "Si O2"
_cell_formula_units_Z 44
_cell_length_a 17.025202
_cell_length_b 17.025202
_cell_length_c 8.845199
_cell_angle_alpha 90.000000
_cell_angle_beta 90.000000
_cell_angle_gamma 120.000000
_cell_volume 2220.356891
_symmetry_space_group_name_H-M "P -6 2 M"
_symmetry_group_IT_number 189
_symmetry_cell_setting 'hexagonal'
loop_
_space_group_symop_operation_xyz
x,y,z
-x+y,-x,-z
-y,x-y,z
x,y,-z
-x+y,-x,z
-y,x-y,-z
x-y,-y,-z
-x,-x+y,-z
y,x,-z
y,x,z
x-y,-y,z
-x,-x+y,z
loop_
_atom_site_type_symbol
_atom_site_label
_atom_site_fract_x
_atom_site_fract_y
_atom_site_fract_z
Si Si1 0.662154 0.106174 0.666583
Si Si2 0.180617 0.000000 0.320397
Si Si3 0.488707 0.104300 0.676143
Si Si4 0.158081 0.360387 0.175554
Si Si5 0.000000 0.000000 0.320640
O O1 0.704644 0.145099 0.500000
O O2 0.595341 0.144434 0.715513
O O3 0.739415 0.125551 0.787931
O O4 0.597497 0.000000 0.652163
O O5 0.182776 0.000000 0.500000
O O6 0.180670 0.910873 0.263750
O O7 0.090234 0.000000 0.261367
O O8 0.477136 0.118178 0.500000
O O9 0.449633 0.155375 0.774994
O O10 0.429799 0.000000 0.722317
O O11 0.137002 0.340708 0.000000
O O12 0.000000 0.000000 0.500000
#
# Coordination Sequence:
#
# PCOD8327902 Si02
#       5
#    12   6  12  12   2
#     4   9  20  39  63  87 112 151 203 250 292 350
#     4  11  23  43  67  90 119 162 217 267 308 365
#     4   9  18  37  63  86 109 148 199 246 287 342
#     4  12  24  37  58  93 127 161 197 243 315 377
#     4   9  24  45  67  92 115 156 217 275 310 339
#
# _framework density 19.816635000000002
#
# number of rings (size 3 to 8) (size 9 to 14) (size 15 to 20)
#    0.000    1.909    1.364    4.500    1.909    1.636 
#    1.636    4.773    0.000    0.000    0.000    0.000 
#    0.000    0.000    0.000    0.000    0.000    0.000 
#
# Total GULP energy -545475.520311 kJ/mol
# GULP energy per Si atom -12397.170916 kJ/mol
# Density = 1.977153 g / cm^3
# Si number density = 19.816635 Si / 1000 Ang^3
#
#
#
# Elastic Constant Matrix: (Units=GPa)
#
#
# Indices 1 2 3 4 5 6 
#
# 1 99.3887 45.9486 32.3052 0.0000 0.0000 0.0000
# 2 45.9486 99.3887 32.3052 0.0000 0.0000 0.0000
# 3 32.3052 32.3052 84.6999 0.0000 0.0000 0.0000
# 4 0.0000 0.0000 0.0000 12.2214 0.0000 0.0000
# 5 0.0000 0.0000 0.0000 0.0000 12.2214 0.0000
# 6 0.0000 0.0000 0.0000 0.0000 0.0000 26.7200
#
#
#
# Elastic Compliance Matrix: (Units=1/GPa)
#
#
# Indices 1 2 3 4 5 6 
#
# 1 0.013499 -0.005214 -0.003160 0.000000 0.000000 0.000000
# 2 -0.005214 0.013499 -0.003160 0.000000 0.000000 0.000000
# 3 -0.003160 -0.003160 0.014217 0.000000 0.000000 0.000000
# 4 0.000000 0.000000 0.000000 0.081824 0.000000 0.000000
# 5 0.000000 0.000000 0.000000 0.000000 0.081824 0.000000
# 6 0.000000 0.000000 0.000000 0.000000 0.000000 0.037425
#
#
# Mechanical properties :
#
#
# Convention : Reuss Voigt Hill
#
# Bulk Modulus (GPa) = 55.10462 56.06616 55.58539
# Shear Modulus (GPa) = 18.42273 21.76045 20.09159
#
# Velocity S-wave (km/s) = 3.05234 3.31734 3.18759
# Velocity P-wave (km/s) = 6.34744 6.55949 6.45433
#
# Compressibility (1/GPa) = 0.01814730
#
# Stress axis : x y z
#
# Youngs Moduli (GPa) = 74.07969 74.07969 70.33843
#
# Poissons Ratio (x) = 0.38622 0.22228
# Poissons Ratio (y) = 0.38622 0.22228
# Poissons Ratio (z) = 0.23410 0.23410
#
# Static dielectric constant tensor:
#      x y z
#    x 3.653260 0.000000 0.000000 
#    y 0.000000 3.653260 0.000000 
#    z 0.000000 0.000000 3.424730 
# 
# 
# High freq. dielectric constant tensor:
#      x y z
#    x 1.774450 0.000000 0.000000 
#    y 0.000000 1.774450 0.000000 
#    z 0.000000 0.000000 1.754200 
# 
# From -- ./inp_files/588.got.cif
#   From: 2010.03.12/outbox.cif.g09.slc.cpg/sg189_1_cif.got.tgz:588.got - 2010.04.01 12:03:36.
