data_PCOD8327502
_publ_section_title
;
Structure prediction by ZEFSAII (Michael W. Deem and Ramdas Pophale) SiO2 
 PCOD8327502
Probable space group: P -6 2 M
;
_chemical_formula_sum "Si O2"
_cell_formula_units_Z 72
_cell_length_a 21.059815
_cell_length_b 21.059815
_cell_length_c 11.908753
_cell_angle_alpha 90.000000
_cell_angle_beta 90.000000
_cell_angle_gamma 120.000000
_cell_volume 4574.103875
_symmetry_space_group_name_H-M "P -6 2 M"
_symmetry_group_IT_number 189
_symmetry_cell_setting 'hexagonal'
loop_
_space_group_symop_operation_xyz
x,y,z
-x+y,-x,-z
-y,x-y,z
x,y,-z
-x+y,-x,z
-y,x-y,-z
x-y,-y,-z
-x,-x+y,-z
y,x,-z
y,x,z
x-y,-y,z
-x,-x+y,z
loop_
_atom_site_type_symbol
_atom_site_label
_atom_site_fract_x
_atom_site_fract_y
_atom_site_fract_z
Si Si1 0.086365 0.300335 0.262239
Si Si2 0.572883 0.913201 0.124303
Si Si3 0.575927 0.662849 0.874912
Si Si4 0.913283 0.264069 0.500000
Si Si5 0.456757 0.544228 0.264333
Si Si6 0.717532 0.915354 0.869160
Si Si7 0.494697 0.087456 0.500000
O O1 0.111043 0.373751 0.191384
O O2 0.111954 0.324354 0.390421
O O3 0.127679 0.260347 0.209546
O O4 0.000000 0.244008 0.254035
O O5 0.506739 0.881662 0.214695
O O6 0.633954 0.892802 0.160737
O O7 0.609883 0.000000 0.117670
O O8 0.541878 0.881219 0.000000
O O9 0.615328 0.615328 0.879700
O O10 0.498465 0.616689 0.812299
O O11 0.562062 0.682380 0.000000
O O12 0.880809 0.319410 0.500000
O O13 0.000000 0.314661 0.500000
O O14 0.501039 0.501039 0.263412
O O15 0.452755 0.569061 0.391037
O O16 0.772808 0.000000 0.840351
O O17 0.724178 0.900166 0.000000
O O18 0.447645 0.000000 0.500000
#
# Coordination Sequence:
#
# PCOD8327502 Si02
#       7
#    12  12  12   6  12  12   6
#     4  10  18  29  46  66  89 118 154 195 243 296
#     4   8  14  25  40  57  81 115 147 173 209 261
#     4   9  15  21  34  60  88 108 132 173 220 265
#     4   9  16  28  42  61  91 123 146 174 228 290
#     4   9  14  21  35  56  84 114 141 164 194 246
#     4   9  18  32  47  63  88 122 156 193 244 303
#     4   9  14  22  35  55  87 123 144 160 196 246
#
# _framework density 15.740788
#
# number of rings (size 3 to 8) (size 9 to 14) (size 15 to 20)
#    0.000    3.000    1.667    2.000    0.000    3.000 
#    0.000    1.250    0.000    2.333    0.000    0.000 
#    1.667    0.000    2.000    0.000    0.000    0.000 
#
# Total GULP energy -892378.328346 kJ/mol
# GULP energy per Si atom -12394.143449 kJ/mol
# Density = 1.570496 g / cm^3
# Si number density = 15.740788 Si / 1000 Ang^3
#
#
#
# Elastic Constant Matrix: (Units=GPa)
#
#
# Indices 1 2 3 4 5 6 
#
# 1 53.3356 26.6960 43.0746 0.0000 0.0000 0.0000
# 2 26.6960 53.3356 43.0746 0.0000 0.0000 0.0000
# 3 43.0746 43.0746 140.3488 0.0000 0.0000 0.0000
# 4 0.0000 0.0000 0.0000 18.0879 0.0000 0.0000
# 5 0.0000 0.0000 0.0000 0.0000 18.0879 0.0000
# 6 0.0000 0.0000 0.0000 0.0000 0.0000 13.3198
#
#
#
# Elastic Compliance Matrix: (Units=1/GPa)
#
#
# Indices 1 2 3 4 5 6 
#
# 1 0.028099 -0.009439 -0.005727 0.000000 0.000000 0.000000
# 2 -0.009439 0.028099 -0.005727 0.000000 0.000000 0.000000
# 3 -0.005727 -0.005727 0.010640 0.000000 0.000000 0.000000
# 4 0.000000 0.000000 0.000000 0.055286 0.000000 0.000000
# 5 0.000000 0.000000 0.000000 0.000000 0.055286 0.000000
# 6 0.000000 0.000000 0.000000 0.000000 0.000000 0.075076
#
#
# Mechanical properties :
#
#
# Convention : Reuss Voigt Hill
#
# Bulk Modulus (GPa) = 39.91650 52.52338 46.21994
# Shear Modulus (GPa) = 16.52227 18.84412 17.68319
#
# Velocity S-wave (km/s) = 3.24334 3.46374 3.35535
# Velocity P-wave (km/s) = 6.28008 7.03113 6.66619
#
# Compressibility (1/GPa) = 0.02505229
#
# Stress axis : x y z
#
# Youngs Moduli (GPa) = 35.58865 35.58865 93.98163
#
# Poissons Ratio (x) = 0.33593 0.53822
# Poissons Ratio (y) = 0.33593 0.53822
# Poissons Ratio (z) = 0.20381 0.20381
#
# Static dielectric constant tensor:
#      x y z
#    x 2.692100 0.000000 0.000000 
#    y 0.000000 2.692100 0.000000 
#    z 0.000000 0.000000 3.315660 
# 
# 
# High freq. dielectric constant tensor:
#      x y z
#    x 1.563160 0.000000 0.000000 
#    y 0.000000 1.563160 0.000000 
#    z 0.000000 0.000000 1.616440 
# 
# From -- ./inp_files/2111.got.cif
#   From: 2010.03.12/outbox.cif.g09.slc.cpg/sg189_2_cif.got.tgz:2111.got - 2010.04.01 12:03:36.
