data_PCOD8327992
_publ_section_title
;
Structure prediction by ZEFSAII (Michael W. Deem and Ramdas Pophale) SiO2 
 PCOD8327992
Probable space group: P -6 2 C
;
_chemical_formula_sum "Si O2"
_cell_formula_units_Z 72
_cell_length_a 23.628550
_cell_length_b 23.628550
_cell_length_c 8.767274
_cell_angle_alpha 90.000000
_cell_angle_beta 90.000000
_cell_angle_gamma 120.000000
_cell_volume 4239.057953
_symmetry_space_group_name_H-M "P -6 2 C"
_symmetry_group_IT_number 190
_symmetry_cell_setting 'hexagonal'
loop_
_space_group_symop_operation_xyz
x,y,z
-x+y,-x,1/2-z
-y,x-y,z
x,y,1/2-z
-x+y,-x,z
-y,x-y,1/2-z
x-y,-y,-z
-x,-x+y,-z
y,x,-z
y,x,1/2+z
x-y,-y,1/2+z
-x,-x+y,1/2+z
loop_
_atom_site_type_symbol
_atom_site_label
_atom_site_fract_x
_atom_site_fract_y
_atom_site_fract_z
Si Si1 0.735595 0.802754 0.430167
Si Si2 0.396539 0.260501 0.425792
Si Si3 0.864581 0.267548 0.429407
Si Si4 0.474618 0.070534 0.931006
Si Si5 0.522924 0.931272 0.571052
Si Si6 0.261310 0.194287 0.927460
O O1 0.729280 0.791117 0.250000
O O2 0.792626 0.792626 0.500000
O O3 0.667905 0.750933 0.508014
O O4 0.753773 0.875994 0.474117
O O5 0.375585 0.251953 0.250000
O O6 0.419483 0.208838 0.470852
O O7 0.455453 0.333061 0.460354
O O8 0.333431 0.248237 0.519656
O O9 0.874968 0.280189 0.250000
O O10 0.875768 0.332499 0.513048
O O11 0.472103 0.065788 0.750000
O O12 0.547589 0.094085 0.989823
O O13 0.423798 0.000000 0.000000
O O14 0.516153 0.940989 0.750000
O O15 0.576815 0.000000 0.500000
O O16 0.257990 0.201804 0.750000
O O17 0.206003 0.206003 0.000000
#
# Coordination Sequence:
#
# PCOD8327992 Si02
#       6
#    12  12  12  12  12  12
#     4  10  20  33  49  72  98 127 160 197 238 284
#     4   9  19  33  51  73  98 127 159 194 237 283
#     4  10  19  33  51  72  98 128 159 196 238 284
#     4  11  21  33  49  71  97 128 161 197 239 283
#     4  10  19  32  49  72  98 126 159 195 235 282
#     4  10  20  32  49  72  99 128 160 195 236 282
#
# _framework density 16.984905999999999
#
# number of rings (size 3 to 8) (size 9 to 14) (size 15 to 20)
#    0.000    2.000    0.000    5.500    0.000    5.333 
#    0.000    0.000    0.000    1.000    0.000    2.333 
#    0.000    0.000    0.000    0.000    0.000    0.000 
#
# Total GULP energy -893013.180137 kJ/mol
# GULP energy per Si atom -12402.960835 kJ/mol
# Density = 1.694625 g / cm^3
# Si number density = 16.984906 Si / 1000 Ang^3
#
#
#
# Elastic Constant Matrix: (Units=GPa)
#
#
# Indices 1 2 3 4 5 6 
#
# 1 112.4620 62.3287 50.3745 0.0000 0.0000 0.0000
# 2 62.3287 112.4620 50.3745 0.0000 0.0000 0.0000
# 3 50.3745 50.3745 101.4880 0.0000 0.0000 0.0000
# 4 0.0000 0.0000 0.0000 28.5538 0.0000 0.0000
# 5 0.0000 0.0000 0.0000 0.0000 28.5538 0.0000
# 6 0.0000 0.0000 0.0000 0.0000 0.0000 25.0666
#
#
#
# Elastic Compliance Matrix: (Units=1/GPa)
#
#
# Indices 1 2 3 4 5 6 
#
# 1 0.013980 -0.005966 -0.003978 0.000000 0.000000 0.000000
# 2 -0.005966 0.013980 -0.003978 0.000000 0.000000 0.000000
# 3 -0.003978 -0.003978 0.013802 0.000000 0.000000 0.000000
# 4 0.000000 0.000000 0.000000 0.035022 0.000000 0.000000
# 5 0.000000 0.000000 0.000000 0.000000 0.035022 0.000000
# 6 0.000000 0.000000 0.000000 0.000000 0.000000 0.039894
#
#
# Mechanical properties :
#
#
# Convention : Reuss Voigt Hill
#
# Bulk Modulus (GPa) = 71.84474 72.50749 72.17611
# Shear Modulus (GPa) = 27.14686 27.32381 27.23533
#
# Velocity S-wave (km/s) = 4.00220 4.01523 4.00872
# Velocity P-wave (km/s) = 7.98422 8.01736 8.00081
#
# Compressibility (1/GPa) = 0.01391890
#
# Stress axis : x y z
#
# Youngs Moduli (GPa) = 71.52884 71.52884 72.45219
#
# Poissons Ratio (x) = 0.42677 0.28820
# Poissons Ratio (y) = 0.42677 0.28820
# Poissons Ratio (z) = 0.28453 0.28453
#
# Static dielectric constant tensor:
#      x y z
#    x 3.177860 0.000000 0.000000 
#    y 0.000000 3.177860 0.000000 
#    z 0.000000 0.000000 3.312830 
# 
# 
# High freq. dielectric constant tensor:
#      x y z
#    x 1.644400 0.000000 0.000000 
#    y 0.000000 1.644400 0.000000 
#    z 0.000000 0.000000 1.673920 
# 
# From -- ./inp_files/1211.got.cif
#   From: 2010.06.25/outbox.cif.g09.slc.cpg/sg190_1_cif.got.tgz:1211.got - 2010.06.28 13:08:06.
