data_PCOD8327699
_publ_section_title
;
Structure prediction by ZEFSAII (Michael W. Deem and Ramdas Pophale) SiO2 
 PCOD8327699
Probable space group: P -6 2 M
;
_chemical_formula_sum "Si O2"
_cell_formula_units_Z 72
_cell_length_a 24.010461
_cell_length_b 24.010461
_cell_length_c 9.022048
_cell_angle_alpha 90.000000
_cell_angle_beta 90.000000
_cell_angle_gamma 120.000000
_cell_volume 4504.398054
_symmetry_space_group_name_H-M "P -6 2 M"
_symmetry_group_IT_number 189
_symmetry_cell_setting 'hexagonal'
loop_
_space_group_symop_operation_xyz
x,y,z
-x+y,-x,-z
-y,x-y,z
x,y,-z
-x+y,-x,z
-y,x-y,-z
x-y,-y,-z
-x,-x+y,-z
y,x,-z
y,x,z
x-y,-y,z
-x,-x+y,z
loop_
_atom_site_type_symbol
_atom_site_label
_atom_site_fract_x
_atom_site_fract_y
_atom_site_fract_z
Si Si1 0.808898 0.405260 0.323233
Si Si2 0.073834 0.926588 0.327400
Si Si3 0.528821 0.929465 0.676059
Si Si4 0.260616 0.187032 0.174853
Si Si5 0.604451 0.858738 0.325310
Si Si6 0.522592 0.259394 0.324165
O O1 0.807306 0.403381 0.500000
O O2 0.880931 0.456330 0.267264
O O3 0.787454 0.334528 0.258499
O O4 0.761223 0.429778 0.264747
O O5 0.083601 0.918632 0.500000
O O6 0.096127 0.883819 0.236405
O O7 0.000000 0.904777 0.292804
O O8 0.117208 0.000000 0.275395
O O9 0.528677 0.931895 0.500000
O O10 0.577488 0.905195 0.725361
O O11 0.553177 0.000000 0.744792
O O12 0.236163 0.236163 0.224260
O O13 0.330408 0.209246 0.239700
O O14 0.263395 0.183056 0.000000
O O15 0.618163 0.864081 0.500000
O O16 0.551289 0.785744 0.278519
O O17 0.526955 0.261312 0.500000
#
# Coordination Sequence:
#
# PCOD8327699 Si02
#       6
#    12  12  12  12  12  12
#     4   8  12  18  29  48  75 100 123 159 205 249
#     4   9  17  30  49  71  92 113 137 167 205 249
#     4   8  13  20  32  52  76 102 131 162 200 244
#     4  10  20  31  43  62  87 114 144 176 210 248
#     4   9  16  26  41  60  82 109 140 173 208 248
#     4   8  13  20  33  55  80 106 135 168 210 257
#
# _framework density 15.984377
#
# number of rings (size 3 to 8) (size 9 to 14) (size 15 to 20)
#    0.000    3.333    0.000    3.500    0.000    4.000 
#    0.000    0.000    0.000    2.000    0.000    9.333 
#    0.000    0.000    0.000    0.000    0.000    1.667 
#
# Total GULP energy -892285.361722 kJ/mol
# GULP energy per Si atom -12392.852246 kJ/mol
# Density = 1.594800 g / cm^3
# Si number density = 15.984377 Si / 1000 Ang^3
#
#
#
# Elastic Constant Matrix: (Units=GPa)
#
#
# Indices 1 2 3 4 5 6 
#
# 1 140.6850 83.3818 28.3249 0.0000 0.0000 0.0000
# 2 83.3818 140.6850 28.3249 0.0000 0.0000 0.0000
# 3 28.3249 28.3249 25.7541 0.0000 0.0000 0.0000
# 4 0.0000 0.0000 0.0000 6.9384 0.0000 0.0000
# 5 0.0000 0.0000 0.0000 0.0000 6.9384 0.0000
# 6 0.0000 0.0000 0.0000 0.0000 0.0000 28.6516
#
#
#
# Elastic Compliance Matrix: (Units=1/GPa)
#
#
# Indices 1 2 3 4 5 6 
#
# 1 0.011816 -0.005635 -0.006799 0.000000 0.000000 0.000000
# 2 -0.005635 0.011816 -0.006799 0.000000 0.000000 0.000000
# 3 -0.006799 -0.006799 0.053784 0.000000 0.000000 0.000000
# 4 0.000000 0.000000 0.000000 0.144125 0.000000 0.000000
# 5 0.000000 0.000000 0.000000 0.000000 0.144125 0.000000
# 6 0.000000 0.000000 0.000000 0.000000 0.000000 0.034902
#
#
# Mechanical properties :
#
#
# Convention : Reuss Voigt Hill
#
# Bulk Modulus (GPa) = 25.67266 65.24303 45.45784
# Shear Modulus (GPa) = 11.06150 19.64518 15.35334
#
# Velocity S-wave (km/s) = 2.63348 3.50955 3.10259
# Velocity P-wave (km/s) = 5.03417 7.57152 6.42926
#
# Compressibility (1/GPa) = 0.03895194
#
# Stress axis : x y z
#
# Youngs Moduli (GPa) = 84.62759 84.62759 18.59285
#
# Poissons Ratio (x) = 0.47684 0.12641
# Poissons Ratio (y) = 0.47684 0.12641
# Poissons Ratio (z) = 0.57538 0.57538
#
# Static dielectric constant tensor:
#      x y z
#    x 3.251600 0.000000 0.000000 
#    y 0.000000 3.251600 0.000000 
#    z 0.000000 0.000000 2.533250 
# 
# 
# High freq. dielectric constant tensor:
#      x y z
#    x 1.609970 0.000000 0.000000 
#    y 0.000000 1.609970 0.000000 
#    z 0.000000 0.000000 1.563940 
# 
# From -- ./inp_files/1245.got.cif
#   From: 2010.03.12/outbox.cif.g09.slc.cpg/sg189_1_cif.got.tgz:1245.got - 2010.04.01 12:03:36.
