data_PCOD8327845
_publ_section_title
;
Structure prediction by ZEFSAII (Michael W. Deem and Ramdas Pophale) SiO2 
 PCOD8327845
Probable space group: P -6 2 M
;
_chemical_formula_sum "Si O2"
_cell_formula_units_Z 72
_cell_length_a 23.400893
_cell_length_b 23.400893
_cell_length_c 8.585131
_cell_angle_alpha 90.000000
_cell_angle_beta 90.000000
_cell_angle_gamma 120.000000
_cell_volume 4071.387320
_symmetry_space_group_name_H-M "P -6 2 M"
_symmetry_group_IT_number 189
_symmetry_cell_setting 'hexagonal'
loop_
_space_group_symop_operation_xyz
x,y,z
-x+y,-x,-z
-y,x-y,z
x,y,-z
-x+y,-x,z
-y,x-y,-z
x-y,-y,-z
-x,-x+y,-z
y,x,-z
y,x,z
x-y,-y,z
-x,-x+y,z
loop_
_atom_site_type_symbol
_atom_site_label
_atom_site_fract_x
_atom_site_fract_y
_atom_site_fract_z
Si Si1 0.075424 0.338511 0.682070
Si Si2 0.597803 0.128767 0.816980
Si Si3 0.521366 0.670734 0.817026
Si Si4 0.409415 0.409415 0.683457
Si Si5 0.669301 0.862120 0.816147
Si Si6 0.000000 0.723336 0.317107
Si Si7 0.793502 0.526645 0.682325
O O1 0.088466 0.353989 0.500000
O O2 0.091927 0.406211 0.767939
O O3 0.121749 0.310705 0.743418
O O4 0.000000 0.284195 0.717717
O O5 0.531454 0.128308 0.767934
O O6 0.660705 0.189983 0.736198
O O7 0.592280 0.062324 0.758361
O O8 0.608416 0.135633 0.000000
O O9 0.501594 0.718263 0.726358
O O10 0.520660 0.683046 0.000000
O O11 0.419016 0.419016 0.500000
O O12 0.343132 0.343132 0.727445
O O13 0.595385 0.842429 0.767035
O O14 0.720504 0.935235 0.755512
O O15 0.673586 0.859588 0.000000
O O16 0.000000 0.733628 0.500000
O O17 0.805335 0.539448 0.500000
#
# Coordination Sequence:
#
# PCOD8327845 Si02
#       7
#    12  12  12   6  12   6  12
#     4  10  21  37  57  81 110 146 181 219 265 314
#     4  11  23  38  56  78 106 139 178 226 277 332
#     4  10  22  38  56  77 102 138 180 226 275 325
#     4  11  23  35  55  81 108 142 176 221 274 327
#     4  11  21  34  56  82 110 143 177 217 263 315
#     4  11  21  35  55  83 114 146 178 217 264 321
#     4  11  21  36  56  76 101 135 175 222 275 328
#
# _framework density 17.684388999999999
#
# number of rings (size 3 to 8) (size 9 to 14) (size 15 to 20)
#    0.000    1.333    1.667    7.000    1.167    4.667 
#    1.000    0.000    0.000    0.000    0.000    0.000 
#    0.833    0.000    1.500    0.000    1.500    0.000 
#
# Total GULP energy -893083.301883 kJ/mol
# GULP energy per Si atom -12403.934748 kJ/mol
# Density = 1.764414 g / cm^3
# Si number density = 17.684389 Si / 1000 Ang^3
#
#
#
# Elastic Constant Matrix: (Units=GPa)
#
#
# Indices 1 2 3 4 5 6 
#
# 1 95.7102 59.0242 35.5109 0.0000 0.0000 0.0000
# 2 59.0242 95.7102 35.5109 0.0000 0.0000 0.0000
# 3 35.5109 35.5109 66.4485 0.0000 0.0000 0.0000
# 4 0.0000 0.0000 0.0000 32.1720 0.0000 0.0000
# 5 0.0000 0.0000 0.0000 0.0000 32.1720 0.0000
# 6 0.0000 0.0000 0.0000 0.0000 0.0000 18.3430
#
#
#
# Elastic Compliance Matrix: (Units=1/GPa)
#
#
# Indices 1 2 3 4 5 6 
#
# 1 0.017911 -0.009348 -0.004576 0.000000 0.000000 0.000000
# 2 -0.009348 0.017911 -0.004576 0.000000 0.000000 0.000000
# 3 -0.004576 -0.004576 0.019940 0.000000 0.000000 0.000000
# 4 0.000000 0.000000 0.000000 0.031083 0.000000 0.000000
# 5 0.000000 0.000000 0.000000 0.000000 0.031083 0.000000
# 6 0.000000 0.000000 0.000000 0.000000 0.000000 0.054517
#
#
# Mechanical properties :
#
#
# Convention : Reuss Voigt Hill
#
# Bulk Modulus (GPa) = 53.29994 57.55122 55.42558
# Shear Modulus (GPa) = 23.18047 25.05890 24.11969
#
# Velocity S-wave (km/s) = 3.62441 3.76840 3.69710
# Velocity P-wave (km/s) = 6.90797 7.17974 7.04516
#
# Compressibility (1/GPa) = 0.01876175
#
# Stress axis : x y z
#
# Youngs Moduli (GPa) = 55.83238 55.83238 50.14921
#
# Poissons Ratio (x) = 0.52190 0.22950
# Poissons Ratio (y) = 0.52190 0.22950
# Poissons Ratio (z) = 0.25550 0.25550
#
# Static dielectric constant tensor:
#      x y z
#    x 3.404920 0.000000 0.000000 
#    y 0.000000 3.404920 0.000000 
#    z 0.000000 0.000000 3.459950 
# 
# 
# High freq. dielectric constant tensor:
#      x y z
#    x 1.672610 0.000000 0.000000 
#    y 0.000000 1.672610 0.000000 
#    z 0.000000 0.000000 1.706020 
# 
# From -- ./inp_files/1334.got.cif
#   From: 2010.03.12/outbox.cif.g09.slc.cpg/sg189_1_cif.got.tgz:1334.got - 2010.04.01 12:03:36.
