data_PCOD8327754
_publ_section_title
;
Structure prediction by ZEFSAII (Michael W. Deem and Ramdas Pophale) SiO2 
 PCOD8327754
Probable space group: P -6 2 M
;
_chemical_formula_sum "Si O2"
_cell_formula_units_Z 60
_cell_length_a 18.950018
_cell_length_b 18.950018
_cell_length_c 10.324169
_cell_angle_alpha 90.000000
_cell_angle_beta 90.000000
_cell_angle_gamma 120.000000
_cell_volume 3210.738904
_symmetry_space_group_name_H-M "P -6 2 M"
_symmetry_group_IT_number 189
_symmetry_cell_setting 'hexagonal'
loop_
_space_group_symop_operation_xyz
x,y,z
-x+y,-x,-z
-y,x-y,z
x,y,-z
-x+y,-x,z
-y,x-y,-z
x-y,-y,-z
-x,-x+y,-z
y,x,-z
y,x,z
x-y,-y,z
-x,-x+y,z
loop_
_atom_site_type_symbol
_atom_site_label
_atom_site_fract_x
_atom_site_fract_y
_atom_site_fract_z
Si Si1 0.280959 0.475913 0.500000
Si Si2 0.617616 0.465891 0.500000
Si Si3 0.097032 0.538766 0.000000
Si Si4 0.551928 0.644724 0.239066
Si Si5 0.201696 0.367219 0.258271
Si Si6 0.400003 0.303260 0.000000
Si Si7 0.185660 0.092200 0.347841
O O1 0.230468 0.523245 0.500000
O O2 0.373338 0.546856 0.500000
O O3 0.262732 0.418247 0.374908
O O4 0.606510 0.508572 0.625603
O O5 0.131000 0.516230 0.872957
O O6 0.131811 0.635011 0.000000
O O7 0.000000 0.492637 0.000000
O O8 0.615634 0.615634 0.206809
O O9 0.603261 0.740793 0.240594
O O10 0.250155 0.379129 0.127755
O O11 0.152726 0.271528 0.284215
O O12 0.349596 0.349596 0.000000
O O13 0.199726 0.093403 0.500000
O O14 0.122335 0.122335 0.313061
O O15 0.148435 0.000000 0.294569
#
# Coordination Sequence:
#
# PCOD8327754 Si02
#       7
#     6   6   6  12  12   6  12
#     4  10  21  36  56  83 115 150 191 233 290 346
#     4  10  20  34  54  79 112 146 182 229 278 340
#     4   9  19  36  54  75 106 144 185 224 265 327
#     4  10  20  35  56  82 109 144 185 229 280 334
#     4  11  21  37  58  86 116 150 190 244 290 344
#     4  11  23  38  57  81 115 152 188 234 288 343
#     4  10  20  36  58  85 117 155 197 243 296 358
#
# _framework density 18.687287999999999
#
# number of rings (size 3 to 8) (size 9 to 14) (size 15 to 20)
#    0.000    1.800    1.000    3.700    0.000    0.800 
#    0.000    4.500    0.000    5.600    0.000    1.400 
#    0.000    0.000    0.000    0.000    0.000    0.000 
#
# Total GULP energy -744096.717215 kJ/mol
# GULP energy per Si atom -12401.611954 kJ/mol
# Density = 1.864475 g / cm^3
# Si number density = 18.687288 Si / 1000 Ang^3
#
#
#
# Elastic Constant Matrix: (Units=GPa)
#
#
# Indices 1 2 3 4 5 6 
#
# 1 22.6398 36.8604 47.9707 0.0000 0.0000 0.0000
# 2 36.8604 22.6398 47.9707 0.0000 0.0000 0.0000
# 3 47.9707 47.9707 143.6546 0.0000 0.0000 0.0000
# 4 0.0000 0.0000 0.0000 29.1606 0.0000 0.0000
# 5 0.0000 0.0000 0.0000 0.0000 29.1606 0.0000
# 6 0.0000 0.0000 0.0000 0.0000 0.0000 -7.1103
#
#
#
# Elastic Compliance Matrix: (Units=1/GPa)
#
#
# Indices 1 2 3 4 5 6 
#
# 1 -0.016954 0.053367 -0.012160 0.000000 0.000000 0.000000
# 2 0.053367 -0.016954 -0.012160 0.000000 0.000000 0.000000
# 3 -0.012160 -0.012160 0.015082 0.000000 0.000000 0.000000
# 4 0.000000 0.000000 0.000000 0.034293 0.000000 0.000000
# 5 0.000000 0.000000 0.000000 0.000000 0.034293 0.000000
# 6 0.000000 0.000000 0.000000 0.000000 0.000000 -0.140641
#
#
# Mechanical properties :
#
#
# Convention : Reuss Voigt Hill
#
# Bulk Modulus (GPa) = 25.46439 50.50419 37.98429
# Shear Modulus (GPa) = -36.79553 13.98434 -11.40560
#
# Velocity S-wave (km/s) = -4.44217 2.73854 -2.47319
# Velocity P-wave (km/s) = 3.55729 6.08967 3.49498
#
# Compressibility (1/GPa) = 0.03927053
#
# Stress axis : x y z
#
# Youngs Moduli (GPa) = -58.98444 -58.98444 66.30420
#
# Poissons Ratio (x) = 3.14782 0.80623
# Poissons Ratio (y) = 3.14782 0.80623
# Poissons Ratio (z) = -0.71722 -0.71722
#
# Static dielectric constant tensor:
#      x y z
#    x 3.541170 0.000000 0.000000 
#    y 0.000000 3.541170 0.000000 
#    z 0.000000 0.000000 3.621140 
# 
# 
# High freq. dielectric constant tensor:
#      x y z
#    x 1.730590 0.000000 0.000000 
#    y 0.000000 1.730590 0.000000 
#    z 0.000000 0.000000 1.729650 
# 
# From -- ./inp_files/1994.got.cif
#   From: 2010.03.12/outbox.cif.g09.slc.cpg/sg189_1_cif.got.tgz:1994.got - 2010.04.01 12:03:36.
