data_PCOD8327045
_publ_section_title
;
Structure prediction by ZEFSAII (Michael W. Deem and Ramdas Pophale) SiO2 
 PCOD8327045
Probable space group: P -6 M 2
;
_chemical_formula_sum "Si O2"
_cell_formula_units_Z 60
_cell_length_a 13.140849
_cell_length_b 13.140849
_cell_length_c 24.849715
_cell_angle_alpha 90.000000
_cell_angle_beta 90.000000
_cell_angle_gamma 120.000000
_cell_volume 3716.198414
_symmetry_space_group_name_H-M "P -6 M 2"
_symmetry_group_IT_number 187
_symmetry_cell_setting 'hexagonal'
loop_
_space_group_symop_operation_xyz
x,y,z
-x+y,-x,-z
-y,x-y,z
x,y,-z
-x+y,-x,z
-y,x-y,-z
-y,-x,-z
-x+y,y,-z
x,x-y,-z
-x+y,y,z
x,x-y,z
-y,-x,z
loop_
_atom_site_type_symbol
_atom_site_label
_atom_site_fract_x
_atom_site_fract_y
_atom_site_fract_z
Si Si1 0.760707 0.760790 0.147801
Si Si2 0.902312 0.568631 0.560917
Si Si3 0.333695 0.432587 0.234916
Si Si4 0.899910 0.333538 0.938003
Si Si5 0.567561 0.901030 0.642285
O O1 0.776316 0.888158 0.137783
O O2 0.680684 0.696682 0.199421
O O3 0.696622 0.681890 0.095793
O O4 0.887469 0.774937 0.157960
O O5 0.947139 0.608636 0.500000
O O6 0.786345 0.572690 0.573215
O O7 0.873181 0.436591 0.571280
O O8 0.998965 0.657085 0.602497
O O9 0.235362 0.470723 0.228264
O O10 0.457628 0.542373 0.216572
O O11 0.339089 0.396748 0.296291
O O12 0.915866 0.457933 0.919353
O O13 0.764420 0.235581 0.928576
O O14 0.935814 0.337786 0.000000
O O15 0.435370 0.870740 0.630818
O O16 0.575314 0.787657 0.628405
#
# Coordination Sequence:
#
# PCOD8327045 Si02
#       5
#    12  12  12  12  12
#     4  10  20  32  46  65  91 123 156 188 221 259
#     4   9  17  29  45  64  86 114 147 181 216 256
#     4   9  17  30  48  68  89 115 148 186 227 270
#     4   9  17  30  49  71  92 114 142 179 223 268
#     4   9  17  29  46  68  92 116 143 179 225 274
#
# _framework density 16.145533
#
# number of rings (size 3 to 8) (size 9 to 14) (size 15 to 20)
#    0.000    2.800    0.000    1.600    0.000    4.800 
#    0.000    0.000    0.000    3.600    0.000    0.000 
#    0.000    0.000    0.000    0.000    0.000    0.000 
#
# Total GULP energy -744031.776417 kJ/mol
# GULP energy per Si atom -12400.529607 kJ/mol
# Density = 1.610879 g / cm^3
# Si number density = 16.145533 Si / 1000 Ang^3
#
#
#
# Elastic Constant Matrix: (Units=GPa)
#
#
# Indices 1 2 3 4 5 6 
#
# 1 110.2848 64.8519 67.7245 0.0000 0.0000 0.0000
# 2 64.8519 110.2848 67.7245 0.0000 0.0000 0.0000
# 3 67.7245 67.7245 98.4026 0.0000 0.0000 0.0000
# 4 0.0000 0.0000 0.0000 28.1443 0.0000 0.0000
# 5 0.0000 0.0000 0.0000 0.0000 28.1443 0.0000
# 6 0.0000 0.0000 0.0000 0.0000 0.0000 22.7164
#
#
#
# Elastic Compliance Matrix: (Units=1/GPa)
#
#
# Indices 1 2 3 4 5 6 
#
# 1 0.017109 -0.004901 -0.008402 0.000000 0.000000 0.000000
# 2 -0.004901 0.017109 -0.008402 0.000000 0.000000 0.000000
# 3 -0.008402 -0.008402 0.021727 0.000000 0.000000 0.000000
# 4 0.000000 0.000000 0.000000 0.035531 0.000000 0.000000
# 5 0.000000 0.000000 0.000000 0.000000 0.035531 0.000000
# 6 0.000000 0.000000 0.000000 0.000000 0.000000 0.044021
#
#
# Mechanical properties :
#
#
# Convention : Reuss Voigt Hill
#
# Bulk Modulus (GPa) = 79.77414 79.95266 79.86340
# Shear Modulus (GPa) = 22.87100 23.71241 23.29171
#
# Velocity S-wave (km/s) = 3.76780 3.83648 3.80229
# Velocity P-wave (km/s) = 8.27315 8.32179 8.29751
#
# Compressibility (1/GPa) = 0.01253539
#
# Stress axis : x y z
#
# Youngs Moduli (GPa) = 58.44840 58.44840 46.02510
#
# Poissons Ratio (x) = 0.28648 0.38670
# Poissons Ratio (y) = 0.28648 0.38670
# Poissons Ratio (z) = 0.49107 0.49107
#
# Static dielectric constant tensor:
#      x y z
#    x 2.996300 0.000000 0.000000 
#    y 0.000000 2.996300 0.000000 
#    z 0.000000 0.000000 3.164430 
# 
# 
# High freq. dielectric constant tensor:
#      x y z
#    x 1.615900 0.000000 0.000000 
#    y 0.000000 1.615900 0.000000 
#    z 0.000000 0.000000 1.625670 
# 
# From -- ./inp_files/3500.got.cif
#   From: 2010.03.12/outbox.cif.g09.slc.cpg/sg187_2_cif.got.tgz:3500.got - 2010.04.01 11:58:23.
