data_PCOD8327034
_publ_section_title
;
Structure prediction by ZEFSAII (Michael W. Deem and Ramdas Pophale) SiO2 
 PCOD8327034
Probable space group: P -6 M 2
;
_chemical_formula_sum "Si O2"
_cell_formula_units_Z 54
_cell_length_a 12.914522
_cell_length_b 12.914522
_cell_length_c 22.650782
_cell_angle_alpha 90.000000
_cell_angle_beta 90.000000
_cell_angle_gamma 120.000000
_cell_volume 3271.677632
_symmetry_space_group_name_H-M "P -6 M 2"
_symmetry_group_IT_number 187
_symmetry_cell_setting 'hexagonal'
loop_
_space_group_symop_operation_xyz
x,y,z
-x+y,-x,-z
-y,x-y,z
x,y,-z
-x+y,-x,z
-y,x-y,-z
-y,-x,-z
-x+y,y,-z
x,x-y,-z
-x+y,y,z
x,x-y,z
-y,-x,z
loop_
_atom_site_type_symbol
_atom_site_label
_atom_site_fract_x
_atom_site_fract_y
_atom_site_fract_z
Si Si1 0.666685 0.571354 0.733988
Si Si2 0.905206 0.333557 0.067519
Si Si3 0.666686 0.571494 0.400625
Si Si4 0.575055 0.909569 0.166490
Si Si5 0.998734 0.757227 0.500000
O O1 0.792914 0.585828 0.752285
O O2 0.566955 0.433046 0.742966
O O3 0.666913 0.611307 0.666697
O O4 0.640567 0.656051 0.775226
O O5 0.869162 0.434581 0.078396
O O6 0.791963 0.208038 0.085086
O O7 0.015711 0.356914 0.108443
O O8 0.943923 0.334076 0.000000
O O9 0.766661 0.533322 0.409947
O O10 0.540505 0.459496 0.418718
O O11 0.692126 0.682136 0.441855
O O12 0.437045 0.874090 0.165508
O O13 0.583601 0.791801 0.167107
O O14 0.125604 0.874397 0.500000
O O15 0.896756 0.793511 0.500000
#
# Coordination Sequence:
#
# PCOD8327034 Si02
#       5
#    12  12  12  12   6
#     4   9  17  30  50  75  98 118 144 185 238 288
#     4   9  17  30  50  75  98 118 144 185 238 288
#     4   9  17  30  50  75  98 118 144 185 238 288
#     4  10  20  32  46  65  92 127 163 194 222 259
#     4  10  20  32  46  64  90 126 164 196 222 256
#
# _framework density 16.505293000000002
#
# number of rings (size 3 to 8) (size 9 to 14) (size 15 to 20)
#    0.000    2.667    0.000    2.000    0.000    4.000 
#    0.000    3.333    0.000    6.667    0.000    0.000 
#    0.000    0.000    0.000    0.000    0.000    0.000 
#
# Total GULP energy -669684.252166 kJ/mol
# GULP energy per Si atom -12401.560225 kJ/mol
# Density = 1.646773 g / cm^3
# Si number density = 16.505293 Si / 1000 Ang^3
#
#
#
# Elastic Constant Matrix: (Units=GPa)
#
#
# Indices 1 2 3 4 5 6 
#
# 1 123.3812 74.5903 72.8688 0.0000 0.0000 0.0000
# 2 74.5903 123.3812 72.8688 0.0000 0.0000 0.0000
# 3 72.8688 72.8688 120.7108 0.0000 0.0000 0.0000
# 4 0.0000 0.0000 0.0000 22.3257 0.0000 0.0000
# 5 0.0000 0.0000 0.0000 0.0000 22.3257 0.0000
# 6 0.0000 0.0000 0.0000 0.0000 0.0000 24.3954
#
#
#
# Elastic Compliance Matrix: (Units=1/GPa)
#
#
# Indices 1 2 3 4 5 6 
#
# 1 0.014793 -0.005702 -0.005488 0.000000 0.000000 0.000000
# 2 -0.005702 0.014793 -0.005488 0.000000 0.000000 0.000000
# 3 -0.005488 -0.005488 0.014910 0.000000 0.000000 0.000000
# 4 0.000000 0.000000 0.000000 0.044791 0.000000 0.000000
# 5 0.000000 0.000000 0.000000 0.000000 0.044791 0.000000
# 6 0.000000 0.000000 0.000000 0.000000 0.000000 0.040991
#
#
# Mechanical properties :
#
#
# Convention : Reuss Voigt Hill
#
# Bulk Modulus (GPa) = 89.76310 89.79208 89.77759
# Shear Modulus (GPa) = 23.56919 23.61907 23.59413
#
# Velocity S-wave (km/s) = 3.78296 3.78696 3.78496
# Velocity P-wave (km/s) = 8.57808 8.58146 8.57977
#
# Compressibility (1/GPa) = 0.01114043
#
# Stress axis : x y z
#
# Youngs Moduli (GPa) = 67.59733 67.59733 67.06808
#
# Poissons Ratio (x) = 0.38545 0.36808
# Poissons Ratio (y) = 0.38545 0.36808
# Poissons Ratio (z) = 0.37098 0.37098
#
# Static dielectric constant tensor:
#      x y z
#    x 2.891800 0.000000 0.000000 
#    y 0.000000 2.891800 0.000000 
#    z 0.000000 0.000000 3.493360 
# 
# 
# High freq. dielectric constant tensor:
#      x y z
#    x 1.618610 0.000000 0.000000 
#    y 0.000000 1.618610 0.000000 
#    z 0.000000 0.000000 1.654690 
# 
# From -- ./inp_files/3867.got.cif
#   From: 2010.03.12/outbox.cif.g09.slc.cpg/sg187_2_cif.got.tgz:3867.got - 2010.04.01 11:58:23.
