data_PCOD8327207
_publ_section_title
;
Structure prediction by ZEFSAII (Michael W. Deem and Ramdas Pophale) SiO2 
 PCOD8327207
Probable space group: P -6 M 2
;
_chemical_formula_sum "Si O2"
_cell_formula_units_Z 74
_cell_length_a 11.883052
_cell_length_b 11.883052
_cell_length_c 31.997404
_cell_angle_alpha 90.000000
_cell_angle_beta 90.000000
_cell_angle_gamma 120.000000
_cell_volume 3912.923629
_symmetry_space_group_name_H-M "P -6 M 2"
_symmetry_group_IT_number 187
_symmetry_cell_setting 'hexagonal'
loop_
_space_group_symop_operation_xyz
x,y,z
-x+y,-x,-z
-y,x-y,z
x,y,-z
-x+y,-x,z
-y,x-y,-z
-y,-x,-z
-x+y,y,-z
x,x-y,-z
-x+y,y,z
x,x-y,z
-y,-x,z
loop_
_atom_site_type_symbol
_atom_site_label
_atom_site_fract_x
_atom_site_fract_y
_atom_site_fract_z
Si Si1 0.930893 0.596472 0.588806
Si Si2 0.001858 0.736788 0.000000
Si Si3 0.078092 0.411699 0.669870
Si Si4 0.000000 0.000000 0.549577
Si Si5 0.665419 0.596448 0.917061
Si Si6 0.409439 0.075930 0.249531
Si Si7 0.073537 0.406652 0.166203
Si Si8 0.146168 0.853833 0.450429
O O1 0.801782 0.603564 0.576597
O O2 0.908554 0.454277 0.576511
O O3 0.956817 0.621328 0.638394
O O4 0.061862 0.705077 0.565443
O O5 0.010973 0.662752 0.959138
O O6 0.870652 0.741304 0.000000
O O7 0.117644 0.882357 0.000000
O O8 0.192825 0.385649 0.656415
O O9 0.130787 0.565394 0.667523
O O10 0.035592 0.361667 0.716972
O O11 0.072779 0.927221 0.566920
O O12 0.000000 0.000000 0.500000
O O13 0.796346 0.592692 0.917338
O O14 0.549896 0.450105 0.914020
O O15 0.665071 0.678768 0.877432
O O16 0.560723 0.121446 0.253976
O O17 0.389440 0.194720 0.259934
O O18 0.361004 0.028354 0.202849
O O19 0.199842 0.399683 0.176693
O O20 0.112809 0.556405 0.163710
O O21 0.150268 0.849733 0.500000
#
# Coordination Sequence:
#
# PCOD8327207 Si02
#       8
#    12   6  12   2  12  12  12   6
#     4  11  23  40  63  91 124 160 200 247 299 355
#     4  10  20  34  52  74 102 136 174 214 258 310
#     4  10  20  35  57  84 115 150 190 236 285 339
#     4   9  18  36  66  90 114 153 201 249 291 348
#     4  10  20  34  54  78 104 135 171 216 265 316
#     4  10  20  34  54  79 109 144 182 226 275 330
#     4  10  20  34  53  76 104 138 176 219 267 321
#     4  11  22  40  64  90 120 157 201 247 295 351
#
# _framework density 18.91169
#
# number of rings (size 3 to 8) (size 9 to 14) (size 15 to 20)
#    0.000    1.784    1.622    3.081    0.000    0.324 
#    0.486    5.676    0.000   11.027    0.000    0.000 
#    0.000    0.000    0.000    0.000    0.000    0.000 
#
# Total GULP energy -917705.279338 kJ/mol
# GULP energy per Si atom -12401.422694 kJ/mol
# Density = 1.886865 g / cm^3
# Si number density = 18.911690 Si / 1000 Ang^3
#
#
#
# Elastic Constant Matrix: (Units=GPa)
#
#
# Indices 1 2 3 4 5 6 
#
# 1 83.9864 41.9102 23.3865 0.0000 0.0008 0.0000
# 2 41.9102 83.9864 23.3865 0.0000 -0.0008 0.0000
# 3 23.3865 23.3865 91.9465 0.0000 0.0000 0.0000
# 4 0.0000 0.0000 0.0000 17.8995 0.0000 -0.0008
# 5 0.0008 -0.0008 0.0000 0.0000 17.8995 0.0000
# 6 0.0000 0.0000 0.0000 -0.0008 0.0000 21.0381
#
#
#
# Elastic Compliance Matrix: (Units=1/GPa)
#
#
# Indices 1 2 3 4 5 6 
#
# 1 0.016269 -0.007497 -0.002231 0.000000 -0.000001 0.000000
# 2 -0.007497 0.016269 -0.002231 0.000000 0.000001 0.000000
# 3 -0.002231 -0.002231 0.012011 0.000000 0.000000 0.000000
# 4 0.000000 0.000000 0.000000 0.055868 0.000000 0.000002
# 5 -0.000001 0.000001 0.000000 0.000000 0.055868 0.000000
# 6 0.000000 0.000000 0.000000 0.000002 0.000000 0.047533
#
#
# Mechanical properties :
#
#
# Convention : Reuss Voigt Hill
#
# Bulk Modulus (GPa) = 48.47263 48.58730 48.52997
# Shear Modulus (GPa) = 21.31169 22.78314 22.04742
#
# Velocity S-wave (km/s) = 3.36058 3.47466 3.41810
# Velocity P-wave (km/s) = 6.38316 6.46878 6.42611
#
# Compressibility (1/GPa) = 0.02063020
#
# Stress axis : x y z
#
# Youngs Moduli (GPa) = 61.46596 61.46596 83.25800
#
# Poissons Ratio (x) = 0.46082 0.18576
# Poissons Ratio (y) = 0.46082 0.18576
# Poissons Ratio (z) = 0.13714 0.13714
#
# Static dielectric constant tensor:
#      x y z
#    x 3.342700 0.000000 0.000000 
#    y 0.000000 3.342700 0.000000 
#    z 0.000000 0.000000 3.697790 
# 
# 
# High freq. dielectric constant tensor:
#      x y z
#    x 1.729920 0.000000 0.000000 
#    y 0.000000 1.729920 0.000000 
#    z 0.000000 0.000000 1.746880 
# 
# From -- ./inp_files/4620.got.cif
#   From: 2010.03.12/outbox.cif.g09.slc.cpg/sg187_3_cif.got.tgz:4620.got - 2010.04.01 11:58:23.
