data_PCOD8327990
_publ_section_title
;
Structure prediction by ZEFSAII (Michael W. Deem and Ramdas Pophale) SiO2 
 PCOD8327990
Probable space group: P -6 2 C
;
_chemical_formula_sum "Si O2"
_cell_formula_units_Z 72
_cell_length_a 23.686185
_cell_length_b 23.686185
_cell_length_c 8.865891
_cell_angle_alpha 90.000000
_cell_angle_beta 90.000000
_cell_angle_gamma 120.000000
_cell_volume 4307.678209
_symmetry_space_group_name_H-M "P -6 2 C"
_symmetry_group_IT_number 190
_symmetry_cell_setting 'hexagonal'
loop_
_space_group_symop_operation_xyz
x,y,z
-x+y,-x,1/2-z
-y,x-y,z
x,y,1/2-z
-x+y,-x,z
-y,x-y,1/2-z
x-y,-y,-z
-x,-x+y,-z
y,x,-z
y,x,1/2+z
x-y,-y,1/2+z
-x,-x+y,1/2+z
loop_
_atom_site_type_symbol
_atom_site_label
_atom_site_fract_x
_atom_site_fract_y
_atom_site_fract_z
Si Si1 0.858988 0.263714 0.070994
Si Si2 0.527772 0.933072 0.425365
Si Si3 0.398698 0.930985 0.428696
Si Si4 0.932601 0.738934 0.575857
Si Si5 0.265113 0.067697 0.927785
Si Si6 0.148500 0.740537 0.427699
O O1 0.864875 0.266338 0.250000
O O2 0.875455 0.333359 0.005148
O O3 0.909674 0.244501 0.002027
O O4 0.785246 0.213807 0.020883
O O5 0.539105 0.946238 0.250000
O O6 0.454451 0.913310 0.471189
O O7 0.541577 0.875464 0.473056
O O8 0.580726 0.000000 0.500000
O O9 0.390076 0.933415 0.250000
O O10 0.416121 0.000000 0.500000
O O11 0.947927 0.745381 0.750000
O O12 0.877775 0.758066 0.536348
O O13 0.906848 0.664704 0.523361
O O14 0.000000 0.789666 0.500000
O O15 0.271611 0.060371 0.750000
O O16 0.211487 0.000000 0.000000
O O17 0.163830 0.754629 0.250000
#
# Coordination Sequence:
#
# PCOD8327990 Si02
#       6
#    12  12  12  12  12  12
#     4  11  21  32  48  71  96 127 161 196 238 284
#     4   9  18  31  50  73  98 127 158 192 235 281
#     4  10  19  32  49  71  98 128 159 196 238 284
#     4   9  18  30  47  70  97 124 152 188 231 275
#     4  10  20  34  50  71  97 126 158 197 239 282
#     4   9  18  33  49  70  98 126 157 195 234 278
#
# _framework density 16.71434
#
# number of rings (size 3 to 8) (size 9 to 14) (size 15 to 20)
#    0.000    2.333    0.000    4.500    0.000    4.667 
#    0.000    0.000    0.000    1.000    0.000    2.333 
#    0.000    0.000    0.000    0.000    0.000    0.000 
#
# Total GULP energy -892859.392249 kJ/mol
# GULP energy per Si atom -12400.824892 kJ/mol
# Density = 1.667630 g / cm^3
# Si number density = 16.714340 Si / 1000 Ang^3
#
#
#
# Elastic Constant Matrix: (Units=GPa)
#
#
# Indices 1 2 3 4 5 6 
#
# 1 113.1979 66.5740 51.8799 0.0000 0.0000 0.0000
# 2 66.5740 113.1979 51.8799 0.0000 0.0000 0.0000
# 3 51.8799 51.8799 86.2909 0.0000 0.0000 0.0000
# 4 0.0000 0.0000 0.0000 27.6516 0.0000 0.0000
# 5 0.0000 0.0000 0.0000 0.0000 27.6516 0.0000
# 6 0.0000 0.0000 0.0000 0.0000 0.0000 23.3120
#
#
#
# Elastic Compliance Matrix: (Units=1/GPa)
#
#
# Indices 1 2 3 4 5 6 
#
# 1 0.014983 -0.006465 -0.005122 0.000000 0.000000 0.000000
# 2 -0.006465 0.014983 -0.005122 0.000000 0.000000 0.000000
# 3 -0.005122 -0.005122 0.017747 0.000000 0.000000 0.000000
# 4 0.000000 0.000000 0.000000 0.036164 0.000000 0.000000
# 5 0.000000 0.000000 0.000000 0.000000 0.036164 0.000000
# 6 0.000000 0.000000 0.000000 0.000000 0.000000 0.042896
#
#
# Mechanical properties :
#
#
# Convention : Reuss Voigt Hill
#
# Bulk Modulus (GPa) = 69.93955 72.59492 71.26723
# Shear Modulus (GPa) = 24.86066 25.21323 25.03694
#
# Velocity S-wave (km/s) = 3.86085 3.88813 3.87451
# Velocity P-wave (km/s) = 7.86192 7.98021 7.92128
#
# Compressibility (1/GPa) = 0.01429806
#
# Stress axis : x y z
#
# Youngs Moduli (GPa) = 66.74034 66.74034 56.34716
#
# Poissons Ratio (x) = 0.43146 0.28859
# Poissons Ratio (y) = 0.43146 0.28859
# Poissons Ratio (z) = 0.34182 0.34182
#
# Static dielectric constant tensor:
#      x y z
#    x 3.172540 0.000000 0.000000 
#    y 0.000000 3.172540 0.000000 
#    z 0.000000 0.000000 3.157270 
# 
# 
# High freq. dielectric constant tensor:
#      x y z
#    x 1.634680 0.000000 0.000000 
#    y 0.000000 1.634680 0.000000 
#    z 0.000000 0.000000 1.651650 
# 
# From -- ./inp_files/1186.got.cif
#   From: 2010.06.25/outbox.cif.g09.slc.cpg/sg190_1_cif.got.tgz:1186.got - 2010.06.28 13:08:06.
