data_PCOD8327931
_publ_section_title
;
Structure prediction by ZEFSAII (Michael W. Deem and Ramdas Pophale) SiO2 
 PCOD8327931
Probable space group: P -6 2 C
;
_chemical_formula_sum "Si O2"
_cell_formula_units_Z 74
_cell_length_a 14.504042
_cell_length_b 14.504042
_cell_length_c 22.248221
_cell_angle_alpha 90.000000
_cell_angle_beta 90.000000
_cell_angle_gamma 120.000000
_cell_volume 4053.255857
_symmetry_space_group_name_H-M "P -6 2 C"
_symmetry_group_IT_number 190
_symmetry_cell_setting 'hexagonal'
loop_
_space_group_symop_operation_xyz
x,y,z
-x+y,-x,1/2-z
-y,x-y,z
x,y,1/2-z
-x+y,-x,z
-y,x-y,1/2-z
x-y,-y,-z
-x,-x+y,-z
y,x,-z
y,x,1/2+z
x-y,-y,1/2+z
-x,-x+y,1/2+z
loop_
_atom_site_type_symbol
_atom_site_label
_atom_site_fract_x
_atom_site_fract_y
_atom_site_fract_z
Si Si1 0.391523 0.391524 0.627502
Si Si2 0.299125 0.880066 0.499999
Si Si3 0.775275 0.566476 0.128829
Si Si4 0.333334 0.666668 0.177714
Si Si5 0.433522 0.208799 0.871169
Si Si6 0.463786 0.463786 0.500000
Si Si7 0.598664 0.598664 0.680803
Si Si8 0.333334 0.666668 0.822285
O O1 0.280542 0.381879 0.648522
O O2 0.381877 0.280542 0.648523
O O3 0.395948 0.395949 0.555961
O O4 0.499047 0.499046 0.648411
O O5 0.234202 0.812937 0.557636
O O6 0.234201 0.812941 0.442361
O O7 0.417799 0.894529 0.499999
O O8 0.314468 0.000000 0.500000
O O9 0.713445 0.615316 0.163997
O O10 0.724398 0.447844 0.150106
O O11 0.333334 0.666668 0.250000
O O12 0.275598 0.723442 0.150105
O O13 0.384688 0.098132 0.835998
O O14 0.573896 0.573903 0.750000
O O15 0.333334 0.666668 0.750000
#
# Coordination Sequence:
#
# PCOD8327931 Si02
#       8
#    12  12  12   4  12   6  12   4
#     4  12  24  38  64  97 121 162 212 253 310 377
#     4  10  19  38  63  85 123 163 207 249 317 372
#     4  12  23  40  62  92 129 168 208 259 309 371
#     4  12  24  37  59  94 132 174 208 245 307 369
#     4  12  23  40  62  92 129 168 208 259 309 371
#     4  10  16  40  60  94 124 158 200 248 316 380
#     4  12  24  42  62  87 129 170 210 258 312 368
#     4  12  24  37  59  94 132 174 208 245 307 369
#
# _framework density 18.256927000000001
#
# number of rings (size 3 to 8) (size 9 to 14) (size 15 to 20)
#    0.486    0.000    8.108    1.946    0.000    2.595 
#    0.000    0.000    0.000    0.649    0.000    0.000 
#    0.000    0.000    0.000    0.000    0.000    0.000 
#
# Total GULP energy -917062.778230 kJ/mol
# GULP energy per Si atom -12392.740246 kJ/mol
# Density = 1.821537 g / cm^3
# Si number density = 18.256927 Si / 1000 Ang^3
#
#
#
# Elastic Constant Matrix: (Units=GPa)
#
#
# Indices 1 2 3 4 5 6 
#
# 1 135.4556 66.3450 31.5701 0.0000 -0.0001 0.0000
# 2 66.3450 135.4555 31.5701 0.0000 0.0000 0.0000
# 3 31.5701 31.5701 116.0938 0.0000 0.0000 0.0001
# 4 0.0000 0.0000 0.0000 52.7695 0.0031 0.0000
# 5 -0.0001 0.0000 0.0000 0.0031 52.7599 0.0000
# 6 0.0000 0.0000 0.0001 0.0000 0.0000 34.5552
#
#
#
# Elastic Compliance Matrix: (Units=1/GPa)
#
#
# Indices 1 2 3 4 5 6 
#
# 1 0.009943 -0.004527 -0.001473 0.000000 0.000000 0.000000
# 2 -0.004527 0.009943 -0.001473 0.000000 0.000000 0.000000
# 3 -0.001473 -0.001473 0.009415 0.000000 0.000000 0.000000
# 4 0.000000 0.000000 0.000000 0.018950 -0.000001 0.000000
# 5 0.000000 0.000000 0.000000 -0.000001 0.018954 0.000000
# 6 0.000000 0.000000 0.000000 0.000000 0.000000 0.028939
#
#
# Mechanical properties :
#
#
# Convention : Reuss Voigt Hill
#
# Bulk Modulus (GPa) = 69.65846 71.77502 70.71674
# Shear Modulus (GPa) = 43.15034 45.18492 44.16763
#
# Velocity S-wave (km/s) = 4.86686 4.98028 4.92390
# Velocity P-wave (km/s) = 8.35579 8.51294 8.43473
#
# Compressibility (1/GPa) = 0.01435576
#
# Stress axis : x y z
#
# Youngs Moduli (GPa) = 100.57433 100.57429 106.21606
#
# Poissons Ratio (x) = 0.45527 0.15644
# Poissons Ratio (y) = 0.45527 0.15644
# Poissons Ratio (z) = 0.14813 0.14813
#
# Static dielectric constant tensor:
#      x y z
#    x 3.451000 0.000000 0.000000 
#    y 0.000000 3.451010 0.000000 
#    z 0.000000 0.000000 3.481730 
# 
# 
# High freq. dielectric constant tensor:
#      x y z
#    x 1.693810 0.000000 0.000000 
#    y 0.000000 1.693810 0.000000 
#    z 0.000000 0.000000 1.720700 
# 
# From -- ./inp_files/4410.got.cif
#   From: 2010.06.25/outbox.cif.g09.slc.cpg/sg190_3_cif.got.tgz:4410.got - 2010.06.28 13:08:06.
