data_PCOD8327733
_publ_section_title
;
Structure prediction by ZEFSAII (Michael W. Deem and Ramdas Pophale) SiO2 
 PCOD8327733
Probable space group: P -6 2 M
;
_chemical_formula_sum "Si O2"
_cell_formula_units_Z 60
_cell_length_a 16.787344
_cell_length_b 16.787344
_cell_length_c 13.868734
_cell_angle_alpha 90.000000
_cell_angle_beta 90.000000
_cell_angle_gamma 120.000000
_cell_volume 3384.787668
_symmetry_space_group_name_H-M "P -6 2 M"
_symmetry_group_IT_number 189
_symmetry_cell_setting 'hexagonal'
loop_
_space_group_symop_operation_xyz
x,y,z
-x+y,-x,-z
-y,x-y,z
x,y,-z
-x+y,-x,z
-y,x-y,-z
x-y,-y,-z
-x,-x+y,-z
y,x,-z
y,x,z
x-y,-y,z
-x,-x+y,z
loop_
_atom_site_type_symbol
_atom_site_label
_atom_site_fract_x
_atom_site_fract_y
_atom_site_fract_z
Si Si1 0.895838 0.514845 0.108355
Si Si2 0.501315 0.104414 0.271776
Si Si3 0.108021 0.892468 0.889502
Si Si4 0.790424 0.186117 0.766863
Si Si5 0.107838 0.650571 0.393255
O O1 0.889625 0.428491 0.163908
O O2 0.826298 0.545165 0.149886
O O3 0.000000 0.601586 0.116060
O O4 0.866871 0.481618 0.000000
O O5 0.448214 0.160014 0.274816
O O6 0.589054 0.147273 0.344618
O O7 0.429459 0.000000 0.300709
O O8 0.158683 0.861461 0.812056
O O9 0.000000 0.838445 0.867476
O O10 0.145692 0.000000 0.874260
O O11 0.126621 0.873245 0.000000
O O12 0.736698 0.125837 0.673476
O O13 0.151149 0.683573 0.500000
O O14 0.000000 0.586240 0.400968
#
# Coordination Sequence:
#
# PCOD8327733 Si02
#       5
#    12  12  12  12  12
#     4   9  18  33  50  67  95 136 173 206 249 300
#     4   9  19  34  50  70 100 132 164 205 253 304
#     4  10  20  33  51  78 113 149 182 218 261 309
#     4  11  19  31  53  79 102 128 174 221 257 305
#     4   9  19  37  57  73  95 130 167 207 260 315
#
# _framework density 17.726371
#
# number of rings (size 3 to 8) (size 9 to 14) (size 15 to 20)
#    0.000    2.400    0.000    4.400    0.000    4.800 
#    9.600    2.000    0.000    1.800    0.000    0.000 
#    0.000    1.600    0.000    0.000    0.000    0.000 
#
# Total GULP energy -743766.701694 kJ/mol
# GULP energy per Si atom -12396.111695 kJ/mol
# Density = 1.768602 g / cm^3
# Si number density = 17.726371 Si / 1000 Ang^3
#
#
#
# Elastic Constant Matrix: (Units=GPa)
#
#
# Indices 1 2 3 4 5 6 
#
# 1 67.3930 23.2465 30.3203 0.0000 0.0000 0.0000
# 2 23.2465 67.3930 30.3203 0.0000 0.0000 0.0000
# 3 30.3203 30.3203 135.6172 0.0000 0.0000 0.0000
# 4 0.0000 0.0000 0.0000 18.1782 0.0000 0.0000
# 5 0.0000 0.0000 0.0000 0.0000 18.1782 0.0000
# 6 0.0000 0.0000 0.0000 0.0000 0.0000 22.0732
#
#
#
# Elastic Compliance Matrix: (Units=1/GPa)
#
#
# Indices 1 2 3 4 5 6 
#
# 1 0.017813 -0.004839 -0.002900 0.000000 0.000000 0.000000
# 2 -0.004839 0.017813 -0.002900 0.000000 0.000000 0.000000
# 3 -0.002900 -0.002900 0.008671 0.000000 0.000000 0.000000
# 4 0.000000 0.000000 0.000000 0.055011 0.000000 0.000000
# 5 0.000000 0.000000 0.000000 0.000000 0.055011 0.000000
# 6 0.000000 0.000000 0.000000 0.000000 0.000000 0.045304
#
#
# Mechanical properties :
#
#
# Convention : Reuss Voigt Hill
#
# Bulk Modulus (GPa) = 43.44952 48.68640 46.06796
# Shear Modulus (GPa) = 21.87480 24.12033 22.99756
#
# Velocity S-wave (km/s) = 3.51668 3.69277 3.60580
# Velocity P-wave (km/s) = 6.40733 6.76071 6.58639
#
# Compressibility (1/GPa) = 0.02301522
#
# Stress axis : x y z
#
# Youngs Moduli (GPa) = 56.14021 56.14021 115.33196
#
# Poissons Ratio (x) = 0.27168 0.33452
# Poissons Ratio (y) = 0.27168 0.33452
# Poissons Ratio (z) = 0.16283 0.16283
#
# Static dielectric constant tensor:
#      x y z
#    x 3.168570 0.000000 0.000000 
#    y 0.000000 3.168570 0.000000 
#    z 0.000000 0.000000 3.599470 
# 
# 
# High freq. dielectric constant tensor:
#      x y z
#    x 1.675360 0.000000 0.000000 
#    y 0.000000 1.675360 0.000000 
#    z 0.000000 0.000000 1.684710 
# 
# From -- ./inp_files/2529.got.cif
#   From: 2010.03.12/outbox.cif.g09.slc.cpg/sg189_2_cif.got.tgz:2529.got - 2010.04.01 12:03:36.
