data_PCOD8327313
_publ_section_title
;
Structure prediction by ZEFSAII (Michael W. Deem and Ramdas Pophale) SiO2 
 PCOD8327313
Probable space group: P -6 C 2
;
_chemical_formula_sum "Si O2"
_cell_formula_units_Z 72
_cell_length_a 24.326778
_cell_length_b 24.326778
_cell_length_c 8.760104
_cell_angle_alpha 90.000000
_cell_angle_beta 90.000000
_cell_angle_gamma 120.000000
_cell_volume 4489.614765
_symmetry_space_group_name_H-M "P -6 C 2"
_symmetry_group_IT_number 188
_symmetry_cell_setting 'hexagonal'
loop_
_space_group_symop_operation_xyz
x,y,z
-x+y,-x,1/2-z
-y,x-y,z
x,y,1/2-z
-x+y,-x,z
-y,x-y,1/2-z
-y,-x,-z
-x+y,y,-z
x,x-y,-z
-x+y,y,1/2+z
x,x-y,1/2+z
-y,-x,1/2+z
loop_
_atom_site_type_symbol
_atom_site_label
_atom_site_fract_x
_atom_site_fract_y
_atom_site_fract_z
Si Si1 0.219643 0.552185 0.930471
Si Si2 0.979140 0.761235 0.074648
Si Si3 0.355733 0.231794 0.929798
Si Si4 0.984240 0.643793 0.424581
Si Si5 0.075418 0.480514 0.930497
Si Si6 0.118203 0.000157 0.431278
O O1 0.227214 0.557924 0.750000
O O2 0.147420 0.504124 0.981535
O O3 0.262632 0.525263 0.000000
O O4 0.242755 0.621378 0.000000
O O5 0.970135 0.775148 0.250000
O O6 0.016782 0.721201 0.064607
O O7 0.910759 0.716318 0.996280
O O8 0.015822 0.827353 0.982890
O O9 0.356345 0.228444 0.750000
O O10 0.390652 0.195326 0.000000
O O11 0.388901 0.305674 0.984318
O O12 0.968479 0.621377 0.250000
O O13 0.031427 0.622053 0.495206
O O14 0.070814 0.482154 0.750000
O O15 0.050983 0.525492 0.000000
O O16 0.113220 0.000101 0.250000
O O17 0.051356 0.948645 0.500000
O O18 0.136666 0.068333 0.500000
#
# Coordination Sequence:
#
# PCOD8327313 Si02
#       6
#    12  12  12  12  12  12
#     4  10  19  31  48  68  92 119 154 196 242 287
#     4   9  18  33  51  69  92 119 151 191 236 283
#     4  10  17  27  45  70  95 122 156 192 233 277
#     4   8  17  32  49  69  97 126 157 193 235 279
#     4   9  18  33  51  72  97 128 160 194 234 283
#     4  12  24  38  53  70  92 119 156 200 250 301
#
# _framework density 16.037011
#
# number of rings (size 3 to 8) (size 9 to 14) (size 15 to 20)
#    1.000    1.333    0.000    4.333    0.000    1.333 
#    0.000    0.833    0.000    2.000    0.000    0.000 
#    0.000    0.000    0.000    0.500    0.000    8.000 
#
# Total GULP energy -892155.591320 kJ/mol
# GULP energy per Si atom -12391.049879 kJ/mol
# Density = 1.600051 g / cm^3
# Si number density = 16.037011 Si / 1000 Ang^3
#
#
#
# Elastic Constant Matrix: (Units=GPa)
#
#
# Indices 1 2 3 4 5 6 
#
# 1 88.0174 54.3533 37.0865 0.0000 0.0000 0.0000
# 2 54.3533 88.0174 37.0865 0.0000 0.0000 0.0000
# 3 37.0865 37.0865 103.8741 0.0000 0.0000 0.0000
# 4 0.0000 0.0000 0.0000 21.6102 0.0000 0.0000
# 5 0.0000 0.0000 0.0000 0.0000 21.6102 0.0000
# 6 0.0000 0.0000 0.0000 0.0000 0.0000 16.8320
#
#
#
# Elastic Compliance Matrix: (Units=1/GPa)
#
#
# Indices 1 2 3 4 5 6 
#
# 1 0.019167 -0.010538 -0.003081 0.000000 0.000000 0.000000
# 2 -0.010538 0.019167 -0.003081 0.000000 0.000000 0.000000
# 3 -0.003081 -0.003081 0.011827 0.000000 0.000000 0.000000
# 4 0.000000 0.000000 0.000000 0.046275 0.000000 0.000000
# 5 0.000000 0.000000 0.000000 0.000000 0.046275 0.000000
# 6 0.000000 0.000000 0.000000 0.000000 0.000000 0.059411
#
#
# Mechanical properties :
#
#
# Convention : Reuss Voigt Hill
#
# Bulk Modulus (GPa) = 59.66022 59.66241 59.66132
# Shear Modulus (GPa) = 20.73763 22.10264 21.42013
#
# Velocity S-wave (km/s) = 3.59989 3.71648 3.65865
# Velocity P-wave (km/s) = 7.38656 7.46324 7.42500
#
# Compressibility (1/GPa) = 0.01676159
#
# Stress axis : x y z
#
# Youngs Moduli (GPa) = 52.17266 52.17266 84.55256
#
# Poissons Ratio (x) = 0.54980 0.26049
# Poissons Ratio (y) = 0.54980 0.26049
# Poissons Ratio (z) = 0.16074 0.16074
#
# Static dielectric constant tensor:
#      x y z
#    x 2.966840 0.000000 0.000000 
#    y 0.000000 2.966840 0.000000 
#    z 0.000000 0.000000 3.023660 
# 
# 
# High freq. dielectric constant tensor:
#      x y z
#    x 1.590980 0.000000 0.000000 
#    y 0.000000 1.590980 0.000000 
#    z 0.000000 0.000000 1.628720 
# 
# From -- ./inp_files/1040.got.cif
#   From: 2010.03.12/outbox.cif.g09.slc.cpg/sg188_1_cif.got.tgz:1040.got - 2010.04.01 12:01:06.
