data_PCOD8327452
_publ_section_title
;
Structure prediction by ZEFSAII (Michael W. Deem and Ramdas Pophale) SiO2 
 PCOD8327452
Probable space group: P -6 C 2
;
_chemical_formula_sum "Si O2"
_cell_formula_units_Z 42
_cell_length_a 8.718526
_cell_length_b 8.718526
_cell_length_c 31.575315
_cell_angle_alpha 90.000000
_cell_angle_beta 90.000000
_cell_angle_gamma 120.000000
_cell_volume 2078.569056
_symmetry_space_group_name_H-M "P -6 C 2"
_symmetry_group_IT_number 188
_symmetry_cell_setting 'hexagonal'
loop_
_space_group_symop_operation_xyz
x,y,z
-x+y,-x,1/2-z
-y,x-y,z
x,y,1/2-z
-x+y,-x,z
-y,x-y,1/2-z
-y,-x,-z
-x+y,y,-z
x,x-y,-z
-x+y,y,1/2+z
x,x-y,1/2+z
-y,-x,1/2+z
loop_
_atom_site_type_symbol
_atom_site_label
_atom_site_fract_x
_atom_site_fract_y
_atom_site_fract_z
Si Si1 0.974387 0.309983 0.329175
Si Si2 0.331717 0.348593 0.201918
Si Si3 0.858190 0.080938 0.584499
Si Si4 0.779190 0.220811 0.500000
O O1 0.149193 0.296495 0.321638
O O2 0.019167 0.509779 0.323140
O O3 0.822101 0.179443 0.296798
O O4 0.890683 0.241550 0.375970
O O5 0.327689 0.408283 0.250000
O O6 0.810962 0.136009 0.540926
O O7 0.072291 0.199560 0.586612
O O8 0.868664 0.434332 0.500000
#
# Coordination Sequence:
#
# PCOD8327452 Si02
#       4
#    12  12  12   6
#     4  12  25  43  67  99 133 185 232 288 354 422
#     4  12  24  42  64  95 135 178 232 290 348 412
#     4  10  21  44  68  96 132 183 222 274 350 417
#     4  10  24  36  68 106 130 168 220 286 336 416
#
# _framework density 20.206208
#
# number of rings (size 3 to 8) (size 9 to 14) (size 15 to 20)
#    0.857    0.000    2.857    5.143    4.000    0.000 
#    0.000    0.000    0.000    4.571    0.000    0.000 
#    0.000    0.000    0.000    0.000    0.000    0.000 
#
# Total GULP energy -520626.361198 kJ/mol
# GULP energy per Si atom -12395.865743 kJ/mol
# Density = 2.016022 g / cm^3
# Si number density = 20.206208 Si / 1000 Ang^3
#
#
#
# Elastic Constant Matrix: (Units=GPa)
#
#
# Indices 1 2 3 4 5 6 
#
# 1 93.6200 20.9266 43.6756 0.0000 0.0000 0.0000
# 2 20.9266 93.6200 43.6756 0.0000 0.0000 0.0000
# 3 43.6756 43.6756 174.9950 0.0000 0.0000 0.0000
# 4 0.0000 0.0000 0.0000 36.0825 0.0000 0.0000
# 5 0.0000 0.0000 0.0000 0.0000 36.0825 0.0000
# 6 0.0000 0.0000 0.0000 0.0000 0.0000 36.3467
#
#
#
# Elastic Compliance Matrix: (Units=1/GPa)
#
#
# Indices 1 2 3 4 5 6 
#
# 1 0.012269 -0.001487 -0.002691 0.000000 0.000000 0.000000
# 2 -0.001487 0.012269 -0.002691 0.000000 0.000000 0.000000
# 3 -0.002691 -0.002691 0.007058 0.000000 0.000000 0.000000
# 4 0.000000 0.000000 0.000000 0.027714 0.000000 0.000000
# 5 0.000000 0.000000 0.000000 0.000000 0.027714 0.000000
# 6 0.000000 0.000000 0.000000 0.000000 0.000000 0.027513
#
#
# Mechanical properties :
#
#
# Convention : Reuss Voigt Hill
#
# Bulk Modulus (GPa) = 55.99741 64.31004 60.15373
# Shear Modulus (GPa) = 37.24983 38.63281 37.94132
#
# Velocity S-wave (km/s) = 4.29824 4.37730 4.33795
# Velocity P-wave (km/s) = 7.23922 7.57916 7.41114
#
# Compressibility (1/GPa) = 0.01785797
#
# Stress axis : x y z
#
# Youngs Moduli (GPa) = 81.50415 81.50415 141.68881
#
# Poissons Ratio (x) = 0.12121 0.38129
# Poissons Ratio (y) = 0.12121 0.38129
# Poissons Ratio (z) = 0.21933 0.21933
#
# Static dielectric constant tensor:
#      x y z
#    x 3.605570 0.000000 0.000000 
#    y 0.000000 3.605570 0.000000 
#    z 0.000000 0.000000 4.556920 
# 
# 
# High freq. dielectric constant tensor:
#      x y z
#    x 1.785440 0.000000 0.000000 
#    y 0.000000 1.785440 0.000000 
#    z 0.000000 0.000000 1.799680 
# 
# From -- ./inp_files/4402.got.cif
#   From: 2010.03.12/outbox.cif.g09.slc.cpg/sg188_3_cif.got.tgz:4402.got - 2010.04.01 12:01:06.
