data_PCOD8327271
_publ_section_title
;
Structure prediction by ZEFSAII (Michael W. Deem and Ramdas Pophale) SiO2 
 PCOD8327271
Probable space group: P -6 M 2
;
_chemical_formula_sum "Si O2"
_cell_formula_units_Z 38
_cell_length_a 11.550872
_cell_length_b 11.550872
_cell_length_c 17.003718
_cell_angle_alpha 90.000000
_cell_angle_beta 90.000000
_cell_angle_gamma 120.000000
_cell_volume 1964.735390
_symmetry_space_group_name_H-M "P -6 M 2"
_symmetry_group_IT_number 187
_symmetry_cell_setting 'hexagonal'
loop_
_space_group_symop_operation_xyz
x,y,z
-x+y,-x,-z
-y,x-y,z
x,y,-z
-x+y,-x,z
-y,x-y,-z
-y,-x,-z
-x+y,y,-z
x,x-y,-z
-x+y,y,z
x,x-y,z
-y,-x,z
loop_
_atom_site_type_symbol
_atom_site_label
_atom_site_fract_x
_atom_site_fract_y
_atom_site_fract_z
Si Si1 0.599448 0.931294 0.172550
Si Si2 0.928177 0.596126 0.500000
Si Si3 0.666668 0.333334 0.906701
Si Si4 0.365831 0.182916 0.093266
Si Si5 0.932702 0.332057 0.330957
O O1 0.475147 0.950293 0.146502
O O2 0.563396 0.781698 0.151760
O O3 0.733947 0.032276 0.125543
O O4 0.625860 0.952548 0.266069
O O5 0.768225 0.536450 0.500000
O O6 0.966398 0.483199 0.500000
O O7 0.984839 0.675101 0.583274
O O8 0.741492 0.482984 0.874087
O O9 0.666667 0.333334 0.000000
O O10 0.355712 0.177856 0.000000
O O11 0.891185 0.445593 0.339785
O O12 0.803273 0.196728 0.302065
#
# Coordination Sequence:
#
# PCOD8327271 Si02
#       5
#    12   6   2   6  12
#     4  11  23  39  59  85 119 156 193 232 281 340
#     4   8  13  22  41  74 112 144 178 227 285 334
#     4   9  18  36  66  96 111 130 176 244 288 330
#     4  11  22  40  66  91 115 142 184 239 292 342
#     4   9  16  28  50  80 112 146 186 234 284 335
#
# _framework density 19.341027
#
# number of rings (size 3 to 8) (size 9 to 14) (size 15 to 20)
#    0.000    2.211    3.158    0.789    0.000    3.158 
#    0.947    0.789    0.000    1.895    0.000    2.211 
#    0.000    0.000    0.000    0.000    0.000    0.000 
#
# Total GULP energy -470841.113256 kJ/mol
# GULP energy per Si atom -12390.555612 kJ/mol
# Density = 1.929701 g / cm^3
# Si number density = 19.341027 Si / 1000 Ang^3
#
#
#
# Elastic Constant Matrix: (Units=GPa)
#
#
# Indices 1 2 3 4 5 6 
#
# 1 74.8663 22.5240 28.4646 0.0000 0.0000 0.0000
# 2 22.5240 74.8662 28.4646 0.0000 0.0000 0.0000
# 3 28.4646 28.4646 104.0043 0.0000 0.0000 0.0000
# 4 0.0000 0.0000 0.0000 16.9551 0.0000 0.0000
# 5 0.0000 0.0000 0.0000 0.0000 16.9551 0.0000
# 6 0.0000 0.0000 0.0000 0.0000 0.0000 26.1711
#
#
#
# Elastic Compliance Matrix: (Units=1/GPa)
#
#
# Indices 1 2 3 4 5 6 
#
# 1 0.015664 -0.003441 -0.003345 0.000000 0.000000 0.000000
# 2 -0.003441 0.015664 -0.003345 0.000000 0.000000 0.000000
# 3 -0.003345 -0.003345 0.011446 0.000000 0.000000 0.000000
# 4 0.000000 0.000000 0.000000 0.058979 0.000000 0.000000
# 5 0.000000 0.000000 0.000000 0.000000 0.058979 0.000000
# 6 0.000000 0.000000 0.000000 0.000000 0.000000 0.038210
#
#
# Mechanical properties :
#
#
# Convention : Reuss Voigt Hill
#
# Bulk Modulus (GPa) = 44.42161 45.84923 45.13542
# Shear Modulus (GPa) = 22.05456 23.63517 22.84487
#
# Velocity S-wave (km/s) = 3.38050 3.49954 3.44053
# Velocity P-wave (km/s) = 6.18502 6.33136 6.25862
#
# Compressibility (1/GPa) = 0.02251157
#
# Stress axis : x y z
#
# Youngs Moduli (GPa) = 63.83957 63.83953 87.36544
#
# Poissons Ratio (x) = 0.21966 0.29227
# Poissons Ratio (y) = 0.21966 0.29227
# Poissons Ratio (z) = 0.21357 0.21357
#
# Static dielectric constant tensor:
#      x y z
#    x 3.134320 0.000000 0.000000 
#    y 0.000000 3.134320 0.000000 
#    z 0.000000 0.000000 3.878810 
# 
# 
# High freq. dielectric constant tensor:
#      x y z
#    x 1.716280 0.000000 0.000000 
#    y 0.000000 1.716280 0.000000 
#    z 0.000000 0.000000 1.774980 
# 
# From -- ./inp_files/2880.got.cif
#   From: 2010.03.12/outbox.cif.g09.slc.cpg/sg187_2_cif.got.tgz:2880.got - 2010.04.01 11:58:23.
