data_PCOD8327886
_publ_section_title
;
Structure prediction by ZEFSAII (Michael W. Deem and Ramdas Pophale) SiO2 
 PCOD8327886
Probable space group: P -6 2 M
;
_chemical_formula_sum "Si O2"
_cell_formula_units_Z 72
_cell_length_a 23.938286
_cell_length_b 23.938286
_cell_length_c 8.866257
_cell_angle_alpha 90.000000
_cell_angle_beta 90.000000
_cell_angle_gamma 120.000000
_cell_volume 4400.044311
_symmetry_space_group_name_H-M "P -6 2 M"
_symmetry_group_IT_number 189
_symmetry_cell_setting 'hexagonal'
loop_
_space_group_symop_operation_xyz
x,y,z
-x+y,-x,-z
-y,x-y,z
x,y,-z
-x+y,-x,z
-y,x-y,-z
x-y,-y,-z
-x,-x+y,-z
y,x,-z
y,x,z
x-y,-y,z
-x,-x+y,z
loop_
_atom_site_type_symbol
_atom_site_label
_atom_site_fract_x
_atom_site_fract_y
_atom_site_fract_z
Si Si1 0.195643 0.268148 0.677735
Si Si2 0.149837 0.410665 0.321589
Si Si3 0.857790 0.595295 0.822518
Si Si4 0.924737 0.528079 0.674844
Si Si5 0.071400 0.475813 0.678546
Si Si6 0.193283 0.929359 0.677669
O O1 0.202687 0.282363 0.500000
O O2 0.214719 0.214719 0.722596
O O3 0.243747 0.335044 0.757080
O O4 0.121773 0.242077 0.730750
O O5 0.161543 0.416609 0.500000
O O6 0.217616 0.431551 0.242409
O O7 0.122857 0.456353 0.260480
O O8 0.097637 0.337771 0.274613
O O9 0.881229 0.545591 0.778103
O O10 0.855656 0.600534 0.000000
O O11 0.908917 0.531366 0.500000
O O12 0.906158 0.455522 0.721664
O O13 0.000000 0.576723 0.706215
O O14 0.066517 0.467716 0.500000
O O15 0.000000 0.428109 0.746118
O O16 0.194542 0.937179 0.500000
O O17 0.218691 0.000000 0.752691
#
# Coordination Sequence:
#
# PCOD8327886 Si02
#       6
#    12  12  12  12  12  12
#     4   9  17  29  45  64  86 115 150 185 221 261
#     4   9  16  28  47  68  89 114 144 178 216 259
#     4  11  21  30  42  63  91 121 151 182 218 259
#     4   9  17  30  48  69  92 116 144 181 223 265
#     4   8  14  26  48  75  94 110 139 179 219 261
#     4   8  13  22  40  65  88 110 138 173 213 258
#
# _framework density 16.363471000000001
#
# number of rings (size 3 to 8) (size 9 to 14) (size 15 to 20)
#    0.000    3.000    0.000    4.500    0.000    4.667 
#    0.000    0.833    0.000   14.500    0.000    4.667 
#    0.000    0.000    0.000    0.500    0.000    2.667 
#
# Total GULP energy -892426.626082 kJ/mol
# GULP energy per Si atom -12394.814251 kJ/mol
# Density = 1.632623 g / cm^3
# Si number density = 16.363471 Si / 1000 Ang^3
#
#
#
# Elastic Constant Matrix: (Units=GPa)
#
#
# Indices 1 2 3 4 5 6 
#
# 1 132.2023 70.6234 30.3203 0.0000 0.0000 0.0000
# 2 70.6234 132.2023 30.3203 0.0000 0.0000 0.0000
# 3 30.3203 30.3203 41.5919 0.0000 0.0000 0.0000
# 4 0.0000 0.0000 0.0000 3.3004 0.0000 0.0000
# 5 0.0000 0.0000 0.0000 0.0000 3.3004 0.0000
# 6 0.0000 0.0000 0.0000 0.0000 0.0000 30.7894
#
#
#
# Elastic Compliance Matrix: (Units=1/GPa)
#
#
# Indices 1 2 3 4 5 6 
#
# 1 0.011272 -0.004967 -0.004596 0.000000 0.000000 0.000000
# 2 -0.004967 0.011272 -0.004596 0.000000 0.000000 0.000000
# 3 -0.004596 -0.004596 0.030744 0.000000 0.000000 0.000000
# 4 0.000000 0.000000 0.000000 0.302998 0.000000 0.000000
# 5 0.000000 0.000000 0.000000 0.000000 0.302998 0.000000
# 6 0.000000 0.000000 0.000000 0.000000 0.000000 0.032479
#
#
# Mechanical properties :
#
#
# Convention : Reuss Voigt Hill
#
# Bulk Modulus (GPa) = 40.04937 63.16940 51.60938
# Shear Modulus (GPa) = 6.86433 19.12684 12.99558
#
# Velocity S-wave (km/s) = 2.05037 3.42259 2.82118
# Velocity P-wave (km/s) = 5.48938 7.36930 6.49769
#
# Compressibility (1/GPa) = 0.02496918
#
# Stress axis : x y z
#
# Youngs Moduli (GPa) = 88.71631 88.71631 32.52673
#
# Poissons Ratio (x) = 0.44070 0.14949
# Poissons Ratio (y) = 0.44070 0.14949
# Poissons Ratio (z) = 0.40773 0.40773
#
# Static dielectric constant tensor:
#      x y z
#    x 3.189760 0.000000 0.000000 
#    y 0.000000 3.189760 0.000000 
#    z 0.000000 0.000000 2.706470 
# 
# 
# High freq. dielectric constant tensor:
#      x y z
#    x 1.624120 0.000000 0.000000 
#    y 0.000000 1.624120 0.000000 
#    z 0.000000 0.000000 1.592020 
# 
# From -- ./inp_files/1298.got.cif
#   From: 2010.03.12/outbox.cif.g09.slc.cpg/sg189_1_cif.got.tgz:1298.got - 2010.04.01 12:03:36.
