data_PCOD8327859
_publ_section_title
;
Structure prediction by ZEFSAII (Michael W. Deem and Ramdas Pophale) SiO2 
 PCOD8327859
Probable space group: P -6 2 M
;
_chemical_formula_sum "Si O2"
_cell_formula_units_Z 48
_cell_length_a 17.917078
_cell_length_b 17.917078
_cell_length_c 8.405505
_cell_angle_alpha 90.000000
_cell_angle_beta 90.000000
_cell_angle_gamma 120.000000
_cell_volume 2336.839103
_symmetry_space_group_name_H-M "P -6 2 M"
_symmetry_group_IT_number 189
_symmetry_cell_setting 'hexagonal'
loop_
_space_group_symop_operation_xyz
x,y,z
-x+y,-x,-z
-y,x-y,z
x,y,-z
-x+y,-x,z
-y,x-y,-z
x-y,-y,-z
-x,-x+y,-z
y,x,-z
y,x,z
x-y,-y,z
-x,-x+y,z
loop_
_atom_site_type_symbol
_atom_site_label
_atom_site_fract_x
_atom_site_fract_y
_atom_site_fract_z
Si Si1 0.000000 0.782305 0.311438
Si Si2 0.810792 0.713081 0.311002
Si Si3 0.608280 0.162668 0.313908
Si Si4 0.383047 0.383047 0.688846
Si Si5 0.270533 0.790140 0.815498
O O1 0.000000 0.778014 0.500000
O O2 0.089378 0.866378 0.255906
O O3 0.000000 0.699463 0.237577
O O4 0.805392 0.705910 0.500000
O O5 0.754025 0.754025 0.245963
O O6 0.775359 0.617453 0.245330
O O7 0.587036 0.158047 0.500000
O O8 0.615635 0.082880 0.248883
O O9 0.528408 0.156134 0.216055
O O10 0.701655 0.244030 0.278034
O O11 0.378453 0.378453 0.500000
O O12 0.249972 0.770654 0.000000
#
# Coordination Sequence:
#
# PCOD8327859 Si02
#       5
#     6  12  12   6  12
#     4   9  16  36  64  92 119 148 199 261 308 356
#     4  10  21  39  64  91 122 163 207 253 310 374
#     4  11  22  40  63  87 114 156 204 248 295 358
#     4   9  18  34  62  88 109 142 197 251 294 344
#     4  12  25  40  58  88 127 163 199 250 306 359
#
# _framework density 20.540566999999999
#
# number of rings (size 3 to 8) (size 9 to 14) (size 15 to 20)
#    0.000    1.500    2.500    3.500    1.750    0.500 
#    0.750    3.750    0.000    0.000    0.000    0.000 
#    0.000    0.000    0.000    0.000    0.000    0.000 
#
# Total GULP energy -595057.513829 kJ/mol
# GULP energy per Si atom -12397.031538 kJ/mol
# Density = 2.049382 g / cm^3
# Si number density = 20.540567 Si / 1000 Ang^3
#
#
#
# Elastic Constant Matrix: (Units=GPa)
#
#
# Indices 1 2 3 4 5 6 
#
# 1 108.5065 51.2715 20.6131 0.0000 0.0000 0.0000
# 2 51.2715 108.5065 20.6131 0.0000 0.0000 0.0000
# 3 20.6131 20.6131 44.1819 0.0000 0.0000 0.0000
# 4 0.0000 0.0000 0.0000 3.7513 0.0000 0.0000
# 5 0.0000 0.0000 0.0000 0.0000 3.7513 0.0000
# 6 0.0000 0.0000 0.0000 0.0000 0.0000 28.6175
#
#
#
# Elastic Compliance Matrix: (Units=1/GPa)
#
#
# Indices 1 2 3 4 5 6 
#
# 1 0.012294 -0.005178 -0.003320 0.000000 0.000000 0.000000
# 2 -0.005178 0.012294 -0.003320 0.000000 0.000000 0.000000
# 3 -0.003320 -0.003320 0.025731 0.000000 0.000000 0.000000
# 4 0.000000 0.000000 0.000000 0.266577 0.000000 0.000000
# 5 0.000000 0.000000 0.000000 0.000000 0.266577 0.000000
# 6 0.000000 0.000000 0.000000 0.000000 0.000000 0.034944
#
#
# Mechanical properties :
#
#
# Convention : Reuss Voigt Hill
#
# Bulk Modulus (GPa) = 37.47671 49.57671 43.52671
# Shear Modulus (GPa) = 7.68115 18.47048 13.07581
#
# Velocity S-wave (km/s) = 1.93588 3.00195 2.52580
# Velocity P-wave (km/s) = 4.82511 6.01698 5.45370
#
# Compressibility (1/GPa) = 0.02668324
#
# Stress axis : x y z
#
# Youngs Moduli (GPa) = 81.34366 81.34366 38.86325
#
# Poissons Ratio (x) = 0.42122 0.12901
# Poissons Ratio (y) = 0.42122 0.12901
# Poissons Ratio (z) = 0.27003 0.27003
#
# Static dielectric constant tensor:
#      x y z
#    x 3.976830 0.000000 0.000000 
#    y 0.000000 3.976830 0.000000 
#    z 0.000000 0.000000 3.353530 
# 
# 
# High freq. dielectric constant tensor:
#      x y z
#    x 1.811420 0.000000 0.000000 
#    y 0.000000 1.811420 0.000000 
#    z 0.000000 0.000000 1.773010 
# 
# From -- ./inp_files/638.got.cif
#   From: 2010.03.12/outbox.cif.g09.slc.cpg/sg189_1_cif.got.tgz:638.got - 2010.04.01 12:03:36.
