data_PCOD8327175
_publ_section_title
;
Structure prediction by ZEFSAII (Michael W. Deem and Ramdas Pophale) SiO2 
 PCOD8327175
Probable space group: P -6 M 2
;
_chemical_formula_sum "Si O2"
_cell_formula_units_Z 60
_cell_length_a 12.645128
_cell_length_b 12.645128
_cell_length_c 25.345503
_cell_angle_alpha 90.000000
_cell_angle_beta 90.000000
_cell_angle_gamma 120.000000
_cell_volume 3509.764734
_symmetry_space_group_name_H-M "P -6 M 2"
_symmetry_group_IT_number 187
_symmetry_cell_setting 'hexagonal'
loop_
_space_group_symop_operation_xyz
x,y,z
-x+y,-x,-z
-y,x-y,z
x,y,-z
-x+y,-x,z
-y,x-y,-z
-y,-x,-z
-x+y,y,-z
x,x-y,-z
-x+y,y,z
x,x-y,z
-y,-x,z
loop_
_atom_site_type_symbol
_atom_site_label
_atom_site_fract_x
_atom_site_fract_y
_atom_site_fract_z
Si Si1 0.420557 0.085529 0.249897
Si Si2 0.666446 0.576330 0.060234
Si Si3 0.333679 0.420482 0.347364
Si Si4 0.579383 0.665556 0.152652
Si Si5 0.000080 0.757132 0.439992
O O1 0.562393 0.124786 0.248953
O O2 0.409016 0.204508 0.250155
O O3 0.354784 0.008156 0.301548
O O4 0.352079 0.007397 0.198713
O O5 0.795288 0.590576 0.076300
O O6 0.564705 0.435296 0.069063
O O7 0.638429 0.662751 0.096769
O O8 0.666870 0.616663 0.000000
O O9 0.210129 0.420258 0.334517
O O10 0.440853 0.559148 0.350474
O O11 0.328241 0.356543 0.402885
O O12 0.589924 0.794962 0.159756
O O13 0.437756 0.562245 0.155533
O O14 0.998043 0.714139 0.500000
O O15 0.101473 0.898528 0.432796
O O16 0.871247 0.742493 0.423696
#
# Coordination Sequence:
#
# PCOD8327175 Si02
#       5
#    12  12  12  12  12
#     4  10  20  34  53  75  97 122 155 198 246 291
#     4   9  17  30  50  75 100 126 158 199 245 288
#     4  10  20  33  50  72  99 131 164 197 235 282
#     4  10  20  33  50  72  99 131 164 197 235 282
#     4   9  17  30  49  72  97 126 161 201 243 285
#
# _framework density 17.095164
#
# number of rings (size 3 to 8) (size 9 to 14) (size 15 to 20)
#    0.000    2.400    0.000    2.800    0.000    2.400 
#    0.000    4.000    0.000   11.200    0.000    0.000 
#    0.000    0.000    0.000    0.000    0.000    0.000 
#
# Total GULP energy -744144.781406 kJ/mol
# GULP energy per Si atom -12402.413023 kJ/mol
# Density = 1.705625 g / cm^3
# Si number density = 17.095164 Si / 1000 Ang^3
#
#
#
# Elastic Constant Matrix: (Units=GPa)
#
#
# Indices 1 2 3 4 5 6 
#
# 1 115.8399 72.6950 62.7694 0.0000 -0.0002 0.0000
# 2 72.6950 115.8399 62.7694 0.0000 0.0002 0.0000
# 3 62.7694 62.7694 112.0016 0.0000 0.0000 0.0000
# 4 0.0000 0.0000 0.0000 22.6316 0.0000 0.0002
# 5 -0.0002 0.0002 0.0000 0.0000 22.6316 0.0000
# 6 0.0000 0.0000 0.0000 0.0002 0.0000 21.5725
#
#
#
# Elastic Compliance Matrix: (Units=1/GPa)
#
#
# Indices 1 2 3 4 5 6 
#
# 1 0.015820 -0.007358 -0.004742 0.000000 0.000000 0.000000
# 2 -0.007358 0.015820 -0.004742 0.000000 0.000000 0.000000
# 3 -0.004742 -0.004742 0.014244 0.000000 0.000000 0.000000
# 4 0.000000 0.000000 0.000000 0.044186 0.000000 0.000000
# 5 0.000000 0.000000 0.000000 0.000000 0.044186 0.000000
# 6 0.000000 0.000000 0.000000 0.000000 0.000000 0.046355
#
#
# Mechanical properties :
#
#
# Convention : Reuss Voigt Hill
#
# Bulk Modulus (GPa) = 81.97802 82.23876 82.10839
# Shear Modulus (GPa) = 22.89777 23.06363 22.98070
#
# Velocity S-wave (km/s) = 3.66379 3.67704 3.67042
# Velocity P-wave (km/s) = 8.12132 8.13870 8.13001
#
# Compressibility (1/GPa) = 0.01219839
#
# Stress axis : x y z
#
# Youngs Moduli (GPa) = 63.21225 63.21225 70.20563
#
# Poissons Ratio (x) = 0.46511 0.33293
# Poissons Ratio (y) = 0.46511 0.33293
# Poissons Ratio (z) = 0.29977 0.29977
#
# Static dielectric constant tensor:
#      x y z
#    x 3.068500 0.000000 0.000000 
#    y 0.000000 3.068500 0.000000 
#    z 0.000000 0.000000 3.459800 
# 
# 
# High freq. dielectric constant tensor:
#      x y z
#    x 1.652600 0.000000 0.000000 
#    y 0.000000 1.652600 0.000000 
#    z 0.000000 0.000000 1.676370 
# 
# From -- ./inp_files/4138.got.cif
#   From: 2010.03.12/outbox.cif.g09.slc.cpg/sg187_3_cif.got.tgz:4138.got - 2010.04.01 11:58:23.
