data_PCOD8327142
_publ_section_title
;
Structure prediction by ZEFSAII (Michael W. Deem and Ramdas Pophale) SiO2 
 PCOD8327142
Probable space group: P -6 M 2
;
_chemical_formula_sum "Si O2"
_cell_formula_units_Z 54
_cell_length_a 12.545839
_cell_length_b 12.545839
_cell_length_c 22.829701
_cell_angle_alpha 90.000000
_cell_angle_beta 90.000000
_cell_angle_gamma 120.000000
_cell_volume 3111.933266
_symmetry_space_group_name_H-M "P -6 M 2"
_symmetry_group_IT_number 187
_symmetry_cell_setting 'hexagonal'
loop_
_space_group_symop_operation_xyz
x,y,z
-x+y,-x,-z
-y,x-y,z
x,y,-z
-x+y,-x,z
-y,x-y,-z
-y,-x,-z
-x+y,y,-z
x,x-y,-z
-x+y,y,z
x,x-y,z
-y,-x,z
loop_
_atom_site_type_symbol
_atom_site_label
_atom_site_fract_x
_atom_site_fract_y
_atom_site_fract_z
Si Si1 0.913962 0.580112 0.170716
Si Si2 0.668317 0.085391 0.500000
Si Si3 0.755428 0.000097 0.933500
Si Si4 0.750673 0.999868 0.610210
Si Si5 0.084680 0.666401 0.279919
O O1 0.793151 0.586302 0.186630
O O2 0.877382 0.438691 0.167884
O O3 0.970053 0.641056 0.108127
O O4 0.015600 0.654675 0.219462
O O5 0.771784 0.228217 0.500000
O O6 0.537052 0.074104 0.500000
O O7 0.678616 0.017467 0.556986
O O8 0.898349 0.101652 0.926195
O O9 0.740409 0.870205 0.915237
O O10 0.711005 0.997525 0.000000
O O11 0.759017 0.879509 0.597384
O O12 0.678174 0.989477 0.669321
O O13 0.887557 0.112444 0.616524
O O14 0.088807 0.544404 0.295334
O O15 0.222816 0.777185 0.274073
#
# Coordination Sequence:
#
# PCOD8327142 Si02
#       5
#    12   6  12  12  12
#     4  10  20  33  49  70  97 129 164 201 242 289
#     4  10  20  34  52  74 100 130 164 200 238 282
#     4   9  17  30  49  72  96 122 154 194 240 288
#     4  10  20  34  53  76 102 131 163 201 245 293
#     4  10  20  34  52  73  98 129 165 205 248 294
#
# _framework density 17.352556
#
# number of rings (size 3 to 8) (size 9 to 14) (size 15 to 20)
#    0.000    2.222    0.000    3.333    0.000    1.333 
#    0.000    1.111    0.000   19.111    0.000    0.000 
#    0.000    0.000    0.000    0.000    0.000    0.000 
#
# Total GULP energy -669778.828415 kJ/mol
# GULP energy per Si atom -12403.311637 kJ/mol
# Density = 1.731306 g / cm^3
# Si number density = 17.352556 Si / 1000 Ang^3
#
#
#
# Elastic Constant Matrix: (Units=GPa)
#
#
# Indices 1 2 3 4 5 6 
#
# 1 101.1359 55.8175 54.0983 0.0000 -0.0003 0.0000
# 2 55.8175 101.1359 54.0983 0.0000 0.0003 0.0000
# 3 54.0983 54.0983 101.3443 0.0000 0.0000 0.0000
# 4 0.0000 0.0000 0.0000 25.5723 0.0000 0.0003
# 5 -0.0003 0.0003 0.0000 0.0000 25.5723 0.0000
# 6 0.0000 0.0000 0.0000 0.0003 0.0000 22.6592
#
#
#
# Elastic Compliance Matrix: (Units=1/GPa)
#
#
# Indices 1 2 3 4 5 6 
#
# 1 0.016074 -0.005993 -0.005381 0.000000 0.000000 0.000000
# 2 -0.005993 0.016074 -0.005381 0.000000 0.000000 0.000000
# 3 -0.005381 -0.005381 0.015612 0.000000 0.000000 0.000000
# 4 0.000000 0.000000 0.000000 0.039105 0.000000 -0.000001
# 5 0.000000 0.000000 0.000000 0.000000 0.039105 0.000000
# 6 0.000000 0.000000 0.000000 -0.000001 0.000000 0.044132
#
#
# Mechanical properties :
#
#
# Convention : Reuss Voigt Hill
#
# Bulk Modulus (GPa) = 70.17914 70.18268 70.18091
# Shear Modulus (GPa) = 23.99679 24.06757 24.03218
#
# Velocity S-wave (km/s) = 3.72277 3.72825 3.72551
# Velocity P-wave (km/s) = 7.68177 7.68545 7.68361
#
# Compressibility (1/GPa) = 0.01424925
#
# Stress axis : x y z
#
# Youngs Moduli (GPa) = 62.21416 62.21416 64.05141
#
# Poissons Ratio (x) = 0.37282 0.34468
# Poissons Ratio (y) = 0.37282 0.34468
# Poissons Ratio (z) = 0.33479 0.33479
#
# Static dielectric constant tensor:
#      x y z
#    x 3.203200 0.000000 0.000000 
#    y 0.000000 3.203200 0.000000 
#    z 0.000000 0.000000 3.402900 
# 
# 
# High freq. dielectric constant tensor:
#      x y z
#    x 1.674230 0.000000 0.000000 
#    y 0.000000 1.674230 0.000000 
#    z 0.000000 0.000000 1.683030 
# 
# From -- ./inp_files/3446.got.cif
#   From: 2010.03.12/outbox.cif.g09.slc.cpg/sg187_2_cif.got.tgz:3446.got - 2010.04.01 11:58:23.
