data_PCOD8327385
_publ_section_title
;
Structure prediction by ZEFSAII (Michael W. Deem and Ramdas Pophale) SiO2 
 PCOD8327385
Probable space group: P -6 C 2
;
_chemical_formula_sum "Si O2"
_cell_formula_units_Z 72
_cell_length_a 23.923309
_cell_length_b 23.923309
_cell_length_c 8.622944
_cell_angle_alpha 90.000000
_cell_angle_beta 90.000000
_cell_angle_gamma 120.000000
_cell_volume 4273.942715
_symmetry_space_group_name_H-M "P -6 C 2"
_symmetry_group_IT_number 188
_symmetry_cell_setting 'hexagonal'
loop_
_space_group_symop_operation_xyz
x,y,z
-x+y,-x,1/2-z
-y,x-y,z
x,y,1/2-z
-x+y,-x,z
-y,x-y,1/2-z
-y,-x,-z
-x+y,y,-z
x,x-y,-z
-x+y,y,1/2+z
x,x-y,1/2+z
-y,-x,1/2+z
loop_
_atom_site_type_symbol
_atom_site_label
_atom_site_fract_x
_atom_site_fract_y
_atom_site_fract_z
Si Si1 0.591991 0.736169 0.934161
Si Si2 0.453540 0.666170 0.065338
Si Si3 0.940403 0.529597 0.064180
Si Si4 0.814662 0.520850 0.080905
Si Si5 0.892477 0.218846 0.577309
Si Si6 0.007513 0.669778 0.566996
O O1 0.585071 0.735630 0.750000
O O2 0.613027 0.806514 0.000000
O O3 0.524055 0.683258 0.007639
O O4 0.647100 0.720681 0.984891
O O5 0.451653 0.666662 0.250000
O O6 0.404082 0.595919 0.000000
O O7 0.434479 0.717240 0.000000
O O8 0.943088 0.533663 0.250000
O O9 0.867188 0.505593 0.002302
O O10 0.963260 0.481630 0.000000
O O11 0.988493 0.599548 0.997009
O O12 0.799211 0.489723 0.250000
O O13 0.846624 0.597367 0.088789
O O14 0.744825 0.489650 0.000000
O O15 0.914419 0.211962 0.750000
O O16 0.852033 0.147968 0.500000
O O17 0.954888 0.264238 0.474437
O O18 0.016432 0.671205 0.750000
#
# Coordination Sequence:
#
# PCOD8327385 Si02
#       6
#    12  12  12  12  12  12
#     4  11  22  38  55  73  96 126 163 203 245 299
#     4  11  21  35  52  72  93 118 154 202 257 311
#     4  10  20  33  47  68  94 122 156 200 248 298
#     4   8  15  26  42  62  85 111 144 180 221 271
#     4   9  16  28  46  71  98 124 152 186 223 266
#     4  11  21  34  51  72  97 129 162 197 240 289
#
# _framework density 16.846271999999999
#
# number of rings (size 3 to 8) (size 9 to 14) (size 15 to 20)
#    0.000    2.000    0.000    7.667    0.000    5.333 
#    0.000    3.333    0.000    0.333    0.000    0.000 
#    0.000    0.000    0.000    0.500    0.000    7.000 
#
# Total GULP energy -892611.654197 kJ/mol
# GULP energy per Si atom -12397.384086 kJ/mol
# Density = 1.680793 g / cm^3
# Si number density = 16.846272 Si / 1000 Ang^3
#
#
#
# Elastic Constant Matrix: (Units=GPa)
#
#
# Indices 1 2 3 4 5 6 
#
# 1 77.9986 46.4054 33.5561 0.0018 0.0000 0.0000
# 2 46.4054 77.9986 33.5561 -0.0018 0.0000 0.0000
# 3 33.5561 33.5561 132.0906 0.0000 0.0000 0.0000
# 4 0.0018 -0.0018 0.0000 25.7170 0.0000 0.0000
# 5 0.0000 0.0000 0.0000 0.0000 25.7170 0.0018
# 6 0.0000 0.0000 0.0000 0.0000 0.0018 15.7966
#
#
#
# Elastic Compliance Matrix: (Units=1/GPa)
#
#
# Indices 1 2 3 4 5 6 
#
# 1 0.020484 -0.011169 -0.002366 -0.000002 0.000000 0.000000
# 2 -0.011169 0.020484 -0.002366 0.000002 0.000000 0.000000
# 3 -0.002366 -0.002366 0.008773 0.000000 0.000000 0.000000
# 4 -0.000002 0.000002 0.000000 0.038885 0.000000 0.000000
# 5 0.000000 0.000000 0.000000 0.000000 0.038885 -0.000004
# 6 0.000000 0.000000 0.000000 0.000000 -0.000004 0.063305
#
#
# Mechanical properties :
#
#
# Convention : Reuss Voigt Hill
#
# Bulk Modulus (GPa) = 55.74987 57.23590 56.49288
# Shear Modulus (GPa) = 21.87262 25.08415 23.47839
#
# Velocity S-wave (km/s) = 3.60719 3.86295 3.73726
# Velocity P-wave (km/s) = 7.10734 7.34477 7.22703
#
# Compressibility (1/GPa) = 0.01793726
#
# Stress axis : x y z
#
# Youngs Moduli (GPa) = 48.81945 48.81945 113.98815
#
# Poissons Ratio (x) = 0.54525 0.26973
# Poissons Ratio (y) = 0.54525 0.26973
# Poissons Ratio (z) = 0.11552 0.11552
#
# Static dielectric constant tensor:
#      x y z
#    x 3.019830 0.000000 0.000000 
#    y 0.000000 3.019830 0.000000 
#    z 0.000000 0.000000 3.379660 
# 
# 
# High freq. dielectric constant tensor:
#      x y z
#    x 1.622370 0.000000 0.000000 
#    y 0.000000 1.622370 0.000000 
#    z 0.000000 0.000000 1.669580 
# 
# From -- ./inp_files/988.got.cif
#   From: 2010.03.12/outbox.cif.g09.slc.cpg/sg188_1_cif.got.tgz:988.got - 2010.04.01 12:01:06.
