data_PCOD8327150
_publ_section_title
;
Structure prediction by ZEFSAII (Michael W. Deem and Ramdas Pophale) SiO2 
 PCOD8327150
Probable space group: P -6 M 2
;
_chemical_formula_sum "Si O2"
_cell_formula_units_Z 72
_cell_length_a 12.600159
_cell_length_b 12.600159
_cell_length_c 30.449085
_cell_angle_alpha 90.000000
_cell_angle_beta 90.000000
_cell_angle_gamma 120.000000
_cell_volume 4186.556235
_symmetry_space_group_name_H-M "P -6 M 2"
_symmetry_group_IT_number 187
_symmetry_cell_setting 'hexagonal'
loop_
_space_group_symop_operation_xyz
x,y,z
-x+y,-x,-z
-y,x-y,z
x,y,-z
-x+y,-x,z
-y,x-y,-z
-y,-x,-z
-x+y,y,-z
x,x-y,-z
-x+y,y,z
x,x-y,z
-y,-x,z
loop_
_atom_site_type_symbol
_atom_site_label
_atom_site_fract_x
_atom_site_fract_y
_atom_site_fract_z
Si Si1 0.417692 0.086056 0.000000
Si Si2 0.248047 0.999582 0.081991
Si Si3 0.580392 0.667813 0.836119
Si Si4 0.755223 0.999738 0.241095
Si Si5 0.665144 0.085129 0.500000
Si Si6 0.333695 0.913990 0.581321
Si Si7 0.000220 0.756358 0.658884
O O1 0.339248 0.017980 0.957380
O O2 0.537483 0.074965 0.000000
O O3 0.456441 0.228221 0.000000
O O4 0.225437 0.112719 0.087081
O O5 0.307408 0.986362 0.126485
O O6 0.119136 0.880865 0.071575
O O7 0.538990 0.769495 0.837009
O O8 0.463352 0.536649 0.843899
O O9 0.640956 0.667923 0.789517
O O10 0.793336 0.896668 0.233590
O O11 0.714241 0.999919 0.291168
O O12 0.871193 0.128808 0.228197
O O13 0.795834 0.204167 0.500000
O O14 0.562081 0.124161 0.500000
O O15 0.655181 0.007891 0.457078
O O16 0.441265 0.882530 0.583244
O O17 0.209733 0.790268 0.571198
O O18 0.329901 0.973079 0.627683
O O19 0.870770 0.741540 0.645801
O O20 0.101855 0.898146 0.652520
#
# Coordination Sequence:
#
# PCOD8327150 Si02
#       7
#     6  12  12  12   6  12  12
#     4  10  20  34  52  74 102 136 170 200 232 278
#     4  10  20  34  54  78 102 128 160 203 251 294
#     4  10  20  33  49  70  98 132 167 202 242 290
#     4   9  17  30  50  74  98 125 159 202 249 294
#     4  10  20  34  52  72  94 122 158 200 242 284
#     4  10  20  33  50  72  99 131 164 197 234 280
#     4   9  17  30  49  73  99 127 160 200 247 293
#
# _framework density 17.197906
#
# number of rings (size 3 to 8) (size 9 to 14) (size 15 to 20)
#    0.000    2.333    0.000    3.000    0.000    2.000 
#    0.000    3.333    0.000   10.667    0.000    0.000 
#    0.000    0.000    0.000    0.000    0.000    0.000 
#
# Total GULP energy -892995.196981 kJ/mol
# GULP energy per Si atom -12402.711069 kJ/mol
# Density = 1.715876 g / cm^3
# Si number density = 17.197906 Si / 1000 Ang^3
#
#
#
# Elastic Constant Matrix: (Units=GPa)
#
#
# Indices 1 2 3 4 5 6 
#
# 1 112.2057 69.0784 60.0260 0.0000 0.0005 0.0000
# 2 69.0784 112.2057 60.0260 0.0000 -0.0005 0.0000
# 3 60.0260 60.0260 111.0882 0.0000 0.0000 0.0000
# 4 0.0000 0.0000 0.0000 20.6126 0.0000 -0.0005
# 5 0.0005 -0.0005 0.0000 0.0000 20.6126 0.0000
# 6 0.0000 0.0000 0.0000 -0.0005 0.0000 21.5636
#
#
#
# Elastic Compliance Matrix: (Units=1/GPa)
#
#
# Indices 1 2 3 4 5 6 
#
# 1 0.015889 -0.007299 -0.004642 0.000000 -0.000001 0.000000
# 2 -0.007299 0.015889 -0.004642 0.000000 0.000001 0.000000
# 3 -0.004642 -0.004642 0.014018 0.000000 0.000000 0.000000
# 4 0.000000 0.000000 0.000000 0.048514 0.000000 0.000001
# 5 -0.000001 0.000001 0.000000 0.000000 0.048514 0.000000
# 6 0.000000 0.000000 0.000000 0.000001 0.000000 0.046374
#
#
# Mechanical properties :
#
#
# Convention : Reuss Voigt Hill
#
# Bulk Modulus (GPa) = 79.16603 79.30673 79.23638
# Shear Modulus (GPa) = 22.06809 22.31572 22.19190
#
# Velocity S-wave (km/s) = 3.58604 3.60611 3.59609
# Velocity P-wave (km/s) = 7.95478 7.97201 7.96340
#
# Compressibility (1/GPa) = 0.01263168
#
# Stress axis : x y z
#
# Youngs Moduli (GPa) = 62.93828 62.93828 71.33713
#
# Poissons Ratio (x) = 0.45936 0.33112
# Poissons Ratio (y) = 0.45936 0.33112
# Poissons Ratio (z) = 0.29213 0.29213
#
# Static dielectric constant tensor:
#      x y z
#    x 3.105450 0.000000 0.000000 
#    y 0.000000 3.105450 0.000000 
#    z 0.000000 0.000000 3.461480 
# 
# 
# High freq. dielectric constant tensor:
#      x y z
#    x 1.660100 0.000000 0.000000 
#    y 0.000000 1.660100 0.000000 
#    z 0.000000 0.000000 1.680030 
# 
# From -- ./inp_files/4529.got.cif
#   From: 2010.03.12/outbox.cif.g09.slc.cpg/sg187_3_cif.got.tgz:4529.got - 2010.04.01 11:58:23.
