data_PCOD8327973
_publ_section_title
;
Structure prediction by ZEFSAII (Michael W. Deem and Ramdas Pophale) SiO2 
 PCOD8327973
Probable space group: P -6 2 C
;
_chemical_formula_sum "Si O2"
_cell_formula_units_Z 72
_cell_length_a 23.923567
_cell_length_b 23.923567
_cell_length_c 8.757998
_cell_angle_alpha 90.000000
_cell_angle_beta 90.000000
_cell_angle_gamma 120.000000
_cell_volume 4340.975554
_symmetry_space_group_name_H-M "P -6 2 C"
_symmetry_group_IT_number 190
_symmetry_cell_setting 'hexagonal'
loop_
_space_group_symop_operation_xyz
x,y,z
-x+y,-x,1/2-z
-y,x-y,z
x,y,1/2-z
-x+y,-x,z
-y,x-y,1/2-z
x-y,-y,-z
-x,-x+y,-z
y,x,-z
y,x,1/2+z
x-y,-y,1/2+z
-x,-x+y,1/2+z
loop_
_atom_site_type_symbol
_atom_site_label
_atom_site_fract_x
_atom_site_fract_y
_atom_site_fract_z
Si Si1 0.068624 0.135562 0.069131
Si Si2 0.066831 0.260073 0.071570
Si Si3 0.525575 0.265467 0.570929
Si Si4 0.930583 0.402811 0.430719
Si Si5 0.860355 0.264442 0.929531
Si Si6 0.591503 0.185573 0.567986
O O1 0.066022 0.127603 0.250000
O O2 0.086196 0.207540 0.016864
O O3 0.123967 0.123967 0.000000
O O4 0.000000 0.083272 0.000000
O O5 0.055420 0.253911 0.250000
O O6 0.122325 0.331841 0.024729
O O7 0.000000 0.246854 0.000000
O O8 0.533414 0.275269 0.750000
O O9 0.451634 0.214446 0.524570
O O10 0.571000 0.237574 0.515290
O O11 0.548013 0.336149 0.502321
O O12 0.934638 0.406569 0.250000
O O13 0.907007 0.329909 0.482304
O O14 0.882662 0.427203 0.489834
O O15 0.000000 0.450617 0.500000
O O16 0.870382 0.280903 0.750000
O O17 0.585758 0.175857 0.750000
#
# Coordination Sequence:
#
# PCOD8327973 Si02
#       6
#    12  12  12  12  12  12
#     4  10  19  31  46  66  90 118 148 182 221 265
#     4   9  18  30  46  67  92 119 150 184 222 265
#     4   8  14  25  46  70  92 118 151 184 217 261
#     4  11  21  32  46  67  93 123 155 192 233 274
#     4   9  17  31  49  71  95 121 151 185 224 273
#     4   9  16  29  48  71  95 123 155 187 223 270
#
# _framework density 16.586133
#
# number of rings (size 3 to 8) (size 9 to 14) (size 15 to 20)
#    0.000    2.667    0.000    4.000    0.000    4.000 
#    0.000    3.333    0.000    1.000    0.000    2.333 
#    0.000    0.000    0.000    0.000    0.000    0.000 
#
# Total GULP energy -892554.807976 kJ/mol
# GULP energy per Si atom -12396.594555 kJ/mol
# Density = 1.654838 g / cm^3
# Si number density = 16.586133 Si / 1000 Ang^3
#
#
#
# Elastic Constant Matrix: (Units=GPa)
#
#
# Indices 1 2 3 4 5 6 
#
# 1 131.5763 82.1617 36.9295 0.0000 0.0000 0.0000
# 2 82.1617 131.5763 36.9295 0.0000 0.0000 0.0000
# 3 36.9295 36.9295 57.5693 0.0000 0.0000 0.0000
# 4 0.0000 0.0000 0.0000 18.8904 0.0000 0.0000
# 5 0.0000 0.0000 0.0000 0.0000 18.8904 0.0000
# 6 0.0000 0.0000 0.0000 0.0000 0.0000 24.7073
#
#
#
# Elastic Compliance Matrix: (Units=1/GPa)
#
#
# Indices 1 2 3 4 5 6 
#
# 1 0.013124 -0.007113 -0.003856 0.000000 0.000000 0.000000
# 2 -0.007113 0.013124 -0.003856 0.000000 0.000000 0.000000
# 3 -0.003856 -0.003856 0.022317 0.000000 0.000000 0.000000
# 4 0.000000 0.000000 0.000000 0.052937 0.000000 0.000000
# 5 0.000000 0.000000 0.000000 0.000000 0.052937 0.000000
# 6 0.000000 0.000000 0.000000 0.000000 0.000000 0.040474
#
#
# Mechanical properties :
#
#
# Convention : Reuss Voigt Hill
#
# Bulk Modulus (GPa) = 52.86623 70.30705 61.58664
# Shear Modulus (GPa) = 21.65737 23.47770 22.56753
#
# Velocity S-wave (km/s) = 3.61744 3.76640 3.69267
# Velocity P-wave (km/s) = 7.02786 7.83552 7.44265
#
# Compressibility (1/GPa) = 0.01891567
#
# Stress axis : x y z
#
# Youngs Moduli (GPa) = 76.19625 76.19625 44.80796
#
# Poissons Ratio (x) = 0.54198 0.17278
# Poissons Ratio (y) = 0.54198 0.17278
# Poissons Ratio (z) = 0.29381 0.29381
#
# Static dielectric constant tensor:
#      x y z
#    x 3.352500 0.000000 0.000000 
#    y 0.000000 3.352500 0.000000 
#    z 0.000000 0.000000 2.966120 
# 
# 
# High freq. dielectric constant tensor:
#      x y z
#    x 1.631620 0.000000 0.000000 
#    y 0.000000 1.631620 0.000000 
#    z 0.000000 0.000000 1.625240 
# 
# From -- ./inp_files/1194.got.cif
#   From: 2010.06.25/outbox.cif.g09.slc.cpg/sg190_1_cif.got.tgz:1194.got - 2010.06.28 13:08:06.
