data_PCOD8327057
_publ_section_title
;
Structure prediction by ZEFSAII (Michael W. Deem and Ramdas Pophale) SiO2 
 PCOD8327057
Probable space group: P -6 M 2
;
_chemical_formula_sum "Si O2"
_cell_formula_units_Z 66
_cell_length_a 12.777724
_cell_length_b 12.777724
_cell_length_c 27.804815
_cell_angle_alpha 90.000000
_cell_angle_beta 90.000000
_cell_angle_gamma 120.000000
_cell_volume 3931.494276
_symmetry_space_group_name_H-M "P -6 M 2"
_symmetry_group_IT_number 187
_symmetry_cell_setting 'hexagonal'
loop_
_space_group_symop_operation_xyz
x,y,z
-x+y,-x,-z
-y,x-y,z
x,y,-z
-x+y,-x,z
-y,x-y,-z
-y,-x,-z
-x+y,y,-z
x,x-y,-z
-x+y,y,z
x,x-y,z
-y,-x,z
loop_
_atom_site_type_symbol
_atom_site_label
_atom_site_fract_x
_atom_site_fract_y
_atom_site_fract_z
Si Si1 0.425558 0.333634 0.829204
Si Si2 0.333435 0.421828 0.362823
Si Si3 0.421648 0.335347 0.000000
Si Si4 0.425975 0.333196 0.280661
Si Si5 0.577822 0.665147 0.088001
Si Si6 0.758233 0.758473 0.554598
O O1 0.411752 0.205876 0.844019
O O2 0.565110 0.434891 0.837485
O O3 0.385921 0.332706 0.774242
O O4 0.339108 0.362628 0.861507
O O5 0.218542 0.437083 0.358443
O O6 0.447641 0.552360 0.367826
O O7 0.337389 0.353843 0.314872
O O8 0.330181 0.348321 0.410164
O O9 0.354114 0.347008 0.953599
O O10 0.562314 0.437687 0.000000
O O11 0.411474 0.205737 0.000000
O O12 0.415015 0.207508 0.295017
O O13 0.564073 0.435928 0.288743
O O14 0.588464 0.794232 0.081965
O O15 0.437166 0.562835 0.085495
O O16 0.714875 0.716945 0.500000
O O17 0.874620 0.749239 0.567483
O O18 0.792769 0.896385 0.562668
#
# Coordination Sequence:
#
# PCOD8327057 Si02
#       6
#    12  12   6  12  12  12
#     4   9  17  30  50  74  97 121 152 195 244 288
#     4  10  20  32  46  66  94 128 162 193 227 271
#     4  10  20  34  54  78 100 122 152 196 246 288
#     4   9  17  30  49  72  95 120 153 195 243 289
#     4  10  20  33  50  72  99 131 164 196 230 273
#     4   9  17  30  49  71  92 115 147 190 237 280
#
# _framework density 16.787510999999999
#
# number of rings (size 3 to 8) (size 9 to 14) (size 15 to 20)
#    0.000    2.545    0.000    2.364    0.000    3.273 
#    0.000    2.727    0.000    9.091    0.000    0.000 
#    0.000    0.000    0.000    0.000    0.000    0.000 
#
# Total GULP energy -818484.179929 kJ/mol
# GULP energy per Si atom -12401.275453 kJ/mol
# Density = 1.674930 g / cm^3
# Si number density = 16.787511 Si / 1000 Ang^3
#
#
#
# Elastic Constant Matrix: (Units=GPa)
#
#
# Indices 1 2 3 4 5 6 
#
# 1 106.3901 63.8146 67.4972 0.0000 -0.0002 0.0000
# 2 63.8146 106.3901 67.4972 0.0000 0.0002 0.0000
# 3 67.4972 67.4972 116.0292 0.0000 0.0000 0.0000
# 4 0.0000 0.0000 0.0000 24.8471 0.0000 0.0002
# 5 -0.0002 0.0002 0.0000 0.0000 24.8471 0.0000
# 6 0.0000 0.0000 0.0000 0.0002 0.0000 21.2877
#
#
#
# Elastic Compliance Matrix: (Units=1/GPa)
#
#
# Indices 1 2 3 4 5 6 
#
# 1 0.017198 -0.006290 -0.006346 0.000000 0.000000 0.000000
# 2 -0.006290 0.017198 -0.006346 0.000000 0.000000 0.000000
# 3 -0.006346 -0.006346 0.016001 0.000000 0.000000 0.000000
# 4 0.000000 0.000000 0.000000 0.040246 0.000000 0.000000
# 5 0.000000 0.000000 0.000000 0.000000 0.040246 0.000000
# 6 0.000000 0.000000 0.000000 0.000000 0.000000 0.046975
#
#
# Mechanical properties :
#
#
# Convention : Reuss Voigt Hill
#
# Bulk Modulus (GPa) = 80.41601 80.71416 80.56509
# Shear Modulus (GPa) = 22.73019 22.86306 22.79663
#
# Velocity S-wave (km/s) = 3.68366 3.69441 3.68904
# Velocity P-wave (km/s) = 8.13011 8.14754 8.13883
#
# Compressibility (1/GPa) = 0.01243533
#
# Stress axis : x y z
#
# Youngs Moduli (GPa) = 58.14655 58.14655 62.49507
#
# Poissons Ratio (x) = 0.36573 0.39657
# Poissons Ratio (y) = 0.36573 0.39657
# Poissons Ratio (z) = 0.36897 0.36897
#
# Static dielectric constant tensor:
#      x y z
#    x 3.025780 0.000000 0.000000 
#    y 0.000000 3.025780 0.000000 
#    z 0.000000 0.000000 3.396760 
# 
# 
# High freq. dielectric constant tensor:
#      x y z
#    x 1.638720 0.000000 0.000000 
#    y 0.000000 1.638720 0.000000 
#    z 0.000000 0.000000 1.661910 
# 
# From -- ./inp_files/4457.got.cif
#   From: 2010.03.12/outbox.cif.g09.slc.cpg/sg187_3_cif.got.tgz:4457.got - 2010.04.01 11:58:23.
