data_PCOD8327361
_publ_section_title
;
Structure prediction by ZEFSAII (Michael W. Deem and Ramdas Pophale) SiO2 
 PCOD8327361
Probable space group: P -6 C 2
;
_chemical_formula_sum "Si O2"
_cell_formula_units_Z 54
_cell_length_a 19.267513
_cell_length_b 19.267513
_cell_length_c 9.035859
_cell_angle_alpha 90.000000
_cell_angle_beta 90.000000
_cell_angle_gamma 120.000000
_cell_volume 2905.035196
_symmetry_space_group_name_H-M "P -6 C 2"
_symmetry_group_IT_number 188
_symmetry_cell_setting 'hexagonal'
loop_
_space_group_symop_operation_xyz
x,y,z
-x+y,-x,1/2-z
-y,x-y,z
x,y,1/2-z
-x+y,-x,z
-y,x-y,1/2-z
-y,-x,-z
-x+y,y,-z
x,x-y,-z
-x+y,y,1/2+z
x,x-y,1/2+z
-y,-x,1/2+z
loop_
_atom_site_type_symbol
_atom_site_label
_atom_site_fract_x
_atom_site_fract_y
_atom_site_fract_z
Si Si1 0.702987 0.917371 0.421037
Si Si2 0.903399 0.661107 0.074553
Si Si3 0.556392 0.668931 0.411733
Si Si4 0.339203 0.758589 0.250000
Si Si5 0.937952 0.400097 0.077052
O O1 0.706142 0.904223 0.250000
O O2 0.744897 0.872449 0.500000
O O3 0.609320 0.873855 0.467916
O O4 0.747890 0.010460 0.464384
O O5 0.890074 0.648465 0.250000
O O6 0.840066 0.680131 0.000000
O O7 0.895576 0.581704 0.001584
O O8 0.599564 0.697369 0.250000
O O9 0.466670 0.656868 0.396746
O O10 0.552421 0.585826 0.452695
O O11 0.414764 0.743076 0.250000
O O12 0.916023 0.389220 0.250000
O O13 0.903004 0.451502 0.000000
#
# Coordination Sequence:
#
# PCOD8327361 Si02
#       5
#    12  12  12   6  12
#     4  10  20  35  57  85 110 141 187 231 277 333
#     4  10  21  38  60  87 115 149 179 227 288 342
#     4   8  17  34  51  75 101 146 190 237 292 310
#     4   8  16  34  54  70 100 148 200 246 296 334
#     4  10  19  34  55  82 113 146 192 237 276 334
#
# _framework density 18.588415999999999
#
# number of rings (size 3 to 8) (size 9 to 14) (size 15 to 20)
#    0.889    1.778    0.000    2.000    0.000    3.556 
#    8.000    0.000    0.000    3.556    0.000    3.111 
#    0.000    0.000    0.000    0.000    0.000    0.000 
#
# Total GULP energy -669226.852078 kJ/mol
# GULP energy per Si atom -12393.089853 kJ/mol
# Density = 1.854611 g / cm^3
# Si number density = 18.588416 Si / 1000 Ang^3
#
#
#
# Elastic Constant Matrix: (Units=GPa)
#
#
# Indices 1 2 3 4 5 6 
#
# 1 91.9938 56.0236 50.9235 0.0000 0.0000 0.0000
# 2 56.0236 91.9938 50.9235 0.0000 0.0000 0.0000
# 3 50.9235 50.9235 99.2364 0.0000 0.0000 0.0000
# 4 0.0000 0.0000 0.0000 30.9743 0.0000 0.0000
# 5 0.0000 0.0000 0.0000 0.0000 30.9743 0.0000
# 6 0.0000 0.0000 0.0000 0.0000 0.0000 17.9851
#
#
#
# Elastic Compliance Matrix: (Units=1/GPa)
#
#
# Indices 1 2 3 4 5 6 
#
# 1 0.019122 -0.008679 -0.005359 0.000000 0.000000 0.000000
# 2 -0.008679 0.019122 -0.005359 0.000000 0.000000 0.000000
# 3 -0.005359 -0.005359 0.015577 0.000000 0.000000 0.000000
# 4 0.000000 0.000000 0.000000 0.032285 0.000000 0.000000
# 5 0.000000 0.000000 0.000000 0.000000 0.032285 0.000000
# 6 0.000000 0.000000 0.000000 0.000000 0.000000 0.055602
#
#
# Mechanical properties :
#
#
# Convention : Reuss Voigt Hill
#
# Bulk Modulus (GPa) = 66.54455 66.55169 66.54812
# Shear Modulus (GPa) = 22.95733 24.34362 23.65048
#
# Velocity S-wave (km/s) = 3.51812 3.62278 3.57083
# Velocity P-wave (km/s) = 7.23737 7.30616 7.27184
#
# Compressibility (1/GPa) = 0.01502753
#
# Stress axis : x y z
#
# Youngs Moduli (GPa) = 52.29553 52.29553 64.19727
#
# Poissons Ratio (x) = 0.45386 0.34404
# Poissons Ratio (y) = 0.45386 0.34404
# Poissons Ratio (z) = 0.28025 0.28025
#
# Static dielectric constant tensor:
#      x y z
#    x 3.215160 0.000000 0.000000 
#    y 0.000000 3.215160 0.000000 
#    z 0.000000 0.000000 3.421950 
# 
# 
# High freq. dielectric constant tensor:
#      x y z
#    x 1.698720 0.000000 0.000000 
#    y 0.000000 1.698720 0.000000 
#    z 0.000000 0.000000 1.731000 
# 
# From -- ./inp_files/581.got.cif
#   From: 2010.03.12/outbox.cif.g09.slc.cpg/sg188_1_cif.got.tgz:581.got - 2010.04.01 12:01:06.
