data_PCOD8327611
_publ_section_title
;
Structure prediction by ZEFSAII (Michael W. Deem and Ramdas Pophale) SiO2 
 PCOD8327611
Probable space group: P -6 2 M
;
_chemical_formula_sum "Si O2"
_cell_formula_units_Z 96
_cell_length_a 13.717430
_cell_length_b 13.717430
_cell_length_c 31.925931
_cell_angle_alpha 90.000000
_cell_angle_beta 90.000000
_cell_angle_gamma 120.000000
_cell_volume 5202.591268
_symmetry_space_group_name_H-M "P -6 2 M"
_symmetry_group_IT_number 189
_symmetry_cell_setting 'hexagonal'
loop_
_space_group_symop_operation_xyz
x,y,z
-x+y,-x,-z
-y,x-y,z
x,y,-z
-x+y,-x,z
-y,x-y,-z
x-y,-y,-z
-x,-x+y,-z
y,x,-z
y,x,z
x-y,-y,z
-x,-x+y,z
loop_
_atom_site_type_symbol
_atom_site_label
_atom_site_fract_x
_atom_site_fract_y
_atom_site_fract_z
Si Si1 0.128020 0.661504 0.586491
Si Si2 0.661898 0.873279 0.116570
Si Si3 0.337169 0.464694 0.683521
Si Si4 0.564532 0.695434 0.183394
Si Si5 0.414003 0.128971 0.954321
Si Si6 0.326368 0.871616 0.549100
Si Si7 0.867832 0.324757 0.276821
Si Si8 0.872175 0.433384 0.110819
O O1 0.143360 0.643948 0.635111
O O2 0.210169 0.790176 0.572882
O O3 0.160518 0.581356 0.560693
O O4 0.000000 0.630230 0.576684
O O5 0.655522 0.810821 0.160117
O O6 0.678401 0.815840 0.075139
O O7 0.544108 0.866139 0.107312
O O8 0.763929 0.000000 0.120733
O O9 0.364469 0.364469 0.692428
O O10 0.420934 0.574475 0.710205
O O11 0.207577 0.422017 0.695107
O O12 0.614886 0.614886 0.190357
O O13 0.534055 0.715513 0.229848
O O14 0.452292 0.634973 0.154026
O O15 0.533996 0.183573 0.929230
O O16 0.370453 0.000000 0.963493
O O17 0.430098 0.188876 0.000000
O O18 0.304000 0.856067 0.500000
O O19 0.368204 0.000000 0.563137
O O20 0.000000 0.362979 0.282242
O O21 0.000000 0.458924 0.112139
#
# Coordination Sequence:
#
# PCOD8327611 Si02
#       8
#    12  12  12  12  12  12  12  12
#     4  10  20  34  52  75 108 143 176 222 273 319
#     4  10  19  31  52  76  95 121 161 202 234 280
#     4  10  21  35  53  79 106 140 183 221 266 322
#     4   9  19  35  51  69  99 132 158 191 246 299
#     4   9  18  34  51  66  95 131 154 185 237 290
#     4  10  20  33  53  80 107 142 184 222 266 321
#     4  10  21  36  54  77 108 141 176 222 270 317
#     4   8  16  31  47  66  91 121 155 187 230 281
#
# _framework density 18.452342999999999
#
# number of rings (size 3 to 8) (size 9 to 14) (size 15 to 20)
#    0.000    2.500    0.000    2.750    1.750    3.500 
#    6.000    1.250    0.000    2.500    0.000    0.000 
#    0.000    0.000    0.000    0.000    0.000    0.000 
#
# Total GULP energy -1189714.325951 kJ/mol
# GULP energy per Si atom -12392.857562 kJ/mol
# Density = 1.841034 g / cm^3
# Si number density = 18.452343 Si / 1000 Ang^3
#
#
#
# Elastic Constant Matrix: (Units=GPa)
#
#
# Indices 1 2 3 4 5 6 
#
# 1 73.7279 19.5676 27.8534 0.0000 0.0000 0.0000
# 2 19.5676 73.7279 27.8534 0.0000 0.0000 0.0000
# 3 27.8534 27.8534 100.5491 0.0000 0.0000 0.0000
# 4 0.0000 0.0000 0.0000 18.4833 0.0000 0.0000
# 5 0.0000 0.0000 0.0000 0.0000 18.4833 0.0000
# 6 0.0000 0.0000 0.0000 0.0000 0.0000 27.0801
#
#
#
# Elastic Compliance Matrix: (Units=1/GPa)
#
#
# Indices 1 2 3 4 5 6 
#
# 1 0.015653 -0.002810 -0.003558 0.000000 0.000000 0.000000
# 2 -0.002810 0.015653 -0.003558 0.000000 0.000000 0.000000
# 3 -0.003558 -0.003558 0.011916 0.000000 0.000000 0.000000
# 4 0.000000 0.000000 0.000000 0.054103 0.000000 0.000000
# 5 0.000000 0.000000 0.000000 0.000000 0.054103 0.000000
# 6 0.000000 0.000000 0.000000 0.000000 0.000000 0.036927
#
#
# Mechanical properties :
#
#
# Convention : Reuss Voigt Hill
#
# Bulk Modulus (GPa) = 42.78693 44.28375 43.53534
# Shear Modulus (GPa) = 23.14831 24.32470 23.73650
#
# Velocity S-wave (km/s) = 3.54572 3.63470 3.59049
# Velocity P-wave (km/s) = 6.32464 6.45491 6.39010
#
# Compressibility (1/GPa) = 0.02337162
#
# Stress axis : x y z
#
# Youngs Moduli (GPa) = 63.88428 63.88428 83.91783
#
# Poissons Ratio (x) = 0.17954 0.29855
# Poissons Ratio (y) = 0.17954 0.29855
# Poissons Ratio (z) = 0.22728 0.22728
#
# Static dielectric constant tensor:
#      x y z
#    x 3.306610 0.000000 0.000000 
#    y 0.000000 3.306610 0.000000 
#    z 0.000000 0.000000 3.676130 
# 
# 
# High freq. dielectric constant tensor:
#      x y z
#    x 1.696540 0.000000 0.000000 
#    y 0.000000 1.696540 0.000000 
#    z 0.000000 0.000000 1.730950 
# 
# From -- ./inp_files/3753.got.cif
#   From: 2010.03.12/outbox.cif.g09.slc.cpg/sg189_2_cif.got.tgz:3753.got - 2010.04.01 12:03:36.
