data_PCOD8327653
_publ_section_title
;
Structure prediction by ZEFSAII (Michael W. Deem and Ramdas Pophale) SiO2 
 PCOD8327653
Probable space group: P -6 2 M
;
_chemical_formula_sum "Si O2"
_cell_formula_units_Z 66
_cell_length_a 22.484843
_cell_length_b 22.484843
_cell_length_c 7.994444
_cell_angle_alpha 90.000000
_cell_angle_beta 90.000000
_cell_angle_gamma 120.000000
_cell_volume 3500.246381
_symmetry_space_group_name_H-M "P -6 2 M"
_symmetry_group_IT_number 189
_symmetry_cell_setting 'hexagonal'
loop_
_space_group_symop_operation_xyz
x,y,z
-x+y,-x,-z
-y,x-y,z
x,y,-z
-x+y,-x,z
-y,x-y,-z
x-y,-y,-z
-x,-x+y,-z
y,x,-z
y,x,z
x-y,-y,z
-x,-x+y,z
loop_
_atom_site_type_symbol
_atom_site_label
_atom_site_fract_x
_atom_site_fract_y
_atom_site_fract_z
Si Si1 0.760826 0.922024 0.813003
Si Si2 0.187225 0.568823 0.694671
Si Si3 0.342599 0.922670 0.301219
Si Si4 0.079613 0.919761 0.500000
Si Si5 0.234560 0.714788 0.191926
Si Si6 0.816461 0.191915 0.307593
O O1 0.795915 0.899817 0.669970
O O2 0.679436 0.871388 0.802296
O O3 0.777986 0.000000 0.780417
O O4 0.785907 0.915940 0.000000
O O5 0.180988 0.579738 0.500000
O O6 0.120304 0.499039 0.760286
O O7 0.191134 0.632694 0.792641
O O8 0.256224 0.565742 0.727491
O O9 0.344596 0.925154 0.500000
O O10 0.263056 0.882211 0.243149
O O11 0.381959 0.000000 0.225806
O O12 0.000000 0.895892 0.500000
O O13 0.122048 0.000000 0.500000
O O14 0.194760 0.746959 0.288560
O O15 0.242593 0.736942 0.000000
O O16 0.826065 0.178602 0.500000
#
# Coordination Sequence:
#
# PCOD8327653 Si02
#       6
#    12  12  12   6  12  12
#     4  10  21  38  59  84 116 151 189 235 283 333
#     4  10  19  33  52  74 101 135 178 224 275 334
#     4   8  16  31  52  77 105 136 171 216 270 327
#     4  10  21  38  60  86 116 150 186 226 276 334
#     4  11  21  33  51  75 106 140 180 230 283 337
#     4  10  19  34  56  83 109 143 185 229 277 337
#
# _framework density 18.855816000000001
#
# number of rings (size 3 to 8) (size 9 to 14) (size 15 to 20)
#    0.000    2.182    0.909    4.273    0.000    1.091 
#    0.000    0.909    0.000   23.455    0.000    0.000 
#    0.000    0.000    0.000    0.000    0.000    0.000 
#
# Total GULP energy -818344.350858 kJ/mol
# GULP energy per Si atom -12399.156831 kJ/mol
# Density = 1.881290 g / cm^3
# Si number density = 18.855816 Si / 1000 Ang^3
#
#
#
# Elastic Constant Matrix: (Units=GPa)
#
#
# Indices 1 2 3 4 5 6 
#
# 1 104.8312 65.8486 25.4952 0.0000 0.0000 0.0000
# 2 65.8486 104.8312 25.4952 0.0000 0.0000 0.0000
# 3 25.4952 25.4952 82.8858 0.0000 0.0000 0.0000
# 4 0.0000 0.0000 0.0000 15.5791 0.0000 0.0000
# 5 0.0000 0.0000 0.0000 0.0000 15.5791 0.0000
# 6 0.0000 0.0000 0.0000 0.0000 0.0000 19.4913
#
#
#
# Elastic Compliance Matrix: (Units=1/GPa)
#
#
# Indices 1 2 3 4 5 6 
#
# 1 0.016052 -0.009600 -0.001985 0.000000 0.000000 0.000000
# 2 -0.009600 0.016052 -0.001985 0.000000 0.000000 0.000000
# 3 -0.001985 -0.001985 0.013286 0.000000 0.000000 0.000000
# 4 0.000000 0.000000 0.000000 0.064188 0.000000 0.000000
# 5 0.000000 0.000000 0.000000 0.000000 0.064188 0.000000
# 6 0.000000 0.000000 0.000000 0.000000 0.000000 0.051305
#
#
# Mechanical properties :
#
#
# Convention : Reuss Voigt Hill
#
# Bulk Modulus (GPa) = 54.79119 58.46959 56.63039
# Shear Modulus (GPa) = 19.35778 21.84388 20.60083
#
# Velocity S-wave (km/s) = 3.20757 3.40732 3.30895
# Velocity P-wave (km/s) = 6.54516 6.82319 6.68562
#
# Compressibility (1/GPa) = 0.01825111
#
# Stress axis : x y z
#
# Youngs Moduli (GPa) = 62.29702 62.29702 75.26918
#
# Poissons Ratio (x) = 0.59807 0.14937
# Poissons Ratio (y) = 0.59807 0.14937
# Poissons Ratio (z) = 0.12363 0.12363
#
# Static dielectric constant tensor:
#      x y z
#    x 3.455450 0.000000 0.000000 
#    y 0.000000 3.455450 0.000000 
#    z 0.000000 0.000000 3.466500 
# 
# 
# High freq. dielectric constant tensor:
#      x y z
#    x 1.722240 0.000000 0.000000 
#    y 0.000000 1.722240 0.000000 
#    z 0.000000 0.000000 1.734360 
# 
# From -- ./inp_files/1055.got.cif
#   From: 2010.03.12/outbox.cif.g09.slc.cpg/sg189_1_cif.got.tgz:1055.got - 2010.04.01 12:03:36.
