data_PCOD8327586
_publ_section_title
;
Structure prediction by ZEFSAII (Michael W. Deem and Ramdas Pophale) SiO2 
 PCOD8327586
Probable space group: P -6 2 M
;
_chemical_formula_sum "Si O2"
_cell_formula_units_Z 66
_cell_length_a 23.315956
_cell_length_b 23.315956
_cell_length_c 7.875504
_cell_angle_alpha 90.000000
_cell_angle_beta 90.000000
_cell_angle_gamma 120.000000
_cell_volume 3707.792676
_symmetry_space_group_name_H-M "P -6 2 M"
_symmetry_group_IT_number 189
_symmetry_cell_setting 'hexagonal'
loop_
_space_group_symop_operation_xyz
x,y,z
-x+y,-x,-z
-y,x-y,z
x,y,-z
-x+y,-x,z
-y,x-y,-z
x-y,-y,-z
-x,-x+y,-z
y,x,-z
y,x,z
x-y,-y,z
-x,-x+y,z
loop_
_atom_site_type_symbol
_atom_site_label
_atom_site_fract_x
_atom_site_fract_y
_atom_site_fract_z
Si Si1 0.610912 0.537294 0.300647
Si Si2 0.241178 0.077059 0.198170
Si Si3 0.143969 0.389191 0.806082
Si Si4 0.923026 0.078404 0.500000
Si Si5 0.739449 0.262304 0.805991
Si Si6 0.807869 0.404836 0.693354
O O1 0.624790 0.540489 0.500000
O O2 0.553674 0.553674 0.254301
O O3 0.678595 0.591497 0.213916
O O4 0.587425 0.463530 0.232846
O O5 0.316531 0.119379 0.270754
O O6 0.198194 0.094313 0.326384
O O7 0.219212 0.000000 0.213132
O O8 0.233457 0.093514 0.000000
O O9 0.213060 0.448958 0.727066
O O10 0.156369 0.381381 0.000000
O O11 0.000000 0.099946 0.500000
O O12 0.879447 0.000000 0.500000
O O13 0.750769 0.328083 0.709412
O O14 0.662523 0.207629 0.795974
O O15 0.760640 0.282371 0.000000
O O16 0.815332 0.427498 0.500000
#
# Coordination Sequence:
#
# PCOD8327586 Si02
#       6
#    12  12  12   6  12  12
#     4   9  18  30  46  68  94 123 154 191 239 293
#     4   9  18  33  53  79 109 138 168 205 252 303
#     4   9  18  31  48  72  98 125 159 202 249 295
#     4  10  21  36  56  82 110 140 172 204 242 290
#     4  10  19  31  47  66  91 124 163 205 249 294
#     4  10  19  31  45  65  92 123 158 196 242 291
#
# _framework density 17.800349000000001
#
# number of rings (size 3 to 8) (size 9 to 14) (size 15 to 20)
#    0.000    2.545    0.000    2.091    1.273    2.909 
#    0.000    0.000    0.000    2.182    0.000    2.545 
#    0.000    0.000    0.000    0.000    0.000    0.000 
#
# Total GULP energy -817990.746790 kJ/mol
# GULP energy per Si atom -12393.799194 kJ/mol
# Density = 1.775983 g / cm^3
# Si number density = 17.800349 Si / 1000 Ang^3
#
#
#
# Elastic Constant Matrix: (Units=GPa)
#
#
# Indices 1 2 3 4 5 6 
#
# 1 125.3849 69.3339 30.3758 0.0000 0.0000 0.0000
# 2 69.3339 125.3849 30.3758 0.0000 0.0000 0.0000
# 3 30.3758 30.3758 53.5781 0.0000 0.0000 0.0000
# 4 0.0000 0.0000 0.0000 19.0540 0.0000 0.0000
# 5 0.0000 0.0000 0.0000 0.0000 19.0540 0.0000
# 6 0.0000 0.0000 0.0000 0.0000 0.0000 28.0255
#
#
#
# Elastic Compliance Matrix: (Units=1/GPa)
#
#
# Indices 1 2 3 4 5 6 
#
# 1 0.012040 -0.005801 -0.003537 0.000000 0.000000 0.000000
# 2 -0.005801 0.012040 -0.003537 0.000000 0.000000 0.000000
# 3 -0.003537 -0.003537 0.022675 0.000000 0.000000 0.000000
# 4 0.000000 0.000000 0.000000 0.052482 0.000000 0.000000
# 5 0.000000 0.000000 0.000000 0.000000 0.052482 0.000000
# 6 0.000000 0.000000 0.000000 0.000000 0.000000 0.035682
#
#
# Mechanical properties :
#
#
# Convention : Reuss Voigt Hill
#
# Bulk Modulus (GPa) = 47.60881 62.72433 55.16657
# Shear Modulus (GPa) = 22.71133 24.84418 23.77776
#
# Velocity S-wave (km/s) = 3.57584 3.73998 3.65883
# Velocity P-wave (km/s) = 6.62215 7.34603 6.99346
#
# Compressibility (1/GPa) = 0.02100452
#
# Stress axis : x y z
#
# Youngs Moduli (GPa) = 83.05595 83.05595 44.10093
#
# Poissons Ratio (x) = 0.48179 0.15600
# Poissons Ratio (y) = 0.48179 0.15600
# Poissons Ratio (z) = 0.29379 0.29379
#
# Static dielectric constant tensor:
#      x y z
#    x 3.257690 0.000000 0.000000 
#    y 0.000000 3.257690 0.000000 
#    z 0.000000 0.000000 3.294400 
# 
# 
# High freq. dielectric constant tensor:
#      x y z
#    x 1.672080 0.000000 0.000000 
#    y 0.000000 1.672080 0.000000 
#    z 0.000000 0.000000 1.691050 
# 
# From -- ./inp_files/1032.got.cif
#   From: 2010.03.12/outbox.cif.g09.slc.cpg/sg189_1_cif.got.tgz:1032.got - 2010.04.01 12:03:36.
