data_PCOD8327762
_publ_section_title
;
Structure prediction by ZEFSAII (Michael W. Deem and Ramdas Pophale) SiO2 
 PCOD8327762
Probable space group: P -6 2 M
;
_chemical_formula_sum "Si O2"
_cell_formula_units_Z 32
_cell_length_a 14.881222
_cell_length_b 14.881222
_cell_length_c 9.681321
_cell_angle_alpha 90.000000
_cell_angle_beta 90.000000
_cell_angle_gamma 120.000000
_cell_volume 1856.703017
_symmetry_space_group_name_H-M "P -6 2 M"
_symmetry_group_IT_number 189
_symmetry_cell_setting 'hexagonal'
loop_
_space_group_symop_operation_xyz
x,y,z
-x+y,-x,-z
-y,x-y,z
x,y,-z
-x+y,-x,z
-y,x-y,-z
x-y,-y,-z
-x,-x+y,-z
y,x,-z
y,x,z
x-y,-y,z
-x,-x+y,z
loop_
_atom_site_type_symbol
_atom_site_label
_atom_site_fract_x
_atom_site_fract_y
_atom_site_fract_z
Si Si1 0.000000 0.175773 0.658290
Si Si2 0.000000 0.000000 0.833002
Si Si3 0.460172 0.762127 0.155385
Si Si4 0.344234 0.225689 0.657871
O O1 0.000000 0.136460 0.500000
O O2 0.000000 0.100043 0.774253
O O3 0.101937 0.287200 0.681641
O O4 0.000000 0.000000 0.000000
O O5 0.361265 0.779534 0.178225
O O6 0.550564 0.833527 0.257836
O O7 0.502934 0.793853 0.000000
O O8 0.376709 0.253958 0.500000
O O9 0.266927 0.266927 0.704204
#
# Coordination Sequence:
#
# PCOD8327762 Si02
#       4
#     6   2  12  12
#     4  10  20  38  56  73 112 153 178 219 282 334
#     4  12  22  32  52  81 106 143 190 231 268 314
#     4   8  18  38  57  74 105 146 179 217 274 323
#     4  10  20  34  57  84 108 143 184 222 271 324
#
# _framework density 17.234852
#
# number of rings (size 3 to 8) (size 9 to 14) (size 15 to 20)
#    0.750    1.875    1.875    0.562    0.000    3.750 
#    3.375    0.000    0.000    0.000    0.000    0.000 
#    0.000    0.000    0.000    0.000    0.000    0.000 
#
# Total GULP energy -396533.749155 kJ/mol
# GULP energy per Si atom -12391.679661 kJ/mol
# Density = 1.719562 g / cm^3
# Si number density = 17.234852 Si / 1000 Ang^3
#
#
#
# Elastic Constant Matrix: (Units=GPa)
#
#
# Indices 1 2 3 4 5 6 
#
# 1 75.5060 37.2417 44.4334 0.0000 0.0000 0.0000
# 2 37.2417 75.5060 44.4334 0.0000 0.0000 0.0000
# 3 44.4334 44.4334 90.5522 0.0000 0.0000 0.0000
# 4 0.0000 0.0000 0.0000 28.4947 0.0000 0.0000
# 5 0.0000 0.0000 0.0000 0.0000 28.4947 0.0000
# 6 0.0000 0.0000 0.0000 0.0000 0.0000 19.1322
#
#
#
# Elastic Compliance Matrix: (Units=1/GPa)
#
#
# Indices 1 2 3 4 5 6 
#
# 1 0.020299 -0.005835 -0.007097 0.000000 0.000000 0.000000
# 2 -0.005835 0.020299 -0.007097 0.000000 0.000000 0.000000
# 3 -0.007097 -0.007097 0.018008 0.000000 0.000000 0.000000
# 4 0.000000 0.000000 0.000000 0.035094 0.000000 0.000000
# 5 0.000000 0.000000 0.000000 0.000000 0.035094 0.000000
# 6 0.000000 0.000000 0.000000 0.000000 0.000000 0.052268
#
#
# Mechanical properties :
#
#
# Convention : Reuss Voigt Hill
#
# Bulk Modulus (GPa) = 53.91818 54.86459 54.39139
# Shear Modulus (GPa) = 21.99709 22.92136 22.45922
#
# Velocity S-wave (km/s) = 3.57643 3.65079 3.61380
# Velocity P-wave (km/s) = 6.95750 7.04796 7.00287
#
# Compressibility (1/GPa) = 0.01854662
#
# Stress axis : x y z
#
# Youngs Moduli (GPa) = 49.26457 49.26457 55.53014
#
# Poissons Ratio (x) = 0.28748 0.39410
# Poissons Ratio (y) = 0.28748 0.39410
# Poissons Ratio (z) = 0.34963 0.34963
#
# Static dielectric constant tensor:
#      x y z
#    x 3.023190 0.000000 0.000000 
#    y 0.000000 3.023190 0.000000 
#    z 0.000000 0.000000 3.123980 
# 
# 
# High freq. dielectric constant tensor:
#      x y z
#    x 1.652960 0.000000 0.000000 
#    y 0.000000 1.652960 0.000000 
#    z 0.000000 0.000000 1.665060 
# 
# From -- ./inp_files/357.got.cif
#   From: 2010.03.12/outbox.cif.g09.slc.cpg/sg189_1_cif.got.tgz:357.got - 2010.04.01 12:03:36.
