data_PCOD8327811
_publ_section_title
;
Structure prediction by ZEFSAII (Michael W. Deem and Ramdas Pophale) SiO2 
 PCOD8327811
Probable space group: P -6 2 M
;
_chemical_formula_sum "Si O2"
_cell_formula_units_Z 96
_cell_length_a 14.156972
_cell_length_b 14.156972
_cell_length_c 27.164315
_cell_angle_alpha 90.000000
_cell_angle_beta 90.000000
_cell_angle_gamma 120.000000
_cell_volume 4714.874485
_symmetry_space_group_name_H-M "P -6 2 M"
_symmetry_group_IT_number 189
_symmetry_cell_setting 'hexagonal'
loop_
_space_group_symop_operation_xyz
x,y,z
-x+y,-x,-z
-y,x-y,z
x,y,-z
-x+y,-x,z
-y,x-y,-z
x-y,-y,-z
-x,-x+y,-z
y,x,-z
y,x,z
x-y,-y,z
-x,-x+y,z
loop_
_atom_site_type_symbol
_atom_site_label
_atom_site_fract_x
_atom_site_fract_y
_atom_site_fract_z
Si Si1 0.828213 0.558054 0.789230
Si Si2 0.872431 0.296284 0.554307
Si Si3 0.535180 0.659983 0.057540
Si Si4 0.393757 0.877858 0.257745
Si Si5 0.873137 0.546407 0.097543
Si Si6 0.876829 0.121015 0.271531
Si Si7 0.435841 0.565083 0.363419
Si Si8 0.128226 0.776255 0.630650
O O1 0.698194 0.496940 0.780521
O O2 0.883256 0.506362 0.755694
O O3 0.857283 0.551593 0.844897
O O4 0.880546 0.683217 0.773294
O O5 0.817058 0.271267 0.500000
O O6 0.827410 0.359290 0.588192
O O7 0.847286 0.184768 0.581897
O O8 0.000000 0.370253 0.547646
O O9 0.629907 0.629907 0.070962
O O10 0.572811 0.785519 0.071545
O O11 0.422576 0.575536 0.084590
O O12 0.510295 0.644439 0.000000
O O13 0.362410 0.831516 0.313498
O O14 0.411852 0.000000 0.253645
O O15 0.000000 0.634136 0.082693
O O16 0.851910 0.167543 0.320997
O O17 0.000000 0.198468 0.255913
O O18 0.855046 0.000000 0.280978
O O19 0.499150 0.499150 0.361805
O O20 0.308155 0.480397 0.364664
O O21 0.000000 0.719544 0.623272
#
# Coordination Sequence:
#
# PCOD8327811 Si02
#       8
#    12  12  12  12  12  12  12  12
#     4  12  23  37  58  87 122 162 201 241 298 362
#     4  10  21  37  56  80 110 142 180 230 296 367
#     4  10  22  41  66  94 125 167 217 265 318 377
#     4  11  22  38  57  81 115 154 197 245 292 349
#     4  11  23  39  62  95 133 169 208 261 321 376
#     4  11  22  38  59  86 120 162 209 255 300 354
#     4   9  19  36  56  77 105 143 183 234 289 346
#     4  10  20  37  60  83 110 145 193 244 292 352
#
# _framework density 20.361094000000001
#
# number of rings (size 3 to 8) (size 9 to 14) (size 15 to 20)
#    0.000    1.500    1.250    4.375    0.000    4.500 
#    0.750    1.250    0.000    0.500    0.000    0.000 
#    0.000    0.000    0.000    0.000    0.000    0.000 
#
# Total GULP energy -1190088.176667 kJ/mol
# GULP energy per Si atom -12396.751840 kJ/mol
# Density = 2.031475 g / cm^3
# Si number density = 20.361094 Si / 1000 Ang^3
#
#
#
# Elastic Constant Matrix: (Units=GPa)
#
#
# Indices 1 2 3 4 5 6 
#
# 1 98.5136 41.2913 40.1132 0.0000 0.0000 0.0000
# 2 41.2913 98.5136 40.1132 0.0000 0.0000 0.0000
# 3 40.1132 40.1132 136.3086 0.0000 0.0000 0.0000
# 4 0.0000 0.0000 0.0000 26.9439 0.0000 0.0000
# 5 0.0000 0.0000 0.0000 0.0000 26.9439 0.0000
# 6 0.0000 0.0000 0.0000 0.0000 0.0000 28.6112
#
#
#
# Elastic Compliance Matrix: (Units=1/GPa)
#
#
# Indices 1 2 3 4 5 6 
#
# 1 0.013041 -0.004435 -0.002533 0.000000 0.000000 0.000000
# 2 -0.004435 0.013041 -0.002533 0.000000 0.000000 0.000000
# 3 -0.002533 -0.002533 0.008827 0.000000 0.000000 0.000000
# 4 0.000000 0.000000 0.000000 0.037114 0.000000 0.000000
# 5 0.000000 0.000000 0.000000 0.000000 0.037114 0.000000
# 6 0.000000 0.000000 0.000000 0.000000 0.000000 0.034951
#
#
# Mechanical properties :
#
#
# Convention : Reuss Voigt Hill
#
# Bulk Modulus (GPa) = 62.85874 64.04125 63.45000
# Shear Modulus (GPa) = 29.69271 30.62100 30.15685
#
# Velocity S-wave (km/s) = 3.82292 3.88222 3.85268
# Velocity P-wave (km/s) = 7.10108 7.18446 7.14289
#
# Compressibility (1/GPa) = 0.01590869
#
# Stress axis : x y z
#
# Youngs Moduli (GPa) = 76.68167 76.68167 113.28982
#
# Poissons Ratio (x) = 0.34006 0.28692
# Poissons Ratio (y) = 0.34006 0.28692
# Poissons Ratio (z) = 0.19421 0.19421
#
# Static dielectric constant tensor:
#      x y z
#    x 3.807950 0.000000 0.000000 
#    y 0.000000 3.807950 0.000000 
#    z 0.000000 0.000000 3.791540 
# 
# 
# High freq. dielectric constant tensor:
#      x y z
#    x 1.795340 0.000000 0.000000 
#    y 0.000000 1.795340 0.000000 
#    z 0.000000 0.000000 1.792130 
# 
# From -- ./inp_files/3733.got.cif
#   From: 2010.03.12/outbox.cif.g09.slc.cpg/sg189_2_cif.got.tgz:3733.got - 2010.04.01 12:03:36.
