data_PCOD8327031
_publ_section_title
;
Structure prediction by ZEFSAII (Michael W. Deem and Ramdas Pophale) SiO2 
 PCOD8327031
Probable space group: P -6 M 2
;
_chemical_formula_sum "Si O2"
_cell_formula_units_Z 66
_cell_length_a 12.798293
_cell_length_b 12.798293
_cell_length_c 27.722341
_cell_angle_alpha 90.000000
_cell_angle_beta 90.000000
_cell_angle_gamma 120.000000
_cell_volume 3932.462864
_symmetry_space_group_name_H-M "P -6 M 2"
_symmetry_group_IT_number 187
_symmetry_cell_setting 'hexagonal'
loop_
_space_group_symop_operation_xyz
x,y,z
-x+y,-x,-z
-y,x-y,z
x,y,-z
-x+y,-x,z
-y,x-y,-z
-y,-x,-z
-x+y,y,-z
x,x-y,-z
-x+y,y,z
x,x-y,z
-y,-x,z
loop_
_atom_site_type_symbol
_atom_site_label
_atom_site_fract_x
_atom_site_fract_y
_atom_site_fract_z
Si Si1 0.911129 0.334824 0.862705
Si Si2 0.999759 0.759856 0.582769
Si Si3 0.576987 0.910603 0.224757
Si Si4 0.333554 0.426331 0.055305
Si Si5 0.240035 0.239804 0.307632
Si Si6 0.422635 0.332328 0.500000
O O1 0.871494 0.435747 0.863036
O O2 0.794476 0.205525 0.857601
O O3 0.998847 0.354009 0.818547
O O4 0.978910 0.338315 0.912135
O O5 0.127423 0.872577 0.568966
O O6 0.996749 0.716681 0.637587
O O7 0.899600 0.799199 0.575122
O O8 0.976290 0.651218 0.547822
O O9 0.441684 0.883368 0.230663
O O10 0.573176 0.786588 0.213083
O O11 0.647076 0.970544 0.274081
O O12 0.206442 0.412883 0.069989
O O13 0.435100 0.564901 0.064574
O O14 0.333821 0.388982 0.000000
O O15 0.099582 0.199164 0.302206
O O16 0.255470 0.127735 0.291940
O O17 0.540660 0.459341 0.500000
O O18 0.458618 0.229309 0.500000
#
# Coordination Sequence:
#
# PCOD8327031 Si02
#       6
#    12  12  12  12  12   6
#     4  10  20  33  49  69  94 124 157 194 236 281
#     4   9  17  30  50  74  96 119 151 194 239 278
#     4  10  20  33  50  71  95 124 158 196 235 276
#     4   9  17  30  50  75 100 126 157 194 234 275
#     4   9  17  30  49  73  99 125 153 187 230 279
#     4  10  20  32  46  64  90 124 158 192 230 276
#
# _framework density 16.783376000000001
#
# number of rings (size 3 to 8) (size 9 to 14) (size 15 to 20)
#    0.000    2.545    0.000    2.364    0.000    3.273 
#    0.000    2.727    0.000    6.909    0.000    0.000 
#    0.000    0.000    0.000    0.000    0.000    0.000 
#
# Total GULP energy -818532.365948 kJ/mol
# GULP energy per Si atom -12402.005545 kJ/mol
# Density = 1.674518 g / cm^3
# Si number density = 16.783376 Si / 1000 Ang^3
#
#
#
# Elastic Constant Matrix: (Units=GPa)
#
#
# Indices 1 2 3 4 5 6 
#
# 1 117.5623 72.0373 66.7206 0.0000 0.0002 0.0000
# 2 72.0373 117.5623 66.7206 0.0000 -0.0002 0.0000
# 3 66.7206 66.7206 112.6998 0.0000 0.0000 0.0000
# 4 0.0000 0.0000 0.0000 24.4368 0.0000 -0.0002
# 5 0.0002 -0.0002 0.0000 0.0000 24.4368 0.0000
# 6 0.0000 0.0000 0.0000 -0.0002 0.0000 22.7625
#
#
#
# Elastic Compliance Matrix: (Units=1/GPa)
#
#
# Indices 1 2 3 4 5 6 
#
# 1 0.015504 -0.006462 -0.005353 0.000000 0.000000 0.000000
# 2 -0.006462 0.015504 -0.005353 0.000000 0.000000 0.000000
# 3 -0.005353 -0.005353 0.015211 0.000000 0.000000 0.000000
# 4 0.000000 0.000000 0.000000 0.040922 0.000000 0.000000
# 5 0.000000 0.000000 0.000000 0.000000 0.040922 0.000000
# 6 0.000000 0.000000 0.000000 0.000000 0.000000 0.043932
#
#
# Mechanical properties :
#
#
# Convention : Reuss Voigt Hill
#
# Bulk Modulus (GPa) = 84.15360 84.30906 84.23133
# Shear Modulus (GPa) = 23.77656 23.81693 23.79675
#
# Velocity S-wave (km/s) = 3.76796 3.77115 3.76955
# Velocity P-wave (km/s) = 8.31744 8.32495 8.32120
#
# Compressibility (1/GPa) = 0.01188303
#
# Stress axis : x y z
#
# Youngs Moduli (GPa) = 64.50028 64.50028 65.74140
#
# Poissons Ratio (x) = 0.41681 0.35190
# Poissons Ratio (y) = 0.41681 0.35190
# Poissons Ratio (z) = 0.34526 0.34526
#
# Static dielectric constant tensor:
#      x y z
#    x 3.006260 0.000000 0.000000 
#    y 0.000000 3.006260 0.000000 
#    z 0.000000 0.000000 3.433490 
# 
# 
# High freq. dielectric constant tensor:
#      x y z
#    x 1.638020 0.000000 0.000000 
#    y 0.000000 1.638020 0.000000 
#    z 0.000000 0.000000 1.662030 
# 
# From -- ./inp_files/4400.got.cif
#   From: 2010.03.12/outbox.cif.g09.slc.cpg/sg187_3_cif.got.tgz:4400.got - 2010.04.01 11:58:23.
