data_PCOD8327608
_publ_section_title
;
Structure prediction by ZEFSAII (Michael W. Deem and Ramdas Pophale) SiO2 
 PCOD8327608
Probable space group: P -6 2 M
;
_chemical_formula_sum "Si O2"
_cell_formula_units_Z 84
_cell_length_a 15.089368
_cell_length_b 15.089368
_cell_length_c 23.961532
_cell_angle_alpha 90.000000
_cell_angle_beta 90.000000
_cell_angle_gamma 120.000000
_cell_volume 4724.842257
_symmetry_space_group_name_H-M "P -6 2 M"
_symmetry_group_IT_number 189
_symmetry_cell_setting 'hexagonal'
loop_
_space_group_symop_operation_xyz
x,y,z
-x+y,-x,-z
-y,x-y,z
x,y,-z
-x+y,-x,z
-y,x-y,-z
x-y,-y,-z
-x,-x+y,-z
y,x,-z
y,x,z
x-y,-y,z
-x,-x+y,z
loop_
_atom_site_type_symbol
_atom_site_label
_atom_site_fract_x
_atom_site_fract_y
_atom_site_fract_z
Si Si1 0.624693 0.877779 0.648930
Si Si2 0.439261 0.558743 0.061263
Si Si3 0.427366 0.881579 0.647940
Si Si4 0.278766 0.879360 0.265487
Si Si5 0.354415 0.237627 0.935797
Si Si6 0.290381 0.879920 0.859671
Si Si7 0.397785 0.120464 0.435699
O O1 0.501442 0.833586 0.649082
O O2 0.649517 0.830462 0.703262
O O3 0.650740 0.834044 0.593335
O O4 0.695043 0.000000 0.650303
O O5 0.518667 0.518667 0.056288
O O6 0.329977 0.466630 0.079666
O O7 0.481210 0.649092 0.107132
O O8 0.432385 0.601391 0.000000
O O9 0.360694 0.856157 0.704307
O O10 0.353386 0.847168 0.593935
O O11 0.505093 0.000000 0.643157
O O12 0.263302 0.835266 0.202754
O O13 0.316682 0.000000 0.267577
O O14 0.268899 0.268899 0.924508
O O15 0.334056 0.145730 0.894379
O O16 0.349499 0.203970 0.000000
O O17 0.360592 0.000000 0.854450
O O18 0.419242 0.151688 0.500000
O O19 0.318819 0.000000 0.427520
#
# Coordination Sequence:
#
# PCOD8327608 Si02
#       7
#    12  12  12  12  12  12  12
#     4  10  19  32  54  78  98 129 173 210 237 280
#     4   8  15  29  47  66  91 122 155 195 243 293
#     4   8  16  32  50  68  94 128 162 197 239 285
#     4   9  19  35  50  68 100 134 163 203 254 295
#     4   9  18  32  49  71 100 129 157 198 251 298
#     4  10  19  31  51  74  94 126 170 206 239 292
#     4   9  18  34  54  75 105 139 162 193 247 294
#
# _framework density 17.778369999999999
#
# number of rings (size 3 to 8) (size 9 to 14) (size 15 to 20)
#    0.000    3.000    0.000    2.571    0.000    3.429 
#    7.714    4.286    0.000    2.571    0.000    0.000 
#    0.000    0.000    0.000    0.000    0.000    0.000 
#
# Total GULP energy -1041012.665207 kJ/mol
# GULP energy per Si atom -12393.007919 kJ/mol
# Density = 1.773791 g / cm^3
# Si number density = 17.778370 Si / 1000 Ang^3
#
#
#
# Elastic Constant Matrix: (Units=GPa)
#
#
# Indices 1 2 3 4 5 6 
#
# 1 54.1601 11.5864 29.3087 0.0000 0.0000 0.0000
# 2 11.5864 54.1601 29.3087 0.0000 0.0000 0.0000
# 3 29.3087 29.3087 138.4382 0.0000 0.0000 0.0000
# 4 0.0000 0.0000 0.0000 19.8313 0.0000 0.0000
# 5 0.0000 0.0000 0.0000 0.0000 19.8313 0.0000
# 6 0.0000 0.0000 0.0000 0.0000 0.0000 21.2868
#
#
#
# Elastic Compliance Matrix: (Units=1/GPa)
#
#
# Indices 1 2 3 4 5 6 
#
# 1 0.021119 -0.002370 -0.003969 0.000000 0.000000 0.000000
# 2 -0.002370 0.021119 -0.003969 0.000000 0.000000 0.000000
# 3 -0.003969 -0.003969 0.008904 0.000000 0.000000 0.000000
# 4 0.000000 0.000000 0.000000 0.050425 0.000000 0.000000
# 5 0.000000 0.000000 0.000000 0.000000 0.050425 0.000000
# 6 0.000000 0.000000 0.000000 0.000000 0.000000 0.046977
#
#
# Mechanical properties :
#
#
# Convention : Reuss Voigt Hill
#
# Bulk Modulus (GPa) = 32.76050 43.01845 37.88947
# Shear Modulus (GPa) = 21.76169 23.96020 22.86095
#
# Velocity S-wave (km/s) = 3.50244 3.67511 3.58981
# Velocity P-wave (km/s) = 5.90113 6.50063 6.20812
#
# Compressibility (1/GPa) = 0.03052456
#
# Stress axis : x y z
#
# Youngs Moduli (GPa) = 47.35124 47.35124 112.30755
#
# Poissons Ratio (x) = 0.11222 0.44578
# Poissons Ratio (y) = 0.11222 0.44578
# Poissons Ratio (z) = 0.18795 0.18795
#
# Static dielectric constant tensor:
#      x y z
#    x 3.172310 0.000000 0.000000 
#    y 0.000000 3.172310 0.000000 
#    z 0.000000 0.000000 3.579470 
# 
# 
# High freq. dielectric constant tensor:
#      x y z
#    x 1.669760 0.000000 0.000000 
#    y 0.000000 1.669760 0.000000 
#    z 0.000000 0.000000 1.692510 
# 
# From -- ./inp_files/3591.got.cif
#   From: 2010.03.12/outbox.cif.g09.slc.cpg/sg189_2_cif.got.tgz:3591.got - 2010.04.01 12:03:36.
