data_PCOD8327874
_publ_section_title
;
Structure prediction by ZEFSAII (Michael W. Deem and Ramdas Pophale) SiO2 
 PCOD8327874
Probable space group: P -6 2 M
;
_chemical_formula_sum "Si O2"
_cell_formula_units_Z 76
_cell_length_a 17.859005
_cell_length_b 17.859005
_cell_length_c 14.253480
_cell_angle_alpha 90.000000
_cell_angle_beta 90.000000
_cell_angle_gamma 120.000000
_cell_volume 3937.005850
_symmetry_space_group_name_H-M "P -6 2 M"
_symmetry_group_IT_number 189
_symmetry_cell_setting 'hexagonal'
loop_
_space_group_symop_operation_xyz
x,y,z
-x+y,-x,-z
-y,x-y,z
x,y,-z
-x+y,-x,z
-y,x-y,-z
x-y,-y,-z
-x,-x+y,-z
y,x,-z
y,x,z
x-y,-y,z
-x,-x+y,z
loop_
_atom_site_type_symbol
_atom_site_label
_atom_site_fract_x
_atom_site_fract_y
_atom_site_fract_z
Si Si1 0.101660 0.392066 0.394519
Si Si2 0.636119 0.098186 0.213588
Si Si3 0.333334 0.666667 0.889470
Si Si4 0.632025 0.480649 0.888862
Si Si5 0.562307 0.102633 0.601730
Si Si6 0.833435 0.209750 0.794199
Si Si7 0.901759 0.802578 0.892078
O O1 0.121707 0.372700 0.500000
O O2 0.134911 0.493802 0.383958
O O3 0.154245 0.369835 0.318370
O O4 0.000000 0.334973 0.373511
O O5 0.564021 0.096794 0.143979
O O6 0.631870 0.137505 0.314849
O O7 0.732869 0.156344 0.175295
O O8 0.616113 0.000000 0.222202
O O9 0.418706 0.668050 0.853677
O O10 0.333334 0.666668 0.000000
O O11 0.693851 0.572704 0.839507
O O12 0.635613 0.494435 0.000000
O O13 0.608795 0.134877 0.500000
O O14 0.509766 0.000000 0.604635
O O15 0.881503 0.161361 0.831672
O O16 0.875776 0.875776 0.878494
O O17 0.000000 0.841981 0.856903
O O18 0.893166 0.773739 0.000000
#
# Coordination Sequence:
#
# PCOD8327874 Si02
#       7
#    12  12   4  12  12  12  12
#     4   9  18  34  57  83 111 145 189 243 297 344
#     4  11  23  36  52  80 116 153 188 229 284 339
#     4   9  18  36  54  69  97 149 202 234 267 315
#     4  11  22  36  54  76 109 156 201 236 280 336
#     4   8  15  31  53  74 102 144 188 224 263 316
#     4  12  22  35  59  89 118 148 195 247 294 345
#     4  10  22  41  64  88 115 149 190 243 309 375
#
# _framework density 19.304010000000002
#
# number of rings (size 3 to 8) (size 9 to 14) (size 15 to 20)
#    0.000    1.895    3.158    2.526    0.000    2.842 
#    0.000    0.000    0.000    1.421    0.000    0.000 
#    0.000    1.263    0.000    0.000    0.000    0.000 
#
# Total GULP energy -942295.626030 kJ/mol
# GULP energy per Si atom -12398.626658 kJ/mol
# Density = 1.926007 g / cm^3
# Si number density = 19.304010 Si / 1000 Ang^3
#
#
#
# Elastic Constant Matrix: (Units=GPa)
#
#
# Indices 1 2 3 4 5 6 
#
# 1 63.4618 15.2851 23.1952 0.0000 0.0000 0.0000
# 2 15.2851 63.4618 23.1954 0.0000 0.0000 -0.0001
# 3 23.1952 23.1954 99.5600 0.0000 0.0000 0.0000
# 4 0.0000 0.0000 0.0000 27.0567 0.0000 0.0000
# 5 0.0000 0.0000 0.0000 0.0000 27.0567 0.0000
# 6 0.0000 -0.0001 0.0000 0.0000 0.0000 24.0881
#
#
#
# Elastic Compliance Matrix: (Units=1/GPa)
#
#
# Indices 1 2 3 4 5 6 
#
# 1 0.017738 -0.003019 -0.003429 0.000000 0.000000 0.000000
# 2 -0.003019 0.017738 -0.003429 0.000000 0.000000 0.000000
# 3 -0.003429 -0.003429 0.011642 0.000000 0.000000 0.000000
# 4 0.000000 0.000000 0.000000 0.036959 0.000000 0.000000
# 5 0.000000 0.000000 0.000000 0.000000 0.036959 0.000000
# 6 0.000000 0.000000 0.000000 0.000000 0.000000 0.041514
#
#
# Mechanical properties :
#
#
# Convention : Reuss Voigt Hill
#
# Bulk Modulus (GPa) = 36.54521 38.87056 37.70788
# Shear Modulus (GPa) = 26.11960 26.62748 26.37354
#
# Velocity S-wave (km/s) = 3.68240 3.71802 3.70025
# Velocity P-wave (km/s) = 6.08708 6.21380 6.15077
#
# Compressibility (1/GPa) = 0.02736336
#
# Stress axis : x y z
#
# Youngs Moduli (GPa) = 56.37609 56.37601 85.89541
#
# Poissons Ratio (x) = 0.17019 0.29455
# Poissons Ratio (y) = 0.17019 0.29456
# Poissons Ratio (z) = 0.19333 0.19333
#
# Static dielectric constant tensor:
#      x y z
#    x 3.360060 0.000000 0.000000 
#    y 0.000000 3.360070 0.000000 
#    z 0.000000 0.000000 3.742970 
# 
# 
# High freq. dielectric constant tensor:
#      x y z
#    x 1.735980 0.000000 0.000000 
#    y 0.000000 1.735980 0.000000 
#    z 0.000000 0.000000 1.753140 
# 
# From -- ./inp_files/2742.got.cif
#   From: 2010.03.12/outbox.cif.g09.slc.cpg/sg189_2_cif.got.tgz:2742.got - 2010.04.01 12:03:36.
