data_PCOD8327796
_publ_section_title
;
Structure prediction by ZEFSAII (Michael W. Deem and Ramdas Pophale) SiO2 
 PCOD8327796
Probable space group: P -6 2 M
;
_chemical_formula_sum "Si O2"
_cell_formula_units_Z 84
_cell_length_a 14.697313
_cell_length_b 14.697313
_cell_length_c 23.342337
_cell_angle_alpha 90.000000
_cell_angle_beta 90.000000
_cell_angle_gamma 120.000000
_cell_volume 4366.674830
_symmetry_space_group_name_H-M "P -6 2 M"
_symmetry_group_IT_number 189
_symmetry_cell_setting 'hexagonal'
loop_
_space_group_symop_operation_xyz
x,y,z
-x+y,-x,-z
-y,x-y,z
x,y,-z
-x+y,-x,z
-y,x-y,-z
x-y,-y,-z
-x,-x+y,-z
y,x,-z
y,x,z
x-y,-y,z
-x,-x+y,z
loop_
_atom_site_type_symbol
_atom_site_label
_atom_site_fract_x
_atom_site_fract_y
_atom_site_fract_z
Si Si1 0.886993 0.220572 0.207469
Si Si2 0.663129 0.119075 0.825448
Si Si3 0.365826 0.570030 0.062499
Si Si4 0.267017 0.799979 0.625729
Si Si5 0.757399 0.877550 0.326609
Si Si6 0.882640 0.405406 0.733127
Si Si7 0.532004 0.411340 0.564898
O O1 0.787577 0.165923 0.165414
O O2 0.863511 0.143393 0.261101
O O3 0.898058 0.330293 0.224105
O O4 0.000000 0.247880 0.179275
O O5 0.613511 0.126063 0.885448
O O6 0.631362 0.168418 0.771125
O O7 0.613671 0.000000 0.808439
O O8 0.447737 0.695227 0.067176
O O9 0.379596 0.528810 0.000000
O O10 0.195351 0.853191 0.633443
O O11 0.335568 0.807214 0.681805
O O12 0.191342 0.678766 0.610128
O O13 0.350506 0.859558 0.574960
O O14 0.846146 0.846146 0.338078
O O15 0.804671 0.000000 0.341532
O O16 0.000000 0.489616 0.708984
O O17 0.523809 0.370794 0.500000
O O18 0.446722 0.446722 0.575768
#
# Coordination Sequence:
#
# PCOD8327796 Si02
#       7
#    12  12  12  12  12  12  12
#     4   9  19  35  50  72 114 155 185 225 281 345
#     4  11  20  31  53  84 114 146 191 241 287 339
#     4   8  17  34  52  72 105 151 196 234 281 339
#     4  11  22  39  58  82 118 150 182 234 289 342
#     4  10  20  36  58  84 114 150 190 234 286 342
#     4   9  20  34  51  80 115 147 183 226 284 349
#     4  11  24  41  61  84 110 148 196 235 277 347
#
# _framework density 19.236605999999998
#
# number of rings (size 3 to 8) (size 9 to 14) (size 15 to 20)
#    0.286    1.857    0.000    4.714    4.000    0.286 
#    0.857    0.000    0.000    1.571    0.000    0.000 
#    0.000    6.857    0.000    0.000    0.000    0.000 
#
# Total GULP energy -1040684.582831 kJ/mol
# GULP energy per Si atom -12389.102177 kJ/mol
# Density = 1.919282 g / cm^3
# Si number density = 19.236606 Si / 1000 Ang^3
#
#
#
# Elastic Constant Matrix: (Units=GPa)
#
#
# Indices 1 2 3 4 5 6 
#
# 1 89.7470 35.5009 42.6983 0.0000 0.0000 0.0000
# 2 35.5009 89.7470 42.6983 0.0000 0.0000 0.0000
# 3 42.6983 42.6983 86.9063 0.0000 0.0000 0.0000
# 4 0.0000 0.0000 0.0000 20.8737 0.0000 0.0000
# 5 0.0000 0.0000 0.0000 0.0000 20.8737 0.0000
# 6 0.0000 0.0000 0.0000 0.0000 0.0000 27.1231
#
#
#
# Elastic Compliance Matrix: (Units=1/GPa)
#
#
# Indices 1 2 3 4 5 6 
#
# 1 0.015220 -0.003214 -0.005899 0.000000 0.000000 0.000000
# 2 -0.003214 0.015220 -0.005899 0.000000 0.000000 0.000000
# 3 -0.005899 -0.005899 0.017303 0.000000 0.000000 0.000000
# 4 0.000000 0.000000 0.000000 0.047907 0.000000 0.000000
# 5 0.000000 0.000000 0.000000 0.000000 0.047907 0.000000
# 6 0.000000 0.000000 0.000000 0.000000 0.000000 0.036869
#
#
# Mechanical properties :
#
#
# Convention : Reuss Voigt Hill
#
# Bulk Modulus (GPa) = 56.43325 56.46613 56.44969
# Shear Modulus (GPa) = 23.10998 23.47430 23.29214
#
# Velocity S-wave (km/s) = 3.46982 3.49706 3.48346
# Velocity P-wave (km/s) = 6.74188 6.76189 6.75189
#
# Compressibility (1/GPa) = 0.01772005
#
# Stress axis : x y z
#
# Youngs Moduli (GPa) = 65.70184 65.70184 57.79373
#
# Poissons Ratio (x) = 0.21118 0.34091
# Poissons Ratio (y) = 0.21118 0.34091
# Poissons Ratio (z) = 0.38756 0.38756
#
# Static dielectric constant tensor:
#      x y z
#    x 3.648820 0.000000 0.000000 
#    y 0.000000 3.648820 0.000000 
#    z 0.000000 0.000000 3.275900 
# 
# 
# High freq. dielectric constant tensor:
#      x y z
#    x 1.742190 0.000000 0.000000 
#    y 0.000000 1.742190 0.000000 
#    z 0.000000 0.000000 1.721130 
# 
# From -- ./inp_files/3620.got.cif
#   From: 2010.03.12/outbox.cif.g09.slc.cpg/sg189_2_cif.got.tgz:3620.got - 2010.04.01 12:03:36.
