data_PCOD8327355
_publ_section_title
;
Structure prediction by ZEFSAII (Michael W. Deem and Ramdas Pophale) SiO2 
 PCOD8327355
Probable space group: P -6 C 2
;
_chemical_formula_sum "Si O2"
_cell_formula_units_Z 78
_cell_length_a 24.070317
_cell_length_b 24.070317
_cell_length_c 9.220090
_cell_angle_alpha 90.000000
_cell_angle_beta 90.000000
_cell_angle_gamma 120.000000
_cell_volume 4626.253341
_symmetry_space_group_name_H-M "P -6 C 2"
_symmetry_group_IT_number 188
_symmetry_cell_setting 'hexagonal'
loop_
_space_group_symop_operation_xyz
x,y,z
-x+y,-x,1/2-z
-y,x-y,z
x,y,1/2-z
-x+y,-x,z
-y,x-y,1/2-z
-y,-x,-z
-x+y,y,-z
x,x-y,-z
-x+y,y,1/2+z
x,x-y,1/2+z
-y,-x,1/2+z
loop_
_atom_site_type_symbol
_atom_site_label
_atom_site_fract_x
_atom_site_fract_y
_atom_site_fract_z
Si Si1 0.588494 0.529107 0.923242
Si Si2 0.328816 0.230871 0.904972
Si Si3 0.023082 0.364119 0.083444
Si Si4 0.893096 0.106905 0.500000
Si Si5 0.035819 0.858722 0.088117
Si Si6 0.676453 0.894785 0.077873
Si Si7 0.724682 0.550956 0.917416
O O1 0.578857 0.530450 0.750000
O O2 0.650632 0.522300 0.959693
O O3 0.529947 0.470054 0.000000
O O4 0.595440 0.592515 0.996982
O O5 0.364336 0.237691 0.750000
O O6 0.315535 0.288942 0.920374
O O7 0.260842 0.165411 0.896217
O O8 0.373634 0.234795 0.038849
O O9 0.040567 0.389172 0.250000
O O10 0.083399 0.370754 0.994171
O O11 0.959654 0.128436 0.581368
O O12 0.059377 0.879924 0.250000
O O13 0.054323 0.805294 0.041200
O O14 0.075283 0.924718 0.000000
O O15 0.663991 0.885888 0.250000
O O16 0.656340 0.828170 0.000000
O O17 0.732828 0.544138 0.750000
O O18 0.757314 0.514628 0.000000
#
# Coordination Sequence:
#
# PCOD8327355 Si02
#       7
#    12  12  12   6  12  12  12
#     4  10  21  36  53  75 104 140 175 211 249 302
#     4  10  20  30  47  74 100 123 154 199 255 307
#     4  10  19  33  51  75 103 134 166 205 251 305
#     4  12  20  34  54  74  90 118 160 208 260 314
#     4  10  23  38  52  68  89 120 157 201 252 310
#     4  10  19  33  50  72  98 127 162 203 251 302
#     4  10  20  32  49  74 105 132 162 203 251 299
#
# _framework density 16.860296000000002
#
# number of rings (size 3 to 8) (size 9 to 14) (size 15 to 20)
#    0.000    1.846    2.308    2.308    0.000    4.923 
#    0.462    0.000    0.000    0.308    0.000    0.000 
#    0.000    0.000    0.000    0.462    0.000    6.462 
#
# Total GULP energy -966616.019937 kJ/mol
# GULP energy per Si atom -12392.513076 kJ/mol
# Density = 1.682192 g / cm^3
# Si number density = 16.860296 Si / 1000 Ang^3
#
#
#
# Elastic Constant Matrix: (Units=GPa)
#
#
# Indices 1 2 3 4 5 6 
#
# 1 96.3670 47.2941 50.8462 0.0005 0.0000 0.0000
# 2 47.2941 96.3670 50.8462 -0.0005 0.0000 0.0000
# 3 50.8462 50.8462 115.1188 0.0000 0.0000 0.0000
# 4 0.0005 -0.0005 0.0000 23.2294 0.0000 0.0000
# 5 0.0000 0.0000 0.0000 0.0000 23.2294 0.0005
# 6 0.0000 0.0000 0.0000 0.0000 0.0005 24.5365
#
#
#
# Elastic Compliance Matrix: (Units=1/GPa)
#
#
# Indices 1 2 3 4 5 6 
#
# 1 0.015252 -0.005125 -0.004473 0.000000 0.000000 0.000000
# 2 -0.005125 0.015252 -0.004473 0.000000 0.000000 0.000000
# 3 -0.004473 -0.004473 0.012638 0.000000 0.000000 0.000000
# 4 0.000000 0.000000 0.000000 0.043049 0.000000 0.000000
# 5 0.000000 0.000000 0.000000 0.000000 0.043049 -0.000001
# 6 0.000000 0.000000 0.000000 0.000000 -0.000001 0.040756
#
#
# Mechanical properties :
#
#
# Convention : Reuss Voigt Hill
#
# Bulk Modulus (GPa) = 66.66566 67.31398 66.98982
# Shear Modulus (GPa) = 24.61365 24.79011 24.70188
#
# Velocity S-wave (km/s) = 3.82495 3.83864 3.83180
# Velocity P-wave (km/s) = 7.68979 7.72387 7.70685
#
# Compressibility (1/GPa) = 0.01500023
#
# Stress axis : x y z
#
# Youngs Moduli (GPa) = 65.56317 65.56317 79.12654
#
# Poissons Ratio (x) = 0.33604 0.35393
# Poissons Ratio (y) = 0.33604 0.35393
# Poissons Ratio (z) = 0.29326 0.29326
#
# Static dielectric constant tensor:
#      x y z
#    x 2.956340 0.000000 0.000000 
#    y 0.000000 2.956340 0.000000 
#    z 0.000000 0.000000 3.283890 
# 
# 
# High freq. dielectric constant tensor:
#      x y z
#    x 1.620880 0.000000 0.000000 
#    y 0.000000 1.620880 0.000000 
#    z 0.000000 0.000000 1.668480 
# 
# From -- ./inp_files/1147.got.cif
#   From: 2010.03.12/outbox.cif.g09.slc.cpg/sg188_1_cif.got.tgz:1147.got - 2010.04.01 12:01:06.
