data_PCOD8327312
_publ_section_title
;
Structure prediction by ZEFSAII (Michael W. Deem and Ramdas Pophale) SiO2 
 PCOD8327312
Probable space group: P -6 C 2
;
_chemical_formula_sum "Si O2"
_cell_formula_units_Z 48
_cell_length_a 19.054454
_cell_length_b 19.054454
_cell_length_c 8.750377
_cell_angle_alpha 90.000000
_cell_angle_beta 90.000000
_cell_angle_gamma 120.000000
_cell_volume 2751.378971
_symmetry_space_group_name_H-M "P -6 C 2"
_symmetry_group_IT_number 188
_symmetry_cell_setting 'hexagonal'
loop_
_space_group_symop_operation_xyz
x,y,z
-x+y,-x,1/2-z
-y,x-y,z
x,y,1/2-z
-x+y,-x,z
-y,x-y,1/2-z
-y,-x,-z
-x+y,y,-z
x,x-y,-z
-x+y,y,1/2+z
x,x-y,1/2+z
-y,-x,1/2+z
loop_
_atom_site_type_symbol
_atom_site_label
_atom_site_fract_x
_atom_site_fract_y
_atom_site_fract_z
Si Si1 0.142765 0.425831 0.569742
Si Si2 0.342713 0.243697 0.925663
Si Si3 0.058857 0.808442 0.928538
Si Si4 0.428088 0.000549 0.431730
O O1 0.147535 0.438946 0.750000
O O2 0.234126 0.468251 0.500000
O O3 0.097759 0.331719 0.526920
O O4 0.090681 0.462687 0.495667
O O5 0.363000 0.246165 0.750000
O O6 0.245753 0.207717 0.952175
O O7 0.394392 0.335288 0.990146
O O8 0.370530 0.185265 0.000000
O O9 0.080473 0.810494 0.750000
O O10 0.099678 0.900322 0.000000
O O11 0.428653 0.997102 0.250000
O O12 0.517901 0.035801 0.500000
#
# Coordination Sequence:
#
# PCOD8327312 Si02
#       4
#    12  12  12  12
#     4  10  17  27  45  69  95 124 153 188 231 281
#     4   9  19  32  48  71  99 127 164 208 252 301
#     4   9  16  27  43  67  94 120 151 190 232 284
#     4  10  20  34  50  73 100 129 167 212 257 306
#
# _framework density 17.445796999999999
#
# number of rings (size 3 to 8) (size 9 to 14) (size 15 to 20)
#    0.000    2.500    0.000    6.750    0.000    6.000 
#    0.000    0.000    0.000    1.500    0.000    3.500 
#    0.000    0.000    0.000    0.000    0.000    0.000 
#
# Total GULP energy -594671.344438 kJ/mol
# GULP energy per Si atom -12388.986342 kJ/mol
# Density = 1.740609 g / cm^3
# Si number density = 17.445797 Si / 1000 Ang^3
#
#
#
# Elastic Constant Matrix: (Units=GPa)
#
#
# Indices 1 2 3 4 5 6 
#
# 1 89.5583 50.8941 38.7746 -0.0001 0.0000 0.0000
# 2 50.8941 89.5583 38.7746 0.0001 0.0000 0.0000
# 3 38.7746 38.7746 96.5007 0.0000 0.0000 0.0000
# 4 -0.0001 0.0001 0.0000 27.5651 0.0000 0.0000
# 5 0.0000 0.0000 0.0000 0.0000 27.5651 -0.0001
# 6 0.0000 0.0000 0.0000 0.0000 -0.0001 19.3321
#
#
#
# Elastic Compliance Matrix: (Units=1/GPa)
#
#
# Indices 1 2 3 4 5 6 
#
# 1 0.017507 -0.008357 -0.003676 0.000000 0.000000 0.000000
# 2 -0.008357 0.017507 -0.003676 0.000000 0.000000 0.000000
# 3 -0.003676 -0.003676 0.013317 0.000000 0.000000 0.000000
# 4 0.000000 0.000000 0.000000 0.036278 0.000000 0.000000
# 5 0.000000 0.000000 0.000000 0.000000 0.036278 0.000000
# 6 0.000000 0.000000 0.000000 0.000000 0.000000 0.051727
#
#
# Mechanical properties :
#
#
# Convention : Reuss Voigt Hill
#
# Bulk Modulus (GPa) = 59.13371 59.16710 59.15040
# Shear Modulus (GPa) = 23.84701 24.70408 24.27554
#
# Velocity S-wave (km/s) = 3.70120 3.76712 3.73431
# Velocity P-wave (km/s) = 7.22734 7.27393 7.25067
#
# Compressibility (1/GPa) = 0.01691083
#
# Stress axis : x y z
#
# Youngs Moduli (GPa) = 57.12092 57.12092 75.09173
#
# Poissons Ratio (x) = 0.47736 0.27607
# Poissons Ratio (y) = 0.47736 0.27607
# Poissons Ratio (z) = 0.21000 0.21000
#
# Static dielectric constant tensor:
#      x y z
#    x 3.371450 0.000000 0.000000 
#    y 0.000000 3.371450 0.000000 
#    z 0.000000 0.000000 3.256660 
# 
# 
# High freq. dielectric constant tensor:
#      x y z
#    x 1.646670 0.000000 0.000000 
#    y 0.000000 1.646670 0.000000 
#    z 0.000000 0.000000 1.686360 
# 
# From -- ./inp_files/368.got.cif
#   From: 2010.03.12/outbox.cif.g09.slc.cpg/sg188_1_cif.got.tgz:368.got - 2010.04.01 12:01:06.
