data_PCOD8327593
_publ_section_title
;
Structure prediction by ZEFSAII (Michael W. Deem and Ramdas Pophale) SiO2 
 PCOD8327593
Probable space group: P -6 2 M
;
_chemical_formula_sum "Si O2"
_cell_formula_units_Z 72
_cell_length_a 23.647776
_cell_length_b 23.647776
_cell_length_c 9.100457
_cell_angle_alpha 90.000000
_cell_angle_beta 90.000000
_cell_angle_gamma 120.000000
_cell_volume 4407.318531
_symmetry_space_group_name_H-M "P -6 2 M"
_symmetry_group_IT_number 189
_symmetry_cell_setting 'hexagonal'
loop_
_space_group_symop_operation_xyz
x,y,z
-x+y,-x,-z
-y,x-y,z
x,y,-z
-x+y,-x,z
-y,x-y,-z
x-y,-y,-z
-x,-x+y,-z
y,x,-z
y,x,z
x-y,-y,z
-x,-x+y,z
loop_
_atom_site_type_symbol
_atom_site_label
_atom_site_fract_x
_atom_site_fract_y
_atom_site_fract_z
Si Si1 0.850104 0.925102 0.830360
Si Si2 0.743334 0.483480 0.672389
Si Si3 0.926314 0.403990 0.172562
Si Si4 0.852500 0.253906 0.826609
Si Si5 0.924411 0.188722 0.327776
Si Si6 0.408485 0.593307 0.328480
O O1 0.904420 0.904420 0.802529
O O2 0.787159 0.883137 0.729643
O O3 0.880774 0.000000 0.783241
O O4 0.828077 0.914236 0.000000
O O5 0.751753 0.499519 0.500000
O O6 0.769703 0.550497 0.761826
O O7 0.784885 0.450494 0.725154
O O8 0.668239 0.433002 0.712014
O O9 0.900085 0.329156 0.217270
O O10 0.883834 0.431720 0.247546
O O11 0.000000 0.446096 0.230718
O O12 0.922077 0.410823 0.000000
O O13 0.880098 0.211407 0.755197
O O14 0.847496 0.243022 0.000000
O O15 0.910545 0.185286 0.500000
O O16 0.000000 0.238672 0.290446
O O17 0.414473 0.584957 0.500000
#
# Coordination Sequence:
#
# PCOD8327593 Si02
#       6
#    12  12  12  12  12  12
#     4   9  17  30  49  72  97 125 156 189 226 271
#     4   9  17  30  47  69  96 123 152 187 228 274
#     4   9  18  31  46  66  93 122 151 187 230 272
#     4  10  19  31  48  69  93 123 157 192 232 276
#     4  10  20  32  47  69  96 125 156 191 232 276
#     4   9  17  29  47  69  93 122 152 183 222 270
#
# _framework density 16.336462999999998
#
# number of rings (size 3 to 8) (size 9 to 14) (size 15 to 20)
#    0.000    2.667    0.000    2.000    0.000    5.667 
#    0.000    0.000    0.000    4.000    0.000    4.667 
#    0.000    0.000    0.000    0.000    0.000    0.000 
#
# Total GULP energy -892953.324596 kJ/mol
# GULP energy per Si atom -12402.129508 kJ/mol
# Density = 1.629928 g / cm^3
# Si number density = 16.336463 Si / 1000 Ang^3
#
#
#
# Elastic Constant Matrix: (Units=GPa)
#
#
# Indices 1 2 3 4 5 6 
#
# 1 122.7361 68.5886 49.7937 0.0000 0.0000 0.0000
# 2 68.5886 122.7361 49.7937 0.0000 0.0000 0.0000
# 3 49.7937 49.7937 59.3624 0.0000 0.0000 0.0000
# 4 0.0000 0.0000 0.0000 28.3082 0.0000 0.0000
# 5 0.0000 0.0000 0.0000 0.0000 28.3082 0.0000
# 6 0.0000 0.0000 0.0000 0.0000 0.0000 27.0738
#
#
#
# Elastic Compliance Matrix: (Units=1/GPa)
#
#
# Indices 1 2 3 4 5 6 
#
# 1 0.013873 -0.004595 -0.007782 0.000000 0.000000 0.000000
# 2 -0.004595 0.013873 -0.007782 0.000000 0.000000 0.000000
# 3 -0.007782 -0.007782 0.029901 0.000000 0.000000 0.000000
# 4 0.000000 0.000000 0.000000 0.035325 0.000000 0.000000
# 5 0.000000 0.000000 0.000000 0.000000 0.035325 0.000000
# 6 0.000000 0.000000 0.000000 0.000000 0.000000 0.036936
#
#
# Mechanical properties :
#
#
# Convention : Reuss Voigt Hill
#
# Bulk Modulus (GPa) = 57.71083 71.24298 64.47691
# Shear Modulus (GPa) = 23.65998 25.84860 24.75429
#
# Velocity S-wave (km/s) = 3.80977 3.98208 3.89688
# Velocity P-wave (km/s) = 7.39970 8.05277 7.73313
#
# Compressibility (1/GPa) = 0.01732777
#
# Stress axis : x y z
#
# Youngs Moduli (GPa) = 72.08410 72.08410 33.44405
#
# Poissons Ratio (x) = 0.33125 0.26026
# Poissons Ratio (y) = 0.33125 0.26026
# Poissons Ratio (z) = 0.56095 0.56095
#
# Static dielectric constant tensor:
#      x y z
#    x 3.069450 0.000000 0.000000 
#    y 0.000000 3.069450 0.000000 
#    z 0.000000 0.000000 3.061970 
# 
# 
# High freq. dielectric constant tensor:
#      x y z
#    x 1.619800 0.000000 0.000000 
#    y 0.000000 1.619800 0.000000 
#    z 0.000000 0.000000 1.630820 
# 
# From -- ./inp_files/1241.got.cif
#   From: 2010.03.12/outbox.cif.g09.slc.cpg/sg189_1_cif.got.tgz:1241.got - 2010.04.01 12:03:36.
