data_PCOD8327431
_publ_section_title
;
Structure prediction by ZEFSAII (Michael W. Deem and Ramdas Pophale) SiO2 
 PCOD8327431
Probable space group: P -6 C 2
;
_chemical_formula_sum "Si O2"
_cell_formula_units_Z 42
_cell_length_a 10.757857
_cell_length_b 10.757857
_cell_length_c 18.247636
_cell_angle_alpha 90.000000
_cell_angle_beta 90.000000
_cell_angle_gamma 120.000000
_cell_volume 1828.895010
_symmetry_space_group_name_H-M "P -6 C 2"
_symmetry_group_IT_number 188
_symmetry_cell_setting 'hexagonal'
loop_
_space_group_symop_operation_xyz
x,y,z
-x+y,-x,1/2-z
-y,x-y,z
x,y,1/2-z
-x+y,-x,z
-y,x-y,1/2-z
-y,-x,-z
-x+y,y,-z
x,x-y,-z
-x+y,y,1/2+z
x,x-y,1/2+z
-y,-x,1/2+z
loop_
_atom_site_type_symbol
_atom_site_label
_atom_site_fract_x
_atom_site_fract_y
_atom_site_fract_z
Si Si1 0.666398 0.833199 0.500000
Si Si2 0.753935 0.722387 0.250000
Si Si3 0.982525 0.397299 0.905674
Si Si4 0.028151 0.718743 0.250000
Si Si5 0.726907 0.088371 0.910119
O O1 0.569944 0.698486 0.552850
O O2 0.760255 0.791011 0.445656
O O3 0.926859 0.791184 0.250000
O O4 0.704818 0.628295 0.177125
O O5 0.678834 0.818418 0.250000
O O6 0.005456 0.389888 0.818890
O O7 0.855069 0.243403 0.934301
O O8 0.941375 0.512634 0.934724
#
# Coordination Sequence:
#
# PCOD8327431 Si02
#       5
#     6   6  12   6  12
#     4  12  24  42  62  96 136 174 212 260 324 402
#     4  10  20  40  66  98 132 169 219 274 332 388
#     4  11  24  45  70  99 131 172 223 276 331 389
#     4  10  20  40  66  98 132 169 219 274 332 388
#     4  11  24  45  70  99 131 172 223 276 331 389
#
# _framework density 22.964683999999998
#
# number of rings (size 3 to 8) (size 9 to 14) (size 15 to 20)
#    0.000    1.143    2.857    3.429    0.000    0.000 
#   13.714    5.714    0.000    0.000    0.000    0.000 
#    0.000    0.000    0.000    0.000    0.000    0.000 
#
# Total GULP energy -520400.749130 kJ/mol
# GULP energy per Si atom -12390.494027 kJ/mol
# Density = 2.291242 g / cm^3
# Si number density = 22.964684 Si / 1000 Ang^3
#
#
#
# Elastic Constant Matrix: (Units=GPa)
#
#
# Indices 1 2 3 4 5 6 
#
# 1 119.7732 56.0754 25.4030 0.0000 0.0000 0.0000
# 2 56.0754 119.7732 25.4030 0.0000 0.0000 0.0000
# 3 25.4030 25.4030 109.8884 0.0000 0.0000 0.0000
# 4 0.0000 0.0000 0.0000 27.5068 0.0000 0.0000
# 5 0.0000 0.0000 0.0000 0.0000 27.5068 0.0000
# 6 0.0000 0.0000 0.0000 0.0000 0.0000 31.8489
#
#
#
# Elastic Compliance Matrix: (Units=1/GPa)
#
#
# Indices 1 2 3 4 5 6 
#
# 1 0.010896 -0.004803 -0.001409 0.000000 0.000000 0.000000
# 2 -0.004803 0.010896 -0.001409 0.000000 0.000000 0.000000
# 3 -0.001409 -0.001409 0.009751 0.000000 0.000000 0.000000
# 4 0.000000 0.000000 0.000000 0.036355 0.000000 0.000000
# 5 0.000000 0.000000 0.000000 0.000000 0.036355 0.000000
# 6 0.000000 0.000000 0.000000 0.000000 0.000000 0.031398
#
#
# Mechanical properties :
#
#
# Convention : Reuss Voigt Hill
#
# Bulk Modulus (GPa) = 61.33429 62.57754 61.95591
# Shear Modulus (GPa) = 31.98433 33.54275 32.76354
#
# Velocity S-wave (km/s) = 3.73602 3.82596 3.78126
# Velocity P-wave (km/s) = 6.73621 6.84294 6.78979
#
# Compressibility (1/GPa) = 0.01630409
#
# Stress axis : x y z
#
# Youngs Moduli (GPa) = 91.77330 91.77330 102.54902
#
# Poissons Ratio (x) = 0.44076 0.14446
# Poissons Ratio (y) = 0.44076 0.14446
# Poissons Ratio (z) = 0.12928 0.12928
#
# Static dielectric constant tensor:
#      x y z
#    x 3.890390 0.000000 0.000000 
#    y 0.000000 3.890390 0.000000 
#    z 0.000000 0.000000 4.624350 
# 
# 
# High freq. dielectric constant tensor:
#      x y z
#    x 1.887070 0.000000 0.000000 
#    y 0.000000 1.887070 0.000000 
#    z 0.000000 0.000000 1.958760 
# 
# From -- ./inp_files/2944.got.cif
#   From: 2010.03.12/outbox.cif.g09.slc.cpg/sg188_2_cif.got.tgz:2944.got - 2010.04.01 12:01:06.
