data_PCOD8327421
_publ_section_title
;
Structure prediction by ZEFSAII (Michael W. Deem and Ramdas Pophale) SiO2 
 PCOD8327421
Probable space group: P -6 C 2
;
_chemical_formula_sum "Si O2"
_cell_formula_units_Z 64
_cell_length_a 14.458739
_cell_length_b 14.458739
_cell_length_c 17.450860
_cell_angle_alpha 90.000000
_cell_angle_beta 90.000000
_cell_angle_gamma 120.000000
_cell_volume 3159.426834
_symmetry_space_group_name_H-M "P -6 C 2"
_symmetry_group_IT_number 188
_symmetry_cell_setting 'hexagonal'
loop_
_space_group_symop_operation_xyz
x,y,z
-x+y,-x,1/2-z
-y,x-y,z
x,y,1/2-z
-x+y,-x,z
-y,x-y,1/2-z
-y,-x,-z
-x+y,y,-z
x,x-y,-z
-x+y,y,1/2+z
x,x-y,1/2+z
-y,-x,1/2+z
loop_
_atom_site_type_symbol
_atom_site_label
_atom_site_fract_x
_atom_site_fract_y
_atom_site_fract_z
Si Si1 0.666668 0.333334 0.840106
Si Si2 0.393022 0.801812 0.087836
Si Si3 0.599740 0.612605 0.160898
Si Si4 0.070571 0.226822 0.339030
Si Si5 0.835888 0.764868 0.658711
Si Si6 0.761171 0.208331 0.910317
O O1 0.666667 0.333334 0.750000
O O2 0.752304 0.303077 0.870870
O O3 0.265665 0.719226 0.104993
O O4 0.433540 0.909163 0.137952
O O5 0.418991 0.837982 0.000000
O O6 0.607498 0.588070 0.250000
O O7 0.659561 0.739560 0.144297
O O8 0.657024 0.562117 0.111246
O O9 0.073979 0.206515 0.250000
O O10 0.170359 0.220212 0.374353
O O11 0.958423 0.131517 0.370234
O O12 0.828696 0.749201 0.750000
O O13 0.777603 0.649283 0.620508
O O14 0.771540 0.228460 0.000000
#
# Coordination Sequence:
#
# PCOD8327421 Si02
#       6
#     4  12  12  12  12  12
#     4  12  25  47  70  87 109 149 202 264 313 365
#     4   8  18  38  57  84 122 160 197 244 313 379
#     4  10  20  38  61  88 121 157 204 260 301 360
#     4   8  15  28  53  83 114 149 192 245 294 342
#     4   9  16  33  56  85 119 157 202 247 298 356
#     4  11  24  42  59  87 121 160 200 251 314 373
#
# _framework density 20.256837999999998
#
# number of rings (size 3 to 8) (size 9 to 14) (size 15 to 20)
#    0.375    2.250    0.000    3.750    0.000    3.750 
#   10.125    2.812    0.000    0.000    0.000    0.000 
#    0.000    0.000    0.000    0.000    0.000    0.000 
#
# Total GULP energy -793049.153374 kJ/mol
# GULP energy per Si atom -12391.393021 kJ/mol
# Density = 2.021073 g / cm^3
# Si number density = 20.256838 Si / 1000 Ang^3
#
#
#
# Elastic Constant Matrix: (Units=GPa)
#
#
# Indices 1 2 3 4 5 6 
#
# 1 90.6809 26.6574 43.9078 0.0014 0.0005 -0.0020
# 2 26.6574 90.6771 43.9090 -0.0009 -0.0002 0.0002
# 3 43.9078 43.9090 110.5626 -0.0002 -0.0001 0.0000
# 4 0.0014 -0.0009 -0.0002 24.0565 0.0002 0.0004
# 5 0.0005 -0.0002 -0.0001 0.0002 24.0543 -0.0013
# 6 -0.0020 0.0002 0.0000 0.0004 -0.0013 32.0106
#
#
#
# Elastic Compliance Matrix: (Units=1/GPa)
#
#
# Indices 1 2 3 4 5 6 
#
# 1 0.013873 -0.001746 -0.004816 -0.000001 0.000000 0.000001
# 2 -0.001746 0.013874 -0.004816 0.000001 0.000000 0.000000
# 3 -0.004816 -0.004816 0.012870 0.000000 0.000000 0.000000
# 4 -0.000001 0.000001 0.000000 0.041569 0.000000 0.000000
# 5 0.000000 0.000000 0.000000 0.000000 0.041573 0.000002
# 6 0.000001 0.000000 0.000000 0.000000 0.000002 0.031240
#
#
# Mechanical properties :
#
#
# Convention : Reuss Voigt Hill
#
# Bulk Modulus (GPa) = 55.99234 57.87433 56.93333
# Shear Modulus (GPa) = 27.21713 27.85403 27.53558
#
# Velocity S-wave (km/s) = 3.66949 3.71218 3.69090
# Velocity P-wave (km/s) = 6.75683 6.85609 6.80664
#
# Compressibility (1/GPa) = 0.01785959
#
# Stress axis : x y z
#
# Youngs Moduli (GPa) = 72.08316 72.07844 77.70070
#
# Poissons Ratio (x) = 0.12588 0.37419
# Poissons Ratio (y) = 0.12589 0.37423
# Poissons Ratio (z) = 0.34714 0.34715
#
# Static dielectric constant tensor:
#      x y z
#    x 3.654440 0.000000 0.000000 
#    y 0.000000 3.654440 0.000000 
#    z 0.000000 0.000000 3.343260 
# 
# 
# High freq. dielectric constant tensor:
#      x y z
#    x 1.786400 0.000000 0.000000 
#    y 0.000000 1.786400 0.000000 
#    z 0.000000 0.000000 1.766160 
# 
# From -- ./inp_files/3092.got.cif
#   From: 2010.03.12/outbox.cif.g09.slc.cpg/sg188_2_cif.got.tgz:3092.got - 2010.04.01 12:01:06.
