data_PCOD8327256
_publ_section_title
;
Structure prediction by ZEFSAII (Michael W. Deem and Ramdas Pophale) SiO2 
 PCOD8327256
Probable space group: P -6 M 2
;
_chemical_formula_sum "Si O2"
_cell_formula_units_Z 84
_cell_length_a 18.030066
_cell_length_b 18.030066
_cell_length_c 15.132091
_cell_angle_alpha 90.000000
_cell_angle_beta 90.000000
_cell_angle_gamma 120.000000
_cell_volume 4260.143311
_symmetry_space_group_name_H-M "P -6 M 2"
_symmetry_group_IT_number 187
_symmetry_cell_setting 'hexagonal'
loop_
_space_group_symop_operation_xyz
x,y,z
-x+y,-x,-z
-y,x-y,z
x,y,-z
-x+y,-x,z
-y,x-y,-z
-y,-x,-z
-x+y,y,-z
x,x-y,-z
-x+y,y,z
x,x-y,z
-y,-x,z
loop_
_atom_site_type_symbol
_atom_site_label
_atom_site_fract_x
_atom_site_fract_y
_atom_site_fract_z
Si Si1 0.831499 0.329502 0.194621
Si Si2 0.172312 0.000046 0.898607
Si Si3 0.048528 0.435689 0.000000
Si Si4 0.689854 0.759727 0.401491
Si Si5 0.757715 0.690645 0.751830
Si Si6 0.163451 0.497526 0.355100
Si Si7 0.502525 0.666297 0.154460
Si Si8 0.651524 0.517812 0.000000
O O1 0.852404 0.426202 0.215534
O O2 0.740303 0.259698 0.237856
O O3 0.908429 0.316654 0.231451
O O4 0.816502 0.305854 0.090003
O O5 0.148455 0.074228 0.885179
O O6 0.251404 0.016526 0.836001
O O7 0.199347 0.998365 0.000000
O O8 0.089536 0.910465 0.872082
O O9 0.092215 0.429107 0.910322
O O10 0.047040 0.523520 0.000000
O O11 0.956310 0.350429 0.000000
O O12 0.727857 0.766616 0.500000
O O13 0.704360 0.852180 0.370163
O O14 0.736133 0.727212 0.334971
O O15 0.588092 0.692765 0.409632
O O16 0.846821 0.693641 0.734520
O O17 0.263952 0.527904 0.363601
O O18 0.150727 0.575364 0.389135
O O19 0.131930 0.472652 0.254365
O O20 0.508095 0.754048 0.133205
O O21 0.406721 0.593280 0.132874
O O22 0.553746 0.446255 0.000000
#
# Coordination Sequence:
#
# PCOD8327256 Si02
#       8
#    12  12   6  12  12  12  12   6
#     4  10  21  37  58  82 110 146 190 240 293 348
#     4   9  17  31  54  84 119 155 189 222 262 321
#     4   9  17  26  38  62  94 133 176 219 266 312
#     4  10  22  40  60  82 111 148 189 231 276 330
#     4  10  22  37  58  87 115 147 184 230 287 340
#     4   9  18  32  52  77 106 141 183 230 275 318
#     4   9  16  26  41  62  93 135 183 229 270 313
#     4   9  19  32  48  70 100 139 183 231 279 328
#
# _framework density 19.717645999999998
#
# number of rings (size 3 to 8) (size 9 to 14) (size 15 to 20)
#    0.000    2.571    0.000    1.429    3.000    2.857 
#    0.000    1.429    0.000    1.143    0.000    0.000 
#    0.000    1.143    0.000    0.000    0.000    0.714 
#
# Total GULP energy -1041035.811767 kJ/mol
# GULP energy per Si atom -12393.283473 kJ/mol
# Density = 1.967277 g / cm^3
# Si number density = 19.717646 Si / 1000 Ang^3
#
#
#
# Elastic Constant Matrix: (Units=GPa)
#
#
# Indices 1 2 3 4 5 6 
#
# 1 95.3471 56.1941 45.0290 0.0000 -0.0002 0.0000
# 2 56.1941 95.3471 45.0290 0.0000 0.0002 0.0000
# 3 45.0290 45.0290 88.5896 0.0000 0.0000 0.0000
# 4 0.0000 0.0000 0.0000 19.3656 0.0000 0.0002
# 5 -0.0002 0.0002 0.0000 0.0000 19.3656 0.0000
# 6 0.0000 0.0000 0.0000 0.0002 0.0000 19.5765
#
#
#
# Elastic Compliance Matrix: (Units=1/GPa)
#
#
# Indices 1 2 3 4 5 6 
#
# 1 0.017498 -0.008043 -0.004806 0.000000 0.000000 0.000000
# 2 -0.008043 0.017498 -0.004806 0.000000 0.000000 0.000000
# 3 -0.004806 -0.004806 0.016173 0.000000 0.000000 0.000000
# 4 0.000000 0.000000 0.000000 0.051638 0.000000 -0.000001
# 5 0.000000 0.000000 0.000000 0.000000 0.051638 0.000000
# 6 0.000000 0.000000 0.000000 -0.000001 0.000000 0.051082
#
#
# Mechanical properties :
#
#
# Convention : Reuss Voigt Hill
#
# Bulk Modulus (GPa) = 63.05165 63.53200 63.29183
# Shear Modulus (GPa) = 20.31507 20.53030 20.42269
#
# Velocity S-wave (km/s) = 3.21331 3.23029 3.22181
# Velocity P-wave (km/s) = 6.76859 6.79734 6.78298
#
# Compressibility (1/GPa) = 0.01586001
#
# Stress axis : x y z
#
# Youngs Moduli (GPa) = 57.14988 57.14988 61.82975
#
# Poissons Ratio (x) = 0.45966 0.29714
# Poissons Ratio (y) = 0.45966 0.29714
# Poissons Ratio (z) = 0.27465 0.27465
#
# Static dielectric constant tensor:
#      x y z
#    x 3.517600 0.000000 0.000000 
#    y 0.000000 3.517600 0.000000 
#    z 0.000000 0.000000 3.451940 
# 
# 
# High freq. dielectric constant tensor:
#      x y z
#    x 1.764930 0.000000 0.000000 
#    y 0.000000 1.764930 0.000000 
#    z 0.000000 0.000000 1.747080 
# 
# From -- ./inp_files/2659.got.cif
#   From: 2010.03.12/outbox.cif.g09.slc.cpg/sg187_2_cif.got.tgz:2659.got - 2010.04.01 11:58:23.
