data_PCOD8327602
_publ_section_title
;
Structure prediction by ZEFSAII (Michael W. Deem and Ramdas Pophale) SiO2 
 PCOD8327602
Probable space group: P -6 2 M
;
_chemical_formula_sum "Si O2"
_cell_formula_units_Z 54
_cell_length_a 18.045831
_cell_length_b 18.045831
_cell_length_c 10.693688
_cell_angle_alpha 90.000000
_cell_angle_beta 90.000000
_cell_angle_gamma 120.000000
_cell_volume 3015.865105
_symmetry_space_group_name_H-M "P -6 2 M"
_symmetry_group_IT_number 189
_symmetry_cell_setting 'hexagonal'
loop_
_space_group_symop_operation_xyz
x,y,z
-x+y,-x,-z
-y,x-y,z
x,y,-z
-x+y,-x,z
-y,x-y,-z
x-y,-y,-z
-x,-x+y,-z
y,x,-z
y,x,z
x-y,-y,z
-x,-x+y,z
loop_
_atom_site_type_symbol
_atom_site_label
_atom_site_fract_x
_atom_site_fract_y
_atom_site_fract_z
Si Si1 0.476701 0.100360 0.862495
Si Si2 0.898499 0.476881 0.640668
Si Si3 0.095354 0.194512 0.000000
Si Si4 0.906434 0.645400 0.645686
Si Si5 0.903193 0.213921 0.782415
O O1 0.542927 0.141253 0.745945
O O2 0.399546 0.119360 0.846400
O O3 0.441857 0.000000 0.862613
O O4 0.518835 0.137170 0.000000
O O5 0.861681 0.441335 0.500000
O O6 0.874556 0.547736 0.687248
O O7 0.000000 0.518601 0.633787
O O8 0.109117 0.251620 0.880039
O O9 0.164283 0.164283 0.000000
O O10 0.000000 0.112806 0.000000
O O11 0.919920 0.649559 0.500000
O O12 0.835753 0.671890 0.673421
O O13 0.000000 0.710104 0.706901
O O14 0.000000 0.263230 0.727700
#
# Coordination Sequence:
#
# PCOD8327602 Si02
#       5
#    12  12   6  12  12
#     4   9  16  29  47  70 101 128 154 202 263 315
#     4   8  15  29  49  70  93 123 158 197 250 318
#     4  10  19  32  48  68  98 140 188 230 271 320
#     4   9  18  33  50  71 102 136 174 225 273 317
#     4  10  19  31  49  73 103 138 176 224 277 319
#
# _framework density 17.905308999999999
#
# number of rings (size 3 to 8) (size 9 to 14) (size 15 to 20)
#    0.000    2.889    1.111    2.111    0.000    1.333 
#    2.000    2.222    0.000    1.333    0.000    0.000 
#    0.000    0.000    0.000    0.000    0.000    0.000 
#
# Total GULP energy -669023.999510 kJ/mol
# GULP energy per Si atom -12389.333324 kJ/mol
# Density = 1.786456 g / cm^3
# Si number density = 17.905309 Si / 1000 Ang^3
#
#
#
# Elastic Constant Matrix: (Units=GPa)
#
#
# Indices 1 2 3 4 5 6 
#
# 1 85.1655 42.1845 44.7298 0.0000 0.0000 0.0000
# 2 42.1845 85.1655 44.7298 0.0000 0.0000 0.0000
# 3 44.7298 44.7298 81.0089 0.0000 0.0000 0.0000
# 4 0.0000 0.0000 0.0000 -5.5160 0.0000 0.0000
# 5 0.0000 0.0000 0.0000 0.0000 -5.5160 0.0000
# 6 0.0000 0.0000 0.0000 0.0000 0.0000 21.4905
#
#
#
# Elastic Compliance Matrix: (Units=1/GPa)
#
#
# Indices 1 2 3 4 5 6 
#
# 1 0.018047 -0.005219 -0.007083 0.000000 0.000000 0.000000
# 2 -0.005219 0.018047 -0.007083 0.000000 0.000000 0.000000
# 3 -0.007083 -0.007083 0.020166 0.000000 0.000000 0.000000
# 4 0.000000 0.000000 0.000000 -0.181290 0.000000 0.000000
# 5 0.000000 0.000000 0.000000 0.000000 -0.181290 0.000000
# 6 0.000000 0.000000 0.000000 0.000000 0.000000 0.046532
#
#
# Mechanical properties :
#
#
# Convention : Reuss Voigt Hill
#
# Bulk Modulus (GPa) = 57.17565 57.18087 57.17826
# Shear Modulus (GPa) = -23.23562 10.07141 -6.58211
#
# Velocity S-wave (km/s) = -3.60626 2.37424 -1.91939
# Velocity P-wave (km/s) = 3.82902 6.28653 5.20490
#
# Compressibility (1/GPa) = 0.01748996
#
# Stress axis : x y z
#
# Youngs Moduli (GPa) = 55.41060 55.41060 49.58751
#
# Poissons Ratio (x) = 0.28919 0.35124
# Poissons Ratio (y) = 0.28919 0.35124
# Poissons Ratio (z) = 0.39248 0.39248
#
# Static dielectric constant tensor:
#      x y z
#    x 3.259900 0.000000 0.000000 
#    y 0.000000 3.259900 0.000000 
#    z 0.000000 0.000000 3.443130 
# 
# 
# High freq. dielectric constant tensor:
#      x y z
#    x 1.672060 0.000000 0.000000 
#    y 0.000000 1.672060 0.000000 
#    z 0.000000 0.000000 1.689250 
# 
# From -- ./inp_files/1820.got.cif
#   From: 2010.03.12/outbox.cif.g09.slc.cpg/sg189_1_cif.got.tgz:1820.got - 2010.04.01 12:03:36.
