data_PCOD8327488
_publ_section_title
;
Structure prediction by ZEFSAII (Michael W. Deem and Ramdas Pophale) SiO2 
 PCOD8327488
Probable space group: P -6 2 M
;
_chemical_formula_sum "Si O2"
_cell_formula_units_Z 46
_cell_length_a 14.569622
_cell_length_b 14.569622
_cell_length_c 15.088962
_cell_angle_alpha 90.000000
_cell_angle_beta 90.000000
_cell_angle_gamma 120.000000
_cell_volume 2773.872949
_symmetry_space_group_name_H-M "P -6 2 M"
_symmetry_group_IT_number 189
_symmetry_cell_setting 'hexagonal'
loop_
_space_group_symop_operation_xyz
x,y,z
-x+y,-x,-z
-y,x-y,z
x,y,-z
-x+y,-x,z
-y,x-y,-z
x-y,-y,-z
-x,-x+y,-z
y,x,-z
y,x,z
x-y,-y,z
-x,-x+y,z
loop_
_atom_site_type_symbol
_atom_site_label
_atom_site_fract_x
_atom_site_fract_y
_atom_site_fract_z
Si Si1 0.591071 0.392614 0.500000
Si Si2 0.543656 0.116675 0.689477
Si Si3 0.874994 0.124341 0.102362
Si Si4 0.219492 0.753751 0.209167
Si Si5 0.666668 0.333334 0.898484
O O1 0.719771 0.453759 0.500000
O O2 0.550062 0.423094 0.412898
O O3 0.494009 0.190426 0.711594
O O4 0.641376 0.133259 0.750959
O O5 0.449652 0.000000 0.708582
O O6 0.819346 0.166853 0.170483
O O7 0.000000 0.184913 0.122719
O O8 0.828122 0.000000 0.120077
O O9 0.854280 0.143175 0.000000
O O10 0.283663 0.738083 0.130549
O O11 0.666667 0.333334 0.000000
#
# Coordination Sequence:
#
# PCOD8327488 Si02
#       5
#     6  12  12  12   4
#     4  10  17  34  52  68 100 128 152 196 235 280
#     4  11  20  32  52  73  98 130 156 189 242 290
#     4  10  20  34  51  70  95 129 170 213 251 285
#     4  10  19  33  48  73 101 126 159 203 234 287
#     4   9  18  30  48  70  98 133 159 183 237 291
#
# _framework density 16.583310999999998
#
# number of rings (size 3 to 8) (size 9 to 14) (size 15 to 20)
#    0.261    1.565    2.609    3.522    0.000    1.043 
#    0.000    0.000    0.000   12.522    0.000    0.000 
#    0.000    0.000    0.000   11.217    0.000    0.000 
#
# Total GULP energy -570141.108668 kJ/mol
# GULP energy per Si atom -12394.371928 kJ/mol
# Density = 1.654557 g / cm^3
# Si number density = 16.583311 Si / 1000 Ang^3
#
#
#
# Elastic Constant Matrix: (Units=GPa)
#
#
# Indices 1 2 3 4 5 6 
#
# 1 81.6921 16.8558 24.6683 0.0000 0.0000 0.0000
# 2 16.8558 81.6927 24.6680 0.0000 0.0000 0.0000
# 3 24.6683 24.6680 91.8408 -0.0001 -0.0001 -0.0002
# 4 0.0000 0.0000 -0.0001 21.0027 0.0000 0.0000
# 5 0.0000 0.0000 -0.0001 0.0000 21.0026 0.0000
# 6 0.0000 0.0000 -0.0002 0.0000 0.0000 32.4183
#
#
#
# Elastic Compliance Matrix: (Units=1/GPa)
#
#
# Indices 1 2 3 4 5 6 
#
# 1 0.013574 -0.001850 -0.003149 0.000000 0.000000 0.000000
# 2 -0.001850 0.013574 -0.003149 0.000000 0.000000 0.000000
# 3 -0.003149 -0.003149 0.012580 0.000000 0.000000 0.000000
# 4 0.000000 0.000000 0.000000 0.047613 0.000000 0.000000
# 5 0.000000 0.000000 0.000000 0.000000 0.047613 0.000000
# 6 0.000000 0.000000 0.000000 0.000000 0.000000 0.030847
#
#
# Mechanical properties :
#
#
# Convention : Reuss Voigt Hill
#
# Bulk Modulus (GPa) = 42.67721 43.06775 42.87248
# Shear Modulus (GPa) = 26.32878 27.48695 26.90787
#
# Velocity S-wave (km/s) = 3.98888 4.07567 4.03250
# Velocity P-wave (km/s) = 6.85607 6.94082 6.89858
#
# Compressibility (1/GPa) = 0.02343171
#
# Stress axis : x y z
#
# Youngs Moduli (GPa) = 73.67211 73.67284 79.49116
#
# Poissons Ratio (x) = 0.13628 0.25032
# Poissons Ratio (y) = 0.13628 0.25031
# Poissons Ratio (z) = 0.23199 0.23199
#
# Static dielectric constant tensor:
#      x y z
#    x 2.934250 0.000000 0.000000 
#    y 0.000000 2.934260 0.000000 
#    z 0.000000 0.000000 3.019230 
# 
# 
# High freq. dielectric constant tensor:
#      x y z
#    x 1.634790 0.000000 0.000000 
#    y 0.000000 1.634790 0.000000 
#    z 0.000000 0.000000 1.639450 
# 
# From -- ./inp_files/1714.got.cif
#   From: 2010.03.12/outbox.cif.g09.slc.cpg/sg189_1_cif.got.tgz:1714.got - 2010.04.01 12:03:36.
