data_PCOD8327767
_publ_section_title
;
Structure prediction by ZEFSAII (Michael W. Deem and Ramdas Pophale) SiO2 
 PCOD8327767
Probable space group: P -6 2 M
;
_chemical_formula_sum "Si O2"
_cell_formula_units_Z 84
_cell_length_a 18.908708
_cell_length_b 18.908708
_cell_length_c 13.832874
_cell_angle_alpha 90.000000
_cell_angle_beta 90.000000
_cell_angle_gamma 120.000000
_cell_volume 4283.184313
_symmetry_space_group_name_H-M "P -6 2 M"
_symmetry_group_IT_number 189
_symmetry_cell_setting 'hexagonal'
loop_
_space_group_symop_operation_xyz
x,y,z
-x+y,-x,-z
-y,x-y,z
x,y,-z
-x+y,-x,z
-y,x-y,-z
x-y,-y,-z
-x,-x+y,-z
y,x,-z
y,x,z
x-y,-y,z
-x,-x+y,z
loop_
_atom_site_type_symbol
_atom_site_label
_atom_site_fract_x
_atom_site_fract_y
_atom_site_fract_z
Si Si1 0.907957 0.237618 0.297988
Si Si2 0.330787 0.826969 0.386642
Si Si3 0.587450 0.497836 0.112990
Si Si4 0.601963 0.769053 0.112384
Si Si5 0.513260 0.338546 0.386950
Si Si6 0.341563 0.433393 0.885501
Si Si7 0.332880 0.241831 0.385368
O O1 0.885243 0.306031 0.329820
O O2 0.899363 0.226537 0.181243
O O3 0.849193 0.151360 0.348515
O O4 0.000000 0.265606 0.328610
O O5 0.333444 0.846983 0.500000
O O6 0.267237 0.731886 0.367070
O O7 0.417803 0.843595 0.344080
O O8 0.567557 0.567557 0.152608
O O9 0.680750 0.521188 0.131983
O O10 0.521935 0.409261 0.156797
O O11 0.570343 0.490273 0.000000
O O12 0.585531 0.839341 0.153542
O O13 0.629269 0.779542 0.000000
O O14 0.512374 0.353453 0.500000
O O15 0.422658 0.308191 0.343337
O O16 0.364041 0.364041 0.854498
O O17 0.336564 0.436049 0.000000
O O18 0.339834 0.240353 0.500000
O O19 0.268210 0.268210 0.351492
#
# Coordination Sequence:
#
# PCOD8327767 Si02
#       7
#    12  12  12  12  12  12  12
#     4  11  23  36  52  80 111 139 177 225 276 326
#     4   9  17  31  52  78 109 143 177 215 263 316
#     4   8  14  28  49  68  92 131 173 215 266 317
#     4  10  20  35  53  74 103 142 187 231 274 325
#     4   8  14  27  50  78 108 143 177 210 252 307
#     4   8  15  30  52  75  97 127 173 227 279 323
#     4   9  19  37  59  81 107 141 178 217 269 331
#
# _framework density 19.611577
#
# number of rings (size 3 to 8) (size 9 to 14) (size 15 to 20)
#    0.000    3.000    0.000    2.857    0.000    4.286 
#    6.000    1.429    0.000    0.286    0.000    0.000 
#    0.000    0.000    0.000    0.000    0.000    0.000 
#
# Total GULP energy -1040861.046404 kJ/mol
# GULP energy per Si atom -12391.202933 kJ/mol
# Density = 1.956694 g / cm^3
# Si number density = 19.611577 Si / 1000 Ang^3
#
#
#
# Elastic Constant Matrix: (Units=GPa)
#
#
# Indices 1 2 3 4 5 6 
#
# 1 129.4496 81.4397 24.3280 0.0000 0.0000 0.0000
# 2 81.4397 129.4496 24.3280 0.0000 0.0000 0.0000
# 3 24.3280 24.3280 44.1970 0.0000 0.0000 0.0000
# 4 0.0000 0.0000 0.0000 15.9237 0.0000 0.0000
# 5 0.0000 0.0000 0.0000 0.0000 15.9237 0.0000
# 6 0.0000 0.0000 0.0000 0.0000 0.0000 24.0050
#
#
#
# Elastic Compliance Matrix: (Units=1/GPa)
#
#
# Indices 1 2 3 4 5 6 
#
# 1 0.013130 -0.007699 -0.002990 0.000000 0.000000 0.000000
# 2 -0.007699 0.013130 -0.002990 0.000000 0.000000 0.000000
# 3 -0.002990 -0.002990 0.025917 0.000000 0.000000 0.000000
# 4 0.000000 0.000000 0.000000 0.062799 0.000000 0.000000
# 5 0.000000 0.000000 0.000000 0.000000 0.062799 0.000000
# 6 0.000000 0.000000 0.000000 0.000000 0.000000 0.041658
#
#
# Mechanical properties :
#
#
# Convention : Reuss Voigt Hill
#
# Bulk Modulus (GPa) = 40.28779 62.58753 51.43766
# Shear Modulus (GPa) = 19.60284 22.70386 21.15335
#
# Velocity S-wave (km/s) = 3.16500 3.40616 3.28779
# Velocity P-wave (km/s) = 5.82613 6.88854 6.37949
#
# Compressibility (1/GPa) = 0.02482142
#
# Stress axis : x y z
#
# Youngs Moduli (GPa) = 76.15956 76.15956 38.58412
#
# Poissons Ratio (x) = 0.58633 0.11536
# Poissons Ratio (y) = 0.58633 0.11536
# Poissons Ratio (z) = 0.22770 0.22770
#
# Static dielectric constant tensor:
#      x y z
#    x 3.569850 0.000000 0.000000 
#    y 0.000000 3.569850 0.000000 
#    z 0.000000 0.000000 3.485450 
# 
# 
# High freq. dielectric constant tensor:
#      x y z
#    x 1.741390 0.000000 0.000000 
#    y 0.000000 1.741390 0.000000 
#    z 0.000000 0.000000 1.769690 
# 
# From -- ./inp_files/2832.got.cif
#   From: 2010.03.12/outbox.cif.g09.slc.cpg/sg189_2_cif.got.tgz:2832.got - 2010.04.01 12:03:36.
