data_PCOD8327369
_publ_section_title
;
Structure prediction by ZEFSAII (Michael W. Deem and Ramdas Pophale) SiO2 
 PCOD8327369
Probable space group: P -6 C 2
;
_chemical_formula_sum "Si O2"
_cell_formula_units_Z 58
_cell_length_a 14.082927
_cell_length_b 14.082927
_cell_length_c 14.998885
_cell_angle_alpha 90.000000
_cell_angle_beta 90.000000
_cell_angle_gamma 120.000000
_cell_volume 2576.175604
_symmetry_space_group_name_H-M "P -6 C 2"
_symmetry_group_IT_number 188
_symmetry_cell_setting 'hexagonal'
loop_
_space_group_symop_operation_xyz
x,y,z
-x+y,-x,1/2-z
-y,x-y,z
x,y,1/2-z
-x+y,-x,z
-y,x-y,1/2-z
-y,-x,-z
-x+y,y,-z
x,x-y,-z
-x+y,y,1/2+z
x,x-y,1/2+z
-y,-x,1/2+z
loop_
_atom_site_type_symbol
_atom_site_label
_atom_site_fract_x
_atom_site_fract_y
_atom_site_fract_z
Si Si1 0.436321 0.237230 0.151192
Si Si2 0.666668 0.333334 0.396284
Si Si3 0.237012 0.315403 0.931146
Si Si4 0.859398 0.140603 0.500000
Si Si5 0.075414 0.511449 0.750000
Si Si6 0.175931 0.771768 0.750000
Si Si7 0.569137 0.520524 0.090801
O O1 0.391591 0.239455 0.250000
O O2 0.560884 0.341227 0.138602
O O3 0.355092 0.233237 0.074313
O O4 0.450237 0.132019 0.139576
O O5 0.666668 0.333334 0.500000
O O6 0.195286 0.320717 0.832618
O O7 0.362141 0.411656 0.941233
O O8 0.174150 0.348299 0.000000
O O9 0.213545 0.190761 0.951783
O O10 0.139382 0.643437 0.750000
O O11 0.159265 0.466678 0.750000
O O12 0.997110 0.465477 0.838151
O O13 0.549221 0.450780 0.000000
#
# Coordination Sequence:
#
# PCOD8327369 Si02
#       7
#    12   4  12   6   6   6  12
#     4  11  22  39  58  86 123 164 206 254 309 377
#     4  12  22  38  52  82 128 163 202 251 292 373
#     4  10  22  42  60  92 124 168 217 283 334 392
#     4  10  24  40  66  86 120 168 212 274 326 390
#     4  10  19  36  58  94 124 172 200 263 317 399
#     4  10  21  38  66  94 138 164 220 265 335 405
#     4  10  20  35  61  87 125 163 208 255 323 394
#
# _framework density 22.513991999999998
#
# number of rings (size 3 to 8) (size 9 to 14) (size 15 to 20)
#    0.000    1.655    2.069    2.690    7.241    0.000 
#    2.483    0.000    0.000    6.621    0.000    0.000 
#    0.000    0.000    0.000    0.000    0.000    0.000 
#
# Total GULP energy -718969.685634 kJ/mol
# GULP energy per Si atom -12396.029063 kJ/mol
# Density = 2.246275 g / cm^3
# Si number density = 22.513992 Si / 1000 Ang^3
#
#
#
# Elastic Constant Matrix: (Units=GPa)
#
#
# Indices 1 2 3 4 5 6 
#
# 1 60.0971 4.2250 32.9629 0.0000 -0.0001 -0.0001
# 2 4.2250 60.0965 32.9628 0.0000 0.0000 0.0000
# 3 32.9629 32.9628 185.1705 0.0000 0.0001 0.0000
# 4 0.0000 0.0000 0.0000 36.7167 0.0000 0.0000
# 5 -0.0001 0.0000 0.0001 0.0000 36.7166 -0.0001
# 6 -0.0001 0.0000 0.0000 0.0000 -0.0001 27.9360
#
#
#
# Elastic Compliance Matrix: (Units=1/GPa)
#
#
# Indices 1 2 3 4 5 6 
#
# 1 0.018457 0.000559 -0.003385 0.000000 0.000000 0.000000
# 2 0.000559 0.018457 -0.003385 0.000000 0.000000 0.000000
# 3 -0.003385 -0.003385 0.006606 0.000000 0.000000 0.000000
# 4 0.000000 0.000000 0.000000 0.027236 0.000000 0.000000
# 5 0.000000 0.000000 0.000000 0.000000 0.027236 0.000000
# 6 0.000000 0.000000 0.000000 0.000000 0.000000 0.035796
#
#
# Mechanical properties :
#
#
# Convention : Reuss Voigt Hill
#
# Bulk Modulus (GPa) = 32.15669 49.51841 40.83755
# Shear Modulus (GPa) = 31.93342 35.95476 33.94409
#
# Velocity S-wave (km/s) = 3.77023 4.00058 3.88711
# Velocity P-wave (km/s) = 5.76774 6.58648 6.19066
#
# Compressibility (1/GPa) = 0.03109773
#
# Stress axis : x y z
#
# Youngs Moduli (GPa) = 54.17951 54.17896 151.38573
#
# Poissons Ratio (x) = -0.03029 0.51247
# Poissons Ratio (y) = -0.03029 0.51247
# Poissons Ratio (z) = 0.18341 0.18341
#
# Static dielectric constant tensor:
#      x y z
#    x 4.133600 0.000000 0.000000 
#    y 0.000000 4.133600 0.000000 
#    z 0.000000 0.000000 4.428850 
# 
# 
# High freq. dielectric constant tensor:
#      x y z
#    x 1.872350 0.000000 0.000000 
#    y 0.000000 1.872350 0.000000 
#    z 0.000000 0.000000 1.908420 
# 
# From -- ./inp_files/2346.got.cif
#   From: 2010.03.12/outbox.cif.g09.slc.cpg/sg188_2_cif.got.tgz:2346.got - 2010.04.01 12:01:06.
