data_PCOD8327448
_publ_section_title
;
Structure prediction by ZEFSAII (Michael W. Deem and Ramdas Pophale) SiO2 
 PCOD8327448
Probable space group: P -6 C 2
;
_chemical_formula_sum "Si O2"
_cell_formula_units_Z 66
_cell_length_a 20.073442
_cell_length_b 20.073442
_cell_length_c 9.298899
_cell_angle_alpha 90.000000
_cell_angle_beta 90.000000
_cell_angle_gamma 120.000000
_cell_volume 3244.933921
_symmetry_space_group_name_H-M "P -6 C 2"
_symmetry_group_IT_number 188
_symmetry_cell_setting 'hexagonal'
loop_
_space_group_symop_operation_xyz
x,y,z
-x+y,-x,1/2-z
-y,x-y,z
x,y,1/2-z
-x+y,-x,z
-y,x-y,1/2-z
-y,-x,-z
-x+y,y,-z
x,x-y,-z
-x+y,y,1/2+z
x,x-y,1/2+z
-y,-x,1/2+z
loop_
_atom_site_type_symbol
_atom_site_label
_atom_site_fract_x
_atom_site_fract_y
_atom_site_fract_z
Si Si1 0.468336 0.802684 0.424284
Si Si2 0.336029 0.072654 0.088404
Si Si3 0.766888 0.233113 0.000000
Si Si4 0.689954 0.427796 0.750000
Si Si5 0.129346 0.870655 0.000000
Si Si6 0.616842 0.908139 0.908719
Si Si7 0.963073 0.808681 0.089671
O O1 0.459381 0.795869 0.250000
O O2 0.417155 0.834309 0.500000
O O3 0.442012 0.721006 0.500000
O O4 0.556943 0.861152 0.465003
O O5 0.304309 0.067016 0.250000
O O6 0.347023 0.998783 0.060700
O O7 0.416738 0.150022 0.072170
O O8 0.276408 0.072199 0.975036
O O9 0.777497 0.297565 0.887295
O O10 0.751125 0.396435 0.750000
O O11 0.109231 0.796499 0.904044
O O12 0.146513 0.944639 0.905640
O O13 0.577331 0.885053 0.750000
O O14 0.931836 0.799369 0.250000
O O15 0.926033 0.852066 0.000000
#
# Coordination Sequence:
#
# PCOD8327448 Si02
#       7
#    12  12   6   6   6  12  12
#     4  12  25  43  67  96 130 171 214 261 314 377
#     4  10  22  38  61  97 127 165 208 266 317 385
#     4  12  20  40  68  91 124 168 208 261 324 374
#     4  10  24  42  64  92 122 158 212 264 312 388
#     4  10  22  40  66  93 126 172 220 271 324 386
#     4  10  21  40  65  93 128 162 213 267 325 381
#     4  11  23  38  61  93 132 171 222 271 322 379
#
# _framework density 20.339397999999999
#
# number of rings (size 3 to 8) (size 9 to 14) (size 15 to 20)
#    0.182    1.091    2.727    3.455    1.273    5.091 
#    0.545    1.818    0.000    0.000    0.000    0.000 
#    0.000    0.000    0.000    0.000    0.000    0.000 
#
# Total GULP energy -818131.051341 kJ/mol
# GULP energy per Si atom -12395.925020 kJ/mol
# Density = 2.029310 g / cm^3
# Si number density = 20.339398 Si / 1000 Ang^3
#
#
#
# Elastic Constant Matrix: (Units=GPa)
#
#
# Indices 1 2 3 4 5 6 
#
# 1 90.2232 35.5644 36.8875 -0.0001 0.0000 0.0000
# 2 35.5644 90.2232 36.8875 0.0001 0.0000 0.0000
# 3 36.8875 36.8875 163.9133 0.0000 0.0000 0.0000
# 4 -0.0001 0.0001 0.0000 28.2900 0.0000 0.0000
# 5 0.0000 0.0000 0.0000 0.0000 28.2900 -0.0001
# 6 0.0000 0.0000 0.0000 0.0000 -0.0001 27.3294
#
#
#
# Elastic Compliance Matrix: (Units=1/GPa)
#
#
# Indices 1 2 3 4 5 6 
#
# 1 0.013727 -0.004568 -0.002061 0.000000 0.000000 0.000000
# 2 -0.004568 0.013727 -0.002061 0.000000 0.000000 0.000000
# 3 -0.002061 -0.002061 0.007028 0.000000 0.000000 0.000000
# 4 0.000000 0.000000 0.000000 0.035348 0.000000 0.000000
# 5 0.000000 0.000000 0.000000 0.000000 0.035348 0.000000
# 6 0.000000 0.000000 0.000000 0.000000 0.000000 0.036591
#
#
# Mechanical properties :
#
#
# Convention : Reuss Voigt Hill
#
# Bulk Modulus (GPa) = 58.47430 62.55985 60.51708
# Shear Modulus (GPa) = 30.33042 32.44990 31.39016
#
# Velocity S-wave (km/s) = 3.86581 3.99861 3.93277
# Velocity P-wave (km/s) = 6.98124 7.22102 7.10214
#
# Compressibility (1/GPa) = 0.01710153
#
# Stress axis : x y z
#
# Youngs Moduli (GPa) = 72.84892 72.84892 142.27858
#
# Poissons Ratio (x) = 0.33279 0.29325
# Poissons Ratio (y) = 0.33279 0.29325
# Poissons Ratio (z) = 0.15015 0.15015
#
# Static dielectric constant tensor:
#      x y z
#    x 3.672050 0.000000 0.000000 
#    y 0.000000 3.672050 0.000000 
#    z 0.000000 0.000000 3.450030 
# 
# 
# High freq. dielectric constant tensor:
#      x y z
#    x 1.786430 0.000000 0.000000 
#    y 0.000000 1.786430 0.000000 
#    z 0.000000 0.000000 1.803160 
# 
# From -- ./inp_files/821.got.cif
#   From: 2010.03.12/outbox.cif.g09.slc.cpg/sg188_1_cif.got.tgz:821.got - 2010.04.01 12:01:06.
