data_PCOD8327362
_publ_section_title
;
Structure prediction by ZEFSAII (Michael W. Deem and Ramdas Pophale) SiO2 
 PCOD8327362
Probable space group: P -6 C 2
;
_chemical_formula_sum "Si O2"
_cell_formula_units_Z 64
_cell_length_a 14.358389
_cell_length_b 14.358389
_cell_length_c 18.935683
_cell_angle_alpha 90.000000
_cell_angle_beta 90.000000
_cell_angle_gamma 120.000000
_cell_volume 3380.827688
_symmetry_space_group_name_H-M "P -6 C 2"
_symmetry_group_IT_number 188
_symmetry_cell_setting 'hexagonal'
loop_
_space_group_symop_operation_xyz
x,y,z
-x+y,-x,1/2-z
-y,x-y,z
x,y,1/2-z
-x+y,-x,z
-y,x-y,1/2-z
-y,-x,-z
-x+y,y,-z
x,x-y,-z
-x+y,y,1/2+z
x,x-y,1/2+z
-y,-x,1/2+z
loop_
_atom_site_type_symbol
_atom_site_label
_atom_site_fract_x
_atom_site_fract_y
_atom_site_fract_z
Si Si1 0.202530 0.772101 0.420066
Si Si2 0.769970 0.835710 0.666268
Si Si3 0.634631 0.106350 0.834104
Si Si4 0.083654 0.528600 0.080326
Si Si5 0.666667 0.333335 0.333372
Si Si6 0.929542 0.171980 0.333494
O O1 0.194624 0.805377 0.500000
O O2 0.111661 0.768101 0.370224
O O3 0.321117 0.858387 0.395629
O O4 0.178054 0.651098 0.410738
O O5 0.756571 0.825128 0.750000
O O6 0.840552 0.784910 0.637679
O O7 0.816754 0.958404 0.641608
O O8 0.621135 0.093217 0.750000
O O9 0.660663 0.223906 0.860033
O O10 0.731998 0.088609 0.862071
O O11 0.520471 0.020770 0.869254
O O12 0.042204 0.521102 0.000000
O O13 0.666667 0.333334 0.250000
O O14 0.923346 0.172516 0.250000
#
# Coordination Sequence:
#
# PCOD8327362 Si02
#       6
#    12  12  12  12   4  12
#     4  10  21  37  57  81 111 146 186 231 286 343
#     4  10  19  34  57  85 112 145 184 226 279 341
#     4  10  20  37  58  83 113 149 190 237 283 338
#     4  10  21  38  59  81 112 149 189 231 286 347
#     4   9  21  36  55  80 112 150 190 230 286 342
#     4   9  18  32  55  84 114 144 180 227 280 337
#
# _framework density 18.930275999999999
#
# number of rings (size 3 to 8) (size 9 to 14) (size 15 to 20)
#    0.000    2.250    1.875    0.750    2.625    3.750 
#    0.000    1.875    0.000    2.250    0.000    0.000 
#    0.000    0.000    0.000    0.000    0.000    0.000 
#
# Total GULP energy -793151.795411 kJ/mol
# GULP energy per Si atom -12392.996803 kJ/mol
# Density = 1.888719 g / cm^3
# Si number density = 18.930276 Si / 1000 Ang^3
#
#
#
# Elastic Constant Matrix: (Units=GPa)
#
#
# Indices 1 2 3 4 5 6 
#
# 1 105.0058 38.3735 33.4909 0.0000 0.0000 0.0000
# 2 38.3735 105.0052 33.4911 0.0001 0.0000 -0.0002
# 3 33.4909 33.4911 34.5181 0.0000 0.0000 0.0000
# 4 0.0000 0.0001 0.0000 20.1194 0.0000 0.0000
# 5 0.0000 0.0000 0.0000 0.0000 20.1193 0.0000
# 6 0.0000 -0.0002 0.0000 0.0000 0.0000 33.3159
#
#
#
# Elastic Compliance Matrix: (Units=1/GPa)
#
#
# Indices 1 2 3 4 5 6 
#
# 1 0.013882 -0.001126 -0.012377 0.000000 0.000000 0.000000
# 2 -0.001126 0.013882 -0.012377 0.000000 0.000000 0.000000
# 3 -0.012377 -0.012377 0.052988 0.000000 0.000000 0.000000
# 4 0.000000 0.000000 0.000000 0.049703 0.000000 0.000000
# 5 0.000000 0.000000 0.000000 0.000000 0.049703 0.000000
# 6 0.000000 0.000000 0.000000 0.000000 0.000000 0.030016
#
#
# Mechanical properties :
#
#
# Convention : Reuss Voigt Hill
#
# Bulk Modulus (GPa) = 34.49120 50.58223 42.53671
# Shear Modulus (GPa) = 18.40949 23.98915 21.19932
#
# Velocity S-wave (km/s) = 3.12186 3.56369 3.35007
# Velocity P-wave (km/s) = 5.59056 6.61146 6.12233
#
# Compressibility (1/GPa) = 0.02899290
#
# Stress axis : x y z
#
# Youngs Moduli (GPa) = 72.03485 72.03393 18.87220
#
# Poissons Ratio (x) = 0.08108 0.23358
# Poissons Ratio (y) = 0.08108 0.23359
# Poissons Ratio (z) = 0.89158 0.89158
#
# Static dielectric constant tensor:
#      x y z
#    x 3.610030 0.000000 0.000000 
#    y 0.000000 3.610030 0.000000 
#    z 0.000000 0.000000 3.190720 
# 
# 
# High freq. dielectric constant tensor:
#      x y z
#    x 1.745370 0.000000 0.000000 
#    y 0.000000 1.745370 0.000000 
#    z 0.000000 0.000000 1.697960 
# 
# From -- ./inp_files/3090.got.cif
#   From: 2010.03.12/outbox.cif.g09.slc.cpg/sg188_2_cif.got.tgz:3090.got - 2010.04.01 12:01:06.
