data_PCOD8327196
_publ_section_title
;
Structure prediction by ZEFSAII (Michael W. Deem and Ramdas Pophale) SiO2 
 PCOD8327196
Probable space group: P -6 M 2
;
_chemical_formula_sum "Si O2"
_cell_formula_units_Z 72
_cell_length_a 12.408354
_cell_length_b 12.408354
_cell_length_c 30.760930
_cell_angle_alpha 90.000000
_cell_angle_beta 90.000000
_cell_angle_gamma 120.000000
_cell_volume 4101.648532
_symmetry_space_group_name_H-M "P -6 M 2"
_symmetry_group_IT_number 187
_symmetry_cell_setting 'hexagonal'
loop_
_space_group_symop_operation_xyz
x,y,z
-x+y,-x,-z
-y,x-y,z
x,y,-z
-x+y,-x,z
-y,x-y,-z
-y,-x,-z
-x+y,y,-z
x,x-y,-z
-x+y,y,z
x,x-y,z
-y,-x,z
loop_
_atom_site_type_symbol
_atom_site_label
_atom_site_fract_x
_atom_site_fract_y
_atom_site_fract_z
Si Si1 0.918451 0.583608 0.165785
Si Si2 0.919117 0.334517 0.000000
Si Si3 0.584685 0.919098 0.916827
Si Si4 0.080764 0.416134 0.500000
Si Si5 0.333286 0.415970 0.248754
Si Si6 0.666912 0.585513 0.584060
Si Si7 0.748805 0.748734 0.331919
O O1 0.797509 0.595017 0.161672
O O2 0.878880 0.439440 0.162103
O O3 0.011033 0.662024 0.127272
O O4 0.983617 0.641035 0.211342
O O5 0.996071 0.341632 0.042522
O O6 0.794941 0.205060 0.000000
O O7 0.883055 0.441528 0.000000
O O8 0.441477 0.882953 0.917559
O O9 0.590202 0.795101 0.919945
O O10 0.201422 0.402844 0.500000
O O11 0.122594 0.561297 0.500000
O O12 0.999240 0.347526 0.458161
O O13 0.208076 0.416152 0.237113
O O14 0.442553 0.557448 0.252351
O O15 0.323740 0.348049 0.293804
O O16 0.781203 0.562406 0.576870
O O17 0.546236 0.453765 0.593249
O O18 0.688028 0.675449 0.624111
O O19 0.876509 0.753018 0.320726
O O20 0.777031 0.888516 0.337171
#
# Coordination Sequence:
#
# PCOD8327196 Si02
#       7
#    12   6  12   6  12  12  12
#     4  10  20  34  53  76 102 132 166 206 251 299
#     4  10  20  34  54  78 104 134 168 208 252 298
#     4  10  20  34  54  78 104 134 168 209 254 300
#     4  10  20  34  52  74 100 130 164 202 246 296
#     4  10  20  34  53  76 102 132 167 209 255 302
#     4  10  20  34  53  76 102 132 167 208 253 299
#     4  10  20  34  52  74 102 136 172 209 250 299
#
# _framework density 17.553916999999998
#
# number of rings (size 3 to 8) (size 9 to 14) (size 15 to 20)
#    0.000    2.000    0.000    4.000    0.000    0.000 
#    0.000    5.000    0.000   22.000    0.000    0.000 
#    0.000    0.000    0.000    0.000    0.000    0.000 
#
# Total GULP energy -893116.826157 kJ/mol
# GULP energy per Si atom -12404.400363 kJ/mol
# Density = 1.751396 g / cm^3
# Si number density = 17.553917 Si / 1000 Ang^3
#
#
#
# Elastic Constant Matrix: (Units=GPa)
#
#
# Indices 1 2 3 4 5 6 
#
# 1 96.7483 58.1152 40.1794 0.0000 0.0009 0.0000
# 2 58.1152 96.7483 40.1794 0.0000 -0.0009 0.0000
# 3 40.1794 40.1794 91.1999 0.0000 0.0000 0.0000
# 4 0.0000 0.0000 0.0000 -0.0050 0.0000 -0.0009
# 5 0.0009 -0.0009 0.0000 0.0000 -0.0050 0.0000
# 6 0.0000 0.0000 0.0000 -0.0009 0.0000 19.3165
#
#
#
# Elastic Compliance Matrix: (Units=1/GPa)
#
#
# Indices 1 2 3 4 5 6 
#
# 1 0.017128 -0.008757 -0.003688 0.000001 0.004852 0.000000
# 2 -0.008757 0.017128 -0.003688 -0.000001 -0.004852 0.000000
# 3 -0.003688 -0.003688 0.014214 0.000000 0.000000 0.000000
# 4 0.000001 -0.000001 0.000000********** -0.054420 -0.009708
# 5 0.004852 -0.004852 0.000000 -0.054420********** -0.000003
# 6 0.000000 0.000000 0.000000 -0.009708 -0.000003 0.051769
#
#
# Mechanical properties :
#
#
# Convention : Reuss Voigt Hill
#
# Bulk Modulus (GPa) = 61.71075 62.40495 62.05785
# Shear Modulus (GPa) = -0.01243 13.60949 6.79853
#
# Velocity S-wave (km/s) = -0.08425 2.78744 1.97011
# Velocity P-wave (km/s) = 5.93480 6.78140 6.37217
#
# Compressibility (1/GPa) = 0.01620463
#
# Stress axis : x y z
#
# Youngs Moduli (GPa) = 58.38512 58.38512 70.35082
#
# Poissons Ratio (x) = 0.51126 0.25945
# Poissons Ratio (y) = 0.51126 0.25945
# Poissons Ratio (z) = 0.21532 0.21532
#
# Static dielectric constant tensor:
#      x y z
#    x 3.225050 0.000000 0.000000 
#    y 0.000000 3.225050 0.000000 
#    z 0.000000 0.000000 3.455320 
# 
# 
# High freq. dielectric constant tensor:
#      x y z
#    x 1.683490 0.000000 0.000000 
#    y 0.000000 1.683490 0.000000 
#    z 0.000000 0.000000 1.698470 
# 
# From -- ./inp_files/4517.got.cif
#   From: 2010.03.12/outbox.cif.g09.slc.cpg/sg187_3_cif.got.tgz:4517.got - 2010.04.01 11:58:23.
