data_PCOD8327131
_publ_section_title
;
Structure prediction by ZEFSAII (Michael W. Deem and Ramdas Pophale) SiO2 
 PCOD8327131
Probable space group: P -6 M 2
;
_chemical_formula_sum "Si O2"
_cell_formula_units_Z 48
_cell_length_a 12.505863
_cell_length_b 12.505863
_cell_length_c 20.745418
_cell_angle_alpha 90.000000
_cell_angle_beta 90.000000
_cell_angle_gamma 120.000000
_cell_volume 2809.830711
_symmetry_space_group_name_H-M "P -6 M 2"
_symmetry_group_IT_number 187
_symmetry_cell_setting 'hexagonal'
loop_
_space_group_symop_operation_xyz
x,y,z
-x+y,-x,-z
-y,x-y,z
x,y,-z
-x+y,-x,z
-y,x-y,-z
-y,-x,-z
-x+y,y,-z
x,x-y,-z
-x+y,y,z
x,x-y,z
-y,-x,z
loop_
_atom_site_type_symbol
_atom_site_label
_atom_site_fract_x
_atom_site_fract_y
_atom_site_fract_z
Si Si1 0.082971 0.417843 0.378333
Si Si2 0.917665 0.582993 0.500000
Si Si3 0.584315 0.669042 0.139633
Si Si4 0.574964 0.668304 0.000000
Si Si5 0.418376 0.334192 0.742923
O O1 0.203839 0.407678 0.382911
O O2 0.121957 0.560979 0.381977
O O3 0.994901 0.342576 0.437102
O O4 0.014405 0.357168 0.312019
O O5 0.794604 0.589207 0.500000
O O6 0.881187 0.440594 0.500000
O O7 0.581956 0.790978 0.161961
O O8 0.443385 0.556616 0.139031
O O9 0.647682 0.689273 0.067964
O O10 0.666683 0.641852 0.188489
O O11 0.471372 0.528629 0.000000
O O12 0.517198 0.758599 0.000000
O O13 0.407265 0.203633 0.731202
O O14 0.561788 0.438213 0.740675
#
# Coordination Sequence:
#
# PCOD8327131 Si02
#       5
#    12   6  12   6  12
#     4  10  20  34  54  78 102 126 154 195 245 292
#     4  10  20  34  54  78 104 134 166 198 228 266
#     4   9  16  27  46  71  97 122 150 190 239 289
#     4   8  13  22  39  66  96 122 148 182 232 288
#     4  10  20  33  49  68  93 126 162 199 236 279
#
# _framework density 17.082881
#
# number of rings (size 3 to 8) (size 9 to 14) (size 15 to 20)
#    0.000    2.500    0.000    2.875    0.000    2.000 
#    0.000    6.875    0.000   12.000    0.000    1.750 
#    0.000    0.000    0.000    0.000    0.000    0.000 
#
# Total GULP energy -594954.632980 kJ/mol
# GULP energy per Si atom -12394.888187 kJ/mol
# Density = 1.704400 g / cm^3
# Si number density = 17.082881 Si / 1000 Ang^3
#
#
#
# Elastic Constant Matrix: (Units=GPa)
#
#
# Indices 1 2 3 4 5 6 
#
# 1 94.4971 60.5793 49.3899 0.0000 -0.0003 0.0000
# 2 60.5793 94.4971 49.3899 0.0000 0.0003 0.0000
# 3 49.3899 49.3899 133.5970 0.0000 0.0000 0.0000
# 4 0.0000 0.0000 0.0000 14.4785 0.0000 0.0003
# 5 -0.0003 0.0003 0.0000 0.0000 14.4785 0.0000
# 6 0.0000 0.0000 0.0000 0.0003 0.0000 16.9589
#
#
#
# Elastic Compliance Matrix: (Units=1/GPa)
#
#
# Indices 1 2 3 4 5 6 
#
# 1 0.018959 -0.010524 -0.003118 0.000000 0.000001 0.000000
# 2 -0.010524 0.018959 -0.003118 0.000000 -0.000001 0.000000
# 3 -0.003118 -0.003118 0.009791 0.000000 0.000000 0.000000
# 4 0.000000 0.000000 0.000000 0.069068 0.000000 -0.000001
# 5 0.000001 -0.000001 0.000000 0.000000 0.069068 0.000000
# 6 0.000000 0.000000 0.000000 -0.000001 0.000000 0.058966
#
#
# Mechanical properties :
#
#
# Convention : Reuss Voigt Hill
#
# Bulk Modulus (GPa) = 70.48621 71.25657 70.87139
# Shear Modulus (GPa) = 17.66404 20.06531 18.86468
#
# Velocity S-wave (km/s) = 3.21911 3.43094 3.32671
# Velocity P-wave (km/s) = 7.42750 7.58274 7.50552
#
# Compressibility (1/GPa) = 0.01418717
#
# Stress axis : x y z
#
# Youngs Moduli (GPa) = 52.74577 52.74577 102.13687
#
# Poissons Ratio (x) = 0.55511 0.31849
# Poissons Ratio (y) = 0.55511 0.31849
# Poissons Ratio (z) = 0.16447 0.16447
#
# Static dielectric constant tensor:
#      x y z
#    x 2.910070 0.000000 0.000000 
#    y 0.000000 2.910070 0.000000 
#    z 0.000000 0.000000 3.717290 
# 
# 
# High freq. dielectric constant tensor:
#      x y z
#    x 1.635240 0.000000 0.000000 
#    y 0.000000 1.635240 0.000000 
#    z 0.000000 0.000000 1.688850 
# 
# From -- ./inp_files/3397.got.cif
#   From: 2010.03.12/outbox.cif.g09.slc.cpg/sg187_2_cif.got.tgz:3397.got - 2010.04.01 11:58:23.
