data_PCOD8327738
_publ_section_title
;
Structure prediction by ZEFSAII (Michael W. Deem and Ramdas Pophale) SiO2 
 PCOD8327738
Probable space group: P -6 2 M
;
_chemical_formula_sum "Si O2"
_cell_formula_units_Z 72
_cell_length_a 14.544613
_cell_length_b 14.544613
_cell_length_c 20.802026
_cell_angle_alpha 90.000000
_cell_angle_beta 90.000000
_cell_angle_gamma 120.000000
_cell_volume 3811.014549
_symmetry_space_group_name_H-M "P -6 2 M"
_symmetry_group_IT_number 189
_symmetry_cell_setting 'hexagonal'
loop_
_space_group_symop_operation_xyz
x,y,z
-x+y,-x,-z
-y,x-y,z
x,y,-z
-x+y,-x,z
-y,x-y,-z
x-y,-y,-z
-x,-x+y,-z
y,x,-z
y,x,z
x-y,-y,z
-x,-x+y,z
loop_
_atom_site_type_symbol
_atom_site_label
_atom_site_fract_x
_atom_site_fract_y
_atom_site_fract_z
Si Si1 0.124602 0.878796 0.326199
Si Si2 0.447443 0.787376 0.000000
Si Si3 0.318210 0.441273 0.868350
Si Si4 0.875864 0.557453 0.631975
Si Si5 0.437121 0.875466 0.748293
Si Si6 0.447081 0.786976 0.500000
Si Si7 0.363667 0.119534 0.793458
O O1 0.163115 0.807236 0.364811
O O2 0.150876 0.873433 0.251501
O O3 0.000000 0.837261 0.333846
O O4 0.190848 0.000000 0.351988
O O5 0.327420 0.768329 0.000000
O O6 0.507860 0.854525 0.061854
O O7 0.355384 0.355384 0.862201
O O8 0.373145 0.532725 0.814748
O O9 0.192007 0.382314 0.855777
O O10 0.823768 0.465221 0.687068
O O11 0.852654 0.506138 0.562384
O O12 0.000000 0.622051 0.644572
O O13 0.313104 0.840526 0.752385
O O14 0.505147 0.000000 0.739486
O O15 0.441135 0.672597 0.500000
O O16 0.320451 0.000000 0.818724
#
# Coordination Sequence:
#
# PCOD8327738 Si02
#       7
#    12   6  12  12  12   6  12
#     4  10  20  36  60  89 120 152 194 246 301 357
#     4  10  23  38  54  82 113 146 190 232 284 342
#     4  11  20  37  59  83 115 153 193 239 291 347
#     4  10  20  39  59  83 117 156 193 243 298 352
#     4   9  19  33  55  82 112 148 191 235 288 344
#     4  10  25  38  54  82 115 152 198 242 294 356
#     4  10  20  33  54  87 119 151 194 241 292 351
#
# _framework density 18.892607000000002
#
# number of rings (size 3 to 8) (size 9 to 14) (size 15 to 20)
#    0.333    1.667    1.667    2.167    2.333    0.000 
#    1.000    2.500    0.000    0.333    0.000    1.167 
#    0.000    0.000    0.000    0.000    0.000    0.000 
#
# Total GULP energy -892435.908829 kJ/mol
# GULP energy per Si atom -12394.943178 kJ/mol
# Density = 1.884961 g / cm^3
# Si number density = 18.892607 Si / 1000 Ang^3
#
#
#
# Elastic Constant Matrix: (Units=GPa)
#
#
# Indices 1 2 3 4 5 6 
#
# 1 74.3228 23.0308 21.5562 0.0000 0.0000 0.0000
# 2 23.0308 74.3228 21.5562 0.0000 0.0000 0.0000
# 3 21.5562 21.5562 116.4799 0.0000 0.0000 0.0000
# 4 0.0000 0.0000 0.0000 25.6025 0.0000 0.0000
# 5 0.0000 0.0000 0.0000 0.0000 25.6025 0.0000
# 6 0.0000 0.0000 0.0000 0.0000 0.0000 25.6460
#
#
#
# Elastic Compliance Matrix: (Units=1/GPa)
#
#
# Indices 1 2 3 4 5 6 
#
# 1 0.015342 -0.004154 -0.002071 0.000000 0.000000 0.000000
# 2 -0.004154 0.015342 -0.002071 0.000000 0.000000 0.000000
# 3 -0.002071 -0.002071 0.009352 0.000000 0.000000 0.000000
# 4 0.000000 0.000000 0.000000 0.039059 0.000000 0.000000
# 5 0.000000 0.000000 0.000000 0.000000 0.039059 0.000000
# 6 0.000000 0.000000 0.000000 0.000000 0.000000 0.038992
#
#
# Mechanical properties :
#
#
# Convention : Reuss Voigt Hill
#
# Bulk Modulus (GPa) = 42.65008 44.15688 43.40348
# Shear Modulus (GPa) = 27.54036 28.63571 28.08803
#
# Velocity S-wave (km/s) = 3.82217 3.89744 3.85998
# Velocity P-wave (km/s) = 6.48865 6.60883 6.54902
#
# Compressibility (1/GPa) = 0.02344662
#
# Stress axis : x y z
#
# Youngs Moduli (GPa) = 65.17844 65.17844 106.93385
#
# Poissons Ratio (x) = 0.27073 0.22142
# Poissons Ratio (y) = 0.27073 0.22142
# Poissons Ratio (z) = 0.13496 0.13496
#
# Static dielectric constant tensor:
#      x y z
#    x 3.522190 0.000000 0.000000 
#    y 0.000000 3.522190 0.000000 
#    z 0.000000 0.000000 3.169940 
# 
# 
# High freq. dielectric constant tensor:
#      x y z
#    x 1.734430 0.000000 0.000000 
#    y 0.000000 1.734430 0.000000 
#    z 0.000000 0.000000 1.712250 
# 
# From -- ./inp_files/3455.got.cif
#   From: 2010.03.12/outbox.cif.g09.slc.cpg/sg189_2_cif.got.tgz:3455.got - 2010.04.01 12:03:36.
