data_PCOD8327752
_publ_section_title
;
Structure prediction by ZEFSAII (Michael W. Deem and Ramdas Pophale) SiO2 
 PCOD8327752
Probable space group: P -6 2 M
;
_chemical_formula_sum "Si O2"
_cell_formula_units_Z 60
_cell_length_a 20.452649
_cell_length_b 20.452649
_cell_length_c 9.666373
_cell_angle_alpha 90.000000
_cell_angle_beta 90.000000
_cell_angle_gamma 120.000000
_cell_volume 3501.815910
_symmetry_space_group_name_H-M "P -6 2 M"
_symmetry_group_IT_number 189
_symmetry_cell_setting 'hexagonal'
loop_
_space_group_symop_operation_xyz
x,y,z
-x+y,-x,-z
-y,x-y,z
x,y,-z
-x+y,-x,z
-y,x-y,-z
x-y,-y,-z
-x,-x+y,-z
y,x,-z
y,x,z
x-y,-y,z
-x,-x+y,z
loop_
_atom_site_type_symbol
_atom_site_label
_atom_site_fract_x
_atom_site_fract_y
_atom_site_fract_z
Si Si1 0.085517 0.692859 0.658694
Si Si2 0.828195 0.468438 0.840185
Si Si3 0.854734 0.218651 0.661056
Si Si4 0.000000 0.209808 0.662459
Si Si5 0.692707 0.495488 0.160150
Si Si6 0.083491 0.000000 0.845238
O O1 0.096054 0.676997 0.500000
O O2 0.106081 0.640605 0.751083
O O3 0.138574 0.780850 0.695067
O O4 0.000000 0.671728 0.690275
O O5 0.821880 0.390266 0.794936
O O6 0.748348 0.462917 0.810035
O O7 0.850706 0.486312 0.000000
O O8 0.859635 0.239728 0.500000
O O9 0.926534 0.213058 0.709288
O O10 0.853933 0.285029 0.747958
O O11 0.000000 0.196617 0.500000
O O12 0.000000 0.139888 0.733526
O O13 0.695750 0.517717 0.000000
O O14 0.074111 0.074111 0.825835
O O15 0.113649 0.000000 0.000000
#
# Coordination Sequence:
#
# PCOD8327752 Si02
#       6
#    12  12  12   6  12   6
#     4   9  18  33  50  69  95 129 165 201 246 293
#     4   9  17  30  50  73  98 125 161 207 247 290
#     4   9  19  34  50  71 101 132 166 206 245 295
#     4  10  20  34  54  78 102 133 170 207 248 293
#     4   9  17  31  50  73  98 129 165 205 253 297
#     4   8  18  36  54  76 106 131 156 199 250 299
#
# _framework density 17.133967999999999
#
# number of rings (size 3 to 8) (size 9 to 14) (size 15 to 20)
#    0.200    2.800    0.000    0.400    0.000    4.800 
#    1.800    2.000    0.000    2.400    0.000    0.000 
#    0.000    0.000    0.000    0.000    0.000    0.000 
#
# Total GULP energy -743991.769631 kJ/mol
# GULP energy per Si atom -12399.862827 kJ/mol
# Density = 1.709497 g / cm^3
# Si number density = 17.133968 Si / 1000 Ang^3
#
#
#
# Elastic Constant Matrix: (Units=GPa)
#
#
# Indices 1 2 3 4 5 6 
#
# 1 114.7358 66.8158 53.1674 0.0000 0.0000 0.0000
# 2 66.8158 114.7358 53.1674 0.0000 0.0000 0.0000
# 3 53.1674 53.1674 58.9372 0.0000 0.0000 0.0000
# 4 0.0000 0.0000 0.0000 29.6973 0.0000 0.0000
# 5 0.0000 0.0000 0.0000 0.0000 29.6973 0.0000
# 6 0.0000 0.0000 0.0000 0.0000 0.0000 23.9600
#
#
#
# Elastic Compliance Matrix: (Units=1/GPa)
#
#
# Indices 1 2 3 4 5 6 
#
# 1 0.016273 -0.004595 -0.010535 0.000000 0.000000 0.000000
# 2 -0.004595 0.016273 -0.010535 0.000000 0.000000 0.000000
# 3 -0.010535 -0.010535 0.035975 0.000000 0.000000 0.000000
# 4 0.000000 0.000000 0.000000 0.033673 0.000000 0.000000
# 5 0.000000 0.000000 0.000000 0.000000 0.033673 0.000000
# 6 0.000000 0.000000 0.000000 0.000000 0.000000 0.041736
#
#
# Mechanical properties :
#
#
# Convention : Reuss Voigt Hill
#
# Bulk Modulus (GPa) = 58.16976 70.52333 64.34654
# Shear Modulus (GPa) = 21.30696 24.35482 22.83089
#
# Velocity S-wave (km/s) = 3.53023 3.77428 3.65429
# Velocity P-wave (km/s) = 7.11620 7.76163 7.44591
#
# Compressibility (1/GPa) = 0.01719106
#
# Stress axis : x y z
#
# Youngs Moduli (GPa) = 61.45018 61.45018 27.79704
#
# Poissons Ratio (x) = 0.28235 0.29285
# Poissons Ratio (y) = 0.28235 0.29285
# Poissons Ratio (z) = 0.64740 0.64740
#
# Static dielectric constant tensor:
#      x y z
#    x 3.161200 0.000000 0.000000 
#    y 0.000000 3.161200 0.000000 
#    z 0.000000 0.000000 3.177680 
# 
# 
# High freq. dielectric constant tensor:
#      x y z
#    x 1.655590 0.000000 0.000000 
#    y 0.000000 1.655590 0.000000 
#    z 0.000000 0.000000 1.660170 
# 
# From -- ./inp_files/974.got.cif
#   From: 2010.03.12/outbox.cif.g09.slc.cpg/sg189_1_cif.got.tgz:974.got - 2010.04.01 12:03:36.
