data_PCOD8327118
_publ_section_title
;
Structure prediction by ZEFSAII (Michael W. Deem and Ramdas Pophale) SiO2 
 PCOD8327118
Probable space group: P -6 M 2
;
_chemical_formula_sum "Si O2"
_cell_formula_units_Z 54
_cell_length_a 12.666474
_cell_length_b 12.666474
_cell_length_c 23.223673
_cell_angle_alpha 90.000000
_cell_angle_beta 90.000000
_cell_angle_gamma 120.000000
_cell_volume 3226.807157
_symmetry_space_group_name_H-M "P -6 M 2"
_symmetry_group_IT_number 187
_symmetry_cell_setting 'hexagonal'
loop_
_space_group_symop_operation_xyz
x,y,z
-x+y,-x,-z
-y,x-y,z
x,y,-z
-x+y,-x,z
-y,x-y,-z
-y,-x,-z
-x+y,y,-z
x,x-y,-z
-x+y,y,z
x,x-y,z
-y,-x,z
loop_
_atom_site_type_symbol
_atom_site_label
_atom_site_fract_x
_atom_site_fract_y
_atom_site_fract_z
Si Si1 0.422150 0.334636 0.165744
Si Si2 0.334448 0.914011 0.272683
Si Si3 0.428851 0.093263 0.500000
Si Si4 0.576313 0.909907 0.934212
Si Si5 0.915899 0.335970 0.375091
O O1 0.408488 0.204244 0.174440
O O2 0.564446 0.435555 0.165460
O O3 0.352744 0.357439 0.217167
O O4 0.358973 0.335678 0.105742
O O5 0.439610 0.879220 0.278058
O O6 0.207409 0.792592 0.266397
O O7 0.330530 0.986049 0.329140
O O8 0.574197 0.148394 0.500000
O O9 0.399840 0.199920 0.500000
O O10 0.376393 0.022203 0.560728
O O11 0.436137 0.872273 0.923789
O O12 0.589228 0.794614 0.917190
O O13 0.615663 0.949868 0.000000
O O14 0.882783 0.441392 0.362294
O O15 0.792774 0.207227 0.369450
#
# Coordination Sequence:
#
# PCOD8327118 Si02
#       5
#    12  12   6  12  12
#     4  10  20  33  50  72  97 123 151 187 233 283
#     4  10  20  33  49  68  91 120 154 192 232 275
#     4   8  13  22  39  66  96 122 148 180 222 270
#     4   9  17  30  50  75 100 126 157 193 229 264
#     4   9  16  27  46  71  97 122 149 185 229 275
#
# _framework density 16.734808999999998
#
# number of rings (size 3 to 8) (size 9 to 14) (size 15 to 20)
#    0.000    2.667    0.000    2.333    0.000    3.111 
#    0.000    5.000    0.000    9.333    0.000    1.556 
#    0.000    0.000    0.000    0.000    0.000    0.000 
#
# Total GULP energy -669304.935328 kJ/mol
# GULP energy per Si atom -12394.535839 kJ/mol
# Density = 1.669672 g / cm^3
# Si number density = 16.734809 Si / 1000 Ang^3
#
#
#
# Elastic Constant Matrix: (Units=GPa)
#
#
# Indices 1 2 3 4 5 6 
#
# 1 83.4738 48.9040 48.6447 0.0000 -0.0003 0.0000
# 2 48.9040 83.4738 48.6447 0.0000 0.0003 0.0000
# 3 48.6447 48.6447 123.0084 0.0000 0.0000 0.0000
# 4 0.0000 0.0000 0.0000 20.8111 0.0000 0.0003
# 5 -0.0003 0.0003 0.0000 0.0000 20.8111 0.0000
# 6 0.0000 0.0000 0.0000 0.0003 0.0000 17.2849
#
#
#
# Elastic Compliance Matrix: (Units=1/GPa)
#
#
# Indices 1 2 3 4 5 6 
#
# 1 0.019788 -0.009139 -0.004211 0.000000 0.000000 0.000000
# 2 -0.009139 0.019788 -0.004211 0.000000 0.000000 0.000000
# 3 -0.004211 -0.004211 0.011460 0.000000 0.000000 0.000000
# 4 0.000000 0.000000 0.000000 0.048051 0.000000 -0.000001
# 5 0.000000 0.000000 0.000000 0.000000 0.048051 0.000000
# 6 0.000000 0.000000 0.000000 -0.000001 0.000000 0.057854
#
#
# Mechanical properties :
#
#
# Convention : Reuss Voigt Hill
#
# Bulk Modulus (GPa) = 62.83991 64.70477 63.77234
# Shear Modulus (GPa) = 20.37317 21.36557 20.86937
#
# Velocity S-wave (km/s) = 3.49293 3.57699 3.53521
# Velocity P-wave (km/s) = 7.34162 7.47051 7.40634
#
# Compressibility (1/GPa) = 0.01591345
#
# Stress axis : x y z
#
# Youngs Moduli (GPa) = 50.53543 50.53543 87.25757
#
# Poissons Ratio (x) = 0.46184 0.36747
# Poissons Ratio (y) = 0.46184 0.36747
# Poissons Ratio (z) = 0.21282 0.21282
#
# Static dielectric constant tensor:
#      x y z
#    x 2.878950 0.000000 0.000000 
#    y 0.000000 2.878950 0.000000 
#    z 0.000000 0.000000 3.670280 
# 
# 
# High freq. dielectric constant tensor:
#      x y z
#    x 1.619210 0.000000 0.000000 
#    y 0.000000 1.619210 0.000000 
#    z 0.000000 0.000000 1.672780 
# 
# From -- ./inp_files/3847.got.cif
#   From: 2010.03.12/outbox.cif.g09.slc.cpg/sg187_2_cif.got.tgz:3847.got - 2010.04.01 11:58:23.
