data_PCOD8327975
_publ_section_title
;
Structure prediction by ZEFSAII (Michael W. Deem and Ramdas Pophale) SiO2 
 PCOD8327975
Probable space group: P -6 2 C
;
_chemical_formula_sum "Si O2"
_cell_formula_units_Z 72
_cell_length_a 23.630973
_cell_length_b 23.630973
_cell_length_c 8.933919
_cell_angle_alpha 90.000000
_cell_angle_beta 90.000000
_cell_angle_gamma 120.000000
_cell_volume 4320.518313
_symmetry_space_group_name_H-M "P -6 2 C"
_symmetry_group_IT_number 190
_symmetry_cell_setting 'hexagonal'
loop_
_space_group_symop_operation_xyz
x,y,z
-x+y,-x,1/2-z
-y,x-y,z
x,y,1/2-z
-x+y,-x,z
-y,x-y,1/2-z
x-y,-y,-z
-x,-x+y,-z
y,x,-z
y,x,1/2+z
x-y,-y,1/2+z
-x,-x+y,1/2+z
loop_
_atom_site_type_symbol
_atom_site_label
_atom_site_fract_x
_atom_site_fract_y
_atom_site_fract_z
Si Si1 0.864121 0.930952 0.572420
Si Si2 0.472367 0.405918 0.924227
Si Si3 0.267677 0.735731 0.925925
Si Si4 0.599675 0.401562 0.574216
Si Si5 0.592771 0.863813 0.576689
Si Si6 0.804749 0.066453 0.423464
O O1 0.874778 0.934305 0.750000
O O2 0.875239 0.875239 0.500000
O O3 0.790382 0.911965 0.526635
O O4 0.915475 0.000000 0.500000
O O5 0.460492 0.406965 0.750000
O O6 0.545827 0.422448 0.961140
O O7 0.460880 0.460880 0.000000
O O8 0.420798 0.334257 0.983325
O O9 0.281043 0.737212 0.750000
O O10 0.211110 0.752793 0.963524
O O11 0.247781 0.664746 0.989377
O O12 0.331918 0.790388 0.010127
O O13 0.604340 0.391251 0.750000
O O14 0.586619 0.877639 0.750000
O O15 0.664964 0.876712 0.536593
O O16 0.797187 0.050610 0.250000
O O17 0.751718 0.000000 0.500000
#
# Coordination Sequence:
#
# PCOD8327975 Si02
#       6
#    12  12  12  12  12  12
#     4  10  19  31  47  67  92 120 151 185 223 267
#     4  10  20  32  48  70  95 124 155 190 231 274
#     4  10  19  31  49  71  94 122 156 191 228 273
#     4  10  20  33  48  68  96 126 155 190 233 277
#     4   9  18  32  49  70  95 122 152 187 228 274
#     4   9  18  31  47  68  93 120 149 183 223 267
#
# _framework density 16.664667000000001
#
# number of rings (size 3 to 8) (size 9 to 14) (size 15 to 20)
#    0.000    2.333    0.000    3.000    0.000    5.333 
#    0.000    0.000    0.000    1.000    0.000    4.667 
#    0.000    0.000    0.000    0.000    0.000    0.000 
#
# Total GULP energy -892899.745255 kJ/mol
# GULP energy per Si atom -12401.385351 kJ/mol
# Density = 1.662674 g / cm^3
# Si number density = 16.664667 Si / 1000 Ang^3
#
#
#
# Elastic Constant Matrix: (Units=GPa)
#
#
# Indices 1 2 3 4 5 6 
#
# 1 110.7522 61.5169 44.0565 0.0000 0.0000 0.0000
# 2 61.5169 110.7522 44.0565 0.0000 0.0000 0.0000
# 3 44.0565 44.0565 70.6258 0.0000 0.0000 0.0000
# 4 0.0000 0.0000 0.0000 25.4087 0.0000 0.0000
# 5 0.0000 0.0000 0.0000 0.0000 25.4087 0.0000
# 6 0.0000 0.0000 0.0000 0.0000 0.0000 24.6177
#
#
#
# Elastic Compliance Matrix: (Units=1/GPa)
#
#
# Indices 1 2 3 4 5 6 
#
# 1 0.014418 -0.005893 -0.005318 0.000000 0.000000 0.000000
# 2 -0.005893 0.014418 -0.005318 0.000000 0.000000 0.000000
# 3 -0.005318 -0.005318 0.020794 0.000000 0.000000 0.000000
# 4 0.000000 0.000000 0.000000 0.039357 0.000000 0.000000
# 5 0.000000 0.000000 0.000000 0.000000 0.039357 0.000000
# 6 0.000000 0.000000 0.000000 0.000000 0.000000 0.040621
#
#
# Mechanical properties :
#
#
# Convention : Reuss Voigt Hill
#
# Bulk Modulus (GPa) = 60.34240 65.70999 63.02620
# Shear Modulus (GPa) = 24.09118 24.58701 24.33909
#
# Velocity S-wave (km/s) = 3.80629 3.84526 3.82582
# Velocity P-wave (km/s) = 7.45691 7.69617 7.57748
#
# Compressibility (1/GPa) = 0.01657210
#
# Stress axis : x y z
#
# Youngs Moduli (GPa) = 69.35899 69.35899 48.09151
#
# Poissons Ratio (x) = 0.40872 0.25574
# Poissons Ratio (y) = 0.40872 0.25574
# Poissons Ratio (z) = 0.36884 0.36884
#
# Static dielectric constant tensor:
#      x y z
#    x 3.171000 0.000000 0.000000 
#    y 0.000000 3.171000 0.000000 
#    z 0.000000 0.000000 3.225670 
# 
# 
# High freq. dielectric constant tensor:
#      x y z
#    x 1.631090 0.000000 0.000000 
#    y 0.000000 1.631090 0.000000 
#    z 0.000000 0.000000 1.655830 
# 
# From -- ./inp_files/1190.got.cif
#   From: 2010.06.25/outbox.cif.g09.slc.cpg/sg190_1_cif.got.tgz:1190.got - 2010.06.28 13:08:06.
