data_PCOD8327983
_publ_section_title
;
Structure prediction by ZEFSAII (Michael W. Deem and Ramdas Pophale) SiO2 
 PCOD8327983
Probable space group: P -6 2 C
;
_chemical_formula_sum "Si O2"
_cell_formula_units_Z 60
_cell_length_a 22.675160
_cell_length_b 22.675160
_cell_length_c 7.722219
_cell_angle_alpha 90.000000
_cell_angle_beta 90.000000
_cell_angle_gamma 120.000000
_cell_volume 3438.535133
_symmetry_space_group_name_H-M "P -6 2 C"
_symmetry_group_IT_number 190
_symmetry_cell_setting 'hexagonal'
loop_
_space_group_symop_operation_xyz
x,y,z
-x+y,-x,1/2-z
-y,x-y,z
x,y,1/2-z
-x+y,-x,z
-y,x-y,1/2-z
x-y,-y,-z
-x,-x+y,-z
y,x,-z
y,x,1/2+z
x-y,-y,1/2+z
-x,-x+y,1/2+z
loop_
_atom_site_type_symbol
_atom_site_label
_atom_site_fract_x
_atom_site_fract_y
_atom_site_fract_z
Si Si1 0.148282 0.074732 0.949757
Si Si2 0.501502 0.422942 0.049549
Si Si3 0.249468 0.739686 0.250000
Si Si4 0.589812 0.419435 0.750000
Si Si5 0.428297 0.267068 0.442470
Si Si6 0.075258 0.795642 0.453879
O O1 0.160390 0.085219 0.750000
O O2 0.218616 0.133273 0.033704
O O3 0.084964 0.084964 0.000000
O O4 0.132942 0.000000 0.000000
O O5 0.526183 0.436188 0.250000
O O6 0.445884 0.344051 0.016794
O O7 0.468172 0.468172 0.000000
O O8 0.564970 0.441470 0.922543
O O9 0.225906 0.660283 0.250000
O O10 0.329610 0.786902 0.250000
O O11 0.222169 0.758186 0.421654
O O12 0.453474 0.262276 0.250000
O O13 0.347616 0.218201 0.451143
O O14 0.087994 0.798265 0.250000
O O15 0.000000 0.735569 0.500000
#
# Coordination Sequence:
#
# PCOD8327983 Si02
#       6
#    12  12   6   6  12  12
#     4  10  20  32  47  67  94 129 171 218 265 311
#     4  10  19  32  54  86 113 140 178 222 278 324
#     4  10  21  38  56  82 114 146 188 208 270 316
#     4  10  21  36  58  82 114 152 180 230 260 326
#     4  10  20  33  54  81 112 143 174 219 269 324
#     4  10  19  31  49  76 105 135 171 216 270 326
#
# _framework density 17.449290000000001
#
# number of rings (size 3 to 8) (size 9 to 14) (size 15 to 20)
#    0.000    2.000    2.000    2.200    0.000    4.800 
#    0.000    0.000    0.000    3.600    0.000    0.000 
#    0.000    0.000    0.000    0.000    0.000    0.000 
#
# Total GULP energy -743922.579606 kJ/mol
# GULP energy per Si atom -12398.709660 kJ/mol
# Density = 1.740957 g / cm^3
# Si number density = 17.449290 Si / 1000 Ang^3
#
#
#
# Elastic Constant Matrix: (Units=GPa)
#
#
# Indices 1 2 3 4 5 6 
#
# 1 111.7891 57.2659 44.9579 0.0000 0.0000 0.0000
# 2 57.2659 111.7891 44.9579 0.0000 0.0000 0.0000
# 3 44.9579 44.9579 116.0051 0.0000 0.0000 0.0000
# 4 0.0000 0.0000 0.0000 21.1363 0.0000 0.0000
# 5 0.0000 0.0000 0.0000 0.0000 21.1363 0.0000
# 6 0.0000 0.0000 0.0000 0.0000 0.0000 27.2616
#
#
#
# Elastic Compliance Matrix: (Units=1/GPa)
#
#
# Indices 1 2 3 4 5 6 
#
# 1 0.012896 -0.005445 -0.002888 0.000000 0.000000 0.000000
# 2 -0.005445 0.012896 -0.002888 0.000000 0.000000 0.000000
# 3 -0.002888 -0.002888 0.010859 0.000000 0.000000 0.000000
# 4 0.000000 0.000000 0.000000 0.047312 0.000000 0.000000
# 5 0.000000 0.000000 0.000000 0.000000 0.047312 0.000000
# 6 0.000000 0.000000 0.000000 0.000000 0.000000 0.036682
#
#
# Mechanical properties :
#
#
# Convention : Reuss Voigt Hill
#
# Bulk Modulus (GPa) = 70.37272 70.43849 70.40560
# Shear Modulus (GPa) = 25.62354 26.73363 26.17858
#
# Velocity S-wave (km/s) = 3.83620 3.91842 3.87753
# Velocity P-wave (km/s) = 7.74851 7.80559 7.77710
#
# Compressibility (1/GPa) = 0.01421005
#
# Stress axis : x y z
#
# Youngs Moduli (GPa) = 77.54365 77.54365 92.09322
#
# Poissons Ratio (x) = 0.42221 0.26594
# Poissons Ratio (y) = 0.42221 0.26594
# Poissons Ratio (z) = 0.22392 0.22392
#
# Static dielectric constant tensor:
#      x y z
#    x 3.145470 0.000000 0.000000 
#    y 0.000000 3.145470 0.000000 
#    z 0.000000 0.000000 3.240060 
# 
# 
# High freq. dielectric constant tensor:
#      x y z
#    x 1.655180 0.000000 0.000000 
#    y 0.000000 1.655180 0.000000 
#    z 0.000000 0.000000 1.694070 
# 
# From -- ./inp_files/946.got.cif
#   From: 2010.06.25/outbox.cif.g09.slc.cpg/sg190_1_cif.got.tgz:946.got - 2010.06.28 13:08:06.
