data_PCOD8327916
_publ_section_title
;
Structure prediction by ZEFSAII (Michael W. Deem and Ramdas Pophale) SiO2 
 PCOD8327916
Probable space group: P -6 2 M
;
_chemical_formula_sum "Si O2"
_cell_formula_units_Z 48
_cell_length_a 20.935829
_cell_length_b 20.935829
_cell_length_c 7.595130
_cell_angle_alpha 90.000000
_cell_angle_beta 90.000000
_cell_angle_gamma 120.000000
_cell_volume 2883.010129
_symmetry_space_group_name_H-M "P -6 2 M"
_symmetry_group_IT_number 189
_symmetry_cell_setting 'hexagonal'
loop_
_space_group_symop_operation_xyz
x,y,z
-x+y,-x,-z
-y,x-y,z
x,y,-z
-x+y,-x,z
-y,x-y,-z
x-y,-y,-z
-x,-x+y,-z
y,x,-z
y,x,z
x-y,-y,z
-x,-x+y,z
loop_
_atom_site_type_symbol
_atom_site_label
_atom_site_fract_x
_atom_site_fract_y
_atom_site_fract_z
Si Si1 0.443354 0.087193 0.305383
Si Si2 0.218219 0.919577 0.292537
Si Si3 0.913561 0.588126 0.000000
Si Si4 0.466524 0.554949 0.000000
Si Si5 0.770984 0.084541 0.295737
O O1 0.471579 0.122132 0.500000
O O2 0.381773 0.105535 0.229232
O O3 0.512374 0.119134 0.172580
O O4 0.406478 0.000000 0.319270
O O5 0.226423 0.928549 0.500000
O O6 0.135380 0.856937 0.240776
O O7 0.239223 0.000000 0.211124
O O8 0.890505 0.614143 0.822974
O O9 0.877826 0.499723 0.000000
O O10 0.000000 0.621600 0.000000
O O11 0.511193 0.511193 0.000000
O O12 0.757649 0.096004 0.500000
O O13 0.748496 0.000000 0.257594
#
# Coordination Sequence:
#
# PCOD8327916 Si02
#       5
#    12  12   6   6  12
#     4   8  14  24  38  58  83 107 131 165 211 258
#     4   8  14  26  44  65  89 116 149 191 232 268
#     4   9  18  29  39  57  85 112 140 173 207 257
#     4   9  16  25  38  57  82 108 129 155 200 257
#     4   9  17  29  44  61  86 122 156 185 224 271
#
# _framework density 16.649265
#
# number of rings (size 3 to 8) (size 9 to 14) (size 15 to 20)
#    0.000    3.500    0.000    1.500    0.000    2.000 
#    0.000    6.875    0.000    0.500    0.000    3.500 
#   10.000    0.000    3.000    0.000    0.000    0.000 
#
# Total GULP energy -594660.653798 kJ/mol
# GULP energy per Si atom -12388.763621 kJ/mol
# Density = 1.661137 g / cm^3
# Si number density = 16.649265 Si / 1000 Ang^3
#
#
#
# Elastic Constant Matrix: (Units=GPa)
#
#
# Indices 1 2 3 4 5 6 
#
# 1 91.8156 54.3450 39.5090 0.0000 0.0000 0.0000
# 2 54.3450 91.8156 39.5090 0.0000 0.0000 0.0000
# 3 39.5090 39.5090 83.9569 0.0000 0.0000 0.0000
# 4 0.0000 0.0000 0.0000 13.4597 0.0000 0.0000
# 5 0.0000 0.0000 0.0000 0.0000 13.4597 0.0000
# 6 0.0000 0.0000 0.0000 0.0000 0.0000 18.7353
#
#
#
# Elastic Compliance Matrix: (Units=1/GPa)
#
#
# Indices 1 2 3 4 5 6 
#
# 1 0.017932 -0.008756 -0.004318 0.000000 0.000000 0.000000
# 2 -0.008756 0.017932 -0.004318 0.000000 0.000000 0.000000
# 3 -0.004318 -0.004318 0.015975 0.000000 0.000000 0.000000
# 4 0.000000 0.000000 0.000000 0.074296 0.000000 0.000000
# 5 0.000000 0.000000 0.000000 0.000000 0.074296 0.000000
# 6 0.000000 0.000000 0.000000 0.000000 0.000000 0.053375
#
#
# Mechanical properties :
#
#
# Convention : Reuss Voigt Hill
#
# Bulk Modulus (GPa) = 58.63473 59.36823 59.00148
# Shear Modulus (GPa) = 16.99088 18.07926 17.53507
#
# Velocity S-wave (km/s) = 3.19802 3.29886 3.24883
# Velocity P-wave (km/s) = 6.99503 7.08841 7.04188
#
# Compressibility (1/GPa) = 0.01705474
#
# Stress axis : x y z
#
# Youngs Moduli (GPa) = 55.76629 55.76629 62.59736
#
# Poissons Ratio (x) = 0.48827 0.27031
# Poissons Ratio (y) = 0.48827 0.27031
# Poissons Ratio (z) = 0.24081 0.24081
#
# Static dielectric constant tensor:
#      x y z
#    x 3.115070 0.000000 0.000000 
#    y 0.000000 3.115070 0.000000 
#    z 0.000000 0.000000 3.335790 
# 
# 
# High freq. dielectric constant tensor:
#      x y z
#    x 1.606180 0.000000 0.000000 
#    y 0.000000 1.606180 0.000000 
#    z 0.000000 0.000000 1.647650 
# 
# From -- ./inp_files/775.got.cif
#   From: 2010.03.12/outbox.cif.g09.slc.cpg/sg189_1_cif.got.tgz:775.got - 2010.04.01 12:03:36.
