data_PCOD8327890
_publ_section_title
;
Structure prediction by ZEFSAII (Michael W. Deem and Ramdas Pophale) SiO2 
 PCOD8327890
Probable space group: P -6 2 M
;
_chemical_formula_sum "Si O2"
_cell_formula_units_Z 44
_cell_length_a 17.039345
_cell_length_b 17.039345
_cell_length_c 9.269552
_cell_angle_alpha 90.000000
_cell_angle_beta 90.000000
_cell_angle_gamma 120.000000
_cell_volume 2330.747190
_symmetry_space_group_name_H-M "P -6 2 M"
_symmetry_group_IT_number 189
_symmetry_cell_setting 'hexagonal'
loop_
_space_group_symop_operation_xyz
x,y,z
-x+y,-x,-z
-y,x-y,z
x,y,-z
-x+y,-x,z
-y,x-y,-z
x-y,-y,-z
-x,-x+y,-z
y,x,-z
y,x,z
x-y,-y,z
-x,-x+y,z
loop_
_atom_site_type_symbol
_atom_site_label
_atom_site_fract_x
_atom_site_fract_y
_atom_site_fract_z
Si Si1 0.629995 0.834784 0.170664
Si Si2 0.000000 0.000000 0.827783
Si Si3 0.443974 0.106106 0.658464
Si Si4 0.511979 0.896234 0.331967
Si Si5 0.179549 0.179549 0.828855
O O1 0.612225 0.737553 0.222337
O O2 0.547718 0.842539 0.237443
O O3 0.729100 0.911555 0.226687
O O4 0.625367 0.837963 0.000000
O O5 0.000000 0.910031 0.768988
O O6 0.000000 0.000000 0.000000
O O7 0.438745 0.144653 0.500000
O O8 0.549340 0.144380 0.701812
O O9 0.402115 0.000000 0.645154
O O10 0.526269 0.884880 0.500000
O O11 0.569945 0.000000 0.283485
O O12 0.176243 0.176243 0.000000
#
# Coordination Sequence:
#
# PCOD8327890 Si02
#       5
#    12   2  12  12   6
#     4  11  21  34  55  87 118 145 185 234 289 346
#     4   9  18  36  54  72 115 164 196 225 271 335
#     4   9  20  38  58  80 107 143 189 234 277 336
#     4   9  18  36  59  79 103 141 186 227 274 333
#     4   9  20  34  53  82 115 154 192 233 279 339
#
# _framework density 18.878067999999999
#
# number of rings (size 3 to 8) (size 9 to 14) (size 15 to 20)
#    0.000    2.455    1.364    2.455    1.909    1.636 
#    1.636    2.727    0.000    0.000    0.000    0.000 
#    0.000    0.000    0.000    0.000    0.000    0.000 
#
# Total GULP energy -545419.024186 kJ/mol
# GULP energy per Si atom -12395.886913 kJ/mol
# Density = 1.883510 g / cm^3
# Si number density = 18.878068 Si / 1000 Ang^3
#
#
#
# Elastic Constant Matrix: (Units=GPa)
#
#
# Indices 1 2 3 4 5 6 
#
# 1 97.5039 45.7891 29.5545 0.0000 0.0000 0.0000
# 2 45.7891 97.5039 29.5545 0.0000 0.0000 0.0000
# 3 29.5545 29.5545 51.9104 0.0000 0.0000 0.0000
# 4 0.0000 0.0000 0.0000 29.3411 0.0000 0.0000
# 5 0.0000 0.0000 0.0000 0.0000 29.3411 0.0000
# 6 0.0000 0.0000 0.0000 0.0000 0.0000 25.8574
#
#
#
# Elastic Compliance Matrix: (Units=1/GPa)
#
#
# Indices 1 2 3 4 5 6 
#
# 1 0.014229 -0.005108 -0.005193 0.000000 0.000000 0.000000
# 2 -0.005108 0.014229 -0.005193 0.000000 0.000000 0.000000
# 3 -0.005193 -0.005193 0.025177 0.000000 0.000000 0.000000
# 4 0.000000 0.000000 0.000000 0.034082 0.000000 0.000000
# 5 0.000000 0.000000 0.000000 0.000000 0.034082 0.000000
# 6 0.000000 0.000000 0.000000 0.000000 0.000000 0.038674
#
#
# Mechanical properties :
#
#
# Convention : Reuss Voigt Hill
#
# Bulk Modulus (GPa) = 44.15554 50.74606 47.45080
# Shear Modulus (GPa) = 25.12462 26.37595 25.75028
#
# Velocity S-wave (km/s) = 3.65209 3.74193 3.69729
# Velocity P-wave (km/s) = 6.42062 6.75342 6.58912
#
# Compressibility (1/GPa) = 0.02264721
#
# Stress axis : x y z
#
# Youngs Moduli (GPa) = 70.28007 70.28007 39.71904
#
# Poissons Ratio (x) = 0.35899 0.20625
# Poissons Ratio (y) = 0.35899 0.20625
# Poissons Ratio (z) = 0.36495 0.36495
#
# Static dielectric constant tensor:
#      x y z
#    x 3.504190 0.000000 0.000000 
#    y 0.000000 3.504190 0.000000 
#    z 0.000000 0.000000 3.199280 
# 
# 
# High freq. dielectric constant tensor:
#      x y z
#    x 1.734090 0.000000 0.000000 
#    y 0.000000 1.734090 0.000000 
#    z 0.000000 0.000000 1.708620 
# 
# From -- ./inp_files/573.got.cif
#   From: 2010.03.12/outbox.cif.g09.slc.cpg/sg189_1_cif.got.tgz:573.got - 2010.04.01 12:03:36.
