data_PCOD8327235
_publ_section_title
;
Structure prediction by ZEFSAII (Michael W. Deem and Ramdas Pophale) SiO2 
 PCOD8327235
Probable space group: P -6 M 2
;
_chemical_formula_sum "Si O2"
_cell_formula_units_Z 84
_cell_length_a 18.225717
_cell_length_b 18.225717
_cell_length_c 14.692270
_cell_angle_alpha 90.000000
_cell_angle_beta 90.000000
_cell_angle_gamma 120.000000
_cell_volume 4226.576923
_symmetry_space_group_name_H-M "P -6 M 2"
_symmetry_group_IT_number 187
_symmetry_cell_setting 'hexagonal'
loop_
_space_group_symop_operation_xyz
x,y,z
-x+y,-x,-z
-y,x-y,z
x,y,-z
-x+y,-x,z
-y,x-y,-z
-y,-x,-z
-x+y,y,-z
x,x-y,-z
-x+y,y,z
x,x-y,z
-y,-x,z
loop_
_atom_site_type_symbol
_atom_site_label
_atom_site_fract_x
_atom_site_fract_y
_atom_site_fract_z
Si Si1 0.823589 0.332857 0.605558
Si Si2 0.999449 0.835156 0.145096
Si Si3 0.671819 0.657452 0.398260
Si Si4 0.256439 0.349797 0.896978
Si Si5 0.166184 0.000334 0.360608
Si Si6 0.837737 0.334074 0.104475
Si Si7 0.411500 0.417298 0.781705
O O1 0.808551 0.337695 0.500000
O O2 0.854229 0.427115 0.648305
O O3 0.734902 0.265099 0.652050
O O4 0.887867 0.298719 0.620697
O O5 0.074853 0.925148 0.108732
O O6 0.013416 0.759287 0.110613
O O7 0.910485 0.820969 0.106159
O O8 0.997973 0.834385 0.252999
O O9 0.630284 0.643255 0.500000
O O10 0.750601 0.751327 0.395258
O O11 0.605612 0.635808 0.316605
O O12 0.175574 0.351147 0.852756
O O13 0.341732 0.416762 0.847916
O O14 0.267183 0.379121 0.000000
O O15 0.165803 0.082902 0.399868
O O16 0.083561 0.916440 0.397828
O O17 0.810856 0.405428 0.114078
O O18 0.757066 0.242935 0.127667
O O19 0.911930 0.352805 0.177776
O O20 0.869001 0.335142 0.000000
O O21 0.488318 0.511683 0.777019
#
# Coordination Sequence:
#
# PCOD8327235 Si02
#       7
#    12  12  12  12  12  12  12
#     4   9  17  30  48  69  95 131 178 232 288 342
#     4   9  17  31  53  82 117 157 199 241 284 335
#     4  11  23  38  56  79 111 150 193 242 292 340
#     4  10  21  38  60  86 117 151 186 229 286 350
#     4  10  20  36  58  84 115 154 200 246 286 329
#     4   9  18  33  54  81 113 148 186 228 276 333
#     4  11  23  39  60  84 112 148 190 237 288 346
#
# _framework density 19.87424
#
# number of rings (size 3 to 8) (size 9 to 14) (size 15 to 20)
#    0.000    2.143    1.429    1.857    0.000    7.143 
#    0.000    0.000    0.000    3.714    0.000    0.000 
#    0.000    0.000    0.000    0.000    0.000    0.000 
#
# Total GULP energy -1040906.621762 kJ/mol
# GULP energy per Si atom -12391.745497 kJ/mol
# Density = 1.982901 g / cm^3
# Si number density = 19.874240 Si / 1000 Ang^3
#
#
#
# Elastic Constant Matrix: (Units=GPa)
#
#
# Indices 1 2 3 4 5 6 
#
# 1 105.1085 59.2665 33.7447 0.0000 -0.0579 0.0000
# 2 59.2665 105.1085 33.7447 0.0000 0.0579 0.0000
# 3 33.7447 33.7447 89.0030 0.0000 0.0000 0.0000
# 4 0.0000 0.0000 0.0000 -701.1735 -0.0005 0.0579
# 5 -0.0579 0.0579 0.0000 -0.0005 -701.1730 0.0000
# 6 0.0000 0.0000 0.0000 0.0579 0.0000 22.9210
#
#
#
# Elastic Compliance Matrix: (Units=1/GPa)
#
#
# Indices 1 2 3 4 5 6 
#
# 1 0.014510 -0.007304 -0.002732 0.000000 -0.000002 0.000000
# 2 -0.007304 0.014510 -0.002732 0.000000 0.000002 0.000000
# 3 -0.002732 -0.002732 0.013307 0.000000 0.000000 0.000000
# 4 0.000000 0.000000 0.000000 -0.001426 0.000000 0.000004
# 5 -0.000002 0.000002 0.000000 0.000000 -0.001426 0.000000
# 6 0.000000 0.000000 0.000000 0.000004 0.000000 0.043628
#
#
# Mechanical properties :
#
#
# Convention : Reuss Voigt Hill
#
# Bulk Modulus (GPa) = 59.55798 61.41464 60.48631
# Shear Modulus (GPa) = 43.76947 -264.38747 -110.30900
#
# Velocity S-wave (km/s) = 4.69798 -11.54639 -7.45815
# Velocity P-wave (km/s) = 7.71106 12.11569 6.60793
#
# Compressibility (1/GPa) = 0.01679036
#
# Stress axis : x y z
#
# Youngs Moduli (GPa) = 68.91964 68.91964 75.14799
#
# Poissons Ratio (x) = 0.50341 0.20529
# Poissons Ratio (y) = 0.50341 0.20529
# Poissons Ratio (z) = 0.18828 0.18828
#
# Static dielectric constant tensor:
#      x y z
#    x 3.556190 0.000000 0.000000 
#    y 0.000000 3.556190 0.000000 
#    z 0.000000 0.000000 3.779960 
# 
# 
# High freq. dielectric constant tensor:
#      x y z
#    x 1.754860 0.000000 0.000000 
#    y 0.000000 1.754860 0.000000 
#    z 0.000000 0.000000 1.783560 
# 
# From -- ./inp_files/2596.got.cif
#   From: 2010.03.12/outbox.cif.g09.slc.cpg/sg187_2_cif.got.tgz:2596.got - 2010.04.01 11:58:23.
