data_PCOD8327700
_publ_section_title
;
Structure prediction by ZEFSAII (Michael W. Deem and Ramdas Pophale) SiO2 
 PCOD8327700
Probable space group: P -6 2 M
;
_chemical_formula_sum "Si O2"
_cell_formula_units_Z 72
_cell_length_a 23.836070
_cell_length_b 23.836070
_cell_length_c 9.105115
_cell_angle_alpha 90.000000
_cell_angle_beta 90.000000
_cell_angle_gamma 120.000000
_cell_volume 4480.075897
_symmetry_space_group_name_H-M "P -6 2 M"
_symmetry_group_IT_number 189
_symmetry_cell_setting 'hexagonal'
loop_
_space_group_symop_operation_xyz
x,y,z
-x+y,-x,-z
-y,x-y,z
x,y,-z
-x+y,-x,z
-y,x-y,-z
x-y,-y,-z
-x,-x+y,-z
y,x,-z
y,x,z
x-y,-y,z
-x,-x+y,z
loop_
_atom_site_type_symbol
_atom_site_label
_atom_site_fract_x
_atom_site_fract_y
_atom_site_fract_z
Si Si1 0.852877 0.926849 0.826683
Si Si2 0.736094 0.474318 0.671173
Si Si3 0.925142 0.404525 0.170612
Si Si4 0.866716 0.270775 0.672498
Si Si5 0.925274 0.183896 0.329110
Si Si6 0.405040 0.589822 0.324773
O O1 0.900108 0.900108 0.776685
O O2 0.782175 0.883679 0.756105
O O3 0.883494 0.000000 0.768561
O O4 0.844855 0.923682 0.000000
O O5 0.735845 0.462328 0.500000
O O6 0.758165 0.548766 0.708139
O O7 0.786627 0.454605 0.737770
O O8 0.663063 0.428399 0.728036
O O9 0.910642 0.336906 0.241455
O O10 0.884248 0.433297 0.248990
O O11 0.000000 0.456846 0.194318
O O12 0.906673 0.392568 0.000000
O O13 0.880841 0.286506 0.500000
O O14 0.884739 0.217410 0.724283
O O15 0.915218 0.167546 0.500000
O O16 0.000000 0.232523 0.290121
O O17 0.411190 0.585754 0.500000
#
# Coordination Sequence:
#
# PCOD8327700 Si02
#       6
#    12  12  12  12  12  12
#     4   9  17  29  45  64  86 113 145 180 217 258
#     4   8  14  25  44  68  88 109 139 175 212 252
#     4  10  20  31  43  63  91 119 148 183 220 258
#     4   9  17  30  48  68  90 116 146 180 220 265
#     4   9  17  28  43  65  91 116 142 175 217 263
#     4   9  16  28  47  68  90 115 144 178 218 264
#
# _framework density 16.071155999999998
#
# number of rings (size 3 to 8) (size 9 to 14) (size 15 to 20)
#    0.000    3.000    0.000    2.500    0.000    5.000 
#    0.000    5.000    0.000    2.000    0.000    7.000 
#    0.000    0.000    0.000    0.000    0.000    0.000 
#
# Total GULP energy -892588.888547 kJ/mol
# GULP energy per Si atom -12397.067896 kJ/mol
# Density = 1.603458 g / cm^3
# Si number density = 16.071156 Si / 1000 Ang^3
#
#
#
# Elastic Constant Matrix: (Units=GPa)
#
#
# Indices 1 2 3 4 5 6 
#
# 1 121.6158 66.4707 36.1448 0.0000 0.0000 0.0000
# 2 66.4707 121.6158 36.1448 0.0000 0.0000 0.0000
# 3 36.1448 36.1448 41.5763 0.0000 0.0000 0.0000
# 4 0.0000 0.0000 0.0000 18.4240 0.0000 0.0000
# 5 0.0000 0.0000 0.0000 0.0000 18.4240 0.0000
# 6 0.0000 0.0000 0.0000 0.0000 0.0000 27.5725
#
#
#
# Elastic Compliance Matrix: (Units=1/GPa)
#
#
# Indices 1 2 3 4 5 6 
#
# 1 0.013059 -0.005075 -0.006942 0.000000 0.000000 0.000000
# 2 -0.005075 0.013059 -0.006942 0.000000 0.000000 0.000000
# 3 -0.006942 -0.006942 0.036122 0.000000 0.000000 0.000000
# 4 0.000000 0.000000 0.000000 0.054277 0.000000 0.000000
# 5 0.000000 0.000000 0.000000 0.000000 0.054277 0.000000
# 6 0.000000 0.000000 0.000000 0.000000 0.000000 0.036268
#
#
# Mechanical properties :
#
#
# Convention : Reuss Voigt Hill
#
# Bulk Modulus (GPa) = 41.11048 62.48096 51.79572
# Shear Modulus (GPa) = 19.75613 22.62060 21.18836
#
# Velocity S-wave (km/s) = 3.50993 3.75577 3.63493
# Velocity P-wave (km/s) = 6.48552 7.60065 7.06512
#
# Compressibility (1/GPa) = 0.02432469
#
# Stress axis : x y z
#
# Youngs Moduli (GPa) = 76.57376 76.57376 27.68433
#
# Poissons Ratio (x) = 0.38859 0.19217
# Poissons Ratio (y) = 0.38859 0.19217
# Poissons Ratio (z) = 0.53154 0.53154
#
# Static dielectric constant tensor:
#      x y z
#    x 3.126220 0.000000 0.000000 
#    y 0.000000 3.126220 0.000000 
#    z 0.000000 0.000000 2.872730 
# 
# 
# High freq. dielectric constant tensor:
#      x y z
#    x 1.609990 0.000000 0.000000 
#    y 0.000000 1.609990 0.000000 
#    z 0.000000 0.000000 1.599800 
# 
# From -- ./inp_files/1284.got.cif
#   From: 2010.03.12/outbox.cif.g09.slc.cpg/sg189_1_cif.got.tgz:1284.got - 2010.04.01 12:03:36.
