data_PCOD8327781
_publ_section_title
;
Structure prediction by ZEFSAII (Michael W. Deem and Ramdas Pophale) SiO2 
 PCOD8327781
Probable space group: P -6 2 M
;
_chemical_formula_sum "Si O2"
_cell_formula_units_Z 60
_cell_length_a 15.272880
_cell_length_b 15.272880
_cell_length_c 14.745649
_cell_angle_alpha 90.000000
_cell_angle_beta 90.000000
_cell_angle_gamma 120.000000
_cell_volume 2978.766099
_symmetry_space_group_name_H-M "P -6 2 M"
_symmetry_group_IT_number 189
_symmetry_cell_setting 'hexagonal'
loop_
_space_group_symop_operation_xyz
x,y,z
-x+y,-x,-z
-y,x-y,z
x,y,-z
-x+y,-x,z
-y,x-y,-z
x-y,-y,-z
-x,-x+y,-z
y,x,-z
y,x,z
x-y,-y,z
-x,-x+y,z
loop_
_atom_site_type_symbol
_atom_site_label
_atom_site_fract_x
_atom_site_fract_y
_atom_site_fract_z
Si Si1 0.257955 0.879925 0.900573
Si Si2 0.450944 0.770092 0.269217
Si Si3 0.762846 0.882254 0.245517
Si Si4 0.117752 0.575885 0.896634
Si Si5 0.367988 0.250908 0.601288
O O1 0.170822 0.840051 0.824518
O O2 0.339918 0.845358 0.880286
O O3 0.316194 0.000000 0.900404
O O4 0.208328 0.840672 0.000000
O O5 0.345498 0.772209 0.278176
O O6 0.493167 0.820303 0.169526
O O7 0.524339 0.832558 0.349980
O O8 0.836581 0.836581 0.242576
O O9 0.713190 0.864269 0.345010
O O10 0.827728 0.000000 0.220371
O O11 0.000000 0.526882 0.873891
O O12 0.140552 0.615455 0.000000
O O13 0.379189 0.217450 0.500000
O O14 0.332075 0.332075 0.597161
#
# Coordination Sequence:
#
# PCOD8327781 Si02
#       5
#    12  12  12  12  12
#     4   8  15  29  51  80 115 153 188 225 271 327
#     4  10  22  35  55  84 113 148 189 237 290 338
#     4  10  20  35  58  87 118 151 190 239 292 352
#     4   9  17  32  55  81 112 151 193 235 279 332
#     4  10  22  41  61  80 109 149 190 239 301 363
#
# _framework density 20.142569000000002
#
# number of rings (size 3 to 8) (size 9 to 14) (size 15 to 20)
#    0.400    2.200    0.000    3.200    0.000    2.400 
#    0.000    2.000    0.000    3.600    0.000    0.000 
#    0.000    0.000    0.000    0.000    0.000    0.000 
#
# Total GULP energy -743652.712063 kJ/mol
# GULP energy per Si atom -12394.211868 kJ/mol
# Density = 2.009672 g / cm^3
# Si number density = 20.142569 Si / 1000 Ang^3
#
#
#
# Elastic Constant Matrix: (Units=GPa)
#
#
# Indices 1 2 3 4 5 6 
#
# 1 62.3264 16.1346 29.4617 0.0000 0.0000 0.0000
# 2 16.1346 62.3264 29.4617 0.0000 0.0000 0.0000
# 3 29.4617 29.4617 127.6955 0.0000 0.0000 0.0000
# 4 0.0000 0.0000 0.0000 28.6618 0.0000 0.0000
# 5 0.0000 0.0000 0.0000 0.0000 28.6618 0.0000
# 6 0.0000 0.0000 0.0000 0.0000 0.0000 23.0959
#
#
#
# Elastic Compliance Matrix: (Units=1/GPa)
#
#
# Indices 1 2 3 4 5 6 
#
# 1 0.018533 -0.003116 -0.003557 0.000000 0.000000 0.000000
# 2 -0.003116 0.018533 -0.003557 0.000000 0.000000 0.000000
# 3 -0.003557 -0.003557 0.009472 0.000000 0.000000 0.000000
# 4 0.000000 0.000000 0.000000 0.034890 0.000000 0.000000
# 5 0.000000 0.000000 0.000000 0.000000 0.034890 0.000000
# 6 0.000000 0.000000 0.000000 0.000000 0.000000 0.043298
#
#
# Mechanical properties :
#
#
# Convention : Reuss Voigt Hill
#
# Bulk Modulus (GPa) = 38.34689 44.71823 41.53256
# Shear Modulus (GPa) = 26.48768 27.90325 27.19546
#
# Velocity S-wave (km/s) = 3.63024 3.72598 3.67842
# Velocity P-wave (km/s) = 6.05397 6.38433 6.22134
#
# Compressibility (1/GPa) = 0.02607773
#
# Stress axis : x y z
#
# Youngs Moduli (GPa) = 53.95899 53.95899 105.57017
#
# Poissons Ratio (x) = 0.16815 0.37549
# Poissons Ratio (y) = 0.16815 0.37549
# Poissons Ratio (z) = 0.19192 0.19192
#
# Static dielectric constant tensor:
#      x y z
#    x 3.537450 0.000000 0.000000 
#    y 0.000000 3.537450 0.000000 
#    z 0.000000 0.000000 3.862020 
# 
# 
# High freq. dielectric constant tensor:
#      x y z
#    x 1.784040 0.000000 0.000000 
#    y 0.000000 1.784040 0.000000 
#    z 0.000000 0.000000 1.782540 
# 
# From -- ./inp_files/1920.got.cif
#   From: 2010.03.12/outbox.cif.g09.slc.cpg/sg189_1_cif.got.tgz:1920.got - 2010.04.01 12:03:36.
