data_PCOD8327955
_publ_section_title
;
Structure prediction by ZEFSAII (Michael W. Deem and Ramdas Pophale) SiO2 
 PCOD8327955
Probable space group: P -6 2 C
;
_chemical_formula_sum "Si O2"
_cell_formula_units_Z 84
_cell_length_a 17.652183
_cell_length_b 17.652183
_cell_length_c 14.059294
_cell_angle_alpha 90.000000
_cell_angle_beta 90.000000
_cell_angle_gamma 120.000000
_cell_volume 3793.944615
_symmetry_space_group_name_H-M "P -6 2 C"
_symmetry_group_IT_number 190
_symmetry_cell_setting 'hexagonal'
loop_
_space_group_symop_operation_xyz
x,y,z
-x+y,-x,1/2-z
-y,x-y,z
x,y,1/2-z
-x+y,-x,z
-y,x-y,1/2-z
x-y,-y,-z
-x,-x+y,-z
y,x,-z
y,x,1/2+z
x-y,-y,1/2+z
-x,-x+y,1/2+z
loop_
_atom_site_type_symbol
_atom_site_label
_atom_site_fract_x
_atom_site_fract_y
_atom_site_fract_z
Si Si1 0.218459 0.302475 0.135111
Si Si2 0.382608 0.012433 0.108740
Si Si3 0.252646 0.796752 0.644612
Si Si4 0.258804 0.156866 0.141961
Si Si5 0.616477 0.460495 0.856620
Si Si6 0.203839 0.717399 0.052026
Si Si7 0.224802 0.026960 0.645950
O O1 0.228087 0.318739 0.250000
O O2 0.248081 0.234682 0.097170
O O3 0.274342 0.393330 0.078239
O O4 0.119413 0.259149 0.093904
O O5 0.457363 0.112597 0.130123
O O6 0.418270 0.947746 0.138507
O O7 0.294981 0.989158 0.164664
O O8 0.355584 0.000000 0.000000
O O9 0.253151 0.757863 0.750000
O O10 0.174294 0.815823 0.636634
O O11 0.233884 0.729388 0.558758
O O12 0.226219 0.146180 0.250000
O O13 0.203180 0.058787 0.094094
O O14 0.604951 0.423902 0.750000
O O15 0.561786 0.380059 0.926112
O O16 0.717903 0.508097 0.884896
O O17 0.192472 0.037083 0.750000
#
# Coordination Sequence:
#
# PCOD8327955 Si02
#       7
#    12  12  12  12  12  12  12
#     4  10  18  34  57  89 131 172 217 269 333 398
#     4  11  19  37  66  97 125 166 220 271 324 403
#     4  10  21  42  66  91 128 174 221 272 327 397
#     4   8  17  32  54  86 124 169 215 263 321 385
#     4  12  24  42  66  99 135 167 216 278 343 404
#     4  12  25  42  66  96 129 174 219 272 348 413
#     4   9  16  30  56  86 124 172 217 261 319 396
#
# _framework density 22.140546000000001
#
# number of rings (size 3 to 8) (size 9 to 14) (size 15 to 20)
#    0.000    1.714    2.857    3.714    0.000    0.571 
#    3.429    0.714    0.000    0.000    0.000    0.000 
#    0.000    0.000    0.000    0.000    0.000    0.000 
#
# Total GULP energy -1040800.847442 kJ/mol
# GULP energy per Si atom -12390.486279 kJ/mol
# Density = 2.209015 g / cm^3
# Si number density = 22.140546 Si / 1000 Ang^3
#
#
#
# Elastic Constant Matrix: (Units=GPa)
#
#
# Indices 1 2 3 4 5 6 
#
# 1 94.5643 31.2448 23.7543 0.0000 0.0000 0.0000
# 2 31.2448 94.5643 23.7543 0.0000 0.0000 0.0000
# 3 23.7543 23.7543 109.7394 0.0000 0.0000 0.0000
# 4 0.0000 0.0000 0.0000 -49.2534 0.0000 0.0000
# 5 0.0000 0.0000 0.0000 0.0000 -49.2534 0.0000
# 6 0.0000 0.0000 0.0000 0.0000 0.0000 31.6598
#
#
#
# Elastic Compliance Matrix: (Units=1/GPa)
#
#
# Indices 1 2 3 4 5 6 
#
# 1 0.012225 -0.003568 -0.001874 0.000000 0.000000 0.000000
# 2 -0.003568 0.012225 -0.001874 0.000000 0.000000 0.000000
# 3 -0.001874 -0.001874 0.009924 0.000000 0.000000 0.000000
# 4 0.000000 0.000000 0.000000 -0.020303 0.000000 0.000000
# 5 0.000000 0.000000 0.000000 0.000000 -0.020303 0.000000
# 6 0.000000 0.000000 0.000000 0.000000 0.000000 0.031586
#
#
# Mechanical properties :
#
#
# Convention : Reuss Voigt Hill
#
# Bulk Modulus (GPa) = 50.65587 50.70831 50.68209
# Shear Modulus (GPa) = 107.37874 1.30491 54.34182
#
# Velocity S-wave (km/s) = 6.97165 0.76854 4.95957
# Velocity P-wave (km/s) = 9.36665 4.87239 7.46573
#
# Compressibility (1/GPa) = 0.01974105
#
# Stress axis : x y z
#
# Youngs Moduli (GPa) = 81.80289 81.80289 100.76923
#
# Poissons Ratio (x) = 0.29191 0.18881
# Poissons Ratio (y) = 0.29191 0.18881
# Poissons Ratio (z) = 0.15327 0.15327
#
# Static dielectric constant tensor:
#      x y z
#    x 3.852630 0.000000 0.000000 
#    y 0.000000 3.852630 0.000000 
#    z 0.000000 0.000000 4.136770 
# 
# 
# High freq. dielectric constant tensor:
#      x y z
#    x 1.851360 0.000000 0.000000 
#    y 0.000000 1.851360 0.000000 
#    z 0.000000 0.000000 1.879620 
# 
# From -- ./inp_files/3179.got.cif
#   From: 2010.06.25/outbox.cif.g09.slc.cpg/sg190_2_cif.got.tgz:3179.got - 2010.06.28 13:08:06.
