data_PCOD8327073
_publ_section_title
;
Structure prediction by ZEFSAII (Michael W. Deem and Ramdas Pophale) SiO2 
 PCOD8327073
Probable space group: P -6 M 2
;
_chemical_formula_sum "Si O2"
_cell_formula_units_Z 96
_cell_length_a 17.508576
_cell_length_b 17.508576
_cell_length_c 21.081478
_cell_angle_alpha 90.000000
_cell_angle_beta 90.000000
_cell_angle_gamma 120.000000
_cell_volume 5596.716889
_symmetry_space_group_name_H-M "P -6 M 2"
_symmetry_group_IT_number 187
_symmetry_cell_setting 'hexagonal'
loop_
_space_group_symop_operation_xyz
x,y,z
-x+y,-x,-z
-y,x-y,z
x,y,-z
-x+y,-x,z
-y,x-y,-z
-y,-x,-z
-x+y,y,-z
x,x-y,-z
-x+y,y,z
x,x-y,z
-y,-x,z
loop_
_atom_site_type_symbol
_atom_site_label
_atom_site_fract_x
_atom_site_fract_y
_atom_site_fract_z
Si Si1 0.841730 0.333389 0.394521
Si Si2 0.759545 0.060672 0.429804
Si Si3 0.840939 0.333377 0.754389
Si Si4 0.301834 0.061544 0.800945
Si Si5 0.666505 0.498674 0.927983
Si Si6 0.000554 0.818244 0.685814
Si Si7 0.165487 0.499233 0.075044
Si Si8 0.681300 0.999413 0.072287
O O1 0.851490 0.425745 0.417566
O O2 0.745192 0.254808 0.415465
O O3 0.920620 0.322019 0.424151
O O4 0.854097 0.331733 0.319896
O O5 0.756994 0.021531 0.500000
O O6 0.845928 0.154073 0.419310
O O7 0.761081 0.995687 0.376396
O O8 0.854596 0.427298 0.776614
O O9 0.742675 0.257326 0.772963
O O10 0.914713 0.317925 0.789536
O O11 0.297978 0.148989 0.794263
O O12 0.268434 0.021350 0.872005
O O13 0.235511 0.996119 0.747475
O O14 0.760072 0.520143 0.896039
O O15 0.585444 0.414557 0.893461
O O16 0.650605 0.579847 0.924101
O O17 0.668462 0.473655 0.000000
O O18 0.085685 0.914316 0.686086
O O19 0.914680 0.829359 0.685252
O O20 0.258183 0.516365 0.102943
O O21 0.145076 0.572538 0.104304
O O22 0.092259 0.401232 0.093141
O O23 0.170344 0.508379 0.000000
O O24 0.715663 0.997325 0.000000
#
# Coordination Sequence:
#
# PCOD8327073 Si02
#       8
#    12  12  12  12  12  12  12  12
#     4   9  15  25  42  67 101 142 184 215 234 260
#     4   9  17  30  48  72 104 135 159 191 237 279
#     4   9  16  27  44  66  93 128 170 209 239 271
#     4  10  20  34  50  68  94 127 161 198 242 289
#     4   9  16  26  40  59  86 121 159 195 230 270
#     4  10  20  36  56  76  95 120 156 197 241 293
#     4   9  17  30  48  68  89 113 143 182 232 291
#     4  10  20  32  47  68  93 120 154 197 241 288
#
# _framework density 17.152913999999999
#
# number of rings (size 3 to 8) (size 9 to 14) (size 15 to 20)
#    0.000    2.625    1.250    1.375    0.000    6.250 
#    0.000    0.000    0.000    3.000    0.000    0.000 
#    0.000    1.000    0.000    1.750    0.000    3.250 
#
# Total GULP energy -1189419.188047 kJ/mol
# GULP energy per Si atom -12389.783209 kJ/mol
# Density = 1.711387 g / cm^3
# Si number density = 17.152914 Si / 1000 Ang^3
#
#
#
# Elastic Constant Matrix: (Units=GPa)
#
#
# Indices 1 2 3 4 5 6 
#
# 1 54.3066 33.3744 28.3992 0.0000 0.0000 0.0000
# 2 33.3744 54.3066 28.3992 0.0000 0.0000 0.0000
# 3 28.3992 28.3992 106.7400 0.0000 0.0000 0.0000
# 4 0.0000 0.0000 0.0000 3.1983 0.0000 0.0000
# 5 0.0000 0.0000 0.0000 0.0000 3.1983 0.0000
# 6 0.0000 0.0000 0.0000 0.0000 0.0000 10.4661
#
#
#
# Elastic Compliance Matrix: (Units=1/GPa)
#
#
# Indices 1 2 3 4 5 6 
#
# 1 0.030777 -0.016997 -0.003666 0.000000 -0.000001 0.000000
# 2 -0.016997 0.030777 -0.003666 0.000000 0.000001 0.000000
# 3 -0.003666 -0.003666 0.011319 0.000000 0.000000 0.000000
# 4 0.000000 0.000000 0.000000 0.312668 0.000000 0.000001
# 5 -0.000001 0.000001 0.000000 0.000000 0.312668 0.000000
# 6 0.000000 0.000000 0.000000 0.000001 0.000000 0.095547
#
#
# Mechanical properties :
#
#
# Convention : Reuss Voigt Hill
#
# Bulk Modulus (GPa) = 41.29810 43.96654 42.63232
# Shear Modulus (GPa) = 5.87899 11.71789 8.79844
#
# Velocity S-wave (km/s) = 1.85333 2.61654 2.26728
# Velocity P-wave (km/s) = 5.35803 5.90052 5.63580
#
# Compressibility (1/GPa) = 0.02421419
#
# Stress axis : x y z
#
# Youngs Moduli (GPa) = 32.49219 32.49219 88.34349
#
# Poissons Ratio (x) = 0.55226 0.32389
# Poissons Ratio (y) = 0.55226 0.32389
# Poissons Ratio (z) = 0.11913 0.11913
#
# Static dielectric constant tensor:
#      x y z
#    x 3.106570 0.000000 0.000000 
#    y 0.000000 3.106570 0.000000 
#    z 0.000000 0.000000 3.355960 
# 
# 
# High freq. dielectric constant tensor:
#      x y z
#    x 1.637000 0.000000 0.000000 
#    y 0.000000 1.637000 0.000000 
#    z 0.000000 0.000000 1.663350 
# 
# From -- ./inp_files/3742.got.cif
#   From: 2010.03.12/outbox.cif.g09.slc.cpg/sg187_2_cif.got.tgz:3742.got - 2010.04.01 11:58:23.
