data_PCOD8327436
_publ_section_title
;
Structure prediction by ZEFSAII (Michael W. Deem and Ramdas Pophale) SiO2 
 PCOD8327436
Probable space group: P -6 C 2
;
_chemical_formula_sum "Si O2"
_cell_formula_units_Z 84
_cell_length_a 18.322463
_cell_length_b 18.322463
_cell_length_c 15.335949
_cell_angle_alpha 90.000000
_cell_angle_beta 90.000000
_cell_angle_gamma 120.000000
_cell_volume 4458.707616
_symmetry_space_group_name_H-M "P -6 C 2"
_symmetry_group_IT_number 188
_symmetry_cell_setting 'hexagonal'
loop_
_space_group_symop_operation_xyz
x,y,z
-x+y,-x,1/2-z
-y,x-y,z
x,y,1/2-z
-x+y,-x,z
-y,x-y,1/2-z
-y,-x,-z
-x+y,y,-z
x,x-y,-z
-x+y,y,1/2+z
x,x-y,1/2+z
-y,-x,1/2+z
loop_
_atom_site_type_symbol
_atom_site_label
_atom_site_fract_x
_atom_site_fract_y
_atom_site_fract_z
Si Si1 0.013960 0.588242 0.853393
Si Si2 0.411758 0.986040 0.853393
Si Si3 0.506020 0.173653 0.146413
Si Si4 0.000580 0.174142 0.250000
Si Si5 0.506020 0.173653 0.646413
Si Si6 0.173562 0.174142 0.250000
Si Si7 0.700289 0.933482 0.901917
Si Si8 0.700289 0.766807 0.598083
O O1 0.017693 0.591700 0.750000
O O2 0.042281 0.521140 0.885788
O O3 0.070813 0.681183 0.891835
O O4 0.919666 0.558478 0.887860
O O5 0.408300 0.982307 0.750000
O O6 0.318817 0.929187 0.891835
O O7 0.441522 0.080334 0.887860
O O8 0.502665 0.173597 0.250000
O O9 0.600101 0.200201 0.115679
O O10 0.481843 0.240922 0.107639
O O11 0.077429 0.154857 0.250000
O O12 0.003145 0.227861 0.165041
O O13 0.913488 0.086512 0.250000
O O14 0.502665 0.173597 0.750000
O O15 0.224717 0.227861 0.334959
O O16 0.678871 0.839436 0.880645
O O17 0.735310 0.960716 0.000000
#
# Coordination Sequence:
#
# PCOD8327436 Si02
#       8
#    12  12  12   6  12   6  12  12
#     4   9  17  30  49  77 109 140 177 220 264 314
#     4   9  17  30  49  77 109 140 177 220 264 314
#     4   8  13  21  36  61  95 133 171 207 243 284
#     4  10  21  38  59  82 110 144 182 228 281 338
#     4   8  13  21  36  61  95 133 171 207 243 284
#     4  10  21  38  59  82 110 144 182 228 281 338
#     4  10  21  37  57  81 108 141 182 226 277 336
#     4  10  21  37  57  81 108 141 182 226 277 336
#
# _framework density 18.83954
#
# number of rings (size 3 to 8) (size 9 to 14) (size 15 to 20)
#    0.000    2.857    1.429    2.143    0.000    3.429 
#    0.000    0.000    0.000    2.286    0.000    0.000 
#    0.000    2.286    0.000    0.000    0.000    0.000 
#
# Total GULP energy -1040897.208381 kJ/mol
# GULP energy per Si atom -12391.633433 kJ/mol
# Density = 1.879666 g / cm^3
# Si number density = 18.839540 Si / 1000 Ang^3
#
#
#
# Elastic Constant Matrix: (Units=GPa)
#
#
# Indices 1 2 3 4 5 6 
#
# 1 100.6678 60.4315 35.9306 0.0000 0.0000 0.0000
# 2 60.4315 100.6678 35.9306 0.0000 0.0000 0.0000
# 3 35.9306 35.9306 79.9976 0.0000 0.0000 0.0000
# 4 0.0000 0.0000 0.0000 8.0527 0.0000 0.0000
# 5 0.0000 0.0000 0.0000 0.0000 8.0527 0.0000
# 6 0.0000 0.0000 0.0000 0.0000 0.0000 20.1181
#
#
#
# Elastic Compliance Matrix: (Units=1/GPa)
#
#
# Indices 1 2 3 4 5 6 
#
# 1 0.016308 -0.008545 -0.003487 0.000000 0.000000 0.000000
# 2 -0.008545 0.016308 -0.003487 0.000000 0.000000 0.000000
# 3 -0.003487 -0.003487 0.015632 0.000000 0.000000 0.000000
# 4 0.000000 0.000000 0.000000 0.124182 0.000000 0.000000
# 5 0.000000 0.000000 0.000000 0.000000 0.124182 0.000000
# 6 0.000000 0.000000 0.000000 0.000000 0.000000 0.049706
#
#
# Mechanical properties :
#
#
# Convention : Reuss Voigt Hill
#
# Bulk Modulus (GPa) = 58.10124 60.65761 59.37942
# Shear Modulus (GPa) = 13.05165 17.18072 15.11619
#
# Velocity S-wave (km/s) = 2.63493 3.02313 2.83568
# Velocity P-wave (km/s) = 6.33752 6.66728 6.50449
#
# Compressibility (1/GPa) = 0.01721134
#
# Stress axis : x y z
#
# Youngs Moduli (GPa) = 61.31998 61.31998 63.97016
#
# Poissons Ratio (x) = 0.52400 0.22303
# Poissons Ratio (y) = 0.52400 0.22303
# Poissons Ratio (z) = 0.21379 0.21379
#
# Static dielectric constant tensor:
#      x y z
#    x 3.562390 0.000000 0.000000 
#    y 0.000000 3.562390 0.000000 
#    z 0.000000 0.000000 3.316610 
# 
# 
# High freq. dielectric constant tensor:
#      x y z
#    x 1.718400 0.000000 0.000000 
#    y 0.000000 1.718400 0.000000 
#    z 0.000000 0.000000 1.719840 
# 
# From -- ./inp_files/2633.got.cif
#   From: 2010.03.12/outbox.cif.g09.slc.cpg/sg188_2_cif.got.tgz:2633.got - 2010.04.01 12:01:06.
