data_PCOD8327664
_publ_section_title
;
Structure prediction by ZEFSAII (Michael W. Deem and Ramdas Pophale) SiO2 
 PCOD8327664
Probable space group: P -6 2 M
;
_chemical_formula_sum "Si O2"
_cell_formula_units_Z 60
_cell_length_a 20.842810
_cell_length_b 20.842810
_cell_length_c 8.457043
_cell_angle_alpha 90.000000
_cell_angle_beta 90.000000
_cell_angle_gamma 120.000000
_cell_volume 3181.718181
_symmetry_space_group_name_H-M "P -6 2 M"
_symmetry_group_IT_number 189
_symmetry_cell_setting 'hexagonal'
loop_
_space_group_symop_operation_xyz
x,y,z
-x+y,-x,-z
-y,x-y,z
x,y,-z
-x+y,-x,z
-y,x-y,-z
x-y,-y,-z
-x,-x+y,-z
y,x,-z
y,x,z
x-y,-y,z
-x,-x+y,z
loop_
_atom_site_type_symbol
_atom_site_label
_atom_site_fract_x
_atom_site_fract_y
_atom_site_fract_z
Si Si1 0.082098 0.700290 0.687211
Si Si2 0.815554 0.452952 0.684613
Si Si3 0.853598 0.214134 0.687475
Si Si4 0.000000 0.221793 0.812075
Si Si5 0.694889 0.482001 0.183615
Si Si6 0.920309 0.920309 0.814036
O O1 0.076654 0.698610 0.500000
O O2 0.117953 0.650807 0.740956
O O3 0.134894 0.784983 0.743419
O O4 0.000000 0.666819 0.762573
O O5 0.820574 0.439620 0.500000
O O6 0.823973 0.392194 0.783212
O O7 0.737586 0.448693 0.718307
O O8 0.855281 0.222087 0.500000
O O9 0.845272 0.280291 0.762179
O O10 0.928388 0.221559 0.749923
O O11 0.000000 0.149836 0.735799
O O12 0.000000 0.221317 0.000000
O O13 0.711723 0.480518 0.000000
O O14 0.927243 0.000000 0.766753
O O15 0.909570 0.909570 0.000000
#
# Coordination Sequence:
#
# PCOD8327664 Si02
#       6
#    12  12  12   6  12   6
#     4   8  16  33  56  81 106 136 177 224 271 324
#     4  10  19  33  55  80 110 144 183 226 279 338
#     4  10  21  37  56  78 109 147 185 224 277 342
#     4  11  21  35  57  83 111 144 185 230 275 327
#     4  11  21  35  54  79 111 145 188 235 280 323
#     4   7  14  31  53  79 111 144 177 218 271 335
#
# _framework density 18.857735999999999
#
# number of rings (size 3 to 8) (size 9 to 14) (size 15 to 20)
#    0.200    2.200    0.000    4.900    0.000    0.800 
#    1.800    0.000    0.000   22.200    0.000    0.000 
#    0.000    0.000    0.000    0.000    0.000    0.000 
#
# Total GULP energy -743792.582333 kJ/mol
# GULP energy per Si atom -12396.543039 kJ/mol
# Density = 1.881481 g / cm^3
# Si number density = 18.857736 Si / 1000 Ang^3
#
#
#
# Elastic Constant Matrix: (Units=GPa)
#
#
# Indices 1 2 3 4 5 6 
#
# 1 142.6197 87.7582 18.1942 0.0000 0.0000 0.0000
# 2 87.7582 142.6197 18.1942 0.0000 0.0000 0.0000
# 3 18.1942 18.1942 51.5312 0.0000 0.0000 0.0000
# 4 0.0000 0.0000 0.0000 18.3069 0.0000 0.0000
# 5 0.0000 0.0000 0.0000 0.0000 18.3069 0.0000
# 6 0.0000 0.0000 0.0000 0.0000 0.0000 27.4307
#
#
#
# Elastic Compliance Matrix: (Units=1/GPa)
#
#
# Indices 1 2 3 4 5 6 
#
# 1 0.011412 -0.006815 -0.001623 0.000000 0.000000 0.000000
# 2 -0.006815 0.011412 -0.001623 0.000000 0.000000 0.000000
# 3 -0.001623 -0.001623 0.020552 0.000000 0.000000 0.000000
# 4 0.000000 0.000000 0.000000 0.054624 0.000000 0.000000
# 5 0.000000 0.000000 0.000000 0.000000 0.054624 0.000000
# 6 0.000000 0.000000 0.000000 0.000000 0.000000 0.036455
#
#
# Mechanical properties :
#
#
# Convention : Reuss Voigt Hill
#
# Bulk Modulus (GPa) = 43.00407 65.00710 54.00558
# Shear Modulus (GPa) = 23.04628 26.98384 25.01506
#
# Velocity S-wave (km/s) = 3.49967 3.78685 3.64609
# Velocity P-wave (km/s) = 6.25973 7.32581 6.81365
#
# Compressibility (1/GPa) = 0.02325361
#
# Stress axis : x y z
#
# Youngs Moduli (GPa) = 87.62398 87.62398 48.65739
#
# Poissons Ratio (x) = 0.59719 0.07898
# Poissons Ratio (y) = 0.59719 0.07898
# Poissons Ratio (z) = 0.14222 0.14222
#
# Static dielectric constant tensor:
#      x y z
#    x 3.608350 0.000000 0.000000 
#    y 0.000000 3.608350 0.000000 
#    z 0.000000 0.000000 3.252170 
# 
# 
# High freq. dielectric constant tensor:
#      x y z
#    x 1.731030 0.000000 0.000000 
#    y 0.000000 1.731030 0.000000 
#    z 0.000000 0.000000 1.717910 
# 
# From -- ./inp_files/971.got.cif
#   From: 2010.03.12/outbox.cif.g09.slc.cpg/sg189_1_cif.got.tgz:971.got - 2010.04.01 12:03:36.
