data_PCOD8327037
_publ_section_title
;
Structure prediction by ZEFSAII (Michael W. Deem and Ramdas Pophale) SiO2 
 PCOD8327037
Probable space group: P -6 M 2
;
_chemical_formula_sum "Si O2"
_cell_formula_units_Z 60
_cell_length_a 12.611095
_cell_length_b 12.611095
_cell_length_c 25.494557
_cell_angle_alpha 90.000000
_cell_angle_beta 90.000000
_cell_angle_gamma 120.000000
_cell_volume 3511.427420
_symmetry_space_group_name_H-M "P -6 M 2"
_symmetry_group_IT_number 187
_symmetry_cell_setting 'hexagonal'
loop_
_space_group_symop_operation_xyz
x,y,z
-x+y,-x,-z
-y,x-y,z
x,y,-z
-x+y,-x,z
-y,x-y,-z
-y,-x,-z
-x+y,y,-z
x,x-y,-z
-x+y,y,z
x,x-y,z
-y,-x,z
loop_
_atom_site_type_symbol
_atom_site_label
_atom_site_fract_x
_atom_site_fract_y
_atom_site_fract_z
Si Si1 0.419709 0.086218 0.000000
Si Si2 0.246332 0.998647 0.695755
Si Si3 0.331566 0.417333 0.598322
Si Si4 0.333488 0.422724 0.907510
Si Si5 0.248206 0.249885 0.500000
Si Si6 0.577673 0.911313 0.788761
O O1 0.350509 0.015373 0.052504
O O2 0.557448 0.114896 0.000000
O O3 0.421068 0.210534 0.000000
O O4 0.103568 0.896432 0.692115
O O5 0.323381 0.975776 0.651897
O O6 0.302676 0.995221 0.751916
O O7 0.259705 0.129853 0.687280
O O8 0.228063 0.456126 0.595743
O O9 0.462156 0.537845 0.594640
O O10 0.317164 0.328474 0.550788
O O11 0.205802 0.411603 0.921224
O O12 0.436803 0.563198 0.915831
O O13 0.337609 0.380625 0.848154
O O14 0.255696 0.127848 0.500000
O O15 0.106327 0.212654 0.500000
O O16 0.462292 0.924584 0.771927
O O17 0.537667 0.768834 0.782942
#
# Coordination Sequence:
#
# PCOD8327037 Si02
#       6
#     6  12  12  12   6  12
#     4  10  20  32  46  64  90 126 164 198 230 272
#     4  10  20  33  50  71  97 130 166 203 239 280
#     4  10  20  34  54  78 102 128 160 203 252 296
#     4   9  17  30  50  75  98 120 150 193 245 292
#     4  10  20  34  54  78 104 134 166 200 236 280
#     4   9  17  30  50  75 100 124 152 192 242 292
#
# _framework density 17.087067000000001
#
# number of rings (size 3 to 8) (size 9 to 14) (size 15 to 20)
#    0.000    2.400    0.000    2.800    0.000    2.400 
#    0.000    6.000    0.000   11.200    0.000    0.000 
#    0.000    0.000    0.000    0.000    0.000    0.000 
#
# Total GULP energy -744115.965450 kJ/mol
# GULP energy per Si atom -12401.932757 kJ/mol
# Density = 1.704818 g / cm^3
# Si number density = 17.087067 Si / 1000 Ang^3
#
#
#
# Elastic Constant Matrix: (Units=GPa)
#
#
# Indices 1 2 3 4 5 6 
#
# 1 96.5396 54.0986 52.9700 0.0000 0.0003 0.0000
# 2 54.0986 96.5396 52.9700 0.0000 -0.0003 0.0000
# 3 52.9700 52.9700 120.1543 0.0000 0.0000 0.0000
# 4 0.0000 0.0000 0.0000 16.8564 0.0000 -0.0003
# 5 0.0003 -0.0003 0.0000 0.0000 16.8564 0.0000
# 6 0.0000 0.0000 0.0000 -0.0003 0.0000 21.2205
#
#
#
# Elastic Compliance Matrix: (Units=1/GPa)
#
#
# Indices 1 2 3 4 5 6 
#
# 1 0.016592 -0.006970 -0.004242 0.000000 0.000000 0.000000
# 2 -0.006970 0.016592 -0.004242 0.000000 0.000000 0.000000
# 3 -0.004242 -0.004242 0.012062 0.000000 0.000000 0.000000
# 4 0.000000 0.000000 0.000000 0.059325 0.000000 0.000001
# 5 0.000000 0.000000 0.000000 0.000000 0.059325 0.000000
# 6 0.000000 0.000000 0.000000 0.000001 0.000000 0.047124
#
#
# Mechanical properties :
#
#
# Convention : Reuss Voigt Hill
#
# Bulk Modulus (GPa) = 69.74040 70.36788 70.05414
# Shear Modulus (GPa) = 20.26701 21.19965 20.73333
#
# Velocity S-wave (km/s) = 3.44772 3.52616 3.48716
# Velocity P-wave (km/s) = 7.53342 7.60590 7.56974
#
# Compressibility (1/GPa) = 0.01433889
#
# Stress axis : x y z
#
# Youngs Moduli (GPa) = 60.27084 60.27084 82.90183
#
# Poissons Ratio (x) = 0.42011 0.35164
# Poissons Ratio (y) = 0.42011 0.35164
# Poissons Ratio (z) = 0.25565 0.25565
#
# Static dielectric constant tensor:
#      x y z
#    x 2.993760 0.000000 0.000000 
#    y 0.000000 2.993760 0.000000 
#    z 0.000000 0.000000 3.569130 
# 
# 
# High freq. dielectric constant tensor:
#      x y z
#    x 1.646510 0.000000 0.000000 
#    y 0.000000 1.646510 0.000000 
#    z 0.000000 0.000000 1.680980 
# 
# From -- ./inp_files/4200.got.cif
#   From: 2010.03.12/outbox.cif.g09.slc.cpg/sg187_3_cif.got.tgz:4200.got - 2010.04.01 11:58:23.
