data_PCOD8327246
_publ_section_title
;
Structure prediction by ZEFSAII (Michael W. Deem and Ramdas Pophale) SiO2 
 PCOD8327246
Probable space group: P -6 M 2
;
_chemical_formula_sum "Si O2"
_cell_formula_units_Z 72
_cell_length_a 23.495908
_cell_length_b 23.495908
_cell_length_c 9.153235
_cell_angle_alpha 90.000000
_cell_angle_beta 90.000000
_cell_angle_gamma 120.000000
_cell_volume 4376.124915
_symmetry_space_group_name_H-M "P -6 M 2"
_symmetry_group_IT_number 187
_symmetry_cell_setting 'hexagonal'
loop_
_space_group_symop_operation_xyz
x,y,z
-x+y,-x,-z
-y,x-y,z
x,y,-z
-x+y,-x,z
-y,x-y,-z
-y,-x,-z
-x+y,y,-z
x,x-y,-z
-x+y,y,z
x,x-y,z
-y,-x,z
loop_
_atom_site_type_symbol
_atom_site_label
_atom_site_fract_x
_atom_site_fract_y
_atom_site_fract_z
Si Si1 0.629083 0.587806 0.831954
Si Si2 0.840477 0.812152 0.330409
Si Si3 0.107410 0.214820 0.174205
Si Si4 0.775701 0.095647 0.834110
Si Si5 0.182749 0.365497 0.173301
Si Si6 0.557319 0.667659 0.828605
Si Si7 0.956685 0.478343 0.663719
Si Si8 0.113069 0.556535 0.333771
O O1 0.705221 0.620005 0.791355
O O2 0.604780 0.638819 0.791308
O O3 0.591678 0.520822 0.741011
O O4 0.614735 0.567891 0.000000
O O5 0.826644 0.817756 0.500000
O O6 0.916296 0.832592 0.304478
O O7 0.824664 0.858661 0.234067
O O8 0.792932 0.738148 0.278354
O O9 0.145183 0.290366 0.231807
O O10 0.106132 0.212264 0.000000
O O11 0.827144 0.172857 0.821112
O O12 0.774544 0.070258 0.000000
O O13 0.146964 0.404618 0.230106
O O14 0.181377 0.362754 0.000000
O O15 0.487293 0.626512 0.746565
O O16 0.542107 0.664393 0.000000
O O17 0.930526 0.465263 0.500000
O O18 0.034909 0.517455 0.674728
O O19 0.138604 0.569302 0.500000
#
# Coordination Sequence:
#
# PCOD8327246 Si02
#       8
#    12  12   6  12   6  12   6   6
#     4   9  16  27  44  66  93 123 152 184 228 273
#     4  10  21  36  51  69  95 127 160 198 248 299
#     4  11  21  35  55  75  96 122 159 207 254 301
#     4   9  17  30  49  71  95 124 158 193 230 278
#     4   9  18  31  49  74  98 119 151 196 240 284
#     4   9  16  28  46  66  89 119 151 182 222 273
#     4   9  17  27  41  63  90 118 149 183 218 261
#     4   9  17  29  43  62  88 115 145 180 218 256
#
# _framework density 16.452912000000001
#
# number of rings (size 3 to 8) (size 9 to 14) (size 15 to 20)
#    0.000    2.667    0.000    2.250    0.000    6.333 
#    0.500    5.417    0.000    0.333    0.000    1.167 
#    0.833    0.000    1.500    0.000    0.500    0.000 
#
# Total GULP energy -892781.475141 kJ/mol
# GULP energy per Si atom -12399.742710 kJ/mol
# Density = 1.641546 g / cm^3
# Si number density = 16.452912 Si / 1000 Ang^3
#
#
#
# Elastic Constant Matrix: (Units=GPa)
#
#
# Indices 1 2 3 4 5 6 
#
# 1 104.1942 59.7101 51.5576 0.0000 0.0000 0.0000
# 2 59.7101 104.1942 51.5576 0.0000 0.0000 0.0000
# 3 51.5576 51.5576 81.2972 0.0000 0.0000 0.0000
# 4 0.0000 0.0000 0.0000 17.2498 0.0000 0.0000
# 5 0.0000 0.0000 0.0000 0.0000 17.2498 0.0000
# 6 0.0000 0.0000 0.0000 0.0000 0.0000 22.2421
#
#
#
# Elastic Compliance Matrix: (Units=1/GPa)
#
#
# Indices 1 2 3 4 5 6 
#
# 1 0.016316 -0.006164 -0.006438 0.000000 0.000000 0.000000
# 2 -0.006164 0.016316 -0.006438 0.000000 0.000000 0.000000
# 3 -0.006438 -0.006438 0.020466 0.000000 0.000000 0.000000
# 4 0.000000 0.000000 0.000000 0.057972 0.000000 0.000000
# 5 0.000000 0.000000 0.000000 0.000000 0.057972 0.000000
# 6 0.000000 0.000000 0.000000 0.000000 0.000000 0.044960
#
#
# Mechanical properties :
#
#
# Convention : Reuss Voigt Hill
#
# Bulk Modulus (GPa) = 66.58938 68.37071 67.48004
# Shear Modulus (GPa) = 19.44876 19.80571 19.62723
#
# Velocity S-wave (km/s) = 3.44188 3.47332 3.45763
# Velocity P-wave (km/s) = 7.50706 7.59808 7.55271
#
# Compressibility (1/GPa) = 0.01501741
#
# Stress axis : x y z
#
# Youngs Moduli (GPa) = 61.29107 61.29107 48.86132
#
# Poissons Ratio (x) = 0.37782 0.31456
# Poissons Ratio (y) = 0.37782 0.31456
# Poissons Ratio (z) = 0.39458 0.39458
#
# Static dielectric constant tensor:
#      x y z
#    x 3.092630 0.000000 0.000000 
#    y 0.000000 3.092630 0.000000 
#    z 0.000000 0.000000 3.111660 
# 
# 
# High freq. dielectric constant tensor:
#      x y z
#    x 1.619130 0.000000 0.000000 
#    y 0.000000 1.619130 0.000000 
#    z 0.000000 0.000000 1.630830 
# 
# From -- ./inp_files/1102.got.cif
#   From: 2010.03.12/outbox.cif.g09.slc.cpg/sg187_1_cif.got.tgz:1102.got - 2010.04.01 11:58:23.
