data_PCOD8327126
_publ_section_title
;
Structure prediction by ZEFSAII (Michael W. Deem and Ramdas Pophale) SiO2 
 PCOD8327126
Probable space group: P -6 M 2
;
_chemical_formula_sum "Si O2"
_cell_formula_units_Z 72
_cell_length_a 12.454084
_cell_length_b 12.454084
_cell_length_c 30.985827
_cell_angle_alpha 90.000000
_cell_angle_beta 90.000000
_cell_angle_gamma 120.000000
_cell_volume 4162.145946
_symmetry_space_group_name_H-M "P -6 M 2"
_symmetry_group_IT_number 187
_symmetry_cell_setting 'hexagonal'
loop_
_space_group_symop_operation_xyz
x,y,z
-x+y,-x,-z
-y,x-y,z
x,y,-z
-x+y,-x,z
-y,x-y,-z
-y,-x,-z
-x+y,y,-z
x,x-y,-z
-x+y,y,z
x,x-y,z
-y,-x,z
loop_
_atom_site_type_symbol
_atom_site_label
_atom_site_fract_x
_atom_site_fract_y
_atom_site_fract_z
Si Si1 0.665387 0.081718 0.835497
Si Si2 0.081522 0.415004 0.917874
Si Si3 0.916194 0.582077 0.327469
Si Si4 0.002280 0.750933 0.406637
Si Si5 0.241011 0.998403 0.500000
Si Si6 0.334914 0.917723 0.753973
Si Si7 0.747913 0.748998 0.000000
O O1 0.559757 0.119513 0.836289
O O2 0.796158 0.203843 0.839774
O O3 0.650255 0.991766 0.874632
O O4 0.661864 0.013832 0.791251
O O5 0.217997 0.435994 0.913974
O O6 0.094388 0.547194 0.925184
O O7 0.007613 0.329533 0.958007
O O8 0.795481 0.590961 0.316621
O O9 0.877499 0.438750 0.328071
O O10 0.973880 0.641156 0.373671
O O11 0.018846 0.657675 0.291636
O O12 0.890255 0.780510 0.408132
O O13 0.023180 0.707226 0.454491
O O14 0.124990 0.875011 0.391430
O O15 0.277819 0.138910 0.500000
O O16 0.092257 0.907744 0.500000
O O17 0.438825 0.877650 0.757908
O O18 0.202305 0.797696 0.758895
O O19 0.872199 0.744398 0.000000
O O20 0.781890 0.890945 0.000000
#
# Coordination Sequence:
#
# PCOD8327126 Si02
#       7
#    12  12  12  12   6  12   6
#     4  10  20  34  53  76 103 135 169 204 240 283
#     4  10  20  34  54  78 104 134 168 209 253 296
#     4  10  20  33  49  68  93 126 162 198 234 278
#     4   9  16  27  45  69  95 121 151 190 237 285
#     4   8  13  22  39  64  92 120 150 186 230 280
#     4  10  20  34  53  75  98 124 156 198 245 291
#     4  10  20  34  52  74 102 136 172 208 248 296
#
# _framework density 17.298767000000002
#
# number of rings (size 3 to 8) (size 9 to 14) (size 15 to 20)
#    0.000    2.333    0.000    3.250    0.000    1.333 
#    0.000    4.583    0.000   10.667    0.000    1.167 
#    0.000    0.000    0.000    0.000    0.000    0.000 
#
# Total GULP energy -892663.587121 kJ/mol
# GULP energy per Si atom -12398.105377 kJ/mol
# Density = 1.725939 g / cm^3
# Si number density = 17.298767 Si / 1000 Ang^3
#
#
#
# Elastic Constant Matrix: (Units=GPa)
#
#
# Indices 1 2 3 4 5 6 
#
# 1 73.7824 39.3616 37.5017 0.0000 0.0005 0.0000
# 2 39.3616 73.7824 37.5017 0.0000 -0.0005 0.0000
# 3 37.5017 37.5017 118.1692 0.0000 0.0000 0.0000
# 4 0.0000 0.0000 0.0000 19.3720 0.0000 -0.0005
# 5 0.0005 -0.0005 0.0000 0.0000 19.3720 0.0000
# 6 0.0000 0.0000 0.0000 -0.0005 0.0000 17.2104
#
#
#
# Elastic Compliance Matrix: (Units=1/GPa)
#
#
# Indices 1 2 3 4 5 6 
#
# 1 0.020123 -0.008930 -0.003552 0.000000 -0.000001 0.000000
# 2 -0.008930 0.020123 -0.003552 0.000000 0.000001 0.000000
# 3 -0.003552 -0.003552 0.010717 0.000000 0.000000 0.000000
# 4 0.000000 0.000000 0.000000 0.051621 0.000000 0.000001
# 5 -0.000001 0.000001 0.000000 0.000000 0.051621 0.000000
# 6 0.000000 0.000000 0.000000 0.000001 0.000000 0.058104
#
#
# Mechanical properties :
#
#
# Convention : Reuss Voigt Hill
#
# Bulk Modulus (GPa) = 52.92566 54.94043 53.93304
# Shear Modulus (GPa) = 19.94620 21.28216 20.61418
#
# Velocity S-wave (km/s) = 3.39933 3.51133 3.45578
# Velocity P-wave (km/s) = 6.78739 6.94751 6.86792
#
# Compressibility (1/GPa) = 0.01889443
#
# Stress axis : x y z
#
# Youngs Moduli (GPa) = 49.69531 49.69531 93.30931
#
# Poissons Ratio (x) = 0.44376 0.33145
# Poissons Ratio (y) = 0.44376 0.33145
# Poissons Ratio (z) = 0.17653 0.17653
#
# Static dielectric constant tensor:
#      x y z
#    x 3.072450 0.000000 0.000000 
#    y 0.000000 3.072450 0.000000 
#    z 0.000000 0.000000 3.574950 
# 
# 
# High freq. dielectric constant tensor:
#      x y z
#    x 1.658170 0.000000 0.000000 
#    y 0.000000 1.658170 0.000000 
#    z 0.000000 0.000000 1.691810 
# 
# From -- ./inp_files/4571.got.cif
#   From: 2010.03.12/outbox.cif.g09.slc.cpg/sg187_3_cif.got.tgz:4571.got - 2010.04.01 11:58:23.
