data_PCOD8327153
_publ_section_title
;
Structure prediction by ZEFSAII (Michael W. Deem and Ramdas Pophale) SiO2 
 PCOD8327153
Probable space group: P -6 M 2
;
_chemical_formula_sum "Si O2"
_cell_formula_units_Z 84
_cell_length_a 18.233254
_cell_length_b 18.233254
_cell_length_c 14.692053
_cell_angle_alpha 90.000000
_cell_angle_beta 90.000000
_cell_angle_gamma 120.000000
_cell_volume 4230.010857
_symmetry_space_group_name_H-M "P -6 M 2"
_symmetry_group_IT_number 187
_symmetry_cell_setting 'hexagonal'
loop_
_space_group_symop_operation_xyz
x,y,z
-x+y,-x,-z
-y,x-y,z
x,y,-z
-x+y,-x,z
-y,x-y,-z
-y,-x,-z
-x+y,y,-z
x,x-y,-z
-x+y,y,z
x,x-y,z
-y,-x,z
loop_
_atom_site_type_symbol
_atom_site_label
_atom_site_fract_x
_atom_site_fract_y
_atom_site_fract_z
Si Si1 0.890938 0.527712 0.098662
Si Si2 0.163622 0.494725 0.757804
Si Si3 0.099791 0.366101 0.604150
Si Si4 0.835919 0.000342 0.892538
Si Si5 0.828223 0.331900 0.290137
Si Si6 0.749305 0.662254 0.604667
Si Si7 0.055129 0.705309 0.895865
O O1 0.927481 0.463741 0.101233
O O2 0.825816 0.506664 0.180880
O O3 0.968822 0.619227 0.112905
O O4 0.846994 0.521295 0.000000
O O5 0.263588 0.527176 0.748512
O O6 0.150672 0.575336 0.772788
O O7 0.113652 0.444661 0.666755
O O8 0.127621 0.428753 0.841255
O O9 0.104800 0.396012 0.500000
O O10 0.170496 0.340992 0.626554
O O11 0.010777 0.279580 0.623149
O O12 0.907513 0.092487 0.852924
O O13 0.864962 0.932481 0.868362
O O14 0.741086 0.965942 0.853290
O O15 0.830673 0.009717 0.000000
O O16 0.850868 0.425434 0.318558
O O17 0.735142 0.264859 0.326548
O O18 0.897434 0.315037 0.335784
O O19 0.735642 0.633881 0.500000
O O20 0.847860 0.695719 0.632312
O O21 0.086896 0.727507 0.000000
#
# Coordination Sequence:
#
# PCOD8327153 Si02
#       7
#    12  12  12  12  12  12  12
#     4   9  18  32  49  70  96 128 171 224 275 315
#     4  11  23  38  56  79 108 141 177 219 267 317
#     4   9  19  37  61  86 109 136 172 214 262 314
#     4   9  17  30  49  73 101 134 173 218 267 315
#     4  10  20  33  49  71 101 138 179 221 264 309
#     4   9  18  33  54  81 111 140 170 207 253 306
#     4  10  20  34  53  76 104 140 180 218 257 308
#
# _framework density 19.858104999999998
#
# number of rings (size 3 to 8) (size 9 to 14) (size 15 to 20)
#    0.000    2.429    0.000    2.143    0.000    5.429 
#    0.000    3.571    0.000    3.714    0.000    2.000 
#    0.000    0.000    0.000    0.000    0.000    0.000 
#
# Total GULP energy -1041013.770101 kJ/mol
# GULP energy per Si atom -12393.021073 kJ/mol
# Density = 1.981291 g / cm^3
# Si number density = 19.858105 Si / 1000 Ang^3
#
#
#
# Elastic Constant Matrix: (Units=GPa)
#
#
# Indices 1 2 3 4 5 6 
#
# 1 114.4686 64.5026 35.5979 0.0000 0.0001 0.0000
# 2 64.5026 114.4686 35.5979 0.0000 -0.0001 0.0000
# 3 35.5979 35.5979 66.7991 0.0000 0.0000 0.0000
# 4 0.0000 0.0000 0.0000 23.5642 0.0000 -0.0001
# 5 0.0001 -0.0001 0.0000 0.0000 23.5642 0.0000
# 6 0.0000 0.0000 0.0000 -0.0001 0.0000 24.9830
#
#
#
# Elastic Compliance Matrix: (Units=1/GPa)
#
#
# Indices 1 2 3 4 5 6 
#
# 1 0.013552 -0.006461 -0.003779 0.000000 0.000000 0.000000
# 2 -0.006461 0.013552 -0.003779 0.000000 0.000000 0.000000
# 3 -0.003779 -0.003779 0.018998 0.000000 0.000000 0.000000
# 4 0.000000 0.000000 0.000000 0.042437 0.000000 0.000000
# 5 0.000000 0.000000 0.000000 0.000000 0.042437 0.000000
# 6 0.000000 0.000000 0.000000 0.000000 0.000000 0.040027
#
#
# Mechanical properties :
#
#
# Convention : Reuss Voigt Hill
#
# Bulk Modulus (GPa) = 55.35795 63.01477 59.18636
# Shear Modulus (GPa) = 24.38276 25.09146 24.73711
#
# Velocity S-wave (km/s) = 3.50787 3.55848 3.53327
# Velocity P-wave (km/s) = 6.65914 6.97747 6.82016
#
# Compressibility (1/GPa) = 0.01806425
#
# Stress axis : x y z
#
# Youngs Moduli (GPa) = 73.78898 73.78898 52.63812
#
# Poissons Ratio (x) = 0.47679 0.19890
# Poissons Ratio (y) = 0.47679 0.19890
# Poissons Ratio (z) = 0.27883 0.27883
#
# Static dielectric constant tensor:
#      x y z
#    x 3.605770 0.000000 0.000000 
#    y 0.000000 3.605770 0.000000 
#    z 0.000000 0.000000 3.718640 
# 
# 
# High freq. dielectric constant tensor:
#      x y z
#    x 1.769800 0.000000 0.000000 
#    y 0.000000 1.769800 0.000000 
#    z 0.000000 0.000000 1.765660 
# 
# From -- ./inp_files/2584.got.cif
#   From: 2010.03.12/outbox.cif.g09.slc.cpg/sg187_2_cif.got.tgz:2584.got - 2010.04.01 11:58:23.
