data_PCOD8327620
_publ_section_title
;
Structure prediction by ZEFSAII (Michael W. Deem and Ramdas Pophale) SiO2 
 PCOD8327620
Probable space group: P -6 2 M
;
_chemical_formula_sum "Si O2"
_cell_formula_units_Z 72
_cell_length_a 23.758033
_cell_length_b 23.758033
_cell_length_c 8.557431
_cell_angle_alpha 90.000000
_cell_angle_beta 90.000000
_cell_angle_gamma 120.000000
_cell_volume 4183.068729
_symmetry_space_group_name_H-M "P -6 2 M"
_symmetry_group_IT_number 189
_symmetry_cell_setting 'hexagonal'
loop_
_space_group_symop_operation_xyz
x,y,z
-x+y,-x,-z
-y,x-y,z
x,y,-z
-x+y,-x,z
-y,x-y,-z
x-y,-y,-z
-x,-x+y,-z
y,x,-z
y,x,z
x-y,-y,z
-x,-x+y,z
loop_
_atom_site_type_symbol
_atom_site_label
_atom_site_fract_x
_atom_site_fract_y
_atom_site_fract_z
Si Si1 0.406559 0.601813 0.183191
Si Si2 0.266472 0.192022 0.682173
Si Si3 0.925547 0.851584 0.817878
Si Si4 0.266608 0.527243 0.318421
Si Si5 0.596051 0.071176 0.815149
Si Si6 0.852127 0.594142 0.183390
O O1 0.330798 0.573793 0.219436
O O2 0.452255 0.665491 0.281866
O O3 0.426384 0.548526 0.236590
O O4 0.417890 0.617248 0.000000
O O5 0.282009 0.199638 0.500000
O O6 0.238594 0.238594 0.737131
O O7 0.213947 0.117717 0.721011
O O8 0.331360 0.209829 0.775678
O O9 0.881047 0.881047 0.762286
O O10 0.000000 0.904763 0.781719
O O11 0.915853 0.833843 0.000000
O O12 0.284463 0.536776 0.500000
O O13 0.236113 0.451934 0.270482
O O14 0.669515 0.095818 0.758491
O O15 0.548564 0.000000 0.741024
O O16 0.594293 0.066184 0.000000
O O17 0.839196 0.582900 0.000000
#
# Coordination Sequence:
#
# PCOD8327620 Si02
#       6
#    12  12  12  12  12  12
#     4  10  19  32  50  72  98 127 161 197 235 285
#     4  10  20  32  47  71 102 132 161 197 244 295
#     4   9  17  30  49  72  97 127 164 204 244 289
#     4  11  21  33  49  71 100 130 161 199 245 291
#     4   8  15  28  48  73  96 119 150 190 234 278
#     4  10  19  32  51  73  97 127 163 201 240 287
#
# _framework density 17.212244999999999
#
# number of rings (size 3 to 8) (size 9 to 14) (size 15 to 20)
#    0.000    2.333    0.000    5.000    0.000    2.667 
#    0.000    0.000    0.000   12.000    0.000    2.333 
#    0.000    0.000    0.000    0.000    0.000    0.000 
#
# Total GULP energy -892866.774376 kJ/mol
# GULP energy per Si atom -12400.927422 kJ/mol
# Density = 1.717307 g / cm^3
# Si number density = 17.212245 Si / 1000 Ang^3
#
#
#
# Elastic Constant Matrix: (Units=GPa)
#
#
# Indices 1 2 3 4 5 6 
#
# 1 108.3956 53.7160 18.3010 0.0000 0.0000 0.0000
# 2 53.7160 108.3956 18.3010 0.0000 0.0000 0.0000
# 3 18.3010 18.3010 49.8593 0.0000 0.0000 0.0000
# 4 0.0000 0.0000 0.0000 21.2180 0.0000 0.0000
# 5 0.0000 0.0000 0.0000 0.0000 21.2180 0.0000
# 6 0.0000 0.0000 0.0000 0.0000 0.0000 27.3398
#
#
#
# Elastic Compliance Matrix: (Units=1/GPa)
#
#
# Indices 1 2 3 4 5 6 
#
# 1 0.012507 -0.005781 -0.002469 0.000000 0.000000 0.000000
# 2 -0.005781 0.012507 -0.002469 0.000000 0.000000 0.000000
# 3 -0.002469 -0.002469 0.021869 0.000000 0.000000 0.000000
# 4 0.000000 0.000000 0.000000 0.047130 0.000000 0.000000
# 5 0.000000 0.000000 0.000000 0.000000 0.047130 0.000000
# 6 0.000000 0.000000 0.000000 0.000000 0.000000 0.036577
#
#
# Mechanical properties :
#
#
# Convention : Reuss Voigt Hill
#
# Bulk Modulus (GPa) = 39.29953 49.69850 44.49901
# Shear Modulus (GPa) = 24.08027 25.71066 24.89547
#
# Velocity S-wave (km/s) = 3.74441 3.86909 3.80726
# Velocity P-wave (km/s) = 6.44794 6.99260 6.72579
#
# Compressibility (1/GPa) = 0.02544559
#
# Stress axis : x y z
#
# Youngs Moduli (GPa) = 79.95408 79.95408 45.72729
#
# Poissons Ratio (x) = 0.46223 0.11289
# Poissons Ratio (y) = 0.46223 0.11289
# Poissons Ratio (z) = 0.19739 0.19739
#
# Static dielectric constant tensor:
#      x y z
#    x 3.256540 0.000000 0.000000 
#    y 0.000000 3.256540 0.000000 
#    z 0.000000 0.000000 3.078780 
# 
# 
# High freq. dielectric constant tensor:
#      x y z
#    x 1.654120 0.000000 0.000000 
#    y 0.000000 1.654120 0.000000 
#    z 0.000000 0.000000 1.660510 
# 
# From -- ./inp_files/1283.got.cif
#   From: 2010.03.12/outbox.cif.g09.slc.cpg/sg189_1_cif.got.tgz:1283.got - 2010.04.01 12:03:36.
