data_PCOD8327310
_publ_section_title
;
Structure prediction by ZEFSAII (Michael W. Deem and Ramdas Pophale) SiO2 
 PCOD8327310
Probable space group: P -6 C 2
;
_chemical_formula_sum "Si O2"
_cell_formula_units_Z 72
_cell_length_a 24.151422
_cell_length_b 24.151422
_cell_length_c 8.508749
_cell_angle_alpha 90.000000
_cell_angle_beta 90.000000
_cell_angle_gamma 120.000000
_cell_volume 4298.151875
_symmetry_space_group_name_H-M "P -6 C 2"
_symmetry_group_IT_number 188
_symmetry_cell_setting 'hexagonal'
loop_
_space_group_symop_operation_xyz
x,y,z
-x+y,-x,1/2-z
-y,x-y,z
x,y,1/2-z
-x+y,-x,z
-y,x-y,1/2-z
-y,-x,-z
-x+y,y,-z
x,x-y,-z
-x+y,y,1/2+z
x,x-y,1/2+z
-y,-x,1/2+z
loop_
_atom_site_type_symbol
_atom_site_label
_atom_site_fract_x
_atom_site_fract_y
_atom_site_fract_z
Si Si1 0.782946 0.449291 0.435468
Si Si2 0.408086 0.933322 0.435263
Si Si3 0.295418 0.477939 0.066046
Si Si4 0.663125 0.886122 0.564467
Si Si5 0.999073 0.665952 0.063894
Si Si6 0.406557 0.261323 0.435656
O O1 0.781082 0.446451 0.250000
O O2 0.711611 0.423222 0.500000
O O3 0.810217 0.405109 0.500000
O O4 0.828957 0.521336 0.497735
O O5 0.409092 0.941808 0.250000
O O6 0.479163 0.958326 0.500000
O O7 0.363840 0.858294 0.480917
O O8 0.381731 0.975864 0.513841
O O9 0.306677 0.491053 0.250000
O O10 0.255259 0.510517 0.000000
O O11 0.256019 0.402856 0.031023
O O12 0.651507 0.876940 0.750000
O O13 0.701375 0.850688 0.500000
O O14 0.696798 0.960782 0.518173
O O15 0.004427 0.674189 0.250000
O O16 0.926787 0.637529 0.003305
O O17 0.406196 0.258755 0.250000
O O18 0.379249 0.189625 0.500000
#
# Coordination Sequence:
#
# PCOD8327310 Si02
#       6
#    12  12  12  12  12  12
#     4  10  19  32  47  65  84 109 144 191 245 297
#     4  11  21  33  47  67  92 121 154 194 240 288
#     4  10  17  28  45  65  87 114 145 180 218 265
#     4  10  17  27  44  68  93 119 146 177 214 257
#     4  10  19  33  49  69  94 122 154 192 232 278
#     4   9  20  35  51  68  91 121 157 194 235 285
#
# _framework density 16.751386
#
# number of rings (size 3 to 8) (size 9 to 14) (size 15 to 20)
#    0.000    2.000    0.000    8.667    0.000    2.667 
#    0.000    1.667    0.000    0.333    0.000    2.333 
#    0.000    0.000    0.000    0.500    0.000    8.000 
#
# Total GULP energy -892543.751251 kJ/mol
# GULP energy per Si atom -12396.440990 kJ/mol
# Density = 1.671326 g / cm^3
# Si number density = 16.751386 Si / 1000 Ang^3
#
#
#
# Elastic Constant Matrix: (Units=GPa)
#
#
# Indices 1 2 3 4 5 6 
#
# 1 90.7546 56.9428 19.9187 -0.0002 0.0000 0.0000
# 2 56.9428 90.7546 19.9187 0.0002 0.0000 0.0000
# 3 19.9187 19.9187 62.0887 0.0000 0.0000 0.0000
# 4 -0.0002 0.0002 0.0000 22.4917 0.0000 0.0000
# 5 0.0000 0.0000 0.0000 0.0000 22.4917 -0.0002
# 6 0.0000 0.0000 0.0000 0.0000 -0.0002 16.9059
#
#
#
# Elastic Compliance Matrix: (Units=1/GPa)
#
#
# Indices 1 2 3 4 5 6 
#
# 1 0.018494 -0.011082 -0.002378 0.000000 0.000000 0.000000
# 2 -0.011082 0.018494 -0.002378 0.000000 0.000000 0.000000
# 3 -0.002378 -0.002378 0.017632 0.000000 0.000000 0.000000
# 4 0.000000 0.000000 0.000000 0.044461 0.000000 0.000000
# 5 0.000000 0.000000 0.000000 0.000000 0.044461 0.000001
# 6 0.000000 0.000000 0.000000 0.000000 0.000001 0.059151
#
#
# Mechanical properties :
#
#
# Convention : Reuss Voigt Hill
#
# Bulk Modulus (GPa) = 43.58391 48.57313 46.07852
# Shear Modulus (GPa) = 20.65990 22.16569 21.41280
#
# Velocity S-wave (km/s) = 3.51568 3.64155 3.57917
# Velocity P-wave (km/s) = 6.52339 6.83671 6.68189
#
# Compressibility (1/GPa) = 0.02294425
#
# Stress axis : x y z
#
# Youngs Moduli (GPa) = 54.07245 54.07245 56.71616
#
# Poissons Ratio (x) = 0.59922 0.13486
# Poissons Ratio (y) = 0.59922 0.13486
# Poissons Ratio (z) = 0.12858 0.12858
#
# Static dielectric constant tensor:
#      x y z
#    x 3.381500 0.000000 0.000000 
#    y 0.000000 3.381500 0.000000 
#    z 0.000000 0.000000 3.157440 
# 
# 
# High freq. dielectric constant tensor:
#      x y z
#    x 1.618280 0.000000 0.000000 
#    y 0.000000 1.618280 0.000000 
#    z 0.000000 0.000000 1.662760 
# 
# From -- ./inp_files/1053.got.cif
#   From: 2010.03.12/outbox.cif.g09.slc.cpg/sg188_1_cif.got.tgz:1053.got - 2010.04.01 12:01:06.
