data_PCOD8327740
_publ_section_title
;
Structure prediction by ZEFSAII (Michael W. Deem and Ramdas Pophale) SiO2 
 PCOD8327740
Probable space group: P -6 2 M
;
_chemical_formula_sum "Si O2"
_cell_formula_units_Z 60
_cell_length_a 20.840259
_cell_length_b 20.840259
_cell_length_c 9.344659
_cell_angle_alpha 90.000000
_cell_angle_beta 90.000000
_cell_angle_gamma 120.000000
_cell_volume 3514.797539
_symmetry_space_group_name_H-M "P -6 2 M"
_symmetry_group_IT_number 189
_symmetry_cell_setting 'hexagonal'
loop_
_space_group_symop_operation_xyz
x,y,z
-x+y,-x,-z
-y,x-y,z
x,y,-z
-x+y,-x,z
-y,x-y,-z
x-y,-y,-z
-x,-x+y,-z
y,x,-z
y,x,z
x-y,-y,z
-x,-x+y,z
loop_
_atom_site_type_symbol
_atom_site_label
_atom_site_fract_x
_atom_site_fract_y
_atom_site_fract_z
Si Si1 0.914772 0.540778 0.337571
Si Si2 0.296922 0.914900 0.334074
Si Si3 0.220042 0.220042 0.170763
Si Si4 0.000000 0.920720 0.831918
Si Si5 0.912015 0.419014 0.160931
Si Si6 0.210957 0.344877 0.336246
O O1 0.911025 0.513830 0.500000
O O2 0.882324 0.468379 0.237522
O O3 0.862409 0.576446 0.316268
O O4 0.000000 0.601450 0.298480
O O5 0.312208 0.908512 0.500000
O O6 0.342611 0.885356 0.244370
O O7 0.211121 0.861443 0.295867
O O8 0.321183 0.000000 0.294619
O O9 0.148494 0.148494 0.240113
O O10 0.216198 0.289784 0.226404
O O11 0.222624 0.222624 0.000000
O O12 0.927128 0.927128 0.789695
O O13 0.000000 0.909096 0.000000
O O14 0.000000 0.465089 0.163191
O O15 0.880616 0.401062 0.000000
O O16 0.206201 0.317459 0.500000
#
# Coordination Sequence:
#
# PCOD8327740 Si02
#       6
#    12  12   6   6  12  12
#     4   9  16  29  49  70  93 127 163 196 239 294
#     4   9  18  33  52  74 100 135 175 211 253 308
#     4  11  21  31  49  75  99 130 173 224 271 311
#     4   7  14  31  49  63  87 126 175 220 261 315
#     4   9  17  29  48  73  99 122 150 197 246 292
#     4  10  20  34  50  71 104 139 170 211 260 309
#
# _framework density 17.070685999999998
#
# number of rings (size 3 to 8) (size 9 to 14) (size 15 to 20)
#    0.200    2.600    1.000    0.900    0.000    4.800 
#    0.000    0.000    0.000    2.600    0.000    2.800 
#    0.000    0.000    0.000    0.000    0.000    0.000 
#
# Total GULP energy -743663.672172 kJ/mol
# GULP energy per Si atom -12394.394536 kJ/mol
# Density = 1.703183 g / cm^3
# Si number density = 17.070686 Si / 1000 Ang^3
#
#
#
# Elastic Constant Matrix: (Units=GPa)
#
#
# Indices 1 2 3 4 5 6 
#
# 1 92.9629 51.9240 52.9723 0.0000 0.0000 0.0000
# 2 51.9240 92.9629 52.9723 0.0000 0.0000 0.0000
# 3 52.9723 52.9723 89.7232 0.0000 0.0000 0.0000
# 4 0.0000 0.0000 0.0000 17.5922 0.0000 0.0000
# 5 0.0000 0.0000 0.0000 0.0000 17.5922 0.0000
# 6 0.0000 0.0000 0.0000 0.0000 0.0000 20.5195
#
#
#
# Elastic Compliance Matrix: (Units=1/GPa)
#
#
# Indices 1 2 3 4 5 6 
#
# 1 0.018256 -0.006111 -0.007170 0.000000 0.000000 0.000000
# 2 -0.006111 0.018256 -0.007170 0.000000 0.000000 0.000000
# 3 -0.007170 -0.007170 0.019612 0.000000 0.000000 0.000000
# 4 0.000000 0.000000 0.000000 0.056843 0.000000 0.000000
# 5 0.000000 0.000000 0.000000 0.000000 0.056843 0.000000
# 6 0.000000 0.000000 0.000000 0.000000 0.000000 0.048734
#
#
# Mechanical properties :
#
#
# Convention : Reuss Voigt Hill
#
# Bulk Modulus (GPa) = 65.70005 65.70954 65.70480
# Shear Modulus (GPa) = 18.90195 18.99278 18.94737
#
# Velocity S-wave (km/s) = 3.33118 3.33918 3.33518
# Velocity P-wave (km/s) = 7.30523 7.31047 7.30785
#
# Compressibility (1/GPa) = 0.01522069
#
# Stress axis : x y z
#
# Youngs Moduli (GPa) = 54.77613 54.77613 50.98867
#
# Poissons Ratio (x) = 0.33474 0.36561
# Poissons Ratio (y) = 0.33474 0.36561
# Poissons Ratio (z) = 0.39277 0.39277
#
# Static dielectric constant tensor:
#      x y z
#    x 3.140260 0.000000 0.000000 
#    y 0.000000 3.140260 0.000000 
#    z 0.000000 0.000000 3.192910 
# 
# 
# High freq. dielectric constant tensor:
#      x y z
#    x 1.642140 0.000000 0.000000 
#    y 0.000000 1.642140 0.000000 
#    z 0.000000 0.000000 1.654280 
# 
# From -- ./inp_files/991.got.cif
#   From: 2010.03.12/outbox.cif.g09.slc.cpg/sg189_1_cif.got.tgz:991.got - 2010.04.01 12:03:36.
