data_PCOD8327360
_publ_section_title
;
Structure prediction by ZEFSAII (Michael W. Deem and Ramdas Pophale) SiO2 
 PCOD8327360
Probable space group: P -6 C 2
;
_chemical_formula_sum "Si O2"
_cell_formula_units_Z 64
_cell_length_a 13.600600
_cell_length_b 13.600600
_cell_length_c 18.814039
_cell_angle_alpha 90.000000
_cell_angle_beta 90.000000
_cell_angle_gamma 120.000000
_cell_volume 3013.899786
_symmetry_space_group_name_H-M "P -6 C 2"
_symmetry_group_IT_number 188
_symmetry_cell_setting 'hexagonal'
loop_
_space_group_symop_operation_xyz
x,y,z
-x+y,-x,1/2-z
-y,x-y,z
x,y,1/2-z
-x+y,-x,z
-y,x-y,1/2-z
-y,-x,-z
-x+y,y,-z
x,x-y,-z
-x+y,y,1/2+z
x,x-y,1/2+z
-y,-x,1/2+z
loop_
_atom_site_type_symbol
_atom_site_label
_atom_site_fract_x
_atom_site_fract_y
_atom_site_fract_z
Si Si1 0.166612 0.892943 0.827358
Si Si2 0.371563 0.007456 0.331549
Si Si3 0.136460 0.509219 0.672005
Si Si4 0.793665 0.796846 0.967283
Si Si5 0.882975 0.551753 0.522820
Si Si6 0.333335 0.666668 0.416889
O O1 0.135796 0.921492 0.750000
O O2 0.080923 0.760752 0.845526
O O3 0.297005 0.922775 0.827568
O O4 0.166415 0.981024 0.884233
O O5 0.389735 0.055599 0.250000
O O6 0.448119 0.950605 0.345686
O O7 0.417702 0.105038 0.392388
O O8 0.190542 0.556750 0.750000
O O9 0.232541 0.548874 0.612288
O O10 0.744379 0.872190 0.000000
O O11 0.700096 0.665781 0.979138
O O12 0.914211 0.828421 0.000000
O O13 0.753386 0.506771 0.500000
O O14 0.916369 0.458185 0.500000
O O15 0.333334 0.666667 0.500000
#
# Coordination Sequence:
#
# PCOD8327360 Si02
#       6
#    12  12  12  12  12   4
#     4  10  20  36  60  90 127 172 220 267 320 388
#     4  10  20  37  63  92 127 172 219 271 324 388
#     4  10  19  34  54  82 129 180 219 259 318 384
#     4  11  23  42  65  93 127 169 213 266 330 392
#     4  11  24  44  68  96 131 174 219 274 331 391
#     4  12  22  26  40  84 133 182 223 255 298 395
#
# _framework density 21.234945
#
# number of rings (size 3 to 8) (size 9 to 14) (size 15 to 20)
#    0.000    1.500    3.750    2.062    0.000    3.000 
#    0.000    5.625    0.000    0.375    0.000    0.000 
#    0.000    0.000    0.000    0.000    0.000    0.000 
#
# Total GULP energy -793167.199925 kJ/mol
# GULP energy per Si atom -12393.237499 kJ/mol
# Density = 2.118661 g / cm^3
# Si number density = 21.234945 Si / 1000 Ang^3
#
#
#
# Elastic Constant Matrix: (Units=GPa)
#
#
# Indices 1 2 3 4 5 6 
#
# 1 78.7340 36.0967 48.2621 -0.0001 0.0000 0.0001
# 2 36.0967 78.7343 48.2622 0.0001 0.0001 0.0001
# 3 48.2621 48.2622 196.5914 -0.0001 -0.0001 0.0001
# 4 -0.0001 0.0001 -0.0001 34.8874 0.0002 0.0000
# 5 0.0000 0.0001 -0.0001 0.0002 34.8869 -0.0001
# 6 0.0001 0.0001 0.0001 0.0000 -0.0001 21.3187
#
#
#
# Elastic Compliance Matrix: (Units=1/GPa)
#
#
# Indices 1 2 3 4 5 6 
#
# 1 0.017213 -0.006240 -0.002694 0.000000 0.000000 0.000000
# 2 -0.006240 0.017213 -0.002694 0.000000 0.000000 0.000000
# 3 -0.002694 -0.002694 0.006409 0.000000 0.000000 0.000000
# 4 0.000000 0.000000 0.000000 0.028664 0.000000 0.000000
# 5 0.000000 0.000000 0.000000 0.000000 0.028664 0.000000
# 6 0.000000 0.000000 0.000000 0.000000 0.000000 0.046907
#
#
# Mechanical properties :
#
#
# Convention : Reuss Voigt Hill
#
# Bulk Modulus (GPa) = 56.88345 68.81132 62.84738
# Shear Modulus (GPa) = 28.70490 32.98118 30.84304
#
# Velocity S-wave (km/s) = 3.68064 3.94529 3.81526
# Velocity P-wave (km/s) = 6.70139 7.29581 7.00491
#
# Compressibility (1/GPa) = 0.01757981
#
# Stress axis : x y z
#
# Youngs Moduli (GPa) = 58.09498 58.09518 156.02333
#
# Poissons Ratio (x) = 0.36254 0.42029
# Poissons Ratio (y) = 0.36254 0.42029
# Poissons Ratio (z) = 0.15649 0.15649
#
# Static dielectric constant tensor:
#      x y z
#    x 3.566280 0.000000 0.000000 
#    y 0.000000 3.566270 0.000000 
#    z 0.000000 0.000000 4.316770 
# 
# 
# High freq. dielectric constant tensor:
#      x y z
#    x 1.811440 0.000000 0.000000 
#    y 0.000000 1.811440 0.000000 
#    z 0.000000 0.000000 1.851290 
# 
# From -- ./inp_files/3050.got.cif
#   From: 2010.03.12/outbox.cif.g09.slc.cpg/sg188_2_cif.got.tgz:3050.got - 2010.04.01 12:01:06.
