data_PCOD8327042
_publ_section_title
;
Structure prediction by ZEFSAII (Michael W. Deem and Ramdas Pophale) SiO2 
 PCOD8327042
Probable space group: P -6 M 2
;
_chemical_formula_sum "Si O2"
_cell_formula_units_Z 72
_cell_length_a 24.064251
_cell_length_b 24.064251
_cell_length_c 8.742802
_cell_angle_alpha 90.000000
_cell_angle_beta 90.000000
_cell_angle_gamma 120.000000
_cell_volume 4384.559543
_symmetry_space_group_name_H-M "P -6 M 2"
_symmetry_group_IT_number 187
_symmetry_cell_setting 'hexagonal'
loop_
_space_group_symop_operation_xyz
x,y,z
-x+y,-x,-z
-y,x-y,z
x,y,-z
-x+y,-x,z
-y,x-y,-z
-y,-x,-z
-x+y,y,-z
x,x-y,-z
-x+y,y,z
x,x-y,z
-y,-x,z
loop_
_atom_site_type_symbol
_atom_site_label
_atom_site_fract_x
_atom_site_fract_y
_atom_site_fract_z
Si Si1 0.327530 0.998204 0.320851
Si Si2 0.873336 0.000327 0.323565
Si Si3 0.866801 0.493283 0.677501
Si Si4 0.862156 0.262267 0.821296
Si Si5 0.437338 0.995390 0.821150
Si Si6 0.065788 0.259202 0.821904
O O1 0.331451 0.008026 0.500000
O O2 0.370368 0.966069 0.270422
O O3 0.255748 0.947621 0.271568
O O4 0.351136 0.067870 0.245837
O O5 0.855318 0.001792 0.500000
O O6 0.932209 0.067792 0.270734
O O7 0.893367 0.946684 0.296938
O O8 0.813244 0.987220 0.220119
O O9 0.884079 0.511421 0.500000
O O10 0.830297 0.415149 0.697632
O O11 0.829800 0.528623 0.742511
O O12 0.930553 0.522876 0.777571
O O13 0.813185 0.186816 0.789409
O O14 0.869598 0.277223 0.000000
O O15 0.481807 0.963614 0.779289
O O16 0.421791 0.988012 0.000000
O O17 0.136207 0.272414 0.775438
O O18 0.060891 0.269927 0.000000
#
# Coordination Sequence:
#
# PCOD8327042 Si02
#       6
#    12  12  12  12  12  12
#     4  11  21  32  49  69  91 120 151 187 228 272
#     4   9  17  30  48  68  88 111 144 190 244 298
#     4   9  16  26  42  63  85 110 140 174 214 262
#     4  10  20  32  46  65  89 117 150 190 234 279
#     4   9  16  27  45  68  93 118 142 170 205 248
#     4  10  21  36  51  66  88 120 156 193 233 281
#
# _framework density 16.421261000000001
#
# number of rings (size 3 to 8) (size 9 to 14) (size 15 to 20)
#    0.000    2.333    0.000    5.667    0.000    6.000 
#    0.000    0.000    0.000    1.333    0.000    0.000 
#    0.000    0.000    0.000    0.500    0.000    9.667 
#
# Total GULP energy -892179.975426 kJ/mol
# GULP energy per Si atom -12391.388548 kJ/mol
# Density = 1.638389 g / cm^3
# Si number density = 16.421261 Si / 1000 Ang^3
#
#
#
# Elastic Constant Matrix: (Units=GPa)
#
#
# Indices 1 2 3 4 5 6 
#
# 1 79.2571 47.3950 36.5552 0.0000 0.0001 0.0000
# 2 47.3950 79.2571 36.5552 0.0000 -0.0001 0.0000
# 3 36.5552 36.5552 77.2833 0.0000 0.0000 0.0000
# 4 0.0000 0.0000 0.0000 23.0393 0.0000 -0.0001
# 5 0.0001 -0.0001 0.0000 0.0000 23.0393 0.0000
# 6 0.0000 0.0000 0.0000 -0.0001 0.0000 15.9311
#
#
#
# Elastic Compliance Matrix: (Units=1/GPa)
#
#
# Indices 1 2 3 4 5 6 
#
# 1 0.021123 -0.010262 -0.005137 0.000000 0.000000 0.000000
# 2 -0.010262 0.021123 -0.005137 0.000000 0.000000 0.000000
# 3 -0.005137 -0.005137 0.017799 0.000000 0.000000 0.000000
# 4 0.000000 0.000000 0.000000 0.043404 0.000000 0.000000
# 5 0.000000 0.000000 0.000000 0.000000 0.043404 0.000000
# 6 0.000000 0.000000 0.000000 0.000000 0.000000 0.062770
#
#
# Mechanical properties :
#
#
# Convention : Reuss Voigt Hill
#
# Bulk Modulus (GPa) = 52.70841 52.97868 52.84355
# Shear Modulus (GPa) = 19.45356 20.08806 19.77081
#
# Velocity S-wave (km/s) = 3.44562 3.50136 3.47360
# Velocity P-wave (km/s) = 6.92799 6.97698 6.95253
#
# Compressibility (1/GPa) = 0.01897230
#
# Stress axis : x y z
#
# Youngs Moduli (GPa) = 47.34125 47.34125 56.18167
#
# Poissons Ratio (x) = 0.48582 0.28863
# Poissons Ratio (y) = 0.48582 0.28863
# Poissons Ratio (z) = 0.24321 0.24321
#
# Static dielectric constant tensor:
#      x y z
#    x 3.188130 0.000000 0.000000 
#    y 0.000000 3.188130 0.000000 
#    z 0.000000 0.000000 3.186050 
# 
# 
# High freq. dielectric constant tensor:
#      x y z
#    x 1.605850 0.000000 0.000000 
#    y 0.000000 1.605850 0.000000 
#    z 0.000000 0.000000 1.648670 
# 
# From -- ./inp_files/1004.got.cif
#   From: 2010.03.12/outbox.cif.g09.slc.cpg/sg187_1_cif.got.tgz:1004.got - 2010.04.01 11:58:23.
