data_PCOD8327949
_publ_section_title
;
Structure prediction by ZEFSAII (Michael W. Deem and Ramdas Pophale) SiO2 
 PCOD8327949
Probable space group: P -6 2 C
;
_chemical_formula_sum "Si O2"
_cell_formula_units_Z 64
_cell_length_a 14.592544
_cell_length_b 14.592544
_cell_length_c 17.586238
_cell_angle_alpha 90.000000
_cell_angle_beta 90.000000
_cell_angle_gamma 120.000000
_cell_volume 3243.139285
_symmetry_space_group_name_H-M "P -6 2 C"
_symmetry_group_IT_number 190
_symmetry_cell_setting 'hexagonal'
loop_
_space_group_symop_operation_xyz
x,y,z
-x+y,-x,1/2-z
-y,x-y,z
x,y,1/2-z
-x+y,-x,z
-y,x-y,1/2-z
x-y,-y,-z
-x,-x+y,-z
y,x,-z
y,x,1/2+z
x-y,-y,1/2+z
-x,-x+y,1/2+z
loop_
_atom_site_type_symbol
_atom_site_label
_atom_site_fract_x
_atom_site_fract_y
_atom_site_fract_z
Si Si1 0.458672 0.772868 0.940697
Si Si2 0.730170 0.553851 0.664407
Si Si3 0.859403 0.081619 0.661860
Si Si4 0.387952 0.519096 0.100120
Si Si5 0.000000 0.000000 0.089112
Si Si6 0.617439 0.942315 0.660891
O O1 0.350016 0.778218 0.934131
O O2 0.544255 0.826272 0.873591
O O3 0.505199 0.827071 0.021900
O O4 0.688871 0.550838 0.750000
O O5 0.806788 0.675481 0.637737
O O6 0.633022 0.493748 0.606053
O O7 0.798621 0.494287 0.665580
O O8 0.886747 0.084550 0.750000
O O9 0.944269 0.065260 0.616147
O O10 0.741089 0.984974 0.645456
O O11 0.423030 0.432944 0.113880
O O12 0.000000 0.000000 0.000000
O O13 0.594749 0.942122 0.750000
#
# Coordination Sequence:
#
# PCOD8327949 Si02
#       6
#    12  12  12  12   4  12
#     4  10  21  38  56  84 122 163 196 234 303 369
#     4  10  18  31  57  90 122 156 192 242 297 357
#     4   9  21  41  63  84 113 153 201 253 307 352
#     4  11  18  35  56  87 126 153 197 239 300 361
#     4  12  25  44  64  90 115 155 202 261 316 368
#     4  10  22  39  62  89 115 159 208 251 297 352
#
# _framework density 19.733965000000001
#
# number of rings (size 3 to 8) (size 9 to 14) (size 15 to 20)
#    0.375    1.500    1.875    4.312    0.000    3.750 
#    3.375    0.000    0.000    0.000    0.000    0.000 
#    0.000    0.000    0.000    0.000    0.000    0.000 
#
# Total GULP energy -793241.100918 kJ/mol
# GULP energy per Si atom -12394.392202 kJ/mol
# Density = 1.968905 g / cm^3
# Si number density = 19.733965 Si / 1000 Ang^3
#
#
#
# Elastic Constant Matrix: (Units=GPa)
#
#
# Indices 1 2 3 4 5 6 
#
# 1 78.0859 24.5130 27.4165 0.0000 0.0000 0.0000
# 2 24.5130 78.0859 27.4165 0.0000 0.0000 0.0000
# 3 27.4165 27.4165 67.6808 0.0000 0.0000 0.0000
# 4 0.0000 0.0000 0.0000 74.6203 0.0000 0.0000
# 5 0.0000 0.0000 0.0000 0.0000 74.6203 0.0000
# 6 0.0000 0.0000 0.0000 0.0000 0.0000 26.7865
#
#
#
# Elastic Compliance Matrix: (Units=1/GPa)
#
#
# Indices 1 2 3 4 5 6 
#
# 1 0.015553 -0.003113 -0.005039 0.000000 0.000000 0.000000
# 2 -0.003113 0.015553 -0.005039 0.000000 0.000000 0.000000
# 3 -0.005039 -0.005039 0.018858 0.000000 0.000000 0.000000
# 4 0.000000 0.000000 0.000000 0.013401 0.000000 0.000000
# 5 0.000000 0.000000 0.000000 0.000000 0.013401 0.000000
# 6 0.000000 0.000000 0.000000 0.000000 0.000000 0.037332
#
#
# Mechanical properties :
#
#
# Convention : Reuss Voigt Hill
#
# Bulk Modulus (GPa) = 42.40748 42.50496 42.45622
# Shear Modulus (GPa) = 33.70592 44.83920 39.27256
#
# Velocity S-wave (km/s) = 4.13730 4.77191 4.46589
# Velocity P-wave (km/s) = 6.66027 7.20745 6.93926
#
# Compressibility (1/GPa) = 0.02358074
#
# Stress axis : x y z
#
# Youngs Moduli (GPa) = 64.29628 64.29628 53.02826
#
# Poissons Ratio (x) = 0.20016 0.26722
# Poissons Ratio (y) = 0.20016 0.26722
# Poissons Ratio (z) = 0.32400 0.32400
#
# Static dielectric constant tensor:
#      x y z
#    x 3.474330 0.000000 0.000000 
#    y 0.000000 3.474330 0.000000 
#    z 0.000000 0.000000 3.380060 
# 
# 
# High freq. dielectric constant tensor:
#      x y z
#    x 1.756890 0.000000 0.000000 
#    y 0.000000 1.756890 0.000000 
#    z 0.000000 0.000000 1.764020 
# 
# From -- ./inp_files/3683.got.cif
#   From: 2010.06.25/outbox.cif.g09.slc.cpg/sg190_2_cif.got.tgz:3683.got - 2010.06.28 13:08:06.
