data_PCOD8327072
_publ_section_title
;
Structure prediction by ZEFSAII (Michael W. Deem and Ramdas Pophale) SiO2 
 PCOD8327072
Probable space group: P -6 M 2
;
_chemical_formula_sum "Si O2"
_cell_formula_units_Z 72
_cell_length_a 12.532491
_cell_length_b 12.532491
_cell_length_c 30.693854
_cell_angle_alpha 90.000000
_cell_angle_beta 90.000000
_cell_angle_gamma 120.000000
_cell_volume 4175.003631
_symmetry_space_group_name_H-M "P -6 M 2"
_symmetry_group_IT_number 187
_symmetry_cell_setting 'hexagonal'
loop_
_space_group_symop_operation_xyz
x,y,z
-x+y,-x,-z
-y,x-y,z
x,y,-z
-x+y,-x,z
-y,x-y,-z
-y,-x,-z
-x+y,y,-z
x,x-y,-z
-x+y,y,z
x,x-y,z
-y,-x,z
loop_
_atom_site_type_symbol
_atom_site_label
_atom_site_fract_x
_atom_site_fract_y
_atom_site_fract_z
Si Si1 0.916821 0.581778 0.164688
Si Si2 0.917614 0.334940 0.000000
Si Si3 0.582611 0.917512 0.917413
Si Si4 0.084697 0.416744 0.500000
Si Si5 0.334393 0.419097 0.246191
Si Si6 0.419550 0.333417 0.577015
Si Si7 0.666078 0.579571 0.324339
O O1 0.796720 0.593439 0.160135
O O2 0.876873 0.438437 0.161679
O O3 0.010935 0.658615 0.126510
O O4 0.982380 0.640177 0.210183
O O5 0.996255 0.344420 0.042242
O O6 0.795150 0.204851 0.000000
O O7 0.880015 0.440008 0.000000
O O8 0.439806 0.879612 0.918455
O O9 0.590747 0.795374 0.920089
O O10 0.218738 0.437475 0.500000
O O11 0.097387 0.548694 0.500000
O O12 0.016282 0.342454 0.456406
O O13 0.202879 0.405758 0.237935
O O14 0.437161 0.562840 0.243784
O O15 0.334703 0.361573 0.293041
O O16 0.419132 0.209566 0.566575
O O17 0.557296 0.442705 0.568905
O O18 0.376485 0.335465 0.626396
O O19 0.796548 0.593095 0.312339
O O20 0.563270 0.436730 0.317875
#
# Coordination Sequence:
#
# PCOD8327072 Si02
#       7
#    12   6  12   6  12  12  12
#     4  10  20  34  54  78 102 128 160 203 252 298
#     4  10  20  34  54  78 104 134 168 210 256 298
#     4  10  20  34  54  78 104 134 167 205 247 293
#     4  10  20  32  46  66  94 128 162 194 232 280
#     4  10  20  33  50  72  99 131 165 201 239 282
#     4   9  17  30  50  75  98 120 150 193 245 292
#     4   9  17  30  50  75 100 124 152 192 242 292
#
# _framework density 17.245494000000001
#
# number of rings (size 3 to 8) (size 9 to 14) (size 15 to 20)
#    0.000    2.333    0.000    3.000    0.000    2.000 
#    0.000    6.667    0.000   14.667    0.000    0.000 
#    0.000    0.000    0.000    0.000    0.000    0.000 
#
# Total GULP energy -892943.763661 kJ/mol
# GULP energy per Si atom -12401.996718 kJ/mol
# Density = 1.720624 g / cm^3
# Si number density = 17.245494 Si / 1000 Ang^3
#
#
#
# Elastic Constant Matrix: (Units=GPa)
#
#
# Indices 1 2 3 4 5 6 
#
# 1 97.2603 50.7151 45.8413 0.0000 0.0007 0.0000
# 2 50.7151 97.2603 45.8413 0.0000 -0.0007 0.0000
# 3 45.8413 45.8413 114.7819 0.0000 0.0000 0.0000
# 4 0.0000 0.0000 0.0000 1.8281 0.0000 -0.0007
# 5 0.0007 -0.0007 0.0000 0.0000 1.8281 0.0000
# 6 0.0000 0.0000 0.0000 -0.0007 0.0000 23.2726
#
#
#
# Elastic Compliance Matrix: (Units=1/GPa)
#
#
# Indices 1 2 3 4 5 6 
#
# 1 0.015232 -0.006252 -0.003586 0.000000 -0.000008 0.000000
# 2 -0.006252 0.015232 -0.003586 0.000000 0.000008 0.000000
# 3 -0.003586 -0.003586 0.011577 0.000000 0.000000 0.000000
# 4 0.000000 0.000000 0.000000 0.547010 -0.000001 0.000016
# 5 -0.000008 0.000008 0.000000 -0.000001 0.547011 0.000000
# 6 0.000000 0.000000 0.000000 0.000016 0.000000 0.042969
#
#
# Mechanical properties :
#
#
# Convention : Reuss Voigt Hill
#
# Bulk Modulus (GPa) = 65.82782 66.01090 65.91936
# Shear Modulus (GPa) = 4.12901 16.51275 10.32088
#
# Velocity S-wave (km/s) = 1.54902 3.09772 2.44901
# Velocity P-wave (km/s) = 6.43841 7.15226 6.80470
#
# Compressibility (1/GPa) = 0.01519115
#
# Stress axis : x y z
#
# Youngs Moduli (GPa) = 65.65031 65.65031 86.37954
#
# Poissons Ratio (x) = 0.41046 0.30979
# Poissons Ratio (y) = 0.41046 0.30979
# Poissons Ratio (z) = 0.23545 0.23545
#
# Static dielectric constant tensor:
#      x y z
#    x 3.047030 0.000000 0.000000 
#    y 0.000000 3.047030 0.000000 
#    z 0.000000 0.000000 3.549790 
# 
# 
# High freq. dielectric constant tensor:
#      x y z
#    x 1.652880 0.000000 0.000000 
#    y 0.000000 1.652880 0.000000 
#    z 0.000000 0.000000 1.688780 
# 
# From -- ./inp_files/4537.got.cif
#   From: 2010.03.12/outbox.cif.g09.slc.cpg/sg187_3_cif.got.tgz:4537.got - 2010.04.01 11:58:23.
