data_PCOD8327165
_publ_section_title
;
Structure prediction by ZEFSAII (Michael W. Deem and Ramdas Pophale) SiO2 
 PCOD8327165
Probable space group: P -6 M 2
;
_chemical_formula_sum "Si O2"
_cell_formula_units_Z 66
_cell_length_a 12.842194
_cell_length_b 12.842194
_cell_length_c 28.518529
_cell_angle_alpha 90.000000
_cell_angle_beta 90.000000
_cell_angle_gamma 120.000000
_cell_volume 4073.204406
_symmetry_space_group_name_H-M "P -6 M 2"
_symmetry_group_IT_number 187
_symmetry_cell_setting 'hexagonal'
loop_
_space_group_symop_operation_xyz
x,y,z
-x+y,-x,-z
-y,x-y,z
x,y,-z
-x+y,-x,z
-y,x-y,-z
-y,-x,-z
-x+y,y,-z
x,x-y,-z
-x+y,y,z
x,x-y,z
-y,-x,z
loop_
_atom_site_type_symbol
_atom_site_label
_atom_site_fract_x
_atom_site_fract_y
_atom_site_fract_z
Si Si1 0.333093 0.426631 0.834043
Si Si2 0.997874 0.239111 0.549600
Si Si3 0.334097 0.426079 0.727746
Si Si4 0.756733 0.754512 0.650787
Si Si5 0.910099 0.579086 0.000000
Si Si6 0.755678 0.999995 0.085018
O O1 0.233833 0.467666 0.839183
O O2 0.460756 0.539245 0.848776
O O3 0.336282 0.384900 0.780998
O O4 0.300993 0.312709 0.866463
O O5 0.978037 0.293725 0.500000
O O6 0.127937 0.255873 0.547019
O O7 0.987309 0.295674 0.599275
O O8 0.902047 0.097954 0.551739
O O9 0.222668 0.445335 0.718970
O O10 0.449976 0.550025 0.715901
O O11 0.331223 0.329015 0.691623
O O12 0.886207 0.772413 0.660979
O O13 0.768987 0.884494 0.652653
O O14 0.976624 0.659191 0.954968
O O15 0.769569 0.539137 0.000000
O O16 0.923000 0.461500 0.000000
O O17 0.891310 0.108691 0.089307
O O18 0.759675 0.879837 0.072858
#
# Coordination Sequence:
#
# PCOD8327165 Si02
#       6
#    12  12  12  12   6  12
#     4   9  17  30  48  68  88 112 146 189 231 264
#     4   8  12  18  30  50  77 107 136 166 203 251
#     4   9  17  29  45  63  83 111 148 186 220 255
#     4   9  16  25  39  61  87 112 137 169 214 265
#     4  10  20  34  52  72  94 122 158 198 232 258
#     4  10  20  33  50  72  99 129 156 181 214 263
#
# _framework density 16.20346
#
# number of rings (size 3 to 8) (size 9 to 14) (size 15 to 20)
#    0.000    2.909    0.000    1.818    0.000    4.364 
#    0.000    0.909    0.000    6.000    0.000    0.000 
#    0.000    1.455    0.000    0.000    0.000    0.000 
#
# Total GULP energy -817645.222185 kJ/mol
# GULP energy per Si atom -12388.563972 kJ/mol
# Density = 1.616658 g / cm^3
# Si number density = 16.203460 Si / 1000 Ang^3
#
#
#
# Elastic Constant Matrix: (Units=GPa)
#
#
# Indices 1 2 3 4 5 6 
#
# 1 73.2570 32.4365 54.4177 0.0000 0.0003 0.0000
# 2 32.4365 73.2570 54.4177 0.0000 -0.0003 0.0000
# 3 54.4177 54.4177 133.1282 0.0000 0.0000 0.0000
# 4 0.0000 0.0000 0.0000 20.0084 0.0000 -0.0003
# 5 0.0003 -0.0003 0.0000 0.0000 20.0084 0.0000
# 6 0.0000 0.0000 0.0000 -0.0003 0.0000 20.4103
#
#
#
# Elastic Compliance Matrix: (Units=1/GPa)
#
#
# Indices 1 2 3 4 5 6 
#
# 1 0.020418 -0.004080 -0.006678 0.000000 0.000000 0.000000
# 2 -0.004080 0.020418 -0.006678 0.000000 0.000000 0.000000
# 3 -0.006678 -0.006678 0.012971 0.000000 0.000000 0.000000
# 4 0.000000 0.000000 0.000000 0.049979 0.000000 0.000001
# 5 0.000000 0.000000 0.000000 0.000000 0.049979 0.000000
# 6 0.000000 0.000000 0.000000 0.000001 0.000000 0.048995
#
#
# Mechanical properties :
#
#
# Convention : Reuss Voigt Hill
#
# Bulk Modulus (GPa) = 52.81477 62.46512 57.63995
# Shear Modulus (GPa) = 20.49646 21.31011 20.90328
#
# Velocity S-wave (km/s) = 3.56046 3.63044 3.59562
# Velocity P-wave (km/s) = 7.04046 7.49718 7.27240
#
# Compressibility (1/GPa) = 0.01893410
#
# Stress axis : x y z
#
# Youngs Moduli (GPa) = 48.97663 48.97663 77.09288
#
# Poissons Ratio (x) = 0.19980 0.51486
# Poissons Ratio (y) = 0.19980 0.51486
# Poissons Ratio (z) = 0.32709 0.32709
#
# Static dielectric constant tensor:
#      x y z
#    x 2.848660 0.000000 0.000000 
#    y 0.000000 2.848660 0.000000 
#    z 0.000000 0.000000 3.678260 
# 
# 
# High freq. dielectric constant tensor:
#      x y z
#    x 1.597230 0.000000 0.000000 
#    y 0.000000 1.597230 0.000000 
#    z 0.000000 0.000000 1.649240 
# 
# From -- ./inp_files/4394.got.cif
#   From: 2010.03.12/outbox.cif.g09.slc.cpg/sg187_3_cif.got.tgz:4394.got - 2010.04.01 11:58:23.
