data_PCOD8327788
_publ_section_title
;
Structure prediction by ZEFSAII (Michael W. Deem and Ramdas Pophale) SiO2 
 PCOD8327788
Probable space group: P -6 2 M
;
_chemical_formula_sum "Si O2"
_cell_formula_units_Z 84
_cell_length_a 18.740757
_cell_length_b 18.740757
_cell_length_c 14.031034
_cell_angle_alpha 90.000000
_cell_angle_beta 90.000000
_cell_angle_gamma 120.000000
_cell_volume 4267.706729
_symmetry_space_group_name_H-M "P -6 2 M"
_symmetry_group_IT_number 189
_symmetry_cell_setting 'hexagonal'
loop_
_space_group_symop_operation_xyz
x,y,z
-x+y,-x,-z
-y,x-y,z
x,y,-z
-x+y,-x,z
-y,x-y,-z
x-y,-y,-z
-x,-x+y,-z
y,x,-z
y,x,z
x-y,-y,z
-x,-x+y,z
loop_
_atom_site_type_symbol
_atom_site_label
_atom_site_fract_x
_atom_site_fract_y
_atom_site_fract_z
Si Si1 0.902779 0.522040 0.611006
Si Si2 0.097665 0.780185 0.395288
Si Si3 0.655180 0.655180 0.113183
Si Si4 0.495252 0.495252 0.887615
Si Si5 0.739910 0.495887 0.112492
Si Si6 0.852459 0.175093 0.891258
Si Si7 0.427980 0.838598 0.204753
Si Si8 0.194218 0.098831 0.742314
O O1 0.879306 0.496033 0.500000
O O2 0.878328 0.591146 0.641113
O O3 0.850174 0.443157 0.680473
O O4 0.000000 0.557221 0.625216
O O5 0.134855 0.809337 0.500000
O O6 0.132246 0.863725 0.334592
O O7 0.000000 0.736171 0.397107
O O8 0.575703 0.575703 0.154490
O O9 0.737866 0.660020 0.149712
O O10 0.647836 0.647836 0.000000
O O11 0.417245 0.497944 0.845511
O O12 0.488558 0.488558 0.000000
O O13 0.818579 0.588722 0.123713
O O14 0.761311 0.432336 0.162617
O O15 0.660050 0.485711 0.169937
O O16 0.717754 0.476464 0.000000
O O17 0.858486 0.101943 0.839297
O O18 0.866710 0.162027 0.000000
O O19 0.126132 0.126132 0.724978
O O20 0.148558 0.000000 0.742397
#
# Coordination Sequence:
#
# PCOD8327788 Si02
#       8
#    12  12   6   6  12  12  12  12
#     4   9  18  36  62  91 117 147 194 250 295 344
#     4   8  16  33  56  79 106 138 174 222 284 343
#     4   9  16  32  56  77  97 136 191 235 269 325
#     4  11  20  34  59  87 113 144 198 249 286 351
#     4  11  23  37  55  84 123 155 187 234 293 359
#     4  10  20  36  55  75 104 146 189 229 276 339
#     4  12  22  37  59  87 117 160 195 236 302 359
#     4  11  22  35  53  78 109 145 189 242 296 350
#
# _framework density 19.682701999999999
#
# number of rings (size 3 to 8) (size 9 to 14) (size 15 to 20)
#    0.000    1.857    2.857    3.429    0.000    0.571 
#    1.286    0.714    0.000    2.571    0.000    0.000 
#    0.000    0.000    0.000    0.000    0.000    0.000 
#
# Total GULP energy -1040799.835789 kJ/mol
# GULP energy per Si atom -12390.474236 kJ/mol
# Density = 1.963790 g / cm^3
# Si number density = 19.682702 Si / 1000 Ang^3
#
#
#
# Elastic Constant Matrix: (Units=GPa)
#
#
# Indices 1 2 3 4 5 6 
#
# 1 59.2731 14.2053 38.3806 0.0000 0.0000 0.0000
# 2 14.2053 59.2731 38.3806 0.0000 0.0000 0.0000
# 3 38.3806 38.3806 121.3984 0.0000 0.0000 0.0000
# 4 0.0000 0.0000 0.0000 31.0085 0.0000 0.0000
# 5 0.0000 0.0000 0.0000 0.0000 31.0085 0.0000
# 6 0.0000 0.0000 0.0000 0.0000 0.0000 22.5339
#
#
#
# Elastic Compliance Matrix: (Units=1/GPa)
#
#
# Indices 1 2 3 4 5 6 
#
# 1 0.021255 -0.000934 -0.006425 0.000000 0.000000 0.000000
# 2 -0.000934 0.021255 -0.006425 0.000000 0.000000 0.000000
# 3 -0.006425 -0.006425 0.012300 0.000000 0.000000 0.000000
# 4 0.000000 0.000000 0.000000 0.032249 0.000000 0.000000
# 5 0.000000 0.000000 0.000000 0.000000 0.032249 0.000000
# 6 0.000000 0.000000 0.000000 0.000000 0.000000 0.044378
#
#
# Mechanical properties :
#
#
# Convention : Reuss Voigt Hill
#
# Bulk Modulus (GPa) = 36.70611 46.87531 41.79071
# Shear Modulus (GPa) = 24.95847 26.84204 25.90025
#
# Velocity S-wave (km/s) = 3.56482 3.69689 3.63145
# Velocity P-wave (km/s) = 5.96936 6.48767 6.23390
#
# Compressibility (1/GPa) = 0.02724342
#
# Stress axis : x y z
#
# Youngs Moduli (GPa) = 47.04793 47.04793 81.30306
#
# Poissons Ratio (x) = 0.04394 0.52234
# Poissons Ratio (y) = 0.04394 0.52234
# Poissons Ratio (z) = 0.30226 0.30226
#
# Static dielectric constant tensor:
#      x y z
#    x 3.513410 0.000000 0.000000 
#    y 0.000000 3.513410 0.000000 
#    z 0.000000 0.000000 3.618470 
# 
# 
# High freq. dielectric constant tensor:
#      x y z
#    x 1.755600 0.000000 0.000000 
#    y 0.000000 1.755600 0.000000 
#    z 0.000000 0.000000 1.756240 
# 
# From -- ./inp_files/2855.got.cif
#   From: 2010.03.12/outbox.cif.g09.slc.cpg/sg189_2_cif.got.tgz:2855.got - 2010.04.01 12:03:36.
