data_PCOD8327984
_publ_section_title
;
Structure prediction by ZEFSAII (Michael W. Deem and Ramdas Pophale) SiO2 
 PCOD8327984
Probable space group: P -6 2 C
;
_chemical_formula_sum "Si O2"
_cell_formula_units_Z 96
_cell_length_a 14.961209
_cell_length_b 14.961209
_cell_length_c 27.862490
_cell_angle_alpha 90.000000
_cell_angle_beta 90.000000
_cell_angle_gamma 120.000000
_cell_volume 5401.121376
_symmetry_space_group_name_H-M "P -6 2 C"
_symmetry_group_IT_number 190
_symmetry_cell_setting 'hexagonal'
loop_
_space_group_symop_operation_xyz
x,y,z
-x+y,-x,1/2-z
-y,x-y,z
x,y,1/2-z
-x+y,-x,z
-y,x-y,1/2-z
x-y,-y,-z
-x,-x+y,-z
y,x,-z
y,x,1/2+z
x-y,-y,1/2+z
-x,-x+y,1/2+z
loop_
_atom_site_type_symbol
_atom_site_label
_atom_site_fract_x
_atom_site_fract_y
_atom_site_fract_z
Si Si1 0.020188 0.194000 0.804746
Si Si2 0.680479 0.988468 0.923402
Si Si3 0.815016 0.025347 0.837468
Si Si4 0.066071 0.555923 0.374592
Si Si5 0.112936 0.512523 0.477519
Si Si6 0.834392 0.566240 0.997497
Si Si7 0.436315 0.266716 0.804085
Si Si8 0.645072 0.601946 0.804504
O O1 0.981752 0.163454 0.750000
O O2 0.134465 0.214326 0.810495
O O3 0.938835 0.100203 0.838140
O O4 0.020961 0.298737 0.818341
O O5 0.774351 0.997395 0.891992
O O6 0.588414 0.982759 0.890747
O O7 0.633822 0.884678 0.954727
O O8 0.724976 0.093818 0.953422
O O9 0.760793 0.078946 0.809461
O O10 0.112143 0.525516 0.420064
O O11 0.157219 0.648499 0.343286
O O12 0.005670 0.456919 0.340194
O O13 0.173300 0.452713 0.490395
O O14 0.168373 0.625676 0.501572
O O15 0.000000 0.447542 0.500000
O O16 0.472870 0.309212 0.750000
O O17 0.443872 0.165012 0.812929
O O18 0.604722 0.584392 0.750000
#
# Coordination Sequence:
#
# PCOD8327984 Si02
#       8
#    12  12  12  12  12  12  12  12
#     4  10  19  31  50  77 110 136 175 224 258 308
#     4   9  20  39  55  75 113 141 179 226 277 334
#     4  10  19  32  54  79 102 149 180 216 266 320
#     4  10  19  32  54  74 104 141 181 220 268 333
#     4  11  22  36  60  87 106 146 195 234 291 356
#     4  10  20  41  57  79 115 141 177 245 288 326
#     4   9  18  33  51  75 111 148 179 212 269 334
#     4   9  19  32  46  75 111 138 173 224 263 316
#
# _framework density 17.774087000000002
#
# number of rings (size 3 to 8) (size 9 to 14) (size 15 to 20)
#    0.000    2.250    2.500    2.750    7.000    1.000 
#    0.750    0.000    0.000    0.000    0.000    0.000 
#    0.000    0.000    1.500    0.000    0.000    0.000 
#
# Total GULP energy -1190254.023428 kJ/mol
# GULP energy per Si atom -12398.479411 kJ/mol
# Density = 1.773363 g / cm^3
# Si number density = 17.774087 Si / 1000 Ang^3
#
#
#
# Elastic Constant Matrix: (Units=GPa)
#
#
# Indices 1 2 3 4 5 6 
#
# 1 77.5693 32.6595 37.5276 0.0000 0.0000 0.0000
# 2 32.6595 77.5693 37.5276 0.0000 0.0000 0.0000
# 3 37.5276 37.5276 97.7497 0.0000 0.0000 0.0000
# 4 0.0000 0.0000 0.0000 24.2322 0.0000 0.0000
# 5 0.0000 0.0000 0.0000 0.0000 24.2322 0.0000
# 6 0.0000 0.0000 0.0000 0.0000 0.0000 22.4549
#
#
#
# Elastic Compliance Matrix: (Units=1/GPa)
#
#
# Indices 1 2 3 4 5 6 
#
# 1 0.017275 -0.004992 -0.004716 0.000000 0.000000 0.000000
# 2 -0.004992 0.017275 -0.004716 0.000000 0.000000 0.000000
# 3 -0.004716 -0.004716 0.013851 0.000000 0.000000 0.000000
# 4 0.000000 0.000000 0.000000 0.041267 0.000000 0.000000
# 5 0.000000 0.000000 0.000000 0.000000 0.041267 0.000000
# 6 0.000000 0.000000 0.000000 0.000000 0.000000 0.044534
#
#
# Mechanical properties :
#
#
# Convention : Reuss Voigt Hill
#
# Bulk Modulus (GPa) = 51.13936 52.03532 51.58734
# Shear Modulus (GPa) = 23.71537 23.86210 23.78874
#
# Velocity S-wave (km/s) = 3.65672 3.66802 3.66238
# Velocity P-wave (km/s) = 6.83104 6.87595 6.85353
#
# Compressibility (1/GPa) = 0.01955441
#
# Stress axis : x y z
#
# Youngs Moduli (GPa) = 57.88748 57.88748 72.19697
#
# Poissons Ratio (x) = 0.28897 0.34045
# Poissons Ratio (y) = 0.28897 0.34045
# Poissons Ratio (z) = 0.27297 0.27297
#
# Static dielectric constant tensor:
#      x y z
#    x 3.162350 0.000000 0.000000 
#    y 0.000000 3.162350 0.000000 
#    z 0.000000 0.000000 3.438520 
# 
# 
# High freq. dielectric constant tensor:
#      x y z
#    x 1.672750 0.000000 0.000000 
#    y 0.000000 1.672750 0.000000 
#    z 0.000000 0.000000 1.692830 
# 
# From -- ./inp_files/4997.got.cif
#   From: 2010.06.25/outbox.cif.g09.slc.cpg/sg190_3_cif.got.tgz:4997.got - 2010.06.28 13:08:06.
