data_PCOD8327675
_publ_section_title
;
Structure prediction by ZEFSAII (Michael W. Deem and Ramdas Pophale) SiO2 
 PCOD8327675
Probable space group: P -6 2 M
;
_chemical_formula_sum "Si O2"
_cell_formula_units_Z 66
_cell_length_a 22.670465
_cell_length_b 22.670465
_cell_length_c 7.952990
_cell_angle_alpha 90.000000
_cell_angle_beta 90.000000
_cell_angle_gamma 120.000000
_cell_volume 3539.826078
_symmetry_space_group_name_H-M "P -6 2 M"
_symmetry_group_IT_number 189
_symmetry_cell_setting 'hexagonal'
loop_
_space_group_symop_operation_xyz
x,y,z
-x+y,-x,-z
-y,x-y,z
x,y,-z
-x+y,-x,z
-y,x-y,-z
x-y,-y,-z
-x,-x+y,-z
y,x,-z
y,x,z
x-y,-y,z
-x,-x+y,z
loop_
_atom_site_type_symbol
_atom_site_label
_atom_site_fract_x
_atom_site_fract_y
_atom_site_fract_z
Si Si1 0.656780 0.580455 0.198317
Si Si2 0.241094 0.163880 0.193110
Si Si3 0.186647 0.384894 0.802096
Si Si4 0.921674 0.076622 0.500000
Si Si5 0.700429 0.227126 0.807846
Si Si6 0.808899 0.367583 0.690656
O O1 0.617982 0.617982 0.278144
O O2 0.734933 0.616304 0.268063
O O3 0.617985 0.500552 0.245517
O O4 0.656945 0.587599 0.000000
O O5 0.226497 0.226497 0.207934
O O6 0.318323 0.190041 0.247616
O O7 0.196029 0.106331 0.326770
O O8 0.226700 0.135172 0.000000
O O9 0.254645 0.450307 0.731972
O O10 0.186484 0.394120 0.000000
O O11 0.000000 0.129692 0.500000
O O12 0.907793 0.000000 0.500000
O O13 0.746606 0.309083 0.796801
O O14 0.631228 0.195179 0.702576
O O15 0.679683 0.206196 0.000000
O O16 0.799040 0.342687 0.500000
#
# Coordination Sequence:
#
# PCOD8327675 Si02
#       6
#    12  12  12   6  12  12
#     4   9  18  34  54  73  99 139 179 214 258 314
#     4   9  18  35  57  80 109 142 177 220 267 314
#     4   8  16  32  54  78 101 130 173 221 262 305
#     4  10  21  36  54  80 110 142 176 212 258 312
#     4  10  19  34  54  73  97 135 179 217 260 319
#     4  11  21  33  49  75 107 134 165 215 273 316
#
# _framework density 18.644984000000001
#
# number of rings (size 3 to 8) (size 9 to 14) (size 15 to 20)
#    0.000    2.545    0.000    3.727    0.000    1.455 
#    8.182    2.727    0.000    4.364    0.000    0.000 
#    0.000    0.000    0.000    0.000    0.000    0.000 
#
# Total GULP energy -818068.360984 kJ/mol
# GULP energy per Si atom -12394.975166 kJ/mol
# Density = 1.860255 g / cm^3
# Si number density = 18.644984 Si / 1000 Ang^3
#
#
#
# Elastic Constant Matrix: (Units=GPa)
#
#
# Indices 1 2 3 4 5 6 
#
# 1 133.8675 90.6075 25.4776 0.0000 0.0000 0.0000
# 2 90.6075 133.8675 25.4776 0.0000 0.0000 0.0000
# 3 25.4776 25.4776 59.5104 0.0000 0.0000 0.0000
# 4 0.0000 0.0000 0.0000 13.3782 0.0000 0.0000
# 5 0.0000 0.0000 0.0000 0.0000 13.3782 0.0000
# 6 0.0000 0.0000 0.0000 0.0000 0.0000 21.6300
#
#
#
# Elastic Compliance Matrix: (Units=1/GPa)
#
#
# Indices 1 2 3 4 5 6 
#
# 1 0.014025 -0.009091 -0.002113 0.000000 0.000000 0.000000
# 2 -0.009091 0.014025 -0.002113 0.000000 0.000000 0.000000
# 3 -0.002113 -0.002113 0.018613 0.000000 0.000000 0.000000
# 4 0.000000 0.000000 0.000000 0.074748 0.000000 0.000000
# 5 0.000000 0.000000 0.000000 0.000000 0.074748 0.000000
# 6 0.000000 0.000000 0.000000 0.000000 0.000000 0.046232
#
#
# Mechanical properties :
#
#
# Convention : Reuss Voigt Hill
#
# Bulk Modulus (GPa) = 49.92180 67.81899 58.87040
# Shear Modulus (GPa) = 18.13562 22.05614 20.09588
#
# Velocity S-wave (km/s) = 3.12217 3.44314 3.28657
# Velocity P-wave (km/s) = 6.31112 7.22909 6.78565
#
# Compressibility (1/GPa) = 0.02003133
#
# Stress axis : x y z
#
# Youngs Moduli (GPa) = 71.30023 71.30023 53.72703
#
# Poissons Ratio (x) = 0.64818 0.11350
# Poissons Ratio (y) = 0.64818 0.11350
# Poissons Ratio (z) = 0.15062 0.15062
#
# Static dielectric constant tensor:
#      x y z
#    x 3.472870 0.000000 0.000000 
#    y 0.000000 3.472870 0.000000 
#    z 0.000000 0.000000 3.313270 
# 
# 
# High freq. dielectric constant tensor:
#      x y z
#    x 1.714290 0.000000 0.000000 
#    y 0.000000 1.714290 0.000000 
#    z 0.000000 0.000000 1.720180 
# 
# From -- ./inp_files/1031.got.cif
#   From: 2010.03.12/outbox.cif.g09.slc.cpg/sg189_1_cif.got.tgz:1031.got - 2010.04.01 12:03:36.
