data_PCOD8327527
_publ_section_title
;
Structure prediction by ZEFSAII (Michael W. Deem and Ramdas Pophale) SiO2 
 PCOD8327527
Probable space group: P -6 2 M
;
_chemical_formula_sum "Si O2"
_cell_formula_units_Z 64
_cell_length_a 14.551171
_cell_length_b 14.551171
_cell_length_c 18.023105
_cell_angle_alpha 90.000000
_cell_angle_beta 90.000000
_cell_angle_gamma 120.000000
_cell_volume 3304.883337
_symmetry_space_group_name_H-M "P -6 2 M"
_symmetry_group_IT_number 189
_symmetry_cell_setting 'hexagonal'
loop_
_space_group_symop_operation_xyz
x,y,z
-x+y,-x,-z
-y,x-y,z
x,y,-z
-x+y,-x,z
-y,x-y,-z
x-y,-y,-z
-x,-x+y,-z
y,x,-z
y,x,z
x-y,-y,z
-x,-x+y,z
loop_
_atom_site_type_symbol
_atom_site_label
_atom_site_fract_x
_atom_site_fract_y
_atom_site_fract_z
Si Si1 0.761998 0.880871 0.692923
Si Si2 0.237458 0.762811 0.688834
Si Si3 0.441470 0.125667 0.917097
Si Si4 0.666668 0.333334 0.412459
Si Si5 0.556909 0.122707 0.780632
Si Si6 0.879578 0.759284 0.869242
O O1 0.809845 0.809845 0.661907
O O2 0.644451 0.838809 0.661174
O O3 0.756144 0.876079 0.781087
O O4 0.836620 0.000000 0.664344
O O5 0.257138 0.709093 0.617449
O O6 0.188841 0.679343 0.756959
O O7 0.345991 0.861203 0.719712
O O8 0.540003 0.164707 0.860292
O O9 0.361571 0.170170 0.898628
O O10 0.370847 0.000000 0.908509
O O11 0.487648 0.160653 0.000000
O O12 0.666667 0.333334 0.500000
O O13 0.523401 0.000000 0.783240
O O14 0.834623 0.834623 0.898517
O O15 0.000000 0.806786 0.898391
#
# Coordination Sequence:
#
# PCOD8327527 Si02
#       6
#    12  12  12   4  12  12
#     4  10  18  30  51  83 117 149 185 227 270 317
#     4  10  19  33  59  84 107 143 184 216 272 335
#     4   9  17  30  47  65  95 140 182 229 287 331
#     4   9  21  39  60  90 121 140 166 225 282 330
#     4  10  19  34  53  76 105 137 183 235 274 321
#     4   9  16  26  43  69 103 142 185 230 277 329
#
# _framework density 19.365283000000002
#
# number of rings (size 3 to 8) (size 9 to 14) (size 15 to 20)
#    0.000    2.438    1.875    1.875    0.000    1.875 
#    0.000    0.938    0.000   21.375    0.000    0.000 
#    0.000    1.500    0.000    0.000    0.000    0.000 
#
# Total GULP energy -793454.551830 kJ/mol
# GULP energy per Si atom -12397.727372 kJ/mol
# Density = 1.932121 g / cm^3
# Si number density = 19.365283 Si / 1000 Ang^3
#
#
#
# Elastic Constant Matrix: (Units=GPa)
#
#
# Indices 1 2 3 4 5 6 
#
# 1 107.9697 52.9764 37.2185 -0.0001 0.0000 0.0000
# 2 52.9764 107.9695 37.2187 -0.0001 0.0000 -0.0001
# 3 37.2185 37.2187 85.0051 -0.0002 0.0000 0.0001
# 4 -0.0001 -0.0001 -0.0002 14.6594 0.0000 0.0000
# 5 0.0000 0.0000 0.0000 0.0000 14.6592 0.0000
# 6 0.0000 -0.0001 0.0001 0.0000 0.0000 27.4965
#
#
#
# Elastic Compliance Matrix: (Units=1/GPa)
#
#
# Indices 1 2 3 4 5 6 
#
# 1 0.012987 -0.005197 -0.003411 0.000000 0.000000 0.000000
# 2 -0.005197 0.012988 -0.003411 0.000000 0.000000 0.000000
# 3 -0.003411 -0.003411 0.014751 0.000000 0.000000 0.000000
# 4 0.000000 0.000000 0.000000 0.068216 0.000000 0.000000
# 5 0.000000 0.000000 0.000000 0.000000 0.068217 0.000000
# 6 0.000000 0.000000 0.000000 0.000000 0.000000 0.036368
#
#
# Mechanical properties :
#
#
# Convention : Reuss Voigt Hill
#
# Bulk Modulus (GPa) = 59.92242 61.75239 60.83740
# Shear Modulus (GPa) = 20.56537 22.93173 21.74855
#
# Velocity S-wave (km/s) = 3.26233 3.44491 3.35486
# Velocity P-wave (km/s) = 6.72315 6.91235 6.81841
#
# Compressibility (1/GPa) = 0.01668825
#
# Stress axis : x y z
#
# Youngs Moduli (GPa) = 76.99722 76.99699 67.79157
#
# Poissons Ratio (x) = 0.40012 0.23125
# Poissons Ratio (y) = 0.40012 0.23125
# Poissons Ratio (z) = 0.26265 0.26265
#
# Static dielectric constant tensor:
#      x y z
#    x 3.573400 0.000000 0.000000 
#    y 0.000000 3.573400 0.000000 
#    z 0.000000 0.000000 3.037050 
# 
# 
# High freq. dielectric constant tensor:
#      x y z
#    x 1.754310 0.000000 0.000000 
#    y 0.000000 1.754310 0.000000 
#    z 0.000000 0.000000 1.697000 
# 
# From -- ./inp_files/3041.got.cif
#   From: 2010.03.12/outbox.cif.g09.slc.cpg/sg189_2_cif.got.tgz:3041.got - 2010.04.01 12:03:36.
