data_PCOD8327237
_publ_section_title
;
Structure prediction by ZEFSAII (Michael W. Deem and Ramdas Pophale) SiO2 
 PCOD8327237
Probable space group: P -6 M 2
;
_chemical_formula_sum "Si O2"
_cell_formula_units_Z 42
_cell_length_a 17.256344
_cell_length_b 17.256344
_cell_length_c 7.534767
_cell_angle_alpha 90.000000
_cell_angle_beta 90.000000
_cell_angle_gamma 120.000000
_cell_volume 1943.112914
_symmetry_space_group_name_H-M "P -6 M 2"
_symmetry_group_IT_number 187
_symmetry_cell_setting 'hexagonal'
loop_
_space_group_symop_operation_xyz
x,y,z
-x+y,-x,-z
-y,x-y,z
x,y,-z
-x+y,-x,z
-y,x-y,-z
-y,-x,-z
-x+y,y,-z
x,x-y,-z
-x+y,y,z
x,x-y,z
-y,-x,z
loop_
_atom_site_type_symbol
_atom_site_label
_atom_site_fract_x
_atom_site_fract_y
_atom_site_fract_z
Si Si1 0.842356 0.333070 0.292471
Si Si2 0.026917 0.666323 0.800104
Si Si3 0.999621 0.173541 0.788941
Si Si4 0.513924 0.848707 0.500000
O O1 0.860136 0.330700 0.500000
O O2 0.816613 0.408307 0.248220
O O3 0.761378 0.238623 0.225888
O O4 0.931610 0.355018 0.189284
O O5 0.013725 0.745850 0.720580
O O6 0.094564 0.653513 0.676432
O O7 0.066703 0.688756 0.000000
O O8 0.080749 0.161498 0.717414
O O9 0.996612 0.171052 0.000000
O O10 0.906907 0.093094 0.711332
O O11 0.410562 0.821123 0.500000
O O12 0.522029 0.761015 0.500000
#
# Coordination Sequence:
#
# PCOD8327237 Si02
#       4
#    12  12  12   6
#     4  10  20  36  59  90 128 171 217 265 316 371
#     4  11  23  41  66  95 127 165 211 260 314 379
#     4   9  17  31  54  86 124 165 207 252 303 360
#     4  12  27  48  71  96 124 158 202 256 319 384
#
# _framework density 21.614802000000001
#
# number of rings (size 3 to 8) (size 9 to 14) (size 15 to 20)
#    0.000    1.714    1.429    3.286    0.000    8.000 
#    0.000    0.000    0.000    3.429    0.000    2.000 
#    0.000    0.000    0.000    0.000    0.000    0.000 
#
# Total GULP energy -520963.404315 kJ/mol
# GULP energy per Si atom -12403.890579 kJ/mol
# Density = 2.156561 g / cm^3
# Si number density = 21.614802 Si / 1000 Ang^3
#
#
#
# Elastic Constant Matrix: (Units=GPa)
#
#
# Indices 1 2 3 4 5 6 
#
# 1 128.6416 31.1347 27.1439 0.0000 0.0005 0.0000
# 2 31.1347 128.6416 27.1439 0.0000 -0.0005 0.0000
# 3 27.1439 27.1439 74.6227 0.0000 0.0000 0.0000
# 4 0.0000 0.0000 0.0000 11.3096 0.0000 -0.0005
# 5 0.0005 -0.0005 0.0000 0.0000 11.3096 0.0000
# 6 0.0000 0.0000 0.0000 -0.0005 0.0000 48.7535
#
#
#
# Elastic Compliance Matrix: (Units=1/GPa)
#
#
# Indices 1 2 3 4 5 6 
#
# 1 0.008699 -0.001557 -0.002598 0.000000 0.000000 0.000000
# 2 -0.001557 0.008699 -0.002598 0.000000 0.000000 0.000000
# 3 -0.002598 -0.002598 0.015291 0.000000 0.000000 0.000000
# 4 0.000000 0.000000 0.000000 0.088421 0.000000 0.000001
# 5 0.000000 0.000000 0.000000 0.000000 0.088421 0.000000
# 6 0.000000 0.000000 0.000000 0.000001 0.000000 0.020511
#
#
# Mechanical properties :
#
#
# Convention : Reuss Voigt Hill
#
# Bulk Modulus (GPa) = 52.13049 55.86119 53.99584
# Shear Modulus (GPa) = 20.00487 30.70676 25.35582
#
# Velocity S-wave (km/s) = 3.04553 3.77322 3.42874
# Velocity P-wave (km/s) = 6.04461 6.69948 6.38045
#
# Compressibility (1/GPa) = 0.01918263
#
# Stress axis : x y z
#
# Youngs Moduli (GPa) = 114.96202 114.96202 65.39995
#
# Poissons Ratio (x) = 0.17901 0.16989
# Poissons Ratio (y) = 0.17901 0.16989
# Poissons Ratio (z) = 0.29863 0.29863
#
# Static dielectric constant tensor:
#      x y z
#    x 3.964800 0.000000 0.000000 
#    y 0.000000 3.964800 0.000000 
#    z 0.000000 0.000000 3.742710 
# 
# 
# High freq. dielectric constant tensor:
#      x y z
#    x 1.852800 0.000000 0.000000 
#    y 0.000000 1.852800 0.000000 
#    z 0.000000 0.000000 1.834540 
# 
# From -- ./inp_files/308.got.cif
#   From: 2010.03.12/outbox.cif.g09.slc.cpg/sg187_1_cif.got.tgz:308.got - 2010.04.01 11:58:23.
