data_PCOD8327279
_publ_section_title
;
Structure prediction by ZEFSAII (Michael W. Deem and Ramdas Pophale) SiO2 
 PCOD8327279
Probable space group: P -6 M 2
;
_chemical_formula_sum "Si O2"
_cell_formula_units_Z 84
_cell_length_a 13.479178
_cell_length_b 13.479178
_cell_length_c 35.073228
_cell_angle_alpha 90.000000
_cell_angle_beta 90.000000
_cell_angle_gamma 120.000000
_cell_volume 5518.654265
_symmetry_space_group_name_H-M "P -6 M 2"
_symmetry_group_IT_number 187
_symmetry_cell_setting 'hexagonal'
loop_
_space_group_symop_operation_xyz
x,y,z
-x+y,-x,-z
-y,x-y,z
x,y,-z
-x+y,-x,z
-y,x-y,-z
-y,-x,-z
-x+y,y,-z
x,x-y,-z
-x+y,y,z
x,x-y,z
-y,-x,z
loop_
_atom_site_type_symbol
_atom_site_label
_atom_site_fract_x
_atom_site_fract_y
_atom_site_fract_z
Si Si1 0.562060 0.667001 0.456019
Si Si2 0.771643 0.771927 0.265542
Si Si3 0.229406 0.000283 0.822500
Si Si4 0.331632 0.899840 0.123257
Si Si5 0.666306 0.561698 0.316896
Si Si6 0.562578 0.668865 0.959733
Si Si7 0.895160 0.332985 0.595332
O O1 0.594933 0.667365 0.500000
O O2 0.570237 0.785119 0.444050
O O3 0.433365 0.566636 0.447779
O O4 0.652054 0.651724 0.430524
O O5 0.761425 0.880713 0.277507
O O6 0.739532 0.739073 0.221571
O O7 0.682098 0.666435 0.291027
O O8 0.900949 0.801898 0.273735
O O9 0.100656 0.899345 0.831031
O O10 0.321579 0.984191 0.846751
O O11 0.237960 0.118980 0.834526
O O12 0.452379 0.904757 0.128933
O O13 0.230418 0.769583 0.130003
O O14 0.320966 0.945721 0.080807
O O15 0.765867 0.531733 0.309186
O O16 0.547540 0.452461 0.305009
O O17 0.666546 0.595594 0.360777
O O18 0.518491 0.759246 0.958818
O O19 0.455017 0.544984 0.961344
O O20 0.633821 0.686941 0.000000
O O21 0.865825 0.432913 0.587425
O O22 0.785510 0.214491 0.583509
#
# Coordination Sequence:
#
# PCOD8327279 Si02
#       7
#    12  12  12  12  12  12  12
#     4   9  17  29  45  64  85 110 140 173 207 241
#     4   9  17  29  45  63  81 103 135 176 215 245
#     4   9  17  29  44  60  78 104 139 175 207 239
#     4   9  16  25  39  60  84 107 129 157 197 244
#     4   9  17  29  45  64  86 112 139 167 202 247
#     4   8  12  18  30  50  76 103 128 154 187 230
#     4   9  17  29  45  65  88 113 140 170 205 245
#
# _framework density 15.221102
#
# number of rings (size 3 to 8) (size 9 to 14) (size 15 to 20)
#    0.000    3.143    0.000    1.000    0.000    6.000 
#    0.000    0.000    0.000    2.143    0.000    0.000 
#    0.000    1.143    0.000    0.000    0.000    0.000 
#
# Total GULP energy -1040953.442625 kJ/mol
# GULP energy per Si atom -12392.302888 kJ/mol
# Density = 1.518646 g / cm^3
# Si number density = 15.221102 Si / 1000 Ang^3
#
#
#
# Elastic Constant Matrix: (Units=GPa)
#
#
# Indices 1 2 3 4 5 6 
#
# 1 91.4987 51.5026 61.4775 0.0000 0.0001 0.0000
# 2 51.5026 91.4987 61.4775 0.0000 -0.0001 0.0000
# 3 61.4775 61.4775 89.9044 0.0000 0.0000 0.0000
# 4 0.0000 0.0000 0.0000 21.8442 0.0000 -0.0001
# 5 0.0001 -0.0001 0.0000 0.0000 21.8442 0.0000
# 6 0.0000 0.0000 0.0000 -0.0001 0.0000 19.9980
#
#
#
# Elastic Compliance Matrix: (Units=1/GPa)
#
#
# Indices 1 2 3 4 5 6 
#
# 1 0.020987 -0.004016 -0.011605 0.000000 0.000000 0.000000
# 2 -0.004016 0.020987 -0.011605 0.000000 0.000000 0.000000
# 3 -0.011605 -0.011605 0.026994 0.000000 0.000000 0.000000
# 4 0.000000 0.000000 0.000000 0.045779 0.000000 0.000000
# 5 0.000000 0.000000 0.000000 0.000000 0.045779 0.000000
# 6 0.000000 0.000000 0.000000 0.000000 0.000000 0.050005
#
#
# Mechanical properties :
#
#
# Convention : Reuss Voigt Hill
#
# Bulk Modulus (GPa) = 68.88781 69.09077 68.98929
# Shear Modulus (GPa) = 18.53085 19.30025 18.91555
#
# Velocity S-wave (km/s) = 3.49298 3.56475 3.52905
# Velocity P-wave (km/s) = 7.85011 7.90147 7.87583
#
# Compressibility (1/GPa) = 0.01451636
#
# Stress axis : x y z
#
# Youngs Moduli (GPa) = 47.64898 47.64898 37.04501
#
# Poissons Ratio (x) = 0.19134 0.42991
# Poissons Ratio (y) = 0.19134 0.42991
# Poissons Ratio (z) = 0.55297 0.55297
#
# Static dielectric constant tensor:
#      x y z
#    x 2.768390 0.000000 0.000000 
#    y 0.000000 2.768390 0.000000 
#    z 0.000000 0.000000 3.255710 
# 
# 
# High freq. dielectric constant tensor:
#      x y z
#    x 1.562570 0.000000 0.000000 
#    y 0.000000 1.562570 0.000000 
#    z 0.000000 0.000000 1.595170 
# 
# From -- ./inp_files/4645.got.cif
#   From: 2010.03.12/outbox.cif.g09.slc.cpg/sg187_3_cif.got.tgz:4645.got - 2010.04.01 11:58:23.
