data_PCOD8327062
_publ_section_title
;
Structure prediction by ZEFSAII (Michael W. Deem and Ramdas Pophale) SiO2 
 PCOD8327062
Probable space group: P -6 M 2
;
_chemical_formula_sum "Si O2"
_cell_formula_units_Z 60
_cell_length_a 12.666018
_cell_length_b 12.666018
_cell_length_c 25.342015
_cell_angle_alpha 90.000000
_cell_angle_beta 90.000000
_cell_angle_gamma 120.000000
_cell_volume 3520.886109
_symmetry_space_group_name_H-M "P -6 M 2"
_symmetry_group_IT_number 187
_symmetry_cell_setting 'hexagonal'
loop_
_space_group_symop_operation_xyz
x,y,z
-x+y,-x,-z
-y,x-y,z
x,y,-z
-x+y,-x,z
-y,x-y,-z
-y,-x,-z
-x+y,y,-z
x,x-y,-z
-x+y,y,z
x,x-y,z
-y,-x,z
loop_
_atom_site_type_symbol
_atom_site_label
_atom_site_fract_x
_atom_site_fract_y
_atom_site_fract_z
Si Si1 0.666472 0.086270 0.000000
Si Si2 0.999535 0.757078 0.211686
Si Si3 0.085981 0.419721 0.402065
Si Si4 0.912406 0.333760 0.304493
Si Si5 0.245847 0.247888 0.500000
Si Si6 0.756197 0.999944 0.091909
O O1 0.665967 0.015179 0.947371
O O2 0.778087 0.221914 0.000000
O O3 0.546748 0.093496 0.000000
O O4 0.129154 0.870847 0.227493
O O5 0.899562 0.799125 0.218391
O O6 0.969363 0.643583 0.249036
O O7 0.999945 0.713823 0.151914
O O8 0.221268 0.442535 0.395246
O O9 0.095424 0.547712 0.415257
O O10 0.014400 0.327238 0.448982
O O11 0.012026 0.360923 0.348951
O O12 0.878811 0.439406 0.300143
O O13 0.790815 0.209186 0.318813
O O14 0.103663 0.207325 0.500000
O O15 0.258909 0.129455 0.500000
O O16 0.894074 0.105927 0.082639
O O17 0.750673 0.875337 0.077551
#
# Coordination Sequence:
#
# PCOD8327062 Si02
#       6
#     6  12  12  12   6  12
#     4  10  20  32  46  66  94 128 162 194 230 276
#     4   9  17  30  49  73  98 122 151 191 241 291
#     4  10  20  34  53  75  99 128 163 204 246 287
#     4  10  20  33  49  70  98 132 167 201 237 281
#     4  10  20  34  52  74 100 128 158 194 238 288
#     4   9  17  30  50  74  96 118 148 192 243 289
#
# _framework density 17.041166
#
# number of rings (size 3 to 8) (size 9 to 14) (size 15 to 20)
#    0.000    2.400    0.000    2.800    0.000    2.400 
#    0.000    2.000    0.000   13.600    0.000    0.000 
#    0.000    0.000    0.000    0.000    0.000    0.000 
#
# Total GULP energy -744113.635806 kJ/mol
# GULP energy per Si atom -12401.893930 kJ/mol
# Density = 1.700238 g / cm^3
# Si number density = 17.041166 Si / 1000 Ang^3
#
#
#
# Elastic Constant Matrix: (Units=GPa)
#
#
# Indices 1 2 3 4 5 6 
#
# 1 102.1733 53.2812 59.2926 0.0000 -0.0003 0.0000
# 2 53.2812 102.1733 59.2926 0.0000 0.0003 0.0000
# 3 59.2926 59.2926 111.4024 0.0000 0.0000 0.0000
# 4 0.0000 0.0000 0.0000 26.3856 0.0000 0.0003
# 5 -0.0003 0.0003 0.0000 0.0000 26.3856 0.0000
# 6 0.0000 0.0000 0.0000 0.0003 0.0000 24.4461
#
#
#
# Elastic Compliance Matrix: (Units=1/GPa)
#
#
# Indices 1 2 3 4 5 6 
#
# 1 0.015641 -0.004812 -0.005764 0.000000 0.000000 0.000000
# 2 -0.004812 0.015641 -0.005764 0.000000 0.000000 0.000000
# 3 -0.005764 -0.005764 0.015112 0.000000 0.000000 0.000000
# 4 0.000000 0.000000 0.000000 0.037899 0.000000 0.000000
# 5 0.000000 0.000000 0.000000 0.000000 0.037899 0.000000
# 6 0.000000 0.000000 0.000000 0.000000 0.000000 0.040906
#
#
# Mechanical properties :
#
#
# Convention : Reuss Voigt Hill
#
# Bulk Modulus (GPa) = 72.90993 73.27577 73.09285
# Shear Modulus (GPa) = 24.95616 25.03565 24.99591
#
# Velocity S-wave (km/s) = 3.83098 3.83708 3.83403
# Velocity P-wave (km/s) = 7.90228 7.91982 7.91105
#
# Compressibility (1/GPa) = 0.01371555
#
# Stress axis : x y z
#
# Youngs Moduli (GPa) = 63.93279 63.93279 66.17230
#
# Poissons Ratio (x) = 0.30763 0.38141
# Poissons Ratio (y) = 0.30763 0.38141
# Poissons Ratio (z) = 0.36851 0.36851
#
# Static dielectric constant tensor:
#      x y z
#    x 3.100390 0.000000 0.000000 
#    y 0.000000 3.100390 0.000000 
#    z 0.000000 0.000000 3.424720 
# 
# 
# High freq. dielectric constant tensor:
#      x y z
#    x 1.653870 0.000000 0.000000 
#    y 0.000000 1.653870 0.000000 
#    z 0.000000 0.000000 1.672320 
# 
# From -- ./inp_files/4212.got.cif
#   From: 2010.03.12/outbox.cif.g09.slc.cpg/sg187_3_cif.got.tgz:4212.got - 2010.04.01 11:58:23.
