data_PCOD8327384
_publ_section_title
;
Structure prediction by ZEFSAII (Michael W. Deem and Ramdas Pophale) SiO2 
 PCOD8327384
Probable space group: P -6 C 2
;
_chemical_formula_sum "Si O2"
_cell_formula_units_Z 72
_cell_length_a 23.843173
_cell_length_b 23.843173
_cell_length_c 8.815960
_cell_angle_alpha 90.000000
_cell_angle_beta 90.000000
_cell_angle_gamma 120.000000
_cell_volume 4340.385886
_symmetry_space_group_name_H-M "P -6 C 2"
_symmetry_group_IT_number 188
_symmetry_cell_setting 'hexagonal'
loop_
_space_group_symop_operation_xyz
x,y,z
-x+y,-x,1/2-z
-y,x-y,z
x,y,1/2-z
-x+y,-x,z
-y,x-y,1/2-z
-y,-x,-z
-x+y,y,-z
x,x-y,-z
-x+y,y,1/2+z
x,x-y,1/2+z
-y,-x,1/2+z
loop_
_atom_site_type_symbol
_atom_site_label
_atom_site_fract_x
_atom_site_fract_y
_atom_site_fract_z
Si Si1 0.225486 0.884637 0.580343
Si Si2 0.337808 0.333835 0.929889
Si Si3 0.273394 0.078005 0.568326
Si Si4 0.667978 0.217211 0.073271
Si Si5 0.931693 0.525562 0.071769
Si Si6 0.040337 0.187471 0.915808
O O1 0.245974 0.876164 0.750000
O O2 0.185566 0.814435 0.500000
O O3 0.179632 0.915351 0.591548
O O4 0.288882 0.930660 0.482457
O O5 0.334424 0.325901 0.750000
O O6 0.321572 0.266526 0.007351
O O7 0.408596 0.386508 0.984428
O O8 0.276756 0.079522 0.750000
O O9 0.296421 0.148211 0.500000
O O10 0.199839 0.028228 0.510036
O O11 0.671073 0.231965 0.250000
O O12 0.647457 0.143002 0.041415
O O13 0.738457 0.261544 0.000000
O O14 0.617495 0.234989 0.000000
O O15 0.947422 0.533093 0.250000
O O16 0.947605 0.473802 0.000000
O O17 0.026597 0.156528 0.750000
O O18 0.078158 0.156316 0.000000
#
# Coordination Sequence:
#
# PCOD8327384 Si02
#       6
#    12  12  12  12  12  12
#     4   9  16  28  46  70  97 122 150 184 220 263
#     4  11  21  33  50  71  96 128 160 194 238 288
#     4  10  20  33  47  67  93 121 155 199 246 295
#     4  10  20  33  50  68  88 113 148 196 251 305
#     4  10  21  37  53  70  93 124 162 203 244 295
#     4   8  15  26  42  62  84 110 142 178 219 268
#
# _framework density 16.588387000000001
#
# number of rings (size 3 to 8) (size 9 to 14) (size 15 to 20)
#    0.000    2.333    0.000    4.667    0.000    7.333 
#    0.000    1.667    0.000    0.333    0.000    0.000 
#    0.000    0.000    0.000    0.500    0.000    7.000 
#
# Total GULP energy -892638.218987 kJ/mol
# GULP energy per Si atom -12397.753041 kJ/mol
# Density = 1.655063 g / cm^3
# Si number density = 16.588387 Si / 1000 Ang^3
#
#
#
# Elastic Constant Matrix: (Units=GPa)
#
#
# Indices 1 2 3 4 5 6 
#
# 1 77.3150 48.3311 43.1773 -0.0001 0.0000 0.0000
# 2 48.3311 77.3150 43.1773 0.0001 0.0000 0.0000
# 3 43.1773 43.1773 114.8026 0.0000 0.0000 0.0000
# 4 -0.0001 0.0001 0.0000 26.3862 0.0000 0.0000
# 5 0.0000 0.0000 0.0000 0.0000 26.3862 -0.0001
# 6 0.0000 0.0000 0.0000 0.0000 -0.0001 14.4920
#
#
#
# Elastic Compliance Matrix: (Units=1/GPa)
#
#
# Indices 1 2 3 4 5 6 
#
# 1 0.022618 -0.011884 -0.004037 0.000000 0.000000 0.000000
# 2 -0.011884 0.022618 -0.004037 0.000000 0.000000 0.000000
# 3 -0.004037 -0.004037 0.011747 0.000000 0.000000 0.000000
# 4 0.000000 0.000000 0.000000 0.037899 0.000000 0.000000
# 5 0.000000 0.000000 0.000000 0.000000 0.037899 0.000000
# 6 0.000000 0.000000 0.000000 0.000000 0.000000 0.069004
#
#
# Mechanical properties :
#
#
# Convention : Reuss Voigt Hill
#
# Bulk Modulus (GPa) = 58.59438 59.86711 59.23074
# Shear Modulus (GPa) = 20.21119 22.43600 21.32360
#
# Velocity S-wave (km/s) = 3.49434 3.68164 3.58921
# Velocity P-wave (km/s) = 7.18886 7.36483 7.27738
#
# Compressibility (1/GPa) = 0.01706648
#
# Stress axis : x y z
#
# Youngs Moduli (GPa) = 44.21342 44.21342 85.12752
#
# Poissons Ratio (x) = 0.52544 0.34364
# Poissons Ratio (y) = 0.52544 0.34364
# Poissons Ratio (z) = 0.17848 0.17848
#
# Static dielectric constant tensor:
#      x y z
#    x 2.969020 0.000000 0.000000 
#    y 0.000000 2.969020 0.000000 
#    z 0.000000 0.000000 3.323700 
# 
# 
# High freq. dielectric constant tensor:
#      x y z
#    x 1.611430 0.000000 0.000000 
#    y 0.000000 1.611430 0.000000 
#    z 0.000000 0.000000 1.656930 
# 
# From -- ./inp_files/990.got.cif
#   From: 2010.03.12/outbox.cif.g09.slc.cpg/sg188_1_cif.got.tgz:990.got - 2010.04.01 12:01:06.
