data_PCOD8327322
_publ_section_title
;
Structure prediction by ZEFSAII (Michael W. Deem and Ramdas Pophale) SiO2 
 PCOD8327322
Probable space group: P -6 C 2
;
_chemical_formula_sum "Si O2"
_cell_formula_units_Z 70
_cell_length_a 15.035710
_cell_length_b 15.035710
_cell_length_c 20.852141
_cell_angle_alpha 90.000000
_cell_angle_beta 90.000000
_cell_angle_gamma 120.000000
_cell_volume 4082.527944
_symmetry_space_group_name_H-M "P -6 C 2"
_symmetry_group_IT_number 188
_symmetry_cell_setting 'hexagonal'
loop_
_space_group_symop_operation_xyz
x,y,z
-x+y,-x,1/2-z
-y,x-y,z
x,y,1/2-z
-x+y,-x,z
-y,x-y,1/2-z
-y,-x,-z
-x+y,y,-z
x,x-y,-z
-x+y,y,1/2+z
x,x-y,1/2+z
-y,-x,1/2+z
loop_
_atom_site_type_symbol
_atom_site_label
_atom_site_fract_x
_atom_site_fract_y
_atom_site_fract_z
Si Si1 0.333335 0.666668 0.325140
Si Si2 0.998419 0.206174 0.500435
Si Si3 0.932891 0.659443 0.750000
Si Si4 0.059462 0.335036 0.119365
Si Si5 0.103626 0.549957 0.131940
Si Si6 0.273395 0.935108 0.619750
Si Si7 0.936145 0.659982 0.250000
Si Si8 0.955161 0.477610 0.250000
O O1 0.333334 0.666668 0.250000
O O2 0.374497 0.779624 0.349849
O O3 0.104390 0.208780 0.500000
O O4 0.988422 0.258489 0.435863
O O5 0.992134 0.262615 0.564351
O O6 0.909754 0.090247 0.500000
O O7 0.839948 0.682767 0.750000
O O8 0.888449 0.535275 0.750000
O O9 0.002833 0.708312 0.812641
O O10 0.073004 0.444060 0.095242
O O11 0.169032 0.341915 0.125499
O O12 0.086803 0.635820 0.096585
O O13 0.031372 0.518011 0.191917
O O14 0.291353 0.993306 0.687380
O O15 0.888358 0.535319 0.250000
#
# Coordination Sequence:
#
# PCOD8327322 Si02
#       8
#     4  12   6  12  12  12   6   6
#     4  12  18  24  51  79 116 160 177 187 248 316
#     4  10  21  37  54  72  96 134 176 215 257 306
#     4  10  19  33  52  73  99 130 168 217 263 297
#     4  10  20  33  52  77 106 134 168 209 251 307
#     4  10  18  29  48  77 110 139 170 203 244 302
#     4  10  20  33  52  77 106 134 168 209 251 307
#     4  10  19  33  52  73  99 130 168 217 263 297
#     4   8  18  30  44  72 100 130 172 210 246 302
#
# _framework density 17.146239000000001
#
# number of rings (size 3 to 8) (size 9 to 14) (size 15 to 20)
#    0.000    2.057    2.571    1.714    0.000    0.686 
#    0.514    0.000    0.000    4.800    0.000    0.000 
#    0.000    0.000    0.000    0.000    0.000    0.000 
#
# Total GULP energy -867270.910925 kJ/mol
# GULP energy per Si atom -12389.584442 kJ/mol
# Density = 1.710721 g / cm^3
# Si number density = 17.146239 Si / 1000 Ang^3
#
#
#
# Elastic Constant Matrix: (Units=GPa)
#
#
# Indices 1 2 3 4 5 6 
#
# 1 73.7305 10.3941 23.1811 0.0000 0.0000 -0.0001
# 2 10.3941 73.7303 23.1812 0.0001 0.0000 -0.0001
# 3 23.1811 23.1812 101.6943 0.0000 0.0000 0.0000
# 4 0.0000 0.0001 0.0000 23.7552 0.0000 0.0000
# 5 0.0000 0.0000 0.0000 0.0000 23.7552 0.0001
# 6 -0.0001 -0.0001 0.0000 0.0000 0.0001 31.6682
#
#
#
# Elastic Compliance Matrix: (Units=1/GPa)
#
#
# Indices 1 2 3 4 5 6 
#
# 1 0.014692 -0.001097 -0.003099 0.000000 0.000000 0.000000
# 2 -0.001097 0.014692 -0.003099 0.000000 0.000000 0.000000
# 3 -0.003099 -0.003099 0.011246 0.000000 0.000000 0.000000
# 4 0.000000 0.000000 0.000000 0.042096 0.000000 0.000000
# 5 0.000000 0.000000 0.000000 0.000000 0.042096 0.000000
# 6 0.000000 0.000000 0.000000 0.000000 0.000000 0.031577
#
#
# Mechanical properties :
#
#
# Convention : Reuss Voigt Hill
#
# Bulk Modulus (GPa) = 38.40193 40.29645 39.34919
# Shear Modulus (GPa) = 27.82890 28.66228 28.24559
#
# Velocity S-wave (km/s) = 4.03306 4.09300 4.06314
# Velocity P-wave (km/s) = 6.64325 6.77418 6.70903
#
# Compressibility (1/GPa) = 0.02604036
#
# Stress axis : x y z
#
# Youngs Moduli (GPa) = 68.06493 68.06461 88.91877
#
# Poissons Ratio (x) = 0.07466 0.27556
# Poissons Ratio (y) = 0.07466 0.27556
# Poissons Ratio (z) = 0.21093 0.21093
#
# Static dielectric constant tensor:
#      x y z
#    x 3.364510 0.000000 0.000000 
#    y 0.000000 3.364500 0.000000 
#    z 0.000000 0.000000 3.232730 
# 
# 
# High freq. dielectric constant tensor:
#      x y z
#    x 1.662100 0.000000 0.000000 
#    y 0.000000 1.662100 0.000000 
#    z 0.000000 0.000000 1.658300 
# 
# From -- ./inp_files/3259.got.cif
#   From: 2010.03.12/outbox.cif.g09.slc.cpg/sg188_2_cif.got.tgz:3259.got - 2010.04.01 12:01:06.
