data_PCOD8327083
_publ_section_title
;
Structure prediction by ZEFSAII (Michael W. Deem and Ramdas Pophale) SiO2 
 PCOD8327083
Probable space group: P -6 M 2
;
_chemical_formula_sum "Si O2"
_cell_formula_units_Z 66
_cell_length_a 22.115680
_cell_length_b 22.115680
_cell_length_c 7.849927
_cell_angle_alpha 90.000000
_cell_angle_beta 90.000000
_cell_angle_gamma 120.000000
_cell_volume 3325.039772
_symmetry_space_group_name_H-M "P -6 M 2"
_symmetry_group_IT_number 187
_symmetry_cell_setting 'hexagonal'
loop_
_space_group_symop_operation_xyz
x,y,z
-x+y,-x,-z
-y,x-y,z
x,y,-z
-x+y,-x,z
-y,x-y,-z
-y,-x,-z
-x+y,y,-z
x,x-y,-z
-x+y,y,z
x,x-y,z
-y,-x,z
loop_
_atom_site_type_symbol
_atom_site_label
_atom_site_fract_x
_atom_site_fract_y
_atom_site_fract_z
Si Si1 0.070254 0.274704 0.300755
Si Si2 0.798036 0.464495 0.194225
Si Si3 0.331452 0.906933 0.298869
Si Si4 0.477390 0.811418 0.000000
Si Si5 0.935820 0.349478 0.310503
Si Si6 0.923635 0.711400 0.806827
O O1 0.056865 0.262500 0.500000
O O2 0.129281 0.258562 0.235844
O O3 0.096128 0.355113 0.256633
O O4 0.999554 0.219133 0.205394
O O5 0.741681 0.483361 0.277648
O O6 0.792148 0.396074 0.285892
O O7 0.877390 0.527094 0.194954
O O8 0.777717 0.446242 0.000000
O O9 0.334644 0.888908 0.500000
O O10 0.393350 0.985776 0.255152
O O11 0.338611 0.853568 0.173088
O O12 0.398777 0.797554 0.000000
O O13 0.475353 0.737677 0.000000
O O14 0.922078 0.365866 0.500000
O O15 0.926388 0.272604 0.310253
O O16 0.863568 0.727135 0.741964
O O17 0.908372 0.683868 0.000000
#
# Coordination Sequence:
#
# PCOD8327083 Si02
#       6
#    12  12  12   6  12  12
#     4   9  18  33  55  83 111 141 183 233 283 338
#     4  10  21  36  54  76 107 149 195 239 284 339
#     4   9  21  41  63  91 123 150 185 239 298 348
#     4  12  27  44  66  92 121 158 196 230 272 334
#     4  10  21  36  56  83 111 140 183 238 292 343
#     4  10  20  32  49  77 112 146 182 224 276 339
#
# _framework density 19.849385999999999
#
# number of rings (size 3 to 8) (size 9 to 14) (size 15 to 20)
#    0.000    2.182    0.000    3.545    6.364    7.636 
#    0.000    1.818    0.000    2.545    0.000    0.000 
#    0.000    0.000    0.000    0.000    0.000    0.000 
#
# Total GULP energy -817948.694788 kJ/mol
# GULP energy per Si atom -12393.162042 kJ/mol
# Density = 1.980421 g / cm^3
# Si number density = 19.849386 Si / 1000 Ang^3
#
#
#
# Elastic Constant Matrix: (Units=GPa)
#
#
# Indices 1 2 3 4 5 6 
#
# 1 124.9474 74.5237 35.4601 0.0000 0.0002 0.0000
# 2 74.5237 124.9474 35.4601 0.0000 -0.0002 0.0000
# 3 35.4601 35.4601 62.3594 0.0000 0.0000 0.0000
# 4 0.0000 0.0000 0.0000 15.2228 0.0000 -0.0002
# 5 0.0002 -0.0002 0.0000 0.0000 15.2228 0.0000
# 6 0.0000 0.0000 0.0000 -0.0002 0.0000 25.2119
#
#
#
# Elastic Compliance Matrix: (Units=1/GPa)
#
#
# Indices 1 2 3 4 5 6 
#
# 1 0.013058 -0.006774 -0.003573 0.000000 0.000000 0.000000
# 2 -0.006774 0.013058 -0.003573 0.000000 0.000000 0.000000
# 3 -0.003573 -0.003573 0.020100 0.000000 0.000000 0.000000
# 4 0.000000 0.000000 0.000000 0.065691 0.000000 0.000001
# 5 0.000000 0.000000 0.000000 0.000000 0.065691 0.000000
# 6 0.000000 0.000000 0.000000 0.000001 0.000000 0.039664
#
#
# Mechanical properties :
#
#
# Convention : Reuss Voigt Hill
#
# Bulk Modulus (GPa) = 54.42329 67.01578 60.71953
# Shear Modulus (GPa) = 19.90236 22.25220 21.07728
#
# Velocity S-wave (km/s) = 3.16993 3.35184 3.26216
# Velocity P-wave (km/s) = 6.39340 6.98679 6.69667
#
# Compressibility (1/GPa) = 0.01837449
#
# Stress axis : x y z
#
# Youngs Moduli (GPa) = 76.58264 76.58264 49.75182
#
# Poissons Ratio (x) = 0.51878 0.17777
# Poissons Ratio (y) = 0.51878 0.17777
# Poissons Ratio (z) = 0.27364 0.27364
#
# Static dielectric constant tensor:
#      x y z
#    x 3.688350 0.000000 0.000000 
#    y 0.000000 3.688350 0.000000 
#    z 0.000000 0.000000 3.499590 
# 
# 
# High freq. dielectric constant tensor:
#      x y z
#    x 1.765740 0.000000 0.000000 
#    y 0.000000 1.765740 0.000000 
#    z 0.000000 0.000000 1.768990 
# 
# From -- ./inp_files/762.got.cif
#   From: 2010.03.12/outbox.cif.g09.slc.cpg/sg187_1_cif.got.tgz:762.got - 2010.04.01 11:58:23.
