data_PCOD8327377
_publ_section_title
;
Structure prediction by ZEFSAII (Michael W. Deem and Ramdas Pophale) SiO2 
 PCOD8327377
Probable space group: P -6 C 2
;
_chemical_formula_sum "Si O2"
_cell_formula_units_Z 72
_cell_length_a 23.856127
_cell_length_b 23.856127
_cell_length_c 8.812452
_cell_angle_alpha 90.000000
_cell_angle_beta 90.000000
_cell_angle_gamma 120.000000
_cell_volume 4343.374451
_symmetry_space_group_name_H-M "P -6 C 2"
_symmetry_group_IT_number 188
_symmetry_cell_setting 'hexagonal'
loop_
_space_group_symop_operation_xyz
x,y,z
-x+y,-x,1/2-z
-y,x-y,z
x,y,1/2-z
-x+y,-x,z
-y,x-y,1/2-z
-y,-x,-z
-x+y,y,-z
x,x-y,-z
-x+y,y,1/2+z
x,x-y,1/2+z
-y,-x,1/2+z
loop_
_atom_site_type_symbol
_atom_site_label
_atom_site_fract_x
_atom_site_fract_y
_atom_site_fract_z
Si Si1 0.999482 0.663976 0.075343
Si Si2 0.548105 0.334081 0.931416
Si Si3 0.851023 0.263163 0.573744
Si Si4 0.292362 0.814825 0.416419
Si Si5 0.411535 0.471361 0.931024
Si Si6 0.106969 0.323862 0.080814
O O1 0.018246 0.663737 0.250000
O O2 0.924961 0.643464 0.055097
O O3 0.011302 0.612210 0.986054
O O4 0.041699 0.736493 0.010837
O O5 0.552536 0.335126 0.750000
O O6 0.595563 0.404438 0.000000
O O7 0.567922 0.283961 0.000000
O O8 0.476194 0.314648 0.984478
O O9 0.832129 0.262073 0.750000
O O10 0.807499 0.192502 0.500000
O O11 0.305352 0.797631 0.250000
O O12 0.254214 0.745787 0.500000
O O13 0.361218 0.866907 0.490410
O O14 0.248882 0.848274 0.411363
O O15 0.414082 0.471915 0.750000
O O16 0.481747 0.518254 0.000000
O O17 0.088104 0.294877 0.250000
O O18 0.146938 0.293875 0.000000
#
# Coordination Sequence:
#
# PCOD8327377 Si02
#       6
#    12  12  12  12  12  12
#     4  10  20  33  49  69  94 123 155 191 232 280
#     4  11  21  34  51  69  89 113 148 196 250 304
#     4  10  21  36  52  70  92 122 159 196 238 289
#     4   8  15  26  41  61  82 107 139 173 212 260
#     4  10  20  32  46  66  91 119 152 192 239 287
#     4   9  16  27  45  69  95 120 147 178 214 256
#
# _framework density 16.576972000000001
#
# number of rings (size 3 to 8) (size 9 to 14) (size 15 to 20)
#    0.000    2.333    0.000    5.667    0.000    8.000 
#    0.000    0.000    0.000    0.333    0.000    0.000 
#    0.000    0.000    0.000    0.500    0.000    8.000 
#
# Total GULP energy -892585.612055 kJ/mol
# GULP energy per Si atom -12397.022390 kJ/mol
# Density = 1.653924 g / cm^3
# Si number density = 16.576972 Si / 1000 Ang^3
#
#
#
# Elastic Constant Matrix: (Units=GPa)
#
#
# Indices 1 2 3 4 5 6 
#
# 1 72.2141 42.8531 42.9358 0.0000 0.0000 0.0000
# 2 42.8531 72.2141 42.9358 0.0000 0.0000 0.0000
# 3 42.9358 42.9358 125.8507 0.0000 0.0000 0.0000
# 4 0.0000 0.0000 0.0000 24.4823 0.0000 0.0000
# 5 0.0000 0.0000 0.0000 0.0000 24.4823 0.0000
# 6 0.0000 0.0000 0.0000 0.0000 0.0000 14.6805
#
#
#
# Elastic Compliance Matrix: (Units=1/GPa)
#
#
# Indices 1 2 3 4 5 6 
#
# 1 0.022859 -0.011200 -0.003978 0.000000 0.000000 0.000000
# 2 -0.011200 0.022859 -0.003978 0.000000 0.000000 0.000000
# 3 -0.003978 -0.003978 0.010660 0.000000 0.000000 0.000000
# 4 0.000000 0.000000 0.000000 0.040846 0.000000 0.000000
# 5 0.000000 0.000000 0.000000 0.000000 0.040846 0.000000
# 6 0.000000 0.000000 0.000000 0.000000 0.000000 0.068118
#
#
# Mechanical properties :
#
#
# Convention : Reuss Voigt Hill
#
# Bulk Modulus (GPa) = 55.34827 58.63646 56.99236
# Shear Modulus (GPa) = 19.95849 22.16597 21.06223
#
# Velocity S-wave (km/s) = 3.47362 3.66068 3.56838
# Velocity P-wave (km/s) = 7.03912 7.30181 7.17167
#
# Compressibility (1/GPa) = 0.01806741
#
# Stress axis : x y z
#
# Youngs Moduli (GPa) = 43.74662 43.74662 93.80894
#
# Poissons Ratio (x) = 0.48996 0.37314
# Poissons Ratio (y) = 0.48996 0.37314
# Poissons Ratio (z) = 0.17401 0.17401
#
# Static dielectric constant tensor:
#      x y z
#    x 2.961010 0.000000 0.000000 
#    y 0.000000 2.961010 0.000000 
#    z 0.000000 0.000000 3.366160 
# 
# 
# High freq. dielectric constant tensor:
#      x y z
#    x 1.608710 0.000000 0.000000 
#    y 0.000000 1.608710 0.000000 
#    z 0.000000 0.000000 1.658240 
# 
# From -- ./inp_files/1066.got.cif
#   From: 2010.03.12/outbox.cif.g09.slc.cpg/sg188_1_cif.got.tgz:1066.got - 2010.04.01 12:01:06.
