data_PCOD8327605
_publ_section_title
;
Structure prediction by ZEFSAII (Michael W. Deem and Ramdas Pophale) SiO2 
 PCOD8327605
Probable space group: P -6 2 M
;
_chemical_formula_sum "Si O2"
_cell_formula_units_Z 84
_cell_length_a 15.210266
_cell_length_b 15.210266
_cell_length_c 23.008918
_cell_angle_alpha 90.000000
_cell_angle_beta 90.000000
_cell_angle_gamma 120.000000
_cell_volume 4609.994915
_symmetry_space_group_name_H-M "P -6 2 M"
_symmetry_group_IT_number 189
_symmetry_cell_setting 'hexagonal'
loop_
_space_group_symop_operation_xyz
x,y,z
-x+y,-x,-z
-y,x-y,z
x,y,-z
-x+y,-x,z
-y,x-y,-z
x-y,-y,-z
-x,-x+y,-z
y,x,-z
y,x,z
x-y,-y,z
-x,-x+y,z
loop_
_atom_site_type_symbol
_atom_site_label
_atom_site_fract_x
_atom_site_fract_y
_atom_site_fract_z
Si Si1 0.882063 0.118132 0.066051
Si Si2 0.525645 0.411836 0.348699
Si Si3 0.226965 0.337433 0.607495
Si Si4 0.646791 0.880970 0.170565
Si Si5 0.765882 0.884265 0.275927
Si Si6 0.119721 0.445252 0.436112
Si Si7 0.554368 0.330731 0.230767
O O1 0.819288 0.153076 0.107512
O O2 0.000000 0.180551 0.082548
O O3 0.845541 0.000000 0.075685
O O4 0.863140 0.139380 0.000000
O O5 0.492627 0.492627 0.326251
O O6 0.441776 0.333573 0.392844
O O7 0.632674 0.469535 0.384675
O O8 0.523986 0.342765 0.295686
O O9 0.249517 0.249517 0.582299
O O10 0.182395 0.306336 0.671847
O O11 0.150608 0.358068 0.569925
O O12 0.693609 0.840362 0.219549
O O13 0.528279 0.842267 0.182116
O O14 0.700072 0.000000 0.175084
O O15 0.816070 0.816070 0.289181
O O16 0.854536 0.000000 0.265512
O O17 0.156219 0.495764 0.500000
O O18 0.000000 0.391169 0.432118
O O19 0.567633 0.231470 0.222467
#
# Coordination Sequence:
#
# PCOD8327605 Si02
#       7
#    12  12  12  12  12  12  12
#     4   9  17  30  52  83 119 155 188 225 271 325
#     4  10  19  35  56  76 103 135 168 216 276 331
#     4  10  20  35  55  76 103 137 172 211 262 321
#     4  10  19  34  53  77 110 147 185 226 272 324
#     4  10  19  31  49  76 109 143 177 215 262 318
#     4  10  22  38  55  78 106 134 171 219 268 325
#     4  10  21  34  53  76 105 137 180 225 275 327
#
# _framework density 18.221278000000002
#
# number of rings (size 3 to 8) (size 9 to 14) (size 15 to 20)
#    0.286    1.857    1.429    2.429    0.000    1.429 
#    0.857    5.000    0.000    1.143    0.000    2.000 
#    0.000    0.000    0.000    0.000    0.000    0.000 
#
# Total GULP energy -1040793.134077 kJ/mol
# GULP energy per Si atom -12390.394453 kJ/mol
# Density = 1.817981 g / cm^3
# Si number density = 18.221278 Si / 1000 Ang^3
#
#
#
# Elastic Constant Matrix: (Units=GPa)
#
#
# Indices 1 2 3 4 5 6 
#
# 1 70.1670 24.4051 44.8966 0.0000 0.0000 0.0000
# 2 24.4051 70.1670 44.8966 0.0000 0.0000 0.0000
# 3 44.8966 44.8966 101.4507 0.0000 0.0000 0.0000
# 4 0.0000 0.0000 0.0000 20.8611 0.0000 0.0000
# 5 0.0000 0.0000 0.0000 0.0000 20.8611 0.0000
# 6 0.0000 0.0000 0.0000 0.0000 0.0000 22.8810
#
#
#
# Elastic Compliance Matrix: (Units=1/GPa)
#
#
# Indices 1 2 3 4 5 6 
#
# 1 0.020044 -0.001808 -0.008071 0.000000 0.000000 0.000000
# 2 -0.001808 0.020044 -0.008071 0.000000 0.000000 0.000000
# 3 -0.008071 -0.008071 0.017000 0.000000 0.000000 0.000000
# 4 0.000000 0.000000 0.000000 0.047936 0.000000 0.000000
# 5 0.000000 0.000000 0.000000 0.000000 0.047936 0.000000
# 6 0.000000 0.000000 0.000000 0.000000 0.000000 0.043704
#
#
# Mechanical properties :
#
#
# Convention : Reuss Voigt Hill
#
# Bulk Modulus (GPa) = 47.18917 52.24234 49.71576
# Shear Modulus (GPa) = 20.86572 21.42639 21.14606
#
# Velocity S-wave (km/s) = 3.38765 3.43286 3.41033
# Velocity P-wave (km/s) = 6.42305 6.66678 6.54605
#
# Compressibility (1/GPa) = 0.02119130
#
# Stress axis : x y z
#
# Youngs Moduli (GPa) = 49.88911 49.88911 58.82284
#
# Poissons Ratio (x) = 0.09019 0.47473
# Poissons Ratio (y) = 0.09019 0.47473
# Poissons Ratio (z) = 0.40263 0.40263
#
# Static dielectric constant tensor:
#      x y z
#    x 3.363540 0.000000 0.000000 
#    y 0.000000 3.363540 0.000000 
#    z 0.000000 0.000000 3.330390 
# 
# 
# High freq. dielectric constant tensor:
#      x y z
#    x 1.698560 0.000000 0.000000 
#    y 0.000000 1.698560 0.000000 
#    z 0.000000 0.000000 1.685100 
# 
# From -- ./inp_files/3608.got.cif
#   From: 2010.03.12/outbox.cif.g09.slc.cpg/sg189_2_cif.got.tgz:3608.got - 2010.04.01 12:03:36.
