data_PCOD8327091
_publ_section_title
;
Structure prediction by ZEFSAII (Michael W. Deem and Ramdas Pophale) SiO2 
 PCOD8327091
Probable space group: P -6 M 2
;
_chemical_formula_sum "Si O2"
_cell_formula_units_Z 54
_cell_length_a 12.763608
_cell_length_b 12.763608
_cell_length_c 22.998891
_cell_angle_alpha 90.000000
_cell_angle_beta 90.000000
_cell_angle_gamma 120.000000
_cell_volume 3244.773913
_symmetry_space_group_name_H-M "P -6 M 2"
_symmetry_group_IT_number 187
_symmetry_cell_setting 'hexagonal'
loop_
_space_group_symop_operation_xyz
x,y,z
-x+y,-x,-z
-y,x-y,z
x,y,-z
-x+y,-x,z
-y,x-y,-z
-y,-x,-z
-x+y,y,-z
x,x-y,-z
-x+y,y,z
x,x-y,z
-y,-x,z
loop_
_atom_site_type_symbol
_atom_site_label
_atom_site_fract_x
_atom_site_fract_y
_atom_site_fract_z
Si Si1 0.664226 0.576751 0.874009
Si Si2 0.332757 0.422416 0.333959
Si Si3 0.902899 0.567929 0.000000
Si Si4 0.426105 0.092839 0.566324
Si Si5 0.000862 0.245024 0.227914
O O1 0.774942 0.549883 0.875057
O O2 0.545062 0.454939 0.853466
O O3 0.689239 0.684015 0.830389
O O4 0.643532 0.618019 0.938738
O O5 0.226141 0.452282 0.340875
O O6 0.454683 0.545318 0.320251
O O7 0.340495 0.361126 0.393601
O O8 0.310270 0.331524 0.281782
O O9 0.802383 0.604765 0.000000
O O10 0.845254 0.422627 0.000000
O O11 0.384506 0.054074 0.500000
O O12 0.565951 0.131901 0.574687
O O13 0.411878 0.205939 0.584916
O O14 0.878546 0.121455 0.239559
O O15 0.107948 0.215895 0.220428
#
# Coordination Sequence:
#
# PCOD8327091 Si02
#       5
#    12  12   6  12  12
#     4   9  16  27  45  69  94 117 143 179 225 274
#     4  10  20  33  49  69  93 121 153 190 232 277
#     4   8  13  22  39  64  92 118 142 172 216 270
#     4   9  17  30  49  72  96 121 149 182 221 265
#     4  10  20  33  48  65  88 120 157 194 230 271
#
# _framework density 16.642146
#
# number of rings (size 3 to 8) (size 9 to 14) (size 15 to 20)
#    0.000    2.667    0.000    2.333    0.000    3.111 
#    0.000    0.556    0.000    9.333    0.000    1.556 
#    0.000    0.000    0.000    0.000    0.000    0.000 
#
# Total GULP energy -669333.966758 kJ/mol
# GULP energy per Si atom -12395.073458 kJ/mol
# Density = 1.660427 g / cm^3
# Si number density = 16.642146 Si / 1000 Ang^3
#
#
#
# Elastic Constant Matrix: (Units=GPa)
#
#
# Indices 1 2 3 4 5 6 
#
# 1 89.7520 51.8570 59.4797 0.0000 -0.0001 0.0000
# 2 51.8570 89.7520 59.4797 0.0000 0.0001 0.0000
# 3 59.4797 59.4797 117.0226 0.0000 0.0000 0.0000
# 4 0.0000 0.0000 0.0000 24.1824 0.0000 0.0001
# 5 -0.0001 0.0001 0.0000 0.0000 24.1824 0.0000
# 6 0.0000 0.0000 0.0000 0.0001 0.0000 18.9475
#
#
#
# Elastic Compliance Matrix: (Units=1/GPa)
#
#
# Indices 1 2 3 4 5 6 
#
# 1 0.019356 -0.007033 -0.006264 0.000000 0.000000 0.000000
# 2 -0.007033 0.019356 -0.006264 0.000000 0.000000 0.000000
# 3 -0.006264 -0.006264 0.014913 0.000000 0.000000 0.000000
# 4 0.000000 0.000000 0.000000 0.041352 0.000000 0.000000
# 5 0.000000 0.000000 0.000000 0.000000 0.041352 0.000000
# 6 0.000000 0.000000 0.000000 0.000000 0.000000 0.052777
#
#
# Mechanical properties :
#
#
# Convention : Reuss Voigt Hill
#
# Bulk Modulus (GPa) = 68.94220 70.90660 69.92440
# Shear Modulus (GPa) = 21.45347 21.84315 21.64831
#
# Velocity S-wave (km/s) = 3.59431 3.62680 3.61059
# Velocity P-wave (km/s) = 7.66431 7.76128 7.71294
#
# Compressibility (1/GPa) = 0.01450490
#
# Stress axis : x y z
#
# Youngs Moduli (GPa) = 51.66310 51.66310 67.05633
#
# Poissons Ratio (x) = 0.36332 0.42003
# Poissons Ratio (y) = 0.36332 0.42003
# Poissons Ratio (z) = 0.32361 0.32361
#
# Static dielectric constant tensor:
#      x y z
#    x 2.977670 0.000000 0.000000 
#    y 0.000000 2.977670 0.000000 
#    z 0.000000 0.000000 3.458540 
# 
# 
# High freq. dielectric constant tensor:
#      x y z
#    x 1.627790 0.000000 0.000000 
#    y 0.000000 1.627790 0.000000 
#    z 0.000000 0.000000 1.658740 
# 
# From -- ./inp_files/3868.got.cif
#   From: 2010.03.12/outbox.cif.g09.slc.cpg/sg187_2_cif.got.tgz:3868.got - 2010.04.01 11:58:23.
