data_PCOD8327654
_publ_section_title
;
Structure prediction by ZEFSAII (Michael W. Deem and Ramdas Pophale) SiO2 
 PCOD8327654
Probable space group: P -6 2 M
;
_chemical_formula_sum "Si O2"
_cell_formula_units_Z 72
_cell_length_a 23.363602
_cell_length_b 23.363602
_cell_length_c 8.966948
_cell_angle_alpha 90.000000
_cell_angle_beta 90.000000
_cell_angle_gamma 120.000000
_cell_volume 4238.916696
_symmetry_space_group_name_H-M "P -6 2 M"
_symmetry_group_IT_number 189
_symmetry_cell_setting 'hexagonal'
loop_
_space_group_symop_operation_xyz
x,y,z
-x+y,-x,-z
-y,x-y,z
x,y,-z
-x+y,-x,z
-y,x-y,-z
x-y,-y,-z
-x,-x+y,-z
y,x,-z
y,x,z
x-y,-y,z
-x,-x+y,z
loop_
_atom_site_type_symbol
_atom_site_label
_atom_site_fract_x
_atom_site_fract_y
_atom_site_fract_z
Si Si1 0.924273 0.254286 0.673591
Si Si2 0.597398 0.129746 0.324402
Si Si3 0.519066 0.673291 0.327433
Si Si4 0.406642 0.406642 0.676958
Si Si5 0.672357 0.865103 0.823771
Si Si6 0.000000 0.723748 0.677483
Si Si7 0.790408 0.520624 0.825108
O O1 0.914935 0.235106 0.500000
O O2 0.902888 0.309021 0.706448
O O3 0.880384 0.188146 0.768260
O O4 0.000000 0.285049 0.723926
O O5 0.609087 0.135616 0.500000
O O6 0.529951 0.127877 0.280846
O O7 0.592492 0.063468 0.258742
O O8 0.660668 0.190620 0.249362
O O9 0.510523 0.685648 0.500000
O O10 0.498886 0.717287 0.229166
O O11 0.409176 0.409176 0.500000
O O12 0.341705 0.341705 0.733263
O O13 0.720780 0.934615 0.744032
O O14 0.596587 0.840411 0.776590
O O15 0.682397 0.873544 0.000000
O O16 0.000000 0.729831 0.500000
O O17 0.789806 0.512352 0.000000
#
# Coordination Sequence:
#
# PCOD8327654 Si02
#       7
#    12  12  12   6  12   6  12
#     4   9  18  33  53  77 103 133 169 209 251 295
#     4  10  19  33  52  74  98 125 164 211 260 312
#     4   9  19  33  52  73  95 126 166 212 257 306
#     4   9  18  29  49  77 101 125 157 204 257 306
#     4  10  20  33  50  74 105 137 167 201 245 301
#     4  11  19  31  53  79 105 135 167 206 251 298
#     4  10  20  34  50  67  94 129 165 207 255 305
#
# _framework density 16.985472000000001
#
# number of rings (size 3 to 8) (size 9 to 14) (size 15 to 20)
#    0.000    2.333    1.667    1.250    1.167    2.333 
#    1.000    0.417    0.000    0.000    0.000    0.000 
#    0.833    0.000    1.500    0.000    1.500    0.000 
#
# Total GULP energy -892939.278300 kJ/mol
# GULP energy per Si atom -12401.934421 kJ/mol
# Density = 1.694681 g / cm^3
# Si number density = 16.985472 Si / 1000 Ang^3
#
#
#
# Elastic Constant Matrix: (Units=GPa)
#
#
# Indices 1 2 3 4 5 6 
#
# 1 104.8256 58.6364 40.3111 0.0000 0.0000 0.0000
# 2 58.6364 104.8256 40.3111 0.0000 0.0000 0.0000
# 3 40.3111 40.3111 55.3142 0.0000 0.0000 0.0000
# 4 0.0000 0.0000 0.0000 19.8473 0.0000 0.0000
# 5 0.0000 0.0000 0.0000 0.0000 19.8473 0.0000
# 6 0.0000 0.0000 0.0000 0.0000 0.0000 23.0946
#
#
#
# Elastic Compliance Matrix: (Units=1/GPa)
#
#
# Indices 1 2 3 4 5 6 
#
# 1 0.015600 -0.006050 -0.006960 0.000000 0.000000 0.000000
# 2 -0.006050 0.015600 -0.006960 0.000000 0.000000 0.000000
# 3 -0.006960 -0.006960 0.028223 0.000000 0.000000 0.000000
# 4 0.000000 0.000000 0.000000 0.050385 0.000000 0.000000
# 5 0.000000 0.000000 0.000000 0.000000 0.050385 0.000000
# 6 0.000000 0.000000 0.000000 0.000000 0.000000 0.043300
#
#
# Mechanical properties :
#
#
# Convention : Reuss Voigt Hill
#
# Bulk Modulus (GPa) = 51.32483 60.38695 55.85589
# Shear Modulus (GPa) = 20.00581 20.93829 20.47205
#
# Velocity S-wave (km/s) = 3.43566 3.51482 3.47546
# Velocity P-wave (km/s) = 6.78387 7.21812 7.00436
#
# Compressibility (1/GPa) = 0.01948375
#
# Stress axis : x y z
#
# Youngs Moduli (GPa) = 64.10149 64.10149 35.43212
#
# Poissons Ratio (x) = 0.38780 0.24661
# Poissons Ratio (y) = 0.38780 0.24661
# Poissons Ratio (z) = 0.44615 0.44615
#
# Static dielectric constant tensor:
#      x y z
#    x 3.126390 0.000000 0.000000 
#    y 0.000000 3.126390 0.000000 
#    z 0.000000 0.000000 3.024510 
# 
# 
# High freq. dielectric constant tensor:
#      x y z
#    x 1.643110 0.000000 0.000000 
#    y 0.000000 1.643110 0.000000 
#    z 0.000000 0.000000 1.649610 
# 
# From -- ./inp_files/1319.got.cif
#   From: 2010.03.12/outbox.cif.g09.slc.cpg/sg189_1_cif.got.tgz:1319.got - 2010.04.01 12:03:36.
