data_PCOD8327830
_publ_section_title
;
Structure prediction by ZEFSAII (Michael W. Deem and Ramdas Pophale) SiO2 
 PCOD8327830
Probable space group: P -6 2 M
;
_chemical_formula_sum "Si O2"
_cell_formula_units_Z 60
_cell_length_a 15.892520
_cell_length_b 15.892520
_cell_length_c 14.557099
_cell_angle_alpha 90.000000
_cell_angle_beta 90.000000
_cell_angle_gamma 120.000000
_cell_volume 3184.131539
_symmetry_space_group_name_H-M "P -6 2 M"
_symmetry_group_IT_number 189
_symmetry_cell_setting 'hexagonal'
loop_
_space_group_symop_operation_xyz
x,y,z
-x+y,-x,-z
-y,x-y,z
x,y,-z
-x+y,-x,z
-y,x-y,-z
x-y,-y,-z
-x,-x+y,-z
y,x,-z
y,x,z
x-y,-y,z
-x,-x+y,z
loop_
_atom_site_type_symbol
_atom_site_label
_atom_site_fract_x
_atom_site_fract_y
_atom_site_fract_z
Si Si1 0.743208 0.549901 0.894090
Si Si2 0.462475 0.576892 0.398778
Si Si3 0.279695 0.389418 0.392574
Si Si4 0.626280 0.736172 0.287709
Si Si5 0.480620 0.890784 0.105590
O O1 0.751178 0.631033 0.822678
O O2 0.634586 0.460931 0.881905
O O3 0.823546 0.523187 0.858529
O O4 0.760695 0.587432 0.000000
O O5 0.468347 0.624176 0.500000
O O6 0.509631 0.509631 0.408893
O O7 0.350272 0.504600 0.369525
O O8 0.516679 0.658346 0.321315
O O9 0.257654 0.375690 0.500000
O O10 0.328880 0.328880 0.357828
O O11 0.178417 0.342753 0.339159
O O12 0.701337 0.701337 0.316432
O O13 0.530582 0.000000 0.152907
O O14 0.507019 0.910282 0.000000
#
# Coordination Sequence:
#
# PCOD8327830 Si02
#       5
#    12  12  12  12  12
#     4  10  21  35  51  75 109 148 192 235 279 329
#     4   8  16  33  53  74 103 135 169 214 267 323
#     4   9  19  37  58  78 105 141 178 221 276 334
#     4  11  22  33  53  82 109 142 182 224 273 325
#     4   9  18  34  54  73 100 143 190 236 282 327
#
# _framework density 18.843442
#
# number of rings (size 3 to 8) (size 9 to 14) (size 15 to 20)
#    0.000    2.600    0.000    2.800    2.800    4.800 
#    1.200    0.000    0.000    0.400    0.000    0.000 
#    0.000    0.000    0.000    0.000    0.000    0.000 
#
# Total GULP energy -743397.197173 kJ/mol
# GULP energy per Si atom -12389.953286 kJ/mol
# Density = 1.880055 g / cm^3
# Si number density = 18.843442 Si / 1000 Ang^3
#
#
#
# Elastic Constant Matrix: (Units=GPa)
#
#
# Indices 1 2 3 4 5 6 
#
# 1 90.8061 42.9447 32.6260 0.0000 0.0000 0.0000
# 2 42.9447 90.8061 32.6260 0.0000 0.0000 0.0000
# 3 32.6260 32.6260 83.1879 0.0000 0.0000 0.0000
# 4 0.0000 0.0000 0.0000 20.9465 0.0000 0.0000
# 5 0.0000 0.0000 0.0000 0.0000 20.9465 0.0000
# 6 0.0000 0.0000 0.0000 0.0000 0.0000 23.9307
#
#
#
# Elastic Compliance Matrix: (Units=1/GPa)
#
#
# Indices 1 2 3 4 5 6 
#
# 1 0.015070 -0.005824 -0.003626 0.000000 0.000000 0.000000
# 2 -0.005824 0.015070 -0.003626 0.000000 0.000000 0.000000
# 3 -0.003626 -0.003626 0.014865 0.000000 0.000000 0.000000
# 4 0.000000 0.000000 0.000000 0.047741 0.000000 0.000000
# 5 0.000000 0.000000 0.000000 0.000000 0.047741 0.000000
# 6 0.000000 0.000000 0.000000 0.000000 0.000000 0.041787
#
#
# Mechanical properties :
#
#
# Convention : Reuss Voigt Hill
#
# Bulk Modulus (GPa) = 53.04444 53.46595 53.25520
# Shear Modulus (GPa) = 23.28728 23.60499 23.44613
#
# Velocity S-wave (km/s) = 3.51925 3.54318 3.53123
# Velocity P-wave (km/s) = 6.68765 6.72117 6.70443
#
# Compressibility (1/GPa) = 0.01885212
#
# Stress axis : x y z
#
# Youngs Moduli (GPa) = 66.35857 66.35857 67.27093
#
# Poissons Ratio (x) = 0.38647 0.24393
# Poissons Ratio (y) = 0.38647 0.24393
# Poissons Ratio (z) = 0.24062 0.24062
#
# Static dielectric constant tensor:
#      x y z
#    x 3.440290 0.000000 0.000000 
#    y 0.000000 3.440290 0.000000 
#    z 0.000000 0.000000 3.543490 
# 
# 
# High freq. dielectric constant tensor:
#      x y z
#    x 1.705680 0.000000 0.000000 
#    y 0.000000 1.705680 0.000000 
#    z 0.000000 0.000000 1.741180 
# 
# From -- ./inp_files/2515.got.cif
#   From: 2010.03.12/outbox.cif.g09.slc.cpg/sg189_2_cif.got.tgz:2515.got - 2010.04.01 12:03:36.
