data_PCOD8327899
_publ_section_title
;
Structure prediction by ZEFSAII (Michael W. Deem and Ramdas Pophale) SiO2 
 PCOD8327899
Probable space group: P -6 2 M
;
_chemical_formula_sum "Si O2"
_cell_formula_units_Z 60
_cell_length_a 14.875555
_cell_length_b 14.875555
_cell_length_c 14.144594
_cell_angle_alpha 90.000000
_cell_angle_beta 90.000000
_cell_angle_gamma 120.000000
_cell_volume 2710.612732
_symmetry_space_group_name_H-M "P -6 2 M"
_symmetry_group_IT_number 189
_symmetry_cell_setting 'hexagonal'
loop_
_space_group_symop_operation_xyz
x,y,z
-x+y,-x,-z
-y,x-y,z
x,y,-z
-x+y,-x,z
-y,x-y,-z
x-y,-y,-z
-x,-x+y,-z
y,x,-z
y,x,z
x-y,-y,z
-x,-x+y,z
loop_
_atom_site_type_symbol
_atom_site_label
_atom_site_fract_x
_atom_site_fract_y
_atom_site_fract_z
Si Si1 0.117995 0.237963 0.210537
Si Si2 0.789738 0.123081 0.603557
Si Si3 0.810221 0.555014 0.889780
Si Si4 0.409721 0.880486 0.800755
Si Si5 0.123066 0.588593 0.397591
O O1 0.150981 0.150981 0.218156
O O2 0.126272 0.292837 0.312221
O O3 0.189184 0.323685 0.134307
O O4 0.000000 0.183936 0.176077
O O5 0.844565 0.155031 0.500000
O O6 0.711840 0.168362 0.615046
O O7 0.725169 0.000000 0.613307
O O8 0.870720 0.507038 0.835476
O O9 0.689639 0.497113 0.862292
O O10 0.819445 0.540732 0.000000
O O11 0.386398 0.842654 0.690670
O O12 0.438275 0.000000 0.811280
O O13 0.160344 0.567598 0.500000
O O14 0.000000 0.534471 0.396817
#
# Coordination Sequence:
#
# PCOD8327899 Si02
#       5
#    12  12  12  12  12
#     4  11  23  40  61  90 128 172 218 264 313 370
#     4   8  14  29  56  88 121 159 202 247 300 364
#     4  12  26  43  65  93 122 157 212 271 322 381
#     4  11  23  43  68  94 126 163 200 252 322 382
#     4   8  14  30  60  93 123 157 195 239 299 373
#
# _framework density 22.135214999999999
#
# number of rings (size 3 to 8) (size 9 to 14) (size 15 to 20)
#    0.000    2.000    2.000    3.600    0.000    4.400 
#    0.000    2.000    0.000    4.800    0.000    0.000 
#    0.000    0.000    0.000    0.000    0.000    0.000 
#
# Total GULP energy -743818.246086 kJ/mol
# GULP energy per Si atom -12396.970768 kJ/mol
# Density = 2.208483 g / cm^3
# Si number density = 22.135215 Si / 1000 Ang^3
#
#
#
# Elastic Constant Matrix: (Units=GPa)
#
#
# Indices 1 2 3 4 5 6 
#
# 1 51.3662 -1.6309 9.0033 0.0000 0.0000 0.0000
# 2 -1.6309 51.3662 9.0033 0.0000 0.0000 0.0000
# 3 9.0033 9.0033 137.0430 0.0000 0.0000 0.0000
# 4 0.0000 0.0000 0.0000 27.4688 0.0000 0.0000
# 5 0.0000 0.0000 0.0000 0.0000 27.4688 0.0000
# 6 0.0000 0.0000 0.0000 0.0000 0.0000 26.4986
#
#
#
# Elastic Compliance Matrix: (Units=1/GPa)
#
#
# Indices 1 2 3 4 5 6 
#
# 1 0.019733 0.000864 -0.001353 0.000000 0.000000 0.000000
# 2 0.000864 0.019733 -0.001353 0.000000 0.000000 0.000000
# 3 -0.001353 -0.001353 0.007475 0.000000 0.000000 0.000000
# 4 0.000000 0.000000 0.000000 0.036405 0.000000 0.000000
# 5 0.000000 0.000000 0.000000 0.000000 0.036405 0.000000
# 6 0.000000 0.000000 0.000000 0.000000 0.000000 0.037738
#
#
# Mechanical properties :
#
#
# Convention : Reuss Voigt Hill
#
# Bulk Modulus (GPa) = 23.11874 30.28078 26.69976
# Shear Modulus (GPa) = 28.47524 31.18056 29.82790
#
# Velocity S-wave (km/s) = 3.59056 3.75726 3.67486
# Velocity P-wave (km/s) = 5.25895 5.70371 5.48584
#
# Compressibility (1/GPa) = 0.04325496
#
# Stress axis : x y z
#
# Youngs Moduli (GPa) = 50.67746 50.67746 133.78337
#
# Poissons Ratio (x) = -0.04377 0.18102
# Poissons Ratio (y) = -0.04377 0.18102
# Poissons Ratio (z) = 0.06857 0.06857
#
# Static dielectric constant tensor:
#      x y z
#    x 3.703180 0.000000 0.000000 
#    y 0.000000 3.703180 0.000000 
#    z 0.000000 0.000000 4.381370 
# 
# 
# High freq. dielectric constant tensor:
#      x y z
#    x 1.853100 0.000000 0.000000 
#    y 0.000000 1.853100 0.000000 
#    z 0.000000 0.000000 1.882390 
# 
# From -- ./inp_files/2514.got.cif
#   From: 2010.03.12/outbox.cif.g09.slc.cpg/sg189_2_cif.got.tgz:2514.got - 2010.04.01 12:03:36.
