data_PCOD8327695
_publ_section_title
;
Structure prediction by ZEFSAII (Michael W. Deem and Ramdas Pophale) SiO2 
 PCOD8327695
Probable space group: P -6 2 M
;
_chemical_formula_sum "Si O2"
_cell_formula_units_Z 72
_cell_length_a 23.985602
_cell_length_b 23.985602
_cell_length_c 9.059949
_cell_angle_alpha 90.000000
_cell_angle_beta 90.000000
_cell_angle_gamma 120.000000
_cell_volume 4513.959214
_symmetry_space_group_name_H-M "P -6 2 M"
_symmetry_group_IT_number 189
_symmetry_cell_setting 'hexagonal'
loop_
_space_group_symop_operation_xyz
x,y,z
-x+y,-x,-z
-y,x-y,z
x,y,-z
-x+y,-x,z
-y,x-y,-z
x-y,-y,-z
-x,-x+y,-z
y,x,-z
y,x,z
x-y,-y,z
-x,-x+y,z
loop_
_atom_site_type_symbol
_atom_site_label
_atom_site_fract_x
_atom_site_fract_y
_atom_site_fract_z
Si Si1 0.264300 0.193502 0.175220
Si Si2 0.410997 0.268656 0.826739
Si Si3 0.597402 0.073481 0.326003
Si Si4 0.409552 0.925559 0.828468
Si Si5 0.858326 0.265924 0.174077
Si Si6 0.736120 0.807282 0.823769
O O1 0.218519 0.218519 0.244222
O O2 0.337516 0.240906 0.224808
O O3 0.240479 0.120705 0.230282
O O4 0.261515 0.194071 0.000000
O O5 0.455270 0.332988 0.737723
O O6 0.432694 0.216311 0.786540
O O7 0.418824 0.284268 0.000000
O O8 0.599133 0.080777 0.500000
O O9 0.548327 0.094329 0.262047
O O10 0.574690 0.000000 0.278652
O O11 0.337240 0.881861 0.764290
O O12 0.430879 0.000000 0.803424
O O13 0.414089 0.911468 0.000000
O O14 0.903716 0.239479 0.238037
O O15 0.867660 0.270682 0.000000
O O16 0.784240 0.784240 0.760286
O O17 0.734962 0.805076 0.000000
#
# Coordination Sequence:
#
# PCOD8327695 Si02
#       6
#    12  12  12  12  12  12
#     4   8  13  20  32  52  76 102 134 170 203 236
#     4   9  16  27  44  63  82 106 137 172 209 247
#     4  10  20  31  42  60  87 114 139 169 204 244
#     4   9  16  27  45  66  86 109 136 167 206 251
#     4   8  14  24  40  63  84 100 127 169 208 242
#     4   8  12  18  30  50  77 105 129 160 204 242
#
# _framework density 15.950519999999999
#
# number of rings (size 3 to 8) (size 9 to 14) (size 15 to 20)
#    0.000    3.333    0.000    3.500    0.000    3.667 
#    0.000    0.833    0.000    1.000    0.000    4.667 
#    0.000    6.000    0.000    0.000    0.000    0.000 
#
# Total GULP energy -892301.605057 kJ/mol
# GULP energy per Si atom -12393.077848 kJ/mol
# Density = 1.591422 g / cm^3
# Si number density = 15.950520 Si / 1000 Ang^3
#
#
#
# Elastic Constant Matrix: (Units=GPa)
#
#
# Indices 1 2 3 4 5 6 
#
# 1 135.4432 78.6300 28.3342 0.0000 0.0000 0.0000
# 2 78.6300 135.4432 28.3342 0.0000 0.0000 0.0000
# 3 28.3342 28.3342 26.7213 0.0000 0.0000 0.0000
# 4 0.0000 0.0000 0.0000 6.3830 0.0000 0.0000
# 5 0.0000 0.0000 0.0000 0.0000 6.3830 0.0000
# 6 0.0000 0.0000 0.0000 0.0000 0.0000 28.4066
#
#
#
# Elastic Compliance Matrix: (Units=1/GPa)
#
#
# Indices 1 2 3 4 5 6 
#
# 1 0.012048 -0.005554 -0.006886 0.000000 0.000000 0.000000
# 2 -0.005554 0.012048 -0.006886 0.000000 0.000000 0.000000
# 3 -0.006886 -0.006886 0.052027 0.000000 0.000000 0.000000
# 4 0.000000 0.000000 0.000000 0.156666 0.000000 0.000000
# 5 0.000000 0.000000 0.000000 0.000000 0.156666 0.000000
# 6 0.000000 0.000000 0.000000 0.000000 0.000000 0.035203
#
#
# Mechanical properties :
#
#
# Convention : Reuss Voigt Hill
#
# Bulk Modulus (GPa) = 26.68757 63.13383 44.91070
# Shear Modulus (GPa) = 10.50861 19.05515 14.78188
#
# Velocity S-wave (km/s) = 2.56954 3.46011 3.04753
# Velocity P-wave (km/s) = 5.05680 7.45856 6.37186
#
# Compressibility (1/GPa) = 0.03747063
#
# Stress axis : x y z
#
# Youngs Moduli (GPa) = 83.00239 83.00239 19.22083
#
# Poissons Ratio (x) = 0.46097 0.13236
# Poissons Ratio (y) = 0.46097 0.13236
# Poissons Ratio (z) = 0.57157 0.57157
#
# Static dielectric constant tensor:
#      x y z
#    x 3.212880 0.000000 0.000000 
#    y 0.000000 3.212880 0.000000 
#    z 0.000000 0.000000 2.536810 
# 
# 
# High freq. dielectric constant tensor:
#      x y z
#    x 1.608420 0.000000 0.000000 
#    y 0.000000 1.608420 0.000000 
#    z 0.000000 0.000000 1.562790 
# 
# From -- ./inp_files/1202.got.cif
#   From: 2010.03.12/outbox.cif.g09.slc.cpg/sg189_1_cif.got.tgz:1202.got - 2010.04.01 12:03:36.
