data_PCOD8327636
_publ_section_title
;
Structure prediction by ZEFSAII (Michael W. Deem and Ramdas Pophale) SiO2 
 PCOD8327636
Probable space group: P -6 2 M
;
_chemical_formula_sum "Si O2"
_cell_formula_units_Z 72
_cell_length_a 23.283134
_cell_length_b 23.283134
_cell_length_c 8.871243
_cell_angle_alpha 90.000000
_cell_angle_beta 90.000000
_cell_angle_gamma 120.000000
_cell_volume 4164.836746
_symmetry_space_group_name_H-M "P -6 2 M"
_symmetry_group_IT_number 189
_symmetry_cell_setting 'hexagonal'
loop_
_space_group_symop_operation_xyz
x,y,z
-x+y,-x,-z
-y,x-y,z
x,y,-z
-x+y,-x,z
-y,x-y,-z
x-y,-y,-z
-x,-x+y,-z
y,x,-z
y,x,z
x-y,-y,z
-x,-x+y,z
loop_
_atom_site_type_symbol
_atom_site_label
_atom_site_fract_x
_atom_site_fract_y
_atom_site_fract_z
Si Si1 0.725231 0.204917 0.673442
Si Si2 0.533929 0.406821 0.177261
Si Si3 0.332003 0.075441 0.677262
Si Si4 0.000000 0.586543 0.322803
Si Si5 0.804680 0.144325 0.174039
Si Si6 0.706081 0.000000 0.171205
Si Si7 0.516114 0.661745 0.671835
O O1 0.708084 0.183618 0.500000
O O2 0.658995 0.191542 0.760225
O O3 0.753686 0.160795 0.742969
O O4 0.777686 0.282473 0.688391
O O5 0.475125 0.411525 0.253870
O O6 0.602886 0.471610 0.216092
O O7 0.523829 0.401491 0.000000
O O8 0.327244 0.083578 0.500000
O O9 0.307622 0.121461 0.757875
O O10 0.407670 0.099039 0.721834
O O11 0.285390 0.000000 0.730770
O O12 0.000000 0.577227 0.500000
O O13 0.000000 0.653648 0.286443
O O14 0.777762 0.065795 0.196783
O O15 0.807285 0.163336 0.000000
O O16 0.681512 0.000000 0.000000
O O17 0.505911 0.635597 0.500000
#
# Coordination Sequence:
#
# PCOD8327636 Si02
#       7
#    12  12  12   6  12   6  12
#     4  10  20  37  57  75  98 135 177 216 265 325
#     4  12  24  37  54  79 109 135 172 227 279 324
#     4   9  19  36  56  78 106 141 179 218 256 306
#     4  12  24  36  56  78 104 142 180 217 266 329
#     4  10  19  32  53  79 110 140 169 212 262 309
#     4  10  20  34  52  80 114 142 170 213 262 311
#     4   9  20  37  56  76  99 135 181 222 264 320
#
# _framework density 17.287592
#
# number of rings (size 3 to 8) (size 9 to 14) (size 15 to 20)
#    0.000    1.833    1.667    4.250    1.167    4.333 
#    1.000    0.000    0.000    0.000    0.000    0.000 
#    0.833    0.000    0.500    0.000    0.667    0.000 
#
# Total GULP energy -892929.717879 kJ/mol
# GULP energy per Si atom -12401.801637 kJ/mol
# Density = 1.724824 g / cm^3
# Si number density = 17.287592 Si / 1000 Ang^3
#
#
#
# Elastic Constant Matrix: (Units=GPa)
#
#
# Indices 1 2 3 4 5 6 
#
# 1 97.2750 61.1891 51.8325 0.0000 0.0000 0.0000
# 2 61.1891 97.2750 51.8325 0.0000 0.0000 0.0000
# 3 51.8325 51.8325 121.1772 0.0000 0.0000 0.0000
# 4 0.0000 0.0000 0.0000 25.6831 0.0000 0.0000
# 5 0.0000 0.0000 0.0000 0.0000 25.6831 0.0000
# 6 0.0000 0.0000 0.0000 0.0000 0.0000 18.0429
#
#
#
# Elastic Compliance Matrix: (Units=1/GPa)
#
#
# Indices 1 2 3 4 5 6 
#
# 1 0.018237 -0.009475 -0.003748 0.000000 0.000000 0.000000
# 2 -0.009475 0.018237 -0.003748 0.000000 0.000000 0.000000
# 3 -0.003748 -0.003748 0.011459 0.000000 0.000000 0.000000
# 4 0.000000 0.000000 0.000000 0.038936 0.000000 0.000000
# 5 0.000000 0.000000 0.000000 0.000000 0.038936 0.000000
# 6 0.000000 0.000000 0.000000 0.000000 0.000000 0.055423
#
#
# Mechanical properties :
#
#
# Convention : Reuss Voigt Hill
#
# Bulk Modulus (GPa) = 71.47208 71.71508 71.59358
# Shear Modulus (GPa) = 22.74444 23.94003 23.34223
#
# Velocity S-wave (km/s) = 3.63113 3.72534 3.67853
# Velocity P-wave (km/s) = 7.68198 7.75099 7.71656
#
# Compressibility (1/GPa) = 0.01399148
#
# Stress axis : x y z
#
# Youngs Moduli (GPa) = 54.83330 54.83330 87.26908
#
# Poissons Ratio (x) = 0.51952 0.32709
# Poissons Ratio (y) = 0.51952 0.32709
# Poissons Ratio (z) = 0.20552 0.20552
#
# Static dielectric constant tensor:
#      x y z
#    x 3.222550 0.000000 0.000000 
#    y 0.000000 3.222550 0.000000 
#    z 0.000000 0.000000 3.313110 
# 
# 
# High freq. dielectric constant tensor:
#      x y z
#    x 1.654370 0.000000 0.000000 
#    y 0.000000 1.654370 0.000000 
#    z 0.000000 0.000000 1.678870 
# 
# From -- ./inp_files/1307.got.cif
#   From: 2010.03.12/outbox.cif.g09.slc.cpg/sg189_1_cif.got.tgz:1307.got - 2010.04.01 12:03:36.
