data_PCOD8327819
_publ_section_title
;
Structure prediction by ZEFSAII (Michael W. Deem and Ramdas Pophale) SiO2 
 PCOD8327819
Probable space group: P -6 2 M
;
_chemical_formula_sum "Si O2"
_cell_formula_units_Z 24
_cell_length_a 13.376733
_cell_length_b 13.376733
_cell_length_c 8.711165
_cell_angle_alpha 90.000000
_cell_angle_beta 90.000000
_cell_angle_gamma 120.000000
_cell_volume 1349.916758
_symmetry_space_group_name_H-M "P -6 2 M"
_symmetry_group_IT_number 189
_symmetry_cell_setting 'hexagonal'
loop_
_space_group_symop_operation_xyz
x,y,z
-x+y,-x,-z
-y,x-y,z
x,y,-z
-x+y,-x,z
-y,x-y,-z
x-y,-y,-z
-x,-x+y,-z
y,x,-z
y,x,z
x-y,-y,z
-x,-x+y,z
loop_
_atom_site_type_symbol
_atom_site_label
_atom_site_fract_x
_atom_site_fract_y
_atom_site_fract_z
Si Si1 0.677324 0.550140 0.827011
Si Si2 0.000000 0.000000 0.818228
Si Si3 0.333334 0.666668 0.319373
Si Si4 0.781035 0.781035 0.681641
O O1 0.562199 0.562199 0.830748
O O2 0.645444 0.434148 0.738922
O O3 0.777595 0.663106 0.738425
O O4 0.719168 0.546463 0.000000
O O5 0.000000 0.111910 0.758029
O O6 0.000000 0.000000 0.000000
O O7 0.333334 0.666668 0.500000
O O8 0.791935 0.791935 0.500000
#
# Coordination Sequence:
#
# PCOD8327819 Si02
#       4
#    12   2   4   6
#     4   9  20  39  59  82 115 150 189 233 279 340
#     4  12  22  38  61  84 115 158 190 222 286 344
#     4  12  22  35  61  87 115 152 187 234 289 332
#     4  10  20  38  59  86 117 144 188 242 282 328
#
# _framework density 17.778873999999998
#
# number of rings (size 3 to 8) (size 9 to 14) (size 15 to 20)
#    1.500    0.500    0.000    5.250    0.000    0.000 
#    4.500    0.000    0.000    0.000    0.000    0.000 
#    0.000    0.000    0.000    0.000    0.000    0.000 
#
# Total GULP energy -297406.458616 kJ/mol
# GULP energy per Si atom -12391.935776 kJ/mol
# Density = 1.773841 g / cm^3
# Si number density = 17.778874 Si / 1000 Ang^3
#
#
#
# Elastic Constant Matrix: (Units=GPa)
#
#
# Indices 1 2 3 4 5 6 
#
# 1 112.2398 30.2361 54.9374 0.0000 0.0001 0.0001
# 2 30.2361 112.2376 54.9371 -0.0002 0.0000 -0.0006
# 3 54.9374 54.9371 199.3693 0.0000 0.0000 -0.0002
# 4 0.0000 -0.0002 0.0000 33.8630 0.0000 0.0001
# 5 0.0001 0.0000 0.0000 0.0000 33.8630 -0.0001
# 6 0.0001 -0.0006 -0.0002 0.0001 -0.0001 41.0037
#
#
#
# Elastic Compliance Matrix: (Units=1/GPa)
#
#
# Indices 1 2 3 4 5 6 
#
# 1 0.010554 -0.001641 -0.002456 0.000000 0.000000 0.000000
# 2 -0.001641 0.010554 -0.002456 0.000000 0.000000 0.000000
# 3 -0.002456 -0.002456 0.006369 0.000000 0.000000 0.000000
# 4 0.000000 0.000000 0.000000 0.029531 0.000000 0.000000
# 5 0.000000 0.000000 0.000000 0.000000 0.029531 0.000000
# 6 0.000000 0.000000 0.000000 0.000000 0.000000 0.024388
#
#
# Mechanical properties :
#
#
# Convention : Reuss Voigt Hill
#
# Bulk Modulus (GPa) = 69.58438 78.22976 73.90707
# Shear Modulus (GPa) = 38.81309 40.66170 39.73739
#
# Velocity S-wave (km/s) = 4.67744 4.78753 4.73280
# Velocity P-wave (km/s) = 8.27013 8.64047 8.45732
#
# Compressibility (1/GPa) = 0.01437104
#
# Stress axis : x y z
#
# Youngs Moduli (GPa) = 94.75399 94.75198 157.00258
#
# Poissons Ratio (x) = 0.15549 0.38559
# Poissons Ratio (y) = 0.15549 0.38560
# Poissons Ratio (z) = 0.23271 0.23271
#
# Static dielectric constant tensor:
#      x y z
#    x 3.132030 0.000010 0.000000 
#    y 0.000010 3.132030 0.000000 
#    z 0.000000 0.000000 3.465670 
# 
# 
# High freq. dielectric constant tensor:
#      x y z
#    x 1.672460 0.000000 0.000000 
#    y 0.000000 1.672460 0.000000 
#    z 0.000000 0.000000 1.712790 
# 
# From -- ./inp_files/251.got.cif
#   From: 2010.03.12/outbox.cif.g09.slc.cpg/sg189_1_cif.got.tgz:251.got - 2010.04.01 12:03:36.
