data_PCOD8327961
_publ_section_title
;
Structure prediction by ZEFSAII (Michael W. Deem and Ramdas Pophale) SiO2 
 PCOD8327961
Probable space group: P -6 2 C
;
_chemical_formula_sum "Si O2"
_cell_formula_units_Z 68
_cell_length_a 10.767910
_cell_length_b 10.767910
_cell_length_c 34.057462
_cell_angle_alpha 90.000000
_cell_angle_beta 90.000000
_cell_angle_gamma 120.000000
_cell_volume 3419.839675
_symmetry_space_group_name_H-M "P -6 2 C"
_symmetry_group_IT_number 190
_symmetry_cell_setting 'hexagonal'
loop_
_space_group_symop_operation_xyz
x,y,z
-x+y,-x,1/2-z
-y,x-y,z
x,y,1/2-z
-x+y,-x,z
-y,x-y,1/2-z
x-y,-y,-z
-x,-x+y,-z
y,x,-z
y,x,1/2+z
x-y,-y,1/2+z
-x,-x+y,1/2+z
loop_
_atom_site_type_symbol
_atom_site_label
_atom_site_fract_x
_atom_site_fract_y
_atom_site_fract_z
Si Si1 0.050326 0.277989 0.166634
Si Si2 0.123203 0.942583 0.250000
Si Si3 0.052153 0.768332 0.632409
Si Si4 0.666667 0.333334 0.574531
Si Si5 0.247663 0.865660 0.937573
Si Si6 0.333334 0.666668 0.519015
Si Si7 0.840032 0.840032 0.500000
Si Si8 0.494138 0.541127 0.381418
O O1 0.091510 0.280738 0.212035
O O2 0.128218 0.215017 0.139140
O O3 0.101116 0.438869 0.152440
O O4 0.879820 0.177728 0.160916
O O5 0.949639 0.840979 0.250000
O O6 0.100065 0.794853 0.586996
O O7 0.017924 0.607875 0.642247
O O8 0.666668 0.333334 0.527756
O O9 0.825281 0.439921 0.590513
O O10 0.251342 0.748362 0.965942
O O11 0.381564 0.926649 0.908288
O O12 0.247639 0.993080 0.962518
O O13 0.858177 0.000000 0.500000
#
# Coordination Sequence:
#
# PCOD8327961 Si02
#       8
#    12   6  12   4  12   4   6  12
#     4  11  22  39  70 101 131 167 216 267 324 381
#     4  10  18  38  66 108 138 160 210 268 320 394
#     4  11  22  40  68  94 124 175 215 271 314 402
#     4  12  24  39  63  85 124 177 226 268 333 384
#     4  11  24  43  60  91 126 169 224 267 339 385
#     4  12  24  42  63  87 127 179 211 273 336 399
#     4  10  26  42  60  88 124 162 212 296 330 374
#     4  11  24  41  63  91 130 172 223 268 318 405
#
# _framework density 19.883972
#
# number of rings (size 3 to 8) (size 9 to 14) (size 15 to 20)
#    0.353    0.706    5.294    1.412    4.941    1.412 
#    2.647    1.765    0.000    0.000    0.000    0.000 
#    0.000    0.000    0.000    0.000    0.000    0.000 
#
# Total GULP energy -843155.898634 kJ/mol
# GULP energy per Si atom -12399.351450 kJ/mol
# Density = 1.983872 g / cm^3
# Si number density = 19.883972 Si / 1000 Ang^3
#
#
#
# Elastic Constant Matrix: (Units=GPa)
#
#
# Indices 1 2 3 4 5 6 
#
# 1 91.8525 21.8821 48.9717 0.0000 0.0001 0.0000
# 2 21.8821 91.8525 48.9717 0.0000 0.0000 0.0001
# 3 48.9717 48.9717 130.6097 -0.0001 0.0001 0.0000
# 4 0.0000 0.0000 -0.0001 27.6534 0.0000 0.0001
# 5 0.0001 0.0000 0.0001 0.0000 27.6534 0.0000
# 6 0.0000 0.0001 0.0000 0.0001 0.0000 34.9853
#
#
#
# Elastic Compliance Matrix: (Units=1/GPa)
#
#
# Indices 1 2 3 4 5 6 
#
# 1 0.013638 -0.000653 -0.004869 0.000000 0.000000 0.000000
# 2 -0.000653 0.013638 -0.004869 0.000000 0.000000 0.000000
# 3 -0.004869 -0.004869 0.011307 0.000000 0.000000 0.000000
# 4 0.000000 0.000000 0.000000 0.036162 0.000000 0.000000
# 5 0.000000 0.000000 0.000000 0.000000 0.036162 0.000000
# 6 0.000000 0.000000 0.000000 0.000000 0.000000 0.028583
#
#
# Mechanical properties :
#
#
# Convention : Reuss Voigt Hill
#
# Bulk Modulus (GPa) = 56.17101 61.55175 58.86138
# Shear Modulus (GPa) = 30.08288 31.02436 30.55362
#
# Velocity S-wave (km/s) = 3.89385 3.95431 3.92420
# Velocity P-wave (km/s) = 6.96612 7.20218 7.08513
#
# Compressibility (1/GPa) = 0.01780278
#
# Stress axis : x y z
#
# Youngs Moduli (GPa) = 73.32205 73.32213 88.43730
#
# Poissons Ratio (x) = 0.04790 0.43058
# Poissons Ratio (y) = 0.04790 0.43058
# Poissons Ratio (z) = 0.35699 0.35699
#
# Static dielectric constant tensor:
#      x y z
#    x 3.617950 0.000000 0.000000 
#    y 0.000000 3.617960 0.000000 
#    z 0.000000 0.000000 3.438050 
# 
# 
# High freq. dielectric constant tensor:
#      x y z
#    x 1.772640 0.000000 0.000000 
#    y 0.000000 1.772640 0.000000 
#    z 0.000000 0.000000 1.760200 
# 
# From -- ./inp_files/5163.got.cif
#   From: 2010.06.25/outbox.cif.g09.slc.cpg/sg190_3_cif.got.tgz:5163.got - 2010.06.28 13:08:06.
