data_PCOD8327574
_publ_section_title
;
Structure prediction by ZEFSAII (Michael W. Deem and Ramdas Pophale) SiO2 
 PCOD8327574
Probable space group: P -6 2 M
;
_chemical_formula_sum "Si O2"
_cell_formula_units_Z 72
_cell_length_a 23.427194
_cell_length_b 23.427194
_cell_length_c 9.135841
_cell_angle_alpha 90.000000
_cell_angle_beta 90.000000
_cell_angle_gamma 120.000000
_cell_volume 4342.298875
_symmetry_space_group_name_H-M "P -6 2 M"
_symmetry_group_IT_number 189
_symmetry_cell_setting 'hexagonal'
loop_
_space_group_symop_operation_xyz
x,y,z
-x+y,-x,-z
-y,x-y,z
x,y,-z
-x+y,-x,z
-y,x-y,-z
x-y,-y,-z
-x,-x+y,-z
y,x,-z
y,x,z
x-y,-y,z
-x,-x+y,z
loop_
_atom_site_type_symbol
_atom_site_label
_atom_site_fract_x
_atom_site_fract_y
_atom_site_fract_z
Si Si1 0.925784 0.074514 0.174106
Si Si2 0.155261 0.298975 0.827869
Si Si3 0.483554 0.405040 0.165371
Si Si4 0.628990 0.922244 0.331283
Si Si5 0.296240 0.924169 0.830607
Si Si6 0.921460 0.406247 0.334746
O O1 0.887686 0.111719 0.227665
O O2 0.000000 0.112539 0.237457
O O3 0.888273 0.000000 0.235205
O O4 0.928119 0.074253 0.000000
O O5 0.222547 0.332874 0.741080
O O6 0.116134 0.336395 0.787529
O O7 0.170096 0.301764 0.000000
O O8 0.445737 0.445737 0.166199
O O9 0.440836 0.336515 0.250581
O O10 0.553807 0.447051 0.245743
O O11 0.495722 0.389952 0.000000
O O12 0.614494 0.901611 0.500000
O O13 0.673741 0.000000 0.312297
O O14 0.335140 0.895792 0.738677
O O15 0.321703 0.000000 0.791909
O O16 0.308018 0.916084 0.000000
O O17 0.894761 0.396066 0.500000
O O18 0.000000 0.446721 0.330958
#
# Coordination Sequence:
#
# PCOD8327574 Si02
#       6
#    12  12  12  12  12  12
#     4   9  16  26  42  64  88 115 154 209 269 321
#     4  10  19  30  45  65  90 121 158 200 247 299
#     4   9  16  27  45  67  90 116 145 176 212 257
#     4  10  20  32  45  63  90 122 154 190 234 285
#     4   9  17  29  44  63  90 123 157 193 234 281
#     4   9  16  26  42  65  92 119 146 176 212 257
#
# _framework density 16.58108
#
# number of rings (size 3 to 8) (size 9 to 14) (size 15 to 20)
#    0.000    2.667    0.000    2.667    0.000    9.000 
#    0.000    0.000    0.000    1.500    0.000    0.000 
#    1.667    1.333    3.000    0.000    3.000    0.000 
#
# Total GULP energy -892809.468576 kJ/mol
# GULP energy per Si atom -12400.131508 kJ/mol
# Density = 1.654334 g / cm^3
# Si number density = 16.581080 Si / 1000 Ang^3
#
#
#
# Elastic Constant Matrix: (Units=GPa)
#
#
# Indices 1 2 3 4 5 6 
#
# 1 110.2768 56.9205 54.2774 0.0000 0.0000 0.0000
# 2 56.9205 110.2768 54.2774 0.0000 0.0000 0.0000
# 3 54.2774 54.2774 92.9031 0.0000 0.0000 0.0000
# 4 0.0000 0.0000 0.0000 17.1234 0.0000 0.0000
# 5 0.0000 0.0000 0.0000 0.0000 17.1234 0.0000
# 6 0.0000 0.0000 0.0000 0.0000 0.0000 26.6781
#
#
#
# Elastic Compliance Matrix: (Units=1/GPa)
#
#
# Indices 1 2 3 4 5 6 
#
# 1 0.014189 -0.004553 -0.005630 0.000000 0.000000 0.000000
# 2 -0.004553 0.014189 -0.005630 0.000000 0.000000 0.000000
# 3 -0.005630 -0.005630 0.017342 0.000000 0.000000 0.000000
# 4 0.000000 0.000000 0.000000 0.058400 0.000000 0.000000
# 5 0.000000 0.000000 0.000000 0.000000 0.058400 0.000000
# 6 0.000000 0.000000 0.000000 0.000000 0.000000 0.037484
#
#
# Mechanical properties :
#
#
# Convention : Reuss Voigt Hill
#
# Bulk Modulus (GPa) = 70.94558 71.60078 71.27318
# Shear Modulus (GPa) = 21.15713 22.05040 21.60377
#
# Velocity S-wave (km/s) = 3.57596 3.65067 3.61351
# Velocity P-wave (km/s) = 7.74144 7.81318 7.77740
#
# Compressibility (1/GPa) = 0.01409531
#
# Stress axis : x y z
#
# Youngs Moduli (GPa) = 70.47685 70.47685 57.66290
#
# Poissons Ratio (x) = 0.32087 0.32463
# Poissons Ratio (y) = 0.32087 0.32463
# Poissons Ratio (z) = 0.39677 0.39677
#
# Static dielectric constant tensor:
#      x y z
#    x 3.056310 0.000000 0.000000 
#    y 0.000000 3.056310 0.000000 
#    z 0.000000 0.000000 3.091580 
# 
# 
# High freq. dielectric constant tensor:
#      x y z
#    x 1.621450 0.000000 0.000000 
#    y 0.000000 1.621450 0.000000 
#    z 0.000000 0.000000 1.630620 
# 
# From -- ./inp_files/1269.got.cif
#   From: 2010.03.12/outbox.cif.g09.slc.cpg/sg189_1_cif.got.tgz:1269.got - 2010.04.01 12:03:36.
