data_PCOD8327906
_publ_section_title
;
Structure prediction by ZEFSAII (Michael W. Deem and Ramdas Pophale) SiO2 
 PCOD8327906
Probable space group: P -6 2 M
;
_chemical_formula_sum "Si O2"
_cell_formula_units_Z 48
_cell_length_a 18.159720
_cell_length_b 18.159720
_cell_length_c 8.903431
_cell_angle_alpha 90.000000
_cell_angle_beta 90.000000
_cell_angle_gamma 120.000000
_cell_volume 2542.765586
_symmetry_space_group_name_H-M "P -6 2 M"
_symmetry_group_IT_number 189
_symmetry_cell_setting 'hexagonal'
loop_
_space_group_symop_operation_xyz
x,y,z
-x+y,-x,-z
-y,x-y,z
x,y,-z
-x+y,-x,z
-y,x-y,-z
x-y,-y,-z
-x,-x+y,-z
y,x,-z
y,x,z
x-y,-y,z
-x,-x+y,z
loop_
_atom_site_type_symbol
_atom_site_label
_atom_site_fract_x
_atom_site_fract_y
_atom_site_fract_z
Si Si1 0.000000 0.093852 0.667402
Si Si2 0.000000 0.241959 0.175362
Si Si3 0.673060 0.098199 0.826054
Si Si4 0.160174 0.397969 0.323687
Si Si5 0.901869 0.406257 0.826594
O O1 0.000000 0.129694 0.500000
O O2 0.000000 0.154852 0.795275
O O3 0.083634 0.083634 0.685489
O O4 0.084087 0.317716 0.244799
O O5 0.000000 0.258176 0.000000
O O6 0.752089 0.155702 0.721353
O O7 0.597267 0.115715 0.781638
O O8 0.643842 0.000000 0.796090
O O9 0.697893 0.120947 0.000000
O O10 0.148501 0.386740 0.500000
O O11 0.158553 0.482574 0.272931
O O12 0.000000 0.434638 0.795953
O O13 0.879535 0.382072 0.000000
#
# Coordination Sequence:
#
# PCOD8327906 Si02
#       5
#     6   6  12  12  12
#     4   8  18  38  60  82 115 154 189 240 306 358
#     4  12  24  38  60  86 117 158 207 250 284 346
#     4   9  20  40  64  88 115 153 199 242 289 348
#     4  12  24  37  58  90 123 156 194 243 299 352
#     4   9  18  37  64  87 112 151 195 240 286 342
#
# _framework density 18.877085000000001
#
# number of rings (size 3 to 8) (size 9 to 14) (size 15 to 20)
#    0.250    1.750    1.250    4.875    0.000    3.000 
#    1.500    2.500    0.000    0.000    0.000    0.000 
#    0.000    0.000    0.000    0.000    0.000    0.000 
#
# Total GULP energy -595221.895165 kJ/mol
# GULP energy per Si atom -12400.456149 kJ/mol
# Density = 1.883412 g / cm^3
# Si number density = 18.877085 Si / 1000 Ang^3
#
#
#
# Elastic Constant Matrix: (Units=GPa)
#
#
# Indices 1 2 3 4 5 6 
#
# 1 105.6751 55.9470 61.8070 0.0000 0.0000 0.0000
# 2 55.9470 105.6751 61.8070 0.0000 0.0000 0.0000
# 3 61.8070 61.8070 135.2073 0.0000 0.0000 0.0000
# 4 0.0000 0.0000 0.0000 10.4834 0.0000 0.0000
# 5 0.0000 0.0000 0.0000 0.0000 10.4834 0.0000
# 6 0.0000 0.0000 0.0000 0.0000 0.0000 24.8641
#
#
#
# Elastic Compliance Matrix: (Units=1/GPa)
#
#
# Indices 1 2 3 4 5 6 
#
# 1 0.014811 -0.005298 -0.004349 0.000000 0.000000 0.000000
# 2 -0.005298 0.014811 -0.004349 0.000000 0.000000 0.000000
# 3 -0.004349 -0.004349 0.011372 0.000000 0.000000 0.000000
# 4 0.000000 0.000000 0.000000 0.095389 0.000000 0.000000
# 5 0.000000 0.000000 0.000000 0.000000 0.095389 0.000000
# 6 0.000000 0.000000 0.000000 0.000000 0.000000 0.040219
#
#
# Mechanical properties :
#
#
# Convention : Reuss Voigt Hill
#
# Bulk Modulus (GPa) = 76.90265 78.40885 77.65575
# Shear Modulus (GPa) = 16.43025 20.29927 18.36476
#
# Velocity S-wave (km/s) = 2.95342 3.28279 3.12245
# Velocity P-wave (km/s) = 7.24274 7.48303 7.36387
#
# Compressibility (1/GPa) = 0.01300345
#
# Stress axis : x y z
#
# Youngs Moduli (GPa) = 67.51563 67.51563 87.93519
#
# Poissons Ratio (x) = 0.35770 0.38242
# Poissons Ratio (y) = 0.35770 0.38242
# Poissons Ratio (z) = 0.29362 0.29362
#
# Static dielectric constant tensor:
#      x y z
#    x 3.473570 0.000000 0.000000 
#    y 0.000000 3.473570 0.000000 
#    z 0.000000 0.000000 3.370580 
# 
# 
# High freq. dielectric constant tensor:
#      x y z
#    x 1.732620 0.000000 0.000000 
#    y 0.000000 1.732620 0.000000 
#    z 0.000000 0.000000 1.728320 
# 
# From -- ./inp_files/677.got.cif
#   From: 2010.03.12/outbox.cif.g09.slc.cpg/sg189_1_cif.got.tgz:677.got - 2010.04.01 12:03:36.
