data_PCOD8327513
_publ_section_title
;
Structure prediction by ZEFSAII (Michael W. Deem and Ramdas Pophale) SiO2 
 PCOD8327513
Probable space group: P -6 2 M
;
_chemical_formula_sum "Si O2"
_cell_formula_units_Z 72
_cell_length_a 22.717790
_cell_length_b 22.717790
_cell_length_c 9.740776
_cell_angle_alpha 90.000000
_cell_angle_beta 90.000000
_cell_angle_gamma 120.000000
_cell_volume 4353.678442
_symmetry_space_group_name_H-M "P -6 2 M"
_symmetry_group_IT_number 189
_symmetry_cell_setting 'hexagonal'
loop_
_space_group_symop_operation_xyz
x,y,z
-x+y,-x,-z
-y,x-y,z
x,y,-z
-x+y,-x,z
-y,x-y,-z
x-y,-y,-z
-x,-x+y,-z
y,x,-z
y,x,z
x-y,-y,z
-x,-x+y,z
loop_
_atom_site_type_symbol
_atom_site_label
_atom_site_fract_x
_atom_site_fract_y
_atom_site_fract_z
Si Si1 0.450537 0.371963 0.656813
Si Si2 0.712689 0.712689 0.151787
Si Si3 0.176705 0.000000 0.339682
Si Si4 0.426230 0.136487 0.155772
Si Si5 0.776216 0.924352 0.337922
Si Si6 0.163529 0.785716 0.339166
Si Si7 0.078254 0.520654 0.840805
O O1 0.475642 0.384546 0.500000
O O2 0.398041 0.398041 0.685920
O O3 0.410565 0.293135 0.693536
O O4 0.516606 0.410939 0.752262
O O5 0.761227 0.761227 0.267088
O O6 0.704021 0.639812 0.172239
O O7 0.741835 0.741835 0.000000
O O8 0.191106 0.000000 0.500000
O O9 0.175517 0.068426 0.298775
O O10 0.422944 0.189303 0.259237
O O11 0.489477 0.126339 0.194891
O O12 0.433551 0.163678 0.000000
O O13 0.771799 0.930322 0.500000
O O14 0.699809 0.875989 0.281975
O O15 0.810134 0.000000 0.272606
O O16 0.179710 0.800493 0.500000
O O17 0.000000 0.467008 0.802763
O O18 0.084257 0.540491 0.000000
#
# Coordination Sequence:
#
# PCOD8327513 Si02
#       7
#    12   6   6  12  12  12  12
#     4   9  18  32  49  71  98 129 161 195 237 284
#     4  10  18  30  48  70 100 128 151 192 246 295
#     4  10  18  30  48  70  94 126 169 208 248 297
#     4  10  19  31  49  73 100 128 157 192 241 293
#     4   9  17  29  45  67  95 127 163 206 251 291
#     4  10  19  31  49  71  98 129 162 201 243 287
#     4   9  17  31  50  71  96 125 153 187 233 283
#
# _framework density 16.537741
#
# number of rings (size 3 to 8) (size 9 to 14) (size 15 to 20)
#    0.000    2.500    2.500    0.500    0.000    3.333 
#    0.500    0.000    0.000    3.667    0.000    0.000 
#    0.000    0.000    0.000    0.000    0.000    0.000 
#
# Total GULP energy -892667.521714 kJ/mol
# GULP energy per Si atom -12398.160024 kJ/mol
# Density = 1.650010 g / cm^3
# Si number density = 16.537741 Si / 1000 Ang^3
#
#
#
# Elastic Constant Matrix: (Units=GPa)
#
#
# Indices 1 2 3 4 5 6 
#
# 1 121.9334 36.1920 47.4646 0.0000 0.0000 0.0000
# 2 36.1920 121.9334 47.4646 0.0000 0.0000 0.0000
# 3 47.4646 47.4646 54.0798 0.0000 0.0000 0.0000
# 4 0.0000 0.0000 0.0000 22.8557 0.0000 0.0000
# 5 0.0000 0.0000 0.0000 0.0000 22.8557 0.0000
# 6 0.0000 0.0000 0.0000 0.0000 0.0000 42.8707
#
#
#
# Elastic Compliance Matrix: (Units=1/GPa)
#
#
# Indices 1 2 3 4 5 6 
#
# 1 0.012515 0.000852 -0.011732 0.000000 0.000000 0.000000
# 2 0.000852 0.012515 -0.011732 0.000000 0.000000 0.000000
# 3 -0.011732 -0.011732 0.039086 0.000000 0.000000 0.000000
# 4 0.000000 0.000000 0.000000 0.043753 0.000000 0.000000
# 5 0.000000 0.000000 0.000000 0.000000 0.043753 0.000000
# 6 0.000000 0.000000 0.000000 0.000000 0.000000 0.023326
#
#
# Mechanical properties :
#
#
# Convention : Reuss Voigt Hill
#
# Bulk Modulus (GPa) = 52.93466 62.24324 57.58895
# Shear Modulus (GPa) = 22.07801 28.83812 25.45806
#
# Velocity S-wave (km/s) = 3.65774 4.18038 3.92777
# Velocity P-wave (km/s) = 7.06517 7.81151 7.44769
#
# Compressibility (1/GPa) = 0.01889122
#
# Stress axis : x y z
#
# Youngs Moduli (GPa) = 79.90245 79.90245 25.58481
#
# Poissons Ratio (x) = -0.06810 0.30017
# Poissons Ratio (y) = -0.06810 0.30017
# Poissons Ratio (z) = 0.93745 0.93745
#
# Static dielectric constant tensor:
#      x y z
#    x 3.144300 0.000000 0.000000 
#    y 0.000000 3.144300 0.000000 
#    z 0.000000 0.000000 3.025130 
# 
# 
# High freq. dielectric constant tensor:
#      x y z
#    x 1.629910 0.000000 0.000000 
#    y 0.000000 1.629910 0.000000 
#    z 0.000000 0.000000 1.619500 
# 
# From -- ./inp_files/1372.got.cif
#   From: 2010.03.12/outbox.cif.g09.slc.cpg/sg189_1_cif.got.tgz:1372.got - 2010.04.01 12:03:36.
