data_PCOD8327191
_publ_section_title
;
Structure prediction by ZEFSAII (Michael W. Deem and Ramdas Pophale) SiO2 
 PCOD8327191
Probable space group: P -6 M 2
;
_chemical_formula_sum "Si O2"
_cell_formula_units_Z 60
_cell_length_a 20.655188
_cell_length_b 20.655188
_cell_length_c 9.061978
_cell_angle_alpha 90.000000
_cell_angle_beta 90.000000
_cell_angle_gamma 120.000000
_cell_volume 3348.204221
_symmetry_space_group_name_H-M "P -6 M 2"
_symmetry_group_IT_number 187
_symmetry_cell_setting 'hexagonal'
loop_
_space_group_symop_operation_xyz
x,y,z
-x+y,-x,-z
-y,x-y,z
x,y,-z
-x+y,-x,z
-y,x-y,-z
-y,-x,-z
-x+y,y,-z
x,x-y,-z
-x+y,y,z
x,x-y,z
-y,-x,z
loop_
_atom_site_type_symbol
_atom_site_label
_atom_site_fract_x
_atom_site_fract_y
_atom_site_fract_z
Si Si1 0.130961 0.869040 0.824620
Si Si2 0.332825 0.810501 0.666471
Si Si3 0.081220 0.377656 0.825621
Si Si4 0.591847 0.036526 0.327235
Si Si5 0.906179 0.953090 0.173701
Si Si6 0.666446 0.479812 0.833032
O O1 0.217737 0.911080 0.772359
O O2 0.088629 0.911372 0.754543
O O3 0.129159 0.870842 0.000000
O O4 0.338499 0.842213 0.500000
O O5 0.414461 0.828922 0.720481
O O6 0.278528 0.721473 0.667366
O O7 0.298862 0.845677 0.776972
O O8 0.010716 0.376864 0.753043
O O9 0.073304 0.377116 0.000000
O O10 0.596986 0.027790 0.500000
O O11 0.506127 0.012253 0.281557
O O12 0.647009 0.121245 0.281925
O O13 0.957646 0.915291 0.216906
O O14 0.893754 0.946877 0.000000
O O15 0.747128 0.494256 0.788178
O O16 0.608102 0.391899 0.819880
O O17 0.665946 0.507359 0.000000
#
# Coordination Sequence:
#
# PCOD8327191 Si02
#       6
#     6  12  12  12   6  12
#     4   9  18  32  49  75 109 135 163 211 267 327
#     4  10  20  34  51  71  97 131 175 223 268 313
#     4  11  21  34  51  73 104 138 172 215 269 320
#     4  10  21  36  52  72 101 140 185 226 263 310
#     4   7  12  26  52  79 101 129 163 197 245 309
#     4   9  17  31  53  80 108 138 175 219 267 315
#
# _framework density 17.920055000000001
#
# number of rings (size 3 to 8) (size 9 to 14) (size 15 to 20)
#    0.200    2.200    1.000    2.200    0.000    6.000 
#    0.000    1.000    0.000    6.000    0.000    0.000 
#    0.000    8.000    0.000    0.000    0.000    0.000 
#
# Total GULP energy -743523.266025 kJ/mol
# GULP energy per Si atom -12392.054434 kJ/mol
# Density = 1.787927 g / cm^3
# Si number density = 17.920055 Si / 1000 Ang^3
#
#
#
# Elastic Constant Matrix: (Units=GPa)
#
#
# Indices 1 2 3 4 5 6 
#
# 1 127.1120 71.1735 38.4562 0.0000 0.0000 0.0000
# 2 71.1735 127.1120 38.4562 0.0000 0.0000 0.0000
# 3 38.4562 38.4562 53.9699 0.0000 0.0000 0.0000
# 4 0.0000 0.0000 0.0000 19.2412 0.0000 0.0000
# 5 0.0000 0.0000 0.0000 0.0000 19.2412 0.0000
# 6 0.0000 0.0000 0.0000 0.0000 0.0000 27.9692
#
#
#
# Elastic Compliance Matrix: (Units=1/GPa)
#
#
# Indices 1 2 3 4 5 6 
#
# 1 0.012423 -0.005454 -0.004966 0.000000 0.000000 0.000000
# 2 -0.005454 0.012423 -0.004966 0.000000 0.000000 0.000000
# 3 -0.004966 -0.004966 0.025606 0.000000 0.000000 0.000000
# 4 0.000000 0.000000 0.000000 0.051972 0.000000 0.000000
# 5 0.000000 0.000000 0.000000 0.000000 0.051972 0.000000
# 6 0.000000 0.000000 0.000000 0.000000 0.000000 0.035754
#
#
# Mechanical properties :
#
#
# Convention : Reuss Voigt Hill
#
# Bulk Modulus (GPa) = 50.81147 67.15175 58.98161
# Shear Modulus (GPa) = 21.97983 23.96421 22.97202
#
# Velocity S-wave (km/s) = 3.50601 3.66086 3.58427
# Velocity P-wave (km/s) = 6.69370 7.44469 7.07916
#
# Compressibility (1/GPa) = 0.01968060
#
# Stress axis : x y z
#
# Youngs Moduli (GPa) = 80.49486 80.49486 39.05331
#
# Poissons Ratio (x) = 0.43899 0.19394
# Poissons Ratio (y) = 0.43899 0.19394
# Poissons Ratio (z) = 0.39975 0.39975
#
# Static dielectric constant tensor:
#      x y z
#    x 3.437580 0.000000 0.000000 
#    y 0.000000 3.437580 0.000000 
#    z 0.000000 0.000000 3.129700 
# 
# 
# High freq. dielectric constant tensor:
#      x y z
#    x 1.690850 0.000000 0.000000 
#    y 0.000000 1.690850 0.000000 
#    z 0.000000 0.000000 1.673750 
# 
# From -- ./inp_files/686.got.cif
#   From: 2010.03.12/outbox.cif.g09.slc.cpg/sg187_1_cif.got.tgz:686.got - 2010.04.01 11:58:23.
