data_PCOD8327832
_publ_section_title
;
Structure prediction by ZEFSAII (Michael W. Deem and Ramdas Pophale) SiO2 
 PCOD8327832
Probable space group: P -6 2 M
;
_chemical_formula_sum "Si O2"
_cell_formula_units_Z 84
_cell_length_a 18.102862
_cell_length_b 18.102862
_cell_length_c 13.579833
_cell_angle_alpha 90.000000
_cell_angle_beta 90.000000
_cell_angle_gamma 120.000000
_cell_volume 3854.069504
_symmetry_space_group_name_H-M "P -6 2 M"
_symmetry_group_IT_number 189
_symmetry_cell_setting 'hexagonal'
loop_
_space_group_symop_operation_xyz
x,y,z
-x+y,-x,-z
-y,x-y,z
x,y,-z
-x+y,-x,z
-y,x-y,-z
x-y,-y,-z
-x,-x+y,-z
y,x,-z
y,x,z
x-y,-y,z
-x,-x+y,z
loop_
_atom_site_type_symbol
_atom_site_label
_atom_site_fract_x
_atom_site_fract_y
_atom_site_fract_z
Si Si1 0.197828 0.903542 0.114275
Si Si2 0.474931 0.245289 0.888463
Si Si3 0.902427 0.099769 0.292439
Si Si4 0.388614 0.907081 0.304999
Si Si5 0.434378 0.580066 0.112485
Si Si6 0.537298 0.904824 0.615592
Si Si7 0.822940 0.202735 0.383765
O O1 0.220356 0.832956 0.157124
O O2 0.118012 0.893361 0.177686
O O3 0.278563 0.000000 0.130933
O O4 0.171116 0.889883 0.000000
O O5 0.554347 0.228769 0.882363
O O6 0.509054 0.340787 0.846810
O O7 0.450278 0.249014 0.000000
O O8 0.876200 0.155771 0.360703
O O9 0.000000 0.127470 0.317159
O O10 0.842585 0.000000 0.315690
O O11 0.414693 0.919210 0.188946
O O12 0.437072 0.862430 0.357397
O O13 0.289071 0.853618 0.323710
O O14 0.421381 0.000000 0.351486
O O15 0.451855 0.561082 0.000000
O O16 0.548854 0.908544 0.500000
O O17 0.580086 0.852685 0.658346
O O18 0.587649 0.000000 0.661434
O O19 0.828047 0.220938 0.500000
#
# Coordination Sequence:
#
# PCOD8327832 Si02
#       7
#    12  12  12  12  12  12  12
#     4   9  19  37  62  91 125 170 222 272 321 380
#     4   9  18  34  54  79 116 164 214 262 308 360
#     4  11  24  41  65  96 131 169 214 268 330 398
#     4  11  24  39  62  93 124 162 206 255 311 366
#     4  10  21  35  54  83 123 165 206 251 305 365
#     4   9  20  41  65  90 122 158 199 250 309 372
#     4  11  24  44  68  94 123 163 211 263 324 390
#
# _framework density 21.795145000000002
#
# number of rings (size 3 to 8) (size 9 to 14) (size 15 to 20)
#    0.000    2.000    0.000    2.571    4.000    6.000 
#    0.857    1.429    0.000    4.286    0.000    0.000 
#    0.000    0.000    0.000    0.000    0.000    0.000 
#
# Total GULP energy -1040868.224431 kJ/mol
# GULP energy per Si atom -12391.288386 kJ/mol
# Density = 2.174554 g / cm^3
# Si number density = 21.795145 Si / 1000 Ang^3
#
#
#
# Elastic Constant Matrix: (Units=GPa)
#
#
# Indices 1 2 3 4 5 6 
#
# 1 132.8670 62.8342 30.2867 0.0000 0.0000 0.0000
# 2 62.8342 132.8670 30.2867 0.0000 0.0000 0.0000
# 3 30.2867 30.2867 59.3480 0.0000 0.0000 0.0000
# 4 0.0000 0.0000 0.0000 24.9216 0.0000 0.0000
# 5 0.0000 0.0000 0.0000 0.0000 24.9216 0.0000
# 6 0.0000 0.0000 0.0000 0.0000 0.0000 35.0164
#
#
#
# Elastic Compliance Matrix: (Units=1/GPa)
#
#
# Indices 1 2 3 4 5 6 
#
# 1 0.010174 -0.004105 -0.003097 0.000000 0.000000 0.000000
# 2 -0.004105 0.010174 -0.003097 0.000000 0.000000 0.000000
# 3 -0.003097 -0.003097 0.020011 0.000000 0.000000 0.000000
# 4 0.000000 0.000000 0.000000 0.040126 0.000000 0.000000
# 5 0.000000 0.000000 0.000000 0.000000 0.040126 0.000000
# 6 0.000000 0.000000 0.000000 0.000000 0.000000 0.028558
#
#
# Mechanical properties :
#
#
# Convention : Reuss Voigt Hill
#
# Bulk Modulus (GPa) = 50.60741 63.54411 57.07576
# Shear Modulus (GPa) = 28.35235 30.41689 29.38462
#
# Velocity S-wave (km/s) = 3.61065 3.73980 3.67579
# Velocity P-wave (km/s) = 6.37592 6.91857 6.65278
#
# Compressibility (1/GPa) = 0.01975995
#
# Stress axis : x y z
#
# Youngs Moduli (GPa) = 98.29276 98.29276 49.97367
#
# Poissons Ratio (x) = 0.40352 0.15476
# Poissons Ratio (y) = 0.40352 0.15476
# Poissons Ratio (z) = 0.30440 0.30440
#
# Static dielectric constant tensor:
#      x y z
#    x 3.949600 0.000000 0.000000 
#    y 0.000000 3.949600 0.000000 
#    z 0.000000 0.000000 3.910280 
# 
# 
# High freq. dielectric constant tensor:
#      x y z
#    x 1.848670 0.000000 0.000000 
#    y 0.000000 1.848670 0.000000 
#    z 0.000000 0.000000 1.862530 
# 
# From -- ./inp_files/2800.got.cif
#   From: 2010.03.12/outbox.cif.g09.slc.cpg/sg189_2_cif.got.tgz:2800.got - 2010.04.01 12:03:36.
