data_PCOD8327853
_publ_section_title
;
Structure prediction by ZEFSAII (Michael W. Deem and Ramdas Pophale) SiO2 
 PCOD8327853
Probable space group: P -6 2 M
;
_chemical_formula_sum "Si O2"
_cell_formula_units_Z 60
_cell_length_a 19.895088
_cell_length_b 19.895088
_cell_length_c 8.537007
_cell_angle_alpha 90.000000
_cell_angle_beta 90.000000
_cell_angle_gamma 120.000000
_cell_volume 2926.361659
_symmetry_space_group_name_H-M "P -6 2 M"
_symmetry_group_IT_number 189
_symmetry_cell_setting 'hexagonal'
loop_
_space_group_symop_operation_xyz
x,y,z
-x+y,-x,-z
-y,x-y,z
x,y,-z
-x+y,-x,z
-y,x-y,-z
x-y,-y,-z
-x,-x+y,-z
y,x,-z
y,x,z
x-y,-y,z
-x,-x+y,z
loop_
_atom_site_type_symbol
_atom_site_label
_atom_site_fract_x
_atom_site_fract_y
_atom_site_fract_z
Si Si1 0.000000 0.333715 0.186191
Si Si2 0.756266 0.255312 0.681959
Si Si3 0.662033 0.815518 0.815705
Si Si4 0.518166 0.518166 0.815438
Si Si5 0.409244 0.578506 0.183371
Si Si6 0.823425 0.911499 0.683878
O O1 0.075123 0.332755 0.248240
O O2 0.000000 0.407819 0.260986
O O3 0.000000 0.334755 0.000000
O O4 0.772336 0.274494 0.500000
O O5 0.775789 0.188701 0.733456
O O6 0.809019 0.333430 0.780530
O O7 0.666138 0.223985 0.716222
O O8 0.742388 0.890769 0.766530
O O9 0.650252 0.815725 0.000000
O O10 0.440426 0.519647 0.766852
O O11 0.528843 0.528843 0.000000
O O12 0.388913 0.570930 0.000000
O O13 0.808801 0.900090 0.500000
O O14 0.858200 0.858200 0.747293
O O15 0.885072 0.000000 0.725826
#
# Coordination Sequence:
#
# PCOD8327853 Si02
#       6
#     6  12  12   6  12  12
#     4   9  16  32  60  92 118 141 184 249 300 344
#     4  12  25  41  60  90 126 161 198 247 301 359
#     4  11  21  38  63  90 119 156 201 251 301 356
#     4   9  18  36  64  92 116 143 190 247 298 348
#     4  11  22  41  66  91 118 157 201 248 299 357
#     4  10  21  38  60  88 123 162 202 249 308 369
#
# _framework density 20.503277000000001
#
# number of rings (size 3 to 8) (size 9 to 14) (size 15 to 20)
#    0.000    1.400    3.000    3.600    0.000    1.200 
#    1.800    3.000    0.000    1.200    0.000    0.000 
#    0.000    0.000    0.000    0.000    0.000    0.000 
#
# Total GULP energy -744117.164056 kJ/mol
# GULP energy per Si atom -12401.952734 kJ/mol
# Density = 2.045661 g / cm^3
# Si number density = 20.503277 Si / 1000 Ang^3
#
#
#
# Elastic Constant Matrix: (Units=GPa)
#
#
# Indices 1 2 3 4 5 6 
#
# 1 96.1637 24.0560 24.1886 0.0000 0.0000 0.0000
# 2 24.0560 96.1637 24.1886 0.0000 0.0000 0.0000
# 3 24.1886 24.1886 63.7581 0.0000 0.0000 0.0000
# 4 0.0000 0.0000 0.0000 26.5849 0.0000 0.0000
# 5 0.0000 0.0000 0.0000 0.0000 26.5849 0.0000
# 6 0.0000 0.0000 0.0000 0.0000 0.0000 36.0538
#
#
#
# Elastic Compliance Matrix: (Units=1/GPa)
#
#
# Indices 1 2 3 4 5 6 
#
# 1 0.011842 -0.002026 -0.003724 0.000000 0.000000 0.000000
# 2 -0.002026 0.011842 -0.003724 0.000000 0.000000 0.000000
# 3 -0.003724 -0.003724 0.018510 0.000000 0.000000 0.000000
# 4 0.000000 0.000000 0.000000 0.037615 0.000000 0.000000
# 5 0.000000 0.000000 0.000000 0.000000 0.037615 0.000000
# 6 0.000000 0.000000 0.000000 0.000000 0.000000 0.027736
#
#
# Mechanical properties :
#
#
# Convention : Reuss Voigt Hill
#
# Bulk Modulus (GPa) = 43.01725 44.55025 43.78375
# Shear Modulus (GPa) = 29.09353 30.08820 29.59087
#
# Velocity S-wave (km/s) = 3.77101 3.83493 3.80310
# Velocity P-wave (km/s) = 6.32352 6.43307 6.37853
#
# Compressibility (1/GPa) = 0.02324649
#
# Stress axis : x y z
#
# Youngs Moduli (GPa) = 84.44188 84.44188 54.02446
#
# Poissons Ratio (x) = 0.17105 0.20120
# Poissons Ratio (y) = 0.17105 0.20120
# Poissons Ratio (z) = 0.31449 0.31449
#
# Static dielectric constant tensor:
#      x y z
#    x 3.745100 0.000000 0.000000 
#    y 0.000000 3.745100 0.000000 
#    z 0.000000 0.000000 3.400050 
# 
# 
# High freq. dielectric constant tensor:
#      x y z
#    x 1.801010 0.000000 0.000000 
#    y 0.000000 1.801010 0.000000 
#    z 0.000000 0.000000 1.783200 
# 
# From -- ./inp_files/950.got.cif
#   From: 2010.03.12/outbox.cif.g09.slc.cpg/sg189_1_cif.got.tgz:950.got - 2010.04.01 12:03:36.
