data_PCOD8327157
_publ_section_title
;
Structure prediction by ZEFSAII (Michael W. Deem and Ramdas Pophale) SiO2 
 PCOD8327157
Probable space group: P -6 M 2
;
_chemical_formula_sum "Si O2"
_cell_formula_units_Z 66
_cell_length_a 12.791193
_cell_length_b 12.791193
_cell_length_c 28.633902
_cell_angle_alpha 90.000000
_cell_angle_beta 90.000000
_cell_angle_gamma 120.000000
_cell_volume 4057.264020
_symmetry_space_group_name_H-M "P -6 M 2"
_symmetry_group_IT_number 187
_symmetry_cell_setting 'hexagonal'
loop_
_space_group_symop_operation_xyz
x,y,z
-x+y,-x,-z
-y,x-y,z
x,y,-z
-x+y,-x,z
-y,x-y,-z
-y,-x,-z
-x+y,y,-z
x,x-y,-z
-x+y,y,z
x,x-y,z
-y,-x,z
loop_
_atom_site_type_symbol
_atom_site_label
_atom_site_fract_x
_atom_site_fract_y
_atom_site_fract_z
Si Si1 0.667886 0.088835 0.849912
Si Si2 0.758333 0.000316 0.333580
Si Si3 0.668909 0.093048 0.049399
Si Si4 0.758210 0.000068 0.772250
Si Si5 0.245083 0.247096 0.500000
Si Si6 0.331672 0.420645 0.585411
O O1 0.547340 0.094679 0.847848
O O2 0.777737 0.222264 0.840880
O O3 0.680514 0.036852 0.901093
O O4 0.663597 0.002210 0.808566
O O5 0.873298 0.126703 0.348743
O O6 0.796265 0.898133 0.338975
O O7 0.718243 0.005709 0.280680
O O8 0.643930 0.969972 0.365689
O O9 0.538587 0.077173 0.047516
O O10 0.765398 0.234603 0.050917
O O11 0.687352 0.037161 0.000000
O O12 0.759109 0.879555 0.782396
O O13 0.891922 0.108078 0.782058
O O14 0.104572 0.209143 0.500000
O O15 0.312824 0.326423 0.544995
O O16 0.254701 0.127351 0.500000
O O17 0.229501 0.459001 0.582650
O O18 0.460955 0.539046 0.579964
#
# Coordination Sequence:
#
# PCOD8327157 Si02
#       6
#    12  12  12  12   6  12
#     4   9  16  25  39  60  85 111 137 169 212 262
#     4   9  17  30  49  70  89 111 144 189 233 265
#     4   8  12  18  30  50  76 104 133 166 206 252
#     4   9  17  29  45  64  85 112 147 184 220 257
#     4  10  20  34  54  78 100 122 152 194 236 264
#     4  10  20  33  50  71  96 125 153 181 215 261
#
# _framework density 16.267119999999998
#
# number of rings (size 3 to 8) (size 9 to 14) (size 15 to 20)
#    0.000    2.909    0.000    1.818    0.000    4.364 
#    0.000    2.727    0.000    6.000    0.000    0.000 
#    0.000    1.455    0.000    0.000    0.000    0.000 
#
# Total GULP energy -817639.041371 kJ/mol
# GULP energy per Si atom -12388.470324 kJ/mol
# Density = 1.623010 g / cm^3
# Si number density = 16.267120 Si / 1000 Ang^3
#
#
#
# Elastic Constant Matrix: (Units=GPa)
#
#
# Indices 1 2 3 4 5 6 
#
# 1 73.7629 37.9260 54.6391 0.0000 -0.0001 0.0000
# 2 37.9260 73.7629 54.6391 0.0000 0.0001 0.0000
# 3 54.6391 54.6391 143.1799 0.0000 0.0000 0.0000
# 4 0.0000 0.0000 0.0000 21.1719 0.0000 0.0001
# 5 -0.0001 0.0001 0.0000 0.0000 21.1719 0.0000
# 6 0.0000 0.0000 0.0000 0.0001 0.0000 17.9184
#
#
#
# Elastic Compliance Matrix: (Units=1/GPa)
#
#
# Indices 1 2 3 4 5 6 
#
# 1 0.021096 -0.006808 -0.005453 0.000000 0.000000 0.000000
# 2 -0.006808 0.021096 -0.005453 0.000000 0.000000 0.000000
# 3 -0.005453 -0.005453 0.011146 0.000000 0.000000 0.000000
# 4 0.000000 0.000000 0.000000 0.047232 0.000000 0.000000
# 5 0.000000 0.000000 0.000000 0.000000 0.047232 0.000000
# 6 0.000000 0.000000 0.000000 0.000000 0.000000 0.055808
#
#
# Mechanical properties :
#
#
# Convention : Reuss Voigt Hill
#
# Bulk Modulus (GPa) = 55.82828 65.01268 60.42048
# Shear Modulus (GPa) = 20.40747 21.61923 21.01335
#
# Velocity S-wave (km/s) = 3.54577 3.64952 3.59802
# Velocity P-wave (km/s) = 7.15245 7.60336 7.38135
#
# Compressibility (1/GPa) = 0.01791207
#
# Stress axis : x y z
#
# Youngs Moduli (GPa) = 47.40172 47.40172 89.72009
#
# Poissons Ratio (x) = 0.32271 0.48921
# Poissons Ratio (y) = 0.32271 0.48921
# Poissons Ratio (z) = 0.25846 0.25846
#
# Static dielectric constant tensor:
#      x y z
#    x 2.802470 0.000000 0.000000 
#    y 0.000000 2.802470 0.000000 
#    z 0.000000 0.000000 3.757960 
# 
# 
# High freq. dielectric constant tensor:
#      x y z
#    x 1.594800 0.000000 0.000000 
#    y 0.000000 1.594800 0.000000 
#    z 0.000000 0.000000 1.656400 
# 
# From -- ./inp_files/4426.got.cif
#   From: 2010.03.12/outbox.cif.g09.slc.cpg/sg187_3_cif.got.tgz:4426.got - 2010.04.01 11:58:23.
