data_PCOD8327319
_publ_section_title
;
Structure prediction by ZEFSAII (Michael W. Deem and Ramdas Pophale) SiO2 
 PCOD8327319
Probable space group: P -6 C 2
;
_chemical_formula_sum "Si O2"
_cell_formula_units_Z 64
_cell_length_a 15.325951
_cell_length_b 15.325951
_cell_length_c 16.598108
_cell_angle_alpha 90.000000
_cell_angle_beta 90.000000
_cell_angle_gamma 120.000000
_cell_volume 3376.323746
_symmetry_space_group_name_H-M "P -6 C 2"
_symmetry_group_IT_number 188
_symmetry_cell_setting 'hexagonal'
loop_
_space_group_symop_operation_xyz
x,y,z
-x+y,-x,1/2-z
-y,x-y,z
x,y,1/2-z
-x+y,-x,z
-y,x-y,1/2-z
-y,-x,-z
-x+y,y,-z
x,x-y,-z
-x+y,y,1/2+z
x,x-y,1/2+z
-y,-x,1/2+z
loop_
_atom_site_type_symbol
_atom_site_label
_atom_site_fract_x
_atom_site_fract_y
_atom_site_fract_z
Si Si1 0.645553 0.728435 0.465751
Si Si2 0.431544 0.004773 0.342100
Si Si3 0.929924 0.145997 0.412973
Si Si4 0.000000 0.000000 0.596197
Si Si5 0.612150 0.541952 0.564574
Si Si6 0.780030 0.199505 0.658208
O O1 0.610029 0.805015 0.500000
O O2 0.570714 0.655630 0.395741
O O3 0.754358 0.793373 0.424292
O O4 0.649982 0.654970 0.533682
O O5 0.399741 0.978607 0.250000
O O6 0.538188 0.012070 0.360099
O O7 0.448795 0.115576 0.366933
O O8 0.879205 0.120796 0.500000
O O9 0.857196 0.156187 0.349405
O O10 0.947523 0.061133 0.372822
O O11 0.000000 0.000000 0.500000
O O12 0.545891 0.454110 0.500000
O O13 0.706046 0.530599 0.596613
O O14 0.784896 0.236887 0.750000
#
# Coordination Sequence:
#
# PCOD8327319 Si02
#       6
#    12  12  12   4  12  12
#     4  10  19  32  56  81 106 142 185 226 269 325
#     4   9  20  37  56  79 115 148 180 227 280 331
#     4  10  17  30  51  74 109 145 185 214 261 311
#     4   9  18  27  49  80 106 150 184 224 247 303
#     4  10  20  34  58  83 105 142 188 232 273 330
#     4  10  20  35  54  78 114 150 180 226 280 326
#
# _framework density 18.955528999999999
#
# number of rings (size 3 to 8) (size 9 to 14) (size 15 to 20)
#    0.000    2.250    1.875    2.250    0.000    0.000 
#    1.125    2.812    4.125   10.125    0.000    0.000 
#    0.000    0.000    0.000    0.000    0.000    0.000 
#
# Total GULP energy -793055.360238 kJ/mol
# GULP energy per Si atom -12391.490004 kJ/mol
# Density = 1.891239 g / cm^3
# Si number density = 18.955529 Si / 1000 Ang^3
#
#
#
# Elastic Constant Matrix: (Units=GPa)
#
#
# Indices 1 2 3 4 5 6 
#
# 1 69.0883 22.6116 29.6518 0.0000 0.0000 0.0000
# 2 22.6116 69.0883 29.6518 0.0000 0.0000 0.0000
# 3 29.6518 29.6518 68.9574 0.0000 0.0000 0.0000
# 4 0.0000 0.0000 0.0000 21.1320 0.0000 0.0000
# 5 0.0000 0.0000 0.0000 0.0000 21.1320 0.0000
# 6 0.0000 0.0000 0.0000 0.0000 0.0000 23.2384
#
#
#
# Elastic Compliance Matrix: (Units=1/GPa)
#
#
# Indices 1 2 3 4 5 6 
#
# 1 0.018311 -0.003205 -0.006496 0.000000 0.000000 0.000000
# 2 -0.003205 0.018311 -0.006496 0.000000 0.000000 0.000000
# 3 -0.006496 -0.006496 0.020088 0.000000 0.000000 0.000000
# 4 0.000000 0.000000 0.000000 0.047322 0.000000 0.000000
# 5 0.000000 0.000000 0.000000 0.000000 0.047322 0.000000
# 6 0.000000 0.000000 0.000000 0.000000 0.000000 0.043032
#
#
# Mechanical properties :
#
#
# Convention : Reuss Voigt Hill
#
# Bulk Modulus (GPa) = 41.12272 41.21828 41.17050
# Shear Modulus (GPa) = 21.28711 21.44838 21.36774
#
# Velocity S-wave (km/s) = 3.35476 3.36744 3.36111
# Velocity P-wave (km/s) = 6.06195 6.07548 6.06872
#
# Compressibility (1/GPa) = 0.02431746
#
# Stress axis : x y z
#
# Youngs Moduli (GPa) = 54.61191 54.61191 49.78115
#
# Poissons Ratio (x) = 0.17504 0.32336
# Poissons Ratio (y) = 0.17504 0.32336
# Poissons Ratio (z) = 0.35474 0.35474
#
# Static dielectric constant tensor:
#      x y z
#    x 3.386050 0.000000 0.000000 
#    y 0.000000 3.386050 0.000000 
#    z 0.000000 0.000000 3.428380 
# 
# 
# High freq. dielectric constant tensor:
#      x y z
#    x 1.720430 0.000000 0.000000 
#    y 0.000000 1.720430 0.000000 
#    z 0.000000 0.000000 1.729220 
# 
# From -- ./inp_files/3047.got.cif
#   From: 2010.03.12/outbox.cif.g09.slc.cpg/sg188_2_cif.got.tgz:3047.got - 2010.04.01 12:01:06.
