data_PCOD8327089
_publ_section_title
;
Structure prediction by ZEFSAII (Michael W. Deem and Ramdas Pophale) SiO2 
 PCOD8327089
Probable space group: P -6 M 2
;
_chemical_formula_sum "Si O2"
_cell_formula_units_Z 60
_cell_length_a 12.716346
_cell_length_b 12.716346
_cell_length_c 25.981336
_cell_angle_alpha 90.000000
_cell_angle_beta 90.000000
_cell_angle_gamma 120.000000
_cell_volume 3638.453118
_symmetry_space_group_name_H-M "P -6 M 2"
_symmetry_group_IT_number 187
_symmetry_cell_setting 'hexagonal'
loop_
_space_group_symop_operation_xyz
x,y,z
-x+y,-x,-z
-y,x-y,z
x,y,-z
-x+y,-x,z
-y,x-y,-z
-y,-x,-z
-x+y,y,-z
x,x-y,-z
-x+y,y,z
x,x-y,z
-y,-x,z
loop_
_atom_site_type_symbol
_atom_site_label
_atom_site_fract_x
_atom_site_fract_y
_atom_site_fract_z
Si Si1 0.668812 0.093256 0.945590
Si Si2 0.758394 1.000000 0.558626
Si Si3 0.913106 0.581189 0.165953
Si Si4 0.666161 0.088069 0.352232
Si Si5 0.334632 0.912947 0.257708
O O1 0.535973 0.071946 0.949420
O O2 0.763430 0.236571 0.942605
O O3 0.679546 0.037042 0.891031
O O4 0.692031 0.040232 0.000000
O O5 0.716226 0.997765 0.500000
O O6 0.744329 0.872165 0.574683
O O7 0.672506 0.027221 0.594522
O O8 0.898714 0.101287 0.565939
O O9 0.789809 0.579617 0.180915
O O10 0.885589 0.442795 0.167340
O O11 0.016625 0.663899 0.206169
O O12 0.559247 0.118493 0.357045
O O13 0.788616 0.211385 0.340279
O O14 0.644924 0.996627 0.306273
O O15 0.437916 0.875832 0.255798
O O16 0.206174 0.793827 0.262543
#
# Coordination Sequence:
#
# PCOD8327089 Si02
#       5
#    12  12  12  12  12
#     4   8  12  18  31  55  87 118 144 171 208 257
#     4   9  17  30  49  72  97 126 160 195 226 255
#     4   9  16  26  43  67  93 119 145 177 220 269
#     4  10  20  33  50  72  97 123 149 181 225 276
#     4  10  20  33  48  64  84 114 152 191 227 264
#
# _framework density 16.490525000000002
#
# number of rings (size 3 to 8) (size 9 to 14) (size 15 to 20)
#    0.000    2.800    0.000    2.200    0.000    3.600 
#    0.000    2.000    0.000    6.600    0.000    0.000 
#    0.000    1.600    0.000    0.000    0.000    0.000 
#
# Total GULP energy -743378.908840 kJ/mol
# GULP energy per Si atom -12389.648481 kJ/mol
# Density = 1.645299 g / cm^3
# Si number density = 16.490525 Si / 1000 Ang^3
#
#
#
# Elastic Constant Matrix: (Units=GPa)
#
#
# Indices 1 2 3 4 5 6 
#
# 1 81.5890 48.6244 56.9962 0.0000 0.0003 0.0000
# 2 48.6244 81.5890 56.9962 0.0000 -0.0003 0.0000
# 3 56.9962 56.9962 136.4731 0.0000 0.0000 0.0000
# 4 0.0000 0.0000 0.0000 18.1891 0.0000 -0.0003
# 5 0.0003 -0.0003 0.0000 0.0000 18.1891 0.0000
# 6 0.0000 0.0000 0.0000 -0.0003 0.0000 16.4823
#
#
#
# Elastic Compliance Matrix: (Units=1/GPa)
#
#
# Indices 1 2 3 4 5 6 
#
# 1 0.021221 -0.009115 -0.005056 0.000000 0.000000 0.000000
# 2 -0.009115 0.021221 -0.005056 0.000000 0.000000 0.000000
# 3 -0.005056 -0.005056 0.011550 0.000000 0.000000 0.000000
# 4 0.000000 0.000000 0.000000 0.054978 0.000000 0.000001
# 5 0.000000 0.000000 0.000000 0.000000 0.054978 0.000000
# 6 0.000000 0.000000 0.000000 0.000001 0.000000 0.060671
#
#
# Mechanical properties :
#
#
# Convention : Reuss Voigt Hill
#
# Bulk Modulus (GPa) = 64.35566 69.43163 66.89364
# Shear Modulus (GPa) = 18.63921 19.70770 19.17345
#
# Velocity S-wave (km/s) = 3.36564 3.46076 3.41353
# Velocity P-wave (km/s) = 7.36301 7.62657 7.49595
#
# Compressibility (1/GPa) = 0.01553865
#
# Stress axis : x y z
#
# Youngs Moduli (GPa) = 47.12393 47.12393 86.57708
#
# Poissons Ratio (x) = 0.42953 0.43771
# Poissons Ratio (y) = 0.42953 0.43771
# Poissons Ratio (z) = 0.23825 0.23825
#
# Static dielectric constant tensor:
#      x y z
#    x 2.835350 0.000000 0.000000 
#    y 0.000000 2.835350 0.000000 
#    z 0.000000 0.000000 3.731580 
# 
# 
# High freq. dielectric constant tensor:
#      x y z
#    x 1.607150 0.000000 0.000000 
#    y 0.000000 1.607150 0.000000 
#    z 0.000000 0.000000 1.664180 
# 
# From -- ./inp_files/4136.got.cif
#   From: 2010.03.12/outbox.cif.g09.slc.cpg/sg187_3_cif.got.tgz:4136.got - 2010.04.01 11:58:23.
