data_PCOD8327471
_publ_section_title
;
Structure prediction by ZEFSAII (Michael W. Deem and Ramdas Pophale) SiO2 
 PCOD8327471
Probable space group: P -6 C 2
;
_chemical_formula_sum "Si O2"
_cell_formula_units_Z 40
_cell_length_a 11.116089
_cell_length_b 11.116089
_cell_length_c 15.889301
_cell_angle_alpha 90.000000
_cell_angle_beta 90.000000
_cell_angle_gamma 120.000000
_cell_volume 1700.354419
_symmetry_space_group_name_H-M "P -6 C 2"
_symmetry_group_IT_number 188
_symmetry_cell_setting 'hexagonal'
loop_
_space_group_symop_operation_xyz
x,y,z
-x+y,-x,1/2-z
-y,x-y,z
x,y,1/2-z
-x+y,-x,z
-y,x-y,1/2-z
-y,-x,-z
-x+y,y,-z
x,x-y,-z
-x+y,y,1/2+z
x,x-y,1/2+z
-y,-x,1/2+z
loop_
_atom_site_type_symbol
_atom_site_label
_atom_site_fract_x
_atom_site_fract_y
_atom_site_fract_z
Si Si1 0.056500 0.786450 0.084837
Si Si2 0.480016 0.523601 0.153370
Si Si3 0.947464 0.727250 0.844223
Si Si4 0.333335 0.666668 0.099444
O O1 0.033354 0.631286 0.093555
O O2 0.901001 0.763179 0.088438
O O3 0.147884 0.892548 0.158343
O O4 0.139271 0.860730 0.000000
O O5 0.451493 0.474528 0.250000
O O6 0.641885 0.580108 0.130461
O O7 0.463260 0.657797 0.136454
O O8 0.886786 0.712572 0.750000
O O9 0.333334 0.666667 0.000000
#
# Coordination Sequence:
#
# PCOD8327471 Si02
#       4
#    12  12  12   4
#     4  12  25  44  68 102 144 192 248 307 375 448
#     4  11  23  41  69 100 139 188 246 307 371 447
#     4  11  24  42  68 100 141 190 244 308 375 451
#     4  12  22  38  64 105 136 176 229 312 370 434
#
# _framework density 23.524507
#
# number of rings (size 3 to 8) (size 9 to 14) (size 15 to 20)
#    0.000    0.600    3.000    6.000    0.000    0.000 
#    1.800    0.000    0.000    0.000    0.000    0.000 
#    0.000    0.000    0.000    0.000    0.000    0.000 
#
# Total GULP energy -495723.733848 kJ/mol
# GULP energy per Si atom -12393.093346 kJ/mol
# Density = 2.347096 g / cm^3
# Si number density = 23.524507 Si / 1000 Ang^3
#
#
#
# Elastic Constant Matrix: (Units=GPa)
#
#
# Indices 1 2 3 4 5 6 
#
# 1 145.2239 67.5845 55.1537 -0.0001 0.0000 0.0002
# 2 67.5845 145.2238 55.1539 0.0001 -0.0001 -0.0002
# 3 55.1537 55.1539 113.8462 0.0001 0.0001 0.0000
# 4 -0.0001 0.0001 0.0001 33.4571 -0.0001 0.0001
# 5 0.0000 -0.0001 0.0001 -0.0001 33.4573 0.0003
# 6 0.0002 -0.0002 0.0000 0.0001 0.0003 38.8196
#
#
#
# Elastic Compliance Matrix: (Units=1/GPa)
#
#
# Indices 1 2 3 4 5 6 
#
# 1 0.009577 -0.003303 -0.003040 0.000000 0.000000 0.000000
# 2 -0.003303 0.009577 -0.003040 0.000000 0.000000 0.000000
# 3 -0.003040 -0.003040 0.011729 0.000000 0.000000 0.000000
# 4 0.000000 0.000000 0.000000 0.029889 0.000000 0.000000
# 5 0.000000 0.000000 0.000000 0.000000 0.029889 0.000000
# 6 0.000000 0.000000 0.000000 0.000000 0.000000 0.025760
#
#
# Mechanical properties :
#
#
# Convention : Reuss Voigt Hill
#
# Bulk Modulus (GPa) = 82.51355 84.45312 83.48333
# Shear Modulus (GPa) = 35.91272 36.24027 36.07649
#
# Velocity S-wave (km/s) = 3.91142 3.92922 3.92033
# Velocity P-wave (km/s) = 7.45323 7.52084 7.48711
#
# Compressibility (1/GPa) = 0.01211922
#
# Stress axis : x y z
#
# Youngs Moduli (GPa) = 104.41257 104.41222 85.25771
#
# Poissons Ratio (x) = 0.34484 0.25917
# Poissons Ratio (y) = 0.34484 0.25917
# Poissons Ratio (z) = 0.31740 0.31740
#
# Static dielectric constant tensor:
#      x y z
#    x 4.289510 0.000000 0.000000 
#    y 0.000000 4.289510 0.000000 
#    z 0.000000 0.000000 4.032720 
# 
# 
# High freq. dielectric constant tensor:
#      x y z
#    x 1.927280 0.000000 0.000000 
#    y 0.000000 1.927280 0.000000 
#    z 0.000000 0.000000 1.929900 
# 
# From -- ./inp_files/2862.got.cif
#   From: 2010.03.12/outbox.cif.g09.slc.cpg/sg188_2_cif.got.tgz:2862.got - 2010.04.01 12:01:06.
