data_PCOD8327476
_publ_section_title
;
Structure prediction by ZEFSAII (Michael W. Deem and Ramdas Pophale) SiO2 
 PCOD8327476
Probable space group: P -6 2 M
;
_chemical_formula_sum "Si O2"
_cell_formula_units_Z 48
_cell_length_a 25.516074
_cell_length_b 25.516074
_cell_length_c 7.830294
_cell_angle_alpha 90.000000
_cell_angle_beta 90.000000
_cell_angle_gamma 120.000000
_cell_volume 4415.057929
_symmetry_space_group_name_H-M "P -6 2 M"
_symmetry_group_IT_number 189
_symmetry_cell_setting 'hexagonal'
loop_
_space_group_symop_operation_xyz
x,y,z
-x+y,-x,-z
-y,x-y,z
x,y,-z
-x+y,-x,z
-y,x-y,-z
x-y,-y,-z
-x,-x+y,-z
y,x,-z
y,x,z
x-y,-y,z
-x,-x+y,z
loop_
_atom_site_type_symbol
_atom_site_label
_atom_site_fract_x
_atom_site_fract_y
_atom_site_fract_z
Si Si1 0.542953 0.209224 0.500000
Si Si2 0.210596 0.668462 0.500000
Si Si3 0.374082 0.871598 0.187558
Si Si4 0.000000 0.435730 0.691217
Si Si5 0.498229 0.870138 0.810676
Si Si6 0.000000 0.548867 0.803907
O O1 0.553497 0.275964 0.500000
O O2 0.608072 0.214607 0.500000
O O3 0.504608 0.174147 0.667708
O O4 0.175850 0.672385 0.668184
O O5 0.437615 0.873847 0.197360
O O6 0.384962 0.939147 0.216043
O O7 0.344468 0.848822 0.000000
O O8 0.000000 0.413600 0.500000
O O9 0.000000 0.498835 0.680664
O O10 0.552771 0.938994 0.772294
O O11 0.505814 0.848587 0.000000
O O12 0.000000 0.527938 0.000000
#
# Coordination Sequence:
#
# PCOD8327476 Si02
#       6
#     6   6  12   6  12   6
#     4  10  19  29  35  47  57  81 108 126 144 160
#     4  10  19  27  37  43  59  79 104 130 140 160
#     4   9  16  26  37  49  64  76  90 114 145 179
#     4  10  14  20  36  55  67  72  83 107 146 187
#     4   8  15  25  36  50  62  74  90 113 145 177
#     4   8  14  22  34  52  68  75  85 106 143 189
#
# _framework density 10.871884
#
# number of rings (size 3 to 8) (size 9 to 14) (size 15 to 20)
#    0.000    3.000    1.250    2.875    5.250    1.000 
#    0.000    0.000    0.000    3.000    0.000    0.000 
#    0.000    0.000    0.000    0.000    0.000    0.000 
#
# Total GULP energy -594712.526570 kJ/mol
# GULP energy per Si atom -12389.844304 kJ/mol
# Density = 1.084714 g / cm^3
# Si number density = 10.871884 Si / 1000 Ang^3
#
#
#
# Elastic Constant Matrix: (Units=GPa)
#
#
# Indices 1 2 3 4 5 6 
#
# 1 28.2899 19.8360 24.7895 0.0000 0.0000 0.0000
# 2 19.8360 28.2899 24.7895 0.0000 0.0000 0.0000
# 3 24.7895 24.7895 96.6435 0.0000 0.0000 0.0000
# 4 0.0000 0.0000 0.0000 9.6789 0.0000 0.0000
# 5 0.0000 0.0000 0.0000 0.0000 9.6789 0.0000
# 6 0.0000 0.0000 0.0000 0.0000 0.0000 4.2269
#
#
#
# Elastic Compliance Matrix: (Units=1/GPa)
#
#
# Indices 1 2 3 4 5 6 
#
# 1 0.073265 -0.045024 -0.007244 0.000000 0.000000 0.000000
# 2 -0.045024 0.073265 -0.007244 0.000000 0.000000 0.000000
# 3 -0.007244 -0.007244 0.014064 0.000000 0.000000 0.000000
# 4 0.000000 0.000000 0.000000 0.103317 0.000000 0.000000
# 5 0.000000 0.000000 0.000000 0.000000 0.103317 0.000000
# 6 0.000000 0.000000 0.000000 0.000000 0.000000 0.236578
#
#
# Mechanical properties :
#
#
# Convention : Reuss Voigt Hill
#
# Bulk Modulus (GPa) = 24.05552 32.45035 28.25293
# Shear Modulus (GPa) = 6.78715 10.30419 8.54567
#
# Velocity S-wave (km/s) = 2.50128 3.08195 2.80667
# Velocity P-wave (km/s) = 5.52415 6.52513 6.04539
#
# Compressibility (1/GPa) = 0.04157050
#
# Stress axis : x y z
#
# Youngs Moduli (GPa) = 13.64904 13.64904 71.10558
#
# Poissons Ratio (x) = 0.61453 0.51510
# Poissons Ratio (y) = 0.61453 0.51510
# Poissons Ratio (z) = 0.09888 0.09888
#
# Static dielectric constant tensor:
#      x y z
#    x 2.102670 0.000000 0.000000 
#    y 0.000000 2.102670 0.000000 
#    z 0.000000 0.000000 2.622140 
# 
# 
# High freq. dielectric constant tensor:
#      x y z
#    x 1.365260 0.000000 0.000000 
#    y 0.000000 1.365260 0.000000 
#    z 0.000000 0.000000 1.433630 
# 
# From -- ./inp_files/800.got.cif
#   From: 2010.03.12/outbox.cif.g09.slc.cpg/sg189_1_cif.got.tgz:800.got - 2010.04.01 12:03:36.
