data_PCOD8327200
_publ_section_title
;
Structure prediction by ZEFSAII (Michael W. Deem and Ramdas Pophale) SiO2 
 PCOD8327200
Probable space group: P -6 M 2
;
_chemical_formula_sum "Si O2"
_cell_formula_units_Z 72
_cell_length_a 12.386393
_cell_length_b 12.386393
_cell_length_c 30.878800
_cell_angle_alpha 90.000000
_cell_angle_beta 90.000000
_cell_angle_gamma 120.000000
_cell_volume 4102.803875
_symmetry_space_group_name_H-M "P -6 M 2"
_symmetry_group_IT_number 187
_symmetry_cell_setting 'hexagonal'
loop_
_space_group_symop_operation_xyz
x,y,z
-x+y,-x,-z
-y,x-y,z
x,y,-z
-x+y,-x,z
-y,x-y,-z
-y,-x,-z
-x+y,y,-z
x,x-y,-z
-x+y,y,z
x,x-y,z
-y,-x,z
loop_
_atom_site_type_symbol
_atom_site_label
_atom_site_fract_x
_atom_site_fract_y
_atom_site_fract_z
Si Si1 0.414783 0.081313 0.248553
Si Si2 0.331500 0.918207 0.416300
Si Si3 0.920336 0.333432 0.082566
Si Si4 0.745593 0.998591 0.500000
Si Si5 0.999797 0.746016 0.000000
Si Si6 0.252424 0.252635 0.331904
Si Si7 0.080625 0.665357 0.834711
O O1 0.555729 0.111457 0.252136
O O2 0.417195 0.208598 0.238491
O O3 0.344507 0.018908 0.292771
O O4 0.341394 0.986073 0.210256
O O5 0.464314 0.928628 0.414333
O O6 0.226711 0.773290 0.417967
O O7 0.324479 0.989892 0.458253
O O8 0.315368 0.985657 0.374891
O O9 0.906391 0.453196 0.077264
O O10 0.783481 0.216520 0.083778
O O11 0.998646 0.328081 0.042261
O O12 0.989845 0.335974 0.126515
O O13 0.781756 0.890878 0.500000
O O14 0.870857 0.129144 0.500000
O O15 0.123651 0.876350 0.000000
O O16 0.885576 0.771151 0.000000
O O17 0.230022 0.115011 0.337832
O O18 0.120597 0.241194 0.322239
O O19 0.117784 0.558892 0.837806
O O20 0.203221 0.796780 0.838243
#
# Coordination Sequence:
#
# PCOD8327200 Si02
#       7
#    12  12  12   6   6  12  12
#     4  10  20  34  53  76 103 135 170 209 252 300
#     4  10  20  34  53  76 102 132 167 208 253 300
#     4  10  20  34  54  78 104 134 168 209 254 301
#     4  10  20  34  54  78 104 134 168 208 252 300
#     4  10  20  34  52  74 102 136 172 210 252 300
#     4  10  20  34  53  76 103 135 170 210 254 301
#     4  10  20  34  52  74 101 133 169 209 253 300
#
# _framework density 17.548974999999999
#
# number of rings (size 3 to 8) (size 9 to 14) (size 15 to 20)
#    0.000    2.000    0.000    4.000    0.000    0.000 
#    0.000    5.000    0.000   18.000    0.000    0.000 
#    0.000    0.000    0.000    0.000    0.000    0.000 
#
# Total GULP energy -893107.975763 kJ/mol
# GULP energy per Si atom -12404.277441 kJ/mol
# Density = 1.750903 g / cm^3
# Si number density = 17.548975 Si / 1000 Ang^3
#
#
#
# Elastic Constant Matrix: (Units=GPa)
#
#
# Indices 1 2 3 4 5 6 
#
# 1 60.3881 24.5781 19.3733 0.0000 -0.0006 0.0000
# 2 24.5781 60.3881 19.3733 0.0000 0.0006 0.0000
# 3 19.3733 19.3733 84.3841 0.0000 0.0000 0.0000
# 4 0.0000 0.0000 0.0000 30.1316 0.0000 0.0006
# 5 -0.0006 0.0006 0.0000 0.0000 30.1316 0.0000
# 6 0.0000 0.0000 0.0000 0.0006 0.0000 17.9050
#
#
#
# Elastic Compliance Matrix: (Units=1/GPa)
#
#
# Indices 1 2 3 4 5 6 
#
# 1 0.020535 -0.007390 -0.003018 0.000000 0.000001 0.000000
# 2 -0.007390 0.020535 -0.003018 0.000000 -0.000001 0.000000
# 3 -0.003018 -0.003018 0.013236 0.000000 0.000000 0.000000
# 4 0.000000 0.000000 0.000000 0.033188 0.000000 -0.000001
# 5 0.000001 -0.000001 0.000000 0.000000 0.033188 0.000000
# 6 0.000000 0.000000 0.000000 -0.000001 0.000000 0.055850
#
#
# Mechanical properties :
#
#
# Convention : Reuss Voigt Hill
#
# Bulk Modulus (GPa) = 36.42251 36.86775 36.64513
# Shear Modulus (GPa) = 23.52535 25.08934 24.30734
#
# Velocity S-wave (km/s) = 3.66533 3.78521 3.72575
# Velocity P-wave (km/s) = 6.22195 6.33702 6.27975
#
# Compressibility (1/GPa) = 0.02745555
#
# Stress axis : x y z
#
# Youngs Moduli (GPa) = 48.69628 48.69628 75.54943
#
# Poissons Ratio (x) = 0.35985 0.22801
# Poissons Ratio (y) = 0.35985 0.22801
# Poissons Ratio (z) = 0.14697 0.14697
#
# Static dielectric constant tensor:
#      x y z
#    x 3.235530 0.000000 0.000000 
#    y 0.000000 3.235530 0.000000 
#    z 0.000000 0.000000 3.407320 
# 
# 
# High freq. dielectric constant tensor:
#      x y z
#    x 1.683420 0.000000 0.000000 
#    y 0.000000 1.683420 0.000000 
#    z 0.000000 0.000000 1.699260 
# 
# From -- ./inp_files/4524.got.cif
#   From: 2010.03.12/outbox.cif.g09.slc.cpg/sg187_3_cif.got.tgz:4524.got - 2010.04.01 11:58:23.
