data_PCOD8327450
_publ_section_title
;
Structure prediction by ZEFSAII (Michael W. Deem and Ramdas Pophale) SiO2 
 PCOD8327450
Probable space group: P -6 C 2
;
_chemical_formula_sum "Si O2"
_cell_formula_units_Z 44
_cell_length_a 12.818355
_cell_length_b 12.818355
_cell_length_c 15.750878
_cell_angle_alpha 90.000000
_cell_angle_beta 90.000000
_cell_angle_gamma 120.000000
_cell_volume 2241.299991
_symmetry_space_group_name_H-M "P -6 C 2"
_symmetry_group_IT_number 188
_symmetry_cell_setting 'hexagonal'
loop_
_space_group_symop_operation_xyz
x,y,z
-x+y,-x,1/2-z
-y,x-y,z
x,y,1/2-z
-x+y,-x,z
-y,x-y,1/2-z
-y,-x,-z
-x+y,y,-z
x,x-y,-z
-x+y,y,1/2+z
x,x-y,1/2+z
-y,-x,1/2+z
loop_
_atom_site_type_symbol
_atom_site_label
_atom_site_fract_x
_atom_site_fract_y
_atom_site_fract_z
Si Si1 0.873981 0.747961 0.000000
Si Si2 0.386296 0.474836 0.079995
Si Si3 0.414997 0.136278 0.845708
Si Si4 0.142636 0.857365 0.000000
Si Si5 0.666668 0.333335 0.398485
Si Si6 0.333334 0.666668 0.651413
O O1 0.802394 0.676794 0.917535
O O2 0.809258 0.819592 0.036996
O O3 0.440345 0.415225 0.143253
O O4 0.245633 0.375435 0.064988
O O5 0.396125 0.593584 0.119509
O O6 0.476984 0.523017 0.000000
O O7 0.366823 0.132997 0.750000
O O8 0.533887 0.262151 0.860903
O O9 0.666668 0.333334 0.500000
O O10 0.333334 0.666668 0.750000
#
# Coordination Sequence:
#
# PCOD8327450 Si02
#       6
#     6  12  12   6   4   4
#     4  10  23  42  66  92 125 166 216 254 324 372
#     4  11  21  39  61  88 127 171 212 261 324 386
#     4  11  24  40  61  92 126 163 214 265 316 385
#     4  10  21  40  68  88 121 170 212 264 308 388
#     4  12  22  41  61  88 125 166 202 257 319 373
#     4  12  22  35  58  93 133 167 208 264 319 389
#
# _framework density 19.631463
#
# number of rings (size 3 to 8) (size 9 to 14) (size 15 to 20)
#    0.000    1.091    4.091    2.727    3.818    0.000 
#    0.000    6.818    0.000    0.000    0.000    0.000 
#    0.000    0.000    0.000    0.000    0.000    0.000 
#
# Total GULP energy -545159.518438 kJ/mol
# GULP energy per Si atom -12389.989055 kJ/mol
# Density = 1.958678 g / cm^3
# Si number density = 19.631463 Si / 1000 Ang^3
#
#
#
# Elastic Constant Matrix: (Units=GPa)
#
#
# Indices 1 2 3 4 5 6 
#
# 1 87.5479 20.1134 31.0346 -0.2493 0.0919 0.0001
# 2 20.1134 87.5494 31.0350 -0.0473 -0.0393 0.0000
# 3 31.0346 31.0350 144.2168 -0.0755 0.2722 0.0001
# 4 -0.2493 -0.0473 -0.0755 2985.5983 13.3726 0.0824
# 5 0.0919 -0.0393 0.2722 13.3726 2400.1222 0.0509
# 6 0.0001 0.0000 0.0001 0.0824 0.0509 33.7175
#
#
#
# Elastic Compliance Matrix: (Units=1/GPa)
#
#
# Indices 1 2 3 4 5 6 
#
# 1 0.012717 -0.002113 -0.002282 0.000001 0.000000 0.000000
# 2 -0.002113 0.012716 -0.002282 0.000000 0.000001 0.000000
# 3 -0.002282 -0.002282 0.007916 0.000000 -0.000001 0.000000
# 4 0.000001 0.000000 0.000000 0.000335 -0.000002 -0.000001
# 5 0.000000 0.000001 -0.000001 -0.000002 0.000417 -0.000001
# 6 0.000000 0.000000 0.000000 -0.000001 -0.000001 0.029658
#
#
# Mechanical properties :
#
#
# Convention : Reuss Voigt Hill
#
# Bulk Modulus (GPa) = 50.00934 53.74226 51.87580
# Shear Modulus (GPa) = 59.68216 1099.69634 579.68925
#
# Velocity S-wave (km/s) = 5.51972 23.69359 17.20252
# Velocity P-wave (km/s) = 8.13341 27.85588 20.51954
#
# Compressibility (1/GPa) = 0.01999626
#
# Stress axis : x y z
#
# Youngs Moduli (GPa) = 78.63748 78.63882 126.32447
#
# Poissons Ratio (x) = 0.16613 0.28826
# Poissons Ratio (y) = 0.16613 0.28826
# Poissons Ratio (z) = 0.17944 0.17945
#
# Static dielectric constant tensor:
#      x y z
#    x 3.887990 0.000000 0.000000 
#    y 0.000000 3.887980 0.000010 
#    z 0.000000 0.000010 3.508330 
# 
# 
# High freq. dielectric constant tensor:
#      x y z
#    x 1.777470 0.000000 0.000000 
#    y 0.000000 1.777470 0.000000 
#    z 0.000000 0.000000 1.743470 
# 
# From -- ./inp_files/2960.got.cif
#   From: 2010.03.12/outbox.cif.g09.slc.cpg/sg188_2_cif.got.tgz:2960.got - 2010.04.01 12:01:06.
