data_PCOD8327580
_publ_section_title
;
Structure prediction by ZEFSAII (Michael W. Deem and Ramdas Pophale) SiO2 
 PCOD8327580
Probable space group: P -6 2 M
;
_chemical_formula_sum "Si O2"
_cell_formula_units_Z 66
_cell_length_a 20.529687
_cell_length_b 20.529687
_cell_length_c 10.416356
_cell_angle_alpha 90.000000
_cell_angle_beta 90.000000
_cell_angle_gamma 120.000000
_cell_volume 3801.991155
_symmetry_space_group_name_H-M "P -6 2 M"
_symmetry_group_IT_number 189
_symmetry_cell_setting 'hexagonal'
loop_
_space_group_symop_operation_xyz
x,y,z
-x+y,-x,-z
-y,x-y,z
x,y,-z
-x+y,-x,z
-y,x-y,-z
x-y,-y,-z
-x,-x+y,-z
y,x,-z
y,x,z
x-y,-y,z
-x,-x+y,z
loop_
_atom_site_type_symbol
_atom_site_label
_atom_site_fract_x
_atom_site_fract_y
_atom_site_fract_z
Si Si1 0.817073 0.084732 0.240460
Si Si2 0.090008 0.176799 0.000000
Si Si3 0.851637 0.294954 0.148697
Si Si4 0.711293 0.142099 0.852326
Si Si5 0.084859 0.318135 0.359322
Si Si6 0.084384 0.547014 0.848145
O O1 0.873215 0.104528 0.120855
O O2 0.745962 0.094595 0.208111
O O3 0.863894 0.143107 0.351809
O O4 0.786441 0.000000 0.289054
O O5 0.110383 0.110383 0.000000
O O6 0.000000 0.140167 0.000000
O O7 0.764590 0.231834 0.166526
O O8 0.901008 0.275584 0.242885
O O9 0.863167 0.375489 0.191064
O O10 0.877232 0.296436 0.000000
O O11 0.630621 0.118678 0.788312
O O12 0.699115 0.119655 0.000000
O O13 0.100088 0.357993 0.500000
O O14 0.000000 0.251564 0.348976
O O15 0.000000 0.493820 0.794772
O O16 0.082794 0.552327 0.000000
#
# Coordination Sequence:
#
# PCOD8327580 Si02
#       6
#    12   6  12  12  12  12
#     4  10  19  31  49  72  99 132 169 206 254 307
#     4  10  19  30  46  72 102 134 170 214 260 304
#     4   9  18  32  50  75 100 128 168 207 247 297
#     4   9  16  28  45  70 104 132 161 198 249 299
#     4  10  21  35  51  72  99 131 166 208 257 304
#     4   9  16  26  44  70 100 130 158 196 247 294
#
# _framework density 17.359325999999999
#
# number of rings (size 3 to 8) (size 9 to 14) (size 15 to 20)
#    0.000    2.545    0.909    1.727    1.273    2.182 
#    1.091    0.000    0.000    4.727    0.000    0.000 
#    0.000    0.000    0.000    0.000    0.000    0.000 
#
# Total GULP energy -817983.732012 kJ/mol
# GULP energy per Si atom -12393.692909 kJ/mol
# Density = 1.731982 g / cm^3
# Si number density = 17.359326 Si / 1000 Ang^3
#
#
#
# Elastic Constant Matrix: (Units=GPa)
#
#
# Indices 1 2 3 4 5 6 
#
# 1 113.3586 54.7360 30.9889 0.0000 0.0000 0.0000
# 2 54.7360 113.3586 30.9889 0.0000 0.0000 0.0000
# 3 30.9889 30.9889 59.5948 0.0000 0.0000 0.0000
# 4 0.0000 0.0000 0.0000 10.9730 0.0000 0.0000
# 5 0.0000 0.0000 0.0000 0.0000 10.9730 0.0000
# 6 0.0000 0.0000 0.0000 0.0000 0.0000 29.3113
#
#
#
# Elastic Compliance Matrix: (Units=1/GPa)
#
#
# Indices 1 2 3 4 5 6 
#
# 1 0.012209 -0.004849 -0.003827 0.000000 0.000000 0.000000
# 2 -0.004849 0.012209 -0.003827 0.000000 0.000000 0.000000
# 3 -0.003827 -0.003827 0.020760 0.000000 0.000000 0.000000
# 4 0.000000 0.000000 0.000000 0.091133 0.000000 0.000000
# 5 0.000000 0.000000 0.000000 0.000000 0.091133 0.000000
# 6 0.000000 0.000000 0.000000 0.000000 0.000000 0.034117
#
#
# Mechanical properties :
#
#
# Convention : Reuss Voigt Hill
#
# Bulk Modulus (GPa) = 49.57453 57.74885 53.66169
# Shear Modulus (GPa) = 17.04790 21.55802 19.30296
#
# Velocity S-wave (km/s) = 3.13718 3.52784 3.33823
# Velocity P-wave (km/s) = 6.46084 7.06634 6.77036
#
# Compressibility (1/GPa) = 0.02017165
#
# Stress axis : x y z
#
# Youngs Moduli (GPa) = 81.90537 81.90537 48.16894
#
# Poissons Ratio (x) = 0.39716 0.18435
# Poissons Ratio (y) = 0.39716 0.18435
# Poissons Ratio (z) = 0.31347 0.31347
#
# Static dielectric constant tensor:
#      x y z
#    x 3.397650 0.000000 0.000000 
#    y 0.000000 3.397650 0.000000 
#    z 0.000000 0.000000 2.952410 
# 
# 
# High freq. dielectric constant tensor:
#      x y z
#    x 1.674170 0.000000 0.000000 
#    y 0.000000 1.674170 0.000000 
#    z 0.000000 0.000000 1.628030 
# 
# From -- ./inp_files/1012.got.cif
#   From: 2010.03.12/outbox.cif.g09.slc.cpg/sg189_1_cif.got.tgz:1012.got - 2010.04.01 12:03:36.
