data_PCOD8327739
_publ_section_title
;
Structure prediction by ZEFSAII (Michael W. Deem and Ramdas Pophale) SiO2 
 PCOD8327739
Probable space group: P -6 2 M
;
_chemical_formula_sum "Si O2"
_cell_formula_units_Z 84
_cell_length_a 18.901043
_cell_length_b 18.901043
_cell_length_c 13.955879
_cell_angle_alpha 90.000000
_cell_angle_beta 90.000000
_cell_angle_gamma 120.000000
_cell_volume 4317.768636
_symmetry_space_group_name_H-M "P -6 2 M"
_symmetry_group_IT_number 189
_symmetry_cell_setting 'hexagonal'
loop_
_space_group_symop_operation_xyz
x,y,z
-x+y,-x,-z
-y,x-y,z
x,y,-z
-x+y,-x,z
-y,x-y,-z
x-y,-y,-z
-x,-x+y,-z
y,x,-z
y,x,z
x-y,-y,z
-x,-x+y,z
loop_
_atom_site_type_symbol
_atom_site_label
_atom_site_fract_x
_atom_site_fract_y
_atom_site_fract_z
Si Si1 0.615704 0.000000 0.613762
Si Si2 0.617610 0.839208 0.391325
Si Si3 0.776576 0.681784 0.768938
Si Si4 0.000000 0.457703 0.388534
Si Si5 0.639079 0.545397 0.888986
Si Si6 0.517218 0.178119 0.392207
Si Si7 0.817654 0.909762 0.887500
Si Si8 0.630055 0.397929 0.203121
O O1 0.612896 0.000000 0.500000
O O2 0.696731 0.082250 0.649010
O O3 0.536530 0.000000 0.658648
O O4 0.651833 0.855212 0.500000
O O5 0.675764 0.820436 0.326190
O O6 0.528378 0.758640 0.387989
O O7 0.728575 0.728575 0.741659
O O8 0.716630 0.595598 0.820036
O O9 0.847763 0.730392 0.844711
O O10 0.000000 0.471137 0.500000
O O11 0.917736 0.372923 0.361196
O O12 0.569971 0.569971 0.868011
O O13 0.603001 0.450082 0.863025
O O14 0.665590 0.561706 0.000000
O O15 0.551858 0.182059 0.500000
O O16 0.590765 0.212544 0.316885
O O17 0.884267 0.884267 0.859311
O O18 0.849185 0.000000 0.845947
O O19 0.805861 0.907741 0.000000
O O20 0.574961 0.300961 0.181445
#
# Coordination Sequence:
#
# PCOD8327739 Si02
#       8
#     6  12  12   6  12  12  12  12
#     4   9  20  36  52  76 111 156 194 223 273 348
#     4  10  21  35  54  78 112 151 195 236 279 339
#     4  10  20  33  55  82 110 140 186 240 284 338
#     4   9  20  34  56  82 109 148 190 231 285 334
#     4  10  21  40  64  84 109 149 192 236 287 344
#     4  10  21  36  57  85 117 151 191 240 289 342
#     4   9  17  30  50  78 109 140 176 226 290 352
#     4  10  24  38  56  88 120 147 188 233 285 338
#
# _framework density 19.454491999999998
#
# number of rings (size 3 to 8) (size 9 to 14) (size 15 to 20)
#    0.286    2.000    1.429    0.571    5.000    3.714 
#    0.000    0.000    0.000    0.000    0.000    2.000 
#    0.000    0.000    0.000    0.000    0.000    0.000 
#
# Total GULP energy -1041070.318604 kJ/mol
# GULP energy per Si atom -12393.694269 kJ/mol
# Density = 1.941021 g / cm^3
# Si number density = 19.454492 Si / 1000 Ang^3
#
#
#
# Elastic Constant Matrix: (Units=GPa)
#
#
# Indices 1 2 3 4 5 6 
#
# 1 81.5488 27.8854 24.1838 0.0000 0.0000 0.0000
# 2 27.8854 81.5488 24.1838 0.0000 0.0000 0.0000
# 3 24.1838 24.1838 59.0226 0.0000 0.0000 0.0000
# 4 0.0000 0.0000 0.0000 22.9969 0.0000 0.0000
# 5 0.0000 0.0000 0.0000 0.0000 22.9969 0.0000
# 6 0.0000 0.0000 0.0000 0.0000 0.0000 26.8317
#
#
#
# Elastic Compliance Matrix: (Units=1/GPa)
#
#
# Indices 1 2 3 4 5 6 
#
# 1 0.014897 -0.003738 -0.004572 0.000000 0.000000 0.000000
# 2 -0.003738 0.014897 -0.004572 0.000000 0.000000 0.000000
# 3 -0.004572 -0.004572 0.020689 0.000000 0.000000 0.000000
# 4 0.000000 0.000000 0.000000 0.043484 0.000000 0.000000
# 5 0.000000 0.000000 0.000000 0.000000 0.043484 0.000000
# 6 0.000000 0.000000 0.000000 0.000000 0.000000 0.037269
#
#
# Mechanical properties :
#
#
# Convention : Reuss Voigt Hill
#
# Bulk Modulus (GPa) = 40.45596 41.62516 41.04056
# Shear Modulus (GPa) = 23.95504 24.28959 24.12232
#
# Velocity S-wave (km/s) = 3.51285 3.53729 3.52509
# Velocity P-wave (km/s) = 6.10686 6.17462 6.14083
#
# Compressibility (1/GPa) = 0.02471824
#
# Stress axis : x y z
#
# Youngs Moduli (GPa) = 67.12906 67.12906 48.33391
#
# Poissons Ratio (x) = 0.25093 0.22099
# Poissons Ratio (y) = 0.25093 0.22099
# Poissons Ratio (z) = 0.30692 0.30692
#
# Static dielectric constant tensor:
#      x y z
#    x 3.568800 0.000000 0.000000 
#    y 0.000000 3.568800 0.000000 
#    z 0.000000 0.000000 3.483420 
# 
# 
# High freq. dielectric constant tensor:
#      x y z
#    x 1.749110 0.000000 0.000000 
#    y 0.000000 1.749110 0.000000 
#    z 0.000000 0.000000 1.746450 
# 
# From -- ./inp_files/2839.got.cif
#   From: 2010.03.12/outbox.cif.g09.slc.cpg/sg189_2_cif.got.tgz:2839.got - 2010.04.01 12:03:36.
