data_PCOD8327860
_publ_section_title
;
Structure prediction by ZEFSAII (Michael W. Deem and Ramdas Pophale) SiO2 
 PCOD8327860
Probable space group: P -6 2 M
;
_chemical_formula_sum "Si O2"
_cell_formula_units_Z 66
_cell_length_a 21.572557
_cell_length_b 21.572557
_cell_length_c 7.893784
_cell_angle_alpha 90.000000
_cell_angle_beta 90.000000
_cell_angle_gamma 120.000000
_cell_volume 3181.406181
_symmetry_space_group_name_H-M "P -6 2 M"
_symmetry_group_IT_number 189
_symmetry_cell_setting 'hexagonal'
loop_
_space_group_symop_operation_xyz
x,y,z
-x+y,-x,-z
-y,x-y,z
x,y,-z
-x+y,-x,z
-y,x-y,-z
x-y,-y,-z
-x,-x+y,-z
y,x,-z
y,x,z
x-y,-y,z
-x,-x+y,z
loop_
_atom_site_type_symbol
_atom_site_label
_atom_site_fract_x
_atom_site_fract_y
_atom_site_fract_z
Si Si1 0.721875 0.857767 0.698791
Si Si2 0.792912 0.324344 0.186844
Si Si3 0.298541 0.378446 0.299069
Si Si4 0.659699 0.192318 0.308739
Si Si5 0.917279 0.084633 0.000000
Si Si6 0.306913 0.919567 0.696016
O O1 0.746314 0.874567 0.500000
O O2 0.676390 0.894468 0.757509
O O3 0.788311 0.886400 0.825496
O O4 0.674117 0.773678 0.728758
O O5 0.732867 0.268817 0.314078
O O6 0.805258 0.403401 0.204624
O O7 0.867898 0.326887 0.204623
O O8 0.762739 0.296785 0.000000
O O9 0.300465 0.383039 0.500000
O O10 0.350413 0.350413 0.229212
O O11 0.324562 0.457448 0.225456
O O12 0.632285 0.171317 0.500000
O O13 0.000000 0.107434 0.000000
O O14 0.869903 0.000000 0.000000
O O15 0.319513 0.911935 0.500000
O O16 0.358875 0.000000 0.761083
#
# Coordination Sequence:
#
# PCOD8327860 Si02
#       6
#    12  12  12  12   6  12
#     4  10  21  42  69  98 130 167 218 272 326 391
#     4  12  25  40  59  88 126 163 209 263 319 376
#     4   9  18  35  63  94 121 152 198 259 318 376
#     4  11  22  40  63  85 117 163 212 253 308 380
#     4  12  27  44  66  98 136 180 224 270 328 396
#     4  10  21  39  64  93 124 162 211 264 317 380
#
# _framework density 20.745545
#
# number of rings (size 3 to 8) (size 9 to 14) (size 15 to 20)
#    0.000    1.455    1.818    3.727    1.273    3.273 
#    1.636    1.818    0.000    1.091    0.000    0.000 
#    0.000    0.000    0.000    0.000    0.000    0.000 
#
# Total GULP energy -818507.239308 kJ/mol
# GULP energy per Si atom -12401.624838 kJ/mol
# Density = 2.069833 g / cm^3
# Si number density = 20.745545 Si / 1000 Ang^3
#
#
#
# Elastic Constant Matrix: (Units=GPa)
#
#
# Indices 1 2 3 4 5 6 
#
# 1 115.6497 40.3706 35.3085 0.0000 0.0000 0.0000
# 2 40.3706 115.6497 35.3085 0.0000 0.0000 0.0000
# 3 35.3085 35.3085 64.9504 0.0000 0.0000 0.0000
# 4 0.0000 0.0000 0.0000 27.0350 0.0000 0.0000
# 5 0.0000 0.0000 0.0000 0.0000 27.0350 0.0000
# 6 0.0000 0.0000 0.0000 0.0000 0.0000 37.6396
#
#
#
# Elastic Compliance Matrix: (Units=1/GPa)
#
#
# Indices 1 2 3 4 5 6 
#
# 1 0.010893 -0.002391 -0.004621 0.000000 0.000000 0.000000
# 2 -0.002391 0.010893 -0.004621 0.000000 0.000000 0.000000
# 3 -0.004621 -0.004621 0.020421 0.000000 0.000000 0.000000
# 4 0.000000 0.000000 0.000000 0.036989 0.000000 0.000000
# 5 0.000000 0.000000 0.000000 0.000000 0.036989 0.000000
# 6 0.000000 0.000000 0.000000 0.000000 0.000000 0.026568
#
#
# Mechanical properties :
#
#
# Convention : Reuss Voigt Hill
#
# Bulk Modulus (GPa) = 52.80498 57.58054 55.19276
# Shear Modulus (GPa) = 29.01362 30.69273 29.85317
#
# Velocity S-wave (km/s) = 3.74377 3.85058 3.79755
# Velocity P-wave (km/s) = 6.64806 6.89820 6.77428
#
# Compressibility (1/GPa) = 0.01893761
#
# Stress axis : x y z
#
# Youngs Moduli (GPa) = 91.80620 91.80620 48.96935
#
# Poissons Ratio (x) = 0.21954 0.22631
# Poissons Ratio (y) = 0.21954 0.22631
# Poissons Ratio (z) = 0.42427 0.42427
#
# Static dielectric constant tensor:
#      x y z
#    x 3.851640 0.000000 0.000000 
#    y 0.000000 3.851640 0.000000 
#    z 0.000000 0.000000 3.556220 
# 
# 
# High freq. dielectric constant tensor:
#      x y z
#    x 1.816700 0.000000 0.000000 
#    y 0.000000 1.816700 0.000000 
#    z 0.000000 0.000000 1.802720 
# 
# From -- ./inp_files/1058.got.cif
#   From: 2010.03.12/outbox.cif.g09.slc.cpg/sg189_1_cif.got.tgz:1058.got - 2010.04.01 12:03:36.
