data_PCOD8327395
_publ_section_title
;
Structure prediction by ZEFSAII (Michael W. Deem and Ramdas Pophale) SiO2 
 PCOD8327395
Probable space group: P -6 C 2
;
_chemical_formula_sum "Si O2"
_cell_formula_units_Z 52
_cell_length_a 12.640578
_cell_length_b 12.640578
_cell_length_c 23.781205
_cell_angle_alpha 90.000000
_cell_angle_beta 90.000000
_cell_angle_gamma 120.000000
_cell_volume 3290.776248
_symmetry_space_group_name_H-M "P -6 C 2"
_symmetry_group_IT_number 188
_symmetry_cell_setting 'hexagonal'
loop_
_space_group_symop_operation_xyz
x,y,z
-x+y,-x,1/2-z
-y,x-y,z
x,y,1/2-z
-x+y,-x,z
-y,x-y,1/2-z
-y,-x,-z
-x+y,y,-z
x,x-y,-z
-x+y,y,1/2+z
x,x-y,1/2+z
-y,-x,1/2+z
loop_
_atom_site_type_symbol
_atom_site_label
_atom_site_fract_x
_atom_site_fract_y
_atom_site_fract_z
Si Si1 0.001951 0.247205 0.000001
Si Si2 0.571556 0.908218 0.600705
Si Si3 0.944392 0.472198 0.683361
Si Si4 0.571554 0.663333 0.600703
Si Si5 0.666667 0.333334 0.816346
O O1 0.015767 0.326041 0.945103
O O2 0.102557 0.205113 0.000000
O O3 0.015766 0.326034 0.054901
O O4 0.869353 0.130647 0.000000
O O5 0.568496 0.784246 0.617274
O O6 0.438830 0.877656 0.576490
O O7 0.599935 0.990413 0.657277
O O8 0.958461 0.479228 0.750000
O O9 0.805172 0.402593 0.662070
O O10 0.009580 0.400064 0.657274
O O11 0.666667 0.333334 0.750000
#
# Coordination Sequence:
#
# PCOD8327395 Si02
#       5
#    12  12  12  12   4
#     4  10  20  34  52  74 100 134 174 217 263 317
#     4   9  19  32  51  76 104 136 170 213 266 315
#     4   9  20  33  53  77 105 144 175 216 262 308
#     4   9  19  32  51  76 104 136 170 213 266 315
#     4   9  18  36  51  73 107 145 180 210 262 314
#
# _framework density 15.801743
#
# number of rings (size 3 to 8) (size 9 to 14) (size 15 to 20)
#    1.385    1.385    0.000    1.385    3.231    0.923 
#    0.000    2.308    0.000    0.000    0.000    0.000 
#    0.000    0.000    0.000    0.000    0.000    0.000 
#
# Total GULP energy -644324.987968 kJ/mol
# GULP energy per Si atom -12390.865153 kJ/mol
# Density = 1.576578 g / cm^3
# Si number density = 15.801743 Si / 1000 Ang^3
#
#
#
# Elastic Constant Matrix: (Units=GPa)
#
#
# Indices 1 2 3 4 5 6 
#
# 1 130.3243 70.7472 61.9732 0.0000 0.0000 -0.0001
# 2 70.7472 130.3238 61.9731 0.0000 0.0000 0.0000
# 3 61.9732 61.9731 106.4462 0.0000 0.0000 0.0000
# 4 0.0000 0.0000 0.0000 20.4779 0.0000 0.0000
# 5 0.0000 0.0000 0.0000 0.0000 20.4779 0.0000
# 6 -0.0001 0.0000 0.0000 0.0000 0.0000 29.7886
#
#
#
# Elastic Compliance Matrix: (Units=1/GPa)
#
#
# Indices 1 2 3 4 5 6 
#
# 1 0.012271 -0.004514 -0.004516 0.000000 0.000000 0.000000
# 2 -0.004514 0.012271 -0.004516 0.000000 0.000000 0.000000
# 3 -0.004516 -0.004516 0.014653 0.000000 0.000000 0.000000
# 4 0.000000 0.000000 0.000000 0.048833 0.000000 0.000000
# 5 0.000000 0.000000 0.000000 0.000000 0.048833 0.000000
# 6 0.000000 0.000000 0.000000 0.000000 0.000000 0.033570
#
#
# Mechanical properties :
#
#
# Convention : Reuss Voigt Hill
#
# Bulk Modulus (GPa) = 82.62687 84.05350 83.34018
# Shear Modulus (GPa) = 24.80660 25.64226 25.22443
#
# Velocity S-wave (km/s) = 3.96645 4.03271 3.99972
# Velocity P-wave (km/s) = 8.56622 8.65977 8.61313
#
# Compressibility (1/GPa) = 0.01210260
#
# Stress axis : x y z
#
# Youngs Moduli (GPa) = 81.49174 81.49138 68.24412
#
# Poissons Ratio (x) = 0.36784 0.30821
# Poissons Ratio (y) = 0.36784 0.30822
# Poissons Ratio (z) = 0.36804 0.36805
#
# Static dielectric constant tensor:
#      x y z
#    x 2.992720 0.000000 0.000000 
#    y 0.000000 2.992730 0.000000 
#    z 0.000000 0.000000 2.811360 
# 
# 
# High freq. dielectric constant tensor:
#      x y z
#    x 1.607140 0.000000 0.000000 
#    y 0.000000 1.607140 0.000000 
#    z 0.000000 0.000000 1.596320 
# 
# From -- ./inp_files/4426.got.cif
#   From: 2010.03.12/outbox.cif.g09.slc.cpg/sg188_3_cif.got.tgz:4426.got - 2010.04.01 12:01:06.
