data_PCOD8327112
_publ_section_title
;
Structure prediction by ZEFSAII (Michael W. Deem and Ramdas Pophale) SiO2 
 PCOD8327112
Probable space group: P -6 M 2
;
_chemical_formula_sum "Si O2"
_cell_formula_units_Z 66
_cell_length_a 12.464694
_cell_length_b 12.464694
_cell_length_c 28.844306
_cell_angle_alpha 90.000000
_cell_angle_beta 90.000000
_cell_angle_gamma 120.000000
_cell_volume 3881.092276
_symmetry_space_group_name_H-M "P -6 M 2"
_symmetry_group_IT_number 187
_symmetry_cell_setting 'hexagonal'
loop_
_space_group_symop_operation_xyz
x,y,z
-x+y,-x,-z
-y,x-y,z
x,y,-z
-x+y,-x,z
-y,x-y,-z
-y,-x,-z
-x+y,y,-z
x,x-y,-z
-x+y,y,z
x,x-y,z
-y,-x,z
loop_
_atom_site_type_symbol
_atom_site_label
_atom_site_fract_x
_atom_site_fract_y
_atom_site_fract_z
Si Si1 0.333409 0.415087 0.911727
Si Si2 0.583776 0.665595 0.735414
Si Si3 0.665319 0.583458 0.823328
Si Si4 0.250643 0.998776 0.000000
Si Si5 0.251323 0.998162 0.350562
Si Si6 0.246715 0.997735 0.548978
O O1 0.218087 0.436173 0.907160
O O2 0.452758 0.547243 0.919519
O O3 0.341842 0.349195 0.865535
O O4 0.321175 0.329803 0.954959
O O5 0.586654 0.793327 0.743489
O O6 0.442159 0.557842 0.735350
O O7 0.660667 0.648076 0.776065
O O8 0.646248 0.662204 0.687038
O O9 0.796384 0.592767 0.827430
O O10 0.559778 0.440223 0.824464
O O11 0.256670 0.128335 0.000000
O O12 0.108365 0.891636 0.000000
O O13 0.257657 0.128829 0.344164
O O14 0.304015 0.987438 0.401725
O O15 0.109377 0.890624 0.343892
O O16 0.305856 0.980739 0.500000
O O17 0.102137 0.897864 0.549783
O O18 0.260540 0.130270 0.547511
#
# Coordination Sequence:
#
# PCOD8327112 Si02
#       6
#    12  12  12   6  12  12
#     4  10  20  34  54  78 104 134 167 204 241 279
#     4  10  20  33  49  67  89 120 157 196 233 271
#     4  10  20  34  52  73  97 124 154 191 236 285
#     4  10  20  34  52  74 102 136 172 210 252 296
#     4   9  16  26  42  65  92 119 146 181 228 280
#     4   8  12  18  31  54  84 115 144 175 216 269
#
# _framework density 17.005523
#
# number of rings (size 3 to 8) (size 9 to 14) (size 15 to 20)
#    0.000    2.545    0.000    2.909    0.000    2.182 
#    0.000    2.727    0.000    8.545    0.000    0.000 
#    0.000    1.455    0.000    0.000    0.000    0.000 
#
# Total GULP energy -817835.100550 kJ/mol
# GULP energy per Si atom -12391.440917 kJ/mol
# Density = 1.696682 g / cm^3
# Si number density = 17.005523 Si / 1000 Ang^3
#
#
#
# Elastic Constant Matrix: (Units=GPa)
#
#
# Indices 1 2 3 4 5 6 
#
# 1 72.0292 41.4737 52.1217 0.0000 0.0004 0.0000
# 2 41.4737 72.0292 52.1217 0.0000 -0.0004 0.0000
# 3 52.1217 52.1217 161.8798 0.0000 0.0000 0.0000
# 4 0.0000 0.0000 0.0000 19.4810 0.0000 -0.0004
# 5 0.0004 -0.0004 0.0000 0.0000 19.4810 0.0000
# 6 0.0000 0.0000 0.0000 -0.0004 0.0000 15.2778
#
#
#
# Elastic Compliance Matrix: (Units=1/GPa)
#
#
# Indices 1 2 3 4 5 6 
#
# 1 0.022618 -0.010109 -0.004028 0.000000 -0.000001 0.000000
# 2 -0.010109 0.022618 -0.004028 0.000000 0.000001 0.000000
# 3 -0.004028 -0.004028 0.008771 0.000000 0.000000 0.000000
# 4 0.000000 0.000000 0.000000 0.051332 0.000000 0.000001
# 5 -0.000001 0.000001 0.000000 0.000000 0.051332 0.000000
# 6 0.000000 0.000000 0.000000 0.000001 0.000000 0.065455
#
#
# Mechanical properties :
#
#
# Convention : Reuss Voigt Hill
#
# Bulk Modulus (GPa) = 56.56406 66.37472 61.46939
# Shear Modulus (GPa) = 18.91444 21.52939 20.22191
#
# Velocity S-wave (km/s) = 3.33866 3.56198 3.45213
# Velocity P-wave (km/s) = 6.94238 7.48552 7.21906
#
# Compressibility (1/GPa) = 0.01767907
#
# Stress axis : x y z
#
# Youngs Moduli (GPa) = 44.21175 44.21175 114.01014
#
# Poissons Ratio (x) = 0.44693 0.45921
# Poissons Ratio (y) = 0.44693 0.45921
# Poissons Ratio (z) = 0.17808 0.17808
#
# Static dielectric constant tensor:
#      x y z
#    x 2.979200 0.000000 0.000000 
#    y 0.000000 2.979200 0.000000 
#    z 0.000000 0.000000 3.644930 
# 
# 
# High freq. dielectric constant tensor:
#      x y z
#    x 1.636530 0.000000 0.000000 
#    y 0.000000 1.636530 0.000000 
#    z 0.000000 0.000000 1.687870 
# 
# From -- ./inp_files/4411.got.cif
#   From: 2010.03.12/outbox.cif.g09.slc.cpg/sg187_3_cif.got.tgz:4411.got - 2010.04.01 11:58:23.
