data_PCOD8327429
_publ_section_title
;
Structure prediction by ZEFSAII (Michael W. Deem and Ramdas Pophale) SiO2 
 PCOD8327429
Probable space group: P -6 C 2
;
_chemical_formula_sum "Si O2"
_cell_formula_units_Z 66
_cell_length_a 20.073202
_cell_length_b 20.073202
_cell_length_c 9.705747
_cell_angle_alpha 90.000000
_cell_angle_beta 90.000000
_cell_angle_gamma 120.000000
_cell_volume 3386.826179
_symmetry_space_group_name_H-M "P -6 C 2"
_symmetry_group_IT_number 188
_symmetry_cell_setting 'hexagonal'
loop_
_space_group_symop_operation_xyz
x,y,z
-x+y,-x,1/2-z
-y,x-y,z
x,y,1/2-z
-x+y,-x,z
-y,x-y,1/2-z
-y,-x,-z
-x+y,y,-z
x,x-y,-z
-x+y,y,1/2+z
x,x-y,1/2+z
-y,-x,1/2+z
loop_
_atom_site_type_symbol
_atom_site_label
_atom_site_fract_x
_atom_site_fract_y
_atom_site_fract_z
Si Si1 0.462243 0.797901 0.415974
Si Si2 0.344696 0.066549 0.090827
Si Si3 0.766580 0.233421 0.000000
Si Si4 0.694844 0.429128 0.750000
Si Si5 0.126126 0.873875 0.000000
Si Si6 0.634624 0.927950 0.095993
Si Si7 0.964679 0.819015 0.901519
O O1 0.442635 0.783675 0.250000
O O2 0.415743 0.831485 0.500000
O O3 0.441382 0.720691 0.500000
O O4 0.551272 0.858076 0.438962
O O5 0.343213 0.044890 0.250000
O O6 0.268957 0.069976 0.050414
O O7 0.417724 0.148367 0.060077
O O8 0.345707 0.998711 0.004501
O O9 0.772250 0.291830 0.883231
O O10 0.752168 0.393415 0.750000
O O11 0.102336 0.797403 0.086462
O O12 0.138980 0.943067 0.100093
O O13 0.637931 0.958383 0.250000
O O14 0.936101 0.823370 0.750000
O O15 0.929035 0.858070 0.000000
#
# Coordination Sequence:
#
# PCOD8327429 Si02
#       7
#    12  12   6   6   6  12  12
#     4  11  23  41  64  93 125 167 208 255 307 368
#     4  10  22  37  59  95 123 160 202 256 309 373
#     4  12  20  40  68  91 124 162 204 251 320 360
#     4  10  24  42  64  92 122 158 206 254 298 380
#     4  10  20  40  62  91 118 162 214 257 310 362
#     4  10  22  39  65  92 122 160 210 258 315 368
#     4  10  21  36  57  87 125 157 204 254 303 359
#
# _framework density 19.487272000000001
#
# number of rings (size 3 to 8) (size 9 to 14) (size 15 to 20)
#    0.182    1.455    2.727    1.818    1.273    5.818 
#    0.545    1.818    0.000    0.000    0.000    0.000 
#    0.000    0.000    0.000    0.000    0.000    0.000 
#
# Total GULP energy -818208.300022 kJ/mol
# GULP energy per Si atom -12397.095455 kJ/mol
# Density = 1.944292 g / cm^3
# Si number density = 19.487272 Si / 1000 Ang^3
#
#
#
# Elastic Constant Matrix: (Units=GPa)
#
#
# Indices 1 2 3 4 5 6 
#
# 1 84.2331 31.7863 36.1415 0.0001 0.0000 0.0000
# 2 31.7863 84.2331 36.1415 -0.0001 0.0000 0.0000
# 3 36.1415 36.1415 113.7322 0.0000 0.0000 0.0000
# 4 0.0001 -0.0001 0.0000 31.9092 0.0000 0.0000
# 5 0.0000 0.0000 0.0000 0.0000 31.9092 0.0001
# 6 0.0000 0.0000 0.0000 0.0000 0.0001 26.2234
#
#
#
# Elastic Compliance Matrix: (Units=1/GPa)
#
#
# Indices 1 2 3 4 5 6 
#
# 1 0.014907 -0.004160 -0.003415 0.000000 0.000000 0.000000
# 2 -0.004160 0.014907 -0.003415 0.000000 0.000000 0.000000
# 3 -0.003415 -0.003415 0.010963 0.000000 0.000000 0.000000
# 4 0.000000 0.000000 0.000000 0.031339 0.000000 0.000000
# 5 0.000000 0.000000 0.000000 0.000000 0.031339 0.000000
# 6 0.000000 0.000000 0.000000 0.000000 0.000000 0.038134
#
#
# Mechanical properties :
#
#
# Convention : Reuss Voigt Hill
#
# Bulk Modulus (GPa) = 53.20149 54.48188 53.84169
# Shear Modulus (GPa) = 29.44039 29.88364 29.66201
#
# Velocity S-wave (km/s) = 3.89105 3.92024 3.90567
# Velocity P-wave (km/s) = 6.89543 6.96487 6.93024
#
# Compressibility (1/GPa) = 0.01879646
#
# Stress axis : x y z
#
# Youngs Moduli (GPa) = 67.08276 67.08276 91.21508
#
# Poissons Ratio (x) = 0.27906 0.31151
# Poissons Ratio (y) = 0.27906 0.31151
# Poissons Ratio (z) = 0.22910 0.22910
#
# Static dielectric constant tensor:
#      x y z
#    x 3.488500 0.000000 0.000000 
#    y 0.000000 3.488500 0.000000 
#    z 0.000000 0.000000 3.605010 
# 
# 
# High freq. dielectric constant tensor:
#      x y z
#    x 1.751620 0.000000 0.000000 
#    y 0.000000 1.751620 0.000000 
#    z 0.000000 0.000000 1.771250 
# 
# From -- ./inp_files/819.got.cif
#   From: 2010.03.12/outbox.cif.g09.slc.cpg/sg188_1_cif.got.tgz:819.got - 2010.04.01 12:01:06.
