data_PCOD8327400
_publ_section_title
;
Structure prediction by ZEFSAII (Michael W. Deem and Ramdas Pophale) SiO2 
 PCOD8327400
Probable space group: P -6 C 2
;
_chemical_formula_sum "Si O2"
_cell_formula_units_Z 72
_cell_length_a 24.060918
_cell_length_b 24.060918
_cell_length_c 8.625149
_cell_angle_alpha 90.000000
_cell_angle_beta 90.000000
_cell_angle_gamma 120.000000
_cell_volume 4324.357834
_symmetry_space_group_name_H-M "P -6 C 2"
_symmetry_group_IT_number 188
_symmetry_cell_setting 'hexagonal'
loop_
_space_group_symop_operation_xyz
x,y,z
-x+y,-x,1/2-z
-y,x-y,z
x,y,1/2-z
-x+y,-x,z
-y,x-y,1/2-z
-y,-x,-z
-x+y,y,-z
x,x-y,-z
-x+y,y,1/2+z
x,x-y,1/2+z
-y,-x,1/2+z
loop_
_atom_site_type_symbol
_atom_site_label
_atom_site_fract_x
_atom_site_fract_y
_atom_site_fract_z
Si Si1 0.402486 0.923147 0.565995
Si Si2 0.452242 0.785044 0.565652
Si Si3 0.187984 0.038735 0.077444
Si Si4 0.658110 0.991586 0.935881
Si Si5 0.883997 0.223699 0.418996
Si Si6 0.731577 0.806079 0.566701
O O1 0.402506 0.916271 0.750000
O O2 0.473141 0.946282 0.500000
O O3 0.351466 0.855444 0.491816
O O4 0.383263 0.975091 0.515512
O O5 0.449832 0.783176 0.750000
O O6 0.382097 0.764194 0.500000
O O7 0.474768 0.737384 0.500000
O O8 0.159077 0.016457 0.250000
O O9 0.263675 0.084739 0.089520
O O10 0.157435 0.078718 0.000000
O O11 0.171274 0.976473 0.975759
O O12 0.653091 0.988917 0.750000
O O13 0.708977 0.063710 0.996728
O O14 0.681595 0.943004 0.989931
O O15 0.868774 0.239411 0.250000
O O16 0.814576 0.185425 0.500000
O O17 0.722940 0.800478 0.750000
O O18 0.713046 0.856523 0.500000
#
# Coordination Sequence:
#
# PCOD8327400 Si02
#       6
#    12  12  12  12  12  12
#     4  11  22  37  54  73  95 126 163 201 244 297
#     4  11  21  35  52  71  92 117 152 200 254 308
#     4   9  16  28  45  66  89 117 150 186 226 275
#     4  10  20  35  51  71  97 127 160 198 239 286
#     4   8  15  26  44  68  95 120 146 178 216 258
#     4  11  21  33  48  69  95 125 159 201 249 298
#
# _framework density 16.64987
#
# number of rings (size 3 to 8) (size 9 to 14) (size 15 to 20)
#    0.000    2.000    0.000    7.667    0.000    5.333 
#    0.000    3.333    0.000    0.333    0.000    2.333 
#    0.000    0.000    0.000    0.500    0.000    8.000 
#
# Total GULP energy -892602.456996 kJ/mol
# GULP energy per Si atom -12397.256347 kJ/mol
# Density = 1.661197 g / cm^3
# Si number density = 16.649870 Si / 1000 Ang^3
#
#
#
# Elastic Constant Matrix: (Units=GPa)
#
#
# Indices 1 2 3 4 5 6 
#
# 1 87.5170 53.2278 34.8990 -0.0008 0.0000 0.0000
# 2 53.2278 87.5170 34.8990 0.0008 0.0000 0.0000
# 3 34.8990 34.8990 126.1985 0.0000 0.0000 0.0000
# 4 -0.0008 0.0008 0.0000 25.4293 0.0000 0.0000
# 5 0.0000 0.0000 0.0000 0.0000 25.4293 -0.0008
# 6 0.0000 0.0000 0.0000 0.0000 -0.0008 17.1446
#
#
#
# Elastic Compliance Matrix: (Units=1/GPa)
#
#
# Indices 1 2 3 4 5 6 
#
# 1 0.018699 -0.010465 -0.002277 0.000001 0.000000 0.000000
# 2 -0.010465 0.018699 -0.002277 -0.000001 0.000000 0.000000
# 3 -0.002277 -0.002277 0.009183 0.000000 0.000000 0.000000
# 4 0.000001 -0.000001 0.000000 0.039325 0.000000 0.000000
# 5 0.000000 0.000000 0.000000 0.000000 0.039325 0.000002
# 6 0.000000 0.000000 0.000000 0.000000 0.000002 0.058327
#
#
# Mechanical properties :
#
#
# Convention : Reuss Voigt Hill
#
# Bulk Modulus (GPa) = 60.44630 60.80936 60.62783
# Shear Modulus (GPa) = 22.81954 25.48111 24.15032
#
# Velocity S-wave (km/s) = 3.70611 3.91629 3.81265
# Velocity P-wave (km/s) = 7.39574 7.55324 7.47490
#
# Compressibility (1/GPa) = 0.01654361
#
# Stress axis : x y z
#
# Youngs Moduli (GPa) = 53.47881 53.47881 108.89136
#
# Poissons Ratio (x) = 0.55964 0.24796
# Poissons Ratio (y) = 0.55964 0.24796
# Poissons Ratio (z) = 0.12178 0.12178
#
# Static dielectric constant tensor:
#      x y z
#    x 3.024060 0.000000 0.000000 
#    y 0.000000 3.024060 0.000000 
#    z 0.000000 0.000000 3.368830 
# 
# 
# High freq. dielectric constant tensor:
#      x y z
#    x 1.614860 0.000000 0.000000 
#    y 0.000000 1.614860 0.000000 
#    z 0.000000 0.000000 1.661580 
# 
# From -- ./inp_files/1004.got.cif
#   From: 2010.03.12/outbox.cif.g09.slc.cpg/sg188_1_cif.got.tgz:1004.got - 2010.04.01 12:01:06.
