data_PCOD8327585
_publ_section_title
;
Structure prediction by ZEFSAII (Michael W. Deem and Ramdas Pophale) SiO2 
 PCOD8327585
Probable space group: P -6 2 M
;
_chemical_formula_sum "Si O2"
_cell_formula_units_Z 72
_cell_length_a 23.386878
_cell_length_b 23.386878
_cell_length_c 8.808613
_cell_angle_alpha 90.000000
_cell_angle_beta 90.000000
_cell_angle_gamma 120.000000
_cell_volume 4172.368538
_symmetry_space_group_name_H-M "P -6 2 M"
_symmetry_group_IT_number 189
_symmetry_cell_setting 'hexagonal'
loop_
_space_group_symop_operation_xyz
x,y,z
-x+y,-x,-z
-y,x-y,z
x,y,-z
-x+y,-x,z
-y,x-y,-z
x-y,-y,-z
-x,-x+y,-z
y,x,-z
y,x,z
x-y,-y,z
-x,-x+y,z
loop_
_atom_site_type_symbol
_atom_site_label
_atom_site_fract_x
_atom_site_fract_y
_atom_site_fract_z
Si Si1 0.210089 0.547671 0.680404
Si Si2 0.724277 0.926411 0.822542
Si Si3 0.668953 0.210745 0.179615
Si Si4 0.732261 0.597960 0.666902
Si Si5 0.591316 0.864284 0.669007
Si Si6 0.801712 0.729538 0.178513
O O1 0.215698 0.560243 0.500000
O O2 0.279392 0.557554 0.738342
O O3 0.192745 0.596414 0.768690
O O4 0.149326 0.474312 0.720329
O O5 0.659196 0.919901 0.744108
O O6 0.743151 0.872658 0.757376
O O7 0.784998 0.000000 0.790322
O O8 0.708608 0.913702 0.000000
O O9 0.677706 0.149065 0.229488
O O10 0.677441 0.220602 0.000000
O O11 0.716206 0.614742 0.500000
O O12 0.797796 0.593584 0.659945
O O13 0.742713 0.656139 0.779877
O O14 0.584469 0.887195 0.500000
O O15 0.783331 0.783331 0.244554
O O16 0.805382 0.735170 0.000000
#
# Coordination Sequence:
#
# PCOD8327585 Si02
#       6
#    12  12  12  12  12  12
#     4  10  19  31  44  61  89 123 158 199 246 290
#     4   9  17  30  49  72  97 124 154 189 226 266
#     4  11  20  29  43  65  91 121 159 200 243 291
#     4   8  16  29  45  64  86 116 153 191 230 271
#     4   9  17  30  46  65  90 120 154 193 237 282
#     4   9  17  29  47  71  97 123 150 182 222 267
#
# _framework density 17.256385000000002
#
# number of rings (size 3 to 8) (size 9 to 14) (size 15 to 20)
#    0.000    2.667    0.000    3.833    0.000    5.333 
#    0.000    0.000    0.000    1.333    0.000    7.000 
#    0.000    0.000    0.000    8.333    0.000    8.667 
#
# Total GULP energy -892333.109606 kJ/mol
# GULP energy per Si atom -12393.515411 kJ/mol
# Density = 1.721711 g / cm^3
# Si number density = 17.256385 Si / 1000 Ang^3
#
#
#
# Elastic Constant Matrix: (Units=GPa)
#
#
# Indices 1 2 3 4 5 6 
#
# 1 89.3197 47.3185 19.6563 0.0000 0.0000 0.0000
# 2 47.3185 89.3197 19.6563 0.0000 0.0000 0.0000
# 3 19.6563 19.6563 54.2030 0.0000 0.0000 0.0000
# 4 0.0000 0.0000 0.0000 17.8851 0.0000 0.0000
# 5 0.0000 0.0000 0.0000 0.0000 17.8851 0.0000
# 6 0.0000 0.0000 0.0000 0.0000 0.0000 21.0006
#
#
#
# Elastic Compliance Matrix: (Units=1/GPa)
#
#
# Indices 1 2 3 4 5 6 
#
# 1 0.015990 -0.007819 -0.002963 0.000000 0.000000 0.000000
# 2 -0.007819 0.015990 -0.002963 0.000000 0.000000 0.000000
# 3 -0.002963 -0.002963 0.020598 0.000000 0.000000 0.000000
# 4 0.000000 0.000000 0.000000 0.055912 0.000000 0.000000
# 5 0.000000 0.000000 0.000000 0.000000 0.055912 0.000000
# 6 0.000000 0.000000 0.000000 0.000000 0.000000 0.047618
#
#
# Mechanical properties :
#
#
# Convention : Reuss Voigt Hill
#
# Bulk Modulus (GPa) = 39.85999 45.12274 42.49137
# Shear Modulus (GPa) = 20.17154 21.10158 20.63656
#
# Velocity S-wave (km/s) = 3.42267 3.50069 3.46190
# Velocity P-wave (km/s) = 6.22643 6.52265 6.37626
#
# Compressibility (1/GPa) = 0.02508781
#
# Stress axis : x y z
#
# Youngs Moduli (GPa) = 62.53913 62.53913 48.54758
#
# Poissons Ratio (x) = 0.48898 0.14386
# Poissons Ratio (y) = 0.48898 0.14386
# Poissons Ratio (z) = 0.18532 0.18532
#
# Static dielectric constant tensor:
#      x y z
#    x 3.315490 0.000000 0.000000 
#    y 0.000000 3.315490 0.000000 
#    z 0.000000 0.000000 3.323410 
# 
# 
# High freq. dielectric constant tensor:
#      x y z
#    x 1.644850 0.000000 0.000000 
#    y 0.000000 1.644850 0.000000 
#    z 0.000000 0.000000 1.669310 
# 
# From -- ./inp_files/1291.got.cif
#   From: 2010.03.12/outbox.cif.g09.slc.cpg/sg189_1_cif.got.tgz:1291.got - 2010.04.01 12:03:36.
