data_PCOD8327576
_publ_section_title
;
Structure prediction by ZEFSAII (Michael W. Deem and Ramdas Pophale) SiO2 
 PCOD8327576
Probable space group: P -6 2 M
;
_chemical_formula_sum "Si O2"
_cell_formula_units_Z 96
_cell_length_a 23.217041
_cell_length_b 23.217041
_cell_length_c 13.337928
_cell_angle_alpha 90.000000
_cell_angle_beta 90.000000
_cell_angle_gamma 120.000000
_cell_volume 6226.338633
_symmetry_space_group_name_H-M "P -6 2 M"
_symmetry_group_IT_number 189
_symmetry_cell_setting 'hexagonal'
loop_
_space_group_symop_operation_xyz
x,y,z
-x+y,-x,-z
-y,x-y,z
x,y,-z
-x+y,-x,z
-y,x-y,-z
x-y,-y,-z
-x,-x+y,-z
y,x,-z
y,x,z
x-y,-y,z
-x,-x+y,z
loop_
_atom_site_type_symbol
_atom_site_label
_atom_site_fract_x
_atom_site_fract_y
_atom_site_fract_z
Si Si1 0.265945 0.839590 0.297360
Si Si2 0.633799 0.187687 0.115666
Si Si3 0.924345 0.520324 0.733020
Si Si4 0.862568 0.590728 0.618049
Si Si5 0.188676 0.260665 0.382774
Si Si6 0.699964 0.482263 0.116627
Si Si7 0.405737 0.925730 0.613086
Si Si8 0.791564 0.715093 0.382685
O O1 0.212116 0.767124 0.338205
O O2 0.282441 0.830263 0.182341
O O3 0.331498 0.868821 0.364494
O O4 0.239355 0.891562 0.308189
O O5 0.624741 0.122412 0.170711
O O6 0.577329 0.204888 0.147288
O O7 0.705358 0.250002 0.141327
O O8 0.627830 0.169629 0.000000
O O9 0.901192 0.553103 0.648611
O O10 0.917086 0.453756 0.688055
O O11 0.000000 0.571115 0.765423
O O12 0.856477 0.590310 0.500000
O O13 0.903459 0.665827 0.660858
O O14 0.200970 0.263041 0.500000
O O15 0.207620 0.207620 0.334660
O O16 0.112512 0.241495 0.361250
O O17 0.703417 0.502236 0.000000
O O18 0.423487 0.916462 0.500000
O O19 0.415701 0.000000 0.626476
O O20 0.778508 0.691703 0.500000
O O21 0.761353 0.761353 0.355409
#
# Coordination Sequence:
#
# PCOD8327576 Si02
#       8
#    12  12  12  12  12  12  12  12
#     4  11  18  30  50  68  91 118 155 197 235 275
#     4  10  20  37  55  72  90 114 155 204 248 290
#     4  11  21  32  47  68  95 128 155 187 235 281
#     4  10  19  30  45  67  94 125 156 189 227 273
#     4   8  14  25  42  63  87 118 155 193 224 253
#     4  10  20  35  56  72  86 113 153 203 250 287
#     4  10  20  32  46  66  94 127 158 187 226 280
#     4   9  17  28  44  68  97 129 160 188 223 271
#
# _framework density 15.418372
#
# number of rings (size 3 to 8) (size 9 to 14) (size 15 to 20)
#    0.000    2.125    2.500    3.250    0.000    3.500 
#    0.000    0.000    0.000    1.750    0.000    5.250 
#    0.000    0.000    0.000    0.000    0.000    0.000 
#
# Total GULP energy -1189962.683634 kJ/mol
# GULP energy per Si atom -12395.444621 kJ/mol
# Density = 1.538328 g / cm^3
# Si number density = 15.418372 Si / 1000 Ang^3
#
#
#
# Elastic Constant Matrix: (Units=GPa)
#
#
# Indices 1 2 3 4 5 6 
#
# 1 85.8279 36.0321 26.1128 0.0000 0.0000 0.0000
# 2 36.0321 85.8279 26.1128 0.0000 0.0000 0.0000
# 3 26.1128 26.1128 55.5766 0.0000 0.0000 0.0000
# 4 0.0000 0.0000 0.0000 19.3011 0.0000 0.0000
# 5 0.0000 0.0000 0.0000 0.0000 19.3011 0.0000
# 6 0.0000 0.0000 0.0000 0.0000 0.0000 24.8979
#
#
#
# Elastic Compliance Matrix: (Units=1/GPa)
#
#
# Indices 1 2 3 4 5 6 
#
# 1 0.015179 -0.004903 -0.004828 0.000000 0.000000 0.000000
# 2 -0.004903 0.015179 -0.004828 0.000000 0.000000 0.000000
# 3 -0.004828 -0.004828 0.022530 0.000000 0.000000 0.000000
# 4 0.000000 0.000000 0.000000 0.051810 0.000000 0.000000
# 5 0.000000 0.000000 0.000000 0.000000 0.051810 0.000000
# 6 0.000000 0.000000 0.000000 0.000000 0.000000 0.040164
#
#
# Mechanical properties :
#
#
# Convention : Reuss Voigt Hill
#
# Bulk Modulus (GPa) = 42.07157 44.86085 43.46621
# Shear Modulus (GPa) = 21.39375 21.96501 21.67938
#
# Velocity S-wave (km/s) = 3.72902 3.77848 3.75383
# Velocity P-wave (km/s) = 6.77397 6.94225 6.85863
#
# Compressibility (1/GPa) = 0.02376902
#
# Stress axis : x y z
#
# Youngs Moduli (GPa) = 65.88217 65.88217 44.38544
#
# Poissons Ratio (x) = 0.32305 0.21428
# Poissons Ratio (y) = 0.32305 0.21428
# Poissons Ratio (z) = 0.31807 0.31807
#
# Static dielectric constant tensor:
#      x y z
#    x 3.075230 0.000000 0.000000 
#    y 0.000000 3.075230 0.000000 
#    z 0.000000 0.000000 2.745990 
# 
# 
# High freq. dielectric constant tensor:
#      x y z
#    x 1.592160 0.000000 0.000000 
#    y 0.000000 1.592160 0.000000 
#    z 0.000000 0.000000 1.563740 
# 
# From -- ./inp_files/2268.got.cif
#   From: 2010.03.12/outbox.cif.g09.slc.cpg/sg189_2_cif.got.tgz:2268.got - 2010.04.01 12:03:36.
