data_PCOD8327577
_publ_section_title
;
Structure prediction by ZEFSAII (Michael W. Deem and Ramdas Pophale) SiO2 
 PCOD8327577
Probable space group: P -6 2 M
;
_chemical_formula_sum "Si O2"
_cell_formula_units_Z 72
_cell_length_a 23.718531
_cell_length_b 23.718531
_cell_length_c 9.067651
_cell_angle_alpha 90.000000
_cell_angle_beta 90.000000
_cell_angle_gamma 120.000000
_cell_volume 4417.748656
_symmetry_space_group_name_H-M "P -6 2 M"
_symmetry_group_IT_number 189
_symmetry_cell_setting 'hexagonal'
loop_
_space_group_symop_operation_xyz
x,y,z
-x+y,-x,-z
-y,x-y,z
x,y,-z
-x+y,-x,z
-y,x-y,-z
x-y,-y,-z
-x,-x+y,-z
y,x,-z
y,x,z
x-y,-y,z
-x,-x+y,z
loop_
_atom_site_type_symbol
_atom_site_label
_atom_site_fract_x
_atom_site_fract_y
_atom_site_fract_z
Si Si1 0.377380 0.512155 0.673903
Si Si2 0.074476 0.363994 0.172091
Si Si3 0.184207 0.362188 0.664704
Si Si4 0.630200 0.485289 0.171608
Si Si5 0.301251 0.376899 0.169357
Si Si6 0.738266 0.483459 0.337292
O O1 0.382571 0.503790 0.500000
O O2 0.447497 0.562688 0.740224
O O3 0.352461 0.442616 0.748441
O O4 0.329232 0.540954 0.708890
O O5 0.114292 0.335703 0.258202
O O6 0.099596 0.439075 0.211112
O O7 0.000000 0.322303 0.222396
O O8 0.083480 0.356831 0.000000
O O9 0.173877 0.332776 0.500000
O O10 0.229581 0.342627 0.757814
O O11 0.219926 0.439322 0.658484
O O12 0.679678 0.460308 0.221519
O O13 0.615836 0.470926 0.000000
O O14 0.325153 0.325153 0.182453
O O15 0.296048 0.394128 0.000000
O O16 0.708454 0.457038 0.500000
#
# Coordination Sequence:
#
# PCOD8327577 Si02
#       6
#    12  12  12  12  12  12
#     4  10  20  33  48  65  88 118 150 191 242 289
#     4   9  18  32  49  69  94 125 158 191 230 277
#     4   9  17  30  49  70  92 118 148 185 225 268
#     4  10  19  30  46  66  88 115 150 195 241 285
#     4  10  20  33  50  71  94 122 155 189 228 277
#     4   8  16  31  46  59  78 109 146 183 230 284
#
# _framework density 16.297893999999999
#
# number of rings (size 3 to 8) (size 9 to 14) (size 15 to 20)
#    0.000    2.667    0.000    3.000    0.000    7.667 
#    1.000    1.667    0.000    0.000    0.000    0.000 
#    0.000    0.000    0.000    0.500    0.000    9.667 
#
# Total GULP energy -892689.233386 kJ/mol
# GULP energy per Si atom -12398.461575 kJ/mol
# Density = 1.626080 g / cm^3
# Si number density = 16.297894 Si / 1000 Ang^3
#
#
#
# Elastic Constant Matrix: (Units=GPa)
#
#
# Indices 1 2 3 4 5 6 
#
# 1 71.0048 40.5067 49.3275 0.0000 0.0000 0.0000
# 2 40.5067 71.0048 49.3275 0.0000 0.0000 0.0000
# 3 49.3275 49.3275 111.0899 0.0000 0.0000 0.0000
# 4 0.0000 0.0000 0.0000 21.8392 0.0000 0.0000
# 5 0.0000 0.0000 0.0000 0.0000 21.8392 0.0000
# 6 0.0000 0.0000 0.0000 0.0000 0.0000 15.2490
#
#
#
# Elastic Compliance Matrix: (Units=1/GPa)
#
#
# Indices 1 2 3 4 5 6 
#
# 1 0.023779 -0.009010 -0.006558 0.000000 0.000000 0.000000
# 2 -0.009010 0.023779 -0.006558 0.000000 0.000000 0.000000
# 3 -0.006558 -0.006558 0.014826 0.000000 0.000000 0.000000
# 4 0.000000 0.000000 0.000000 0.045789 0.000000 0.000000
# 5 0.000000 0.000000 0.000000 0.000000 0.045789 0.000000
# 6 0.000000 0.000000 0.000000 0.000000 0.000000 0.065578
#
#
# Mechanical properties :
#
#
# Convention : Reuss Voigt Hill
#
# Bulk Modulus (GPa) = 55.14976 59.04699 57.09837
# Shear Modulus (GPa) = 18.52968 19.38135 18.95551
#
# Velocity S-wave (km/s) = 3.37551 3.45221 3.41407
# Velocity P-wave (km/s) = 7.00743 7.22487 7.11698
#
# Compressibility (1/GPa) = 0.01813245
#
# Stress axis : x y z
#
# Youngs Moduli (GPa) = 42.05319 42.05319 67.44945
#
# Poissons Ratio (x) = 0.37888 0.44235
# Poissons Ratio (y) = 0.37888 0.44235
# Poissons Ratio (z) = 0.27580 0.27580
#
# Static dielectric constant tensor:
#      x y z
#    x 2.946670 0.000000 0.000000 
#    y 0.000000 2.946670 0.000000 
#    z 0.000000 0.000000 3.271020 
# 
# 
# High freq. dielectric constant tensor:
#      x y z
#    x 1.598660 0.000000 0.000000 
#    y 0.000000 1.598660 0.000000 
#    z 0.000000 0.000000 1.642170 
# 
# From -- ./inp_files/1213.got.cif
#   From: 2010.03.12/outbox.cif.g09.slc.cpg/sg189_1_cif.got.tgz:1213.got - 2010.04.01 12:03:36.
