data_PCOD8327315
_publ_section_title
;
Structure prediction by ZEFSAII (Michael W. Deem and Ramdas Pophale) SiO2 
 PCOD8327315
Probable space group: P -6 C 2
;
_chemical_formula_sum "Si O2"
_cell_formula_units_Z 48
_cell_length_a 18.964578
_cell_length_b 18.964578
_cell_length_c 8.421902
_cell_angle_alpha 90.000000
_cell_angle_beta 90.000000
_cell_angle_gamma 120.000000
_cell_volume 2623.174499
_symmetry_space_group_name_H-M "P -6 C 2"
_symmetry_group_IT_number 188
_symmetry_cell_setting 'hexagonal'
loop_
_space_group_symop_operation_xyz
x,y,z
-x+y,-x,1/2-z
-y,x-y,z
x,y,1/2-z
-x+y,-x,z
-y,x-y,1/2-z
-y,-x,-z
-x+y,y,-z
x,x-y,-z
-x+y,y,1/2+z
x,x-y,1/2+z
-y,-x,1/2+z
loop_
_atom_site_type_symbol
_atom_site_label
_atom_site_fract_x
_atom_site_fract_y
_atom_site_fract_z
Si Si1 0.904347 0.658801 0.935992
Si Si2 0.427350 0.425595 0.436551
Si Si3 0.139614 0.418253 0.063224
Si Si4 0.760903 0.808248 0.565667
O O1 0.903037 0.645082 0.750000
O O2 0.814029 0.628058 0.000000
O O3 0.936741 0.604357 0.018873
O O4 0.961275 0.754934 0.976494
O O5 0.423965 0.433781 0.250000
O O6 0.519235 0.480766 0.500000
O O7 0.373735 0.461234 0.519335
O O8 0.135223 0.401090 0.250000
O O9 0.233839 0.467678 0.000000
O O10 0.098753 0.335230 0.962961
O O11 0.780885 0.810619 0.750000
O O12 0.802197 0.901099 0.500000
#
# Coordination Sequence:
#
# PCOD8327315 Si02
#       4
#    12  12  12  12
#     4  11  21  35  53  77 105 138 177 223 271 321
#     4  11  21  35  53  77 105 138 177 223 271 321
#     4  10  17  28  46  71  99 129 161 200 245 298
#     4  10  17  28  46  71  99 129 161 200 245 298
#
# _framework density 18.298438999999998
#
# number of rings (size 3 to 8) (size 9 to 14) (size 15 to 20)
#    0.000    1.500    0.000   13.500    0.000    0.000 
#    0.000    0.000    0.000    1.500    0.000   10.500 
#    0.000    0.000    0.000    0.000    0.000    0.000 
#
# Total GULP energy -594969.862473 kJ/mol
# GULP energy per Si atom -12395.205468 kJ/mol
# Density = 1.825679 g / cm^3
# Si number density = 18.298439 Si / 1000 Ang^3
#
#
#
# Elastic Constant Matrix: (Units=GPa)
#
#
# Indices 1 2 3 4 5 6 
#
# 1 72.9177 55.7459 25.9552 -0.0003 0.0000 0.0000
# 2 55.7459 72.9177 25.9552 0.0003 0.0000 0.0000
# 3 25.9552 25.9552 124.4911 0.0000 0.0000 0.0000
# 4 -0.0003 0.0003 0.0000 26.7981 0.0000 0.0000
# 5 0.0000 0.0000 0.0000 0.0000 26.7981 -0.0003
# 6 0.0000 0.0000 0.0000 0.0000 -0.0003 8.5859
#
#
#
# Elastic Compliance Matrix: (Units=1/GPa)
#
#
# Indices 1 2 3 4 5 6 
#
# 1 0.033360 -0.024874 -0.001769 0.000001 0.000000 0.000000
# 2 -0.024874 0.033360 -0.001769 -0.000001 0.000000 0.000000
# 3 -0.001769 -0.001769 0.008770 0.000000 0.000000 0.000000
# 4 0.000001 -0.000001 0.000000 0.037316 0.000000 0.000000
# 5 0.000000 0.000000 0.000000 0.000000 0.037316 0.000001
# 6 0.000000 0.000000 0.000000 0.000000 0.000001 0.116470
#
#
# Mechanical properties :
#
#
# Convention : Reuss Voigt Hill
#
# Bulk Modulus (GPa) = 53.57485 53.95992 53.76739
# Shear Modulus (GPa) = 15.16802 23.28110 19.22456
#
# Velocity S-wave (km/s) = 2.88223 3.57080 3.24483
# Velocity P-wave (km/s) = 6.35754 6.82302 6.59439
#
# Compressibility (1/GPa) = 0.01866547
#
# Stress axis : x y z
#
# Youngs Moduli (GPa) = 29.97562 29.97562 114.01930
#
# Poissons Ratio (x) = 0.74563 0.20173
# Poissons Ratio (y) = 0.74563 0.20173
# Poissons Ratio (z) = 0.05303 0.05303
#
# Static dielectric constant tensor:
#      x y z
#    x 3.719960 0.000000 0.000000 
#    y 0.000000 3.719960 0.000000 
#    z 0.000000 0.000000 3.437770 
# 
# 
# High freq. dielectric constant tensor:
#      x y z
#    x 1.681540 0.000000 0.000000 
#    y 0.000000 1.681540 0.000000 
#    z 0.000000 0.000000 1.735650 
# 
# From -- ./inp_files/373.got.cif
#   From: 2010.03.12/outbox.cif.g09.slc.cpg/sg188_1_cif.got.tgz:373.got - 2010.04.01 12:01:06.
