data_PCOD8327607
_publ_section_title
;
Structure prediction by ZEFSAII (Michael W. Deem and Ramdas Pophale) SiO2 
 PCOD8327607
Probable space group: P -6 2 M
;
_chemical_formula_sum "Si O2"
_cell_formula_units_Z 96
_cell_length_a 18.260468
_cell_length_b 18.260468
_cell_length_c 18.881930
_cell_angle_alpha 90.000000
_cell_angle_beta 90.000000
_cell_angle_gamma 120.000000
_cell_volume 5452.564640
_symmetry_space_group_name_H-M "P -6 2 M"
_symmetry_group_IT_number 189
_symmetry_cell_setting 'hexagonal'
loop_
_space_group_symop_operation_xyz
x,y,z
-x+y,-x,-z
-y,x-y,z
x,y,-z
-x+y,-x,z
-y,x-y,-z
x-y,-y,-z
-x,-x+y,-z
y,x,-z
y,x,z
x-y,-y,z
-x,-x+y,z
loop_
_atom_site_type_symbol
_atom_site_label
_atom_site_fract_x
_atom_site_fract_y
_atom_site_fract_z
Si Si1 0.100030 0.640852 0.921491
Si Si2 0.508476 0.407098 0.419864
Si Si3 0.100488 0.371596 0.798817
Si Si4 0.905908 0.214996 0.419001
Si Si5 0.905750 0.642915 0.352566
Si Si6 0.643399 0.548745 0.660335
Si Si7 0.904507 0.661046 0.807212
Si Si8 0.521302 0.621496 0.078608
O O1 0.128771 0.713079 0.862836
O O2 0.135709 0.577628 0.902800
O O3 0.000000 0.586644 0.921785
O O4 0.132042 0.680615 0.000000
O O5 0.536675 0.402933 0.500000
O O6 0.460295 0.460295 0.417077
O O7 0.447354 0.311510 0.392516
O O8 0.590732 0.451991 0.367826
O O9 0.136007 0.431871 0.728785
O O10 0.144535 0.313265 0.806028
O O11 0.131869 0.435552 0.864914
O O12 0.000000 0.307702 0.795486
O O13 0.883190 0.187559 0.500000
O O14 0.837041 0.142666 0.368805
O O15 0.904529 0.301271 0.406179
O O16 0.000000 0.231553 0.400124
O O17 0.907192 0.625194 0.269604
O O18 0.000000 0.702193 0.381488
O O19 0.576148 0.576148 0.684452
O O20 0.000000 0.738934 0.825817
O O21 0.568976 0.568976 0.080776
O O22 0.528976 0.660246 0.000000
#
# Coordination Sequence:
#
# PCOD8327607 Si02
#       8
#    12  12  12  12  12  12  12  12
#     4   8  15  29  49  73 101 129 159 198 244 299
#     4   9  17  29  46  69  95 120 149 193 250 310
#     4  10  19  31  50  74 102 135 171 218 266 304
#     4  10  19  32  51  72  96 130 173 218 263 310
#     4  10  20  32  48  73 103 132 167 214 263 311
#     4   9  17  29  46  70  95 121 155 198 249 302
#     4  10  20  32  48  73 104 139 177 217 262 310
#     4   8  15  28  48  75 101 123 151 194 249 306
#
# _framework density 17.606394000000002
#
# number of rings (size 3 to 8) (size 9 to 14) (size 15 to 20)
#    0.000    2.750    1.250    1.500    1.750    2.750 
#    0.000    0.000    0.000    1.500    3.250    1.750 
#    0.000    0.000    0.000    6.250    0.000    1.500 
#
# Total GULP energy -1189335.628617 kJ/mol
# GULP energy per Si atom -12388.912798 kJ/mol
# Density = 1.756632 g / cm^3
# Si number density = 17.606394 Si / 1000 Ang^3
#
#
#
# Elastic Constant Matrix: (Units=GPa)
#
#
# Indices 1 2 3 4 5 6 
#
# 1 77.0750 36.5581 38.1872 0.0000 0.0000 0.0000
# 2 36.5581 77.0750 38.1872 0.0000 0.0000 0.0000
# 3 38.1872 38.1872 105.1272 0.0000 0.0000 0.0000
# 4 0.0000 0.0000 0.0000 21.5764 0.0000 0.0000
# 5 0.0000 0.0000 0.0000 0.0000 21.5764 0.0000
# 6 0.0000 0.0000 0.0000 0.0000 0.0000 20.2585
#
#
#
# Elastic Compliance Matrix: (Units=1/GPa)
#
#
# Indices 1 2 3 4 5 6 
#
# 1 0.018162 -0.006519 -0.004229 0.000000 0.000000 0.000000
# 2 -0.006519 0.018162 -0.004229 0.000000 0.000000 0.000000
# 3 -0.004229 -0.004229 0.012585 0.000000 0.000000 0.000000
# 4 0.000000 0.000000 0.000000 0.046347 0.000000 0.000000
# 5 0.000000 0.000000 0.000000 0.000000 0.046347 0.000000
# 6 0.000000 0.000000 0.000000 0.000000 0.000000 0.049362
#
#
# Mechanical properties :
#
#
# Convention : Reuss Voigt Hill
#
# Bulk Modulus (GPa) = 52.76075 53.90470 53.33272
# Shear Modulus (GPa) = 22.00340 22.43856 22.22098
#
# Velocity S-wave (km/s) = 3.53900 3.57382 3.55645
# Velocity P-wave (km/s) = 6.83602 6.90743 6.87182
#
# Compressibility (1/GPa) = 0.01895349
#
# Stress axis : x y z
#
# Youngs Moduli (GPa) = 55.06028 55.06028 79.46100
#
# Poissons Ratio (x) = 0.35895 0.33606
# Poissons Ratio (y) = 0.35895 0.33606
# Poissons Ratio (z) = 0.23286 0.23286
#
# Static dielectric constant tensor:
#      x y z
#    x 3.110020 0.000000 0.000000 
#    y 0.000000 3.110020 0.000000 
#    z 0.000000 0.000000 3.542270 
# 
# 
# High freq. dielectric constant tensor:
#      x y z
#    x 1.648190 0.000000 0.000000 
#    y 0.000000 1.648190 0.000000 
#    z 0.000000 0.000000 1.696060 
# 
# From -- ./inp_files/3537.got.cif
#   From: 2010.03.12/outbox.cif.g09.slc.cpg/sg189_2_cif.got.tgz:3537.got - 2010.04.01 12:03:36.
