data_PCOD8327681
_publ_section_title
;
Structure prediction by ZEFSAII (Michael W. Deem and Ramdas Pophale) SiO2 
 PCOD8327681
Probable space group: P -6 2 M
;
_chemical_formula_sum "Si O2"
_cell_formula_units_Z 60
_cell_length_a 17.347789
_cell_length_b 17.347789
_cell_length_c 12.363707
_cell_angle_alpha 90.000000
_cell_angle_beta 90.000000
_cell_angle_gamma 120.000000
_cell_volume 3222.312074
_symmetry_space_group_name_H-M "P -6 2 M"
_symmetry_group_IT_number 189
_symmetry_cell_setting 'hexagonal'
loop_
_space_group_symop_operation_xyz
x,y,z
-x+y,-x,-z
-y,x-y,z
x,y,-z
-x+y,-x,z
-y,x-y,-z
x-y,-y,-z
-x,-x+y,-z
y,x,-z
y,x,z
x-y,-y,z
-x,-x+y,z
loop_
_atom_site_type_symbol
_atom_site_label
_atom_site_fract_x
_atom_site_fract_y
_atom_site_fract_z
Si Si1 0.208706 0.103345 0.000000
Si Si2 0.685026 0.789306 0.795930
Si Si3 0.103334 0.755129 0.624861
Si Si4 0.399969 0.620307 0.500000
Si Si5 0.521317 0.626269 0.880878
Si Si6 0.583328 0.102826 0.309326
O O1 0.270082 0.127568 0.105512
O O2 0.162140 0.162140 0.000000
O O3 0.133852 0.000000 0.000000
O O4 0.737126 0.737126 0.770247
O O5 0.689647 0.841808 0.687090
O O6 0.582163 0.722370 0.826371
O O7 0.133754 0.765981 0.500000
O O8 0.122406 0.683438 0.683300
O O9 0.000000 0.725050 0.632313
O O10 0.291216 0.565384 0.500000
O O11 0.436905 0.596345 0.605098
O O12 0.582024 0.582024 0.893079
O O13 0.434252 0.564548 0.808888
O O14 0.488752 0.636433 0.000000
O O15 0.514422 0.000000 0.335032
#
# Coordination Sequence:
#
# PCOD8327681 Si02
#       6
#     6  12  12   6  12  12
#     4  10  19  34  56  84 118 154 196 240 291 350
#     4  10  20  35  58  85 117 151 189 240 292 346
#     4  10  21  37  57  81 114 150 190 242 289 338
#     4  10  23  34  54  80 108 142 175 228 278 326
#     4   9  18  35  56  79 107 143 182 228 282 332
#     4  10  20  37  59  79 107 146 189 227 276 343
#
# _framework density 18.620170000000002
#
# number of rings (size 3 to 8) (size 9 to 14) (size 15 to 20)
#    0.200    2.000    2.000    1.000    2.800    0.400 
#    1.800    0.000    0.000    0.400    0.000    0.000 
#    0.000    0.000    0.000    0.000    0.000    0.000 
#
# Total GULP energy -743948.131040 kJ/mol
# GULP energy per Si atom -12399.135517 kJ/mol
# Density = 1.857779 g / cm^3
# Si number density = 18.620170 Si / 1000 Ang^3
#
#
#
# Elastic Constant Matrix: (Units=GPa)
#
#
# Indices 1 2 3 4 5 6 
#
# 1 80.5913 36.2682 67.2261 0.0000 0.0000 0.0000
# 2 36.2682 80.5913 67.2261 0.0000 0.0000 0.0000
# 3 67.2261 67.2261 151.7642 0.0000 0.0000 0.0000
# 4 0.0000 0.0000 0.0000 27.3706 0.0000 0.0000
# 5 0.0000 0.0000 0.0000 0.0000 27.3706 0.0000
# 6 0.0000 0.0000 0.0000 0.0000 0.0000 22.1616
#
#
#
# Elastic Compliance Matrix: (Units=1/GPa)
#
#
# Indices 1 2 3 4 5 6 
#
# 1 0.020006 -0.002555 -0.007730 0.000000 0.000000 0.000000
# 2 -0.002555 0.020006 -0.007730 0.000000 0.000000 0.000000
# 3 -0.007730 -0.007730 0.013438 0.000000 0.000000 0.000000
# 4 0.000000 0.000000 0.000000 0.036536 0.000000 0.000000
# 5 0.000000 0.000000 0.000000 0.000000 0.036536 0.000000
# 6 0.000000 0.000000 0.000000 0.000000 0.000000 0.045123
#
#
# Mechanical properties :
#
#
# Convention : Reuss Voigt Hill
#
# Bulk Modulus (GPa) = 57.40817 72.70970 65.05894
# Shear Modulus (GPa) = 23.42109 24.86232 24.14170
#
# Velocity S-wave (km/s) = 3.55044 3.65805 3.60465
# Velocity P-wave (km/s) = 6.90693 7.54821 7.23468
#
# Compressibility (1/GPa) = 0.01741912
#
# Stress axis : x y z
#
# Youngs Moduli (GPa) = 49.98380 49.98380 74.41755
#
# Poissons Ratio (x) = 0.12771 0.57527
# Poissons Ratio (y) = 0.12771 0.57527
# Poissons Ratio (z) = 0.38639 0.38639
#
# Static dielectric constant tensor:
#      x y z
#    x 3.272130 0.000000 0.000000 
#    y 0.000000 3.272130 0.000000 
#    z 0.000000 0.000000 3.539430 
# 
# 
# High freq. dielectric constant tensor:
#      x y z
#    x 1.711540 0.000000 0.000000 
#    y 0.000000 1.711540 0.000000 
#    z 0.000000 0.000000 1.729040 
# 
# From -- ./inp_files/1921.got.cif
#   From: 2010.03.12/outbox.cif.g09.slc.cpg/sg189_1_cif.got.tgz:1921.got - 2010.04.01 12:03:36.
