data_PCOD8327496
_publ_section_title
;
Structure prediction by ZEFSAII (Michael W. Deem and Ramdas Pophale) SiO2 
 PCOD8327496
Probable space group: P -6 2 M
;
_chemical_formula_sum "Si O2"
_cell_formula_units_Z 48
_cell_length_a 18.541853
_cell_length_b 18.541853
_cell_length_c 9.105660
_cell_angle_alpha 90.000000
_cell_angle_beta 90.000000
_cell_angle_gamma 120.000000
_cell_volume 2711.117429
_symmetry_space_group_name_H-M "P -6 2 M"
_symmetry_group_IT_number 189
_symmetry_cell_setting 'hexagonal'
loop_
_space_group_symop_operation_xyz
x,y,z
-x+y,-x,-z
-y,x-y,z
x,y,-z
-x+y,-x,z
-y,x-y,-z
x-y,-y,-z
-x,-x+y,-z
y,x,-z
y,x,z
x-y,-y,z
-x,-x+y,z
loop_
_atom_site_type_symbol
_atom_site_label
_atom_site_fract_x
_atom_site_fract_y
_atom_site_fract_z
Si Si1 0.240203 0.000000 0.331138
Si Si2 0.452548 0.545248 0.660180
Si Si3 0.610646 0.610646 0.174537
Si Si4 0.822453 0.094037 0.669398
Si Si5 0.099400 0.683509 0.163958
O O1 0.268058 0.000000 0.500000
O O2 0.150843 0.920155 0.297957
O O3 0.306834 0.000000 0.220877
O O4 0.446198 0.581771 0.500000
O O5 0.469261 0.469261 0.629318
O O6 0.530296 0.613777 0.758356
O O7 0.365368 0.504323 0.749157
O O8 0.602459 0.602459 0.000000
O O9 0.801547 0.097442 0.500000
O O10 0.771888 0.128706 0.759819
O O11 0.795713 0.000000 0.716825
O O12 0.000000 0.628866 0.158839
O O13 0.136338 0.700734 0.000000
#
# Coordination Sequence:
#
# PCOD8327496 Si02
#       5
#     6  12   6  12  12
#     4  10  20  34  48  66  97 134 173 222 277 326
#     4   8  14  24  41  65  93 121 145 177 225 288
#     4  10  18  28  44  68  97 124 151 188 243 304
#     4   9  18  32  48  66  91 128 175 226 276 322
#     4   9  15  24  42  67  94 119 150 194 241 292
#
# _framework density 17.704875999999999
#
# number of rings (size 3 to 8) (size 9 to 14) (size 15 to 20)
#    0.750    2.250    0.000    2.250    0.000    4.000 
#    0.750    0.000    0.000    0.000    0.000    0.000 
#    2.500    0.000    4.500    0.000    4.500    0.500 
#
# Total GULP energy -594648.682367 kJ/mol
# GULP energy per Si atom -12388.514216 kJ/mol
# Density = 1.766458 g / cm^3
# Si number density = 17.704876 Si / 1000 Ang^3
#
#
#
# Elastic Constant Matrix: (Units=GPa)
#
#
# Indices 1 2 3 4 5 6 
#
# 1 72.7972 29.0504 41.9737 0.0000 0.0000 0.0000
# 2 29.0504 72.7972 41.9737 0.0000 0.0000 0.0000
# 3 41.9737 41.9737 134.9764 0.0000 0.0000 0.0000
# 4 0.0000 0.0000 0.0000 15.8186 0.0000 0.0000
# 5 0.0000 0.0000 0.0000 0.0000 15.8186 0.0000
# 6 0.0000 0.0000 0.0000 0.0000 0.0000 21.8734
#
#
#
# Elastic Compliance Matrix: (Units=1/GPa)
#
#
# Indices 1 2 3 4 5 6 
#
# 1 0.018031 -0.004828 -0.004106 0.000000 0.000000 0.000000
# 2 -0.004828 0.018031 -0.004106 0.000000 0.000000 0.000000
# 3 -0.004106 -0.004106 0.009962 0.000000 0.000000 0.000000
# 4 0.000000 0.000000 0.000000 0.063217 0.000000 0.000000
# 5 0.000000 0.000000 0.000000 0.000000 0.063217 0.000000
# 6 0.000000 0.000000 0.000000 0.000000 0.000000 0.045718
#
#
# Mechanical properties :
#
#
# Convention : Reuss Voigt Hill
#
# Bulk Modulus (GPa) = 50.13814 56.28520 53.21167
# Shear Modulus (GPa) = 19.92815 21.87367 20.90091
#
# Velocity S-wave (km/s) = 3.35860 3.51872 3.43959
# Velocity P-wave (km/s) = 6.58943 6.95474 6.77454
#
# Compressibility (1/GPa) = 0.01994490
#
# Stress axis : x y z
#
# Youngs Moduli (GPa) = 55.46089 55.46089 100.37976
#
# Poissons Ratio (x) = 0.26777 0.41212
# Poissons Ratio (y) = 0.26777 0.41212
# Poissons Ratio (z) = 0.22770 0.22770
#
# Static dielectric constant tensor:
#      x y z
#    x 2.920670 0.000000 0.000000 
#    y 0.000000 2.920670 0.000000 
#    z 0.000000 0.000000 3.517070 
# 
# 
# High freq. dielectric constant tensor:
#      x y z
#    x 1.642130 0.000000 0.000000 
#    y 0.000000 1.642130 0.000000 
#    z 0.000000 0.000000 1.698880 
# 
# From -- ./inp_files/788.got.cif
#   From: 2010.03.12/outbox.cif.g09.slc.cpg/sg189_1_cif.got.tgz:788.got - 2010.04.01 12:03:36.
