data_PCOD8327177
_publ_section_title
;
Structure prediction by ZEFSAII (Michael W. Deem and Ramdas Pophale) SiO2 
 PCOD8327177
Probable space group: P -6 M 2
;
_chemical_formula_sum "Si O2"
_cell_formula_units_Z 66
_cell_length_a 12.477772
_cell_length_b 12.477772
_cell_length_c 28.046117
_cell_angle_alpha 90.000000
_cell_angle_beta 90.000000
_cell_angle_gamma 120.000000
_cell_volume 3781.616329
_symmetry_space_group_name_H-M "P -6 M 2"
_symmetry_group_IT_number 187
_symmetry_cell_setting 'hexagonal'
loop_
_space_group_symop_operation_xyz
x,y,z
-x+y,-x,-z
-y,x-y,z
x,y,-z
-x+y,-x,z
-y,x-y,-z
-y,-x,-z
-x+y,y,-z
x,x-y,-z
-x+y,y,z
x,x-y,z
-y,-x,z
loop_
_atom_site_type_symbol
_atom_site_label
_atom_site_fract_x
_atom_site_fract_y
_atom_site_fract_z
Si Si1 0.748836 0.999785 0.090618
Si Si2 0.665822 0.084186 0.639764
Si Si3 0.666355 0.584019 0.180733
Si Si4 0.331941 0.415584 0.000000
Si Si5 0.334899 0.916703 0.271202
Si Si6 0.579553 0.666266 0.554263
O O1 0.878385 0.121616 0.082270
O O2 0.682364 0.005717 0.138432
O O3 0.773765 0.886883 0.094740
O O4 0.662300 0.985619 0.046421
O O5 0.562479 0.124958 0.643129
O O6 0.797625 0.202376 0.649153
O O7 0.641096 0.980732 0.678774
O O8 0.665787 0.028433 0.587970
O O9 0.780150 0.560299 0.184645
O O10 0.545507 0.454494 0.170192
O O11 0.657057 0.644122 0.229698
O O12 0.462447 0.537554 0.000000
O O13 0.226490 0.452979 0.000000
O O14 0.437404 0.874807 0.269181
O O15 0.202003 0.797998 0.264744
O O16 0.621441 0.665698 0.500000
O O17 0.594687 0.797344 0.568191
O O18 0.436231 0.563770 0.561869
#
# Coordination Sequence:
#
# PCOD8327177 Si02
#       6
#    12  12  12   6  12  12
#     4  10  20  34  53  76 103 135 170 208 249 295
#     4  10  20  33  50  72  99 131 165 201 242 290
#     4  10  20  34  53  76 103 135 169 205 245 292
#     4  10  20  34  52  74 100 130 166 208 254 300
#     4  10  20  34  53  76 100 126 159 202 251 298
#     4   9  17  30  50  75 100 126 158 199 246 292
#
# _framework density 17.452853999999999
#
# number of rings (size 3 to 8) (size 9 to 14) (size 15 to 20)
#    0.000    2.182    0.000    3.455    0.000    1.091 
#    0.000    4.545    0.000   17.091    0.000    0.000 
#    0.000    0.000    0.000    0.000    0.000    0.000 
#
# Total GULP energy -818636.671322 kJ/mol
# GULP energy per Si atom -12403.585929 kJ/mol
# Density = 1.741313 g / cm^3
# Si number density = 17.452854 Si / 1000 Ang^3
#
#
#
# Elastic Constant Matrix: (Units=GPa)
#
#
# Indices 1 2 3 4 5 6 
#
# 1 85.1095 44.8145 40.3422 0.0000 0.0002 0.0000
# 2 44.8145 85.1095 40.3422 0.0000 -0.0002 0.0000
# 3 40.3422 40.3422 102.4272 0.0000 0.0000 0.0000
# 4 0.0000 0.0000 0.0000 28.9758 0.0000 -0.0002
# 5 0.0002 -0.0002 0.0000 0.0000 28.9758 0.0000
# 6 0.0000 0.0000 0.0000 -0.0002 0.0000 20.1475
#
#
#
# Elastic Compliance Matrix: (Units=1/GPa)
#
#
# Indices 1 2 3 4 5 6 
#
# 1 0.017503 -0.007314 -0.004013 0.000000 0.000000 0.000000
# 2 -0.007314 0.017503 -0.004013 0.000000 0.000000 0.000000
# 3 -0.004013 -0.004013 0.012924 0.000000 0.000000 0.000000
# 4 0.000000 0.000000 0.000000 0.034512 0.000000 0.000000
# 5 0.000000 0.000000 0.000000 0.000000 0.034512 0.000000
# 6 0.000000 0.000000 0.000000 0.000000 0.000000 0.049634
#
#
# Mechanical properties :
#
#
# Convention : Reuss Voigt Hill
#
# Bulk Modulus (GPa) = 57.97121 58.18267 58.07694
# Shear Modulus (GPa) = 24.62842 25.42963 25.02902
#
# Velocity S-wave (km/s) = 3.76059 3.82127 3.79105
# Velocity P-wave (km/s) = 7.22108 7.27179 7.24648
#
# Compressibility (1/GPa) = 0.01724994
#
# Stress axis : x y z
#
# Youngs Moduli (GPa) = 57.13314 57.13314 77.37414
#
# Poissons Ratio (x) = 0.41787 0.31051
# Poissons Ratio (y) = 0.41787 0.31051
# Poissons Ratio (z) = 0.22928 0.22928
#
# Static dielectric constant tensor:
#      x y z
#    x 3.145030 0.000000 0.000000 
#    y 0.000000 3.145030 0.000000 
#    z 0.000000 0.000000 3.471810 
# 
# 
# High freq. dielectric constant tensor:
#      x y z
#    x 1.671960 0.000000 0.000000 
#    y 0.000000 1.671960 0.000000 
#    z 0.000000 0.000000 1.693260 
# 
# From -- ./inp_files/4428.got.cif
#   From: 2010.03.12/outbox.cif.g09.slc.cpg/sg187_3_cif.got.tgz:4428.got - 2010.04.01 11:58:23.
