data_PCOD8327641
_publ_section_title
;
Structure prediction by ZEFSAII (Michael W. Deem and Ramdas Pophale) SiO2 
 PCOD8327641
Probable space group: P -6 2 M
;
_chemical_formula_sum "Si O2"
_cell_formula_units_Z 60
_cell_length_a 16.204814
_cell_length_b 16.204814
_cell_length_c 14.567943
_cell_angle_alpha 90.000000
_cell_angle_beta 90.000000
_cell_angle_gamma 120.000000
_cell_volume 3312.965904
_symmetry_space_group_name_H-M "P -6 2 M"
_symmetry_group_IT_number 189
_symmetry_cell_setting 'hexagonal'
loop_
_space_group_symop_operation_xyz
x,y,z
-x+y,-x,-z
-y,x-y,z
x,y,-z
-x+y,-x,z
-y,x-y,-z
x-y,-y,-z
-x,-x+y,-z
y,x,-z
y,x,z
x-y,-y,z
-x,-x+y,z
loop_
_atom_site_type_symbol
_atom_site_label
_atom_site_fract_x
_atom_site_fract_y
_atom_site_fract_z
Si Si1 0.892286 0.351428 0.103473
Si Si2 0.105843 0.886405 0.294022
Si Si3 0.726833 0.614560 0.605226
Si Si4 0.156745 0.891121 0.901731
Si Si5 0.662935 0.436445 0.273151
O O1 0.883552 0.249760 0.112899
O O2 0.815731 0.352016 0.171201
O O3 0.000000 0.432426 0.129944
O O4 0.868760 0.368748 0.000000
O O5 0.170930 0.853061 0.347823
O O6 0.092365 0.848766 0.188593
O O7 0.000000 0.835760 0.337937
O O8 0.152165 0.000000 0.300856
O O9 0.745017 0.600329 0.500000
O O10 0.661479 0.661479 0.616004
O O11 0.668621 0.511624 0.652502
O O12 0.184070 0.000000 0.908614
O O13 0.106788 0.841825 0.000000
O O14 0.571299 0.330197 0.285562
#
# Coordination Sequence:
#
# PCOD8327641 Si02
#       5
#    12  12  12  12  12
#     4   9  16  31  57  82 107 145 189 225 262 320
#     4  10  19  32  53  81 113 145 182 229 279 337
#     4  10  21  40  63  81 103 143 188 228 280 345
#     4   8  14  26  49  77 104 142 186 222 259 312
#     4  10  22  35  56  87 113 142 176 229 282 324
#
# _framework density 18.110661
#
# number of rings (size 3 to 8) (size 9 to 14) (size 15 to 20)
#    0.400    2.200    2.000    2.000    0.000    2.400 
#    0.000    2.000    0.000    2.400    0.000    0.000 
#    0.000    0.000    0.000    0.000    0.000    0.000 
#
# Total GULP energy -743295.979006 kJ/mol
# GULP energy per Si atom -12388.266317 kJ/mol
# Density = 1.806944 g / cm^3
# Si number density = 18.110661 Si / 1000 Ang^3
#
#
#
# Elastic Constant Matrix: (Units=GPa)
#
#
# Indices 1 2 3 4 5 6 
#
# 1 64.8375 17.3204 40.6753 0.0000 0.0000 0.0000
# 2 17.3204 64.8375 40.6753 0.0000 0.0000 0.0000
# 3 40.6753 40.6753 120.2345 0.0000 0.0000 0.0000
# 4 0.0000 0.0000 0.0000 13.6936 0.0000 0.0000
# 5 0.0000 0.0000 0.0000 0.0000 13.6936 0.0000
# 6 0.0000 0.0000 0.0000 0.0000 0.0000 23.7585
#
#
#
# Elastic Compliance Matrix: (Units=1/GPa)
#
#
# Indices 1 2 3 4 5 6 
#
# 1 0.019674 -0.001371 -0.006192 0.000000 0.000000 0.000000
# 2 -0.001371 0.019674 -0.006192 0.000000 0.000000 0.000000
# 3 -0.006192 -0.006192 0.012506 0.000000 0.000000 0.000000
# 4 0.000000 0.000000 0.000000 0.073027 0.000000 0.000000
# 5 0.000000 0.000000 0.000000 0.000000 0.073027 0.000000
# 6 0.000000 0.000000 0.000000 0.000000 0.000000 0.042090
#
#
# Mechanical properties :
#
#
# Convention : Reuss Voigt Hill
#
# Bulk Modulus (GPa) = 41.07692 49.69463 45.38578
# Shear Modulus (GPa) = 18.14080 20.31172 19.22626
#
# Velocity S-wave (km/s) = 3.16834 3.35256 3.26175
# Velocity P-wave (km/s) = 6.00956 6.51807 6.26897
#
# Compressibility (1/GPa) = 0.02434457
#
# Stress axis : x y z
#
# Youngs Moduli (GPa) = 50.82890 50.82890 79.95886
#
# Poissons Ratio (x) = 0.06970 0.49509
# Poissons Ratio (y) = 0.06970 0.49509
# Poissons Ratio (z) = 0.31472 0.31472
#
# Static dielectric constant tensor:
#      x y z
#    x 3.101540 0.000000 0.000000 
#    y 0.000000 3.101540 0.000000 
#    z 0.000000 0.000000 3.602870 
# 
# 
# High freq. dielectric constant tensor:
#      x y z
#    x 1.677420 0.000000 0.000000 
#    y 0.000000 1.677420 0.000000 
#    z 0.000000 0.000000 1.712430 
# 
# From -- ./inp_files/2615.got.cif
#   From: 2010.03.12/outbox.cif.g09.slc.cpg/sg189_2_cif.got.tgz:2615.got - 2010.04.01 12:03:36.
