data_PCOD8327231
_publ_section_title
;
Structure prediction by ZEFSAII (Michael W. Deem and Ramdas Pophale) SiO2 
 PCOD8327231
Probable space group: P -6 M 2
;
_chemical_formula_sum "Si O2"
_cell_formula_units_Z 84
_cell_length_a 18.435751
_cell_length_b 18.435751
_cell_length_c 13.751066
_cell_angle_alpha 90.000000
_cell_angle_beta 90.000000
_cell_angle_gamma 120.000000
_cell_volume 4047.516853
_symmetry_space_group_name_H-M "P -6 M 2"
_symmetry_group_IT_number 187
_symmetry_cell_setting 'hexagonal'
loop_
_space_group_symop_operation_xyz
x,y,z
-x+y,-x,-z
-y,x-y,z
x,y,-z
-x+y,-x,z
-y,x-y,-z
-y,-x,-z
-x+y,y,-z
x,x-y,-z
-x+y,y,z
x,x-y,z
-y,-x,z
loop_
_atom_site_type_symbol
_atom_site_label
_atom_site_fract_x
_atom_site_fract_y
_atom_site_fract_z
Si Si1 0.494281 0.829262 0.811112
Si Si2 0.968881 0.676692 0.691587
Si Si3 0.298152 0.432114 0.392449
Si Si4 0.667445 0.165960 0.611360
Si Si5 0.824390 0.333738 0.887225
Si Si6 0.638125 0.642602 0.890163
Si Si7 0.159537 0.999726 0.389040
O O1 0.397959 0.795918 0.837552
O O2 0.518089 0.759045 0.839961
O O3 0.502776 0.847167 0.694964
O O4 0.549190 0.912271 0.874591
O O5 0.889755 0.582722 0.679211
O O6 0.041309 0.685677 0.620243
O O7 0.000688 0.699420 0.803806
O O8 0.952012 0.751111 0.664983
O O9 0.332221 0.472693 0.500000
O O10 0.198758 0.397515 0.386294
O O11 0.665901 0.138414 0.500000
O O12 0.576408 0.152815 0.640832
O O13 0.736775 0.263225 0.625271
O O14 0.805185 0.402593 0.838944
O O15 0.758925 0.241076 0.842284
O O16 0.921882 0.367566 0.871377
O O17 0.805898 0.328757 0.000000
O O18 0.671311 0.675990 0.000000
O O19 0.176715 0.986888 0.500000
O O20 0.090939 0.909062 0.344546
O O21 0.120420 0.060210 0.381129
#
# Coordination Sequence:
#
# PCOD8327231 Si02
#       7
#    12  12  12  12  12  12  12
#     4  10  21  37  58  83 110 143 186 235 285 338
#     4  11  21  34  57  84 109 144 192 239 276 321
#     4   9  18  33  53  80 114 146 174 213 273 340
#     4  10  21  37  56  80 113 152 191 231 277 329
#     4   9  17  31  53  79 105 134 170 214 266 326
#     4  10  23  41  57  76 108 147 187 236 293 341
#     4  10  20  35  58  90 126 157 182 215 267 332
#
# _framework density 20.753464999999998
#
# number of rings (size 3 to 8) (size 9 to 14) (size 15 to 20)
#    0.000    2.143    0.000    3.143    0.000   10.000 
#    0.000    0.000    0.000    3.429    0.000    0.000 
#    0.000    1.143    0.000    0.000    0.000    0.000 
#
# Total GULP energy -1040631.077815 kJ/mol
# GULP energy per Si atom -12388.465212 kJ/mol
# Density = 2.070623 g / cm^3
# Si number density = 20.753465 Si / 1000 Ang^3
#
#
#
# Elastic Constant Matrix: (Units=GPa)
#
#
# Indices 1 2 3 4 5 6 
#
# 1 113.7550 65.6805 24.4576 0.0000 0.0001 0.0000
# 2 65.6805 113.7550 24.4576 0.0000 -0.0001 0.0000
# 3 24.4576 24.4576 116.3620 0.0000 0.0000 0.0000
# 4 0.0000 0.0000 0.0000 12.8808 0.0000 -0.0001
# 5 0.0001 -0.0001 0.0000 0.0000 12.8808 0.0000
# 6 0.0000 0.0000 0.0000 -0.0001 0.0000 24.0372
#
#
#
# Elastic Compliance Matrix: (Units=1/GPa)
#
#
# Indices 1 2 3 4 5 6 
#
# 1 0.013356 -0.007445 -0.001243 0.000000 0.000000 0.000000
# 2 -0.007445 0.013356 -0.001243 0.000000 0.000000 0.000000
# 3 -0.001243 -0.001243 0.009116 0.000000 0.000000 0.000000
# 4 0.000000 0.000000 0.000000 0.077635 0.000000 0.000000
# 5 0.000000 0.000000 0.000000 0.000000 0.077635 0.000000
# 6 0.000000 0.000000 0.000000 0.000000 0.000000 0.041602
#
#
# Mechanical properties :
#
#
# Convention : Reuss Voigt Hill
#
# Bulk Modulus (GPa) = 62.61949 63.67372 63.14661
# Shear Modulus (GPa) = 19.38854 25.24484 22.31669
#
# Velocity S-wave (km/s) = 3.05984 3.49150 3.28277
# Velocity P-wave (km/s) = 6.53621 6.85578 6.69790
#
# Compressibility (1/GPa) = 0.01596947
#
# Stress axis : x y z
#
# Youngs Moduli (GPa) = 74.87044 74.87044 109.69473
#
# Poissons Ratio (x) = 0.55738 0.13630
# Poissons Ratio (y) = 0.55738 0.13630
# Poissons Ratio (z) = 0.09303 0.09303
#
# Static dielectric constant tensor:
#      x y z
#    x 3.700650 0.000000 0.000000 
#    y 0.000000 3.700650 0.000000 
#    z 0.000000 0.000000 3.925250 
# 
# 
# High freq. dielectric constant tensor:
#      x y z
#    x 1.804210 0.000000 0.000000 
#    y 0.000000 1.804210 0.000000 
#    z 0.000000 0.000000 1.809680 
# 
# From -- ./inp_files/2635.got.cif
#   From: 2010.03.12/outbox.cif.g09.slc.cpg/sg187_2_cif.got.tgz:2635.got - 2010.04.01 11:58:23.
