data_PCOD8327288
_publ_section_title
;
Structure prediction by ZEFSAII (Michael W. Deem and Ramdas Pophale) SiO2 
 PCOD8327288
Probable space group: P -6 M 2
;
_chemical_formula_sum "Si O2"
_cell_formula_units_Z 54
_cell_length_a 13.501013
_cell_length_b 13.501013
_cell_length_c 22.336171
_cell_angle_alpha 90.000000
_cell_angle_beta 90.000000
_cell_angle_gamma 120.000000
_cell_volume 3525.916867
_symmetry_space_group_name_H-M "P -6 M 2"
_symmetry_group_IT_number 187
_symmetry_cell_setting 'hexagonal'
loop_
_space_group_symop_operation_xyz
x,y,z
-x+y,-x,-z
-y,x-y,z
x,y,-z
-x+y,-x,z
-y,x-y,-z
-y,-x,-z
-x+y,y,-z
x,x-y,-z
-x+y,y,z
x,x-y,z
-y,-x,z
loop_
_atom_site_type_symbol
_atom_site_label
_atom_site_fract_x
_atom_site_fract_y
_atom_site_fract_z
Si Si1 0.669418 0.102447 0.630096
Si Si2 0.668293 0.556131 0.500000
Si Si3 0.333057 0.894693 0.286845
Si Si4 0.438268 0.105279 0.069141
Si Si5 0.332890 0.438427 0.851646
O O1 0.561554 0.123107 0.630915
O O2 0.780812 0.219189 0.650884
O O3 0.688769 0.065119 0.563012
O O4 0.652199 0.002864 0.675060
O O5 0.538343 0.461658 0.500000
O O6 0.750343 0.500685 0.500000
O O7 0.432939 0.865878 0.300072
O O8 0.214554 0.785447 0.306255
O O9 0.332144 0.925243 0.217598
O O10 0.566438 0.132876 0.082515
O O11 0.430663 0.215332 0.088003
O O12 0.347607 0.000176 0.108971
O O13 0.406139 0.073393 0.000000
O O14 0.215332 0.430664 0.870919
O O15 0.433589 0.566412 0.865216
#
# Coordination Sequence:
#
# PCOD8327288 Si02
#       5
#    12   6  12  12  12
#     4   9  16  26  42  64  88 111 136 169 210 253
#     4   8  13  22  37  58  84 112 138 164 200 248
#     4   9  17  29  44  61  83 113 145 174 205 245
#     4   9  17  29  45  65  89 116 142 167 200 246
#     4   9  17  29  45  64  85 110 141 176 212 247
#
# _framework density 15.315165
#
# number of rings (size 3 to 8) (size 9 to 14) (size 15 to 20)
#    0.000    3.111    0.000    1.000    0.000    5.778 
#    0.000    0.556    0.000    4.889    0.000    1.556 
#    0.000    0.000    0.000    0.000    0.000    0.000 
#
# Total GULP energy -669285.497202 kJ/mol
# GULP energy per Si atom -12394.175874 kJ/mol
# Density = 1.528031 g / cm^3
# Si number density = 15.315165 Si / 1000 Ang^3
#
#
#
# Elastic Constant Matrix: (Units=GPa)
#
#
# Indices 1 2 3 4 5 6 
#
# 1 99.5178 51.5519 60.1953 0.0000 0.0000 0.0000
# 2 51.5519 99.5178 60.1953 0.0000 0.0000 0.0000
# 3 60.1953 60.1953 81.6454 0.0000 0.0000 0.0000
# 4 0.0000 0.0000 0.0000 24.9240 0.0000 0.0000
# 5 0.0000 0.0000 0.0000 0.0000 24.9240 0.0000
# 6 0.0000 0.0000 0.0000 0.0000 0.0000 23.9829
#
#
#
# Elastic Compliance Matrix: (Units=1/GPa)
#
#
# Indices 1 2 3 4 5 6 
#
# 1 0.018449 -0.002399 -0.011833 0.000000 0.000000 0.000000
# 2 -0.002399 0.018449 -0.011833 0.000000 0.000000 0.000000
# 3 -0.011833 -0.011833 0.029696 0.000000 0.000000 0.000000
# 4 0.000000 0.000000 0.000000 0.040122 0.000000 0.000000
# 5 0.000000 0.000000 0.000000 0.000000 0.040122 0.000000
# 6 0.000000 0.000000 0.000000 0.000000 0.000000 0.041696
#
#
# Mechanical properties :
#
#
# Convention : Reuss Voigt Hill
#
# Bulk Modulus (GPa) = 69.13897 69.39621 69.26759
# Shear Modulus (GPa) = 20.36786 22.01540 21.19163
#
# Velocity S-wave (km/s) = 3.65076 3.79554 3.72385
# Velocity P-wave (km/s) = 7.93806 8.03857 7.98847
#
# Compressibility (1/GPa) = 0.01446362
#
# Stress axis : x y z
#
# Youngs Moduli (GPa) = 54.20442 54.20442 33.67450
#
# Poissons Ratio (x) = 0.13006 0.39846
# Poissons Ratio (y) = 0.13006 0.39846
# Poissons Ratio (z) = 0.64138 0.64138
#
# Static dielectric constant tensor:
#      x y z
#    x 2.790670 0.000000 0.000000 
#    y 0.000000 2.790670 0.000000 
#    z 0.000000 0.000000 3.136880 
# 
# 
# High freq. dielectric constant tensor:
#      x y z
#    x 1.566770 0.000000 0.000000 
#    y 0.000000 1.566770 0.000000 
#    z 0.000000 0.000000 1.596520 
# 
# From -- ./inp_files/2968.got.cif
#   From: 2010.03.12/outbox.cif.g09.slc.cpg/sg187_2_cif.got.tgz:2968.got - 2010.04.01 11:58:23.
