data_PCOD8327768
_publ_section_title
;
Structure prediction by ZEFSAII (Michael W. Deem and Ramdas Pophale) SiO2 
 PCOD8327768
Probable space group: P -6 2 M
;
_chemical_formula_sum "Si O2"
_cell_formula_units_Z 60
_cell_length_a 20.748390
_cell_length_b 20.748390
_cell_length_c 9.297875
_cell_angle_alpha 90.000000
_cell_angle_beta 90.000000
_cell_angle_gamma 120.000000
_cell_volume 3466.435633
_symmetry_space_group_name_H-M "P -6 2 M"
_symmetry_group_IT_number 189
_symmetry_cell_setting 'hexagonal'
loop_
_space_group_symop_operation_xyz
x,y,z
-x+y,-x,-z
-y,x-y,z
x,y,-z
-x+y,-x,z
-y,x-y,-z
x-y,-y,-z
-x,-x+y,-z
y,x,-z
y,x,z
x-y,-y,z
-x,-x+y,z
loop_
_atom_site_type_symbol
_atom_site_label
_atom_site_fract_x
_atom_site_fract_y
_atom_site_fract_z
Si Si1 0.914329 0.544585 0.335718
Si Si2 0.298717 0.914554 0.333230
Si Si3 0.208104 0.208104 0.170184
Si Si4 0.000000 0.917807 0.659473
Si Si5 0.911516 0.421364 0.162078
Si Si6 0.205879 0.339144 0.334153
O O1 0.908365 0.518598 0.500000
O O2 0.881155 0.470716 0.238316
O O3 0.865091 0.583329 0.307226
O O4 0.000000 0.603678 0.296646
O O5 0.313038 0.907087 0.500000
O O6 0.343904 0.883509 0.244302
O O7 0.212419 0.864335 0.293456
O O8 0.324874 0.000000 0.293018
O O9 0.133631 0.133631 0.214499
O O10 0.204187 0.277650 0.230884
O O11 0.214250 0.214250 0.000000
O O12 0.000000 0.885232 0.500000
O O13 0.926721 0.926721 0.674280
O O14 0.000000 0.467308 0.167644
O O15 0.880973 0.404209 0.000000
O O16 0.202086 0.314197 0.500000
#
# Coordination Sequence:
#
# PCOD8327768 Si02
#       6
#    12  12   6   6  12  12
#     4   9  16  29  50  73  96 128 167 212 255 296
#     4   9  18  33  53  77 102 134 177 222 263 310
#     4  12  24  34  50  78 112 143 172 223 284 334
#     4   8  18  38  60  74  88 127 186 235 274 326
#     4   9  17  29  48  73 101 128 155 197 250 313
#     4  10  20  35  53  74 105 142 183 226 265 312
#
# _framework density 17.308845000000002
#
# number of rings (size 3 to 8) (size 9 to 14) (size 15 to 20)
#    0.200    2.400    1.000    1.500    0.000    5.200 
#    0.000    2.000    0.000    0.800    0.000    2.800 
#    0.000    0.000    0.000    0.000    0.000    0.000 
#
# Total GULP energy -743927.226247 kJ/mol
# GULP energy per Si atom -12398.787104 kJ/mol
# Density = 1.726945 g / cm^3
# Si number density = 17.308845 Si / 1000 Ang^3
#
#
#
# Elastic Constant Matrix: (Units=GPa)
#
#
# Indices 1 2 3 4 5 6 
#
# 1 96.4277 55.6584 63.0181 0.0000 0.0000 0.0000
# 2 55.6584 96.4277 63.0181 0.0000 0.0000 0.0000
# 3 63.0181 63.0181 115.7487 0.0000 0.0000 0.0000
# 4 0.0000 0.0000 0.0000 15.8184 0.0000 0.0000
# 5 0.0000 0.0000 0.0000 0.0000 15.8184 0.0000
# 6 0.0000 0.0000 0.0000 0.0000 0.0000 20.3846
#
#
#
# Elastic Compliance Matrix: (Units=1/GPa)
#
#
# Indices 1 2 3 4 5 6 
#
# 1 0.018255 -0.006274 -0.006523 0.000000 0.000000 0.000000
# 2 -0.006274 0.018255 -0.006523 0.000000 0.000000 0.000000
# 3 -0.006523 -0.006523 0.015742 0.000000 0.000000 0.000000
# 4 0.000000 0.000000 0.000000 0.063217 0.000000 0.000000
# 5 0.000000 0.000000 0.000000 0.000000 0.063217 0.000000
# 6 0.000000 0.000000 0.000000 0.000000 0.000000 0.049057
#
#
# Mechanical properties :
#
#
# Convention : Reuss Voigt Hill
#
# Bulk Modulus (GPa) = 73.46308 74.66596 74.06452
# Shear Modulus (GPa) = 18.45573 18.86492 18.66033
#
# Velocity S-wave (km/s) = 3.26891 3.30495 3.28698
# Velocity P-wave (km/s) = 7.53540 7.60228 7.56892
#
# Compressibility (1/GPa) = 0.01361228
#
# Stress axis : x y z
#
# Youngs Moduli (GPa) = 54.78091 54.78091 63.52454
#
# Poissons Ratio (x) = 0.34368 0.41436
# Poissons Ratio (y) = 0.34368 0.41436
# Poissons Ratio (z) = 0.35733 0.35733
#
# Static dielectric constant tensor:
#      x y z
#    x 3.107190 0.000000 0.000000 
#    y 0.000000 3.107190 0.000000 
#    z 0.000000 0.000000 3.233970 
# 
# 
# High freq. dielectric constant tensor:
#      x y z
#    x 1.652330 0.000000 0.000000 
#    y 0.000000 1.652330 0.000000 
#    z 0.000000 0.000000 1.665950 
# 
# From -- ./inp_files/989.got.cif
#   From: 2010.03.12/outbox.cif.g09.slc.cpg/sg189_1_cif.got.tgz:989.got - 2010.04.01 12:03:36.
