data_PCOD8327372
_publ_section_title
;
Structure prediction by ZEFSAII (Michael W. Deem and Ramdas Pophale) SiO2 
 PCOD8327372
Probable space group: P -6 C 2
;
_chemical_formula_sum "Si O2"
_cell_formula_units_Z 64
_cell_length_a 14.453210
_cell_length_b 14.453210
_cell_length_c 17.124089
_cell_angle_alpha 90.000000
_cell_angle_beta 90.000000
_cell_angle_gamma 120.000000
_cell_volume 3097.895286
_symmetry_space_group_name_H-M "P -6 C 2"
_symmetry_group_IT_number 188
_symmetry_cell_setting 'hexagonal'
loop_
_space_group_symop_operation_xyz
x,y,z
-x+y,-x,1/2-z
-y,x-y,z
x,y,1/2-z
-x+y,-x,z
-y,x-y,1/2-z
-y,-x,-z
-x+y,y,-z
x,x-y,-z
-x+y,y,1/2+z
x,x-y,1/2+z
-y,-x,1/2+z
loop_
_atom_site_type_symbol
_atom_site_label
_atom_site_fract_x
_atom_site_fract_y
_atom_site_fract_z
Si Si1 0.250894 0.807365 0.160049
Si Si2 0.789012 0.801707 0.341723
Si Si3 0.414313 0.529951 0.410521
Si Si4 0.600596 0.100422 0.157121
Si Si5 0.000000 0.000000 0.408435
Si Si6 0.429098 0.163289 0.342655
O O1 0.230430 0.771258 0.250000
O O2 0.210651 0.705200 0.104612
O O3 0.377041 0.878341 0.144798
O O4 0.193683 0.875622 0.139492
O O5 0.810557 0.808596 0.250000
O O6 0.773692 0.689911 0.375167
O O7 0.888841 0.901349 0.380604
O O8 0.441314 0.558687 0.500000
O O9 0.415608 0.423478 0.385925
O O10 0.597802 0.086376 0.250000
O O11 0.514265 0.131373 0.126451
O O12 0.717396 0.187542 0.127840
O O13 0.000000 0.000000 0.500000
O O14 0.426901 0.157385 0.250000
#
# Coordination Sequence:
#
# PCOD8327372 Si02
#       6
#    12  12  12  12   4  12
#     4  11  23  43  69  92 123 166 218 268 312 376
#     4  10  22  43  67  92 122 165 221 276 315 369
#     4  12  25  40  60  95 132 169 201 255 323 389
#     4  10  19  37  63  95 126 162 213 257 313 375
#     4  12  28  44  61  90 127 170 211 264 337 401
#     4   9  18  35  64  96 125 158 208 270 312 362
#
# _framework density 20.659188
#
# number of rings (size 3 to 8) (size 9 to 14) (size 15 to 20)
#    0.000    1.500    1.875    3.562    2.625    3.000 
#    0.000    0.938    0.000    0.000    0.000    0.000 
#    0.000    0.000    0.000    0.000    0.000    0.000 
#
# Total GULP energy -793801.094977 kJ/mol
# GULP energy per Si atom -12403.142109 kJ/mol
# Density = 2.061217 g / cm^3
# Si number density = 20.659188 Si / 1000 Ang^3
#
#
#
# Elastic Constant Matrix: (Units=GPa)
#
#
# Indices 1 2 3 4 5 6 
#
# 1 120.3179 45.1177 44.8548 0.0001 0.0000 0.0000
# 2 45.1177 120.3179 44.8548 -0.0001 0.0000 0.0000
# 3 44.8548 44.8548 68.5879 0.0000 0.0000 0.0000
# 4 0.0001 -0.0001 0.0000 11.1151 0.0000 0.0000
# 5 0.0000 0.0000 0.0000 0.0000 11.1151 0.0001
# 6 0.0000 0.0000 0.0000 0.0000 0.0001 37.6001
#
#
#
# Elastic Compliance Matrix: (Units=1/GPa)
#
#
# Indices 1 2 3 4 5 6 
#
# 1 0.011332 -0.001966 -0.006125 0.000000 0.000000 0.000000
# 2 -0.001966 0.011332 -0.006125 0.000000 0.000000 0.000000
# 3 -0.006125 -0.006125 0.022591 0.000000 0.000000 0.000000
# 4 0.000000 0.000000 0.000000 0.089968 0.000000 0.000000
# 5 0.000000 0.000000 0.000000 0.000000 0.089968 0.000000
# 6 0.000000 0.000000 0.000000 0.000000 0.000000 0.026596
#
#
# Mechanical properties :
#
#
# Convention : Reuss Voigt Hill
#
# Bulk Modulus (GPa) = 59.44350 64.31984 61.88167
# Shear Modulus (GPa) = 17.49309 23.59247 20.54278
#
# Velocity S-wave (km/s) = 2.91305 3.38299 3.15678
# Velocity P-wave (km/s) = 6.33643 6.81622 6.58070
#
# Compressibility (1/GPa) = 0.01682270
#
# Stress axis : x y z
#
# Youngs Moduli (GPa) = 88.24581 88.24581 44.26475
#
# Poissons Ratio (x) = 0.17348 0.27113
# Poissons Ratio (y) = 0.17348 0.27113
# Poissons Ratio (z) = 0.54053 0.54053
#
# Static dielectric constant tensor:
#      x y z
#    x 3.908660 0.000000 0.000000 
#    y 0.000000 3.908660 0.000000 
#    z 0.000000 0.000000 3.334910 
# 
# 
# High freq. dielectric constant tensor:
#      x y z
#    x 1.821130 0.000000 0.000000 
#    y 0.000000 1.821130 0.000000 
#    z 0.000000 0.000000 1.776850 
# 
# From -- ./inp_files/3084.got.cif
#   From: 2010.03.12/outbox.cif.g09.slc.cpg/sg188_2_cif.got.tgz:3084.got - 2010.04.01 12:01:06.
