data_PCOD8327671
_publ_section_title
;
Structure prediction by ZEFSAII (Michael W. Deem and Ramdas Pophale) SiO2 
 PCOD8327671
Probable space group: P -6 2 M
;
_chemical_formula_sum "Si O2"
_cell_formula_units_Z 48
_cell_length_a 18.396985
_cell_length_b 18.396985
_cell_length_c 9.099531
_cell_angle_alpha 90.000000
_cell_angle_beta 90.000000
_cell_angle_gamma 120.000000
_cell_volume 2667.122414
_symmetry_space_group_name_H-M "P -6 2 M"
_symmetry_group_IT_number 189
_symmetry_cell_setting 'hexagonal'
loop_
_space_group_symop_operation_xyz
x,y,z
-x+y,-x,-z
-y,x-y,z
x,y,-z
-x+y,-x,z
-y,x-y,-z
x-y,-y,-z
-x,-x+y,-z
y,x,-z
y,x,z
x-y,-y,z
-x,-x+y,z
loop_
_atom_site_type_symbol
_atom_site_label
_atom_site_fract_x
_atom_site_fract_y
_atom_site_fract_z
Si Si1 0.333622 0.903901 0.672942
Si Si2 0.594974 0.830605 0.828099
Si Si3 0.423474 0.519490 0.167630
Si Si4 0.000000 0.910227 0.172646
Si Si5 0.248116 0.248116 0.824362
O O1 0.325187 0.892201 0.500000
O O2 0.245382 0.839983 0.744234
O O3 0.402765 0.880866 0.726632
O O4 0.362402 0.000000 0.718267
O O5 0.512778 0.838717 0.797732
O O6 0.672094 0.916270 0.765770
O O7 0.604801 0.818676 0.000000
O O8 0.444470 0.444470 0.192079
O O9 0.444194 0.551456 0.000000
O O10 0.000000 0.832323 0.248811
O O11 0.917365 0.917365 0.214807
O O12 0.000000 0.896075 0.000000
O O13 0.250119 0.250119 0.000000
#
# Coordination Sequence:
#
# PCOD8327671 Si02
#       5
#    12  12  12   6   6
#     4  10  22  38  54  76 109 146 183 222 262 314
#     4  10  19  33  56  85 110 137 176 223 272 322
#     4   9  17  34  58  80 105 138 175 220 271 321
#     4   7  12  22  36  61 102 145 172 200 249 303
#     4   9  16  28  49  79 112 139 174 220 265 315
#
# _framework density 17.996922999999999
#
# number of rings (size 3 to 8) (size 9 to 14) (size 15 to 20)
#    0.250    2.500    1.250    0.750    0.000    3.500 
#    1.500    3.125    0.000    0.000    0.000    0.000 
#    0.000    0.000    0.000    0.000    0.000    0.000 
#
# Total GULP energy -594845.694454 kJ/mol
# GULP energy per Si atom -12392.618634 kJ/mol
# Density = 1.795596 g / cm^3
# Si number density = 17.996923 Si / 1000 Ang^3
#
#
#
# Elastic Constant Matrix: (Units=GPa)
#
#
# Indices 1 2 3 4 5 6 
#
# 1 130.5508 77.0688 52.3243 0.0000 0.0000 0.0000
# 2 77.0688 130.5508 52.3243 0.0000 0.0000 0.0000
# 3 52.3243 52.3243 60.2457 0.0000 0.0000 0.0000
# 4 0.0000 0.0000 0.0000 18.7689 0.0000 0.0000
# 5 0.0000 0.0000 0.0000 0.0000 18.7689 0.0000
# 6 0.0000 0.0000 0.0000 0.0000 0.0000 26.7410
#
#
#
# Elastic Compliance Matrix: (Units=1/GPa)
#
#
# Indices 1 2 3 4 5 6 
#
# 1 0.013632 -0.005066 -0.007440 0.000000 0.000000 0.000000
# 2 -0.005066 0.013632 -0.007440 0.000000 0.000000 0.000000
# 3 -0.007440 -0.007440 0.029523 0.000000 0.000000 0.000000
# 4 0.000000 0.000000 0.000000 0.053280 0.000000 0.000000
# 5 0.000000 0.000000 0.000000 0.000000 0.053280 0.000000
# 6 0.000000 0.000000 0.000000 0.000000 0.000000 0.037396
#
#
# Mechanical properties :
#
#
# Convention : Reuss Voigt Hill
#
# Bulk Modulus (GPa) = 59.18942 76.08689 67.63816
# Shear Modulus (GPa) = 20.30320 22.16442 21.23381
#
# Velocity S-wave (km/s) = 3.36244 3.51318 3.43863
# Velocity P-wave (km/s) = 6.93070 7.66981 7.30961
#
# Compressibility (1/GPa) = 0.01689491
#
# Stress axis : x y z
#
# Youngs Moduli (GPa) = 73.35515 73.35515 33.87208
#
# Poissons Ratio (x) = 0.37159 0.25202
# Poissons Ratio (y) = 0.37159 0.25202
# Poissons Ratio (z) = 0.54579 0.54579
#
# Static dielectric constant tensor:
#      x y z
#    x 3.447350 0.000000 0.000000 
#    y 0.000000 3.447350 0.000000 
#    z 0.000000 0.000000 2.994520 
# 
# 
# High freq. dielectric constant tensor:
#      x y z
#    x 1.697140 0.000000 0.000000 
#    y 0.000000 1.697140 0.000000 
#    z 0.000000 0.000000 1.663150 
# 
# From -- ./inp_files/643.got.cif
#   From: 2010.03.12/outbox.cif.g09.slc.cpg/sg189_1_cif.got.tgz:643.got - 2010.04.01 12:03:36.
