data_PCOD8327038
_publ_section_title
;
Structure prediction by ZEFSAII (Michael W. Deem and Ramdas Pophale) SiO2 
 PCOD8327038
Probable space group: P -6 M 2
;
_chemical_formula_sum "Si O2"
_cell_formula_units_Z 72
_cell_length_a 12.539422
_cell_length_b 12.539422
_cell_length_c 30.680880
_cell_angle_alpha 90.000000
_cell_angle_beta 90.000000
_cell_angle_gamma 120.000000
_cell_volume 4177.856130
_symmetry_space_group_name_H-M "P -6 M 2"
_symmetry_group_IT_number 187
_symmetry_cell_setting 'hexagonal'
loop_
_space_group_symop_operation_xyz
x,y,z
-x+y,-x,-z
-y,x-y,z
x,y,-z
-x+y,-x,z
-y,x-y,-z
-y,-x,-z
-x+y,y,-z
x,x-y,-z
-x+y,y,z
x,x-y,z
-y,-x,z
loop_
_atom_site_type_symbol
_atom_site_label
_atom_site_fract_x
_atom_site_fract_y
_atom_site_fract_z
Si Si1 0.666730 0.579885 0.577255
Si Si2 0.332458 0.915177 0.500000
Si Si3 0.750849 0.749243 0.917433
Si Si4 0.420694 0.087189 0.324235
Si Si5 0.248512 0.001204 0.753934
Si Si6 0.415769 0.331718 0.000000
Si Si7 0.668352 0.084940 0.835288
O O1 0.792484 0.584967 0.566332
O O2 0.559607 0.440394 0.570017
O O3 0.655276 0.671263 0.543694
O O4 0.663298 0.622922 0.626564
O O5 0.216724 0.783277 0.500000
O O6 0.449255 0.898509 0.500000
O O7 0.893631 0.787261 0.918584
O O8 0.677788 0.662932 0.957760
O O9 0.686035 0.677570 0.873498
O O10 0.742524 0.871262 0.920030
O O11 0.537012 0.074024 0.310696
O O12 0.461066 0.230533 0.319568
O O13 0.306369 0.003365 0.293068
O O14 0.207279 0.103640 0.757028
O O15 0.350979 0.026008 0.789823
O O16 0.130720 0.869281 0.761821
O O17 0.538250 0.461751 0.000000
O O18 0.453297 0.226649 0.000000
O O19 0.536709 0.073417 0.839983
O O20 0.771753 0.228248 0.838052
#
# Coordination Sequence:
#
# PCOD8327038 Si02
#       7
#    12   6  12  12  12   6  12
#     4   9  17  30  50  75  98 120 150 193 245 292
#     4  10  20  32  46  64  90 126 164 198 230 272
#     4  10  20  34  54  78 104 134 167 205 246 291
#     4   9  17  30  50  75 100 124 152 192 242 292
#     4  10  20  33  50  71  97 130 166 203 239 280
#     4  10  20  34  54  78 104 134 168 210 256 298
#     4  10  20  34  54  78 102 128 160 203 252 298
#
# _framework density 17.233720000000002
#
# number of rings (size 3 to 8) (size 9 to 14) (size 15 to 20)
#    0.000    2.333    0.000    3.000    0.000    2.000 
#    0.000    6.667    0.000   12.667    0.000    0.000 
#    0.000    0.000    0.000    0.000    0.000    0.000 
#
# Total GULP energy -892955.415672 kJ/mol
# GULP energy per Si atom -12402.158551 kJ/mol
# Density = 1.719450 g / cm^3
# Si number density = 17.233720 Si / 1000 Ang^3
#
#
#
# Elastic Constant Matrix: (Units=GPa)
#
#
# Indices 1 2 3 4 5 6 
#
# 1 93.9810 48.6851 44.8039 0.0000 -0.0003 0.0000
# 2 48.6851 93.9810 44.8039 0.0000 0.0003 0.0000
# 3 44.8039 44.8039 116.6592 0.0000 0.0000 0.0000
# 4 0.0000 0.0000 0.0000 10.6517 0.0000 0.0003
# 5 -0.0003 0.0003 0.0000 0.0000 10.6517 0.0000
# 6 0.0000 0.0000 0.0000 0.0003 0.0000 22.6480
#
#
#
# Elastic Compliance Matrix: (Units=1/GPa)
#
#
# Indices 1 2 3 4 5 6 
#
# 1 0.015657 -0.006420 -0.003548 0.000000 0.000001 0.000000
# 2 -0.006420 0.015657 -0.003548 0.000000 -0.000001 0.000000
# 3 -0.003548 -0.003548 0.011297 0.000000 0.000000 0.000000
# 4 0.000000 0.000000 0.000000 0.093882 0.000000 -0.000001
# 5 0.000001 -0.000001 0.000000 0.000000 0.093882 0.000000
# 6 0.000000 0.000000 0.000000 -0.000001 0.000000 0.044154
#
#
# Mechanical properties :
#
#
# Convention : Reuss Voigt Hill
#
# Bulk Modulus (GPa) = 64.17952 64.57855 64.37904
# Shear Modulus (GPa) = 16.29969 19.87883 18.08926
#
# Velocity S-wave (km/s) = 3.07873 3.39998 3.24333
# Velocity P-wave (km/s) = 7.06821 7.27782 7.17378
#
# Compressibility (1/GPa) = 0.01558129
#
# Stress axis : x y z
#
# Youngs Moduli (GPa) = 63.86762 63.86762 88.51818
#
# Poissons Ratio (x) = 0.41001 0.31405
# Poissons Ratio (y) = 0.41001 0.31405
# Poissons Ratio (z) = 0.22659 0.22659
#
# Static dielectric constant tensor:
#      x y z
#    x 3.023450 0.000000 0.000000 
#    y 0.000000 3.023450 0.000000 
#    z 0.000000 0.000000 3.535040 
# 
# 
# High freq. dielectric constant tensor:
#      x y z
#    x 1.653210 0.000000 0.000000 
#    y 0.000000 1.653210 0.000000 
#    z 0.000000 0.000000 1.687860 
# 
# From -- ./inp_files/4557.got.cif
#   From: 2010.03.12/outbox.cif.g09.slc.cpg/sg187_3_cif.got.tgz:4557.got - 2010.04.01 11:58:23.
