data_PCOD8327952
_publ_section_title
;
Structure prediction by ZEFSAII (Michael W. Deem and Ramdas Pophale) SiO2 
 PCOD8327952
Probable space group: P -6 2 C
;
_chemical_formula_sum "Si O2"
_cell_formula_units_Z 84
_cell_length_a 17.870480
_cell_length_b 17.870480
_cell_length_c 13.755697
_cell_angle_alpha 90.000000
_cell_angle_beta 90.000000
_cell_angle_gamma 120.000000
_cell_volume 3804.395578
_symmetry_space_group_name_H-M "P -6 2 C"
_symmetry_group_IT_number 190
_symmetry_cell_setting 'hexagonal'
loop_
_space_group_symop_operation_xyz
x,y,z
-x+y,-x,1/2-z
-y,x-y,z
x,y,1/2-z
-x+y,-x,z
-y,x-y,1/2-z
x-y,-y,-z
-x,-x+y,-z
y,x,-z
y,x,1/2+z
x-y,-y,1/2+z
-x,-x+y,1/2+z
loop_
_atom_site_type_symbol
_atom_site_label
_atom_site_fract_x
_atom_site_fract_y
_atom_site_fract_z
Si Si1 0.703113 0.783035 0.134870
Si Si2 0.745211 0.845411 0.642231
Si Si3 0.794829 0.024121 0.865368
Si Si4 0.615122 0.989135 0.863166
Si Si5 0.748579 0.198599 0.357361
Si Si6 0.389171 0.539106 0.136812
Si Si7 0.794122 0.277602 0.943091
O O1 0.683192 0.767198 0.250000
O O2 0.764332 0.747061 0.092398
O O3 0.612051 0.737889 0.078568
O O4 0.758452 0.883854 0.106208
O O5 0.782488 0.849238 0.750000
O O6 0.801688 0.941493 0.592642
O O7 0.648865 0.827322 0.646725
O O8 0.785347 0.010977 0.750000
O O9 0.708648 0.018656 0.909957
O O10 0.630135 0.008026 0.750000
O O11 0.546363 0.888538 0.883097
O O12 0.583784 0.053919 0.903697
O O13 0.742841 0.234638 0.250000
O O14 0.769518 0.267116 0.442423
O O15 0.411080 0.560182 0.250000
O O16 0.444245 0.625364 0.076960
O O17 0.286990 0.500015 0.122162
#
# Coordination Sequence:
#
# PCOD8327952 Si02
#       7
#    12  12  12  12  12  12  12
#     4  10  18  32  55  89 129 167 210 260 321 391
#     4   8  16  32  55  81 120 168 210 260 316 370
#     4   8  13  27  51  81 118 166 211 249 303 375
#     4   8  15  33  61  84 117 164 209 255 307 372
#     4   9  20  41  63  86 120 165 218 267 309 367
#     4  11  22  39  61  96 135 163 200 259 331 404
#     4  12  24  38  64  94 125 169 210 259 335 397
#
# _framework density 22.079723000000001
#
# number of rings (size 3 to 8) (size 9 to 14) (size 15 to 20)
#    0.000    2.571    1.429    3.286    0.000    1.143 
#    0.857    3.571    0.000    3.429    0.000    2.000 
#    0.000    0.000    0.000    0.000    0.000    0.000 
#
# Total GULP energy -1040726.902037 kJ/mol
# GULP energy per Si atom -12389.605977 kJ/mol
# Density = 2.202947 g / cm^3
# Si number density = 22.079723 Si / 1000 Ang^3
#
#
#
# Elastic Constant Matrix: (Units=GPa)
#
#
# Indices 1 2 3 4 5 6 
#
# 1 96.3979 40.5243 11.7049 0.0000 0.0000 0.0000
# 2 40.5243 96.3979 11.7049 0.0000 0.0000 0.0000
# 3 11.7049 11.7049 63.1841 0.0000 0.0000 0.0000
# 4 0.0000 0.0000 0.0000 -9.0197 0.0000 0.0000
# 5 0.0000 0.0000 0.0000 0.0000 -9.0197 0.0000
# 6 0.0000 0.0000 0.0000 0.0000 0.0000 27.9368
#
#
#
# Elastic Compliance Matrix: (Units=1/GPa)
#
#
# Indices 1 2 3 4 5 6 
#
# 1 0.012720 -0.005178 -0.001397 0.000000 0.000000 0.000000
# 2 -0.005178 0.012720 -0.001397 0.000000 0.000000 0.000000
# 3 -0.001397 -0.001397 0.016344 0.000000 0.000000 0.000000
# 4 0.000000 0.000000 0.000000 -0.110869 0.000000 0.000000
# 5 0.000000 0.000000 0.000000 0.000000 -0.110869 0.000000
# 6 0.000000 0.000000 0.000000 0.000000 0.000000 0.035795
#
#
# Mechanical properties :
#
#
# Convention : Reuss Voigt Hill
#
# Bulk Modulus (GPa) = 38.69940 42.64976 40.67458
# Shear Modulus (GPa) = -41.80572 14.78254 -13.51159
#
# Velocity S-wave (km/s) = -4.35604 2.59029 -2.47644
# Velocity P-wave (km/s) = 2.78118 5.32018 3.20698
#
# Compressibility (1/GPa) = 0.02584019
#
# Stress axis : x y z
#
# Youngs Moduli (GPa) = 78.61681 78.61681 61.18287
#
# Poissons Ratio (x) = 0.40705 0.08549
# Poissons Ratio (y) = 0.40705 0.08549
# Poissons Ratio (z) = 0.10984 0.10984
#
# Static dielectric constant tensor:
#      x y z
#    x 3.971000 0.000000 0.000000 
#    y 0.000000 3.971000 0.000000 
#    z 0.000000 0.000000 4.098480 
# 
# 
# High freq. dielectric constant tensor:
#      x y z
#    x 1.849650 0.000000 0.000000 
#    y 0.000000 1.849650 0.000000 
#    z 0.000000 0.000000 1.875800 
# 
# From -- ./inp_files/3178.got.cif
#   From: 2010.06.25/outbox.cif.g09.slc.cpg/sg190_2_cif.got.tgz:3178.got - 2010.06.28 13:08:06.
