data_PCOD8327418
_publ_section_title
;
Structure prediction by ZEFSAII (Michael W. Deem and Ramdas Pophale) SiO2 
 PCOD8327418
Probable space group: P -6 C 2
;
_chemical_formula_sum "Si O2"
_cell_formula_units_Z 84
_cell_length_a 17.803502
_cell_length_b 17.803502
_cell_length_c 14.087163
_cell_angle_alpha 90.000000
_cell_angle_beta 90.000000
_cell_angle_gamma 120.000000
_cell_volume 3866.918749
_symmetry_space_group_name_H-M "P -6 C 2"
_symmetry_group_IT_number 188
_symmetry_cell_setting 'hexagonal'
loop_
_space_group_symop_operation_xyz
x,y,z
-x+y,-x,1/2-z
-y,x-y,z
x,y,1/2-z
-x+y,-x,z
-y,x-y,1/2-z
-y,-x,-z
-x+y,y,-z
x,x-y,-z
-x+y,y,1/2+z
x,x-y,1/2+z
-y,-x,1/2+z
loop_
_atom_site_type_symbol
_atom_site_label
_atom_site_fract_x
_atom_site_fract_y
_atom_site_fract_z
Si Si1 0.866349 0.419437 0.638869
Si Si2 0.791462 0.710587 0.436545
Si Si3 0.155282 0.965997 0.750000
Si Si4 0.712830 0.925408 0.442226
Si Si5 0.751241 0.527587 0.137475
Si Si6 0.447278 0.512740 0.863902
Si Si7 0.524593 0.842445 0.481499
Si Si8 0.187273 0.155476 0.750000
O O1 0.867523 0.411834 0.750000
O O2 0.805428 0.458274 0.608177
O O3 0.819278 0.320585 0.598738
O O4 0.966278 0.481386 0.605392
O O5 0.879646 0.759292 0.500000
O O6 0.718604 0.711423 0.502076
O O7 0.773767 0.615746 0.413480
O O8 0.793293 0.760483 0.342032
O O9 0.201026 0.953515 0.660276
O O10 0.053125 0.905240 0.750000
O O11 0.175613 0.062307 0.750000
O O12 0.757800 0.878900 0.500000
O O13 0.611927 0.859264 0.430050
O O14 0.759115 0.542028 0.250000
O O15 0.431925 0.504628 0.750000
O O16 0.356941 0.456201 0.921577
O O17 0.475461 0.608411 0.902409
O O18 0.474849 0.737425 0.500000
#
# Coordination Sequence:
#
# PCOD8327418 Si02
#       8
#    12  12   6  12  12  12  12   6
#     4   9  19  36  62  97 138 184 233 278 329 397
#     4  12  24  40  63  96 133 173 230 288 339 401
#     4  12  25  44  68  98 130 182 222 282 346 417
#     4  11  24  43  67  98 134 173 225 281 343 406
#     4  10  20  37  63  97 137 190 234 281 336 396
#     4  10  22  43  70 101 139 177 226 281 352 414
#     4  10  24  45  68  98 133 173 220 279 345 426
#     4  12  25  44  66  92 132 172 228 280 352 413
#
# _framework density 21.722719999999999
#
# number of rings (size 3 to 8) (size 9 to 14) (size 15 to 20)
#    0.000    1.429    3.571    1.286    3.000    1.714 
#    8.571    0.000    0.000    0.000    0.000    0.000 
#    0.000    0.000    0.000    0.000    0.000    0.000 
#
# Total GULP energy -1040935.997340 kJ/mol
# GULP energy per Si atom -12392.095206 kJ/mol
# Density = 2.167328 g / cm^3
# Si number density = 21.722720 Si / 1000 Ang^3
#
#
#
# Elastic Constant Matrix: (Units=GPa)
#
#
# Indices 1 2 3 4 5 6 
#
# 1 -443.9718 592.0638 34.4291 0.0064 0.0000 0.0000
# 2 592.0638 -443.9718 34.4291 -0.0064 0.0000 0.0000
# 3 34.4291 34.4291 130.8488 0.0000 0.0000 0.0000
# 4 0.0064 -0.0064 0.0000 33.3153 0.0000 0.0000
# 5 0.0000 0.0000 0.0000 0.0000 33.3153 0.0064
# 6 0.0000 0.0000 0.0000 0.0000 0.0064 -518.0178
#
#
#
# Elastic Compliance Matrix: (Units=1/GPa)
#
#
# Indices 1 2 3 4 5 6 
#
# 1 0.003364 0.004330 -0.002024 0.000000 0.000000 0.000000
# 2 0.004330 0.003364 -0.002024 0.000000 0.000000 0.000000
# 3 -0.002024 -0.002024 0.008708 0.000000 0.000000 0.000000
# 4 0.000000 0.000000 0.000000 0.030016 0.000000 0.000000
# 5 0.000000 0.000000 0.000000 0.000000 0.030016 0.000000
# 6 0.000000 0.000000 0.000000 0.000000 0.000000 -0.001930
#
#
# Mechanical properties :
#
#
# Convention : Reuss Voigt Hill
#
# Bulk Modulus (GPa) = 62.50868 62.74992 62.62930
# Shear Modulus (GPa) = 63.84912 -184.81191 -60.48139
#
# Velocity S-wave (km/s) = 5.42739 -9.23376 -5.28232
# Velocity P-wave (km/s) = 8.25310 9.20509 2.88271
#
# Compressibility (1/GPa) = 0.01599778
#
# Stress axis : x y z
#
# Youngs Moduli (GPa) = 297.23724 297.23724 114.84029
#
# Poissons Ratio (x) = -1.28690 0.23248
# Poissons Ratio (y) = -1.28690 0.23248
# Poissons Ratio (z) = 0.60173 0.60173
#
# Static dielectric constant tensor:
#      x y z
#    x 5.117730 0.000000 0.000000 
#    y 0.000000 5.117730 0.000000 
#    z 0.000000 0.000000 3.961240 
# 
# 
# High freq. dielectric constant tensor:
#      x y z
#    x 1.854270 0.000000 0.000000 
#    y 0.000000 1.854270 0.000000 
#    z 0.000000 0.000000 1.864040 
# 
# From -- ./inp_files/2629.got.cif
#   From: 2010.03.12/outbox.cif.g09.slc.cpg/sg188_2_cif.got.tgz:2629.got - 2010.04.01 12:01:06.
