data_PCOD8327449
_publ_section_title
;
Structure prediction by ZEFSAII (Michael W. Deem and Ramdas Pophale) SiO2 
 PCOD8327449
Probable space group: P -6 C 2
;
_chemical_formula_sum "Si O2"
_cell_formula_units_Z 72
_cell_length_a 14.634524
_cell_length_b 14.634524
_cell_length_c 17.247380
_cell_angle_alpha 90.000000
_cell_angle_beta 90.000000
_cell_angle_gamma 120.000000
_cell_volume 3198.975884
_symmetry_space_group_name_H-M "P -6 C 2"
_symmetry_group_IT_number 188
_symmetry_cell_setting 'hexagonal'
loop_
_space_group_symop_operation_xyz
x,y,z
-x+y,-x,1/2-z
-y,x-y,z
x,y,1/2-z
-x+y,-x,z
-y,x-y,1/2-z
-y,-x,-z
-x+y,y,-z
x,x-y,-z
-x+y,y,1/2+z
x,x-y,1/2+z
-y,-x,1/2+z
loop_
_atom_site_type_symbol
_atom_site_label
_atom_site_fract_x
_atom_site_fract_y
_atom_site_fract_z
Si Si1 0.530337 0.381191 0.422899
Si Si2 0.002496 0.209098 0.981202
Si Si3 0.722387 0.180818 0.664497
Si Si4 0.481450 0.911578 0.418682
Si Si5 0.305289 0.954952 0.122585
Si Si6 0.100293 0.342581 0.662794
O O1 0.600721 0.399280 0.500000
O O2 0.457436 0.259039 0.400623
O O3 0.607164 0.441290 0.351205
O O4 0.450217 0.422695 0.439786
O O5 0.013857 0.249097 0.891950
O O6 0.884551 0.115450 0.000000
O O7 0.083633 0.167266 0.000000
O O8 0.036161 0.313245 0.033337
O O9 0.759144 0.228584 0.750000
O O10 0.719370 0.069838 0.660204
O O11 0.426297 0.852593 0.500000
O O12 0.391667 0.917685 0.369281
O O13 0.538411 0.859557 0.370256
O O14 0.202614 0.872892 0.169075
O O15 0.053123 0.330322 0.750000
#
# Coordination Sequence:
#
# PCOD8327449 Si02
#       6
#    12  12  12  12  12  12
#     4  10  22  37  58  88 127 171 217 257 317 393
#     4  10  22  42  70  99 135 182 231 272 335 421
#     4  11  22  37  60  90 132 171 216 270 326 389
#     4  10  21  40  66  91 127 171 223 269 333 412
#     4  10  23  42  68  97 134 178 229 277 339 412
#     4  11  24  43  68 101 138 172 227 297 348 394
#
# _framework density 22.507203000000001
#
# number of rings (size 3 to 8) (size 9 to 14) (size 15 to 20)
#    0.000    1.667    1.667    2.000    2.333    4.000 
#    1.000    3.333    0.000    0.000    0.000    0.000 
#    0.000    0.000    0.000    0.000    0.000    0.000 
#
# Total GULP energy -892502.288935 kJ/mol
# GULP energy per Si atom -12395.865124 kJ/mol
# Density = 2.245598 g / cm^3
# Si number density = 22.507203 Si / 1000 Ang^3
#
#
#
# Elastic Constant Matrix: (Units=GPa)
#
#
# Indices 1 2 3 4 5 6 
#
# 1 94.4677 38.0753 34.1744 0.0000 0.0000 0.0000
# 2 38.0753 94.4677 34.1744 0.0000 0.0000 0.0000
# 3 34.1744 34.1744 162.2752 0.0000 0.0000 0.0000
# 4 0.0000 0.0000 0.0000 22.2708 0.0000 0.0000
# 5 0.0000 0.0000 0.0000 0.0000 22.2708 0.0000
# 6 0.0000 0.0000 0.0000 0.0000 0.0000 28.1962
#
#
#
# Elastic Compliance Matrix: (Units=1/GPa)
#
#
# Indices 1 2 3 4 5 6 
#
# 1 0.013098 -0.004635 -0.001782 0.000000 0.000000 0.000000
# 2 -0.004635 0.013098 -0.001782 0.000000 0.000000 0.000000
# 3 -0.001782 -0.001782 0.006913 0.000000 0.000000 0.000000
# 4 0.000000 0.000000 0.000000 0.044902 0.000000 0.000000
# 5 0.000000 0.000000 0.000000 0.000000 0.044902 0.000000
# 6 0.000000 0.000000 0.000000 0.000000 0.000000 0.035466
#
#
# Mechanical properties :
#
#
# Convention : Reuss Voigt Hill
#
# Bulk Modulus (GPa) = 59.84059 62.67323 61.25691
# Shear Modulus (GPa) = 27.72408 30.86664 29.29536
#
# Velocity S-wave (km/s) = 3.51349 3.70728 3.61168
# Velocity P-wave (km/s) = 6.56540 6.79937 6.68341
#
# Compressibility (1/GPa) = 0.01671107
#
# Stress axis : x y z
#
# Youngs Moduli (GPa) = 76.34528 76.34528 144.65234
#
# Poissons Ratio (x) = 0.35382 0.25784
# Poissons Ratio (y) = 0.35382 0.25784
# Poissons Ratio (z) = 0.13608 0.13608
#
# Static dielectric constant tensor:
#      x y z
#    x 3.955350 0.000000 0.000000 
#    y 0.000000 3.955350 0.000000 
#    z 0.000000 0.000000 3.917910 
# 
# 
# High freq. dielectric constant tensor:
#      x y z
#    x 1.876550 0.000000 0.000000 
#    y 0.000000 1.876550 0.000000 
#    z 0.000000 0.000000 1.881400 
# 
# From -- ./inp_files/3174.got.cif
#   From: 2010.03.12/outbox.cif.g09.slc.cpg/sg188_2_cif.got.tgz:3174.got - 2010.04.01 12:01:06.
