data_PCOD8327748
_publ_section_title
;
Structure prediction by ZEFSAII (Michael W. Deem and Ramdas Pophale) SiO2 
 PCOD8327748
Probable space group: P -6 2 M
;
_chemical_formula_sum "Si O2"
_cell_formula_units_Z 72
_cell_length_a 22.684436
_cell_length_b 22.684436
_cell_length_c 9.244332
_cell_angle_alpha 90.000000
_cell_angle_beta 90.000000
_cell_angle_gamma 120.000000
_cell_volume 4119.667239
_symmetry_space_group_name_H-M "P -6 2 M"
_symmetry_group_IT_number 189
_symmetry_cell_setting 'hexagonal'
loop_
_space_group_symop_operation_xyz
x,y,z
-x+y,-x,-z
-y,x-y,z
x,y,-z
-x+y,-x,z
-y,x-y,-z
x-y,-y,-z
-x,-x+y,-z
y,x,-z
y,x,z
x-y,-y,z
-x,-x+y,z
loop_
_atom_site_type_symbol
_atom_site_label
_atom_site_fract_x
_atom_site_fract_y
_atom_site_fract_z
Si Si1 0.178564 0.621845 0.333751
Si Si2 0.267660 0.077260 0.333489
Si Si3 0.771986 0.290832 0.333242
Si Si4 0.803442 0.192352 0.829828
Si Si5 0.923060 0.847473 0.839072
Si Si6 0.921085 0.575984 0.170731
O O1 0.155703 0.613406 0.500000
O O2 0.249876 0.690945 0.310203
O O3 0.194243 0.563261 0.284453
O O4 0.115727 0.616992 0.242647
O O5 0.284382 0.098387 0.500000
O O6 0.328232 0.128835 0.234655
O O7 0.203385 0.083549 0.287185
O O8 0.251907 0.000000 0.307939
O O9 0.789764 0.285654 0.500000
O O10 0.803361 0.258119 0.229238
O O11 0.735062 0.121655 0.784856
O O12 0.810372 0.197644 0.000000
O O13 0.912354 0.912354 0.836356
O O14 0.000000 0.870540 0.803334
O O15 0.903335 0.813353 0.000000
O O16 0.000000 0.621433 0.222846
O O17 0.918358 0.564904 0.000000
#
# Coordination Sequence:
#
# PCOD8327748 Si02
#       6
#    12  12  12  12  12  12
#     4   9  17  30  51  77 103 132 165 200 242 294
#     4  10  21  36  52  71  97 128 163 206 253 296
#     4   9  17  31  51  76 105 133 162 200 245 292
#     4  10  20  34  53  75  98 129 170 210 250 300
#     4   9  17  30  49  72  97 125 157 194 238 290
#     4   9  19  35  52  72 102 136 167 205 252 296
#
# _framework density 17.477139999999999
#
# number of rings (size 3 to 8) (size 9 to 14) (size 15 to 20)
#    0.000    2.667    0.000    1.500    0.000    5.667 
#    0.000    2.500    0.000    4.000    0.000    0.000 
#    0.000    0.000    0.000    0.000    0.000    0.000 
#
# Total GULP energy -892483.813209 kJ/mol
# GULP energy per Si atom -12395.608517 kJ/mol
# Density = 1.743736 g / cm^3
# Si number density = 17.477140 Si / 1000 Ang^3
#
#
#
# Elastic Constant Matrix: (Units=GPa)
#
#
# Indices 1 2 3 4 5 6 
#
# 1 104.8919 64.3794 46.2579 0.0000 0.0000 0.0000
# 2 64.3794 104.8919 46.2579 0.0000 0.0000 0.0000
# 3 46.2579 46.2579 57.2817 0.0000 0.0000 0.0000
# 4 0.0000 0.0000 0.0000 32.2897 0.0000 0.0000
# 5 0.0000 0.0000 0.0000 0.0000 32.2897 0.0000
# 6 0.0000 0.0000 0.0000 0.0000 0.0000 20.2562
#
#
#
# Elastic Compliance Matrix: (Units=1/GPa)
#
#
# Indices 1 2 3 4 5 6 
#
# 1 0.017630 -0.007054 -0.008540 0.000000 0.000000 0.000000
# 2 -0.007054 0.017630 -0.008540 0.000000 0.000000 0.000000
# 3 -0.008540 -0.008540 0.031251 0.000000 0.000000 0.000000
# 4 0.000000 0.000000 0.000000 0.030970 0.000000 0.000000
# 5 0.000000 0.000000 0.000000 0.000000 0.030970 0.000000
# 6 0.000000 0.000000 0.000000 0.000000 0.000000 0.049368
#
#
# Mechanical properties :
#
#
# Convention : Reuss Voigt Hill
#
# Bulk Modulus (GPa) = 54.82179 64.53953 59.68066
# Shear Modulus (GPa) = 21.53636 24.31182 22.92409
#
# Velocity S-wave (km/s) = 3.51416 3.73374 3.62562
# Velocity P-wave (km/s) = 6.92110 7.45627 7.19366
#
# Compressibility (1/GPa) = 0.01824092
#
# Stress axis : x y z
#
# Youngs Moduli (GPa) = 56.72302 56.72302 31.99936
#
# Poissons Ratio (x) = 0.40014 0.27328
# Poissons Ratio (y) = 0.40014 0.27328
# Poissons Ratio (z) = 0.48442 0.48442
#
# Static dielectric constant tensor:
#      x y z
#    x 3.538120 0.000000 0.000000 
#    y 0.000000 3.538120 0.000000 
#    z 0.000000 0.000000 3.288180 
# 
# 
# High freq. dielectric constant tensor:
#      x y z
#    x 1.669970 0.000000 0.000000 
#    y 0.000000 1.669970 0.000000 
#    z 0.000000 0.000000 1.677160 
# 
# From -- ./inp_files/1222.got.cif
#   From: 2010.03.12/outbox.cif.g09.slc.cpg/sg189_1_cif.got.tgz:1222.got - 2010.04.01 12:03:36.
