data_PCOD8327133
_publ_section_title
;
Structure prediction by ZEFSAII (Michael W. Deem and Ramdas Pophale) SiO2 
 PCOD8327133
Probable space group: P -6 M 2
;
_chemical_formula_sum "Si O2"
_cell_formula_units_Z 66
_cell_length_a 12.714870
_cell_length_b 12.714870
_cell_length_c 28.057097
_cell_angle_alpha 90.000000
_cell_angle_beta 90.000000
_cell_angle_gamma 120.000000
_cell_volume 3928.232765
_symmetry_space_group_name_H-M "P -6 M 2"
_symmetry_group_IT_number 187
_symmetry_cell_setting 'hexagonal'
loop_
_space_group_symop_operation_xyz
x,y,z
-x+y,-x,-z
-y,x-y,z
x,y,-z
-x+y,-x,z
-y,x-y,-z
-y,-x,-z
-x+y,y,-z
x,x-y,-z
-x+y,y,z
x,x-y,z
-y,-x,z
loop_
_atom_site_type_symbol
_atom_site_label
_atom_site_fract_x
_atom_site_fract_y
_atom_site_fract_z
Si Si1 0.910229 0.576614 0.132372
Si Si2 0.334989 0.422398 0.323392
Si Si3 0.910564 0.577361 0.239998
Si Si4 0.244963 0.000390 0.947129
Si Si5 0.913732 0.333759 0.588284
Si Si6 0.754647 0.002239 0.500000
O O1 0.777282 0.554564 0.122981
O O2 0.903188 0.451594 0.122632
O O3 0.953385 0.623621 0.186142
O O4 0.004266 0.669395 0.093871
O O5 0.203855 0.407710 0.330821
O O6 0.435366 0.564635 0.323935
O O7 0.337285 0.360785 0.273593
O O8 0.360827 0.351007 0.364354
O O9 0.793888 0.587775 0.254376
O O10 0.873596 0.436798 0.245847
O O11 0.223457 0.111728 0.937934
O O12 0.300529 0.008127 0.000000
O O13 0.117379 0.882622 0.941726
O O14 0.902110 0.451055 0.576586
O O15 0.779484 0.220517 0.595213
O O16 0.984627 0.312485 0.545822
O O17 0.741420 0.870710 0.500000
O O18 0.896478 0.103523 0.500000
#
# Coordination Sequence:
#
# PCOD8327133 Si02
#       6
#    12  12  12  12  12   6
#     4   9  17  29  46  69  95 121 149 184 230 281
#     4  10  20  33  49  69  95 127 161 197 236 279
#     4   9  17  30  49  71  94 121 153 191 233 277
#     4   9  17  29  45  64  86 115 152 192 231 271
#     4  10  20  34  54  78 102 128 160 202 247 287
#     4  10  20  34  52  74 102 136 170 200 234 282
#
# _framework density 16.801449000000002
#
# number of rings (size 3 to 8) (size 9 to 14) (size 15 to 20)
#    0.000    2.545    0.000    2.364    0.000    3.273 
#    0.000    2.727    0.000    8.000    0.000    0.000 
#    0.000    0.000    0.000    0.000    0.000    0.000 
#
# Total GULP energy -818346.840828 kJ/mol
# GULP energy per Si atom -12399.194558 kJ/mol
# Density = 1.676321 g / cm^3
# Si number density = 16.801449 Si / 1000 Ang^3
#
#
#
# Elastic Constant Matrix: (Units=GPa)
#
#
# Indices 1 2 3 4 5 6 
#
# 1 94.4943 46.9055 57.6556 0.0000 0.0000 0.0000
# 2 46.9055 94.4943 57.6556 0.0000 0.0000 0.0000
# 3 57.6556 57.6556 122.3358 0.0000 0.0000 0.0000
# 4 0.0000 0.0000 0.0000 26.0129 0.0000 0.0000
# 5 0.0000 0.0000 0.0000 0.0000 26.0129 0.0000
# 6 0.0000 0.0000 0.0000 0.0000 0.0000 23.7944
#
#
#
# Elastic Compliance Matrix: (Units=1/GPa)
#
#
# Indices 1 2 3 4 5 6 
#
# 1 0.016250 -0.004763 -0.005414 0.000000 0.000000 0.000000
# 2 -0.004763 0.016250 -0.005414 0.000000 0.000000 0.000000
# 3 -0.005414 -0.005414 0.013277 0.000000 0.000000 0.000000
# 4 0.000000 0.000000 0.000000 0.038442 0.000000 0.000000
# 5 0.000000 0.000000 0.000000 0.000000 0.038442 0.000000
# 6 0.000000 0.000000 0.000000 0.000000 0.000000 0.042027
#
#
# Mechanical properties :
#
#
# Convention : Reuss Voigt Hill
#
# Bulk Modulus (GPa) = 68.51070 70.63975 69.57523
# Shear Modulus (GPa) = 24.90839 25.10456 25.00648
#
# Velocity S-wave (km/s) = 3.85452 3.86967 3.86210
# Velocity P-wave (km/s) = 7.78941 7.88041 7.83505
#
# Compressibility (1/GPa) = 0.01459626
#
# Stress axis : x y z
#
# Youngs Moduli (GPa) = 61.53782 61.53782 75.31784
#
# Poissons Ratio (x) = 0.29311 0.40775
# Poissons Ratio (y) = 0.29311 0.40775
# Poissons Ratio (z) = 0.33315 0.33315
#
# Static dielectric constant tensor:
#      x y z
#    x 3.028320 0.000000 0.000000 
#    y 0.000000 3.028320 0.000000 
#    z 0.000000 0.000000 3.478330 
# 
# 
# High freq. dielectric constant tensor:
#      x y z
#    x 1.638510 0.000000 0.000000 
#    y 0.000000 1.638510 0.000000 
#    z 0.000000 0.000000 1.665540 
# 
# From -- ./inp_files/4458.got.cif
#   From: 2010.03.12/outbox.cif.g09.slc.cpg/sg187_3_cif.got.tgz:4458.got - 2010.04.01 11:58:23.
