data_PCOD8327357
_publ_section_title
;
Structure prediction by ZEFSAII (Michael W. Deem and Ramdas Pophale) SiO2 
 PCOD8327357
Probable space group: P -6 C 2
;
_chemical_formula_sum "Si O2"
_cell_formula_units_Z 72
_cell_length_a 22.805887
_cell_length_b 22.805887
_cell_length_c 8.921918
_cell_angle_alpha 90.000000
_cell_angle_beta 90.000000
_cell_angle_gamma 120.000000
_cell_volume 4018.674169
_symmetry_space_group_name_H-M "P -6 C 2"
_symmetry_group_IT_number 188
_symmetry_cell_setting 'hexagonal'
loop_
_space_group_symop_operation_xyz
x,y,z
-x+y,-x,1/2-z
-y,x-y,z
x,y,1/2-z
-x+y,-x,z
-y,x-y,1/2-z
-y,-x,-z
-x+y,y,-z
x,x-y,-z
-x+y,y,1/2+z
x,x-y,1/2+z
-y,-x,1/2+z
loop_
_atom_site_type_symbol
_atom_site_label
_atom_site_fract_x
_atom_site_fract_y
_atom_site_fract_z
Si Si1 0.668055 0.211434 0.077043
Si Si2 0.923665 0.594258 0.423099
Si Si3 0.191833 0.926633 0.426336
Si Si4 0.262095 0.853466 0.924290
Si Si5 0.051752 0.587677 0.077267
Si Si6 0.283775 0.080368 0.074615
O O1 0.671075 0.231028 0.250000
O O2 0.655043 0.136556 0.055460
O O3 0.738796 0.261205 0.000000
O O4 0.609050 0.218099 0.000000
O O5 0.934258 0.617353 0.250000
O O6 0.909011 0.645491 0.514575
O O7 0.989632 0.594465 0.489129
O O8 0.186641 0.912582 0.250000
O O9 0.117252 0.882749 0.500000
O O10 0.242454 0.904581 0.497519
O O11 0.221792 0.005586 0.462008
O O12 0.243423 0.849138 0.750000
O O13 0.341181 0.879625 0.947718
O O14 0.220443 0.779557 0.000000
O O15 0.036751 0.567842 0.250000
O O16 0.060671 0.530336 0.000000
O O17 0.292752 0.094636 0.250000
O O18 0.265421 0.132711 0.000000
#
# Coordination Sequence:
#
# PCOD8327357 Si02
#       6
#    12  12  12  12  12  12
#     4  11  23  38  56  74  97 131 176 226 277 329
#     4  10  21  38  56  78 109 143 178 224 278 328
#     4  10  20  34  55  83 110 142 180 221 269 320
#     4  10  19  33  55  81 111 143 178 222 271 321
#     4  10  21  35  54  81 113 148 183 225 273 324
#     4  11  23  36  55  83 114 149 186 224 271 324
#
# _framework density 17.916357000000001
#
# number of rings (size 3 to 8) (size 9 to 14) (size 15 to 20)
#    0.000    1.667    1.667    4.167    0.000    6.667 
#    0.000    0.000    0.000    0.667    0.000    0.000 
#    0.000    0.000    0.000    0.000    0.000    0.000 
#
# Total GULP energy -892984.791016 kJ/mol
# GULP energy per Si atom -12402.566542 kJ/mol
# Density = 1.787558 g / cm^3
# Si number density = 17.916357 Si / 1000 Ang^3
#
#
#
# Elastic Constant Matrix: (Units=GPa)
#
#
# Indices 1 2 3 4 5 6 
#
# 1 102.3014 45.9490 48.8875 -0.0001 0.0000 0.0000
# 2 45.9490 102.3014 48.8875 0.0001 0.0000 0.0000
# 3 48.8875 48.8875 104.3255 0.0000 0.0000 0.0000
# 4 -0.0001 0.0001 0.0000 30.7968 0.0000 0.0000
# 5 0.0000 0.0000 0.0000 0.0000 30.7968 -0.0001
# 6 0.0000 0.0000 0.0000 0.0000 -0.0001 28.1762
#
#
#
# Elastic Compliance Matrix: (Units=1/GPa)
#
#
# Indices 1 2 3 4 5 6 
#
# 1 0.013754 -0.003991 -0.004575 0.000000 0.000000 0.000000
# 2 -0.003991 0.013754 -0.004575 0.000000 0.000000 0.000000
# 3 -0.004575 -0.004575 0.013873 0.000000 0.000000 0.000000
# 4 0.000000 0.000000 0.000000 0.032471 0.000000 0.000000
# 5 0.000000 0.000000 0.000000 0.000000 0.032471 0.000000
# 6 0.000000 0.000000 0.000000 0.000000 0.000000 0.035491
#
#
# Mechanical properties :
#
#
# Convention : Reuss Voigt Hill
#
# Bulk Modulus (GPa) = 66.23013 66.26405 66.24709
# Shear Modulus (GPa) = 28.88028 28.96761 28.92395
#
# Velocity S-wave (km/s) = 4.01927 4.02534 4.02230
# Velocity P-wave (km/s) = 7.65414 7.65963 7.65689
#
# Compressibility (1/GPa) = 0.01509887
#
# Stress axis : x y z
#
# Youngs Moduli (GPa) = 72.70617 72.70617 72.08290
#
# Poissons Ratio (x) = 0.29020 0.32976
# Poissons Ratio (y) = 0.29020 0.32976
# Poissons Ratio (z) = 0.33261 0.33261
#
# Static dielectric constant tensor:
#      x y z
#    x 3.355820 0.000000 0.000000 
#    y 0.000000 3.355820 0.000000 
#    z 0.000000 0.000000 3.465970 
# 
# 
# High freq. dielectric constant tensor:
#      x y z
#    x 1.689540 0.000000 0.000000 
#    y 0.000000 1.689540 0.000000 
#    z 0.000000 0.000000 1.705200 
# 
# From -- ./inp_files/1064.got.cif
#   From: 2010.03.12/outbox.cif.g09.slc.cpg/sg188_1_cif.got.tgz:1064.got - 2010.04.01 12:01:06.
