data_PCOD8327061
_publ_section_title
;
Structure prediction by ZEFSAII (Michael W. Deem and Ramdas Pophale) SiO2 
 PCOD8327061
Probable space group: P -6 M 2
;
_chemical_formula_sum "Si O2"
_cell_formula_units_Z 72
_cell_length_a 12.577782
_cell_length_b 12.577782
_cell_length_c 30.545988
_cell_angle_alpha 90.000000
_cell_angle_beta 90.000000
_cell_angle_gamma 120.000000
_cell_volume 4184.975645
_symmetry_space_group_name_H-M "P -6 M 2"
_symmetry_group_IT_number 187
_symmetry_cell_setting 'hexagonal'
loop_
_space_group_symop_operation_xyz
x,y,z
-x+y,-x,-z
-y,x-y,z
x,y,-z
-x+y,-x,z
-y,x-y,-z
-y,-x,-z
-x+y,y,-z
x,x-y,-z
-x+y,y,z
x,x-y,z
-y,-x,z
loop_
_atom_site_type_symbol
_atom_site_label
_atom_site_fract_x
_atom_site_fract_y
_atom_site_fract_z
Si Si1 0.088945 0.421810 0.676087
Si Si2 0.999501 0.246364 0.754227
Si Si3 0.083702 0.418926 0.082222
Si Si4 0.417688 0.334840 0.000000
Si Si5 0.418585 0.333055 0.835692
Si Si6 0.579516 0.912951 0.577026
Si Si7 0.249150 0.248160 0.500000
O O1 0.232067 0.464134 0.681103
O O2 0.073625 0.536813 0.688931
O O3 0.005917 0.308933 0.707745
O O4 0.043372 0.376569 0.626697
O O5 0.126078 0.252155 0.766361
O O6 0.970852 0.319828 0.790567
O O7 0.894662 0.105339 0.751453
O O8 0.203790 0.407579 0.079937
O O9 0.123219 0.561610 0.079254
O O10 0.995582 0.343706 0.042415
O O11 0.013068 0.358910 0.126882
O O12 0.559649 0.440352 0.000000
O O13 0.411106 0.205553 0.000000
O O14 0.421905 0.210953 0.847925
O O15 0.557178 0.442823 0.831170
O O16 0.456898 0.913795 0.565925
O O17 0.551046 0.775523 0.569197
O O18 0.682782 0.005506 0.543737
O O19 0.231889 0.115945 0.500000
O O20 0.116209 0.232418 0.500000
#
# Coordination Sequence:
#
# PCOD8327061 Si02
#       7
#    12  12  12   6  12  12   6
#     4   9  17  30  49  73  98 122 151 191 241 290
#     4  10  20  33  49  70  98 132 167 200 235 280
#     4  10  20  34  53  76 102 131 163 201 245 293
#     4  10  20  34  54  78 104 134 168 208 250 292
#     4  10  20  34  53  75  99 128 163 205 249 292
#     4   9  17  30  50  74  96 118 148 192 243 289
#     4  10  20  32  46  66  94 128 162 194 230 276
#
# _framework density 17.204402000000002
#
# number of rings (size 3 to 8) (size 9 to 14) (size 15 to 20)
#    0.000    2.333    0.000    3.000    0.000    2.000 
#    0.000    3.333    0.000   14.667    0.000    0.000 
#    0.000    0.000    0.000    0.000    0.000    0.000 
#
# Total GULP energy -892949.789184 kJ/mol
# GULP energy per Si atom -12402.080405 kJ/mol
# Density = 1.716524 g / cm^3
# Si number density = 17.204402 Si / 1000 Ang^3
#
#
#
# Elastic Constant Matrix: (Units=GPa)
#
#
# Indices 1 2 3 4 5 6 
#
# 1 97.0979 47.5286 49.5348 0.0000 0.0003 0.0000
# 2 47.5286 97.0979 49.5348 0.0000 -0.0003 0.0000
# 3 49.5348 49.5348 107.1901 0.0000 0.0000 0.0000
# 4 0.0000 0.0000 0.0000 24.5414 0.0000 -0.0003
# 5 0.0003 -0.0003 0.0000 0.0000 24.5414 0.0000
# 6 0.0000 0.0000 0.0000 -0.0003 0.0000 24.7847
#
#
#
# Elastic Compliance Matrix: (Units=1/GPa)
#
#
# Indices 1 2 3 4 5 6 
#
# 1 0.015145 -0.005028 -0.004675 0.000000 0.000000 0.000000
# 2 -0.005028 0.015145 -0.004675 0.000000 0.000000 0.000000
# 3 -0.004675 -0.004675 0.013650 0.000000 0.000000 0.000000
# 4 0.000000 0.000000 0.000000 0.040748 0.000000 0.000001
# 5 0.000000 0.000000 0.000000 0.000000 0.040748 0.000000
# 6 0.000000 0.000000 0.000000 0.000001 0.000000 0.040348
#
#
# Mechanical properties :
#
#
# Convention : Reuss Voigt Hill
#
# Bulk Modulus (GPa) = 65.86250 66.06470 65.96360
# Shear Modulus (GPa) = 25.04980 25.09267 25.07124
#
# Velocity S-wave (km/s) = 3.81991 3.82318 3.82154
# Velocity P-wave (km/s) = 7.60402 7.61395 7.60898
#
# Compressibility (1/GPa) = 0.01518315
#
# Stress axis : x y z
#
# Youngs Moduli (GPa) = 66.02693 66.02693 73.25872
#
# Poissons Ratio (x) = 0.33201 0.34250
# Poissons Ratio (y) = 0.33201 0.34250
# Poissons Ratio (z) = 0.30869 0.30869
#
# Static dielectric constant tensor:
#      x y z
#    x 3.123940 0.000000 0.000000 
#    y 0.000000 3.123940 0.000000 
#    z 0.000000 0.000000 3.448820 
# 
# 
# High freq. dielectric constant tensor:
#      x y z
#    x 1.659490 0.000000 0.000000 
#    y 0.000000 1.659490 0.000000 
#    z 0.000000 0.000000 1.681180 
# 
# From -- ./inp_files/4519.got.cif
#   From: 2010.03.12/outbox.cif.g09.slc.cpg/sg187_3_cif.got.tgz:4519.got - 2010.04.01 11:58:23.
