data_PCOD8327807
_publ_section_title
;
Structure prediction by ZEFSAII (Michael W. Deem and Ramdas Pophale) SiO2 
 PCOD8327807
Probable space group: P -6 2 M
;
_chemical_formula_sum "Si O2"
_cell_formula_units_Z 84
_cell_length_a 14.760047
_cell_length_b 14.760047
_cell_length_c 23.936452
_cell_angle_alpha 90.000000
_cell_angle_beta 90.000000
_cell_angle_gamma 120.000000
_cell_volume 4516.124330
_symmetry_space_group_name_H-M "P -6 2 M"
_symmetry_group_IT_number 189
_symmetry_cell_setting 'hexagonal'
loop_
_space_group_symop_operation_xyz
x,y,z
-x+y,-x,-z
-y,x-y,z
x,y,-z
-x+y,-x,z
-y,x-y,-z
x-y,-y,-z
-x,-x+y,-z
y,x,-z
y,x,z
x-y,-y,z
-x,-x+y,z
loop_
_atom_site_type_symbol
_atom_site_label
_atom_site_fract_x
_atom_site_fract_y
_atom_site_fract_z
Si Si1 0.305423 0.427543 0.061793
Si Si2 0.450289 0.570134 0.852235
Si Si3 0.117906 0.338442 0.865804
Si Si4 0.730277 0.262596 0.438249
Si Si5 0.437174 0.225887 0.675637
Si Si6 0.878803 0.124004 0.250130
Si Si7 0.435740 0.878540 0.728390
O O1 0.383317 0.383317 0.055404
O O2 0.357325 0.530719 0.101821
O O3 0.197054 0.336920 0.088775
O O4 0.284238 0.458092 0.000000
O O5 0.480362 0.480362 0.848133
O O6 0.547597 0.678921 0.870499
O O7 0.410226 0.578706 0.790970
O O8 0.146937 0.319169 0.803895
O O9 0.000000 0.249370 0.881079
O O10 0.784849 0.389294 0.431722
O O11 0.755191 0.235198 0.500000
O O12 0.772851 0.213976 0.391919
O O13 0.318482 0.150613 0.695327
O O14 0.515474 0.188263 0.696883
O O15 0.474225 0.341683 0.697797
O O16 0.000000 0.158176 0.253288
O O17 0.811846 0.000000 0.247132
O O18 0.466125 0.000000 0.729618
#
# Coordination Sequence:
#
# PCOD8327807 Si02
#       7
#    12  12  12  12  12  12  12
#     4  10  21  37  55  76 107 145 181 219 274 343
#     4   9  19  35  51  73 106 139 169 217 273 327
#     4  10  20  37  59  81 106 138 185 238 288 337
#     4   8  15  30  51  79 118 159 190 222 273 341
#     4  12  19  33  56  85 115 154 188 225 285 347
#     4  11  23  39  59  84 115 153 198 251 304 351
#     4  11  21  33  52  82 115 142 180 229 274 336
#
# _framework density 18.600020000000001
#
# number of rings (size 3 to 8) (size 9 to 14) (size 15 to 20)
#    0.286    1.571    2.857    2.571    0.000    2.000 
#    0.857    1.429    0.000    4.571    0.000    0.000 
#    0.000    1.143    0.000    0.000    0.000    0.000 
#
# Total GULP energy -1041339.808854 kJ/mol
# GULP energy per Si atom -12396.902486 kJ/mol
# Density = 1.855769 g / cm^3
# Si number density = 18.600020 Si / 1000 Ang^3
#
#
#
# Elastic Constant Matrix: (Units=GPa)
#
#
# Indices 1 2 3 4 5 6 
#
# 1 61.2745 10.9472 29.4271 0.0000 0.0000 0.0000
# 2 10.9472 61.2745 29.4271 0.0000 0.0000 0.0000
# 3 29.4271 29.4271 142.3583 0.0000 0.0000 0.0000
# 4 0.0000 0.0000 0.0000 20.8779 0.0000 0.0000
# 5 0.0000 0.0000 0.0000 0.0000 20.8779 0.0000
# 6 0.0000 0.0000 0.0000 0.0000 0.0000 25.1636
#
#
#
# Elastic Compliance Matrix: (Units=1/GPa)
#
#
# Indices 1 2 3 4 5 6 
#
# 1 0.018261 -0.001609 -0.003442 0.000000 0.000000 0.000000
# 2 -0.001609 0.018261 -0.003442 0.000000 0.000000 0.000000
# 3 -0.003442 -0.003442 0.008448 0.000000 0.000000 0.000000
# 4 0.000000 0.000000 0.000000 0.047898 0.000000 0.000000
# 5 0.000000 0.000000 0.000000 0.000000 0.047898 0.000000
# 6 0.000000 0.000000 0.000000 0.000000 0.000000 0.039740
#
#
# Mechanical properties :
#
#
# Convention : Reuss Voigt Hill
#
# Bulk Modulus (GPa) = 35.73740 44.94557 40.34148
# Shear Modulus (GPa) = 24.17589 26.39094 25.28342
#
# Velocity S-wave (km/s) = 3.60915 3.77087 3.69090
# Velocity P-wave (km/s) = 6.05172 6.57085 6.31662
#
# Compressibility (1/GPa) = 0.02798189
#
# Stress axis : x y z
#
# Youngs Moduli (GPa) = 54.76286 54.76286 118.37780
#
# Poissons Ratio (x) = 0.08813 0.40746
# Poissons Ratio (y) = 0.08813 0.40746
# Poissons Ratio (z) = 0.18849 0.18849
#
# Static dielectric constant tensor:
#      x y z
#    x 3.252410 0.000000 0.000000 
#    y 0.000000 3.252410 0.000000 
#    z 0.000000 0.000000 3.557440 
# 
# 
# High freq. dielectric constant tensor:
#      x y z
#    x 1.703760 0.000000 0.000000 
#    y 0.000000 1.703760 0.000000 
#    z 0.000000 0.000000 1.719480 
# 
# From -- ./inp_files/3619.got.cif
#   From: 2010.03.12/outbox.cif.g09.slc.cpg/sg189_2_cif.got.tgz:3619.got - 2010.04.01 12:03:36.
