data_PCOD8327640
_publ_section_title
;
Structure prediction by ZEFSAII (Michael W. Deem and Ramdas Pophale) SiO2 
 PCOD8327640
Probable space group: P -6 2 M
;
_chemical_formula_sum "Si O2"
_cell_formula_units_Z 60
_cell_length_a 20.904000
_cell_length_b 20.904000
_cell_length_c 8.811718
_cell_angle_alpha 90.000000
_cell_angle_beta 90.000000
_cell_angle_gamma 120.000000
_cell_volume 3334.648138
_symmetry_space_group_name_H-M "P -6 2 M"
_symmetry_group_IT_number 189
_symmetry_cell_setting 'hexagonal'
loop_
_space_group_symop_operation_xyz
x,y,z
-x+y,-x,-z
-y,x-y,z
x,y,-z
-x+y,-x,z
-y,x-y,-z
x-y,-y,-z
-x,-x+y,-z
y,x,-z
y,x,z
x-y,-y,z
-x,-x+y,z
loop_
_atom_site_type_symbol
_atom_site_label
_atom_site_fract_x
_atom_site_fract_y
_atom_site_fract_z
Si Si1 0.914379 0.555971 0.320982
Si Si2 0.294883 0.914163 0.321362
Si Si3 0.210205 0.210205 0.823752
Si Si4 0.000000 0.918660 0.668299
Si Si5 0.912490 0.424474 0.170397
Si Si6 0.205401 0.350924 0.180710
O O1 0.904289 0.555101 0.500000
O O2 0.886098 0.472884 0.264486
O O3 0.860817 0.579922 0.240165
O O4 0.000000 0.610432 0.273805
O O5 0.290089 0.901970 0.500000
O O6 0.346733 0.884232 0.254154
O O7 0.214852 0.866743 0.248210
O O8 0.326107 0.000000 0.279849
O O9 0.134805 0.134805 0.795294
O O10 0.204772 0.278266 0.754406
O O11 0.223818 0.223818 0.000000
O O12 0.000000 0.887458 0.500000
O O13 0.927364 0.927364 0.687371
O O14 0.000000 0.467035 0.165563
O O15 0.879816 0.410528 0.000000
O O16 0.202197 0.353286 0.000000
#
# Coordination Sequence:
#
# PCOD8327640 Si02
#       6
#    12  12   6   6  12  12
#     4  10  19  32  53  81 109 139 175 216 266 320
#     4  10  21  37  55  79 110 145 187 232 280 333
#     4  10  22  36  52  76 106 141 182 235 288 336
#     4   8  18  36  54  72  94 129 180 233 284 344
#     4   9  17  31  54  80 106 136 170 211 260 315
#     4  11  22  36  53  77 112 147 186 233 284 335
#
# _framework density 17.992903999999999
#
# number of rings (size 3 to 8) (size 9 to 14) (size 15 to 20)
#    0.200    2.000    1.000    2.400    0.000    7.200 
#    0.000    4.000    0.000    0.800    0.000    5.600 
#    0.000    0.000    0.000    0.000    0.000    0.000 
#
# Total GULP energy -743966.656293 kJ/mol
# GULP energy per Si atom -12399.444272 kJ/mol
# Density = 1.795195 g / cm^3
# Si number density = 17.992904 Si / 1000 Ang^3
#
#
#
# Elastic Constant Matrix: (Units=GPa)
#
#
# Indices 1 2 3 4 5 6 
#
# 1 103.2926 53.7804 41.1543 0.0000 0.0000 0.0000
# 2 53.7804 103.2926 41.1543 0.0000 0.0000 0.0000
# 3 41.1543 41.1543 87.9891 0.0000 0.0000 0.0000
# 4 0.0000 0.0000 0.0000 31.5877 0.0000 0.0000
# 5 0.0000 0.0000 0.0000 0.0000 31.5877 0.0000
# 6 0.0000 0.0000 0.0000 0.0000 0.0000 24.7561
#
#
#
# Elastic Compliance Matrix: (Units=1/GPa)
#
#
# Indices 1 2 3 4 5 6 
#
# 1 0.014315 -0.005882 -0.003944 0.000000 0.000000 0.000000
# 2 -0.005882 0.014315 -0.003944 0.000000 0.000000 0.000000
# 3 -0.003944 -0.003944 0.015055 0.000000 0.000000 0.000000
# 4 0.000000 0.000000 0.000000 0.031658 0.000000 0.000000
# 5 0.000000 0.000000 0.000000 0.000000 0.031658 0.000000
# 6 0.000000 0.000000 0.000000 0.000000 0.000000 0.040394
#
#
# Mechanical properties :
#
#
# Convention : Reuss Voigt Hill
#
# Bulk Modulus (GPa) = 61.94331 62.97247 62.45789
# Shear Modulus (GPa) = 27.72879 28.15200 27.94040
#
# Velocity S-wave (km/s) = 3.92994 3.95982 3.94490
# Velocity P-wave (km/s) = 7.42252 7.48207 7.45235
#
# Compressibility (1/GPa) = 0.01614379
#
# Stress axis : x y z
#
# Youngs Moduli (GPa) = 69.85562 69.85562 66.42364
#
# Poissons Ratio (x) = 0.41088 0.26201
# Poissons Ratio (y) = 0.41088 0.26201
# Poissons Ratio (z) = 0.27554 0.27554
#
# Static dielectric constant tensor:
#      x y z
#    x 3.247320 0.000000 0.000000 
#    y 0.000000 3.247320 0.000000 
#    z 0.000000 0.000000 3.359510 
# 
# 
# High freq. dielectric constant tensor:
#      x y z
#    x 1.681560 0.000000 0.000000 
#    y 0.000000 1.681560 0.000000 
#    z 0.000000 0.000000 1.708370 
# 
# From -- ./inp_files/987.got.cif
#   From: 2010.03.12/outbox.cif.g09.slc.cpg/sg189_1_cif.got.tgz:987.got - 2010.04.01 12:03:36.
