data_PCOD8327017
_publ_section_title
;
Structure prediction by ZEFSAII (Michael W. Deem and Ramdas Pophale) SiO2 
 PCOD8327017
Probable space group: P -6 M 2
;
_chemical_formula_sum "Si O2"
_cell_formula_units_Z 66
_cell_length_a 12.879484
_cell_length_b 12.879484
_cell_length_c 28.446445
_cell_angle_alpha 90.000000
_cell_angle_beta 90.000000
_cell_angle_gamma 120.000000
_cell_volume 4086.538164
_symmetry_space_group_name_H-M "P -6 M 2"
_symmetry_group_IT_number 187
_symmetry_cell_setting 'hexagonal'
loop_
_space_group_symop_operation_xyz
x,y,z
-x+y,-x,-z
-y,x-y,z
x,y,-z
-x+y,-x,z
-y,x-y,-z
-y,-x,-z
-x+y,y,-z
x,x-y,-z
-x+y,y,z
x,x-y,z
-y,-x,z
loop_
_atom_site_type_symbol
_atom_site_label
_atom_site_fract_x
_atom_site_fract_y
_atom_site_fract_z
Si Si1 0.909754 0.334521 0.000000
Si Si2 0.571977 0.905300 0.920470
Si Si3 0.572079 0.666653 0.186686
Si Si4 0.570325 0.664546 0.549696
Si Si5 0.242817 0.243947 0.266530
Si Si6 0.334730 0.423438 0.348441
O O1 0.984455 0.342870 0.953595
O O2 0.792458 0.207543 0.000000
O O3 0.873435 0.436718 0.000000
O O4 0.433445 0.866889 0.927783
O O5 0.586175 0.793088 0.934824
O O6 0.611889 0.945536 0.866897
O O7 0.533273 0.766637 0.193896
O O8 0.459943 0.540058 0.201249
O O9 0.683684 0.693424 0.219360
O O10 0.622609 0.641534 0.500000
O O11 0.591567 0.795784 0.546181
O O12 0.428788 0.571213 0.552428
O O13 0.625782 0.653817 0.599523
O O14 0.105061 0.210121 0.268341
O O15 0.314616 0.321859 0.311533
O O16 0.249311 0.124656 0.266727
O O17 0.225207 0.450414 0.347415
O O18 0.454936 0.545065 0.334709
#
# Coordination Sequence:
#
# PCOD8327017 Si02
#       6
#     6  12  12  12  12  12
#     4  10  20  32  46  64  90 126 164 196 220 246
#     4   9  17  30  50  75  98 118 142 177 224 273
#     4   9  17  30  50  75  98 116 136 171 223 277
#     4   8  12  18  31  55  87 116 136 158 199 260
#     4  10  20  32  45  60  82 116 155 189 216 248
#     4   9  16  26  43  67  91 113 138 173 219 267
#
# _framework density 16.150589
#
# number of rings (size 3 to 8) (size 9 to 14) (size 15 to 20)
#    0.000    2.909    0.000    1.818    0.000    4.364 
#    0.000    2.727    0.000    4.909    0.000    0.000 
#    0.000    1.455    0.000    0.000    0.000    0.000 
#
# Total GULP energy -817764.061649 kJ/mol
# GULP energy per Si atom -12390.364570 kJ/mol
# Density = 1.611383 g / cm^3
# Si number density = 16.150589 Si / 1000 Ang^3
#
#
#
# Elastic Constant Matrix: (Units=GPa)
#
#
# Indices 1 2 3 4 5 6 
#
# 1 91.7880 51.5228 65.4274 0.0000 0.0000 0.0000
# 2 51.5228 91.7880 65.4274 0.0000 0.0000 0.0000
# 3 65.4274 65.4274 146.9064 0.0000 0.0000 0.0000
# 4 0.0000 0.0000 0.0000 15.9136 0.0000 0.0000
# 5 0.0000 0.0000 0.0000 0.0000 15.9136 0.0000
# 6 0.0000 0.0000 0.0000 0.0000 0.0000 20.1326
#
#
#
# Elastic Compliance Matrix: (Units=1/GPa)
#
#
# Indices 1 2 3 4 5 6 
#
# 1 0.018298 -0.006538 -0.005238 0.000000 0.000000 0.000000
# 2 -0.006538 0.018298 -0.005238 0.000000 0.000000 0.000000
# 3 -0.005238 -0.005238 0.011472 0.000000 0.000000 0.000000
# 4 0.000000 0.000000 0.000000 0.062839 0.000000 0.000000
# 5 0.000000 0.000000 0.000000 0.000000 0.062839 0.000000
# 6 0.000000 0.000000 0.000000 0.000000 0.000000 0.049671
#
#
# Mechanical properties :
#
#
# Convention : Reuss Voigt Hill
#
# Bulk Modulus (GPa) = 71.21315 77.24861 74.23088
# Shear Modulus (GPa) = 19.07495 20.26561 19.67028
#
# Velocity S-wave (km/s) = 3.44040 3.54615 3.49367
# Velocity P-wave (km/s) = 7.74408 8.04369 7.89530
#
# Compressibility (1/GPa) = 0.01404235
#
# Stress axis : x y z
#
# Youngs Moduli (GPa) = 54.65142 54.65142 87.16573
#
# Poissons Ratio (x) = 0.35729 0.45654
# Poissons Ratio (y) = 0.35729 0.45654
# Poissons Ratio (z) = 0.28624 0.28624
#
# Static dielectric constant tensor:
#      x y z
#    x 2.717940 0.000000 0.000000 
#    y 0.000000 2.717940 0.000000 
#    z 0.000000 0.000000 3.756870 
# 
# 
# High freq. dielectric constant tensor:
#      x y z
#    x 1.587070 0.000000 0.000000 
#    y 0.000000 1.587070 0.000000 
#    z 0.000000 0.000000 1.652200 
# 
# From -- ./inp_files/4453.got.cif
#   From: 2010.03.12/outbox.cif.g09.slc.cpg/sg187_3_cif.got.tgz:4453.got - 2010.04.01 11:58:23.
