data_PCOD8327096
_publ_section_title
;
Structure prediction by ZEFSAII (Michael W. Deem and Ramdas Pophale) SiO2 
 PCOD8327096
Probable space group: P -6 M 2
;
_chemical_formula_sum "Si O2"
_cell_formula_units_Z 66
_cell_length_a 12.683662
_cell_length_b 12.683662
_cell_length_c 28.102520
_cell_angle_alpha 90.000000
_cell_angle_beta 90.000000
_cell_angle_gamma 120.000000
_cell_volume 3915.301563
_symmetry_space_group_name_H-M "P -6 M 2"
_symmetry_group_IT_number 187
_symmetry_cell_setting 'hexagonal'
loop_
_space_group_symop_operation_xyz
x,y,z
-x+y,-x,-z
-y,x-y,z
x,y,-z
-x+y,-x,z
-y,x-y,-z
-y,-x,-z
-x+y,y,-z
x,x-y,-z
-x+y,y,z
x,x-y,z
-y,-x,z
loop_
_atom_site_type_symbol
_atom_site_label
_atom_site_fract_x
_atom_site_fract_y
_atom_site_fract_z
Si Si1 0.666564 0.087175 0.275515
Si Si2 0.333331 0.908652 0.445811
Si Si3 0.334106 0.912868 0.812406
Si Si4 0.998372 0.236175 0.000000
Si Si5 0.754761 0.754368 0.637081
Si Si6 0.247224 0.002397 0.896929
O O1 0.552892 0.105783 0.284576
O O2 0.782947 0.217054 0.265677
O O3 0.682319 0.022624 0.321481
O O4 0.648195 0.003745 0.230360
O O5 0.336067 0.951246 0.500000
O O6 0.461646 0.923292 0.430715
O O7 0.232378 0.767623 0.439289
O O8 0.304436 0.993682 0.412675
O O9 0.440630 0.881259 0.817059
O O10 0.210029 0.789972 0.802079
O O11 0.329136 0.976242 0.861119
O O12 0.976791 0.286635 0.949852
O O13 0.136563 0.273125 0.000000
O O14 0.910017 0.089984 0.000000
O O15 0.892752 0.785503 0.633103
O O16 0.754406 0.877203 0.648872
O O17 0.244966 0.122483 0.880070
O O18 0.108534 0.891467 0.897993
#
# Coordination Sequence:
#
# PCOD8327096 Si02
#       6
#    12  12  12   6  12  12
#     4  10  20  34  52  72  93 118 151 193 239 284
#     4   9  17  30  49  72  96 122 154 193 234 272
#     4  10  20  33  48  66  91 123 157 191 227 271
#     4   8  13  22  39  64  92 118 144 178 222 270
#     4  10  20  33  49  70  97 128 159 190 227 274
#     4   9  16  27  45  69  94 118 146 183 228 274
#
# _framework density 16.856938
#
# number of rings (size 3 to 8) (size 9 to 14) (size 15 to 20)
#    0.000    2.545    0.000    2.636    0.000    2.545 
#    0.000    0.455    0.000   13.455    0.000    1.273 
#    0.000    0.000    0.000    0.000    0.000    0.000 
#
# Total GULP energy -818184.449661 kJ/mol
# GULP energy per Si atom -12396.734086 kJ/mol
# Density = 1.681857 g / cm^3
# Si number density = 16.856938 Si / 1000 Ang^3
#
#
#
# Elastic Constant Matrix: (Units=GPa)
#
#
# Indices 1 2 3 4 5 6 
#
# 1 94.8569 60.2305 64.9207 0.0000 0.0004 0.0000
# 2 60.2305 94.8569 64.9207 0.0000 -0.0004 0.0000
# 3 64.9207 64.9207 120.2517 0.0000 0.0000 0.0000
# 4 0.0000 0.0000 0.0000 25.7614 0.0000 -0.0004
# 5 0.0004 -0.0004 0.0000 0.0000 25.7614 0.0000
# 6 0.0000 0.0000 0.0000 -0.0004 0.0000 17.3132
#
#
#
# Elastic Compliance Matrix: (Units=1/GPa)
#
#
# Indices 1 2 3 4 5 6 
#
# 1 0.020323 -0.008557 -0.006352 0.000000 0.000000 0.000000
# 2 -0.008557 0.020323 -0.006352 0.000000 0.000000 0.000000
# 3 -0.006352 -0.006352 0.015175 0.000000 0.000000 0.000000
# 4 0.000000 0.000000 0.000000 0.038818 0.000000 0.000001
# 5 0.000000 0.000000 0.000000 0.000000 0.038818 0.000000
# 6 0.000000 0.000000 0.000000 0.000001 0.000000 0.057759
#
#
# Mechanical properties :
#
#
# Convention : Reuss Voigt Hill
#
# Bulk Modulus (GPa) = 75.19887 76.67880 75.93884
# Shear Modulus (GPa) = 20.99334 21.76010 21.37672
#
# Velocity S-wave (km/s) = 3.53283 3.59676 3.56494
# Velocity P-wave (km/s) = 7.83250 7.92690 7.87984
#
# Compressibility (1/GPa) = 0.01329807
#
# Stress axis : x y z
#
# Youngs Moduli (GPa) = 49.20549 49.20549 65.89918
#
# Poissons Ratio (x) = 0.42104 0.41861
# Poissons Ratio (y) = 0.42104 0.41861
# Poissons Ratio (z) = 0.31256 0.31256
#
# Static dielectric constant tensor:
#      x y z
#    x 3.042360 0.000000 0.000000 
#    y 0.000000 3.042360 0.000000 
#    z 0.000000 0.000000 3.456690 
# 
# 
# High freq. dielectric constant tensor:
#      x y z
#    x 1.641110 0.000000 0.000000 
#    y 0.000000 1.641110 0.000000 
#    z 0.000000 0.000000 1.666930 
# 
# From -- ./inp_files/4499.got.cif
#   From: 2010.03.12/outbox.cif.g09.slc.cpg/sg187_3_cif.got.tgz:4499.got - 2010.04.01 11:58:23.
