data_PCOD8327272
_publ_section_title
;
Structure prediction by ZEFSAII (Michael W. Deem and Ramdas Pophale) SiO2 
 PCOD8327272
Probable space group: P -6 M 2
;
_chemical_formula_sum "Si O2"
_cell_formula_units_Z 60
_cell_length_a 21.217695
_cell_length_b 21.217695
_cell_length_c 8.869973
_cell_angle_alpha 90.000000
_cell_angle_beta 90.000000
_cell_angle_gamma 120.000000
_cell_volume 3458.193849
_symmetry_space_group_name_H-M "P -6 M 2"
_symmetry_group_IT_number 187
_symmetry_cell_setting 'hexagonal'
loop_
_space_group_symop_operation_xyz
x,y,z
-x+y,-x,-z
-y,x-y,z
x,y,-z
-x+y,-x,z
-y,x-y,-z
-y,-x,-z
-x+y,y,-z
x,x-y,-z
-x+y,y,z
x,x-y,z
-y,-x,z
loop_
_atom_site_type_symbol
_atom_site_label
_atom_site_fract_x
_atom_site_fract_y
_atom_site_fract_z
Si Si1 0.841186 0.538937 0.823627
Si Si2 0.538937 0.841186 0.823628
Si Si3 0.920432 0.216001 0.820713
Si Si4 0.458175 0.541826 0.321953
Si Si5 0.916349 0.458175 0.678047
Si Si6 0.216001 0.295570 0.820713
O O1 0.756235 0.512470 0.788836
O O2 0.890661 0.621923 0.770334
O O3 0.869898 0.494426 0.731265
O O4 0.851153 0.530035 0.000000
O O5 0.512470 0.756235 0.788836
O O6 0.494426 0.869897 0.731264
O O7 0.621923 0.890661 0.770335
O O8 0.530033 0.851152 0.000000
O O9 0.865796 0.134205 0.761723
O O10 0.000000 0.244238 0.749604
O O11 0.923641 0.215846 0.000000
O O12 0.459684 0.540317 0.500000
O O13 0.500000 0.500001 0.258335
O O14 0.919367 0.459684 0.500000
O O15 0.134205 0.268410 0.761720
O O16 0.215844 0.292205 0.000000
#
# Coordination Sequence:
#
# PCOD8327272 Si02
#       6
#    12  12  12   6   6  12
#     4   9  18  33  52  72  91 118 162 209 248 285
#     4   9  18  33  52  72  91 118 162 209 248 285
#     4   8  13  22  39  63  88 113 145 187 230 268
#     4  11  23  35  49  73 103 133 163 195 243 307
#     4  11  23  35  49  73 103 133 163 195 243 307
#     4   8  13  22  39  63  88 113 145 187 230 268
#
# _framework density 17.350097999999999
#
# number of rings (size 3 to 8) (size 9 to 14) (size 15 to 20)
#    0.000    3.000    0.000    4.200    0.000    4.000 
#    1.200    0.000    0.000    0.400    0.000    2.800 
#    0.000    0.000    0.000    0.000    0.000    0.000 
#
# Total GULP energy -743507.452458 kJ/mol
# GULP energy per Si atom -12391.790874 kJ/mol
# Density = 1.731061 g / cm^3
# Si number density = 17.350098 Si / 1000 Ang^3
#
#
#
# Elastic Constant Matrix: (Units=GPa)
#
#
# Indices 1 2 3 4 5 6 
#
# 1 140.8697 90.2248 30.1916 0.0000 -0.0001 0.0000
# 2 90.2248 140.8697 30.1916 0.0000 0.0001 0.0000
# 3 30.1916 30.1916 32.8148 0.0000 0.0000 0.0000
# 4 0.0000 0.0000 0.0000 12.0600 0.0000 0.0001
# 5 -0.0001 0.0001 0.0000 0.0000 12.0600 0.0000
# 6 0.0000 0.0000 0.0000 0.0001 0.0000 25.3224
#
#
#
# Elastic Compliance Matrix: (Units=1/GPa)
#
#
# Indices 1 2 3 4 5 6 
#
# 1 0.012721 -0.007024 -0.005241 0.000000 0.000000 0.000000
# 2 -0.007024 0.012721 -0.005241 0.000000 0.000000 0.000000
# 3 -0.005241 -0.005241 0.040119 0.000000 0.000000 0.000000
# 4 0.000000 0.000000 0.000000 0.082918 0.000000 0.000000
# 5 0.000000 0.000000 0.000000 0.000000 0.082918 0.000000
# 6 0.000000 0.000000 0.000000 0.000000 0.000000 0.039491
#
#
# Mechanical properties :
#
#
# Convention : Reuss Voigt Hill
#
# Bulk Modulus (GPa) = 32.73655 68.41894 50.57775
# Shear Modulus (GPa) = 15.81853 20.81824 18.31839
#
# Velocity S-wave (km/s) = 3.02276 3.46770 3.25285
# Velocity P-wave (km/s) = 5.57601 7.45340 6.58199
#
# Compressibility (1/GPa) = 0.03054689
#
# Stress axis : x y z
#
# Youngs Moduli (GPa) = 78.60988 78.60988 24.92591
#
# Poissons Ratio (x) = 0.55218 0.13065
# Poissons Ratio (y) = 0.55218 0.13065
# Poissons Ratio (z) = 0.41202 0.41202
#
# Static dielectric constant tensor:
#      x y z
#    x 3.541060 0.000000 0.000000 
#    y 0.000000 3.541060 0.000000 
#    z 0.000000 0.000000 2.762720 
# 
# 
# High freq. dielectric constant tensor:
#      x y z
#    x 1.673240 0.000000 0.000000 
#    y 0.000000 1.673240 0.000000 
#    z 0.000000 0.000000 1.625040 
# 
# From -- ./inp_files/687.got.cif
#   From: 2010.03.12/outbox.cif.g09.slc.cpg/sg187_1_cif.got.tgz:687.got - 2010.04.01 11:58:23.
