data_PCOD8327463
_publ_section_title
;
Structure prediction by ZEFSAII (Michael W. Deem and Ramdas Pophale) SiO2 
 PCOD8327463
Probable space group: P -6 C 2
;
_chemical_formula_sum "Si O2"
_cell_formula_units_Z 58
_cell_length_a 14.253388
_cell_length_b 14.253388
_cell_length_c 14.115147
_cell_angle_alpha 90.000000
_cell_angle_beta 90.000000
_cell_angle_gamma 120.000000
_cell_volume 2483.431881
_symmetry_space_group_name_H-M "P -6 C 2"
_symmetry_group_IT_number 188
_symmetry_cell_setting 'hexagonal'
loop_
_space_group_symop_operation_xyz
x,y,z
-x+y,-x,1/2-z
-y,x-y,z
x,y,1/2-z
-x+y,-x,z
-y,x-y,1/2-z
-y,-x,-z
-x+y,y,-z
x,x-y,-z
-x+y,y,1/2+z
x,x-y,1/2+z
-y,-x,1/2+z
loop_
_atom_site_type_symbol
_atom_site_label
_atom_site_fract_x
_atom_site_fract_y
_atom_site_fract_z
Si Si1 0.108344 0.623197 0.352046
Si Si2 0.614290 0.572916 0.141933
Si Si3 0.706089 0.963251 0.010323
Si Si4 0.333335 0.666667 0.890002
Si Si5 0.129952 0.106606 0.141887
Si Si6 0.805228 0.402614 0.000000
O O1 0.073378 0.647762 0.250000
O O2 0.049259 0.653455 0.431720
O O3 0.238175 0.687732 0.355701
O O4 0.072849 0.496759 0.360256
O O5 0.655598 0.577092 0.250000
O O6 0.705268 0.680562 0.086253
O O7 0.581245 0.457039 0.093905
O O8 0.816509 0.038840 0.068836
O O9 0.689211 0.844606 0.000000
O O10 0.333334 0.666667 0.000000
O O11 0.168613 0.140326 0.250000
O O12 0.095155 0.980165 0.124181
O O13 0.728509 0.457018 0.000000
#
# Coordination Sequence:
#
# PCOD8327463 Si02
#       6
#    12  12  12   4  12   6
#     4  11  22  38  65  96 135 186 241 299 359 436
#     4  11  24  46  71 105 147 185 241 308 373 452
#     4  12  23  38  67  99 143 191 240 299 372 440
#     4  12  22  35  58  93 145 197 242 290 370 451
#     4   8  19  43  68  94 131 181 241 302 363 431
#     4  10  24  50  82 106 138 188 244 312 388 448
#
# _framework density 23.354778
#
# number of rings (size 3 to 8) (size 9 to 14) (size 15 to 20)
#    0.621    0.828    2.069    4.345    0.000    4.966 
#    3.724    0.000    0.000    1.241    0.000    0.000 
#    0.000    0.000    0.000    0.000    0.000    0.000 
#
# Total GULP energy -718717.322979 kJ/mol
# GULP energy per Si atom -12391.677982 kJ/mol
# Density = 2.330162 g / cm^3
# Si number density = 23.354778 Si / 1000 Ang^3
#
#
#
# Elastic Constant Matrix: (Units=GPa)
#
#
# Indices 1 2 3 4 5 6 
#
# 1 82.9982 21.4987 55.2178 0.0000 0.0000 0.0000
# 2 21.4987 82.9976 55.2177 0.0000 0.0000 -0.0001
# 3 55.2178 55.2177 196.6986 0.0000 0.0000 0.0000
# 4 0.0000 0.0000 0.0000 39.3547 -0.0001 0.0000
# 5 0.0000 0.0000 0.0000 -0.0001 39.3549 0.0000
# 6 0.0000 -0.0001 0.0000 0.0000 0.0000 30.7495
#
#
#
# Elastic Compliance Matrix: (Units=1/GPa)
#
#
# Indices 1 2 3 4 5 6 
#
# 1 0.014933 -0.001327 -0.003820 0.000000 0.000000 0.000000
# 2 -0.001327 0.014933 -0.003820 0.000000 0.000000 0.000000
# 3 -0.003820 -0.003820 0.007228 0.000000 0.000000 0.000000
# 4 0.000000 0.000000 0.000000 0.025410 0.000000 0.000000
# 5 0.000000 0.000000 0.000000 0.000000 0.025410 0.000000
# 6 0.000000 0.000000 0.000000 0.000000 0.000000 0.032521
#
#
# Mechanical properties :
#
#
# Convention : Reuss Voigt Hill
#
# Bulk Modulus (GPa) = 52.18465 69.61807 60.90136
# Shear Modulus (GPa) = 34.54094 37.27585 35.90839
#
# Velocity S-wave (km/s) = 3.84991 3.99942 3.92537
# Velocity P-wave (km/s) = 6.49270 7.15547 6.83213
#
# Compressibility (1/GPa) = 0.01916272
#
# Stress axis : x y z
#
# Youngs Moduli (GPa) = 66.96438 66.96382 138.34270
#
# Poissons Ratio (x) = 0.08886 0.52841
# Poissons Ratio (y) = 0.08886 0.52842
# Poissons Ratio (z) = 0.25578 0.25578
#
# Static dielectric constant tensor:
#      x y z
#    x 3.974660 0.000000 0.000000 
#    y 0.000000 3.974670 0.000000 
#    z 0.000000 0.000000 4.375420 
# 
# 
# High freq. dielectric constant tensor:
#      x y z
#    x 1.909500 0.000000 0.000000 
#    y 0.000000 1.909500 0.000000 
#    z 0.000000 0.000000 1.938100 
# 
# From -- ./inp_files/2315.got.cif
#   From: 2010.03.12/outbox.cif.g09.slc.cpg/sg188_2_cif.got.tgz:2315.got - 2010.04.01 12:01:06.
