data_PCOD8327677
_publ_section_title
;
Structure prediction by ZEFSAII (Michael W. Deem and Ramdas Pophale) SiO2 
 PCOD8327677
Probable space group: P -6 2 M
;
_chemical_formula_sum "Si O2"
_cell_formula_units_Z 72
_cell_length_a 22.990590
_cell_length_b 22.990590
_cell_length_c 8.596628
_cell_angle_alpha 90.000000
_cell_angle_beta 90.000000
_cell_angle_gamma 120.000000
_cell_volume 3935.129227
_symmetry_space_group_name_H-M "P -6 2 M"
_symmetry_group_IT_number 189
_symmetry_cell_setting 'hexagonal'
loop_
_space_group_symop_operation_xyz
x,y,z
-x+y,-x,-z
-y,x-y,z
x,y,-z
-x+y,-x,z
-y,x-y,-z
x-y,-y,-z
-x,-x+y,-z
y,x,-z
y,x,z
x-y,-y,z
-x,-x+y,z
loop_
_atom_site_type_symbol
_atom_site_label
_atom_site_fract_x
_atom_site_fract_y
_atom_site_fract_z
Si Si1 0.378092 0.565587 0.817138
Si Si2 0.924826 0.849747 0.175944
Si Si3 0.926714 0.195947 0.319098
Si Si4 0.704547 0.463653 0.319985
Si Si5 0.351963 0.429579 0.314588
Si Si6 0.182214 0.793504 0.679686
O O1 0.316150 0.570176 0.744665
O O2 0.442606 0.636624 0.774643
O O3 0.388314 0.505760 0.749000
O O4 0.368471 0.555655 0.000000
O O5 0.912536 0.912536 0.186079
O O6 0.878133 0.792825 0.296302
O O7 0.000000 0.873720 0.228017
O O8 0.910910 0.820901 0.000000
O O9 0.928982 0.212149 0.500000
O O10 0.862722 0.195587 0.238698
O O11 0.000000 0.250513 0.245770
O O12 0.687705 0.443918 0.500000
O O13 0.749447 0.542711 0.295276
O O14 0.353561 0.433973 0.500000
O O15 0.389974 0.389974 0.255765
O O16 0.274473 0.392348 0.252296
O O17 0.165945 0.795818 0.500000
#
# Coordination Sequence:
#
# PCOD8327677 Si02
#       6
#    12  12  12  12  12  12
#     4  11  21  33  51  78 109 134 160 203 261 310
#     4   9  17  29  44  62  86 118 154 190 230 279
#     4   9  17  30  48  70  95 121 152 195 244 286
#     4  10  19  34  54  74  98 132 172 205 236 287
#     4   9  18  34  54  73  96 133 178 215 249 299
#     4   8  16  31  51  73  96 126 166 207 242 282
#
# _framework density 18.296731000000001
#
# number of rings (size 3 to 8) (size 9 to 14) (size 15 to 20)
#    0.000    2.667    0.000    3.500    0.000    2.000 
#    0.000    6.667    0.000    4.000    0.000    0.000 
#    0.000    0.000    0.000    0.000    0.000    0.000 
#
# Total GULP energy -892275.027165 kJ/mol
# GULP energy per Si atom -12392.708711 kJ/mol
# Density = 1.825509 g / cm^3
# Si number density = 18.296731 Si / 1000 Ang^3
#
#
#
# Elastic Constant Matrix: (Units=GPa)
#
#
# Indices 1 2 3 4 5 6 
#
# 1 113.9819 71.2051 19.9801 0.0000 0.0000 0.0000
# 2 71.2051 113.9819 19.9801 0.0000 0.0000 0.0000
# 3 19.9801 19.9801 29.3767 0.0000 0.0000 0.0000
# 4 0.0000 0.0000 0.0000 14.1988 0.0000 0.0000
# 5 0.0000 0.0000 0.0000 0.0000 14.1988 0.0000
# 6 0.0000 0.0000 0.0000 0.0000 0.0000 21.3884
#
#
#
# Elastic Compliance Matrix: (Units=1/GPa)
#
#
# Indices 1 2 3 4 5 6 
#
# 1 0.014853 -0.008524 -0.004304 0.000000 0.000000 0.000000
# 2 -0.008524 0.014853 -0.004304 0.000000 0.000000 0.000000
# 3 -0.004304 -0.004304 0.039896 0.000000 0.000000 0.000000
# 4 0.000000 0.000000 0.000000 0.070429 0.000000 0.000000
# 5 0.000000 0.000000 0.000000 0.000000 0.070429 0.000000
# 6 0.000000 0.000000 0.000000 0.000000 0.000000 0.046754
#
#
# Mechanical properties :
#
#
# Convention : Reuss Voigt Hill
#
# Bulk Modulus (GPa) = 28.30008 53.29677 40.79842
# Shear Modulus (GPa) = 16.48764 19.70223 18.09494
#
# Velocity S-wave (km/s) = 3.00513 3.28505 3.14820
# Velocity P-wave (km/s) = 5.24804 6.60160 5.96335
#
# Compressibility (1/GPa) = 0.03533559
#
# Stress axis : x y z
#
# Youngs Moduli (GPa) = 67.32676 67.32676 25.06540
#
# Poissons Ratio (x) = 0.57391 0.10789
# Poissons Ratio (y) = 0.57391 0.10789
# Poissons Ratio (z) = 0.28980 0.28980
#
# Static dielectric constant tensor:
#      x y z
#    x 3.517650 0.000000 0.000000 
#    y 0.000000 3.517650 0.000000 
#    z 0.000000 0.000000 3.127750 
# 
# 
# High freq. dielectric constant tensor:
#      x y z
#    x 1.706270 0.000000 0.000000 
#    y 0.000000 1.706270 0.000000 
#    z 0.000000 0.000000 1.686360 
# 
# From -- ./inp_files/1260.got.cif
#   From: 2010.03.12/outbox.cif.g09.slc.cpg/sg189_1_cif.got.tgz:1260.got - 2010.04.01 12:03:36.
