data_PCOD8327366
_publ_section_title
;
Structure prediction by ZEFSAII (Michael W. Deem and Ramdas Pophale) SiO2 
 PCOD8327366
Probable space group: P -6 C 2
;
_chemical_formula_sum "Si O2"
_cell_formula_units_Z 72
_cell_length_a 22.569506
_cell_length_b 22.569506
_cell_length_c 8.734172
_cell_angle_alpha 90.000000
_cell_angle_beta 90.000000
_cell_angle_gamma 120.000000
_cell_volume 3852.977550
_symmetry_space_group_name_H-M "P -6 C 2"
_symmetry_group_IT_number 188
_symmetry_cell_setting 'hexagonal'
loop_
_space_group_symop_operation_xyz
x,y,z
-x+y,-x,1/2-z
-y,x-y,z
x,y,1/2-z
-x+y,-x,z
-y,x-y,1/2-z
-y,-x,-z
-x+y,y,-z
x,x-y,-z
-x+y,y,1/2+z
x,x-y,1/2+z
-y,-x,1/2+z
loop_
_atom_site_type_symbol
_atom_site_label
_atom_site_fract_x
_atom_site_fract_y
_atom_site_fract_z
Si Si1 0.908358 0.393394 0.569128
Si Si2 0.247473 0.250701 0.928507
Si Si3 0.387081 0.130798 0.072512
Si Si4 0.125049 0.125524 0.431624
Si Si5 0.528094 0.935691 0.070047
Si Si6 0.618897 0.746847 0.932034
O O1 0.902675 0.392311 0.750000
O O2 0.878610 0.439305 0.500000
O O3 0.862616 0.316978 0.505927
O O4 0.986575 0.423936 0.512487
O O5 0.228222 0.241136 0.750000
O O6 0.325212 0.270590 0.957202
O O7 0.201331 0.179965 0.016667
O O8 0.234047 0.308356 0.997736
O O9 0.401748 0.147357 0.250000
O O10 0.368579 0.184290 0.000000
O O11 0.119786 0.120841 0.250000
O O12 0.103623 0.051812 0.500000
O O13 0.075081 0.150162 0.500000
O O14 0.520604 0.934104 0.250000
O O15 0.561631 0.890865 0.016232
O O16 0.452148 0.904295 0.000000
O O17 0.626155 0.753567 0.750000
O O18 0.595102 0.797551 0.000000
#
# Coordination Sequence:
#
# PCOD8327366 Si02
#       6
#    12  12  12  12  12  12
#     4  10  19  35  58  85 116 148 186 232 281 334
#     4  11  23  39  58  83 113 150 191 236 289 343
#     4  11  23  37  57  85 118 155 194 236 286 338
#     4  12  25  42  61  80 105 139 185 237 290 347
#     4   9  19  34  56  83 113 146 184 230 281 332
#     4  11  22  37  56  84 118 155 192 236 287 339
#
# _framework density 18.686847
#
# number of rings (size 3 to 8) (size 9 to 14) (size 15 to 20)
#    0.000    1.333    1.667    4.667    0.000    5.333 
#    0.000    0.000    0.000    0.667    0.000    2.333 
#    0.000    0.000    0.000    0.000    0.000    0.000 
#
# Total GULP energy -893238.075605 kJ/mol
# GULP energy per Si atom -12406.084383 kJ/mol
# Density = 1.864432 g / cm^3
# Si number density = 18.686847 Si / 1000 Ang^3
#
#
#
# Elastic Constant Matrix: (Units=GPa)
#
#
# Indices 1 2 3 4 5 6 
#
# 1 86.2769 19.6677 37.7716 0.0002 0.0000 0.0000
# 2 19.6677 86.2769 37.7716 -0.0002 0.0000 0.0000
# 3 37.7716 37.7716 113.0558 0.0000 0.0000 0.0000
# 4 0.0002 -0.0002 0.0000 33.4117 0.0000 0.0000
# 5 0.0000 0.0000 0.0000 0.0000 33.4117 0.0002
# 6 0.0000 0.0000 0.0000 0.0000 0.0002 33.3046
#
#
#
# Elastic Compliance Matrix: (Units=1/GPa)
#
#
# Indices 1 2 3 4 5 6 
#
# 1 0.013702 -0.001311 -0.004140 0.000000 0.000000 0.000000
# 2 -0.001311 0.013702 -0.004140 0.000000 0.000000 0.000000
# 3 -0.004140 -0.004140 0.011611 0.000000 0.000000 0.000000
# 4 0.000000 0.000000 0.000000 0.029930 0.000000 0.000000
# 5 0.000000 0.000000 0.000000 0.000000 0.029930 0.000000
# 6 0.000000 0.000000 0.000000 0.000000 0.000000 0.030026
#
#
# Mechanical properties :
#
#
# Convention : Reuss Voigt Hill
#
# Bulk Modulus (GPa) = 50.41869 52.89235 51.65552
# Shear Modulus (GPa) = 32.32224 32.71888 32.52056
#
# Velocity S-wave (km/s) = 4.16345 4.18892 4.17621
# Velocity P-wave (km/s) = 7.08180 7.19459 7.13842
#
# Compressibility (1/GPa) = 0.01983392
#
# Stress axis : x y z
#
# Youngs Moduli (GPa) = 72.98309 72.98309 86.12298
#
# Poissons Ratio (x) = 0.09569 0.35652
# Poissons Ratio (y) = 0.09569 0.35652
# Poissons Ratio (z) = 0.30213 0.30213
#
# Static dielectric constant tensor:
#      x y z
#    x 3.406980 0.000000 0.000000 
#    y 0.000000 3.406980 0.000000 
#    z 0.000000 0.000000 3.486910 
# 
# 
# High freq. dielectric constant tensor:
#      x y z
#    x 1.718030 0.000000 0.000000 
#    y 0.000000 1.718030 0.000000 
#    z 0.000000 0.000000 1.739960 
# 
# From -- ./inp_files/1034.got.cif
#   From: 2010.03.12/outbox.cif.g09.slc.cpg/sg188_1_cif.got.tgz:1034.got - 2010.04.01 12:01:06.
