data_PCOD8327545
_publ_section_title
;
Structure prediction by ZEFSAII (Michael W. Deem and Ramdas Pophale) SiO2 
 PCOD8327545
Probable space group: P -6 2 M
;
_chemical_formula_sum "Si O2"
_cell_formula_units_Z 76
_cell_length_a 17.476727
_cell_length_b 17.476727
_cell_length_c 14.682776
_cell_angle_alpha 90.000000
_cell_angle_beta 90.000000
_cell_angle_gamma 120.000000
_cell_volume 3883.819246
_symmetry_space_group_name_H-M "P -6 2 M"
_symmetry_group_IT_number 189
_symmetry_cell_setting 'hexagonal'
loop_
_space_group_symop_operation_xyz
x,y,z
-x+y,-x,-z
-y,x-y,z
x,y,-z
-x+y,-x,z
-y,x-y,-z
x-y,-y,-z
-x,-x+y,-z
y,x,-z
y,x,z
x-y,-y,z
-x,-x+y,z
loop_
_atom_site_type_symbol
_atom_site_label
_atom_site_fract_x
_atom_site_fract_y
_atom_site_fract_z
Si Si1 0.666668 0.333334 0.889646
Si Si2 0.402953 0.505917 0.603476
Si Si3 0.780530 0.254004 0.138605
Si Si4 0.194241 0.096690 0.391512
Si Si5 0.581729 0.894719 0.000000
Si Si6 0.898242 0.400968 0.000000
Si Si7 0.440123 0.102876 0.306133
Si Si8 0.788558 0.173009 0.602979
O O1 0.570037 0.305280 0.850980
O O2 0.666667 0.333334 0.000000
O O3 0.407048 0.542027 0.500000
O O4 0.436007 0.436007 0.601715
O O5 0.461334 0.583946 0.674428
O O6 0.304584 0.457609 0.647299
O O7 0.852958 0.341193 0.086801
O O8 0.831178 0.263867 0.232923
O O9 0.747862 0.159290 0.088065
O O10 0.202418 0.095295 0.500000
O O11 0.120312 0.120312 0.362154
O O12 0.288131 0.170212 0.349971
O O13 0.165278 0.000000 0.351353
O O14 0.486312 0.886494 0.000000
O O15 0.658550 0.000000 0.000000
O O16 0.000000 0.428680 0.000000
O O17 0.410362 0.134325 0.395923
O O18 0.374844 0.000000 0.283088
O O19 0.762589 0.140597 0.500000
#
# Coordination Sequence:
#
# PCOD8327545 Si02
#       8
#     4  12  12  12   6   6  12  12
#     4  12  18  36  57  84 106 146 172 207 273 330
#     4   9  19  37  56  75 104 143 191 245 295 342
#     4  11  20  35  55  81 112 144 180 223 271 332
#     4   9  16  27  47  74 100 126 164 219 284 351
#     4  10  20  36  59  86 116 149 182 217 267 333
#     4  10  18  32  55  80 108 139 174 211 261 335
#     4  11  24  37  53  79 109 146 191 241 291 338
#     4  10  20  35  54  74 101 148 197 242 293 348
#
# _framework density 19.568366000000001
#
# number of rings (size 3 to 8) (size 9 to 14) (size 15 to 20)
#    0.000    1.895    3.158    2.053    2.211    4.105 
#    0.947    1.579    0.000    0.000    0.000    0.000 
#    0.000    0.000    0.000   56.211    0.000    0.000 
#
# Total GULP energy -941539.023070 kJ/mol
# GULP energy per Si atom -12388.671356 kJ/mol
# Density = 1.952383 g / cm^3
# Si number density = 19.568366 Si / 1000 Ang^3
#
#
#
# Elastic Constant Matrix: (Units=GPa)
#
#
# Indices 1 2 3 4 5 6 
#
# 1 112.5893 55.5795 27.2653 0.0000 0.0000 0.0001
# 2 55.5795 112.5900 27.2654 0.0000 -0.0001 0.0000
# 3 27.2653 27.2654 41.0427 0.0000 0.0000 0.0001
# 4 0.0000 0.0000 0.0000 19.4669 0.0000 0.0000
# 5 0.0000 -0.0001 0.0000 0.0000 19.4668 0.0000
# 6 0.0001 0.0000 0.0001 0.0000 0.0000 28.5048
#
#
#
# Elastic Compliance Matrix: (Units=1/GPa)
#
#
# Indices 1 2 3 4 5 6 
#
# 1 0.012560 -0.004981 -0.005035 0.000000 0.000000 0.000000
# 2 -0.004981 0.012560 -0.005035 0.000000 0.000000 0.000000
# 3 -0.005035 -0.005035 0.031054 0.000000 0.000000 0.000000
# 4 0.000000 0.000000 0.000000 0.051369 0.000000 0.000000
# 5 0.000000 0.000000 0.000000 0.000000 0.051369 0.000000
# 6 0.000000 0.000000 0.000000 0.000000 0.000000 0.035082
#
#
# Mechanical properties :
#
#
# Convention : Reuss Voigt Hill
#
# Bulk Modulus (GPa) = 38.35395 54.04915 46.20155
# Shear Modulus (GPa) = 21.47889 23.89516 22.68702
#
# Velocity S-wave (km/s) = 3.31665 3.49823 3.40865
# Velocity P-wave (km/s) = 5.85742 6.63306 6.25727
#
# Compressibility (1/GPa) = 0.02607294
#
# Stress axis : x y z
#
# Youngs Moduli (GPa) = 79.61838 79.61890 32.20159
#
# Poissons Ratio (x) = 0.39657 0.16213
# Poissons Ratio (y) = 0.39657 0.16213
# Poissons Ratio (z) = 0.40087 0.40087
#
# Static dielectric constant tensor:
#      x y z
#    x 3.649420 0.000000 0.000000 
#    y 0.000000 3.649420 0.000000 
#    z 0.000000 0.000000 3.266800 
# 
# 
# High freq. dielectric constant tensor:
#      x y z
#    x 1.764260 0.000000 0.000000 
#    y 0.000000 1.764260 0.000000 
#    z 0.000000 0.000000 1.720310 
# 
# From -- ./inp_files/2778.got.cif
#   From: 2010.03.12/outbox.cif.g09.slc.cpg/sg189_2_cif.got.tgz:2778.got - 2010.04.01 12:03:36.
