data_PCOD8327778
_publ_section_title
;
Structure prediction by ZEFSAII (Michael W. Deem and Ramdas Pophale) SiO2 
 PCOD8327778
Probable space group: P -6 2 M
;
_chemical_formula_sum "Si O2"
_cell_formula_units_Z 76
_cell_length_a 17.756622
_cell_length_b 17.756622
_cell_length_c 14.306274
_cell_angle_alpha 90.000000
_cell_angle_beta 90.000000
_cell_angle_gamma 120.000000
_cell_volume 3906.410418
_symmetry_space_group_name_H-M "P -6 2 M"
_symmetry_group_IT_number 189
_symmetry_cell_setting 'hexagonal'
loop_
_space_group_symop_operation_xyz
x,y,z
-x+y,-x,-z
-y,x-y,z
x,y,-z
-x+y,-x,z
-y,x-y,-z
x-y,-y,-z
-x,-x+y,-z
y,x,-z
y,x,z
x-y,-y,z
-x,-x+y,z
loop_
_atom_site_type_symbol
_atom_site_label
_atom_site_fract_x
_atom_site_fract_y
_atom_site_fract_z
Si Si1 0.375344 0.168023 0.390950
Si Si2 0.316642 0.826707 0.893366
Si Si3 0.806321 0.706777 0.104289
Si Si4 0.631204 0.099508 0.607296
Si Si5 0.666667 0.333335 0.890786
Si Si6 0.100336 0.201510 0.716675
Si Si7 0.098744 0.487033 0.708795
O O1 0.378442 0.148001 0.500000
O O2 0.413256 0.268329 0.369266
O O3 0.275826 0.115971 0.357491
O O4 0.435220 0.143077 0.331511
O O5 0.229872 0.833727 0.884614
O O6 0.298846 0.731829 0.859112
O O7 0.387627 0.894973 0.821454
O O8 0.352828 0.848269 0.000000
O O9 0.728083 0.728083 0.121405
O O10 0.882380 0.758327 0.178885
O O11 0.845139 0.736718 0.000000
O O12 0.614142 0.110776 0.500000
O O13 0.584289 0.142047 0.666611
O O14 0.593708 0.000000 0.635669
O O15 0.666667 0.333334 0.000000
O O16 0.159902 0.159902 0.691776
O O17 0.000000 0.126614 0.711210
O O18 0.000000 0.435349 0.675686
#
# Coordination Sequence:
#
# PCOD8327778 Si02
#       7
#    12  12  12  12   4  12  12
#     4  11  23  40  61  85 115 157 202 245 298 363
#     4  10  20  35  57  84 119 155 193 235 281 342
#     4   9  18  35  59  85 114 152 198 243 290 352
#     4   9  20  39  59  82 114 150 190 239 291 340
#     4   9  21  36  51  81 121 161 193 228 285 342
#     4  11  23  39  60  88 119 154 199 251 307 365
#     4  11  22  36  59  89 117 151 193 240 291 342
#
# _framework density 19.455202
#
# number of rings (size 3 to 8) (size 9 to 14) (size 15 to 20)
#    0.000    1.895    1.579    2.053    2.211    4.105 
#    0.947    0.000    0.000    2.842    0.000   11.053 
#    0.000    0.000    0.000    0.000    0.000    0.000 
#
# Total GULP energy -942227.106830 kJ/mol
# GULP energy per Si atom -12397.725090 kJ/mol
# Density = 1.941092 g / cm^3
# Si number density = 19.455202 Si / 1000 Ang^3
#
#
#
# Elastic Constant Matrix: (Units=GPa)
#
#
# Indices 1 2 3 4 5 6 
#
# 1 81.2038 27.9639 29.6500 0.0000 0.0000 0.0000
# 2 27.9639 81.2040 29.6502 0.0000 0.0000 -0.0001
# 3 29.6500 29.6502 99.4151 0.0000 0.0000 0.0000
# 4 0.0000 0.0000 0.0000 27.9801 0.0000 0.0000
# 5 0.0000 0.0000 0.0000 0.0000 27.9800 0.0000
# 6 0.0000 -0.0001 0.0000 0.0000 0.0000 26.6198
#
#
#
# Elastic Compliance Matrix: (Units=1/GPa)
#
#
# Indices 1 2 3 4 5 6 
#
# 1 0.014857 -0.003926 -0.003260 0.000000 0.000000 0.000000
# 2 -0.003926 0.014857 -0.003260 0.000000 0.000000 0.000000
# 3 -0.003260 -0.003260 0.012003 0.000000 0.000000 0.000000
# 4 0.000000 0.000000 0.000000 0.035740 0.000000 0.000000
# 5 0.000000 0.000000 0.000000 0.000000 0.035740 0.000000
# 6 0.000000 0.000000 0.000000 0.000000 0.000000 0.037566
#
#
# Mechanical properties :
#
#
# Convention : Reuss Voigt Hill
#
# Bulk Modulus (GPa) = 48.01892 48.48343 48.25117
# Shear Modulus (GPa) = 27.99598 28.15324 28.07461
#
# Velocity S-wave (km/s) = 3.79753 3.80818 3.80286
# Velocity P-wave (km/s) = 6.63051 6.65665 6.64359
#
# Compressibility (1/GPa) = 0.02082513
#
# Stress axis : x y z
#
# Youngs Moduli (GPa) = 67.30832 67.30832 83.30910
#
# Poissons Ratio (x) = 0.26424 0.27160
# Poissons Ratio (y) = 0.26424 0.27160
# Poissons Ratio (z) = 0.21943 0.21944
#
# Static dielectric constant tensor:
#      x y z
#    x 3.683700 0.000000 0.000000 
#    y 0.000000 3.683710 0.000000 
#    z 0.000000 0.000000 3.739250 
# 
# 
# High freq. dielectric constant tensor:
#      x y z
#    x 1.749080 0.000000 0.000000 
#    y 0.000000 1.749080 0.000000 
#    z 0.000000 0.000000 1.767770 
# 
# From -- ./inp_files/2737.got.cif
#   From: 2010.03.12/outbox.cif.g09.slc.cpg/sg189_2_cif.got.tgz:2737.got - 2010.04.01 12:03:36.
