data_PCOD8327162
_publ_section_title
;
Structure prediction by ZEFSAII (Michael W. Deem and Ramdas Pophale) SiO2 
 PCOD8327162
Probable space group: P -6 M 2
;
_chemical_formula_sum "Si O2"
_cell_formula_units_Z 60
_cell_length_a 12.639981
_cell_length_b 12.639981
_cell_length_c 25.367518
_cell_angle_alpha 90.000000
_cell_angle_beta 90.000000
_cell_angle_gamma 120.000000
_cell_volume 3509.954213
_symmetry_space_group_name_H-M "P -6 M 2"
_symmetry_group_IT_number 187
_symmetry_cell_setting 'hexagonal'
loop_
_space_group_symop_operation_xyz
x,y,z
-x+y,-x,-z
-y,x-y,z
x,y,-z
-x+y,-x,z
-y,x-y,-z
-y,-x,-z
-x+y,y,-z
x,x-y,-z
-x+y,y,z
x,x-y,z
-y,-x,z
loop_
_atom_site_type_symbol
_atom_site_label
_atom_site_fract_x
_atom_site_fract_y
_atom_site_fract_z
Si Si1 0.576639 0.666830 0.190254
Si Si2 0.086749 0.668301 0.000000
Si Si3 0.575987 0.909293 0.690007
Si Si4 0.001271 0.247168 0.097393
Si Si5 0.913076 0.579846 0.597147
Si Si6 0.754025 0.752369 0.500000
O O1 0.535519 0.767760 0.182635
O O2 0.462858 0.537143 0.174280
O O3 0.619104 0.667603 0.250175
O O4 0.690565 0.695987 0.153214
O O5 0.019168 0.678258 0.051397
O O6 0.228457 0.771544 0.000000
O O7 0.076779 0.538390 0.000000
O O8 0.433652 0.867303 0.683771
O O9 0.592619 0.796310 0.673528
O O10 0.659990 0.022815 0.652685
O O11 0.104003 0.208005 0.094219
O O12 0.871238 0.128763 0.090490
O O13 0.774861 0.549722 0.600254
O O14 0.912011 0.456006 0.584062
O O15 0.987652 0.674738 0.551414
O O16 0.741704 0.870852 0.500000
O O17 0.895942 0.791883 0.500000
#
# Coordination Sequence:
#
# PCOD8327162 Si02
#       6
#    12   6  12  12  12   6
#     4   9  17  30  50  74  98 125 159 202 249 292
#     4  10  20  34  54  78 100 122 152 196 246 290
#     4   9  17  30  49  73  99 127 160 200 247 293
#     4  10  20  33  50  71  97 129 162 196 233 279
#     4  10  20  33  50  71  97 130 165 199 233 276
#     4  10  20  34  52  72  94 120 152 194 242 290
#
# _framework density 17.094239999999999
#
# number of rings (size 3 to 8) (size 9 to 14) (size 15 to 20)
#    0.000    2.400    0.000    2.800    0.000    2.400 
#    0.000    4.000    0.000    8.800    0.000    0.000 
#    0.000    0.000    0.000    0.000    0.000    0.000 
#
# Total GULP energy -744161.799141 kJ/mol
# GULP energy per Si atom -12402.696652 kJ/mol
# Density = 1.705533 g / cm^3
# Si number density = 17.094240 Si / 1000 Ang^3
#
#
#
# Elastic Constant Matrix: (Units=GPa)
#
#
# Indices 1 2 3 4 5 6 
#
# 1 115.7881 73.8219 63.6669 0.0000 -0.0001 0.0000
# 2 73.8219 115.7881 63.6669 0.0000 0.0001 0.0000
# 3 63.6669 63.6669 120.3123 0.0000 0.0000 0.0000
# 4 0.0000 0.0000 0.0000 19.6630 0.0000 0.0001
# 5 -0.0001 0.0001 0.0000 0.0000 19.6630 0.0000
# 6 0.0000 0.0000 0.0000 0.0001 0.0000 20.9831
#
#
#
# Elastic Compliance Matrix: (Units=1/GPa)
#
#
# Indices 1 2 3 4 5 6 
#
# 1 0.016005 -0.007824 -0.004329 0.000000 0.000000 0.000000
# 2 -0.007824 0.016005 -0.004329 0.000000 0.000000 0.000000
# 3 -0.004329 -0.004329 0.012894 0.000000 0.000000 0.000000
# 4 0.000000 0.000000 0.000000 0.050857 0.000000 0.000000
# 5 0.000000 0.000000 0.000000 0.000000 0.050857 0.000000
# 6 0.000000 0.000000 0.000000 0.000000 0.000000 0.047657
#
#
# Mechanical properties :
#
#
# Convention : Reuss Voigt Hill
#
# Bulk Modulus (GPa) = 83.75985 83.79998 83.77992
# Shear Modulus (GPa) = 21.62440 22.11066 21.86753
#
# Velocity S-wave (km/s) = 3.56056 3.60037 3.58052
# Velocity P-wave (km/s) = 8.12457 8.14937 8.13698
#
# Compressibility (1/GPa) = 0.01193889
#
# Stress axis : x y z
#
# Youngs Moduli (GPa) = 62.48012 62.48012 77.55634
#
# Poissons Ratio (x) = 0.48882 0.33578
# Poissons Ratio (y) = 0.48882 0.33578
# Poissons Ratio (z) = 0.27051 0.27051
#
# Static dielectric constant tensor:
#      x y z
#    x 3.047420 0.000000 0.000000 
#    y 0.000000 3.047420 0.000000 
#    z 0.000000 0.000000 3.470810 
# 
# 
# High freq. dielectric constant tensor:
#      x y z
#    x 1.652670 0.000000 0.000000 
#    y 0.000000 1.652670 0.000000 
#    z 0.000000 0.000000 1.676350 
# 
# From -- ./inp_files/4155.got.cif
#   From: 2010.03.12/outbox.cif.g09.slc.cpg/sg187_3_cif.got.tgz:4155.got - 2010.04.01 11:58:23.
