data_PCOD8327707
_publ_section_title
;
Structure prediction by ZEFSAII (Michael W. Deem and Ramdas Pophale) SiO2 
 PCOD8327707
Probable space group: P -6 2 M
;
_chemical_formula_sum "Si O2"
_cell_formula_units_Z 58
_cell_length_a 17.730795
_cell_length_b 17.730795
_cell_length_c 14.247592
_cell_angle_alpha 90.000000
_cell_angle_beta 90.000000
_cell_angle_gamma 120.000000
_cell_volume 3879.078058
_symmetry_space_group_name_H-M "P -6 2 M"
_symmetry_group_IT_number 189
_symmetry_cell_setting 'hexagonal'
loop_
_space_group_symop_operation_xyz
x,y,z
-x+y,-x,-z
-y,x-y,z
x,y,-z
-x+y,-x,z
-y,x-y,-z
x-y,-y,-z
-x,-x+y,-z
y,x,-z
y,x,z
x-y,-y,z
-x,-x+y,z
loop_
_atom_site_type_symbol
_atom_site_label
_atom_site_fract_x
_atom_site_fract_y
_atom_site_fract_z
Si Si1 0.903618 0.566842 0.302675
Si Si2 0.896344 0.329534 0.500000
Si Si3 0.400293 0.501020 0.500000
Si Si4 0.273449 0.801451 0.317888
Si Si5 0.666668 0.333335 0.386158
Si Si6 0.599481 0.221820 0.000000
Si Si7 0.097494 0.517590 0.175782
O O1 0.871901 0.530047 0.407889
O O2 0.824115 0.580583 0.271669
O O3 0.907976 0.496319 0.239026
O O4 0.000000 0.653945 0.302978
O O5 0.857108 0.395267 0.500000
O O6 0.857846 0.272777 0.593540
O O7 0.000000 0.374749 0.500000
O O8 0.467136 0.467136 0.500000
O O9 0.300959 0.730065 0.344477
O O10 0.334776 0.867504 0.238817
O O11 0.666667 0.333334 0.500000
O O12 0.705768 0.274167 0.000000
O O13 0.564366 0.161652 0.909693
O O14 0.000000 0.448832 0.139758
#
# Coordination Sequence:
#
# PCOD8327707 Si02
#       7
#    12   6   6  12   4   6  12
#     4  10  20  31  45  63  90 123 155 190 235 276
#     4  11  19  28  41  63  89 121 153 189 232 277
#     4   9  15  28  40  59  88 117 148 183 225 273
#     4  12  20  29  46  65  93 120 159 197 232 270
#     4  12  21  27  42  70  92 127 168 198 231 256
#     4  10  23  36  52  66  84 112 159 198 228 254
#     4  11  21  34  48  66  89 117 150 195 240 274
#
# _framework density 14.952007
#
# number of rings (size 3 to 8) (size 9 to 14) (size 15 to 20)
#    0.207    1.034    5.172    2.793    0.000    0.000 
#    0.000    0.000    0.000    0.000    0.000    0.000 
#    0.000    0.000    0.000    8.690    0.000    0.828 
#
# Total GULP energy -718761.056032 kJ/mol
# GULP energy per Si atom -12392.432001 kJ/mol
# Density = 1.491798 g / cm^3
# Si number density = 14.952007 Si / 1000 Ang^3
#
#
#
# Elastic Constant Matrix: (Units=GPa)
#
#
# Indices 1 2 3 4 5 6 
#
# 1 81.0154 42.0386 25.1464 0.0000 0.0000 0.0000
# 2 42.0386 81.0154 25.1464 0.0000 0.0000 0.0000
# 3 25.1464 25.1464 79.2792 -0.0001 0.0000 0.0000
# 4 0.0000 0.0000 -0.0001 15.0508 -0.0002 0.0000
# 5 0.0000 0.0000 0.0000 -0.0002 15.0512 0.0000
# 6 0.0000 0.0000 0.0000 0.0000 0.0000 19.4884
#
#
#
# Elastic Compliance Matrix: (Units=1/GPa)
#
#
# Indices 1 2 3 4 5 6 
#
# 1 0.017497 -0.008160 -0.002962 0.000000 0.000000 0.000000
# 2 -0.008160 0.017497 -0.002962 0.000000 0.000000 0.000000
# 3 -0.002962 -0.002962 0.014492 0.000000 0.000000 0.000000
# 4 0.000000 0.000000 0.000000 0.066442 0.000001 0.000000
# 5 0.000000 0.000000 0.000000 0.000001 0.066440 0.000000
# 6 0.000000 0.000000 0.000000 0.000000 0.000000 0.051313
#
#
# Mechanical properties :
#
#
# Convention : Reuss Voigt Hill
#
# Bulk Modulus (GPa) = 46.90433 47.33031 47.11732
# Shear Modulus (GPa) = 18.59067 19.84998 19.22032
#
# Velocity S-wave (km/s) = 3.52995 3.64755 3.58923
# Velocity P-wave (km/s) = 6.93196 7.03300 6.98266
#
# Compressibility (1/GPa) = 0.02131999
#
# Stress axis : x y z
#
# Youngs Moduli (GPa) = 57.15395 57.15393 69.00178
#
# Poissons Ratio (x) = 0.46636 0.20435
# Poissons Ratio (y) = 0.46636 0.20435
# Poissons Ratio (z) = 0.16927 0.16926
#
# Static dielectric constant tensor:
#      x y z
#    x 2.918330 0.000000 0.000000 
#    y 0.000000 2.918320 0.000000 
#    z 0.000000 0.000000 2.876020 
# 
# 
# High freq. dielectric constant tensor:
#      x y z
#    x 1.550570 0.000000 0.000000 
#    y 0.000000 1.550570 0.000000 
#    z 0.000000 0.000000 1.573660 
# 
# From -- ./inp_files/2642.got.cif
#   From: 2010.03.12/outbox.cif.g09.slc.cpg/sg189_2_cif.got.tgz:2642.got - 2010.04.01 12:03:36.
