data_PCOD8327613
_publ_section_title
;
Structure prediction by ZEFSAII (Michael W. Deem and Ramdas Pophale) SiO2 
 PCOD8327613
Probable space group: P -6 2 M
;
_chemical_formula_sum "Si O2"
_cell_formula_units_Z 60
_cell_length_a 20.772260
_cell_length_b 20.772260
_cell_length_c 8.920402
_cell_angle_alpha 90.000000
_cell_angle_beta 90.000000
_cell_angle_gamma 120.000000
_cell_volume 3333.362596
_symmetry_space_group_name_H-M "P -6 2 M"
_symmetry_group_IT_number 189
_symmetry_cell_setting 'hexagonal'
loop_
_space_group_symop_operation_xyz
x,y,z
-x+y,-x,-z
-y,x-y,z
x,y,-z
-x+y,-x,z
-y,x-y,-z
x-y,-y,-z
-x,-x+y,-z
y,x,-z
y,x,z
x-y,-y,z
-x,-x+y,z
loop_
_atom_site_type_symbol
_atom_site_label
_atom_site_fract_x
_atom_site_fract_y
_atom_site_fract_z
Si Si1 0.643136 0.796523 0.175644
Si Si2 0.919968 0.919968 0.823687
Si Si3 0.810186 0.451700 0.323090
Si Si4 0.213700 0.524632 0.823223
Si Si5 0.703727 0.083981 0.323990
Si Si6 0.000000 0.222522 0.821017
O O1 0.562441 0.727999 0.216829
O O2 0.657164 0.872583 0.249981
O O3 0.703980 0.776804 0.238079
O O4 0.651844 0.811231 0.000000
O O5 0.849598 0.849598 0.748795
O O6 0.000000 0.926932 0.779815
O O7 0.908674 0.908674 0.000000
O O8 0.799577 0.439070 0.500000
O O9 0.734094 0.439582 0.251579
O O10 0.829381 0.392753 0.248872
O O11 0.877718 0.532948 0.281404
O O12 0.223011 0.538585 0.000000
O O13 0.715716 0.085785 0.500000
O O14 0.660402 0.000000 0.262111
O O15 0.000000 0.221061 0.000000
#
# Coordination Sequence:
#
# PCOD8327613 Si02
#       6
#    12   6  12  12  12   6
#     4   9  19  33  51  74 102 134 168 205 247 301
#     4   7  12  22  38  65  97 124 153 192 234 275
#     4  10  19  32  52  73  96 130 171 210 250 299
#     4  10  19  32  48  72 103 132 164 207 257 300
#     4   9  19  36  54  73 100 132 168 212 256 297
#     4   9  16  30  49  71 103 136 163 198 244 295
#
# _framework density 17.999841
#
# number of rings (size 3 to 8) (size 9 to 14) (size 15 to 20)
#    0.200    2.600    0.000    1.600    0.000    2.800 
#    1.800    2.500    0.000    0.000    0.000    0.000 
#    0.000    0.000    0.000    0.000    0.000    0.000 
#
# Total GULP energy -743825.657365 kJ/mol
# GULP energy per Si atom -12397.094289 kJ/mol
# Density = 1.795887 g / cm^3
# Si number density = 17.999841 Si / 1000 Ang^3
#
#
#
# Elastic Constant Matrix: (Units=GPa)
#
#
# Indices 1 2 3 4 5 6 
#
# 1 139.9378 87.1692 37.4674 0.0000 0.0000 0.0000
# 2 87.1692 139.9378 37.4674 0.0000 0.0000 0.0000
# 3 37.4674 37.4674 45.8892 0.0000 0.0000 0.0000
# 4 0.0000 0.0000 0.0000 21.0099 0.0000 0.0000
# 5 0.0000 0.0000 0.0000 0.0000 21.0099 0.0000
# 6 0.0000 0.0000 0.0000 0.0000 0.0000 26.3843
#
#
#
# Elastic Compliance Matrix: (Units=1/GPa)
#
#
# Indices 1 2 3 4 5 6 
#
# 1 0.012489 -0.006462 -0.004921 0.000000 0.000000 0.000000
# 2 -0.006462 0.012489 -0.004921 0.000000 0.000000 0.000000
# 3 -0.004921 -0.004921 0.029827 0.000000 0.000000 0.000000
# 4 0.000000 0.000000 0.000000 0.047597 0.000000 0.000000
# 5 0.000000 0.000000 0.000000 0.000000 0.047597 0.000000
# 6 0.000000 0.000000 0.000000 0.000000 0.000000 0.037901
#
#
# Mechanical properties :
#
#
# Convention : Reuss Voigt Hill
#
# Bulk Modulus (GPa) = 45.04992 72.21919 58.63455
# Shear Modulus (GPa) = 21.93897 24.59156 23.26526
#
# Velocity S-wave (km/s) = 3.49498 3.70024 3.59907
# Velocity P-wave (km/s) = 6.43186 7.64623 7.06519
#
# Compressibility (1/GPa) = 0.02219760
#
# Stress axis : x y z
#
# Youngs Moduli (GPa) = 80.07209 80.07209 33.52671
#
# Poissons Ratio (x) = 0.51742 0.16498
# Poissons Ratio (y) = 0.51742 0.16498
# Poissons Ratio (z) = 0.39402 0.39402
#
# Static dielectric constant tensor:
#      x y z
#    x 3.474220 0.000000 0.000000 
#    y 0.000000 3.474220 0.000000 
#    z 0.000000 0.000000 3.113830 
# 
# 
# High freq. dielectric constant tensor:
#      x y z
#    x 1.695080 0.000000 0.000000 
#    y 0.000000 1.695080 0.000000 
#    z 0.000000 0.000000 1.678630 
# 
# From -- ./inp_files/939.got.cif
#   From: 2010.03.12/outbox.cif.g09.slc.cpg/sg189_1_cif.got.tgz:939.got - 2010.04.01 12:03:36.
