data_PCOD8327433
_publ_section_title
;
Structure prediction by ZEFSAII (Michael W. Deem and Ramdas Pophale) SiO2 
 PCOD8327433
Probable space group: P -6 C 2
;
_chemical_formula_sum "Si O2"
_cell_formula_units_Z 76
_cell_length_a 17.153630
_cell_length_b 17.153630
_cell_length_c 15.762142
_cell_angle_alpha 90.000000
_cell_angle_beta 90.000000
_cell_angle_gamma 120.000000
_cell_volume 4016.594080
_symmetry_space_group_name_H-M "P -6 C 2"
_symmetry_group_IT_number 188
_symmetry_cell_setting 'hexagonal'
loop_
_space_group_symop_operation_xyz
x,y,z
-x+y,-x,1/2-z
-y,x-y,z
x,y,1/2-z
-x+y,-x,z
-y,x-y,1/2-z
-y,-x,-z
-x+y,y,-z
x,x-y,-z
-x+y,y,1/2+z
x,x-y,1/2+z
-y,-x,1/2+z
loop_
_atom_site_type_symbol
_atom_site_label
_atom_site_fract_x
_atom_site_fract_y
_atom_site_fract_z
Si Si1 0.770970 0.530639 0.097164
Si Si2 0.445076 0.391787 0.652271
Si Si3 0.688163 0.935729 0.848358
Si Si4 0.175021 0.998118 0.499535
Si Si5 0.952662 0.565392 0.346943
Si Si6 0.666667 0.333334 0.649586
Si Si7 0.074194 0.312917 0.847250
O O1 0.701973 0.555848 0.140180
O O2 0.873704 0.586670 0.128168
O O3 0.742976 0.427884 0.114518
O O4 0.776374 0.552748 0.000000
O O5 0.455035 0.414053 0.750000
O O6 0.350047 0.381961 0.622472
O O7 0.529248 0.478443 0.605769
O O8 0.718652 0.964252 0.750000
O O9 0.645422 0.827545 0.859149
O O10 0.771743 0.985553 0.911192
O O11 0.201160 0.100580 0.500000
O O12 0.215007 0.979399 0.584194
O O13 0.067655 0.932346 0.500000
O O14 0.938466 0.539063 0.250000
O O15 0.047418 0.657328 0.363811
O O16 0.666667 0.333334 0.750000
O O17 0.046846 0.275754 0.750000
#
# Coordination Sequence:
#
# PCOD8327433 Si02
#       7
#    12  12  12  12  12   4  12
#     4  12  24  34  50  78 112 146 188 228 264 309
#     4  10  21  36  55  77 106 145 181 216 265 323
#     4   9  20  38  57  78 106 139 177 223 271 319
#     4  10  21  36  55  78 106 138 176 218 267 316
#     4  10  21  36  55  77 106 145 181 216 265 323
#     4  12  22  38  52  66 112 164 190 222 268 311
#     4   9  20  38  57  78 106 139 177 223 271 319
#
# _framework density 18.921503000000001
#
# number of rings (size 3 to 8) (size 9 to 14) (size 15 to 20)
#    0.000    1.895    1.579    2.053    4.421    0.632 
#    0.000    0.000    0.000    2.526    0.000    4.421 
#    0.000    0.000    0.000    0.000    0.000    0.000 
#
# Total GULP energy -941565.721763 kJ/mol
# GULP energy per Si atom -12389.022655 kJ/mol
# Density = 1.887844 g / cm^3
# Si number density = 18.921503 Si / 1000 Ang^3
#
#
#
# Elastic Constant Matrix: (Units=GPa)
#
#
# Indices 1 2 3 4 5 6 
#
# 1 115.9012 80.4831 28.0505 0.0001 0.0003 0.0006
# 2 80.4831 115.9010 28.0508 -0.0001 -0.0003 -0.0007
# 3 28.0505 28.0508 57.1288 0.0000 0.0000 0.0001
# 4 0.0001 -0.0001 0.0000 15.6350 0.0001 0.0003
# 5 0.0003 -0.0003 0.0000 0.0001 15.6350 0.0000
# 6 0.0006 -0.0007 0.0001 0.0003 0.0000 17.7063
#
#
#
# Elastic Compliance Matrix: (Units=1/GPa)
#
#
# Indices 1 2 3 4 5 6 
#
# 1 0.017078 -0.011156 -0.002908 0.000000 0.000000 -0.000001
# 2 -0.011156 0.017079 -0.002908 0.000000 0.000000 0.000001
# 3 -0.002908 -0.002908 0.020360 0.000000 0.000000 0.000000
# 4 0.000000 0.000000 0.000000 0.063959 0.000000 -0.000001
# 5 0.000000 0.000000 0.000000 0.000000 0.063959 0.000000
# 6 -0.000001 0.000001 0.000000 -0.000001 0.000000 0.056477
#
#
# Mechanical properties :
#
#
# Convention : Reuss Voigt Hill
#
# Bulk Modulus (GPa) = 48.60691 62.45555 55.53123
# Shear Modulus (GPa) = 17.87541 19.95172 18.91356
#
# Velocity S-wave (km/s) = 3.07695 3.25075 3.16504
# Velocity P-wave (km/s) = 6.19419 6.86798 6.53977
#
# Compressibility (1/GPa) = 0.02057320
#
# Stress axis : x y z
#
# Youngs Moduli (GPa) = 58.55316 58.55284 49.11557
#
# Poissons Ratio (x) = 0.65320 0.14283
# Poissons Ratio (y) = 0.65320 0.14284
# Poissons Ratio (z) = 0.17027 0.17029
#
# Static dielectric constant tensor:
#      x y z
#    x 3.843010 -0.000030 -0.000020 
#    y -0.000030 3.842780 0.000000 
#    z -0.000020 0.000000 3.562620 
# 
# 
# High freq. dielectric constant tensor:
#      x y z
#    x 1.724090 0.000000 0.000000 
#    y 0.000000 1.724090 0.000000 
#    z 0.000000 0.000000 1.742820 
# 
# From -- ./inp_files/2480.got.cif
#   From: 2010.03.12/outbox.cif.g09.slc.cpg/sg188_2_cif.got.tgz:2480.got - 2010.04.01 12:01:06.
