data_PCOD8327194
_publ_section_title
;
Structure prediction by ZEFSAII (Michael W. Deem and Ramdas Pophale) SiO2 
 PCOD8327194
Probable space group: P -6 M 2
;
_chemical_formula_sum "Si O2"
_cell_formula_units_Z 72
_cell_length_a 12.427241
_cell_length_b 12.427241
_cell_length_c 30.695995
_cell_angle_alpha 90.000000
_cell_angle_beta 90.000000
_cell_angle_gamma 120.000000
_cell_volume 4105.459653
_symmetry_space_group_name_H-M "P -6 M 2"
_symmetry_group_IT_number 187
_symmetry_cell_setting 'hexagonal'
loop_
_space_group_symop_operation_xyz
x,y,z
-x+y,-x,-z
-y,x-y,z
x,y,-z
-x+y,-x,z
-y,x-y,-z
-y,-x,-z
-x+y,y,-z
x,x-y,-z
-x+y,y,z
x,x-y,z
-y,-x,z
loop_
_atom_site_type_symbol
_atom_site_label
_atom_site_fract_x
_atom_site_fract_y
_atom_site_fract_z
Si Si1 0.664630 0.583465 0.500000
Si Si2 0.250750 0.250770 0.331957
Si Si3 0.081808 0.667572 0.000000
Si Si4 0.917220 0.333037 0.248474
Si Si5 0.081792 0.414859 0.584000
Si Si6 0.250188 0.998584 0.082672
Si Si7 0.583801 0.666765 0.834214
O O1 0.561486 0.438515 0.500000
O O2 0.798413 0.596825 0.500000
O O3 0.651754 0.651883 0.541956
O O4 0.223318 0.111659 0.338034
O O5 0.346275 0.321484 0.293357
O O6 0.312288 0.326122 0.375571
O O7 0.122598 0.245196 0.320767
O O8 0.010995 0.672907 0.957338
O O9 0.223844 0.776157 0.000000
O O10 0.079703 0.539852 0.000000
O O11 0.888911 0.444456 0.252721
O O12 0.790222 0.209779 0.236942
O O13 0.014971 0.356001 0.210775
O O14 0.218490 0.436980 0.576406
O O15 0.093834 0.546917 0.593018
O O16 0.106826 0.893175 0.079434
O O17 0.310346 0.989953 0.127514
O O18 0.259276 0.129638 0.080361
O O19 0.552291 0.776146 0.830669
O O20 0.458088 0.541913 0.845020
#
# Coordination Sequence:
#
# PCOD8327194 Si02
#       7
#     6  12   6  12  12  12  12
#     4  10  20  34  52  74 100 130 164 202 244 290
#     4  10  20  34  52  74 101 133 169 209 253 300
#     4  10  20  34  54  78 104 134 168 208 252 298
#     4  10  20  34  52  74 101 133 169 208 251 300
#     4  10  20  34  53  76 102 132 166 205 249 297
#     4  10  20  34  53  76 102 132 166 205 248 294
#     4  10  20  34  53  76 102 132 166 206 251 299
#
# _framework density 17.537621000000001
#
# number of rings (size 3 to 8) (size 9 to 14) (size 15 to 20)
#    0.000    2.000    0.000    4.000    0.000    0.000 
#    0.000    3.333    0.000   24.000    0.000    0.000 
#    0.000    0.000    0.000    0.000    0.000    0.000 
#
# Total GULP energy -893118.325296 kJ/mol
# GULP energy per Si atom -12404.421185 kJ/mol
# Density = 1.749770 g / cm^3
# Si number density = 17.537621 Si / 1000 Ang^3
#
#
#
# Elastic Constant Matrix: (Units=GPa)
#
#
# Indices 1 2 3 4 5 6 
#
# 1 91.7522 49.7717 40.0602 0.0000 -0.0003 0.0000
# 2 49.7717 91.7522 40.0602 0.0000 0.0003 0.0000
# 3 40.0602 40.0602 83.1467 0.0000 0.0000 0.0000
# 4 0.0000 0.0000 0.0000 21.3689 0.0000 0.0003
# 5 -0.0003 0.0003 0.0000 0.0000 21.3689 0.0000
# 6 0.0000 0.0000 0.0000 0.0003 0.0000 20.9902
#
#
#
# Elastic Compliance Matrix: (Units=1/GPa)
#
#
# Indices 1 2 3 4 5 6 
#
# 1 0.016768 -0.007052 -0.004681 0.000000 0.000000 0.000000
# 2 -0.007052 0.016768 -0.004681 0.000000 0.000000 0.000000
# 3 -0.004681 -0.004681 0.016538 0.000000 0.000000 0.000000
# 4 0.000000 0.000000 0.000000 0.046797 0.000000 -0.000001
# 5 0.000000 0.000000 0.000000 0.000000 0.046797 0.000000
# 6 0.000000 0.000000 0.000000 -0.000001 0.000000 0.047641
#
#
# Mechanical properties :
#
#
# Convention : Reuss Voigt Hill
#
# Bulk Modulus (GPa) = 57.98760 58.49282 58.24021
# Shear Modulus (GPa) = 21.74976 21.86286 21.80631
#
# Velocity S-wave (km/s) = 3.52544 3.53459 3.53002
# Velocity P-wave (km/s) = 7.05039 7.07693 7.06367
#
# Compressibility (1/GPa) = 0.01724507
#
# Stress axis : x y z
#
# Youngs Moduli (GPa) = 59.63610 59.63610 60.46759
#
# Poissons Ratio (x) = 0.42057 0.28306
# Poissons Ratio (y) = 0.42057 0.28306
# Poissons Ratio (z) = 0.27917 0.27917
#
# Static dielectric constant tensor:
#      x y z
#    x 3.262480 0.000000 0.000000 
#    y 0.000000 3.262480 0.000000 
#    z 0.000000 0.000000 3.419530 
# 
# 
# High freq. dielectric constant tensor:
#      x y z
#    x 1.685970 0.000000 0.000000 
#    y 0.000000 1.685970 0.000000 
#    z 0.000000 0.000000 1.695780 
# 
# From -- ./inp_files/4546.got.cif
#   From: 2010.03.12/outbox.cif.g09.slc.cpg/sg187_3_cif.got.tgz:4546.got - 2010.04.01 11:58:23.
