data_PCOD8327114
_publ_section_title
;
Structure prediction by ZEFSAII (Michael W. Deem and Ramdas Pophale) SiO2 
 PCOD8327114
Probable space group: P -6 M 2
;
_chemical_formula_sum "Si O2"
_cell_formula_units_Z 54
_cell_length_a 12.505952
_cell_length_b 12.505952
_cell_length_c 23.619419
_cell_angle_alpha 90.000000
_cell_angle_beta 90.000000
_cell_angle_gamma 120.000000
_cell_volume 3199.140818
_symmetry_space_group_name_H-M "P -6 M 2"
_symmetry_group_IT_number 187
_symmetry_cell_setting 'hexagonal'
loop_
_space_group_symop_operation_xyz
x,y,z
-x+y,-x,-z
-y,x-y,z
x,y,-z
-x+y,-x,z
-y,x-y,-z
-y,-x,-z
-x+y,y,-z
x,x-y,-z
-x+y,y,z
x,x-y,z
-y,-x,z
loop_
_atom_site_type_symbol
_atom_site_label
_atom_site_fract_x
_atom_site_fract_y
_atom_site_fract_z
Si Si1 0.417864 0.334918 0.893139
Si Si2 0.583173 0.665364 0.000000
Si Si3 0.750209 0.001293 0.317669
Si Si4 0.084089 0.418165 0.786429
Si Si5 0.997838 0.753777 0.559852
O O1 0.407282 0.203641 0.896744
O O2 0.560941 0.439060 0.896725
O O3 0.342366 0.347211 0.944807
O O4 0.357284 0.343566 0.835034
O O5 0.440847 0.559154 0.000000
O O6 0.588970 0.794485 0.000000
O O7 0.874039 0.125962 0.300609
O O8 0.780567 0.890284 0.318042
O O9 0.643981 0.976506 0.273233
O O10 0.698975 0.013706 0.380116
O O11 0.206429 0.412857 0.799456
O O12 0.119899 0.559950 0.784702
O O13 0.973874 0.676185 0.500000
O O14 0.133224 0.866777 0.555535
O O15 0.901789 0.803577 0.563200
#
# Coordination Sequence:
#
# PCOD8327114 Si02
#       5
#    12   6  12  12  12
#     4  10  20  34  53  75  98 123 152 190 235 280
#     4  10  20  34  54  78 104 134 166 198 226 256
#     4   9  16  26  42  65  92 119 146 180 226 279
#     4  10  20  33  49  67  89 120 157 196 233 271
#     4   8  12  18  31  54  84 115 144 175 215 266
#
# _framework density 16.879532999999999
#
# number of rings (size 3 to 8) (size 9 to 14) (size 15 to 20)
#    0.000    2.667    0.000    2.667    0.000    2.667 
#    0.000    3.333    0.000    8.667    0.000    0.000 
#    0.000    1.778    0.000    0.000    0.000    0.000 
#
# Total GULP energy -669012.950012 kJ/mol
# GULP energy per Si atom -12389.128704 kJ/mol
# Density = 1.684111 g / cm^3
# Si number density = 16.879533 Si / 1000 Ang^3
#
#
#
# Elastic Constant Matrix: (Units=GPa)
#
#
# Indices 1 2 3 4 5 6 
#
# 1 80.6455 48.5542 52.6633 0.0000 -0.0001 0.0000
# 2 48.5542 80.6455 52.6633 0.0000 0.0001 0.0000
# 3 52.6633 52.6633 154.0876 0.0000 0.0000 0.0000
# 4 0.0000 0.0000 0.0000 38.0725 0.0000 0.0001
# 5 -0.0001 0.0001 0.0000 0.0000 38.0725 0.0000
# 6 0.0000 0.0000 0.0000 0.0001 0.0000 16.0456
#
#
#
# Elastic Compliance Matrix: (Units=1/GPa)
#
#
# Indices 1 2 3 4 5 6 
#
# 1 0.020945 -0.010216 -0.003667 0.000000 0.000000 0.000000
# 2 -0.010216 0.020945 -0.003667 0.000000 0.000000 0.000000
# 3 -0.003667 -0.003667 0.008996 0.000000 0.000000 0.000000
# 4 0.000000 0.000000 0.000000 0.026266 0.000000 0.000000
# 5 0.000000 0.000000 0.000000 0.000000 0.026266 0.000000
# 6 0.000000 0.000000 0.000000 0.000000 0.000000 0.062322
#
#
# Mechanical properties :
#
#
# Convention : Reuss Voigt Hill
#
# Bulk Modulus (GPa) = 63.34294 69.23778 66.29036
# Shear Modulus (GPa) = 24.25975 29.20466 26.73220
#
# Velocity S-wave (km/s) = 3.79519 4.16406 3.98390
# Velocity P-wave (km/s) = 7.53741 8.01417 7.77945
#
# Compressibility (1/GPa) = 0.01578708
#
# Stress axis : x y z
#
# Youngs Moduli (GPa) = 47.74349 47.74349 111.15530
#
# Poissons Ratio (x) = 0.48774 0.40761
# Poissons Ratio (y) = 0.48774 0.40761
# Poissons Ratio (z) = 0.17508 0.17508
#
# Static dielectric constant tensor:
#      x y z
#    x 2.880030 0.000000 0.000000 
#    y 0.000000 2.880030 0.000000 
#    z 0.000000 0.000000 3.838060 
# 
# 
# High freq. dielectric constant tensor:
#      x y z
#    x 1.623790 0.000000 0.000000 
#    y 0.000000 1.623790 0.000000 
#    z 0.000000 0.000000 1.684770 
# 
# From -- ./inp_files/3856.got.cif
#   From: 2010.03.12/outbox.cif.g09.slc.cpg/sg187_2_cif.got.tgz:3856.got - 2010.04.01 11:58:23.
