data_PCOD8327797
_publ_section_title
;
Structure prediction by ZEFSAII (Michael W. Deem and Ramdas Pophale) SiO2 
 PCOD8327797
Probable space group: P -6 2 M
;
_chemical_formula_sum "Si O2"
_cell_formula_units_Z 84
_cell_length_a 14.452917
_cell_length_b 14.452917
_cell_length_c 22.877845
_cell_angle_alpha 90.000000
_cell_angle_beta 90.000000
_cell_angle_gamma 120.000000
_cell_volume 4138.631531
_symmetry_space_group_name_H-M "P -6 2 M"
_symmetry_group_IT_number 189
_symmetry_cell_setting 'hexagonal'
loop_
_space_group_symop_operation_xyz
x,y,z
-x+y,-x,-z
-y,x-y,z
x,y,-z
-x+y,-x,z
-y,x-y,-z
x-y,-y,-z
-x,-x+y,-z
y,x,-z
y,x,z
x-y,-y,z
-x,-x+y,z
loop_
_atom_site_type_symbol
_atom_site_label
_atom_site_fract_x
_atom_site_fract_y
_atom_site_fract_z
Si Si1 0.124909 0.873228 0.141248
Si Si2 0.569855 0.446846 0.436239
Si Si3 0.550693 0.123537 0.168253
Si Si4 0.878101 0.581448 0.651072
Si Si5 0.212741 0.775587 0.776281
Si Si6 0.120843 0.337614 0.566909
Si Si7 0.298448 0.873621 0.064678
O O1 0.143865 0.829880 0.202782
O O2 0.182394 0.839465 0.091748
O O3 0.000000 0.817848 0.126481
O O4 0.173077 0.000000 0.144800
O O5 0.578350 0.401533 0.500000
O O6 0.479833 0.479833 0.441258
O O7 0.528607 0.355379 0.386787
O O8 0.681166 0.548068 0.418690
O O9 0.479540 0.140862 0.216973
O O10 0.674655 0.189316 0.183484
O O11 0.528470 0.162378 0.105696
O O12 0.516632 0.000000 0.167499
O O13 0.808582 0.554952 0.708879
O O14 0.873489 0.672995 0.611873
O O15 0.000000 0.623718 0.669641
O O16 0.152780 0.331915 0.500000
O O17 0.000000 0.243820 0.578544
O O18 0.362862 0.000000 0.060833
O O19 0.283506 0.822648 0.000000
#
# Coordination Sequence:
#
# PCOD8327797 Si02
#       7
#    12  12  12  12  12  12  12
#     4  10  20  36  58  86 122 160 195 237 291 354
#     4   8  16  33  53  74 103 136 171 220 280 337
#     4  10  21  39  60  80 113 155 188 239 301 347
#     4  11  22  34  54  81 110 143 185 232 282 342
#     4  11  23  38  56  83 115 151 201 245 291 352
#     4   9  19  36  56  78 107 143 183 229 283 343
#     4   8  16  33  57  83 109 143 189 234 281 337
#
# _framework density 20.296565000000001
#
# number of rings (size 3 to 8) (size 9 to 14) (size 15 to 20)
#    0.000    2.429    0.000    4.286    2.000    2.286 
#    0.857    2.857    0.000    4.571    0.000    0.000 
#    0.000    0.000    0.000    0.000    0.000    0.000 
#
# Total GULP energy -1041259.890965 kJ/mol
# GULP energy per Si atom -12395.951083 kJ/mol
# Density = 2.025037 g / cm^3
# Si number density = 20.296565 Si / 1000 Ang^3
#
#
#
# Elastic Constant Matrix: (Units=GPa)
#
#
# Indices 1 2 3 4 5 6 
#
# 1 58.4984 -1.5834 19.6980 0.0000 0.0000 0.0000
# 2 -1.5834 58.4984 19.6980 0.0000 0.0000 0.0000
# 3 19.6980 19.6980 124.9934 0.0000 0.0000 0.0000
# 4 0.0000 0.0000 0.0000 19.7251 0.0000 0.0000
# 5 0.0000 0.0000 0.0000 0.0000 19.7251 0.0000
# 6 0.0000 0.0000 0.0000 0.0000 0.0000 30.0409
#
#
#
# Elastic Compliance Matrix: (Units=1/GPa)
#
#
# Indices 1 2 3 4 5 6 
#
# 1 0.018183 0.001539 -0.003108 0.000000 0.000000 0.000000
# 2 0.001539 0.018183 -0.003108 0.000000 0.000000 0.000000
# 3 -0.003108 -0.003108 0.008980 0.000000 0.000000 0.000000
# 4 0.000000 0.000000 0.000000 0.050697 0.000000 0.000000
# 5 0.000000 0.000000 0.000000 0.000000 0.050697 0.000000
# 6 0.000000 0.000000 0.000000 0.000000 0.000000 0.033288
#
#
# Mechanical properties :
#
#
# Convention : Reuss Voigt Hill
#
# Bulk Modulus (GPa) = 27.78478 35.29062 31.53770
# Shear Modulus (GPa) = 24.82887 27.51004 26.16945
#
# Velocity S-wave (km/s) = 3.50137 3.68557 3.59465
# Velocity P-wave (km/s) = 5.48318 5.96125 5.72721
#
# Compressibility (1/GPa) = 0.03599093
#
# Stress axis : x y z
#
# Youngs Moduli (GPa) = 54.99744 54.99744 111.35860
#
# Poissons Ratio (x) = -0.08462 0.34610
# Poissons Ratio (y) = -0.08462 0.34610
# Poissons Ratio (z) = 0.17093 0.17093
#
# Static dielectric constant tensor:
#      x y z
#    x 3.556780 0.000000 0.000000 
#    y 0.000000 3.556780 0.000000 
#    z 0.000000 0.000000 3.848910 
# 
# 
# High freq. dielectric constant tensor:
#      x y z
#    x 1.781140 0.000000 0.000000 
#    y 0.000000 1.781140 0.000000 
#    z 0.000000 0.000000 1.789670 
# 
# From -- ./inp_files/3625.got.cif
#   From: 2010.03.12/outbox.cif.g09.slc.cpg/sg189_2_cif.got.tgz:3625.got - 2010.04.01 12:03:36.
