data_PCOD8327492
_publ_section_title
;
Structure prediction by ZEFSAII (Michael W. Deem and Ramdas Pophale) SiO2 
 PCOD8327492
Probable space group: P -6 2 M
;
_chemical_formula_sum "Si O2"
_cell_formula_units_Z 72
_cell_length_a 23.693132
_cell_length_b 23.693132
_cell_length_c 8.967557
_cell_angle_alpha 90.000000
_cell_angle_beta 90.000000
_cell_angle_gamma 120.000000
_cell_volume 4359.630934
_symmetry_space_group_name_H-M "P -6 2 M"
_symmetry_group_IT_number 189
_symmetry_cell_setting 'hexagonal'
loop_
_space_group_symop_operation_xyz
x,y,z
-x+y,-x,-z
-y,x-y,z
x,y,-z
-x+y,-x,z
-y,x-y,-z
x-y,-y,-z
-x,-x+y,-z
y,x,-z
y,x,z
x-y,-y,z
-x,-x+y,z
loop_
_atom_site_type_symbol
_atom_site_label
_atom_site_fract_x
_atom_site_fract_y
_atom_site_fract_z
Si Si1 0.734052 0.531117 0.173254
Si Si2 0.592479 0.592479 0.823012
Si Si3 0.666838 0.809171 0.673489
Si Si4 0.330248 0.256201 0.177143
Si Si5 0.000000 0.288548 0.671166
Si Si6 0.590550 0.465301 0.176264
Si Si7 0.856327 0.523644 0.173819
O O1 0.755541 0.596019 0.267565
O O2 0.661303 0.474721 0.217502
O O3 0.781377 0.502259 0.205473
O O4 0.737337 0.551158 0.000000
O O5 0.656403 0.656403 0.771806
O O6 0.589850 0.527956 0.759292
O O7 0.593178 0.593178 0.000000
O O8 0.661604 0.820678 0.500000
O O9 0.694095 0.878727 0.755352
O O10 0.715825 0.780956 0.704025
O O11 0.281992 0.281992 0.228837
O O12 0.403390 0.306821 0.237143
O O13 0.331135 0.250157 0.000000
O O14 0.000000 0.308689 0.500000
O O15 0.531253 0.399910 0.250119
O O16 0.580716 0.460482 0.000000
O O17 0.870710 0.525708 0.000000
#
# Coordination Sequence:
#
# PCOD8327492 Si02
#       7
#    12   6  12  12   6  12  12
#     4   9  16  29  45  62  86 117 153 194 239 282
#     4  10  18  26  44  66  88 116 152 193 230 277
#     4  10  19  31  48  68  93 121 150 185 226 271
#     4   9  18  32  50  70  94 124 154 185 223 270
#     4  10  20  32  46  68  96 124 150 181 228 275
#     4   9  16  25  40  65  90 114 148 193 239 279
#     4   8  15  26  41  63  89 116 148 188 232 275
#
# _framework density 16.515160999999999
#
# number of rings (size 3 to 8) (size 9 to 14) (size 15 to 20)
#    0.000    2.833    1.667    1.500    1.167    1.000 
#    1.000    0.000    0.000    8.000    0.000    0.000 
#    0.833    0.000    0.500    0.000    0.667    0.000 
#
# Total GULP energy -892280.575726 kJ/mol
# GULP energy per Si atom -12392.785774 kJ/mol
# Density = 1.647757 g / cm^3
# Si number density = 16.515161 Si / 1000 Ang^3
#
#
#
# Elastic Constant Matrix: (Units=GPa)
#
#
# Indices 1 2 3 4 5 6 
#
# 1 118.3193 71.4249 25.4665 0.0000 0.0000 0.0000
# 2 71.4249 118.3193 25.4665 0.0000 0.0000 0.0000
# 3 25.4665 25.4665 28.5453 0.0000 0.0000 0.0000
# 4 0.0000 0.0000 0.0000 12.0933 0.0000 0.0000
# 5 0.0000 0.0000 0.0000 0.0000 12.0933 0.0000
# 6 0.0000 0.0000 0.0000 0.0000 0.0000 23.4472
#
#
#
# Elastic Compliance Matrix: (Units=1/GPa)
#
#
# Indices 1 2 3 4 5 6 
#
# 1 0.014127 -0.007197 -0.006182 0.000000 0.000000 0.000000
# 2 -0.007197 0.014127 -0.006182 0.000000 0.000000 0.000000
# 3 -0.006182 -0.006182 0.046063 0.000000 0.000000 0.000000
# 4 0.000000 0.000000 0.000000 0.082691 0.000000 0.000000
# 5 0.000000 0.000000 0.000000 0.000000 0.082691 0.000000
# 6 0.000000 0.000000 0.000000 0.000000 0.000000 0.042649
#
#
# Mechanical properties :
#
#
# Convention : Reuss Voigt Hill
#
# Bulk Modulus (GPa) = 28.41453 56.65552 42.53503
# Shear Modulus (GPa) = 15.00586 19.04848 17.02717
#
# Velocity S-wave (km/s) = 3.01759 3.39985 3.21441
# Velocity P-wave (km/s) = 5.42066 7.05632 6.29187
#
# Compressibility (1/GPa) = 0.03519326
#
# Stress axis : x y z
#
# Youngs Moduli (GPa) = 70.78570 70.78570 21.70937
#
# Poissons Ratio (x) = 0.50947 0.13421
# Poissons Ratio (y) = 0.50947 0.13421
# Poissons Ratio (z) = 0.43762 0.43762
#
# Static dielectric constant tensor:
#      x y z
#    x 3.262890 0.000000 0.000000 
#    y 0.000000 3.262890 0.000000 
#    z 0.000000 0.000000 2.790310 
# 
# 
# High freq. dielectric constant tensor:
#      x y z
#    x 1.627930 0.000000 0.000000 
#    y 0.000000 1.627930 0.000000 
#    z 0.000000 0.000000 1.600290 
# 
# From -- ./inp_files/1351.got.cif
#   From: 2010.03.12/outbox.cif.g09.slc.cpg/sg189_1_cif.got.tgz:1351.got - 2010.04.01 12:03:36.
