data_PCOD8327311
_publ_section_title
;
Structure prediction by ZEFSAII (Michael W. Deem and Ramdas Pophale) SiO2 
 PCOD8327311
Probable space group: P -6 C 2
;
_chemical_formula_sum "Si O2"
_cell_formula_units_Z 72
_cell_length_a 24.030770
_cell_length_b 24.030770
_cell_length_c 8.778966
_cell_angle_alpha 90.000000
_cell_angle_beta 90.000000
_cell_angle_gamma 120.000000
_cell_volume 4390.453404
_symmetry_space_group_name_H-M "P -6 C 2"
_symmetry_group_IT_number 188
_symmetry_cell_setting 'hexagonal'
loop_
_space_group_symop_operation_xyz
x,y,z
-x+y,-x,1/2-z
-y,x-y,z
x,y,1/2-z
-x+y,-x,z
-y,x-y,1/2-z
-y,-x,-z
-x+y,y,-z
x,x-y,-z
-x+y,y,1/2+z
x,x-y,1/2+z
-y,-x,1/2+z
loop_
_atom_site_type_symbol
_atom_site_label
_atom_site_fract_x
_atom_site_fract_y
_atom_site_fract_z
Si Si1 0.286600 0.468358 0.927551
Si Si2 0.109141 0.779840 0.070138
Si Si3 0.551824 0.217290 0.927870
Si Si4 0.333202 0.004936 0.431041
Si Si5 0.738905 0.143134 0.429031
Si Si6 0.526126 0.588247 0.424792
O O1 0.268721 0.452979 0.750000
O O2 0.363541 0.502678 0.949411
O O3 0.254330 0.508660 0.000000
O O4 0.256287 0.403628 0.024581
O O5 0.104256 0.784206 0.250000
O O6 0.147787 0.852214 0.000000
O O7 0.037829 0.738476 0.999583
O O8 0.564808 0.227444 0.750000
O O9 0.478239 0.165769 0.965029
O O10 0.595162 0.190324 0.000000
O O11 0.571799 0.285900 0.000000
O O12 0.328187 0.001253 0.250000
O O13 0.379539 0.978069 0.490476
O O14 0.360290 0.076332 0.488976
O O15 0.746519 0.136998 0.250000
O O16 0.807284 0.192717 0.500000
O O17 0.528250 0.573320 0.250000
O O18 0.479975 0.520026 0.500000
#
# Coordination Sequence:
#
# PCOD8327311 Si02
#       6
#    12  12  12  12  12  12
#     4   9  16  27  42  62  84 110 143 179 220 268
#     4  10  17  27  45  69  94 119 146 177 214 259
#     4  10  20  33  49  67  88 113 149 197 252 306
#     4  10  20  34  49  68  94 123 155 193 232 277
#     4  10  21  36  52  70  91 122 159 195 237 290
#     4   9  19  31  44  64  90 117 149 189 236 284
#
# _framework density 16.399218000000001
#
# number of rings (size 3 to 8) (size 9 to 14) (size 15 to 20)
#    0.000    2.333    0.000    5.667    0.000    6.667 
#    0.000    3.333    0.000    0.333    0.000    0.000 
#    0.000    0.000    0.000    0.500    0.000    7.000 
#
# Total GULP energy -892412.203302 kJ/mol
# GULP energy per Si atom -12394.613935 kJ/mol
# Density = 1.636189 g / cm^3
# Si number density = 16.399218 Si / 1000 Ang^3
#
#
#
# Elastic Constant Matrix: (Units=GPa)
#
#
# Indices 1 2 3 4 5 6 
#
# 1 86.5697 54.2764 46.4430 0.0003 0.0000 0.0000
# 2 54.2764 86.5697 46.4430 -0.0003 0.0000 0.0000
# 3 46.4430 46.4430 101.1658 0.0000 0.0000 0.0000
# 4 0.0003 -0.0003 0.0000 25.4694 0.0000 0.0000
# 5 0.0000 0.0000 0.0000 0.0000 25.4694 0.0003
# 6 0.0000 0.0000 0.0000 0.0000 0.0003 16.1467
#
#
#
# Elastic Compliance Matrix: (Units=1/GPa)
#
#
# Indices 1 2 3 4 5 6 
#
# 1 0.020575 -0.010392 -0.004675 0.000000 0.000000 0.000000
# 2 -0.010392 0.020575 -0.004675 0.000000 0.000000 0.000000
# 3 -0.004675 -0.004675 0.014177 0.000000 0.000000 0.000000
# 4 0.000000 0.000000 0.000000 0.039263 0.000000 0.000000
# 5 0.000000 0.000000 0.000000 0.000000 0.039263 -0.000001
# 6 0.000000 0.000000 0.000000 0.000000 -0.000001 0.061932
#
#
# Mechanical properties :
#
#
# Convention : Reuss Voigt Hill
#
# Bulk Modulus (GPa) = 63.11656 63.18112 63.14884
# Shear Modulus (GPa) = 20.78593 21.89328 21.33961
#
# Velocity S-wave (km/s) = 3.56405 3.65776 3.61121
# Velocity P-wave (km/s) = 7.45035 7.51329 7.48188
#
# Compressibility (1/GPa) = 0.01584370
#
# Stress axis : x y z
#
# Youngs Moduli (GPa) = 48.60380 48.60380 70.53723
#
# Poissons Ratio (x) = 0.50507 0.32974
# Poissons Ratio (y) = 0.50507 0.32974
# Poissons Ratio (z) = 0.22721 0.22721
#
# Static dielectric constant tensor:
#      x y z
#    x 3.143860 0.000000 0.000000 
#    y 0.000000 3.143860 0.000000 
#    z 0.000000 0.000000 3.192400 
# 
# 
# High freq. dielectric constant tensor:
#      x y z
#    x 1.604970 0.000000 0.000000 
#    y 0.000000 1.604970 0.000000 
#    z 0.000000 0.000000 1.648600 
# 
# From -- ./inp_files/1000.got.cif
#   From: 2010.03.12/outbox.cif.g09.slc.cpg/sg188_1_cif.got.tgz:1000.got - 2010.04.01 12:01:06.
