data_PCOD8327367
_publ_section_title
;
Structure prediction by ZEFSAII (Michael W. Deem and Ramdas Pophale) SiO2 
 PCOD8327367
Probable space group: P -6 C 2
;
_chemical_formula_sum "Si O2"
_cell_formula_units_Z 84
_cell_length_a 15.260916
_cell_length_b 15.260916
_cell_length_c 22.037731
_cell_angle_alpha 90.000000
_cell_angle_beta 90.000000
_cell_angle_gamma 120.000000
_cell_volume 4444.866413
_symmetry_space_group_name_H-M "P -6 C 2"
_symmetry_group_IT_number 188
_symmetry_cell_setting 'hexagonal'
loop_
_space_group_symop_operation_xyz
x,y,z
-x+y,-x,1/2-z
-y,x-y,z
x,y,1/2-z
-x+y,-x,z
-y,x-y,1/2-z
-y,-x,-z
-x+y,y,-z
x,x-y,-z
-x+y,y,1/2+z
x,x-y,1/2+z
-y,-x,1/2+z
loop_
_atom_site_type_symbol
_atom_site_label
_atom_site_fract_x
_atom_site_fract_y
_atom_site_fract_z
Si Si1 0.445473 0.554431 0.928090
Si Si2 0.888601 0.117217 0.071300
Si Si3 0.446988 0.220468 0.378239
Si Si4 0.217504 0.782381 0.572200
Si Si5 0.785785 0.890416 0.881051
Si Si6 0.562679 0.116568 0.428417
Si Si7 0.734250 0.464266 0.250000
Si Si8 0.064923 0.934881 0.250000
O O1 0.515821 0.668033 0.904201
O O2 0.331419 0.510037 0.905535
O O3 0.488812 0.484697 0.903164
O O4 0.445426 0.554575 0.000000
O O5 0.862963 0.195316 0.105381
O O6 0.002248 0.144654 0.086606
O O7 0.813183 0.003760 0.092590
O O8 0.874751 0.125250 0.000000
O O9 0.528387 0.191252 0.401342
O O10 0.471901 0.324745 0.409366
O O11 0.459857 0.234384 0.306345
O O12 0.208952 0.791049 0.500000
O O13 0.148111 0.818043 0.605343
O O14 0.799679 0.899751 0.808839
O O15 0.560201 0.120402 0.500000
O O16 0.781429 0.388856 0.250000
O O17 0.942376 0.884942 0.250000
#
# Coordination Sequence:
#
# PCOD8327367 Si02
#       8
#    12  12  12  12  12  12   6   6
#     4   9  19  34  55  82 121 155 193 242 295 363
#     4  12  24  39  60  95 127 163 202 251 320 374
#     4  12  23  37  61  85 121 161 203 253 301 372
#     4  10  19  35  58  89 119 160 204 248 307 360
#     4  12  23  40  64  87 126 161 205 257 296 365
#     4  11  20  34  52  82 118 155 193 249 306 360
#     4  10  20  44  63  84 118 166 217 250 296 374
#     4  10  20  44  63  84 118 166 215 242 294 370
#
# _framework density 18.898205999999998
#
# number of rings (size 3 to 8) (size 9 to 14) (size 15 to 20)
#    0.286    0.857    2.857    5.143    0.000    4.571 
#    0.000    0.000    0.000    0.857    0.000    0.000 
#    0.000    0.000    0.000    0.000    0.000    0.000 
#
# Total GULP energy -1041909.939814 kJ/mol
# GULP energy per Si atom -12403.689760 kJ/mol
# Density = 1.885519 g / cm^3
# Si number density = 18.898206 Si / 1000 Ang^3
#
#
#
# Elastic Constant Matrix: (Units=GPa)
#
#
# Indices 1 2 3 4 5 6 
#
# 1 94.0917 16.5035 36.5291 -0.0001 0.0000 0.0000
# 2 16.5035 94.0917 36.5291 0.0001 0.0000 0.0000
# 3 36.5291 36.5291 120.8873 0.0000 0.0000 0.0000
# 4 -0.0001 0.0001 0.0000 12.0162 0.0000 0.0000
# 5 0.0000 0.0000 0.0000 0.0000 12.0162 -0.0001
# 6 0.0000 0.0000 0.0000 0.0000 -0.0001 38.7941
#
#
#
# Elastic Compliance Matrix: (Units=1/GPa)
#
#
# Indices 1 2 3 4 5 6 
#
# 1 0.012093 -0.000796 -0.003414 0.000000 0.000000 0.000000
# 2 -0.000796 0.012093 -0.003414 0.000000 0.000000 0.000000
# 3 -0.003414 -0.003414 0.010335 0.000000 0.000000 0.000000
# 4 0.000000 0.000000 0.000000 0.083221 0.000000 0.000000
# 5 0.000000 0.000000 0.000000 0.000000 0.083221 0.000000
# 6 0.000000 0.000000 0.000000 0.000000 0.000000 0.025777
#
#
# Mechanical properties :
#
#
# Convention : Reuss Voigt Hill
#
# Bulk Modulus (GPa) = 51.88185 54.24381 53.06283
# Shear Modulus (GPa) = 20.12790 27.19922 23.66356
#
# Velocity S-wave (km/s) = 3.26708 3.79786 3.54242
# Velocity P-wave (km/s) = 6.46101 6.92799 6.69857
#
# Compressibility (1/GPa) = 0.01927456
#
# Stress axis : x y z
#
# Youngs Moduli (GPa) = 82.69389 82.69389 96.75647
#
# Poissons Ratio (x) = 0.06580 0.33030
# Poissons Ratio (y) = 0.06580 0.33030
# Poissons Ratio (z) = 0.28229 0.28229
#
# Static dielectric constant tensor:
#      x y z
#    x 3.532760 0.000000 0.000000 
#    y 0.000000 3.532760 0.000000 
#    z 0.000000 0.000000 3.380340 
# 
# 
# High freq. dielectric constant tensor:
#      x y z
#    x 1.741880 0.000000 0.000000 
#    y 0.000000 1.741880 0.000000 
#    z 0.000000 0.000000 1.711640 
# 
# From -- ./inp_files/4111.got.cif
#   From: 2010.03.12/outbox.cif.g09.slc.cpg/sg188_3_cif.got.tgz:4111.got - 2010.04.01 12:01:06.
