data_PCOD8327721
_publ_section_title
;
Structure prediction by ZEFSAII (Michael W. Deem and Ramdas Pophale) SiO2 
 PCOD8327721
Probable space group: P -6 2 M
;
_chemical_formula_sum "Si O2"
_cell_formula_units_Z 96
_cell_length_a 17.875997
_cell_length_b 17.875997
_cell_length_c 20.206918
_cell_angle_alpha 90.000000
_cell_angle_beta 90.000000
_cell_angle_gamma 120.000000
_cell_volume 5592.052718
_symmetry_space_group_name_H-M "P -6 2 M"
_symmetry_group_IT_number 189
_symmetry_cell_setting 'hexagonal'
loop_
_space_group_symop_operation_xyz
x,y,z
-x+y,-x,-z
-y,x-y,z
x,y,-z
-x+y,-x,z
-y,x-y,-z
x-y,-y,-z
-x,-x+y,-z
y,x,-z
y,x,z
x-y,-y,z
-x,-x+y,z
loop_
_atom_site_type_symbol
_atom_site_label
_atom_site_fract_x
_atom_site_fract_y
_atom_site_fract_z
Si Si1 0.360763 0.263556 0.924954
Si Si2 0.636066 0.734279 0.687753
Si Si3 0.666508 0.161740 0.424356
Si Si4 0.263556 0.902793 0.075046
Si Si5 0.161740 0.495232 0.424356
Si Si6 0.901787 0.636066 0.312247
Si Si7 0.531812 0.633428 0.807999
Si Si8 0.468188 0.366572 0.807999
O O1 0.284987 0.284987 0.907459
O O2 0.321859 0.160929 0.915069
O O3 0.443013 0.315676 0.877496
O O4 0.393678 0.291511 0.000000
O O5 0.713447 0.713447 0.699292
O O6 0.586841 0.687635 0.620510
O O7 0.675830 0.837915 0.683083
O O8 0.566696 0.700048 0.747269
O O9 0.663782 0.132542 0.500000
O O10 0.574954 0.149908 0.402559
O O11 0.738314 0.261686 0.414635
O O12 0.687635 0.100794 0.379490
O O13 0.315677 0.872664 0.122504
O O14 0.284987 0.000000 0.092541
O O15 0.291511 0.897834 0.000000
O O16 0.132542 0.468760 0.500000
O O17 0.866647 0.566696 0.252731
O O18 0.000000 0.713447 0.300708
O O19 0.573743 0.573743 0.802772
O O20 0.427622 0.572378 0.804639
O O21 0.426257 0.426257 0.802772
#
# Coordination Sequence:
#
# PCOD8327721 Si02
#       8
#    12  12  12  12  12  12  12  12
#     4   9  17  29  46  68  93 122 157 196 236 276
#     4  10  20  33  49  69  93 121 154 192 232 272
#     4   9  17  29  46  69  97 127 156 186 223 269
#     4   9  17  29  46  68  93 122 157 196 236 276
#     4   9  17  29  46  69  97 127 156 186 223 269
#     4  10  20  33  49  69  93 121 154 192 232 272
#     4   9  17  29  46  68  91 114 143 180 221 267
#     4   9  17  29  46  68  91 114 143 180 221 267
#
# _framework density 17.16722
#
# number of rings (size 3 to 8) (size 9 to 14) (size 15 to 20)
#    0.000    2.750    0.000    1.750    0.000    3.500 
#    0.000    3.750    0.000    6.000    0.000    1.750 
#    0.000    6.000    0.000    6.500    0.000    0.000 
#
# Total GULP energy -1190047.928327 kJ/mol
# GULP energy per Si atom -12396.332587 kJ/mol
# Density = 1.712815 g / cm^3
# Si number density = 17.167220 Si / 1000 Ang^3
#
#
#
# Elastic Constant Matrix: (Units=GPa)
#
#
# Indices 1 2 3 4 5 6 
#
# 1 84.1186 49.7955 36.1119 0.0000 0.0000 0.0000
# 2 49.7955 84.1186 36.1119 0.0000 0.0000 0.0000
# 3 36.1119 36.1119 91.6425 0.0000 0.0000 0.0000
# 4 0.0000 0.0000 0.0000 21.6666 0.0000 0.0000
# 5 0.0000 0.0000 0.0000 0.0000 21.6666 0.0000
# 6 0.0000 0.0000 0.0000 0.0000 0.0000 17.1616
#
#
#
# Elastic Compliance Matrix: (Units=1/GPa)
#
#
# Indices 1 2 3 4 5 6 
#
# 1 0.019309 -0.009826 -0.003737 0.000000 0.000000 0.000000
# 2 -0.009826 0.019309 -0.003737 0.000000 0.000000 0.000000
# 3 -0.003737 -0.003737 0.013857 0.000000 0.000000 0.000000
# 4 0.000000 0.000000 0.000000 0.046154 0.000000 0.000000
# 5 0.000000 0.000000 0.000000 0.000000 0.046154 0.000000
# 6 0.000000 0.000000 0.000000 0.000000 0.000000 0.058270
#
#
# Mechanical properties :
#
#
# Convention : Reuss Voigt Hill
#
# Bulk Modulus (GPa) = 55.94208 55.99088 55.96648
# Shear Modulus (GPa) = 20.52462 21.28964 20.90713
#
# Velocity S-wave (km/s) = 3.46145 3.52537 3.49356
# Velocity P-wave (km/s) = 6.97373 7.01832 6.99606
#
# Compressibility (1/GPa) = 0.01787563
#
# Stress axis : x y z
#
# Youngs Moduli (GPa) = 51.78975 51.78975 72.16633
#
# Poissons Ratio (x) = 0.50889 0.26966
# Poissons Ratio (y) = 0.50889 0.26966
# Poissons Ratio (z) = 0.19352 0.19352
#
# Static dielectric constant tensor:
#      x y z
#    x 3.079530 0.000000 0.000000 
#    y 0.000000 3.079530 0.000000 
#    z 0.000000 0.000000 3.423950 
# 
# 
# High freq. dielectric constant tensor:
#      x y z
#    x 1.638430 0.000000 0.000000 
#    y 0.000000 1.638430 0.000000 
#    z 0.000000 0.000000 1.680370 
# 
# From -- ./inp_files/3503.got.cif
#   From: 2010.03.12/outbox.cif.g09.slc.cpg/sg189_2_cif.got.tgz:3503.got - 2010.04.01 12:03:36.
