data_PCOD8327341
_publ_section_title
;
Structure prediction by ZEFSAII (Michael W. Deem and Ramdas Pophale) SiO2 
 PCOD8327341
Probable space group: P -6 C 2
;
_chemical_formula_sum "Si O2"
_cell_formula_units_Z 66
_cell_length_a 18.878806
_cell_length_b 18.878806
_cell_length_c 14.620880
_cell_angle_alpha 90.000000
_cell_angle_beta 90.000000
_cell_angle_gamma 120.000000
_cell_volume 4512.873829
_symmetry_space_group_name_H-M "P -6 C 2"
_symmetry_group_IT_number 188
_symmetry_cell_setting 'hexagonal'
loop_
_space_group_symop_operation_xyz
x,y,z
-x+y,-x,1/2-z
-y,x-y,z
x,y,1/2-z
-x+y,-x,z
-y,x-y,1/2-z
-y,-x,-z
-x+y,y,-z
x,x-y,-z
-x+y,y,1/2+z
x,x-y,1/2+z
-y,-x,1/2+z
loop_
_atom_site_type_symbol
_atom_site_label
_atom_site_fract_x
_atom_site_fract_y
_atom_site_fract_z
Si Si1 0.498599 0.175213 0.250000
Si Si2 0.324549 0.876426 0.350606
Si Si3 0.440181 0.407870 0.100004
Si Si4 0.616795 0.566224 0.100571
Si Si5 0.657367 0.500029 0.750000
Si Si6 0.477108 0.851012 0.355077
Si Si7 0.239036 0.760965 0.500000
O O1 0.449425 0.129600 0.157934
O O2 0.508432 0.263235 0.250000
O O3 0.584453 0.177513 0.250000
O O4 0.286473 0.842739 0.250000
O O5 0.397182 0.857921 0.373016
O O6 0.258149 0.835932 0.431774
O O7 0.359214 0.972961 0.350854
O O8 0.528398 0.487099 0.100743
O O9 0.445556 0.343283 0.166025
O O10 0.377752 0.439473 0.128993
O O11 0.412205 0.358367 0.004871
O O12 0.477756 0.823069 0.250000
O O13 0.469937 0.783694 0.428898
#
# Coordination Sequence:
#
# PCOD8327341 Si02
#       7
#     6  12  12  12   6  12   6
#     4  10  19  30  46  69  92 112 142 190 232 265
#     4  10  19  32  46  61  82 113 152 189 229 276
#     4   9  16  29  48  63  79 115 151 178 215 272
#     4   9  16  29  48  63  79 115 151 178 215 272
#     4  10  19  30  46  69  92 112 142 190 232 265
#     4  10  19  32  46  61  82 113 152 189 229 276
#     4  12  20  28  44  66  82 104 144 204 232 246
#
# _framework density 14.624827
#
# number of rings (size 3 to 8) (size 9 to 14) (size 15 to 20)
#    0.000    2.182    3.636    1.273    0.000    0.727 
#    4.364    0.000    0.000    2.182    0.000    0.000 
#    0.000    0.000    0.000    0.000    0.000    0.000 
#
# Total GULP energy -817611.823445 kJ/mol
# GULP energy per Si atom -12388.057931 kJ/mol
# Density = 1.459154 g / cm^3
# Si number density = 14.624827 Si / 1000 Ang^3
#
#
#
# Elastic Constant Matrix: (Units=GPa)
#
#
# Indices 1 2 3 4 5 6 
#
# 1 53.8301 22.0256 34.7083 0.0001 0.0000 0.0000
# 2 22.0256 53.8301 34.7083 -0.0001 0.0000 0.0000
# 3 34.7083 34.7083 135.2887 0.0000 0.0000 0.0000
# 4 0.0001 -0.0001 0.0000 17.1117 0.0000 0.0000
# 5 0.0000 0.0000 0.0000 0.0000 17.1117 0.0001
# 6 0.0000 0.0000 0.0000 0.0000 0.0001 15.9023
#
#
#
# Elastic Compliance Matrix: (Units=1/GPa)
#
#
# Indices 1 2 3 4 5 6 
#
# 1 0.024335 -0.007107 -0.004420 0.000000 0.000000 0.000000
# 2 -0.007107 0.024335 -0.004420 0.000000 0.000000 0.000000
# 3 -0.004420 -0.004420 0.009659 0.000000 0.000000 0.000000
# 4 0.000000 0.000000 0.000000 0.058440 0.000000 0.000000
# 5 0.000000 0.000000 0.000000 0.000000 0.058440 0.000000
# 6 0.000000 0.000000 0.000000 0.000000 0.000000 0.062884
#
#
# Mechanical properties :
#
#
# Convention : Reuss Voigt Hill
#
# Bulk Modulus (GPa) = 37.82798 47.31482 42.57140
# Shear Modulus (GPa) = 17.93418 20.12559 19.02988
#
# Velocity S-wave (km/s) = 3.50563 3.71364 3.61113
# Velocity P-wave (km/s) = 6.50444 7.12817 6.82343
#
# Compressibility (1/GPa) = 0.02643546
#
# Stress axis : x y z
#
# Youngs Moduli (GPa) = 41.09349 41.09349 103.52663
#
# Poissons Ratio (x) = 0.29206 0.45756
# Poissons Ratio (y) = 0.29206 0.45756
# Poissons Ratio (z) = 0.18162 0.18162
#
# Static dielectric constant tensor:
#      x y z
#    x 2.578240 0.000000 0.000000 
#    y 0.000000 2.578240 0.000000 
#    z 0.000000 0.000000 3.433420 
# 
# 
# High freq. dielectric constant tensor:
#      x y z
#    x 1.514390 0.000000 0.000000 
#    y 0.000000 1.514390 0.000000 
#    z 0.000000 0.000000 1.592270 
# 
# From -- ./inp_files/2466.got.cif
#   From: 2010.03.12/outbox.cif.g09.slc.cpg/sg188_2_cif.got.tgz:2466.got - 2010.04.01 12:01:06.
