data_PCOD8327858
_publ_section_title
;
Structure prediction by ZEFSAII (Michael W. Deem and Ramdas Pophale) SiO2 
 PCOD8327858
Probable space group: P -6 2 M
;
_chemical_formula_sum "Si O2"
_cell_formula_units_Z 84
_cell_length_a 18.599446
_cell_length_b 18.599446
_cell_length_c 14.174124
_cell_angle_alpha 90.000000
_cell_angle_beta 90.000000
_cell_angle_gamma 120.000000
_cell_volume 4246.458427
_symmetry_space_group_name_H-M "P -6 2 M"
_symmetry_group_IT_number 189
_symmetry_cell_setting 'hexagonal'
loop_
_space_group_symop_operation_xyz
x,y,z
-x+y,-x,-z
-y,x-y,z
x,y,-z
-x+y,-x,z
-y,x-y,-z
x-y,-y,-z
-x,-x+y,-z
y,x,-z
y,x,z
x-y,-y,z
-x,-x+y,z
loop_
_atom_site_type_symbol
_atom_site_label
_atom_site_fract_x
_atom_site_fract_y
_atom_site_fract_z
Si Si1 0.212207 0.351056 0.609206
Si Si2 0.507711 0.094212 0.216937
Si Si3 0.095237 0.248550 0.898314
Si Si4 0.090790 0.903844 0.704455
Si Si5 0.569060 0.752321 0.106384
Si Si6 0.580058 0.672884 0.605168
Si Si7 0.420619 0.325639 0.782291
O O1 0.240432 0.365471 0.500000
O O2 0.153968 0.252874 0.626211
O O3 0.156983 0.391727 0.637498
O O4 0.293350 0.393452 0.675053
O O5 0.493653 0.160561 0.158598
O O6 0.492149 0.101858 0.326860
O O7 0.602680 0.118662 0.212187
O O8 0.447403 0.000000 0.179851
O O9 0.133801 0.229102 0.806793
O O10 0.103243 0.338953 0.889511
O O11 0.000000 0.179432 0.899594
O O12 0.135049 0.243793 0.000000
O O13 0.000000 0.893797 0.694744
O O14 0.160265 0.000000 0.690439
O O15 0.582515 0.837788 0.150781
O O16 0.535762 0.744794 0.000000
O O17 0.542742 0.655330 0.500000
O O18 0.659585 0.659585 0.611216
O O19 0.360854 0.360854 0.818088
#
# Coordination Sequence:
#
# PCOD8327858 Si02
#       7
#    12  12  12  12  12  12  12
#     4  11  22  38  62  89 119 158 205 256 310 370
#     4  10  21  39  63  89 120 155 195 246 302 359
#     4   9  18  33  57  86 112 145 195 252 304 356
#     4  11  22  36  54  80 119 164 211 259 312 371
#     4  11  22  39  63  90 119 156 199 242 293 357
#     4   9  17  33  61  92 116 145 193 249 301 355
#     4  11  24  41  61  91 127 162 200 248 306 362
#
# _framework density 19.781191
#
# number of rings (size 3 to 8) (size 9 to 14) (size 15 to 20)
#    0.000    1.714    2.857    1.429    0.000    6.857 
#    0.857    4.286    0.000    1.714    0.000    0.000 
#    0.000    0.000    0.000    0.000    0.000    0.000 
#
# Total GULP energy -1041117.830617 kJ/mol
# GULP energy per Si atom -12394.259888 kJ/mol
# Density = 1.973617 g / cm^3
# Si number density = 19.781191 Si / 1000 Ang^3
#
#
#
# Elastic Constant Matrix: (Units=GPa)
#
#
# Indices 1 2 3 4 5 6 
#
# 1 88.8495 33.7506 39.3120 0.0000 0.0000 0.0000
# 2 33.7506 88.8495 39.3120 0.0000 0.0000 0.0000
# 3 39.3120 39.3120 99.4532 0.0000 0.0000 0.0000
# 4 0.0000 0.0000 0.0000 14.7877 0.0000 0.0000
# 5 0.0000 0.0000 0.0000 0.0000 14.7877 0.0000
# 6 0.0000 0.0000 0.0000 0.0000 0.0000 27.5495
#
#
#
# Elastic Compliance Matrix: (Units=1/GPa)
#
#
# Indices 1 2 3 4 5 6 
#
# 1 0.014538 -0.003611 -0.004319 0.000000 0.000000 0.000000
# 2 -0.003611 0.014538 -0.004319 0.000000 0.000000 0.000000
# 3 -0.004319 -0.004319 0.013469 0.000000 0.000000 0.000000
# 4 0.000000 0.000000 0.000000 0.067624 0.000000 0.000000
# 5 0.000000 0.000000 0.000000 0.000000 0.067624 0.000000
# 6 0.000000 0.000000 0.000000 0.000000 0.000000 0.036298
#
#
# Mechanical properties :
#
#
# Convention : Reuss Voigt Hill
#
# Bulk Modulus (GPa) = 55.41328 55.76679 55.59004
# Shear Modulus (GPa) = 20.44111 22.41015 21.42563
#
# Velocity S-wave (km/s) = 3.21808 3.36951 3.29467
# Velocity P-wave (km/s) = 6.47163 6.58720 6.52967
#
# Compressibility (1/GPa) = 0.01804622
#
# Stress axis : x y z
#
# Youngs Moduli (GPa) = 68.78631 68.78631 74.24224
#
# Poissons Ratio (x) = 0.24841 0.32065
# Poissons Ratio (y) = 0.24841 0.32065
# Poissons Ratio (z) = 0.29709 0.29709
#
# Static dielectric constant tensor:
#      x y z
#    x 3.455620 0.000000 0.000000 
#    y 0.000000 3.455620 0.000000 
#    z 0.000000 0.000000 3.824160 
# 
# 
# High freq. dielectric constant tensor:
#      x y z
#    x 1.757730 0.000000 0.000000 
#    y 0.000000 1.757730 0.000000 
#    z 0.000000 0.000000 1.779490 
# 
# From -- ./inp_files/2829.got.cif
#   From: 2010.03.12/outbox.cif.g09.slc.cpg/sg189_2_cif.got.tgz:2829.got - 2010.04.01 12:03:36.
