data_PCOD8327486
_publ_section_title
;
Structure prediction by ZEFSAII (Michael W. Deem and Ramdas Pophale) SiO2 
 PCOD8327486
Probable space group: P -6 2 M
;
_chemical_formula_sum "Si O2"
_cell_formula_units_Z 84
_cell_length_a 13.785539
_cell_length_b 13.785539
_cell_length_c 27.981131
_cell_angle_alpha 90.000000
_cell_angle_beta 90.000000
_cell_angle_gamma 120.000000
_cell_volume 4605.145951
_symmetry_space_group_name_H-M "P -6 2 M"
_symmetry_group_IT_number 189
_symmetry_cell_setting 'hexagonal'
loop_
_space_group_symop_operation_xyz
x,y,z
-x+y,-x,-z
-y,x-y,z
x,y,-z
-x+y,-x,z
-y,x-y,-z
x-y,-y,-z
-x,-x+y,-z
y,x,-z
y,x,z
x-y,-y,z
-x,-x+y,z
loop_
_atom_site_type_symbol
_atom_site_label
_atom_site_fract_x
_atom_site_fract_y
_atom_site_fract_z
Si Si1 0.804928 0.426102 0.000000
Si Si2 0.456317 0.127796 0.644377
Si Si3 0.341294 0.472819 0.198624
Si Si4 0.253194 0.125104 0.943547
Si Si5 0.323072 0.872076 0.757004
Si Si6 0.794339 0.454609 0.500000
Si Si7 0.336241 0.463458 0.602654
Si Si8 0.873508 0.550174 0.093338
O O1 0.707059 0.459267 0.000000
O O2 0.870795 0.471781 0.950332
O O3 0.452170 0.140855 0.700619
O O4 0.419256 0.209608 0.619734
O O5 0.581997 0.162824 0.628651
O O6 0.370554 0.000000 0.628223
O O7 0.379769 0.379769 0.202945
O O8 0.424665 0.583566 0.227411
O O9 0.215425 0.419409 0.219432
O O10 0.341497 0.513200 0.143677
O O11 0.172190 0.172190 0.928293
O O12 0.377028 0.192474 0.920346
O O13 0.199111 0.000000 0.924110
O O14 0.269052 0.132983 0.000000
O O15 0.361026 0.000000 0.772651
O O16 0.774085 0.327596 0.500000
O O17 0.865128 0.520412 0.454133
O O18 0.371110 0.371110 0.616226
O O19 0.000000 0.642100 0.101730
#
# Coordination Sequence:
#
# PCOD8327486 Si02
#       8
#     6  12  12  12  12   6  12  12
#     4  10  23  34  52  72  91 124 168 200 238 292
#     4  10  20  34  53  79 109 143 185 232 281 323
#     4  10  22  37  57  81 105 140 174 213 272 330
#     4   9  16  28  48  72  98 125 155 191 235 290
#     4  10  21  36  56  81 108 139 179 229 275 322
#     4  10  17  32  52  76 123 156 188 226 272 322
#     4  11  20  33  55  81 116 154 189 228 274 327
#     4  10  20  37  54  72 102 131 157 197 250 302
#
# _framework density 18.240462999999998
#
# number of rings (size 3 to 8) (size 9 to 14) (size 15 to 20)
#    0.286    1.714    2.143    2.000    2.000    2.857 
#    0.000    1.786    0.000    0.571    0.000    0.000 
#    0.000    0.000    0.000    0.000    0.000    0.000 
#
# Total GULP energy -1041112.902439 kJ/mol
# GULP energy per Si atom -12394.201220 kJ/mol
# Density = 1.819895 g / cm^3
# Si number density = 18.240463 Si / 1000 Ang^3
#
#
#
# Elastic Constant Matrix: (Units=GPa)
#
#
# Indices 1 2 3 4 5 6 
#
# 1 82.1635 35.4193 26.6189 0.0000 0.0000 0.0000
# 2 35.4193 82.1635 26.6189 0.0000 0.0000 0.0000
# 3 26.6189 26.6189 91.2294 0.0000 0.0000 0.0000
# 4 0.0000 0.0000 0.0000 16.6915 0.0000 0.0000
# 5 0.0000 0.0000 0.0000 0.0000 16.6915 0.0000
# 6 0.0000 0.0000 0.0000 0.0000 0.0000 23.3721
#
#
#
# Elastic Compliance Matrix: (Units=1/GPa)
#
#
# Indices 1 2 3 4 5 6 
#
# 1 0.015596 -0.005797 -0.002859 0.000000 0.000000 0.000000
# 2 -0.005797 0.015596 -0.002859 0.000000 0.000000 0.000000
# 3 -0.002859 -0.002859 0.012630 0.000000 0.000000 0.000000
# 4 0.000000 0.000000 0.000000 0.059911 0.000000 0.000000
# 5 0.000000 0.000000 0.000000 0.000000 0.059911 0.000000
# 6 0.000000 0.000000 0.000000 0.000000 0.000000 0.042786
#
#
# Mechanical properties :
#
#
# Convention : Reuss Voigt Hill
#
# Bulk Modulus (GPa) = 48.09668 48.09676 48.09672
# Shear Modulus (GPa) = 21.15140 22.47763 21.81451
#
# Velocity S-wave (km/s) = 3.40896 3.51421 3.46199
# Velocity P-wave (km/s) = 6.47457 6.54917 6.51198
#
# Compressibility (1/GPa) = 0.02079146
#
# Stress axis : x y z
#
# Youngs Moduli (GPa) = 64.11853 64.11853 79.17719
#
# Poissons Ratio (x) = 0.37169 0.22638
# Poissons Ratio (y) = 0.37169 0.22638
# Poissons Ratio (z) = 0.18333 0.18333
#
# Static dielectric constant tensor:
#      x y z
#    x 3.276770 0.000000 0.000000 
#    y 0.000000 3.276770 0.000000 
#    z 0.000000 0.000000 3.474430 
# 
# 
# High freq. dielectric constant tensor:
#      x y z
#    x 1.692350 0.000000 0.000000 
#    y 0.000000 1.692350 0.000000 
#    z 0.000000 0.000000 1.711900 
# 
# From -- ./inp_files/3692.got.cif
#   From: 2010.03.12/outbox.cif.g09.slc.cpg/sg189_2_cif.got.tgz:3692.got - 2010.04.01 12:03:36.
