data_PCOD8327252
_publ_section_title
;
Structure prediction by ZEFSAII (Michael W. Deem and Ramdas Pophale) SiO2 
 PCOD8327252
Probable space group: P -6 M 2
;
_chemical_formula_sum "Si O2"
_cell_formula_units_Z 42
_cell_length_a 18.466207
_cell_length_b 18.466207
_cell_length_c 7.537932
_cell_angle_alpha 90.000000
_cell_angle_beta 90.000000
_cell_angle_gamma 120.000000
_cell_volume 2226.067075
_symmetry_space_group_name_H-M "P -6 M 2"
_symmetry_group_IT_number 187
_symmetry_cell_setting 'hexagonal'
loop_
_space_group_symop_operation_xyz
x,y,z
-x+y,-x,-z
-y,x-y,z
x,y,-z
-x+y,-x,z
-y,x-y,-z
-y,-x,-z
-x+y,y,-z
x,x-y,-z
-x+y,y,z
x,x-y,z
-y,-x,z
loop_
_atom_site_type_symbol
_atom_site_label
_atom_site_fract_x
_atom_site_fract_y
_atom_site_fract_z
Si Si1 0.501889 0.665212 0.500000
Si Si2 0.402894 0.971589 0.792758
Si Si3 0.837497 0.838410 0.706654
Si Si4 0.345654 0.251562 0.801104
O O1 0.404005 0.595996 0.500000
O O2 0.512627 0.756314 0.500000
O O3 0.545793 0.655950 0.323018
O O4 0.499164 0.998327 0.765443
O O5 0.394268 0.049759 0.717812
O O6 0.375955 0.952039 0.000000
O O7 0.816407 0.822822 0.500000
O O8 0.934285 0.868569 0.742624
O O9 0.778053 0.752364 0.805902
O O10 0.819582 0.909791 0.780400
O O11 0.360579 0.180290 0.703376
O O12 0.378113 0.259166 0.000000
#
# Coordination Sequence:
#
# PCOD8327252 Si02
#       4
#     6  12  12  12
#     4  10  21  36  55  78 104 134 172 214 259 310
#     4   9  19  36  55  75 102 135 169 208 258 313
#     4   9  17  28  42  61  89 125 163 198 233 275
#     4   9  18  32  49  70  96 126 162 204 248 296
#
# _framework density 18.867356000000001
#
# number of rings (size 3 to 8) (size 9 to 14) (size 15 to 20)
#    0.000    2.857    0.000    0.429    2.000    3.429 
#    0.000    2.857    0.000    4.000    0.000    4.000 
#    0.000    0.000    0.000    0.000    0.000    0.000 
#
# Total GULP energy -520399.284589 kJ/mol
# GULP energy per Si atom -12390.459157 kJ/mol
# Density = 1.882441 g / cm^3
# Si number density = 18.867356 Si / 1000 Ang^3
#
#
#
# Elastic Constant Matrix: (Units=GPa)
#
#
# Indices 1 2 3 4 5 6 
#
# 1 124.9756 91.4528 30.7625 0.0000 -0.0001 0.0000
# 2 91.4528 124.9756 30.7625 0.0000 0.0001 0.0000
# 3 30.7625 30.7625 58.3236 0.0000 0.0000 0.0000
# 4 0.0000 0.0000 0.0000 16.6047 0.0000 0.0001
# 5 -0.0001 0.0001 0.0000 0.0000 16.6047 0.0000
# 6 0.0000 0.0000 0.0000 0.0001 0.0000 16.7614
#
#
#
# Elastic Compliance Matrix: (Units=1/GPa)
#
#
# Indices 1 2 3 4 5 6 
#
# 1 0.017633 -0.012197 -0.002867 0.000000 0.000000 0.000000
# 2 -0.012197 0.017633 -0.002867 0.000000 0.000000 0.000000
# 3 -0.002867 -0.002867 0.020170 0.000000 0.000000 0.000000
# 4 0.000000 0.000000 0.000000 0.060224 0.000000 0.000000
# 5 0.000000 0.000000 0.000000 0.000000 0.060224 0.000000
# 6 0.000000 0.000000 0.000000 0.000000 0.000000 0.059661
#
#
# Mechanical properties :
#
#
# Convention : Reuss Voigt Hill
#
# Bulk Modulus (GPa) = 51.09003 68.24780 59.66892
# Shear Modulus (GPa) = 17.99003 20.34728 19.16866
#
# Velocity S-wave (km/s) = 3.09123 3.28752 3.19089
# Velocity P-wave (km/s) = 6.31492 7.11768 6.72828
#
# Compressibility (1/GPa) = 0.01957329
#
# Stress axis : x y z
#
# Youngs Moduli (GPa) = 56.71200 56.71200 49.57858
#
# Poissons Ratio (x) = 0.69174 0.14214
# Poissons Ratio (y) = 0.69174 0.14214
# Poissons Ratio (z) = 0.16259 0.16259
#
# Static dielectric constant tensor:
#      x y z
#    x 3.522430 0.000000 0.000000 
#    y 0.000000 3.522430 0.000000 
#    z 0.000000 0.000000 3.414150 
# 
# 
# High freq. dielectric constant tensor:
#      x y z
#    x 1.720740 0.000000 0.000000 
#    y 0.000000 1.720740 0.000000 
#    z 0.000000 0.000000 1.727890 
# 
# From -- ./inp_files/313.got.cif
#   From: 2010.03.12/outbox.cif.g09.slc.cpg/sg187_1_cif.got.tgz:313.got - 2010.04.01 11:58:23.
