data_PCOD8327562
_publ_section_title
;
Structure prediction by ZEFSAII (Michael W. Deem and Ramdas Pophale) SiO2 
 PCOD8327562
Probable space group: P -6 2 M
;
_chemical_formula_sum "Si O2"
_cell_formula_units_Z 60
_cell_length_a 20.663473
_cell_length_b 20.663473
_cell_length_c 9.823193
_cell_angle_alpha 90.000000
_cell_angle_beta 90.000000
_cell_angle_gamma 120.000000
_cell_volume 3632.368851
_symmetry_space_group_name_H-M "P -6 2 M"
_symmetry_group_IT_number 189
_symmetry_cell_setting 'hexagonal'
loop_
_space_group_symop_operation_xyz
x,y,z
-x+y,-x,-z
-y,x-y,z
x,y,-z
-x+y,-x,z
-y,x-y,-z
x-y,-y,-z
-x,-x+y,-z
y,x,-z
y,x,z
x-y,-y,z
-x,-x+y,z
loop_
_atom_site_type_symbol
_atom_site_label
_atom_site_fract_x
_atom_site_fract_y
_atom_site_fract_z
Si Si1 0.086945 0.424175 0.844418
Si Si2 0.915462 0.831280 0.161892
Si Si3 0.824827 0.164078 0.159855
Si Si4 0.593694 0.912720 0.657216
Si Si5 0.552263 0.463442 0.650720
O O1 0.126866 0.377844 0.805584
O O2 0.121068 0.499856 0.755504
O O3 0.000000 0.369999 0.813856
O O4 0.101094 0.450425 0.000000
O O5 0.871275 0.871275 0.220834
O O6 0.875002 0.745944 0.211838
O O7 0.000000 0.874464 0.218446
O O8 0.915392 0.834075 0.000000
O O9 0.749038 0.131751 0.242292
O O10 0.806399 0.149356 0.000000
O O11 0.602470 0.895832 0.500000
O O12 0.506923 0.885038 0.690090
O O13 0.645108 0.000000 0.688078
O O14 0.584818 0.466714 0.500000
O O15 0.508691 0.508691 0.652590
#
# Coordination Sequence:
#
# PCOD8327562 Si02
#       5
#    12  12  12  12  12
#     4   9  17  29  45  67  95 123 149 182 227 274
#     4   9  16  26  41  62  90 126 167 207 243 279
#     4  10  19  29  44  69  98 124 153 193 238 281
#     4   9  18  32  48  67  92 120 150 187 231 276
#     4   8  15  29  48  67  86 110 142 179 217 262
#
# _framework density 16.518145000000001
#
# number of rings (size 3 to 8) (size 9 to 14) (size 15 to 20)
#    0.000    3.000    0.000    2.600    0.000    6.000 
#    0.000    2.000    0.000    2.600    0.000    0.000 
#    0.000    1.600    0.000    0.000    0.000    0.000 
#
# Total GULP energy -743841.817585 kJ/mol
# GULP energy per Si atom -12397.363626 kJ/mol
# Density = 1.648055 g / cm^3
# Si number density = 16.518145 Si / 1000 Ang^3
#
#
#
# Elastic Constant Matrix: (Units=GPa)
#
#
# Indices 1 2 3 4 5 6 
#
# 1 114.5800 65.8096 58.7503 0.0000 0.0000 0.0000
# 2 65.8096 114.5800 58.7503 0.0000 0.0000 0.0000
# 3 58.7503 58.7503 65.9585 0.0000 0.0000 0.0000
# 4 0.0000 0.0000 0.0000 21.3771 0.0000 0.0000
# 5 0.0000 0.0000 0.0000 0.0000 21.3771 0.0000
# 6 0.0000 0.0000 0.0000 0.0000 0.0000 24.3852
#
#
#
# Elastic Compliance Matrix: (Units=1/GPa)
#
#
# Indices 1 2 3 4 5 6 
#
# 1 0.016855 -0.003650 -0.011762 0.000000 0.000000 0.000000
# 2 -0.003650 0.016855 -0.011762 0.000000 0.000000 0.000000
# 3 -0.011762 -0.011762 0.036114 0.000000 0.000000 0.000000
# 4 0.000000 0.000000 0.000000 0.046779 0.000000 0.000000
# 5 0.000000 0.000000 0.000000 0.000000 0.046779 0.000000
# 6 0.000000 0.000000 0.000000 0.000000 0.000000 0.041008
#
#
# Mechanical properties :
#
#
# Convention : Reuss Voigt Hill
#
# Bulk Modulus (GPa) = 64.61428 73.52654 69.07041
# Shear Modulus (GPa) = 18.94697 20.88177 19.91437
#
# Velocity S-wave (km/s) = 3.39047 3.55938 3.47595
# Velocity P-wave (km/s) = 7.38438 7.84229 7.61678
#
# Compressibility (1/GPa) = 0.01547645
#
# Stress axis : x y z
#
# Youngs Moduli (GPa) = 59.33129 59.33129 27.69032
#
# Poissons Ratio (x) = 0.21654 0.32569
# Poissons Ratio (y) = 0.21654 0.32569
# Poissons Ratio (z) = 0.69784 0.69784
#
# Static dielectric constant tensor:
#      x y z
#    x 3.138490 0.000000 0.000000 
#    y 0.000000 3.138490 0.000000 
#    z 0.000000 0.000000 3.021040 
# 
# 
# High freq. dielectric constant tensor:
#      x y z
#    x 1.629790 0.000000 0.000000 
#    y 0.000000 1.629790 0.000000 
#    z 0.000000 0.000000 1.614760 
# 
# From -- ./inp_files/1891.got.cif
#   From: 2010.03.12/outbox.cif.g09.slc.cpg/sg189_1_cif.got.tgz:1891.got - 2010.04.01 12:03:36.
