data_PCOD8327117
_publ_section_title
;
Structure prediction by ZEFSAII (Michael W. Deem and Ramdas Pophale) SiO2 
 PCOD8327117
Probable space group: P -6 M 2
;
_chemical_formula_sum "Si O2"
_cell_formula_units_Z 54
_cell_length_a 12.725804
_cell_length_b 12.725804
_cell_length_c 23.076620
_cell_angle_alpha 90.000000
_cell_angle_beta 90.000000
_cell_angle_gamma 120.000000
_cell_volume 3236.482704
_symmetry_space_group_name_H-M "P -6 M 2"
_symmetry_group_IT_number 187
_symmetry_cell_setting 'hexagonal'
loop_
_space_group_symop_operation_xyz
x,y,z
-x+y,-x,-z
-y,x-y,z
x,y,-z
-x+y,-x,z
-y,x-y,-z
-y,-x,-z
-x+y,y,-z
x,x-y,-z
-x+y,y,z
x,x-y,z
-y,-x,z
loop_
_atom_site_type_symbol
_atom_site_label
_atom_site_fract_x
_atom_site_fract_y
_atom_site_fract_z
Si Si1 0.908439 0.575380 0.433715
Si Si2 0.998640 0.754887 0.665968
Si Si3 0.911449 0.332415 0.772342
Si Si4 0.331689 0.902140 0.000000
Si Si5 0.580015 0.669135 0.874456
O O1 0.946945 0.614665 0.500000
O O2 0.769003 0.538005 0.422912
O O3 0.921550 0.460775 0.416525
O O4 0.996436 0.688540 0.393800
O O5 0.897660 0.795320 0.665385
O O6 0.978074 0.665640 0.718644
O O7 0.128550 0.871451 0.673148
O O8 0.911095 0.455548 0.760966
O O9 0.774365 0.225636 0.779025
O O10 0.982212 0.337126 0.830708
O O11 0.310316 0.952560 0.938946
O O12 0.243546 0.756455 0.000000
O O13 0.469313 0.938626 0.000000
O O14 0.576800 0.788400 0.854214
O O15 0.442312 0.557689 0.875472
#
# Coordination Sequence:
#
# PCOD8327117 Si02
#       5
#    12  12  12   6  12
#     4   9  17  30  50  75 100 126 157 193 229 264
#     4  10  20  33  49  69  93 121 153 190 232 277
#     4  10  20  33  49  68  91 120 154 192 232 275
#     4   8  13  22  39  64  92 120 150 184 222 264
#     4   9  16  27  45  69  95 121 150 186 228 272
#
# _framework density 16.68478
#
# number of rings (size 3 to 8) (size 9 to 14) (size 15 to 20)
#    0.000    2.667    0.000    2.333    0.000    3.111 
#    0.000    2.778    0.000    6.667    0.000    1.556 
#    0.000    0.000    0.000    0.000    0.000    0.000 
#
# Total GULP energy -669332.524911 kJ/mol
# GULP energy per Si atom -12395.046758 kJ/mol
# Density = 1.664680 g / cm^3
# Si number density = 16.684780 Si / 1000 Ang^3
#
#
#
# Elastic Constant Matrix: (Units=GPa)
#
#
# Indices 1 2 3 4 5 6 
#
# 1 90.1775 51.8014 56.9711 0.0000 -0.0002 0.0000
# 2 51.8014 90.1775 56.9711 0.0000 0.0002 0.0000
# 3 56.9711 56.9711 121.6438 0.0000 0.0000 0.0000
# 4 0.0000 0.0000 0.0000 23.4622 0.0000 0.0002
# 5 -0.0002 0.0002 0.0000 0.0000 23.4622 0.0000
# 6 0.0000 0.0000 0.0000 0.0002 0.0000 19.1881
#
#
#
# Elastic Compliance Matrix: (Units=1/GPa)
#
#
# Indices 1 2 3 4 5 6 
#
# 1 0.018671 -0.007387 -0.005285 0.000000 0.000000 0.000000
# 2 -0.007387 0.018671 -0.005285 0.000000 0.000000 0.000000
# 3 -0.005285 -0.005285 0.013171 0.000000 0.000000 0.000000
# 4 0.000000 0.000000 0.000000 0.042622 0.000000 0.000000
# 5 0.000000 0.000000 0.000000 0.000000 0.042622 0.000000
# 6 0.000000 0.000000 0.000000 0.000000 0.000000 0.052116
#
#
# Mechanical properties :
#
#
# Convention : Reuss Voigt Hill
#
# Bulk Modulus (GPa) = 68.49218 70.38735 69.43977
# Shear Modulus (GPa) = 21.86715 22.30619 22.08667
#
# Velocity S-wave (km/s) = 3.62415 3.66036 3.64230
# Velocity P-wave (km/s) = 7.65849 7.75515 7.70697
#
# Compressibility (1/GPa) = 0.01460021
#
# Stress axis : x y z
#
# Youngs Moduli (GPa) = 53.55807 53.55807 75.92280
#
# Poissons Ratio (x) = 0.39561 0.40126
# Poissons Ratio (y) = 0.39561 0.40126
# Poissons Ratio (z) = 0.28306 0.28306
#
# Static dielectric constant tensor:
#      x y z
#    x 2.935260 0.000000 0.000000 
#    y 0.000000 2.935260 0.000000 
#    z 0.000000 0.000000 3.557090 
# 
# 
# High freq. dielectric constant tensor:
#      x y z
#    x 1.624670 0.000000 0.000000 
#    y 0.000000 1.624670 0.000000 
#    z 0.000000 0.000000 1.665070 
# 
# From -- ./inp_files/3859.got.cif
#   From: 2010.03.12/outbox.cif.g09.slc.cpg/sg187_2_cif.got.tgz:3859.got - 2010.04.01 11:58:23.
