data_PCOD8327364
_publ_section_title
;
Structure prediction by ZEFSAII (Michael W. Deem and Ramdas Pophale) SiO2 
 PCOD8327364
Probable space group: P -6 C 2
;
_chemical_formula_sum "Si O2"
_cell_formula_units_Z 96
_cell_length_a 15.563503
_cell_length_b 15.563503
_cell_length_c 25.514729
_cell_angle_alpha 90.000000
_cell_angle_beta 90.000000
_cell_angle_gamma 120.000000
_cell_volume 5352.248869
_symmetry_space_group_name_H-M "P -6 C 2"
_symmetry_group_IT_number 188
_symmetry_cell_setting 'hexagonal'
loop_
_space_group_symop_operation_xyz
x,y,z
-x+y,-x,1/2-z
-y,x-y,z
x,y,1/2-z
-x+y,-x,z
-y,x-y,1/2-z
-y,-x,-z
-x+y,y,-z
x,x-y,-z
-x+y,y,1/2+z
x,x-y,1/2+z
-y,-x,1/2+z
loop_
_atom_site_type_symbol
_atom_site_label
_atom_site_fract_x
_atom_site_fract_y
_atom_site_fract_z
Si Si1 0.038232 0.765908 0.002877
Si Si2 0.999099 0.483791 0.810654
Si Si3 0.193608 0.988309 0.391428
Si Si4 0.161200 0.661509 0.027500
Si Si5 0.700888 0.065775 0.688777
Si Si6 0.365152 0.789034 0.856010
Si Si7 0.818193 0.016350 0.393002
Si Si8 0.368286 0.262098 0.189048
O O1 0.991727 0.740075 0.944485
O O2 0.117967 0.882034 0.000000
O O3 0.086351 0.701495 0.020890
O O4 0.961066 0.749938 0.049325
O O5 0.983116 0.487109 0.750000
O O6 0.114451 0.516115 0.820004
O O7 0.964991 0.557764 0.835408
O O8 0.922808 0.372317 0.830245
O O9 0.099788 0.879371 0.388144
O O10 0.262455 0.001985 0.341992
O O11 0.151329 0.063915 0.388565
O O12 0.175304 0.639034 0.086415
O O13 0.265947 0.734054 0.000000
O O14 0.110154 0.555077 0.000000
O O15 0.696162 0.038526 0.750000
O O16 0.776878 0.183881 0.679985
O O17 0.253363 0.695041 0.846378
O O18 0.766712 0.039313 0.345479
O O19 0.340273 0.262750 0.250000
#
# Coordination Sequence:
#
# PCOD8327364 Si02
#       8
#    12  12  12  12  12  12  12  12
#     4   9  20  30  47  74 102 137 177 220 259 307
#     4  10  21  36  56  78 105 142 178 219 276 331
#     4  10  20  34  54  77 107 141 179 219 268 321
#     4  11  18  31  47  69 102 139 182 222 258 297
#     4   9  20  37  55  78 106 132 175 230 272 323
#     4  10  21  33  49  75 110 151 182 216 256 324
#     4  10  19  35  52  76 106 140 176 219 262 317
#     4   9  19  37  56  76 103 134 173 224 273 320
#
# _framework density 17.936385000000001
#
# number of rings (size 3 to 8) (size 9 to 14) (size 15 to 20)
#    0.250    2.000    1.250    1.500    1.750    3.000 
#    0.750    3.750    0.000    1.500    0.000    0.000 
#    0.000    0.000    0.250    0.000    0.000    0.000 
#
# Total GULP energy -1189450.959558 kJ/mol
# GULP energy per Si atom -12390.114162 kJ/mol
# Density = 1.789556 g / cm^3
# Si number density = 17.936385 Si / 1000 Ang^3
#
#
#
# Elastic Constant Matrix: (Units=GPa)
#
#
# Indices 1 2 3 4 5 6 
#
# 1 81.1620 43.8838 30.7052 0.0000 0.0000 0.0000
# 2 43.8838 81.1620 30.7052 0.0000 0.0000 0.0000
# 3 30.7052 30.7052 61.5715 0.0000 0.0000 0.0000
# 4 0.0000 0.0000 0.0000 31.8395 0.0000 0.0000
# 5 0.0000 0.0000 0.0000 0.0000 31.8395 0.0000
# 6 0.0000 0.0000 0.0000 0.0000 0.0000 18.6391
#
#
#
# Elastic Compliance Matrix: (Units=1/GPa)
#
#
# Indices 1 2 3 4 5 6 
#
# 1 0.018708 -0.008117 -0.005282 0.000000 0.000000 0.000000
# 2 -0.008117 0.018708 -0.005282 0.000000 0.000000 0.000000
# 3 -0.005282 -0.005282 0.021509 0.000000 0.000000 0.000000
# 4 0.000000 0.000000 0.000000 0.031407 0.000000 0.000000
# 5 0.000000 0.000000 0.000000 0.000000 0.031407 0.000000
# 6 0.000000 0.000000 0.000000 0.000000 0.000000 0.053651
#
#
# Mechanical properties :
#
#
# Convention : Reuss Voigt Hill
#
# Bulk Modulus (GPa) = 46.37262 48.27602 47.32432
# Shear Modulus (GPa) = 22.73349 24.37039 23.55194
#
# Velocity S-wave (km/s) = 3.56399 3.69007 3.62758
# Velocity P-wave (km/s) = 6.54569 6.71782 6.63231
#
# Compressibility (1/GPa) = 0.02156445
#
# Stress axis : x y z
#
# Youngs Moduli (GPa) = 53.45276 53.45276 46.49211
#
# Poissons Ratio (x) = 0.43389 0.24555
# Poissons Ratio (y) = 0.43389 0.24555
# Poissons Ratio (z) = 0.28231 0.28231
#
# Static dielectric constant tensor:
#      x y z
#    x 3.427030 0.000000 0.000000 
#    y 0.000000 3.427030 0.000000 
#    z 0.000000 0.000000 3.506260 
# 
# 
# High freq. dielectric constant tensor:
#      x y z
#    x 1.683700 0.000000 0.000000 
#    y 0.000000 1.683700 0.000000 
#    z 0.000000 0.000000 1.699030 
# 
# From -- ./inp_files/4340.got.cif
#   From: 2010.03.12/outbox.cif.g09.slc.cpg/sg188_3_cif.got.tgz:4340.got - 2010.04.01 12:01:06.
