data_PCOD8327245
_publ_section_title
;
Structure prediction by ZEFSAII (Michael W. Deem and Ramdas Pophale) SiO2 
 PCOD8327245
Probable space group: P -6 M 2
;
_chemical_formula_sum "Si O2"
_cell_formula_units_Z 72
_cell_length_a 22.916275
_cell_length_b 22.916275
_cell_length_c 9.131578
_cell_angle_alpha 90.000000
_cell_angle_beta 90.000000
_cell_angle_gamma 120.000000
_cell_volume 4153.024712
_symmetry_space_group_name_H-M "P -6 M 2"
_symmetry_group_IT_number 187
_symmetry_cell_setting 'hexagonal'
loop_
_space_group_symop_operation_xyz
x,y,z
-x+y,-x,-z
-y,x-y,z
x,y,-z
-x+y,-x,z
-y,x-y,-z
-y,-x,-z
-x+y,y,-z
x,x-y,-z
-x+y,y,z
x,x-y,z
-y,-x,z
loop_
_atom_site_type_symbol
_atom_site_label
_atom_site_fract_x
_atom_site_fract_y
_atom_site_fract_z
Si Si1 0.535529 0.201976 0.325273
Si Si2 0.200081 0.667033 0.171818
Si Si3 0.798364 0.072735 0.674582
Si Si4 0.722015 0.925075 0.325951
Si Si5 0.667391 0.595027 0.673737
Si Si6 0.334167 0.412192 0.327219
O O1 0.534616 0.201419 0.500000
O O2 0.605831 0.211662 0.266055
O O3 0.526618 0.263309 0.266074
O O4 0.475745 0.131022 0.262953
O O5 0.215624 0.607812 0.211030
O O6 0.262750 0.737251 0.229071
O O7 0.131076 0.650997 0.248658
O O8 0.190438 0.670664 0.000000
O O9 0.800192 0.075497 0.500000
O O10 0.870217 0.129784 0.739372
O O11 0.739455 0.085803 0.732715
O O12 0.780931 0.998359 0.728912
O O13 0.722851 0.923512 0.500000
O O14 0.735421 0.867711 0.258690
O O15 0.648671 0.910530 0.275590
O O16 0.670738 0.594991 0.500000
O O17 0.607284 0.609177 0.719855
O O18 0.335687 0.423860 0.500000
#
# Coordination Sequence:
#
# PCOD8327245 Si02
#       6
#    12  12  12  12  12  12
#     4   9  15  21  29  43  69 107 145 175 205 247
#     4  10  21  36  51  65  84 112 142 169 200 242
#     4   8  12  18  29  45  67  97 131 164 199 242
#     4   8  13  21  34  53  77 103 131 167 210 248
#     4   8  14  23  35  53  76 101 130 168 212 249
#     4   9  17  29  46  67  87 108 137 173 212 251
#
# _framework density 17.336763000000001
#
# number of rings (size 3 to 8) (size 9 to 14) (size 15 to 20)
#    0.000    3.333    0.000    3.333    0.000    5.333 
#    0.000    1.667    0.000    1.333    0.000    2.333 
#    0.000   16.667    0.000    0.333    0.000    2.833 
#
# Total GULP energy -892213.770097 kJ/mol
# GULP energy per Si atom -12391.857918 kJ/mol
# Density = 1.729730 g / cm^3
# Si number density = 17.336763 Si / 1000 Ang^3
#
#
#
# Elastic Constant Matrix: (Units=GPa)
#
#
# Indices 1 2 3 4 5 6 
#
# 1 142.6462 81.4824 17.9262 0.0000 -0.0001 0.0000
# 2 81.4824 142.6462 17.9262 0.0000 0.0001 0.0000
# 3 17.9262 17.9262 9.3144 0.0000 0.0000 0.0000
# 4 0.0000 0.0000 0.0000 7.1834 0.0000 0.0001
# 5 -0.0001 0.0001 0.0000 0.0000 7.1834 0.0000
# 6 0.0000 0.0000 0.0000 0.0001 0.0000 30.5819
#
#
#
# Elastic Compliance Matrix: (Units=1/GPa)
#
#
# Indices 1 2 3 4 5 6 
#
# 1 0.011398 -0.004952 -0.012406 0.000000 0.000000 0.000000
# 2 -0.004952 0.011398 -0.012406 0.000000 0.000000 0.000000
# 3 -0.012406 -0.012406 0.155114 0.000000 0.000000 0.000000
# 4 0.000000 0.000000 0.000000 0.139210 0.000000 0.000000
# 5 0.000000 0.000000 0.000000 0.000000 0.139210 0.000000
# 6 0.000000 0.000000 0.000000 0.000000 0.000000 0.032699
#
#
# Mechanical properties :
#
#
# Convention : Reuss Voigt Hill
#
# Bulk Modulus (GPa) = 8.44729 58.80846 33.62787
# Shear Modulus (GPa) = 8.50314 20.80786 14.65550
#
# Velocity S-wave (km/s) = 2.21706 3.46817 2.91063
# Velocity P-wave (km/s) = 3.38184 7.07337 5.54389
#
# Compressibility (1/GPa) = 0.11838117
#
# Stress axis : x y z
#
# Youngs Moduli (GPa) = 87.73542 87.73542 6.44689
#
# Poissons Ratio (x) = 0.43443 0.07998
# Poissons Ratio (y) = 0.43443 0.07998
# Poissons Ratio (z) = 1.08847 1.08847
#
# Static dielectric constant tensor:
#      x y z
#    x 3.533840 0.000000 0.000000 
#    y 0.000000 3.533840 0.000000 
#    z 0.000000 0.000000 2.493570 
# 
# 
# High freq. dielectric constant tensor:
#      x y z
#    x 1.676470 0.000000 0.000000 
#    y 0.000000 1.676470 0.000000 
#    z 0.000000 0.000000 1.588130 
# 
# From -- ./inp_files/1006.got.cif
#   From: 2010.03.12/outbox.cif.g09.slc.cpg/sg187_1_cif.got.tgz:1006.got - 2010.04.01 11:58:23.
