data_PCOD8327264
_publ_section_title
;
Structure prediction by ZEFSAII (Michael W. Deem and Ramdas Pophale) SiO2 
 PCOD8327264
Probable space group: P -6 M 2
;
_chemical_formula_sum "Si O2"
_cell_formula_units_Z 56
_cell_length_a 19.016943
_cell_length_b 19.016943
_cell_length_c 13.723302
_cell_angle_alpha 90.000000
_cell_angle_beta 90.000000
_cell_angle_gamma 120.000000
_cell_volume 4298.042068
_symmetry_space_group_name_H-M "P -6 M 2"
_symmetry_group_IT_number 187
_symmetry_cell_setting 'hexagonal'
loop_
_space_group_symop_operation_xyz
x,y,z
-x+y,-x,-z
-y,x-y,z
x,y,-z
-x+y,-x,z
-y,x-y,-z
-y,-x,-z
-x+y,y,-z
x,x-y,-z
-x+y,y,z
x,x-y,z
-y,-x,z
loop_
_atom_site_type_symbol
_atom_site_label
_atom_site_fract_x
_atom_site_fract_y
_atom_site_fract_z
Si Si1 0.835614 0.837939 0.797894
Si Si2 0.959895 0.206142 0.393728
Si Si3 0.709664 0.123878 0.298833
Si Si4 0.666667 0.333334 0.615004
Si Si5 0.753088 0.080515 0.107229
Si Si6 0.575241 0.150481 0.383396
O O1 0.925715 0.851429 0.806919
O O2 0.803626 0.819949 0.686084
O O3 0.771325 0.762273 0.862926
O O4 0.836713 0.918356 0.834896
O O5 0.003117 0.229064 0.500000
O O6 0.877829 0.122172 0.400027
O O7 0.936799 0.273319 0.362218
O O8 0.782759 0.217242 0.310199
O O9 0.697776 0.093693 0.186164
O O10 0.624422 0.110210 0.338096
O O11 0.666667 0.333334 0.500000
O O12 0.621246 0.378755 0.654162
O O13 0.838779 0.161222 0.105722
O O14 0.711669 0.062072 0.000000
O O15 0.571105 0.142209 0.500000
#
# Coordination Sequence:
#
# PCOD8327264 Si02
#       6
#    12  12  12   2  12   6
#     4   9  16  24  35  52  71  89 112 147 190 225
#     4   8  14  24  35  46  64  93 123 144 167 209
#     4   9  16  25  37  51  67  90 116 145 178 213
#     4   9  18  24  30  51  79  95 103 132 186 225
#     4   8  15  28  41  49  61  86 118 146 175 213
#     4  11  18  24  35  55  77  93 110 140 183 219
#
# _framework density 13.029189000000001
#
# number of rings (size 3 to 8) (size 9 to 14) (size 15 to 20)
#    0.000    3.214    1.071    3.429    0.000    1.714 
#    0.000    0.536    0.000    2.571    0.000    0.000 
#    0.000    0.000    0.000    0.000    0.000    0.000 
#
# Total GULP energy -693820.835411 kJ/mol
# GULP energy per Si atom -12389.657775 kJ/mol
# Density = 1.299953 g / cm^3
# Si number density = 13.029189 Si / 1000 Ang^3
#
#
#
# Elastic Constant Matrix: (Units=GPa)
#
#
# Indices 1 2 3 4 5 6 
#
# 1 48.0439 15.1285 16.7115 0.0000 -0.0002 0.0000
# 2 15.1285 48.0439 16.7116 0.0000 0.0002 0.0000
# 3 16.7115 16.7116 91.2858 0.0000 0.0000 0.0000
# 4 0.0000 0.0000 0.0000 12.8978 0.0000 0.0002
# 5 -0.0002 0.0002 0.0000 0.0000 12.8978 0.0000
# 6 0.0000 0.0000 0.0000 0.0002 0.0000 16.4577
#
#
#
# Elastic Compliance Matrix: (Units=1/GPa)
#
#
# Indices 1 2 3 4 5 6 
#
# 1 0.023954 -0.006427 -0.003209 0.000000 0.000001 0.000000
# 2 -0.006427 0.023954 -0.003209 0.000000 -0.000001 0.000000
# 3 -0.003209 -0.003209 0.012129 0.000000 0.000000 0.000000
# 4 0.000000 0.000000 0.000000 0.077533 0.000000 -0.000001
# 5 0.000001 -0.000001 0.000000 0.000000 0.077533 0.000000
# 6 0.000000 0.000000 0.000000 -0.000001 0.000000 0.060762
#
#
# Mechanical properties :
#
#
# Convention : Reuss Voigt Hill
#
# Bulk Modulus (GPa) = 29.11265 31.60853 30.36059
# Shear Modulus (GPa) = 15.97430 17.70547 16.83989
#
# Velocity S-wave (km/s) = 3.50528 3.69034 3.59900
# Velocity P-wave (km/s) = 6.22699 6.51694 6.37361
#
# Compressibility (1/GPa) = 0.03434933
#
# Stress axis : x y z
#
# Youngs Moduli (GPa) = 41.74647 41.74646 82.44415
#
# Poissons Ratio (x) = 0.26829 0.26454
# Poissons Ratio (y) = 0.26829 0.26454
# Poissons Ratio (z) = 0.13395 0.13395
#
# Static dielectric constant tensor:
#      x y z
#    x 2.331620 0.000000 0.000000 
#    y 0.000000 2.331620 0.000000 
#    z 0.000000 0.000000 3.303800 
# 
# 
# High freq. dielectric constant tensor:
#      x y z
#    x 1.457580 0.000000 0.000000 
#    y 0.000000 1.457580 0.000000 
#    z 0.000000 0.000000 1.508370 
# 
# From -- ./inp_files/2405.got.cif
#   From: 2010.03.12/outbox.cif.g09.slc.cpg/sg187_2_cif.got.tgz:2405.got - 2010.04.01 11:58:23.
