data_PCOD8327548
_publ_section_title
;
Structure prediction by ZEFSAII (Michael W. Deem and Ramdas Pophale) SiO2 
 PCOD8327548
Probable space group: P -6 2 M
;
_chemical_formula_sum "Si O2"
_cell_formula_units_Z 72
_cell_length_a 22.888850
_cell_length_b 22.888850
_cell_length_c 9.196379
_cell_angle_alpha 90.000000
_cell_angle_beta 90.000000
_cell_angle_gamma 120.000000
_cell_volume 4172.491291
_symmetry_space_group_name_H-M "P -6 2 M"
_symmetry_group_IT_number 189
_symmetry_cell_setting 'hexagonal'
loop_
_space_group_symop_operation_xyz
x,y,z
-x+y,-x,-z
-y,x-y,z
x,y,-z
-x+y,-x,z
-y,x-y,-z
x-y,-y,-z
-x,-x+y,-z
y,x,-z
y,x,z
x-y,-y,z
-x,-x+y,z
loop_
_atom_site_type_symbol
_atom_site_label
_atom_site_fract_x
_atom_site_fract_y
_atom_site_fract_z
Si Si1 0.436382 0.360534 0.670728
Si Si2 0.701576 0.701576 0.327683
Si Si3 0.178068 0.000000 0.169718
Si Si4 0.420865 0.117620 0.167222
Si Si5 0.777161 0.924873 0.171072
Si Si6 0.152511 0.776680 0.166401
Si Si7 0.079019 0.508425 0.667771
O O1 0.429286 0.348559 0.500000
O O2 0.385525 0.385525 0.724768
O O3 0.417900 0.291662 0.747163
O O4 0.512674 0.416595 0.710884
O O5 0.699961 0.699961 0.500000
O O6 0.766864 0.766864 0.272406
O O7 0.702233 0.637056 0.269649
O O8 0.176065 0.067978 0.207509
O O9 0.197697 0.000000 0.000000
O O10 0.419670 0.186671 0.181468
O O11 0.490311 0.124837 0.228766
O O12 0.409944 0.093110 0.000000
O O13 0.700511 0.878605 0.230441
O O14 0.812317 0.000000 0.241114
O O15 0.773348 0.930606 0.000000
O O16 0.129992 0.759260 0.000000
O O17 0.097333 0.505783 0.500000
O O18 0.000000 0.455736 0.694209
#
# Coordination Sequence:
#
# PCOD8327548 Si02
#       7
#    12   6   6  12  12  12  12
#     4   9  19  35  53  75 106 138 169 209 255 302
#     4  12  22  32  50  76 106 136 169 210 261 320
#     4  10  18  34  52  70 104 140 175 222 271 320
#     4  11  21  33  52  79 107 136 170 210 258 308
#     4   9  17  30  49  72 100 135 174 222 273 315
#     4  10  20  33  51  74 104 137 173 218 263 306
#     4   9  18  33  52  76 105 134 162 201 252 302
#
# _framework density 17.255877000000002
#
# number of rings (size 3 to 8) (size 9 to 14) (size 15 to 20)
#    0.000    2.167    2.500    2.750    0.000    3.000 
#    0.500    1.667    0.000    1.167    0.000    0.000 
#    0.000    0.000    0.000    0.000    0.000    0.000 
#
# Total GULP energy -892578.527148 kJ/mol
# GULP energy per Si atom -12396.923988 kJ/mol
# Density = 1.721660 g / cm^3
# Si number density = 17.255877 Si / 1000 Ang^3
#
#
#
# Elastic Constant Matrix: (Units=GPa)
#
#
# Indices 1 2 3 4 5 6 
#
# 1 116.2201 49.6800 42.1029 0.0000 0.0000 0.0000
# 2 49.6800 116.2201 42.1029 0.0000 0.0000 0.0000
# 3 42.1029 42.1029 70.6696 0.0000 0.0000 0.0000
# 4 0.0000 0.0000 0.0000 24.7025 0.0000 0.0000
# 5 0.0000 0.0000 0.0000 0.0000 24.7025 0.0000
# 6 0.0000 0.0000 0.0000 0.0000 0.0000 33.2700
#
#
#
# Elastic Compliance Matrix: (Units=1/GPa)
#
#
# Indices 1 2 3 4 5 6 
#
# 1 0.011835 -0.003194 -0.005148 0.000000 0.000000 0.000000
# 2 -0.003194 0.011835 -0.005148 0.000000 0.000000 0.000000
# 3 -0.005148 -0.005148 0.020284 0.000000 0.000000 0.000000
# 4 0.000000 0.000000 0.000000 0.040482 0.000000 0.000000
# 5 0.000000 0.000000 0.000000 0.000000 0.040482 0.000000
# 6 0.000000 0.000000 0.000000 0.000000 0.000000 0.030057
#
#
# Mechanical properties :
#
#
# Convention : Reuss Voigt Hill
#
# Bulk Modulus (GPa) = 58.91319 63.43125 61.17222
# Shear Modulus (GPa) = 26.65086 27.81659 27.23373
#
# Velocity S-wave (km/s) = 3.93421 4.01934 3.97700
# Velocity P-wave (km/s) = 7.40624 7.64062 7.52435
#
# Compressibility (1/GPa) = 0.01697413
#
# Stress axis : x y z
#
# Youngs Moduli (GPa) = 84.49826 84.49826 49.29950
#
# Poissons Ratio (x) = 0.26989 0.25378
# Poissons Ratio (y) = 0.26989 0.25378
# Poissons Ratio (z) = 0.43498 0.43498
#
# Static dielectric constant tensor:
#      x y z
#    x 3.367100 0.000000 0.000000 
#    y 0.000000 3.367100 0.000000 
#    z 0.000000 0.000000 3.084510 
# 
# 
# High freq. dielectric constant tensor:
#      x y z
#    x 1.659630 0.000000 0.000000 
#    y 0.000000 1.659630 0.000000 
#    z 0.000000 0.000000 1.650020 
# 
# From -- ./inp_files/1375.got.cif
#   From: 2010.03.12/outbox.cif.g09.slc.cpg/sg189_1_cif.got.tgz:1375.got - 2010.04.01 12:03:36.
