data_PCOD8327441
_publ_section_title
;
Structure prediction by ZEFSAII (Michael W. Deem and Ramdas Pophale) SiO2 
 PCOD8327441
Probable space group: P -6 C 2
;
_chemical_formula_sum "Si O2"
_cell_formula_units_Z 64
_cell_length_a 15.809098
_cell_length_b 15.809098
_cell_length_c 15.043869
_cell_angle_alpha 90.000000
_cell_angle_beta 90.000000
_cell_angle_gamma 120.000000
_cell_volume 3256.149661
_symmetry_space_group_name_H-M "P -6 C 2"
_symmetry_group_IT_number 188
_symmetry_cell_setting 'hexagonal'
loop_
_space_group_symop_operation_xyz
x,y,z
-x+y,-x,1/2-z
-y,x-y,z
x,y,1/2-z
-x+y,-x,z
-y,x-y,1/2-z
-y,-x,-z
-x+y,y,-z
x,x-y,-z
-x+y,y,1/2+z
x,x-y,1/2+z
-y,-x,1/2+z
loop_
_atom_site_type_symbol
_atom_site_label
_atom_site_fract_x
_atom_site_fract_y
_atom_site_fract_z
Si Si1 0.098167 0.722758 0.983950
Si Si2 0.000000 0.000000 0.145374
Si Si3 0.801184 0.815669 0.353151
Si Si4 0.832572 0.220324 0.150156
Si Si5 0.647239 0.030652 0.350155
Si Si6 0.565505 0.040699 0.912630
O O1 0.045782 0.694968 0.080564
O O2 0.215702 0.784299 0.000000
O O3 0.078643 0.795512 0.923314
O O4 0.064032 0.623607 0.928049
O O5 0.087117 0.983429 0.112107
O O6 0.000000 0.000000 0.250000
O O7 0.773121 0.824808 0.250000
O O8 0.824043 0.727787 0.359268
O O9 0.818940 0.243003 0.250000
O O10 0.727705 0.137922 0.113124
O O11 0.875334 0.324505 0.104014
O O12 0.674230 0.012116 0.250000
O O13 0.541920 0.025026 0.341179
O O14 0.539252 0.078503 0.000000
#
# Coordination Sequence:
#
# PCOD8327441 Si02
#       6
#    12   4  12  12  12  12
#     4  10  22  37  56  86 115 151 192 239 291 350
#     4   9  18  33  52  80 119 155 202 243 274 329
#     4   9  19  34  53  79 116 159 194 237 284 331
#     4   9  18  34  56  81 115 153 191 235 284 335
#     4  10  21  38  62  86 116 155 196 243 289 352
#     4   9  19  36  57  83 115 147 191 240 293 349
#
# _framework density 19.655116
#
# number of rings (size 3 to 8) (size 9 to 14) (size 15 to 20)
#    0.000    2.625    0.000    0.562    2.625    8.250 
#    1.125    0.000    0.000   10.125    0.000    0.000 
#    0.000    0.000    0.000    0.000    0.000    0.000 
#
# Total GULP energy -792865.483979 kJ/mol
# GULP energy per Si atom -12388.523187 kJ/mol
# Density = 1.961038 g / cm^3
# Si number density = 19.655116 Si / 1000 Ang^3
#
#
#
# Elastic Constant Matrix: (Units=GPa)
#
#
# Indices 1 2 3 4 5 6 
#
# 1 92.1703 47.5084 28.1209 -0.0001 0.0000 0.0000
# 2 47.5084 92.1703 28.1209 0.0001 0.0000 0.0000
# 3 28.1209 28.1209 71.6765 0.0000 0.0000 0.0000
# 4 -0.0001 0.0001 0.0000 24.9366 0.0000 0.0000
# 5 0.0000 0.0000 0.0000 0.0000 24.9366 -0.0001
# 6 0.0000 0.0000 0.0000 0.0000 -0.0001 22.3310
#
#
#
# Elastic Compliance Matrix: (Units=1/GPa)
#
#
# Indices 1 2 3 4 5 6 
#
# 1 0.015446 -0.006944 -0.003336 0.000000 0.000000 0.000000
# 2 -0.006944 0.015446 -0.003336 0.000000 0.000000 0.000000
# 3 -0.003336 -0.003336 0.016569 0.000000 0.000000 0.000000
# 4 0.000000 0.000000 0.000000 0.040102 0.000000 0.000000
# 5 0.000000 0.000000 0.000000 0.000000 0.040102 0.000000
# 6 0.000000 0.000000 0.000000 0.000000 0.000000 0.044781
#
#
# Mechanical properties :
#
#
# Convention : Reuss Voigt Hill
#
# Bulk Modulus (GPa) = 49.42951 51.50193 50.46572
# Shear Modulus (GPa) = 24.22234 24.59194 24.40714
#
# Velocity S-wave (km/s) = 3.51432 3.54103 3.52770
# Velocity P-wave (km/s) = 6.45525 6.55578 6.50571
#
# Compressibility (1/GPa) = 0.02023083
#
# Stress axis : x y z
#
# Youngs Moduli (GPa) = 64.73981 64.73981 60.35361
#
# Poissons Ratio (x) = 0.44955 0.20133
# Poissons Ratio (y) = 0.44955 0.20133
# Poissons Ratio (z) = 0.21596 0.21596
#
# Static dielectric constant tensor:
#      x y z
#    x 3.747370 0.000000 0.000000 
#    y 0.000000 3.747370 0.000000 
#    z 0.000000 0.000000 3.718370 
# 
# 
# High freq. dielectric constant tensor:
#      x y z
#    x 1.751860 0.000000 0.000000 
#    y 0.000000 1.751860 0.000000 
#    z 0.000000 0.000000 1.776260 
# 
# From -- ./inp_files/3112.got.cif
#   From: 2010.03.12/outbox.cif.g09.slc.cpg/sg188_2_cif.got.tgz:3112.got - 2010.04.01 12:01:06.
