data_PCOD8327334
_publ_section_title
;
Structure prediction by ZEFSAII (Michael W. Deem and Ramdas Pophale) SiO2 
 PCOD8327334
Probable space group: P -6 C 2
;
_chemical_formula_sum "Si O2"
_cell_formula_units_Z 46
_cell_length_a 15.637121
_cell_length_b 15.637121
_cell_length_c 13.997831
_cell_angle_alpha 90.000000
_cell_angle_beta 90.000000
_cell_angle_gamma 120.000000
_cell_volume 2964.182719
_symmetry_space_group_name_H-M "P -6 C 2"
_symmetry_group_IT_number 188
_symmetry_cell_setting 'hexagonal'
loop_
_space_group_symop_operation_xyz
x,y,z
-x+y,-x,1/2-z
-y,x-y,z
x,y,1/2-z
-x+y,-x,z
-y,x-y,1/2-z
-y,-x,-z
-x+y,y,-z
x,x-y,-z
-x+y,y,1/2+z
x,x-y,1/2+z
-y,-x,1/2+z
loop_
_atom_site_type_symbol
_atom_site_label
_atom_site_fract_x
_atom_site_fract_y
_atom_site_fract_z
Si Si1 0.119244 0.220523 0.362375
Si Si2 0.000000 0.000000 0.861929
Si Si3 0.665332 0.152597 0.544145
Si Si4 0.970761 0.738069 0.991579
Si Si5 0.777688 0.442354 0.750000
O O1 0.135900 0.240439 0.250000
O O2 0.224586 0.269171 0.416249
O O3 0.040303 0.250814 0.398967
O O4 0.075054 0.108424 0.397796
O O5 0.000000 0.000000 0.750000
O O6 0.741336 0.258665 0.500000
O O7 0.558389 0.116778 0.500000
O O8 0.692371 0.069878 0.517050
O O9 0.664395 0.161238 0.658376
O O10 0.879084 0.758167 0.000000
O O11 0.763134 0.331687 0.750000
#
# Coordination Sequence:
#
# PCOD8327334 Si02
#       5
#    12   4  12  12   6
#     4  10  19  33  46  69  98 133 166 198 236 284
#     4   9  15  25  47  61  91 134 160 187 230 268
#     4  11  20  36  50  72 100 129 166 207 245 294
#     4  10  21  30  48  71  97 131 168 203 237 288
#     4  10  18  32  54  70  88 138 168 204 254 286
#
# _framework density 15.518610000000001
#
# number of rings (size 3 to 8) (size 9 to 14) (size 15 to 20)
#    0.261    1.565    5.217    0.261    1.826    0.000 
#    9.391    0.000    0.000    0.000    0.000    0.000 
#   10.435    0.000    0.000    0.000    0.000    0.000 
#
# Total GULP energy -570068.082141 kJ/mol
# GULP energy per Si atom -12392.784394 kJ/mol
# Density = 1.548329 g / cm^3
# Si number density = 15.518610 Si / 1000 Ang^3
#
#
#
# Elastic Constant Matrix: (Units=GPa)
#
#
# Indices 1 2 3 4 5 6 
#
# 1 89.5405 45.4648 43.1376 -0.0001 0.0000 0.0000
# 2 45.4648 89.5405 43.1376 0.0001 0.0000 0.0000
# 3 43.1376 43.1376 139.8497 0.0000 0.0000 0.0000
# 4 -0.0001 0.0001 0.0000 16.1609 0.0000 0.0000
# 5 0.0000 0.0000 0.0000 0.0000 16.1609 -0.0001
# 6 0.0000 0.0000 0.0000 0.0000 -0.0001 22.0378
#
#
#
# Elastic Compliance Matrix: (Units=1/GPa)
#
#
# Indices 1 2 3 4 5 6 
#
# 1 0.015957 -0.006731 -0.002846 0.000000 0.000000 0.000000
# 2 -0.006731 0.015957 -0.002846 0.000000 0.000000 0.000000
# 3 -0.002846 -0.002846 0.008906 0.000000 0.000000 0.000000
# 4 0.000000 0.000000 0.000000 0.061878 0.000000 0.000000
# 5 0.000000 0.000000 0.000000 0.000000 0.061878 0.000000
# 6 0.000000 0.000000 0.000000 0.000000 0.000000 0.045377
#
#
# Mechanical properties :
#
#
# Convention : Reuss Voigt Hill
#
# Bulk Modulus (GPa) = 62.59953 64.71229 63.65591
# Shear Modulus (GPa) = 20.82270 23.35130 22.08700
#
# Velocity S-wave (km/s) = 3.66702 3.88329 3.77670
# Velocity P-wave (km/s) = 7.63906 7.86746 7.75410
#
# Compressibility (1/GPa) = 0.01597456
#
# Stress axis : x y z
#
# Youngs Moduli (GPa) = 62.66856 62.66856 112.28261
#
# Poissons Ratio (x) = 0.42184 0.31953
# Poissons Ratio (y) = 0.42184 0.31953
# Poissons Ratio (z) = 0.17834 0.17834
#
# Static dielectric constant tensor:
#      x y z
#    x 2.582270 0.000000 0.000000 
#    y 0.000000 2.582270 0.000000 
#    z 0.000000 0.000000 3.209510 
# 
# 
# High freq. dielectric constant tensor:
#      x y z
#    x 1.566650 0.000000 0.000000 
#    y 0.000000 1.566650 0.000000 
#    z 0.000000 0.000000 1.613710 
# 
# From -- ./inp_files/2104.got.cif
#   From: 2010.03.12/outbox.cif.g09.slc.cpg/sg188_2_cif.got.tgz:2104.got - 2010.04.01 12:01:06.
