data_PCOD8327405
_publ_section_title
;
Structure prediction by ZEFSAII (Michael W. Deem and Ramdas Pophale) SiO2 
 PCOD8327405
Probable space group: P -6 C 2
;
_chemical_formula_sum "Si O2"
_cell_formula_units_Z 66
_cell_length_a 20.082614
_cell_length_b 20.082614
_cell_length_c 9.314734
_cell_angle_alpha 90.000000
_cell_angle_beta 90.000000
_cell_angle_gamma 120.000000
_cell_volume 3253.430778
_symmetry_space_group_name_H-M "P -6 C 2"
_symmetry_group_IT_number 188
_symmetry_cell_setting 'hexagonal'
loop_
_space_group_symop_operation_xyz
x,y,z
-x+y,-x,1/2-z
-y,x-y,z
x,y,1/2-z
-x+y,-x,z
-y,x-y,1/2-z
-y,-x,-z
-x+y,y,-z
x,x-y,-z
-x+y,y,1/2+z
x,x-y,1/2+z
-y,-x,1/2+z
loop_
_atom_site_type_symbol
_atom_site_label
_atom_site_fract_x
_atom_site_fract_y
_atom_site_fract_z
Si Si1 0.115177 0.118493 0.590063
Si Si2 0.869065 0.738129 0.500000
Si Si3 0.377856 0.079332 0.592829
Si Si4 0.545823 0.208884 0.586740
Si Si5 0.202838 0.669055 0.917814
Si Si6 0.023728 0.444277 0.083961
O O1 0.082123 0.107490 0.750000
O O2 0.084205 0.168409 0.500000
O O3 0.207500 0.151886 0.598026
O O4 0.078332 0.039166 0.500000
O O5 0.790062 0.688093 0.584115
O O6 0.371760 0.042457 0.750000
O O7 0.455004 0.159795 0.578564
O O8 0.377571 0.020465 0.475618
O O9 0.575747 0.225566 0.750000
O O10 0.582147 0.164294 0.500000
O O11 0.574814 0.287407 0.500000
O O12 0.226069 0.675750 0.750000
O O13 0.113245 0.640540 0.934321
O O14 0.249321 0.750680 0.000000
O O15 0.224413 0.612207 0.000000
O O16 0.001278 0.443646 0.250000
O O17 0.001184 0.500592 0.000000
#
# Coordination Sequence:
#
# PCOD8327405 Si02
#       6
#    12   6  12  12  12  12
#     4  10  21  37  62  90 122 155 196 247 305 369
#     4  10  24  42  66  92 126 158 208 252 318 380
#     4  11  23  41  64  90 120 161 205 254 312 373
#     4  11  23  39  59  86 118 156 200 250 306 360
#     4  10  20  35  57  87 122 161 204 252 304 357
#     4  10  22  39  61  89 122 163 210 256 305 368
#
# _framework density 20.286276999999998
#
# number of rings (size 3 to 8) (size 9 to 14) (size 15 to 20)
#    0.545    1.091    0.909    3.818    0.000    6.545 
#    0.000    0.909    0.000    0.000    0.000    0.000 
#    0.000    0.000    0.000    0.000    0.000    0.000 
#
# Total GULP energy -817675.951046 kJ/mol
# GULP energy per Si atom -12389.029561 kJ/mol
# Density = 2.024010 g / cm^3
# Si number density = 20.286277 Si / 1000 Ang^3
#
#
#
# Elastic Constant Matrix: (Units=GPa)
#
#
# Indices 1 2 3 4 5 6 
#
# 1 100.8182 39.2189 60.9690 0.0000 0.0000 0.0000
# 2 39.2189 100.8182 60.9690 0.0000 0.0000 0.0000
# 3 60.9690 60.9690 196.0439 0.0000 0.0000 0.0000
# 4 0.0000 0.0000 0.0000 28.1896 0.0000 0.0000
# 5 0.0000 0.0000 0.0000 0.0000 28.1896 0.0000
# 6 0.0000 0.0000 0.0000 0.0000 0.0000 30.7996
#
#
#
# Elastic Compliance Matrix: (Units=1/GPa)
#
#
# Indices 1 2 3 4 5 6 
#
# 1 0.013013 -0.003221 -0.003046 0.000000 0.000000 0.000000
# 2 -0.003221 0.013013 -0.003046 0.000000 0.000000 0.000000
# 3 -0.003046 -0.003046 0.006995 0.000000 0.000000 0.000000
# 4 0.000000 0.000000 0.000000 0.035474 0.000000 0.000000
# 5 0.000000 0.000000 0.000000 0.000000 0.035474 0.000000
# 6 0.000000 0.000000 0.000000 0.000000 0.000000 0.032468
#
#
# Mechanical properties :
#
#
# Convention : Reuss Voigt Hill
#
# Bulk Modulus (GPa) = 69.45036 79.99937 74.72487
# Shear Modulus (GPa) = 31.27719 33.20401 32.24060
#
# Velocity S-wave (km/s) = 3.93082 4.05009 3.99090
# Velocity P-wave (km/s) = 7.41022 7.83529 7.62572
#
# Compressibility (1/GPa) = 0.01439877
#
# Stress axis : x y z
#
# Youngs Moduli (GPa) = 76.84371 76.84371 142.95478
#
# Poissons Ratio (x) = 0.24748 0.43538
# Poissons Ratio (y) = 0.24748 0.43538
# Poissons Ratio (z) = 0.23403 0.23403
#
# Static dielectric constant tensor:
#      x y z
#    x 3.561850 0.000000 0.000000 
#    y 0.000000 3.561850 0.000000 
#    z 0.000000 0.000000 3.819240 
# 
# 
# High freq. dielectric constant tensor:
#      x y z
#    x 1.782360 0.000000 0.000000 
#    y 0.000000 1.782360 0.000000 
#    z 0.000000 0.000000 1.806710 
# 
# From -- ./inp_files/800.got.cif
#   From: 2010.03.12/outbox.cif.g09.slc.cpg/sg188_1_cif.got.tgz:800.got - 2010.04.01 12:01:06.
