data_PCOD8327337
_publ_section_title
;
Structure prediction by ZEFSAII (Michael W. Deem and Ramdas Pophale) SiO2 
 PCOD8327337
Probable space group: P -6 C 2
;
_chemical_formula_sum "Si O2"
_cell_formula_units_Z 54
_cell_length_a 12.311772
_cell_length_b 12.311772
_cell_length_c 23.324178
_cell_angle_alpha 90.000000
_cell_angle_beta 90.000000
_cell_angle_gamma 120.000000
_cell_volume 3061.809085
_symmetry_space_group_name_H-M "P -6 C 2"
_symmetry_group_IT_number 188
_symmetry_cell_setting 'hexagonal'
loop_
_space_group_symop_operation_xyz
x,y,z
-x+y,-x,1/2-z
-y,x-y,z
x,y,1/2-z
-x+y,-x,z
-y,x-y,1/2-z
-y,-x,-z
-x+y,y,-z
x,x-y,-z
-x+y,y,1/2+z
x,x-y,1/2+z
-y,-x,1/2+z
loop_
_atom_site_type_symbol
_atom_site_label
_atom_site_fract_x
_atom_site_fract_y
_atom_site_fract_z
Si Si1 0.666668 0.333334 0.931682
Si Si2 0.653302 0.105621 0.625856
Si Si3 0.064249 0.579725 0.063764
Si Si4 0.000000 0.000000 0.432872
Si Si5 0.906124 0.722195 0.064341
Si Si6 0.809006 0.340093 0.250000
Si Si7 0.333335 0.666668 0.066715
O O1 0.582362 0.386257 0.906738
O O2 0.666668 0.333334 0.000000
O O3 0.787238 0.130812 0.605697
O O4 0.656522 0.114565 0.694296
O O5 0.536097 0.974662 0.607416
O O6 0.207648 0.669321 0.084371
O O7 0.991933 0.658161 0.069323
O O8 0.050184 0.525092 0.000000
O O9 0.982841 0.866092 0.413283
O O10 0.000000 0.000000 0.500000
O O11 0.855550 0.711099 0.000000
O O12 0.672676 0.212834 0.250000
O O13 0.333334 0.666667 0.000000
#
# Coordination Sequence:
#
# PCOD8327337 Si02
#       7
#     4  12  12   4  12   6   4
#     4  12  18  28  47  88 114 135 175 215 283 318
#     4  12  20  32  54  83 113 147 179 235 277 323
#     4  11  21  34  55  83 116 148 184 230 281 341
#     4   9  24  36  51  79 119 157 183 219 280 353
#     4  11  21  34  55  83 116 148 184 230 281 341
#     4  10  18  34  50  76 120 146 182 228 282 334
#     4   9  24  36  51  79 119 157 183 219 280 353
#
# _framework density 17.636633
#
# number of rings (size 3 to 8) (size 9 to 14) (size 15 to 20)
#    0.222    0.889    6.667    1.333    3.111    2.667 
#    0.000    0.000    0.000    2.667    0.000    0.000 
#    0.000    0.000    0.000    0.000    0.000    0.000 
#
# Total GULP energy -669115.181411 kJ/mol
# GULP energy per Si atom -12391.021878 kJ/mol
# Density = 1.759649 g / cm^3
# Si number density = 17.636633 Si / 1000 Ang^3
#
#
#
# Elastic Constant Matrix: (Units=GPa)
#
#
# Indices 1 2 3 4 5 6 
#
# 1 138.7712 44.3387 30.2240 0.0011 0.0000 -0.0021
# 2 44.3387 138.7703 30.2242 -0.0011 0.0006 0.0016
# 3 30.2240 30.2242 119.8280 0.0004 0.0001 -0.0002
# 4 0.0011 -0.0011 0.0004 14.1255 0.0002 -0.0003
# 5 0.0000 0.0006 0.0001 0.0002 14.1250 -0.0010
# 6 -0.0021 0.0016 -0.0002 -0.0003 -0.0010 47.2162
#
#
#
# Elastic Compliance Matrix: (Units=1/GPa)
#
#
# Indices 1 2 3 4 5 6 
#
# 1 0.008273 -0.002316 -0.001503 -0.000001 0.000000 0.000000
# 2 -0.002316 0.008273 -0.001503 0.000001 0.000000 0.000000
# 3 -0.001503 -0.001503 0.009103 0.000000 0.000000 0.000000
# 4 -0.000001 0.000001 0.000000 0.070794 -0.000001 0.000000
# 5 0.000000 0.000000 0.000000 -0.000001 0.070796 0.000001
# 6 0.000000 0.000000 0.000000 0.000000 0.000001 0.021179
#
#
# Mechanical properties :
#
#
# Convention : Reuss Voigt Hill
#
# Bulk Modulus (GPa) = 66.63369 67.43816 67.03593
# Shear Modulus (GPa) = 24.50204 34.59886 29.55045
#
# Velocity S-wave (km/s) = 3.73133 4.43398 4.09775
# Velocity P-wave (km/s) = 7.51181 8.03332 7.77693
#
# Compressibility (1/GPa) = 0.01500742
#
# Stress axis : x y z
#
# Youngs Moduli (GPa) = 120.86919 120.86829 109.85035
#
# Poissons Ratio (x) = 0.27995 0.16506
# Poissons Ratio (y) = 0.27996 0.16506
# Poissons Ratio (z) = 0.18162 0.18162
#
# Static dielectric constant tensor:
#      x y z
#    x 2.674980 0.000080 0.000000 
#    y 0.000080 2.674930 -0.000010 
#    z 0.000000 -0.000010 2.946960 
# 
# 
# High freq. dielectric constant tensor:
#      x y z
#    x 1.684470 0.000000 0.000000 
#    y 0.000000 1.684470 0.000000 
#    z 0.000000 0.000000 1.644050 
# 
# From -- ./inp_files/4047.got.cif
#   From: 2010.03.12/outbox.cif.g09.slc.cpg/sg188_3_cif.got.tgz:4047.got - 2010.04.01 12:01:06.
