data_PCOD8327730
_publ_section_title
;
Structure prediction by ZEFSAII (Michael W. Deem and Ramdas Pophale) SiO2 
 PCOD8327730
Probable space group: P -6 2 M
;
_chemical_formula_sum "Si O2"
_cell_formula_units_Z 66
_cell_length_a 20.318499
_cell_length_b 20.318499
_cell_length_c 10.423223
_cell_angle_alpha 90.000000
_cell_angle_beta 90.000000
_cell_angle_gamma 120.000000
_cell_volume 3726.626818
_symmetry_space_group_name_H-M "P -6 2 M"
_symmetry_group_IT_number 189
_symmetry_cell_setting 'hexagonal'
loop_
_space_group_symop_operation_xyz
x,y,z
-x+y,-x,-z
-y,x-y,z
x,y,-z
-x+y,-x,z
-y,x-y,-z
x-y,-y,-z
-x,-x+y,-z
y,x,-z
y,x,z
x-y,-y,z
-x,-x+y,z
loop_
_atom_site_type_symbol
_atom_site_label
_atom_site_fract_x
_atom_site_fract_y
_atom_site_fract_z
Si Si1 0.808474 0.720829 0.649618
Si Si2 0.297397 0.465152 0.777340
Si Si3 0.453728 0.541492 0.647652
Si Si4 0.255400 0.677564 0.000000
Si Si5 0.707391 0.551714 0.648100
Si Si6 0.910938 0.707292 0.145865
O O1 0.832064 0.719069 0.500000
O O2 0.783986 0.783986 0.667092
O O3 0.738702 0.638779 0.691700
O O4 0.877570 0.740729 0.747409
O O5 0.375392 0.481887 0.713571
O O6 0.242170 0.471457 0.674235
O O7 0.258286 0.382756 0.841295
O O8 0.316920 0.530530 0.877204
O O9 0.434058 0.543857 0.500000
O O10 0.513126 0.513126 0.667310
O O11 0.493423 0.625964 0.712390
O O12 0.253735 0.596909 0.000000
O O13 0.689356 0.546143 0.500000
O O14 0.000000 0.747171 0.172262
O O15 0.894566 0.724161 0.000000
#
# Coordination Sequence:
#
# PCOD8327730 Si02
#       6
#    12  12  12   6  12  12
#     4   9  18  34  58  85 112 142 177 222 276 333
#     4  11  19  35  52  73 101 142 183 225 273 327
#     4  10  20  33  51  76 104 134 172 222 278 332
#     4  10  22  34  49  70  98 142 187 234 270 312
#     4   9  18  32  52  76 104 134 172 220 273 328
#     4  10  21  36  55  81 112 147 185 227 274 330
#
# _framework density 17.710384999999999
#
# number of rings (size 3 to 8) (size 9 to 14) (size 15 to 20)
#    0.182    2.000    0.909    2.727    0.000    3.636 
#    1.091    0.000    0.000    0.364    0.000    0.000 
#    0.000    0.000    0.000    0.000    0.000    0.000 
#
# Total GULP energy -818052.846908 kJ/mol
# GULP energy per Si atom -12394.740105 kJ/mol
# Density = 1.767008 g / cm^3
# Si number density = 17.710385 Si / 1000 Ang^3
#
#
#
# Elastic Constant Matrix: (Units=GPa)
#
#
# Indices 1 2 3 4 5 6 
#
# 1 82.9128 27.9179 42.7792 0.0000 0.0000 0.0000
# 2 27.9179 82.9128 42.7792 0.0000 0.0000 0.0000
# 3 42.7792 42.7792 66.8748 0.0000 0.0000 0.0000
# 4 0.0000 0.0000 0.0000 29.3405 0.0000 0.0000
# 5 0.0000 0.0000 0.0000 0.0000 29.3405 0.0000
# 6 0.0000 0.0000 0.0000 0.0000 0.0000 27.4974
#
#
#
# Elastic Compliance Matrix: (Units=1/GPa)
#
#
# Indices 1 2 3 4 5 6 
#
# 1 0.018004 -0.000179 -0.011403 0.000000 0.000000 0.000000
# 2 -0.000179 0.018004 -0.011403 0.000000 0.000000 0.000000
# 3 -0.011403 -0.011403 0.029542 0.000000 0.000000 0.000000
# 4 0.000000 0.000000 0.000000 0.034083 0.000000 0.000000
# 5 0.000000 0.000000 0.000000 0.000000 0.034083 0.000000
# 6 0.000000 0.000000 0.000000 0.000000 0.000000 0.036367
#
#
# Mechanical properties :
#
#
# Convention : Reuss Voigt Hill
#
# Bulk Modulus (GPa) = 51.06835 51.07254 51.07045
# Shear Modulus (GPa) = 22.46394 25.18397 23.82396
#
# Velocity S-wave (km/s) = 3.56533 3.77502 3.67167
# Velocity P-wave (km/s) = 6.77101 6.92107 6.84645
#
# Compressibility (1/GPa) = 0.01958160
#
# Stress axis : x y z
#
# Youngs Moduli (GPa) = 55.54186 55.54186 33.85044
#
# Poissons Ratio (x) = 0.00995 0.38599
# Poissons Ratio (y) = 0.00995 0.38599
# Poissons Ratio (z) = 0.63333 0.63333
#
# Static dielectric constant tensor:
#      x y z
#    x 3.261180 0.000000 0.000000 
#    y 0.000000 3.261180 0.000000 
#    z 0.000000 0.000000 3.498720 
# 
# 
# High freq. dielectric constant tensor:
#      x y z
#    x 1.681880 0.000000 0.000000 
#    y 0.000000 1.681880 0.000000 
#    z 0.000000 0.000000 1.677590 
# 
# From -- ./inp_files/1056.got.cif
#   From: 2010.03.12/outbox.cif.g09.slc.cpg/sg189_1_cif.got.tgz:1056.got - 2010.04.01 12:03:36.
