data_PCOD8327647
_publ_section_title
;
Structure prediction by ZEFSAII (Michael W. Deem and Ramdas Pophale) SiO2 
 PCOD8327647
Probable space group: P -6 2 M
;
_chemical_formula_sum "Si O2"
_cell_formula_units_Z 52
_cell_length_a 12.587657
_cell_length_b 12.587657
_cell_length_c 20.050371
_cell_angle_alpha 90.000000
_cell_angle_beta 90.000000
_cell_angle_gamma 120.000000
_cell_volume 2751.331024
_symmetry_space_group_name_H-M "P -6 2 M"
_symmetry_group_IT_number 189
_symmetry_cell_setting 'hexagonal'
loop_
_space_group_symop_operation_xyz
x,y,z
-x+y,-x,-z
-y,x-y,z
x,y,-z
-x+y,-x,z
-y,x-y,-z
x-y,-y,-z
-x,-x+y,-z
y,x,-z
y,x,z
x-y,-y,z
-x,-x+y,z
loop_
_atom_site_type_symbol
_atom_site_label
_atom_site_fract_x
_atom_site_fract_y
_atom_site_fract_z
Si Si1 0.252831 0.506780 0.500000
Si Si2 0.140170 0.859686 0.755529
Si Si3 0.333334 0.666667 0.920724
Si Si4 0.720665 0.142475 0.122851
Si Si5 0.711307 0.855992 0.602134
Si Si6 0.859074 0.144464 0.000000
O O1 0.194273 0.597624 0.500000
O O2 0.208098 0.418328 0.435860
O O3 0.175380 0.780064 0.803565
O O4 0.161111 0.835432 0.679496
O O5 0.000000 0.824711 0.767177
O O6 0.223764 0.000000 0.775494
O O7 0.434222 0.796021 0.890142
O O8 0.333334 0.666668 0.000000
O O9 0.826028 0.193783 0.066327
O O10 0.629829 0.000000 0.114478
O O11 0.792481 0.792481 0.584413
O O12 0.790715 0.000000 0.582608
O O13 0.000000 0.188131 0.000000
O O14 0.788800 0.000000 0.000000
#
# Coordination Sequence:
#
# PCOD8327647 Si02
#       6
#     6  12   4  12  12   6
#     4  10  24  42  56  80 118 168 206 236 280 340
#     4   9  18  35  59  90 121 149 180 228 291 347
#     4  12  24  42  60  78 105 151 191 244 297 330
#     4  10  22  39  56  81 113 145 189 234 279 341
#     4  10  20  37  64  94 121 149 190 246 303 352
#     4  10  19  32  54  82 113 146 184 228 276 332
#
# _framework density 18.899944000000001
#
# number of rings (size 3 to 8) (size 9 to 14) (size 15 to 20)
#    0.231    1.846    1.154    1.962    0.000    5.538 
#    4.154    3.462    0.000    0.000    0.000    0.000 
#    0.000    0.000    0.000    0.000    0.000    0.000 
#
# Total GULP energy -644667.072637 kJ/mol
# GULP energy per Si atom -12397.443705 kJ/mol
# Density = 1.885693 g / cm^3
# Si number density = 18.899944 Si / 1000 Ang^3
#
#
#
# Elastic Constant Matrix: (Units=GPa)
#
#
# Indices 1 2 3 4 5 6 
#
# 1 107.5954 52.1873 59.0216 0.0000 0.0000 0.0001
# 2 52.1873 107.5959 59.0217 0.0000 0.0001 -0.0001
# 3 59.0216 59.0217 125.8020 0.0000 0.0000 0.0000
# 4 0.0000 0.0000 0.0000 30.4830 0.0000 0.0000
# 5 0.0000 0.0001 0.0000 0.0000 30.4831 0.0000
# 6 0.0001 -0.0001 0.0000 0.0000 0.0000 27.7042
#
#
#
# Elastic Compliance Matrix: (Units=1/GPa)
#
#
# Indices 1 2 3 4 5 6 
#
# 1 0.013813 -0.004235 -0.004494 0.000000 0.000000 0.000000
# 2 -0.004235 0.013813 -0.004494 0.000000 0.000000 0.000000
# 3 -0.004494 -0.004494 0.012166 0.000000 0.000000 0.000000
# 4 0.000000 0.000000 0.000000 0.032805 0.000000 0.000000
# 5 0.000000 0.000000 0.000000 0.000000 0.032805 0.000000
# 6 0.000000 0.000000 0.000000 0.000000 0.000000 0.036096
#
#
# Mechanical properties :
#
#
# Convention : Reuss Voigt Hill
#
# Bulk Modulus (GPa) = 74.92228 75.71716 75.31972
# Shear Modulus (GPa) = 29.00372 29.11823 29.06097
#
# Velocity S-wave (km/s) = 3.92164 3.92937 3.92551
# Velocity P-wave (km/s) = 7.76101 7.79331 7.77718
#
# Compressibility (1/GPa) = 0.01334716
#
# Stress axis : x y z
#
# Youngs Moduli (GPa) = 72.39475 72.39511 82.19834
#
# Poissons Ratio (x) = 0.30657 0.36939
# Poissons Ratio (y) = 0.30657 0.36939
# Poissons Ratio (z) = 0.32533 0.32533
#
# Static dielectric constant tensor:
#      x y z
#    x 3.353470 0.000000 0.000000 
#    y 0.000000 3.353460 0.000000 
#    z 0.000000 0.000000 3.675020 
# 
# 
# High freq. dielectric constant tensor:
#      x y z
#    x 1.726110 0.000000 0.000000 
#    y 0.000000 1.726110 0.000000 
#    z 0.000000 0.000000 1.747640 
# 
# From -- ./inp_files/3366.got.cif
#   From: 2010.03.12/outbox.cif.g09.slc.cpg/sg189_2_cif.got.tgz:3366.got - 2010.04.01 12:03:36.
