data_PCOD8327728
_publ_section_title
;
Structure prediction by ZEFSAII (Michael W. Deem and Ramdas Pophale) SiO2 
 PCOD8327728
Probable space group: P -6 2 M
;
_chemical_formula_sum "Si O2"
_cell_formula_units_Z 84
_cell_length_a 13.795505
_cell_length_b 13.795505
_cell_length_c 24.391241
_cell_angle_alpha 90.000000
_cell_angle_beta 90.000000
_cell_angle_gamma 120.000000
_cell_volume 4020.126646
_symmetry_space_group_name_H-M "P -6 2 M"
_symmetry_group_IT_number 189
_symmetry_cell_setting 'hexagonal'
loop_
_space_group_symop_operation_xyz
x,y,z
-x+y,-x,-z
-y,x-y,z
x,y,-z
-x+y,-x,z
-y,x-y,-z
x-y,-y,-z
-x,-x+y,-z
y,x,-z
y,x,z
x-y,-y,z
-x,-x+y,z
loop_
_atom_site_type_symbol
_atom_site_label
_atom_site_fract_x
_atom_site_fract_y
_atom_site_fract_z
Si Si1 0.664954 0.537194 0.559572
Si Si2 0.124255 0.588597 0.654535
Si Si3 0.321339 0.872660 0.935824
Si Si4 0.536544 0.868059 0.764024
Si Si5 0.316057 0.195347 0.385748
Si Si6 0.129604 0.655732 0.886875
Si Si7 0.746379 0.871283 0.733584
O O1 0.670820 0.486704 0.500000
O O2 0.566035 0.566035 0.556180
O O3 0.637899 0.449809 0.610534
O O4 0.782184 0.651074 0.569898
O O5 0.182087 0.624005 0.715486
O O6 0.118135 0.691462 0.630037
O O7 0.000000 0.481921 0.662093
O O8 0.207122 0.784165 0.905632
O O9 0.419603 0.844739 0.923528
O O10 0.360959 0.000000 0.916326
O O11 0.297686 0.860462 0.000000
O O12 0.481783 0.841743 0.824130
O O13 0.622753 0.821059 0.759887
O O14 0.610221 0.000000 0.751731
O O15 0.227183 0.227183 0.411511
O O16 0.262850 0.120699 0.331977
O O17 0.000000 0.624151 0.892175
O O18 0.798870 0.798870 0.757241
O O19 0.826599 0.000000 0.750730
#
# Coordination Sequence:
#
# PCOD8327728 Si02
#       7
#    12  12  12  12  12  12  12
#     4  10  20  33  51  75 100 130 173 219 264 325
#     4   8  16  34  53  69  96 131 167 213 266 316
#     4  10  21  36  57  88 121 155 201 248 290 346
#     4   8  16  32  52  75 108 145 182 227 278 334
#     4   9  18  33  52  73  99 133 170 213 269 324
#     4  10  20  37  60  86 119 158 198 246 302 354
#     4   9  16  28  49  77 109 146 186 226 269 324
#
# _framework density 20.894863999999998
#
# number of rings (size 3 to 8) (size 9 to 14) (size 15 to 20)
#    0.000    2.857    0.000    3.000    0.000    2.286 
#    6.000    1.429    0.000    0.571    0.000    0.000 
#    0.000    0.000    0.000    0.000    0.000    0.000 
#
# Total GULP energy -1040796.112714 kJ/mol
# GULP energy per Si atom -12390.429913 kJ/mol
# Density = 2.084731 g / cm^3
# Si number density = 20.894864 Si / 1000 Ang^3
#
#
#
# Elastic Constant Matrix: (Units=GPa)
#
#
# Indices 1 2 3 4 5 6 
#
# 1 69.8240 22.6396 30.4796 0.0000 0.0000 0.0000
# 2 22.6396 69.8240 30.4796 0.0000 0.0000 0.0000
# 3 30.4796 30.4796 113.0400 0.0000 0.0000 0.0000
# 4 0.0000 0.0000 0.0000 19.1123 0.0000 0.0000
# 5 0.0000 0.0000 0.0000 0.0000 19.1123 0.0000
# 6 0.0000 0.0000 0.0000 0.0000 0.0000 23.5922
#
#
#
# Elastic Compliance Matrix: (Units=1/GPa)
#
#
# Indices 1 2 3 4 5 6 
#
# 1 0.017173 -0.004020 -0.003547 0.000000 0.000000 0.000000
# 2 -0.004020 0.017173 -0.003547 0.000000 0.000000 0.000000
# 3 -0.003547 -0.003547 0.010759 0.000000 0.000000 0.000000
# 4 0.000000 0.000000 0.000000 0.052322 0.000000 0.000000
# 5 0.000000 0.000000 0.000000 0.000000 0.052322 0.000000
# 6 0.000000 0.000000 0.000000 0.000000 0.000000 0.042387
#
#
# Mechanical properties :
#
#
# Convention : Reuss Voigt Hill
#
# Bulk Modulus (GPa) = 43.70789 46.65395 45.18092
# Shear Modulus (GPa) = 22.52355 23.63600 23.07977
#
# Velocity S-wave (km/s) = 3.28677 3.36696 3.32711
# Velocity P-wave (km/s) = 5.94704 6.12304 6.03568
#
# Compressibility (1/GPa) = 0.02287917
#
# Stress axis : x y z
#
# Youngs Moduli (GPa) = 58.22980 58.22980 92.94552
#
# Poissons Ratio (x) = 0.23409 0.32964
# Poissons Ratio (y) = 0.23409 0.32964
# Poissons Ratio (z) = 0.20652 0.20652
#
# Static dielectric constant tensor:
#      x y z
#    x 3.696700 0.000000 0.000000 
#    y 0.000000 3.696700 0.000000 
#    z 0.000000 0.000000 3.847350 
# 
# 
# High freq. dielectric constant tensor:
#      x y z
#    x 1.799900 0.000000 0.000000 
#    y 0.000000 1.799900 0.000000 
#    z 0.000000 0.000000 1.809440 
# 
# From -- ./inp_files/3611.got.cif
#   From: 2010.03.12/outbox.cif.g09.slc.cpg/sg189_2_cif.got.tgz:3611.got - 2010.04.01 12:03:36.
