data_PCOD8327680
_publ_section_title
;
Structure prediction by ZEFSAII (Michael W. Deem and Ramdas Pophale) SiO2 
 PCOD8327680
Probable space group: P -6 2 M
;
_chemical_formula_sum "Si O2"
_cell_formula_units_Z 84
_cell_length_a 19.778435
_cell_length_b 19.778435
_cell_length_c 13.280391
_cell_angle_alpha 90.000000
_cell_angle_beta 90.000000
_cell_angle_gamma 120.000000
_cell_volume 4499.096850
_symmetry_space_group_name_H-M "P -6 2 M"
_symmetry_group_IT_number 189
_symmetry_cell_setting 'hexagonal'
loop_
_space_group_symop_operation_xyz
x,y,z
-x+y,-x,-z
-y,x-y,z
x,y,-z
-x+y,-x,z
-y,x-y,-z
x-y,-y,-z
-x,-x+y,-z
y,x,-z
y,x,z
x-y,-y,z
-x,-x+y,z
loop_
_atom_site_type_symbol
_atom_site_label
_atom_site_fract_x
_atom_site_fract_y
_atom_site_fract_z
Si Si1 0.908245 0.465828 0.387249
Si Si2 0.088710 0.229798 0.890332
Si Si3 0.412781 0.199191 0.886439
Si Si4 0.819097 0.664392 0.386880
Si Si5 0.828218 0.915609 0.318587
Si Si6 0.335104 0.907612 0.262897
Si Si7 0.598301 0.906961 0.735209
O O1 0.870536 0.446140 0.500000
O O2 0.880176 0.388351 0.321462
O O3 0.883937 0.520944 0.328255
O O4 0.000000 0.508415 0.400001
O O5 0.141394 0.321397 0.882964
O O6 0.110518 0.191334 0.799553
O O7 0.000000 0.210891 0.877243
O O8 0.100629 0.200226 0.000000
O O9 0.449973 0.151504 0.832229
O O10 0.429469 0.280430 0.833891
O O11 0.445632 0.219333 0.000000
O O12 0.808859 0.633466 0.500000
O O13 0.851984 0.756447 0.383053
O O14 0.735270 0.626363 0.336176
O O15 0.883282 0.650556 0.331546
O O16 0.898633 0.898633 0.327271
O O17 0.856094 0.000000 0.365370
O O18 0.383759 0.000000 0.232511
O O19 0.647403 0.000000 0.762469
#
# Coordination Sequence:
#
# PCOD8327680 Si02
#       7
#    12  12  12  12  12  12  12
#     4   9  18  33  55  81 109 138 166 208 267 324
#     4   9  17  31  51  73  99 136 184 235 284 326
#     4  10  20  33  53  81 113 147 181 223 272 322
#     4  11  22  34  53  78 105 140 184 233 280 334
#     4  11  22  35  48  69 102 144 193 243 292 335
#     4  10  19  34  56  83 110 137 176 224 275 330
#     4  10  20  35  54  80 111 142 179 222 271 328
#
# _framework density 18.670414000000001
#
# number of rings (size 3 to 8) (size 9 to 14) (size 15 to 20)
#    0.000    2.000    2.857    2.286    0.000    4.857 
#    0.000    2.143    0.000    8.857    0.000    8.000 
#    0.000    0.000    0.000    0.000    0.000    0.000 
#
# Total GULP energy -1041055.218330 kJ/mol
# GULP energy per Si atom -12393.514504 kJ/mol
# Density = 1.862792 g / cm^3
# Si number density = 18.670414 Si / 1000 Ang^3
#
#
#
# Elastic Constant Matrix: (Units=GPa)
#
#
# Indices 1 2 3 4 5 6 
#
# 1 69.5353 29.6187 37.0428 0.0000 0.0000 0.0000
# 2 29.6187 69.5353 37.0428 0.0000 0.0000 0.0000
# 3 37.0428 37.0428 133.2678 0.0000 0.0000 0.0000
# 4 0.0000 0.0000 0.0000 14.6798 0.0000 0.0000
# 5 0.0000 0.0000 0.0000 0.0000 14.6798 0.0000
# 6 0.0000 0.0000 0.0000 0.0000 0.0000 19.9583
#
#
#
# Elastic Compliance Matrix: (Units=1/GPa)
#
#
# Indices 1 2 3 4 5 6 
#
# 1 0.018891 -0.006162 -0.003538 0.000000 0.000000 0.000000
# 2 -0.006162 0.018891 -0.003538 0.000000 0.000000 0.000000
# 3 -0.003538 -0.003538 0.009471 0.000000 0.000000 0.000000
# 4 0.000000 0.000000 0.000000 0.068121 0.000000 0.000000
# 5 0.000000 0.000000 0.000000 0.000000 0.068121 0.000000
# 6 0.000000 0.000000 0.000000 0.000000 0.000000 0.050104
#
#
# Mechanical properties :
#
#
# Convention : Reuss Voigt Hill
#
# Bulk Modulus (GPa) = 48.13246 53.30521 50.71883
# Shear Modulus (GPa) = 18.72671 21.10588 19.91630
#
# Velocity S-wave (km/s) = 3.17048 3.36586 3.26963
# Velocity P-wave (km/s) = 6.26407 6.61195 6.44036
#
# Compressibility (1/GPa) = 0.02077600
#
# Stress axis : x y z
#
# Youngs Moduli (GPa) = 52.93652 52.93652 105.59033
#
# Poissons Ratio (x) = 0.32618 0.37359
# Poissons Ratio (y) = 0.32618 0.37359
# Poissons Ratio (z) = 0.18729 0.18729
#
# Static dielectric constant tensor:
#      x y z
#    x 3.315240 0.000000 0.000000 
#    y 0.000000 3.315240 0.000000 
#    z 0.000000 0.000000 3.964140 
# 
# 
# High freq. dielectric constant tensor:
#      x y z
#    x 1.706670 0.000000 0.000000 
#    y 0.000000 1.706670 0.000000 
#    z 0.000000 0.000000 1.731430 
# 
# From -- ./inp_files/2798.got.cif
#   From: 2010.03.12/outbox.cif.g09.slc.cpg/sg189_2_cif.got.tgz:2798.got - 2010.04.01 12:03:36.
