data_PCOD8327356
_publ_section_title
;
Structure prediction by ZEFSAII (Michael W. Deem and Ramdas Pophale) SiO2 
 PCOD8327356
Probable space group: P -6 C 2
;
_chemical_formula_sum "Si O2"
_cell_formula_units_Z 72
_cell_length_a 22.905616
_cell_length_b 22.905616
_cell_length_c 9.178877
_cell_angle_alpha 90.000000
_cell_angle_beta 90.000000
_cell_angle_gamma 120.000000
_cell_volume 4170.653725
_symmetry_space_group_name_H-M "P -6 C 2"
_symmetry_group_IT_number 188
_symmetry_cell_setting 'hexagonal'
loop_
_space_group_symop_operation_xyz
x,y,z
-x+y,-x,1/2-z
-y,x-y,z
x,y,1/2-z
-x+y,-x,z
-y,x-y,1/2-z
-y,-x,-z
-x+y,y,-z
x,x-y,-z
-x+y,y,1/2+z
x,x-y,1/2+z
-y,-x,1/2+z
loop_
_atom_site_type_symbol
_atom_site_label
_atom_site_fract_x
_atom_site_fract_y
_atom_site_fract_z
Si Si1 0.815494 0.743281 0.918657
Si Si2 0.199773 0.278702 0.078880
Si Si3 0.591154 0.669808 0.580786
Si Si4 0.334746 0.546732 0.421520
Si Si5 0.586019 0.049895 0.422209
Si Si6 0.410334 0.147844 0.580027
O O1 0.830659 0.744288 0.750000
O O2 0.784649 0.790684 0.955601
O O3 0.763752 0.666700 0.968904
O O4 0.886597 0.773194 0.000000
O O5 0.192533 0.287486 0.250000
O O6 0.264531 0.345068 0.012719
O O7 0.132776 0.265551 0.000000
O O8 0.606354 0.668036 0.750000
O O9 0.527541 0.678622 0.550783
O O10 0.581184 0.600015 0.514984
O O11 0.337420 0.563355 0.250000
O O12 0.404609 0.595392 0.500000
O O13 0.277904 0.555808 0.500000
O O14 0.572660 0.044278 0.250000
O O15 0.530991 0.061982 0.500000
O O16 0.658979 0.113041 0.461887
O O17 0.414613 0.162544 0.750000
O O18 0.439544 0.219772 0.500000
#
# Coordination Sequence:
#
# PCOD8327356 Si02
#       6
#    12  12  12  12  12  12
#     4   9  17  31  52  75 102 133 165 203 249 298
#     4  10  19  33  52  76 106 139 170 206 253 303
#     4   9  18  34  53  72 100 135 166 203 258 309
#     4  11  22  36  53  70  91 123 166 213 256 305
#     4  10  19  33  52  76 106 139 170 206 253 303
#     4   9  17  31  52  75 102 133 165 203 249 298
#
# _framework density 17.263480000000001
#
# number of rings (size 3 to 8) (size 9 to 14) (size 15 to 20)
#    0.000    2.333    1.667    1.667    0.000    1.333 
#    0.000    2.500    0.000    0.667    0.000    0.000 
#    0.000    0.000    0.000    0.000    0.000    0.000 
#
# Total GULP energy -892784.951911 kJ/mol
# GULP energy per Si atom -12399.790999 kJ/mol
# Density = 1.722419 g / cm^3
# Si number density = 17.263480 Si / 1000 Ang^3
#
#
#
# Elastic Constant Matrix: (Units=GPa)
#
#
# Indices 1 2 3 4 5 6 
#
# 1 110.9800 60.8569 46.8799 0.0003 0.0000 0.0000
# 2 60.8569 110.9800 46.8799 -0.0003 0.0000 0.0000
# 3 46.8799 46.8799 52.3474 0.0000 0.0000 0.0000
# 4 0.0003 -0.0003 0.0000 27.2997 0.0000 0.0000
# 5 0.0000 0.0000 0.0000 0.0000 27.2997 0.0003
# 6 0.0000 0.0000 0.0000 0.0000 0.0003 25.0615
#
#
#
# Elastic Compliance Matrix: (Units=1/GPa)
#
#
# Indices 1 2 3 4 5 6 
#
# 1 0.015666 -0.004285 -0.010192 0.000000 0.000000 0.000000
# 2 -0.004285 0.015666 -0.010192 0.000000 0.000000 0.000000
# 3 -0.010192 -0.010192 0.037358 0.000000 0.000000 0.000000
# 4 0.000000 0.000000 0.000000 0.036630 0.000000 0.000000
# 5 0.000000 0.000000 0.000000 0.000000 0.036630 0.000000
# 6 0.000000 0.000000 0.000000 0.000000 0.000000 0.039902
#
#
# Mechanical properties :
#
#
# Convention : Reuss Voigt Hill
#
# Bulk Modulus (GPa) = 51.67575 64.83788 58.25681
# Shear Modulus (GPa) = 21.04023 23.91155 22.47589
#
# Velocity S-wave (km/s) = 3.49488 3.72572 3.61214
# Velocity P-wave (km/s) = 6.80324 7.49316 7.15652
#
# Compressibility (1/GPa) = 0.01935144
#
# Stress axis : x y z
#
# Youngs Moduli (GPa) = 63.83383 63.83383 26.76820
#
# Poissons Ratio (x) = 0.27354 0.27282
# Poissons Ratio (y) = 0.27354 0.27282
# Poissons Ratio (z) = 0.65058 0.65058
#
# Static dielectric constant tensor:
#      x y z
#    x 3.224590 0.000000 0.000000 
#    y 0.000000 3.224590 0.000000 
#    z 0.000000 0.000000 3.061420 
# 
# 
# High freq. dielectric constant tensor:
#      x y z
#    x 1.664640 0.000000 0.000000 
#    y 0.000000 1.664640 0.000000 
#    z 0.000000 0.000000 1.648640 
# 
# From -- ./inp_files/1055.got.cif
#   From: 2010.03.12/outbox.cif.g09.slc.cpg/sg188_1_cif.got.tgz:1055.got - 2010.04.01 12:01:06.
