data_PCOD8327877
_publ_section_title
;
Structure prediction by ZEFSAII (Michael W. Deem and Ramdas Pophale) SiO2 
 PCOD8327877
Probable space group: P -6 2 M
;
_chemical_formula_sum "Si O2"
_cell_formula_units_Z 30
_cell_length_a 15.859243
_cell_length_b 15.859243
_cell_length_c 7.525710
_cell_angle_alpha 90.000000
_cell_angle_beta 90.000000
_cell_angle_gamma 120.000000
_cell_volume 1639.241792
_symmetry_space_group_name_H-M "P -6 2 M"
_symmetry_group_IT_number 189
_symmetry_cell_setting 'hexagonal'
loop_
_space_group_symop_operation_xyz
x,y,z
-x+y,-x,-z
-y,x-y,z
x,y,-z
-x+y,-x,z
-y,x-y,-z
x-y,-y,-z
-x,-x+y,-z
y,x,-z
y,x,z
x-y,-y,z
-x,-x+y,z
loop_
_atom_site_type_symbol
_atom_site_label
_atom_site_fract_x
_atom_site_fract_y
_atom_site_fract_z
Si Si1 0.107720 0.891733 0.288840
Si Si2 0.592931 0.707580 0.296284
Si Si3 0.772342 0.329270 0.000000
O O1 0.106345 0.895576 0.500000
O O2 0.183941 0.857552 0.230838
O O3 0.000000 0.817539 0.212953
O O4 0.143351 0.000000 0.214201
O O5 0.562910 0.709019 0.500000
O O6 0.635965 0.635965 0.273709
O O7 0.498166 0.669619 0.176862
O O8 0.764640 0.427595 0.000000
#
# Coordination Sequence:
#
# PCOD8327877 Si02
#       3
#    12  12   6
#     4   8  13  23  44  75 109 143 176 211 256 315
#     4   9  18  35  58  81 109 144 178 217 268 325
#     4  10  23  38  56  78 101 138 180 226 274 314
#
# _framework density 18.301145000000002
#
# number of rings (size 3 to 8) (size 9 to 14) (size 15 to 20)
#    0.400    2.800    0.000    3.400    0.000    3.200 
#    0.000    5.000    0.000    4.800    0.000    2.800 
#    0.000    0.000    0.000    0.000    0.000    0.000 
#
# Total GULP energy -371782.809087 kJ/mol
# GULP energy per Si atom -12392.760303 kJ/mol
# Density = 1.825949 g / cm^3
# Si number density = 18.301145 Si / 1000 Ang^3
#
#
#
# Elastic Constant Matrix: (Units=GPa)
#
#
# Indices 1 2 3 4 5 6 
#
# 1 87.9047 31.6232 45.9811 0.0000 0.0000 0.0000
# 2 31.6232 87.9047 45.9811 0.0000 0.0000 0.0000
# 3 45.9811 45.9811 86.7271 0.0000 0.0000 0.0000
# 4 0.0000 0.0000 0.0000 20.2369 0.0000 0.0000
# 5 0.0000 0.0000 0.0000 0.0000 20.2369 0.0000
# 6 0.0000 0.0000 0.0000 0.0000 0.0000 28.1408
#
#
#
# Elastic Compliance Matrix: (Units=1/GPa)
#
#
# Indices 1 2 3 4 5 6 
#
# 1 0.015949 -0.001819 -0.007491 0.000000 0.000000 0.000000
# 2 -0.001819 0.015949 -0.007491 0.000000 0.000000 0.000000
# 3 -0.007491 -0.007491 0.019474 0.000000 0.000000 0.000000
# 4 0.000000 0.000000 0.000000 0.049415 0.000000 0.000000
# 5 0.000000 0.000000 0.000000 0.000000 0.049415 0.000000
# 6 0.000000 0.000000 0.000000 0.000000 0.000000 0.035536
#
#
# Mechanical properties :
#
#
# Convention : Reuss Voigt Hill
#
# Bulk Modulus (GPa) = 56.28018 56.63416 56.45717
# Shear Modulus (GPa) = 22.19624 22.98632 22.59128
#
# Velocity S-wave (km/s) = 3.48635 3.54786 3.51724
# Velocity P-wave (km/s) = 6.85750 6.91346 6.88554
#
# Compressibility (1/GPa) = 0.01776824
#
# Stress axis : x y z
#
# Youngs Moduli (GPa) = 62.70017 62.70017 51.35027
#
# Poissons Ratio (x) = 0.11405 0.38469
# Poissons Ratio (y) = 0.11405 0.38469
# Poissons Ratio (z) = 0.46972 0.46972
#
# Static dielectric constant tensor:
#      x y z
#    x 3.339620 0.000000 0.000000 
#    y 0.000000 3.339620 0.000000 
#    z 0.000000 0.000000 3.127350 
# 
# 
# High freq. dielectric constant tensor:
#      x y z
#    x 1.693200 0.000000 0.000000 
#    y 0.000000 1.693200 0.000000 
#    z 0.000000 0.000000 1.702020 
# 
# From -- ./inp_files/323.got.cif
#   From: 2010.03.12/outbox.cif.g09.slc.cpg/sg189_1_cif.got.tgz:323.got - 2010.04.01 12:03:36.
