data_PCOD8327468
_publ_section_title
;
Structure prediction by ZEFSAII (Michael W. Deem and Ramdas Pophale) SiO2 
 PCOD8327468
Probable space group: P -6 C 2
;
_chemical_formula_sum "Si O2"
_cell_formula_units_Z 76
_cell_length_a 17.831026
_cell_length_b 17.831026
_cell_length_c 14.242453
_cell_angle_alpha 90.000000
_cell_angle_beta 90.000000
_cell_angle_gamma 120.000000
_cell_volume 3921.643337
_symmetry_space_group_name_H-M "P -6 C 2"
_symmetry_group_IT_number 188
_symmetry_cell_setting 'hexagonal'
loop_
_space_group_symop_operation_xyz
x,y,z
-x+y,-x,1/2-z
-y,x-y,z
x,y,1/2-z
-x+y,-x,z
-y,x-y,1/2-z
-y,-x,-z
-x+y,y,-z
x,x-y,-z
-x+y,y,1/2+z
x,x-y,1/2+z
-y,-x,1/2+z
loop_
_atom_site_type_symbol
_atom_site_label
_atom_site_fract_x
_atom_site_fract_y
_atom_site_fract_z
Si Si1 0.000000 0.000000 0.388032
Si Si2 0.854824 0.426249 0.353420
Si Si3 0.471312 0.940057 0.645633
Si Si4 0.026706 0.226394 0.499647
Si Si5 0.197206 0.099029 0.144844
Si Si6 0.852970 0.545693 0.002861
Si Si7 0.055482 0.650598 0.999844
O O1 0.094997 0.049961 0.346619
O O2 0.000000 0.000000 0.500000
O O3 0.813582 0.400847 0.250000
O O4 0.831450 0.494005 0.399222
O O5 0.818773 0.341284 0.417040
O O6 0.957846 0.471103 0.349480
O O7 0.449767 0.898407 0.750000
O O8 0.528721 0.907402 0.588475
O O9 0.381329 0.915680 0.592578
O O10 0.096659 0.193318 0.500000
O O11 0.084299 0.332357 0.500553
O O12 0.964679 0.188697 0.408216
O O13 0.963101 0.189382 0.590098
O O14 0.238265 0.119632 0.250000
O O15 0.952976 0.611502 0.992922
O O16 0.797547 0.595093 0.000000
#
# Coordination Sequence:
#
# PCOD8327468 Si02
#       7
#     4  12  12  12  12  12  12
#     4  12  16  35  55  70  89 145 214 248 277 334
#     4   8  15  29  44  57  77 108 146 185 233 285
#     4   8  15  33  56  73  89 118 159 198 252 328
#     4  11  22  35  50  77 111 141 182 235 283 325
#     4  11  21  34  51  69 100 153 206 244 278 322
#     4   9  17  28  43  61  84 116 151 193 239 279
#     4   9  19  32  52  73  99 132 160 211 266 312
#
# _framework density 19.379631
#
# number of rings (size 3 to 8) (size 9 to 14) (size 15 to 20)
#    0.000    2.526    3.158    2.368    2.211    1.895 
#    3.789    0.000    0.000    0.000    0.000    0.000 
#    6.316    0.000    0.000    0.000    0.000    0.000 
#
# Total GULP energy -941548.037831 kJ/mol
# GULP energy per Si atom -12388.789971 kJ/mol
# Density = 1.933552 g / cm^3
# Si number density = 19.379631 Si / 1000 Ang^3
#
#
#
# Elastic Constant Matrix: (Units=GPa)
#
#
# Indices 1 2 3 4 5 6 
#
# 1 53.9450 -1.9755 19.8628 0.0000 0.0000 0.0000
# 2 -1.9755 53.9450 19.8628 0.0000 0.0000 0.0000
# 3 19.8628 19.8628 166.7631 0.0000 0.0000 0.0000
# 4 0.0000 0.0000 0.0000 10.7514 0.0000 0.0000
# 5 0.0000 0.0000 0.0000 0.0000 10.7514 0.0000
# 6 0.0000 0.0000 0.0000 0.0000 0.0000 27.9603
#
#
#
# Elastic Compliance Matrix: (Units=1/GPa)
#
#
# Indices 1 2 3 4 5 6 
#
# 1 0.019526 0.001643 -0.002521 0.000000 0.000000 0.000000
# 2 0.001643 0.019526 -0.002521 0.000000 0.000000 0.000000
# 3 -0.002521 -0.002521 0.006597 0.000000 0.000000 0.000000
# 4 0.000000 0.000000 0.000000 0.093011 0.000000 0.000000
# 5 0.000000 0.000000 0.000000 0.000000 0.093011 0.000000
# 6 0.000000 0.000000 0.000000 0.000000 0.000000 0.035765
#
#
# Mechanical properties :
#
#
# Convention : Reuss Voigt Hill
#
# Bulk Modulus (GPa) = 25.73983 38.90594 32.32289
# Shear Modulus (GPa) = 17.41036 25.68615 21.54825
#
# Velocity S-wave (km/s) = 3.00056 3.64458 3.33814
# Velocity P-wave (km/s) = 5.03142 6.15060 5.61895
#
# Compressibility (1/GPa) = 0.03885030
#
# Stress axis : x y z
#
# Youngs Moduli (GPa) = 51.21379 51.21379 151.57989
#
# Poissons Ratio (x) = -0.08417 0.38220
# Poissons Ratio (y) = -0.08417 0.38220
# Poissons Ratio (z) = 0.12913 0.12913
#
# Static dielectric constant tensor:
#      x y z
#    x 3.317110 0.000000 0.000000 
#    y 0.000000 3.317110 0.000000 
#    z 0.000000 0.000000 3.772470 
# 
# 
# High freq. dielectric constant tensor:
#      x y z
#    x 1.721740 0.000000 0.000000 
#    y 0.000000 1.721740 0.000000 
#    z 0.000000 0.000000 1.756910 
# 
# From -- ./inp_files/2537.got.cif
#   From: 2010.03.12/outbox.cif.g09.slc.cpg/sg188_2_cif.got.tgz:2537.got - 2010.04.01 12:01:06.
