data_PCOD8327892
_publ_section_title
;
Structure prediction by ZEFSAII (Michael W. Deem and Ramdas Pophale) SiO2 
 PCOD8327892
Probable space group: P -6 2 M
;
_chemical_formula_sum "Si O2"
_cell_formula_units_Z 58
_cell_length_a 13.732775
_cell_length_b 13.732775
_cell_length_c 17.262755
_cell_angle_alpha 90.000000
_cell_angle_beta 90.000000
_cell_angle_gamma 120.000000
_cell_volume 2819.404235
_symmetry_space_group_name_H-M "P -6 2 M"
_symmetry_group_IT_number 189
_symmetry_cell_setting 'hexagonal'
loop_
_space_group_symop_operation_xyz
x,y,z
-x+y,-x,-z
-y,x-y,z
x,y,-z
-x+y,-x,z
-y,x-y,-z
x-y,-y,-z
-x,-x+y,-z
y,x,-z
y,x,z
x-y,-y,z
-x,-x+y,z
loop_
_atom_site_type_symbol
_atom_site_label
_atom_site_fract_x
_atom_site_fract_y
_atom_site_fract_z
Si Si1 0.666668 0.333335 0.091843
Si Si2 0.205904 0.796357 0.357276
Si Si3 0.437794 0.562619 0.587014
Si Si4 0.252990 0.129427 0.500000
Si Si5 0.305537 0.872906 0.090505
Si Si6 0.263135 0.130482 0.794152
O O1 0.781033 0.337766 0.121766
O O2 0.666667 0.333334 0.000000
O O3 0.195830 0.674502 0.363247
O O4 0.337919 0.881870 0.368194
O O5 0.134311 0.810176 0.424565
O O6 0.161699 0.813270 0.276363
O O7 0.427313 0.602135 0.500000
O O8 0.458030 0.458030 0.581354
O O9 0.143411 0.143411 0.500000
O O10 0.217832 0.000000 0.500000
O O11 0.192148 0.854801 0.130403
O O12 0.408338 0.000000 0.107634
O O13 0.277892 0.855049 0.000000
O O14 0.193049 0.193049 0.809291
O O15 0.176704 0.000000 0.775572
#
# Coordination Sequence:
#
# PCOD8327892 Si02
#       6
#     4  12  12   6  12  12
#     4   9  18  36  66  99 129 166 203 259 333 384
#     4  12  24  39  61  86 115 152 198 249 307 368
#     4  11  21  37  58  81 111 150 190 236 293 359
#     4  12  23  38  58  82 112 148 193 242 298 362
#     4   9  20  39  63  94 132 173 219 267 318 384
#     4  11  24  42  63  90 126 167 213 268 326 386
#
# _framework density 20.571722000000001
#
# number of rings (size 3 to 8) (size 9 to 14) (size 15 to 20)
#    0.000    1.241    2.069    4.448    0.000    2.897 
#    0.000    6.207    0.000    1.241    0.000    0.000 
#    0.000    0.000    0.000    0.000    0.000    0.000 
#
# Total GULP energy -719245.095913 kJ/mol
# GULP energy per Si atom -12400.777516 kJ/mol
# Density = 2.052490 g / cm^3
# Si number density = 20.571722 Si / 1000 Ang^3
#
#
#
# Elastic Constant Matrix: (Units=GPa)
#
#
# Indices 1 2 3 4 5 6 
#
# 1 132.7787 52.3435 35.8359 0.0001 0.0000 0.0000
# 2 52.3435 132.7784 35.8356 0.0001 0.0000 -0.0002
# 3 35.8359 35.8356 73.4607 0.0001 0.0000 -0.0001
# 4 0.0001 0.0001 0.0001 34.2055 -0.0001 0.0000
# 5 0.0000 0.0000 0.0000 -0.0001 34.2061 0.0000
# 6 0.0000 -0.0002 -0.0001 0.0000 0.0000 40.2173
#
#
#
# Elastic Compliance Matrix: (Units=1/GPa)
#
#
# Indices 1 2 3 4 5 6 
#
# 1 0.009546 -0.002886 -0.003249 0.000000 0.000000 0.000000
# 2 -0.002886 0.009546 -0.003249 0.000000 0.000000 0.000000
# 3 -0.003249 -0.003249 0.016782 0.000000 0.000000 0.000000
# 4 0.000000 0.000000 0.000000 0.029235 0.000000 0.000000
# 5 0.000000 0.000000 0.000000 0.000000 0.029235 0.000000
# 6 0.000000 0.000000 0.000000 0.000000 0.000000 0.024865
#
#
# Mechanical properties :
#
#
# Convention : Reuss Voigt Hill
#
# Bulk Modulus (GPa) = 58.45661 65.22752 61.84207
# Shear Modulus (GPa) = 34.79988 36.05930 35.42959
#
# Velocity S-wave (km/s) = 4.11741 4.19126 4.15450
# Velocity P-wave (km/s) = 7.14715 7.42956 7.28973
#
# Compressibility (1/GPa) = 0.01710671
#
# Stress axis : x y z
#
# Youngs Moduli (GPa) = 104.75589 104.75592 59.58657
#
# Poissons Ratio (x) = 0.30237 0.19358
# Poissons Ratio (y) = 0.30237 0.19358
# Poissons Ratio (z) = 0.34032 0.34032
#
# Static dielectric constant tensor:
#      x y z
#    x 3.804100 0.000000 0.000000 
#    y 0.000000 3.804100 0.000000 
#    z 0.000000 0.000000 3.153920 
# 
# 
# High freq. dielectric constant tensor:
#      x y z
#    x 1.813900 0.000000 0.000000 
#    y 0.000000 1.813900 0.000000 
#    z 0.000000 0.000000 1.786360 
# 
# From -- ./inp_files/2561.got.cif
#   From: 2010.03.12/outbox.cif.g09.slc.cpg/sg189_2_cif.got.tgz:2561.got - 2010.04.01 12:03:36.
