data_PCOD8327487
_publ_section_title
;
Structure prediction by ZEFSAII (Michael W. Deem and Ramdas Pophale) SiO2 
 PCOD8327487
Probable space group: P -6 2 M
;
_chemical_formula_sum "Si O2"
_cell_formula_units_Z 72
_cell_length_a 13.965775
_cell_length_b 13.965775
_cell_length_c 22.356498
_cell_angle_alpha 90.000000
_cell_angle_beta 90.000000
_cell_angle_gamma 120.000000
_cell_volume 3776.282610
_symmetry_space_group_name_H-M "P -6 2 M"
_symmetry_group_IT_number 189
_symmetry_cell_setting 'hexagonal'
loop_
_space_group_symop_operation_xyz
x,y,z
-x+y,-x,-z
-y,x-y,z
x,y,-z
-x+y,-x,z
-y,x-y,-z
x-y,-y,-z
-x,-x+y,-z
y,x,-z
y,x,z
x-y,-y,z
-x,-x+y,z
loop_
_atom_site_type_symbol
_atom_site_label
_atom_site_fract_x
_atom_site_fract_y
_atom_site_fract_z
Si Si1 0.754291 0.878396 0.067190
Si Si2 0.878144 0.388738 0.817036
Si Si3 0.534352 0.663205 0.681764
Si Si4 0.783810 0.462440 0.500000
Si Si5 0.653173 0.205928 0.000000
Si Si6 0.543232 0.871563 0.373063
Si Si7 0.459358 0.284185 0.122770
O O1 0.790974 0.790974 0.084891
O O2 0.671453 0.874034 0.118538
O O3 0.860816 0.000000 0.067717
O O4 0.700734 0.852206 0.000000
O O5 0.843289 0.340774 0.750943
O O6 0.878670 0.505039 0.823962
O O7 0.790019 0.306246 0.865145
O O8 0.000000 0.409566 0.831137
O O9 0.629129 0.629129 0.672458
O O10 0.422687 0.577656 0.647842
O O11 0.576873 0.788054 0.658790
O O12 0.780402 0.343801 0.500000
O O13 0.849912 0.536414 0.556367
O O14 0.770630 0.321935 0.000000
O O15 0.648604 0.142047 0.939699
O O16 0.634887 0.000000 0.359198
#
# Coordination Sequence:
#
# PCOD8327487 Si02
#       7
#    12  12  12   6   6  12  12
#     4  10  21  36  54  74  99 132 173 220 272 331
#     4  11  23  36  55  79 104 140 179 223 278 332
#     4  10  21  37  56  82 116 153 198 246 294 343
#     4  10  17  32  56  86 129 160 192 240 288 334
#     4  10  18  34  48  72 102 138 168 200 274 350
#     4  11  20  35  59  86 122 163 201 237 286 344
#     4  12  20  36  53  77 105 135 170 223 274 349
#
# _framework density 19.066369000000002
#
# number of rings (size 3 to 8) (size 9 to 14) (size 15 to 20)
#    0.333    1.000    4.167    3.083    0.000    0.667 
#    0.000    2.083    0.000    0.333    0.000    0.000 
#    0.000    0.000    0.000    0.000    0.000    0.000 
#
# Total GULP energy -892326.249921 kJ/mol
# GULP energy per Si atom -12393.420138 kJ/mol
# Density = 1.902297 g / cm^3
# Si number density = 19.066369 Si / 1000 Ang^3
#
#
#
# Elastic Constant Matrix: (Units=GPa)
#
#
# Indices 1 2 3 4 5 6 
#
# 1 93.8531 39.9536 40.4243 0.0000 0.0000 0.0000
# 2 39.9536 93.8531 40.4243 0.0000 0.0000 0.0000
# 3 40.4243 40.4243 92.4074 0.0000 0.0000 0.0000
# 4 0.0000 0.0000 0.0000 16.4631 0.0000 0.0000
# 5 0.0000 0.0000 0.0000 0.0000 16.4631 0.0000
# 6 0.0000 0.0000 0.0000 0.0000 0.0000 26.9498
#
#
#
# Elastic Compliance Matrix: (Units=1/GPa)
#
#
# Indices 1 2 3 4 5 6 
#
# 1 0.014356 -0.004197 -0.004444 0.000000 0.000000 0.000000
# 2 -0.004197 0.014356 -0.004444 0.000000 0.000000 0.000000
# 3 -0.004444 -0.004444 0.014710 0.000000 0.000000 0.000000
# 4 0.000000 0.000000 0.000000 0.060742 0.000000 0.000000
# 5 0.000000 0.000000 0.000000 0.000000 0.060742 0.000000
# 6 0.000000 0.000000 0.000000 0.000000 0.000000 0.037106
#
#
# Mechanical properties :
#
#
# Convention : Reuss Voigt Hill
#
# Bulk Modulus (GPa) = 57.96732 57.96866 57.96799
# Shear Modulus (GPa) = 21.37373 22.59595 21.98484
#
# Velocity S-wave (km/s) = 3.35179 3.44629 3.39937
# Velocity P-wave (km/s) = 6.74153 6.80482 6.77325
#
# Compressibility (1/GPa) = 0.01725110
#
# Stress axis : x y z
#
# Youngs Moduli (GPa) = 69.65820 69.65820 67.98225
#
# Poissons Ratio (x) = 0.29237 0.30211
# Poissons Ratio (y) = 0.29237 0.30211
# Poissons Ratio (z) = 0.30956 0.30956
#
# Static dielectric constant tensor:
#      x y z
#    x 3.355500 0.000000 0.000000 
#    y 0.000000 3.355490 0.000000 
#    z 0.000000 0.000000 3.389130 
# 
# 
# High freq. dielectric constant tensor:
#      x y z
#    x 1.727050 0.000000 0.000000 
#    y 0.000000 1.727050 0.000000 
#    z 0.000000 0.000000 1.735520 
# 
# From -- ./inp_files/3443.got.cif
#   From: 2010.03.12/outbox.cif.g09.slc.cpg/sg189_2_cif.got.tgz:3443.got - 2010.04.01 12:03:36.
