data_PCOD8327547
_publ_section_title
;
Structure prediction by ZEFSAII (Michael W. Deem and Ramdas Pophale) SiO2 
 PCOD8327547
Probable space group: P -6 2 M
;
_chemical_formula_sum "Si O2"
_cell_formula_units_Z 72
_cell_length_a 22.860772
_cell_length_b 22.860772
_cell_length_c 9.278204
_cell_angle_alpha 90.000000
_cell_angle_beta 90.000000
_cell_angle_gamma 120.000000
_cell_volume 4199.294502
_symmetry_space_group_name_H-M "P -6 2 M"
_symmetry_group_IT_number 189
_symmetry_cell_setting 'hexagonal'
loop_
_space_group_symop_operation_xyz
x,y,z
-x+y,-x,-z
-y,x-y,z
x,y,-z
-x+y,-x,z
-y,x-y,-z
x-y,-y,-z
-x,-x+y,-z
y,x,-z
y,x,z
x-y,-y,z
-x,-x+y,z
loop_
_atom_site_type_symbol
_atom_site_label
_atom_site_fract_x
_atom_site_fract_y
_atom_site_fract_z
Si Si1 0.442316 0.363910 0.668312
Si Si2 0.700545 0.700545 0.329971
Si Si3 0.178520 0.000000 0.169204
Si Si4 0.415793 0.116828 0.163382
Si Si5 0.778310 0.925067 0.169880
Si Si6 0.150068 0.774498 0.165931
Si Si7 0.077684 0.522595 0.836900
O O1 0.450363 0.357461 0.500000
O O2 0.393037 0.393037 0.704682
O O3 0.411407 0.291244 0.737927
O O4 0.516444 0.413538 0.732227
O O5 0.707269 0.707269 0.500000
O O6 0.763017 0.763017 0.258258
O O7 0.698931 0.633103 0.281615
O O8 0.176631 0.067577 0.212018
O O9 0.194449 0.000000 0.000000
O O10 0.418671 0.187873 0.184595
O O11 0.489406 0.124865 0.188463
O O12 0.390634 0.089693 0.000000
O O13 0.701151 0.879222 0.223636
O O14 0.813006 0.000000 0.240151
O O15 0.777449 0.931553 0.000000
O O16 0.129063 0.754163 0.000000
O O17 0.000000 0.466062 0.804149
O O18 0.084841 0.549217 0.000000
#
# Coordination Sequence:
#
# PCOD8327547 Si02
#       7
#    12   6   6  12  12  12  12
#     4  10  21  35  50  72 107 141 169 206 255 305
#     4  12  22  30  48  78 110 136 167 208 257 320
#     4  10  18  34  52  68 104 142 175 220 271 322
#     4  10  19  34  55  79 105 135 169 210 259 306
#     4   9  17  29  49  75  99 131 175 225 273 314
#     4  10  19  32  54  76 100 133 176 223 261 304
#     4   9  17  31  54  78 100 128 165 204 244 298
#
# _framework density 17.145735999999999
#
# number of rings (size 3 to 8) (size 9 to 14) (size 15 to 20)
#    0.000    2.167    2.500    1.750    0.000    3.000 
#    0.500    0.000    0.000    1.167    0.000    2.333 
#    0.000    0.000    0.000    0.000    0.000    0.000 
#
# Total GULP energy -892703.283810 kJ/mol
# GULP energy per Si atom -12398.656720 kJ/mol
# Density = 1.710671 g / cm^3
# Si number density = 17.145736 Si / 1000 Ang^3
#
#
#
# Elastic Constant Matrix: (Units=GPa)
#
#
# Indices 1 2 3 4 5 6 
#
# 1 127.5383 55.5965 43.8863 0.0000 0.0000 0.0000
# 2 55.5965 127.5383 43.8863 0.0000 0.0000 0.0000
# 3 43.8863 43.8863 67.5867 0.0000 0.0000 0.0000
# 4 0.0000 0.0000 0.0000 11.9184 0.0000 0.0000
# 5 0.0000 0.0000 0.0000 0.0000 11.9184 0.0000
# 6 0.0000 0.0000 0.0000 0.0000 0.0000 35.9709
#
#
#
# Elastic Compliance Matrix: (Units=1/GPa)
#
#
# Indices 1 2 3 4 5 6 
#
# 1 0.010914 -0.002986 -0.005148 0.000000 0.000000 0.000000
# 2 -0.002986 0.010914 -0.005148 0.000000 0.000000 0.000000
# 3 -0.005148 -0.005148 0.021481 0.000000 0.000000 0.000000
# 4 0.000000 0.000000 0.000000 0.083904 0.000000 0.000000
# 5 0.000000 0.000000 0.000000 0.000000 0.083904 0.000000
# 6 0.000000 0.000000 0.000000 0.000000 0.000000 0.027800
#
#
# Mechanical properties :
#
#
# Convention : Reuss Voigt Hill
#
# Bulk Modulus (GPa) = 59.71760 67.71128 63.71444
# Shear Modulus (GPa) = 18.44599 23.91449 21.18024
#
# Velocity S-wave (km/s) = 3.28355 3.73872 3.51851
# Velocity P-wave (km/s) = 7.02002 7.62986 7.33128
#
# Compressibility (1/GPa) = 0.01674548
#
# Stress axis : x y z
#
# Youngs Moduli (GPa) = 91.62644 91.62644 46.55288
#
# Poissons Ratio (x) = 0.27362 0.23964
# Poissons Ratio (y) = 0.27362 0.23964
# Poissons Ratio (z) = 0.47166 0.47166
#
# Static dielectric constant tensor:
#      x y z
#    x 3.190100 0.000000 0.000000 
#    y 0.000000 3.190100 0.000000 
#    z 0.000000 0.000000 3.025660 
# 
# 
# High freq. dielectric constant tensor:
#      x y z
#    x 1.653710 0.000000 0.000000 
#    y 0.000000 1.653710 0.000000 
#    z 0.000000 0.000000 1.641670 
# 
# From -- ./inp_files/1374.got.cif
#   From: 2010.03.12/outbox.cif.g09.slc.cpg/sg189_1_cif.got.tgz:1374.got - 2010.04.01 12:03:36.
