data_PCOD8327188
_publ_section_title
;
Structure prediction by ZEFSAII (Michael W. Deem and Ramdas Pophale) SiO2 
 PCOD8327188
Probable space group: P -6 M 2
;
_chemical_formula_sum "Si O2"
_cell_formula_units_Z 72
_cell_length_a 22.611865
_cell_length_b 22.611865
_cell_length_c 9.648782
_cell_angle_alpha 90.000000
_cell_angle_beta 90.000000
_cell_angle_gamma 120.000000
_cell_volume 4272.439227
_symmetry_space_group_name_H-M "P -6 M 2"
_symmetry_group_IT_number 187
_symmetry_cell_setting 'hexagonal'
loop_
_space_group_symop_operation_xyz
x,y,z
-x+y,-x,-z
-y,x-y,z
x,y,-z
-x+y,-x,z
-y,x-y,-z
-y,-x,-z
-x+y,y,-z
x,x-y,-z
-x+y,y,z
x,x-y,z
-y,-x,z
loop_
_atom_site_type_symbol
_atom_site_label
_atom_site_fract_x
_atom_site_fract_y
_atom_site_fract_z
Si Si1 0.080224 0.472609 0.159121
Si Si2 0.000914 0.747675 0.661580
Si Si3 0.394121 0.128236 0.338826
Si Si4 0.136769 0.000278 0.159579
Si Si5 0.130338 0.733266 0.339075
Si Si6 0.605954 0.528929 0.839658
O O1 0.102942 0.551471 0.181364
O O2 0.128974 0.456978 0.253255
O O3 0.001645 0.425088 0.204170
O O4 0.089564 0.458534 0.000000
O O5 0.000105 0.763668 0.500000
O O6 0.931661 0.680319 0.706713
O O7 0.009244 0.811216 0.746396
O O8 0.064438 0.738417 0.700195
O O9 0.406643 0.121274 0.500000
O O10 0.399411 0.199706 0.303929
O O11 0.452608 0.124209 0.252916
O O12 0.138356 0.069178 0.203406
O O13 0.158033 0.002381 0.000000
O O14 0.061107 0.938894 0.187256
O O15 0.130946 0.716915 0.500000
O O16 0.196891 0.803110 0.295818
O O17 0.549952 0.450049 0.812832
O O18 0.627615 0.540569 0.000000
#
# Coordination Sequence:
#
# PCOD8327188 Si02
#       6
#    12  12  12  12  12  12
#     4   9  18  33  53  77 104 132 165 207 252 300
#     4  10  20  35  52  72 102 137 169 208 257 306
#     4  10  20  33  51  77 107 138 172 209 251 301
#     4  10  21  36  52  69  91 124 169 219 267 312
#     4  10  20  33  51  77 107 138 172 209 251 301
#     4   9  18  33  53  77 104 132 165 207 252 300
#
# _framework density 16.852198999999999
#
# number of rings (size 3 to 8) (size 9 to 14) (size 15 to 20)
#    0.000    2.333    1.667    2.167    0.000    5.333 
#    0.000    1.667    0.000    1.667    0.000    0.000 
#    0.000    0.000    0.000    0.000    0.000    0.000 
#
# Total GULP energy -893030.985194 kJ/mol
# GULP energy per Si atom -12403.208128 kJ/mol
# Density = 1.681384 g / cm^3
# Si number density = 16.852199 Si / 1000 Ang^3
#
#
#
# Elastic Constant Matrix: (Units=GPa)
#
#
# Indices 1 2 3 4 5 6 
#
# 1 84.4136 33.5568 44.3166 0.0000 0.0002 0.0000
# 2 33.5568 84.4136 44.3166 0.0000 -0.0002 0.0000
# 3 44.3166 44.3166 57.2723 0.0000 0.0000 0.0000
# 4 0.0000 0.0000 0.0000 33.4911 0.0000 -0.0002
# 5 0.0002 -0.0002 0.0000 0.0000 33.4911 0.0000
# 6 0.0000 0.0000 0.0000 -0.0002 0.0000 25.4284
#
#
#
# Elastic Compliance Matrix: (Units=1/GPa)
#
#
# Indices 1 2 3 4 5 6 
#
# 1 0.019956 0.000293 -0.015668 0.000000 0.000000 0.000000
# 2 0.000293 0.019956 -0.015668 0.000000 0.000000 0.000000
# 3 -0.015668 -0.015668 0.041708 0.000000 0.000000 0.000000
# 4 0.000000 0.000000 0.000000 0.029859 0.000000 0.000000
# 5 0.000000 0.000000 0.000000 0.000000 0.029859 0.000000
# 6 0.000000 0.000000 0.000000 0.000000 0.000000 0.039326
#
#
# Mechanical properties :
#
#
# Convention : Reuss Voigt Hill
#
# Bulk Modulus (GPa) = 51.19612 52.27550 51.73581
# Shear Modulus (GPa) = 20.05942 25.40943 22.73443
#
# Velocity S-wave (km/s) = 3.45384 3.88723 3.67692
# Velocity P-wave (km/s) = 6.80814 7.15784 6.98518
#
# Compressibility (1/GPa) = 0.01953273
#
# Stress axis : x y z
#
# Youngs Moduli (GPa) = 50.11113 50.11113 23.97641
#
# Poissons Ratio (x) = -0.01466 0.37566
# Poissons Ratio (y) = -0.01466 0.37566
# Poissons Ratio (z) = 0.78513 0.78513
#
# Static dielectric constant tensor:
#      x y z
#    x 3.089940 0.000000 0.000000 
#    y 0.000000 3.089940 0.000000 
#    z 0.000000 0.000000 3.102500 
# 
# 
# High freq. dielectric constant tensor:
#      x y z
#    x 1.644490 0.000000 0.000000 
#    y 0.000000 1.644490 0.000000 
#    z 0.000000 0.000000 1.649660 
# 
# From -- ./inp_files/952.got.cif
#   From: 2010.03.12/outbox.cif.g09.slc.cpg/sg187_1_cif.got.tgz:952.got - 2010.04.01 11:58:23.
