data_PCOD8327793
_publ_section_title
;
Structure prediction by ZEFSAII (Michael W. Deem and Ramdas Pophale) SiO2 
 PCOD8327793
Probable space group: P -6 2 M
;
_chemical_formula_sum "Si O2"
_cell_formula_units_Z 84
_cell_length_a 14.641922
_cell_length_b 14.641922
_cell_length_c 22.242571
_cell_angle_alpha 90.000000
_cell_angle_beta 90.000000
_cell_angle_gamma 120.000000
_cell_volume 4129.636209
_symmetry_space_group_name_H-M "P -6 2 M"
_symmetry_group_IT_number 189
_symmetry_cell_setting 'hexagonal'
loop_
_space_group_symop_operation_xyz
x,y,z
-x+y,-x,-z
-y,x-y,z
x,y,-z
-x+y,-x,z
-y,x-y,-z
x-y,-y,-z
-x,-x+y,-z
y,x,-z
y,x,z
x-y,-y,z
-x,-x+y,z
loop_
_atom_site_type_symbol
_atom_site_label
_atom_site_fract_x
_atom_site_fract_y
_atom_site_fract_z
Si Si1 0.566406 0.122244 0.361738
Si Si2 0.208200 0.561522 0.000000
Si Si3 0.328751 0.877335 0.877705
Si Si4 0.584989 0.784799 0.391839
Si Si5 0.755927 0.878786 0.294366
Si Si6 0.346212 0.229547 0.822859
Si Si7 0.251882 0.125612 0.500000
Si Si8 0.575215 0.121100 0.228709
O O1 0.676475 0.176084 0.397353
O O2 0.481064 0.139195 0.397952
O O3 0.581098 0.171719 0.294300
O O4 0.529859 0.000000 0.357256
O O5 0.315509 0.554673 0.000000
O O6 0.140164 0.507722 0.058670
O O7 0.201868 0.821445 0.875940
O O8 0.366197 0.827562 0.824082
O O9 0.375340 0.000000 0.868410
O O10 0.644759 0.817741 0.328332
O O11 0.673335 0.834733 0.442434
O O12 0.826388 0.826388 0.309095
O O13 0.731230 0.870568 0.223456
O O14 0.819382 0.000000 0.315790
O O15 0.286662 0.286662 0.852392
O O16 0.447048 0.312392 0.785676
O O17 0.180856 0.180856 0.500000
O O18 0.174905 0.000000 0.500000
O O19 0.485604 0.000000 0.231635
#
# Coordination Sequence:
#
# PCOD8327793 Si02
#       8
#    12   6  12  12  12  12   6  12
#     4  11  22  41  62  91 127 160 206 261 311 370
#     4  10  23  40  56  82 117 158 202 252 306 366
#     4  11  21  37  60  88 120 161 210 254 306 372
#     4  12  25  42  65  93 125 168 212 259 316 376
#     4  11  21  37  60  91 129 169 212 261 318 382
#     4  10  20  36  57  87 125 160 202 257 320 377
#     4  12  27  48  72  98 126 164 209 262 320 386
#     4   9  19  34  56  86 120 158 200 252 307 359
#
# _framework density 20.340774
#
# number of rings (size 3 to 8) (size 9 to 14) (size 15 to 20)
#    0.143    1.143    1.429    5.429    0.000    1.714 
#    0.857    3.929    0.000    0.286    0.000    0.000 
#    0.000    0.000    0.000    0.000    0.000    0.000 
#
# Total GULP energy -1041659.856515 kJ/mol
# GULP energy per Si atom -12400.712578 kJ/mol
# Density = 2.029448 g / cm^3
# Si number density = 20.340774 Si / 1000 Ang^3
#
#
#
# Elastic Constant Matrix: (Units=GPa)
#
#
# Indices 1 2 3 4 5 6 
#
# 1 108.8299 32.2986 25.8526 0.0000 0.0000 0.0000
# 2 32.2986 108.8299 25.8526 0.0000 0.0000 0.0000
# 3 25.8526 25.8526 79.9970 0.0000 0.0000 0.0000
# 4 0.0000 0.0000 0.0000 26.0868 0.0000 0.0000
# 5 0.0000 0.0000 0.0000 0.0000 26.0868 0.0000
# 6 0.0000 0.0000 0.0000 0.0000 0.0000 38.2657
#
#
#
# Elastic Compliance Matrix: (Units=1/GPa)
#
#
# Indices 1 2 3 4 5 6 
#
# 1 0.010552 -0.002515 -0.002597 0.000000 0.000000 0.000000
# 2 -0.002515 0.010552 -0.002597 0.000000 0.000000 0.000000
# 3 -0.002597 -0.002597 0.014179 0.000000 0.000000 0.000000
# 4 0.000000 0.000000 0.000000 0.038334 0.000000 0.000000
# 5 0.000000 0.000000 0.000000 0.000000 0.038334 0.000000
# 6 0.000000 0.000000 0.000000 0.000000 0.000000 0.026133
#
#
# Mechanical properties :
#
#
# Convention : Reuss Voigt Hill
#
# Bulk Modulus (GPa) = 50.34158 51.74047 51.04102
# Shear Modulus (GPa) = 31.22585 32.33139 31.77862
#
# Velocity S-wave (km/s) = 3.92233 3.99116 3.95690
# Velocity P-wave (km/s) = 6.73170 6.83602 6.78406
#
# Compressibility (1/GPa) = 0.01986430
#
# Stress axis : x y z
#
# Youngs Moduli (GPa) = 94.76925 94.76925 70.52545
#
# Poissons Ratio (x) = 0.23831 0.18318
# Poissons Ratio (y) = 0.23831 0.18318
# Poissons Ratio (z) = 0.24616 0.24616
#
# Static dielectric constant tensor:
#      x y z
#    x 3.703330 0.000000 0.000000 
#    y 0.000000 3.703330 0.000000 
#    z 0.000000 0.000000 3.493930 
# 
# 
# High freq. dielectric constant tensor:
#      x y z
#    x 1.799620 0.000000 0.000000 
#    y 0.000000 1.799620 0.000000 
#    z 0.000000 0.000000 1.771500 
# 
# From -- ./inp_files/3636.got.cif
#   From: 2010.03.12/outbox.cif.g09.slc.cpg/sg189_2_cif.got.tgz:3636.got - 2010.04.01 12:03:36.
