data_PCOD8327974
_publ_section_title
;
Structure prediction by ZEFSAII (Michael W. Deem and Ramdas Pophale) SiO2 
 PCOD8327974
Probable space group: P -6 2 C
;
_chemical_formula_sum "Si O2"
_cell_formula_units_Z 72
_cell_length_a 23.818091
_cell_length_b 23.818091
_cell_length_c 8.882725
_cell_angle_alpha 90.000000
_cell_angle_beta 90.000000
_cell_angle_gamma 120.000000
_cell_volume 4364.060364
_symmetry_space_group_name_H-M "P -6 2 C"
_symmetry_group_IT_number 190
_symmetry_cell_setting 'hexagonal'
loop_
_space_group_symop_operation_xyz
x,y,z
-x+y,-x,1/2-z
-y,x-y,z
x,y,1/2-z
-x+y,-x,z
-y,x-y,1/2-z
x-y,-y,-z
-x,-x+y,-z
y,x,-z
y,x,1/2+z
x-y,-y,1/2+z
-x,-x+y,1/2+z
loop_
_atom_site_type_symbol
_atom_site_label
_atom_site_fract_x
_atom_site_fract_y
_atom_site_fract_z
Si Si1 0.259716 0.853658 0.426935
Si Si2 0.066019 0.260286 0.075486
Si Si3 0.931661 0.066432 0.928446
Si Si4 0.465638 0.067872 0.427261
Si Si5 0.191609 0.593388 0.574280
Si Si6 0.736934 0.255748 0.429579
O O1 0.271129 0.852375 0.250000
O O2 0.207462 0.875786 0.464995
O O3 0.327187 0.905032 0.502536
O O4 0.230740 0.781947 0.495811
O O5 0.050630 0.253291 0.250000
O O6 0.085515 0.207268 0.024420
O O7 0.000000 0.248222 0.000000
O O8 0.934532 0.059547 0.750000
O O9 0.000000 0.082645 0.000000
O O10 0.875754 0.000000 0.000000
O O11 0.452340 0.059988 0.250000
O O12 0.541601 0.116993 0.462828
O O13 0.448595 0.000000 0.500000
O O14 0.204092 0.603784 0.750000
O O15 0.237750 0.566825 0.513302
O O16 0.211614 0.663862 0.506755
O O17 0.742557 0.252633 0.250000
#
# Coordination Sequence:
#
# PCOD8327974 Si02
#       6
#    12  12  12  12  12  12
#     4  10  19  31  46  68  95 122 150 187 230 273
#     4   9  19  32  47  66  91 119 149 183 223 266
#     4  10  19  32  48  68  91 118 148 181 219 263
#     4  10  19  31  47  69  94 123 155 190 229 273
#     4   8  15  27  46  68  90 116 150 186 224 268
#     4   9  16  29  48  69  91 120 154 189 226 271
#
# _framework density 16.498397000000001
#
# number of rings (size 3 to 8) (size 9 to 14) (size 15 to 20)
#    0.000    2.667    0.000    3.500    0.000    4.667 
#    0.000    4.167    0.000    1.000    0.000    7.000 
#    0.000    0.000    0.000    0.000    0.000    0.000 
#
# Total GULP energy -892630.036432 kJ/mol
# GULP energy per Si atom -12397.639395 kJ/mol
# Density = 1.646085 g / cm^3
# Si number density = 16.498397 Si / 1000 Ang^3
#
#
#
# Elastic Constant Matrix: (Units=GPa)
#
#
# Indices 1 2 3 4 5 6 
#
# 1 117.6369 67.0956 43.1053 0.0000 0.0000 0.0000
# 2 67.0956 117.6369 43.1053 0.0000 0.0000 0.0000
# 3 43.1053 43.1053 61.9777 0.0000 0.0000 0.0000
# 4 0.0000 0.0000 0.0000 24.7865 0.0000 0.0000
# 5 0.0000 0.0000 0.0000 0.0000 24.7865 0.0000
# 6 0.0000 0.0000 0.0000 0.0000 0.0000 25.2707
#
#
#
# Elastic Compliance Matrix: (Units=1/GPa)
#
#
# Indices 1 2 3 4 5 6 
#
# 1 0.013900 -0.005886 -0.005574 0.000000 0.000000 0.000000
# 2 -0.005886 0.013900 -0.005574 0.000000 0.000000 0.000000
# 3 -0.005574 -0.005574 0.023888 0.000000 0.000000 0.000000
# 4 0.000000 0.000000 0.000000 0.040345 0.000000 0.000000
# 5 0.000000 0.000000 0.000000 0.000000 0.040345 0.000000
# 6 0.000000 0.000000 0.000000 0.000000 0.000000 0.039572
#
#
# Mechanical properties :
#
#
# Convention : Reuss Voigt Hill
#
# Bulk Modulus (GPa) = 56.75017 67.09597 61.92307
# Shear Modulus (GPa) = 23.59706 24.56507 24.08107
#
# Velocity S-wave (km/s) = 3.78599 3.86286 3.82462
# Velocity P-wave (km/s) = 7.32008 7.78794 7.55763
#
# Compressibility (1/GPa) = 0.01762109
#
# Stress axis : x y z
#
# Youngs Moduli (GPa) = 71.94158 71.94158 41.86139
#
# Poissons Ratio (x) = 0.42342 0.23334
# Poissons Ratio (y) = 0.42342 0.23334
# Poissons Ratio (z) = 0.40101 0.40101
#
# Static dielectric constant tensor:
#      x y z
#    x 3.215480 0.000000 0.000000 
#    y 0.000000 3.215480 0.000000 
#    z 0.000000 0.000000 3.039330 
# 
# 
# High freq. dielectric constant tensor:
#      x y z
#    x 1.626610 0.000000 0.000000 
#    y 0.000000 1.626610 0.000000 
#    z 0.000000 0.000000 1.630360 
# 
# From -- ./inp_files/1192.got.cif
#   From: 2010.06.25/outbox.cif.g09.slc.cpg/sg190_1_cif.got.tgz:1192.got - 2010.06.28 13:08:06.
