data_PCOD8327785
_publ_section_title
;
Structure prediction by ZEFSAII (Michael W. Deem and Ramdas Pophale) SiO2 
 PCOD8327785
Probable space group: P -6 2 M
;
_chemical_formula_sum "Si O2"
_cell_formula_units_Z 60
_cell_length_a 14.272659
_cell_length_b 14.272659
_cell_length_c 16.711757
_cell_angle_alpha 90.000000
_cell_angle_beta 90.000000
_cell_angle_gamma 120.000000
_cell_volume 2948.237891
_symmetry_space_group_name_H-M "P -6 2 M"
_symmetry_group_IT_number 189
_symmetry_cell_setting 'hexagonal'
loop_
_space_group_symop_operation_xyz
x,y,z
-x+y,-x,-z
-y,x-y,z
x,y,-z
-x+y,-x,z
-y,x-y,-z
x-y,-y,-z
-x,-x+y,-z
y,x,-z
y,x,z
x-y,-y,z
-x,-x+y,z
loop_
_atom_site_type_symbol
_atom_site_label
_atom_site_fract_x
_atom_site_fract_y
_atom_site_fract_z
Si Si1 0.880947 0.499162 0.659054
Si Si2 0.662569 0.126337 0.842333
Si Si3 0.114618 0.882386 0.406143
Si Si4 0.124167 0.454306 0.905611
Si Si5 0.458426 0.172872 0.408320
O O1 0.853764 0.515910 0.748229
O O2 0.789161 0.486759 0.597055
O O3 0.878224 0.386045 0.651127
O O4 0.000000 0.595289 0.633780
O O5 0.575435 0.152336 0.882389
O O6 0.784722 0.212352 0.871292
O O7 0.628299 0.000000 0.860367
O O8 0.112697 0.859895 0.500000
O O9 0.212185 0.872227 0.369676
O O10 0.000000 0.796033 0.367064
O O11 0.131302 0.000000 0.389222
O O12 0.000000 0.367647 0.876717
O O13 0.130269 0.448340 0.000000
O O14 0.458992 0.137261 0.500000
#
# Coordination Sequence:
#
# PCOD8327785 Si02
#       5
#    12  12  12  12  12
#     4  11  23  38  55  75 104 143 185 229 277 333
#     4  10  21  37  58  84 116 155 195 236 284 341
#     4   9  17  30  49  72  96 123 160 212 275 338
#     4  10  20  35  59  91 123 153 186 229 281 336
#     4  11  22  35  52  74 102 138 182 234 289 342
#
# _framework density 20.351140000000001
#
# number of rings (size 3 to 8) (size 9 to 14) (size 15 to 20)
#    0.000    1.800    0.000    4.600    0.000    5.200 
#    0.000    1.000    0.000    0.400    0.000    0.000 
#    0.000    0.000    0.000    0.000    0.000    0.000 
#
# Total GULP energy -743431.879425 kJ/mol
# GULP energy per Si atom -12390.531324 kJ/mol
# Density = 2.030482 g / cm^3
# Si number density = 20.351140 Si / 1000 Ang^3
#
#
#
# Elastic Constant Matrix: (Units=GPa)
#
#
# Indices 1 2 3 4 5 6 
#
# 1 104.2258 71.1463 31.7845 0.0000 0.0000 0.0000
# 2 71.1463 104.2258 31.7845 0.0000 0.0000 0.0000
# 3 31.7845 31.7845 56.8054 0.0000 0.0000 0.0000
# 4 0.0000 0.0000 0.0000 -3.9812 0.0000 0.0000
# 5 0.0000 0.0000 0.0000 0.0000 -3.9812 0.0000
# 6 0.0000 0.0000 0.0000 0.0000 0.0000 16.5398
#
#
#
# Elastic Compliance Matrix: (Units=1/GPa)
#
#
# Indices 1 2 3 4 5 6 
#
# 1 0.018692 -0.011539 -0.004002 0.000000 0.000000 0.000000
# 2 -0.011539 0.018692 -0.004002 0.000000 0.000000 0.000000
# 3 -0.004002 -0.004002 0.022083 0.000000 0.000000 0.000000
# 4 0.000000 0.000000 0.000000 -0.251180 0.000000 0.000000
# 5 0.000000 0.000000 0.000000 0.000000 -0.251180 0.000000
# 6 0.000000 0.000000 0.000000 0.000000 0.000000 0.060460
#
#
# Mechanical properties :
#
#
# Convention : Reuss Voigt Hill
#
# Bulk Modulus (GPa) = 49.06902 59.40972 54.23937
# Shear Modulus (GPa) = -14.85647 10.41824 -2.21911
#
# Velocity S-wave (km/s) = -2.70479 2.26503 -1.04536
# Velocity P-wave (km/s) = 3.79592 6.00801 5.02519
#
# Compressibility (1/GPa) = 0.02037946
#
# Stress axis : x y z
#
# Youngs Moduli (GPa) = 53.50009 53.50009 45.28411
#
# Poissons Ratio (x) = 0.61732 0.18124
# Poissons Ratio (y) = 0.61732 0.18124
# Poissons Ratio (z) = 0.21412 0.21412
#
# Static dielectric constant tensor:
#      x y z
#    x 4.008540 0.000000 0.000000 
#    y 0.000000 4.008540 0.000000 
#    z 0.000000 0.000000 3.394070 
# 
# 
# High freq. dielectric constant tensor:
#      x y z
#    x 1.803230 0.000000 0.000000 
#    y 0.000000 1.803230 0.000000 
#    z 0.000000 0.000000 1.764090 
# 
# From -- ./inp_files/2510.got.cif
#   From: 2010.03.12/outbox.cif.g09.slc.cpg/sg189_2_cif.got.tgz:2510.got - 2010.04.01 12:03:36.
