data_PCOD8327454
_publ_section_title
;
Structure prediction by ZEFSAII (Michael W. Deem and Ramdas Pophale) SiO2 
 PCOD8327454
Probable space group: P -6 C 2
;
_chemical_formula_sum "Si O2"
_cell_formula_units_Z 70
_cell_length_a 15.101966
_cell_length_b 15.101966
_cell_length_c 17.937357
_cell_angle_alpha 90.000000
_cell_angle_beta 90.000000
_cell_angle_gamma 120.000000
_cell_volume 3542.876877
_symmetry_space_group_name_H-M "P -6 C 2"
_symmetry_group_IT_number 188
_symmetry_cell_setting 'hexagonal'
loop_
_space_group_symop_operation_xyz
x,y,z
-x+y,-x,1/2-z
-y,x-y,z
x,y,1/2-z
-x+y,-x,z
-y,x-y,1/2-z
-y,-x,-z
-x+y,y,-z
x,x-y,-z
-x+y,y,1/2+z
x,x-y,1/2+z
-y,-x,1/2+z
loop_
_atom_site_type_symbol
_atom_site_label
_atom_site_fract_x
_atom_site_fract_y
_atom_site_fract_z
Si Si1 0.033022 0.664154 0.897399
Si Si2 0.868968 0.531759 0.493041
Si Si3 0.222106 0.074474 0.336173
Si Si4 0.002260 0.299421 0.884985
Si Si5 0.305867 0.865522 0.750000
Si Si6 0.000000 0.000000 0.838628
Si Si7 0.169620 0.339240 0.000000
Si Si8 0.361444 0.880124 0.250000
O O1 0.978546 0.730521 0.885108
O O2 0.138419 0.733105 0.944956
O O3 0.052355 0.620514 0.822658
O O4 0.949153 0.565698 0.939792
O O5 0.780197 0.560394 0.500000
O O6 0.818467 0.409234 0.500000
O O7 0.935823 0.589752 0.420288
O O8 0.227243 0.048859 0.250000
O O9 0.273669 0.195336 0.345469
O O10 0.108064 0.020918 0.368077
O O11 0.076520 0.378762 0.823651
O O12 0.068597 0.277601 0.947006
O O13 0.210450 0.753387 0.750000
O O14 0.400619 0.846235 0.750000
O O15 0.000000 0.000000 0.750000
#
# Coordination Sequence:
#
# PCOD8327454 Si02
#       8
#    12  12  12  12   6   4   6   6
#     4  11  22  40  64  92 126 167 212 258 316 381
#     4  11  23  41  63  92 126 164 211 261 317 378
#     4  11  20  36  60  95 130 170 213 256 303 362
#     4  11  22  40  64  92 126 167 212 258 316 381
#     4  12  25  43  68  92 120 160 212 269 321 374
#     4   9  21  27  51  91 134 160 201 241 287 367
#     4  10  22  36  62  92 126 166 206 246 314 374
#     4  12  25  43  68  92 120 160 212 269 321 374
#
# _framework density 19.757954000000002
#
# number of rings (size 3 to 8) (size 9 to 14) (size 15 to 20)
#    0.000    1.029    5.143    2.400    0.000    0.000 
#    0.000    1.714    0.000    0.000    0.000    0.000 
#    0.000    0.000    0.000    0.000    0.000    0.000 
#
# Total GULP energy -867494.777660 kJ/mol
# GULP energy per Si atom -12392.782538 kJ/mol
# Density = 1.971298 g / cm^3
# Si number density = 19.757954 Si / 1000 Ang^3
#
#
#
# Elastic Constant Matrix: (Units=GPa)
#
#
# Indices 1 2 3 4 5 6 
#
# 1 70.9994 2.4591 16.7082 -0.0001 0.0000 0.0000
# 2 2.4591 70.9994 16.7082 0.0001 0.0000 0.0000
# 3 16.7082 16.7082 94.0808 0.0000 0.0000 0.0000
# 4 -0.0001 0.0001 0.0000 22.8597 0.0000 0.0000
# 5 0.0000 0.0000 0.0000 0.0000 22.8597 -0.0001
# 6 0.0000 0.0000 0.0000 0.0000 -0.0001 34.2702
#
#
#
# Elastic Compliance Matrix: (Units=1/GPa)
#
#
# Indices 1 2 3 4 5 6 
#
# 1 0.014700 0.000110 -0.002630 0.000000 0.000000 0.000000
# 2 0.000110 0.014700 -0.002630 0.000000 0.000000 0.000000
# 3 -0.002630 -0.002630 0.011563 0.000000 0.000000 0.000000
# 4 0.000000 0.000000 0.000000 0.043745 0.000000 0.000000
# 5 0.000000 0.000000 0.000000 0.000000 0.043745 0.000000
# 6 0.000000 0.000000 0.000000 0.000000 0.000000 0.029180
#
#
# Mechanical properties :
#
#
# Convention : Reuss Voigt Hill
#
# Bulk Modulus (GPa) = 32.61357 34.20340 33.40849
# Shear Modulus (GPa) = 28.06552 29.34485 28.70519
#
# Velocity S-wave (km/s) = 3.77300 3.85803 3.81575
# Velocity P-wave (km/s) = 5.96012 6.09874 6.02983
#
# Compressibility (1/GPa) = 0.03066208
#
# Stress axis : x y z
#
# Youngs Moduli (GPa) = 68.02839 68.02839 86.48029
#
# Poissons Ratio (x) = -0.00747 0.22745
# Poissons Ratio (y) = -0.00747 0.22745
# Poissons Ratio (z) = 0.17892 0.17892
#
# Static dielectric constant tensor:
#      x y z
#    x 3.530610 0.000000 0.000000 
#    y 0.000000 3.530610 0.000000 
#    z 0.000000 0.000000 4.051500 
# 
# 
# High freq. dielectric constant tensor:
#      x y z
#    x 1.767030 0.000000 0.000000 
#    y 0.000000 1.767030 0.000000 
#    z 0.000000 0.000000 1.780480 
# 
# From -- ./inp_files/3245.got.cif
#   From: 2010.03.12/outbox.cif.g09.slc.cpg/sg188_2_cif.got.tgz:3245.got - 2010.04.01 12:01:06.
