data_PCOD8327846
_publ_section_title
;
Structure prediction by ZEFSAII (Michael W. Deem and Ramdas Pophale) SiO2 
 PCOD8327846
Probable space group: P -6 2 M
;
_chemical_formula_sum "Si O2"
_cell_formula_units_Z 64
_cell_length_a 21.299964
_cell_length_b 21.299964
_cell_length_c 8.741862
_cell_angle_alpha 90.000000
_cell_angle_beta 90.000000
_cell_angle_gamma 120.000000
_cell_volume 3434.727735
_symmetry_space_group_name_H-M "P -6 2 M"
_symmetry_group_IT_number 189
_symmetry_cell_setting 'hexagonal'
loop_
_space_group_symop_operation_xyz
x,y,z
-x+y,-x,-z
-y,x-y,z
x,y,-z
-x+y,-x,z
-y,x-y,-z
x-y,-y,-z
-x,-x+y,-z
y,x,-z
y,x,z
x-y,-y,z
-x,-x+y,z
loop_
_atom_site_type_symbol
_atom_site_label
_atom_site_fract_x
_atom_site_fract_y
_atom_site_fract_z
Si Si1 0.333334 0.666667 0.179880
Si Si2 0.434760 0.083859 0.176709
Si Si3 0.697505 0.918941 0.676519
Si Si4 0.918941 0.221443 0.323483
Si Si5 0.649112 0.083865 0.823310
Si Si6 0.588072 0.411909 0.678409
O O1 0.251445 0.625779 0.235091
O O2 0.333334 0.666668 0.000000
O O3 0.372383 0.101807 0.220732
O O4 0.504004 0.131677 0.279278
O O5 0.408039 0.000000 0.209299
O O6 0.455300 0.103342 0.000000
O O7 0.674181 0.913854 0.500000
O O8 0.725448 0.862721 0.713464
O O9 0.627621 0.898187 0.779263
O O10 0.762318 0.000000 0.715778
O O11 0.913847 0.239678 0.500000
O O12 0.000000 0.237686 0.284236
O O13 0.627645 0.131626 0.720654
O O14 0.591978 0.000000 0.790837
O O15 0.648084 0.103403 0.000000
O O16 0.596113 0.403904 0.500000
#
# Coordination Sequence:
#
# PCOD8327846 Si02
#       6
#     4  12  12  12  12  12
#     4  12  28  47  61  78 106 149 196 234 277 329
#     4  10  21  37  58  84 112 144 183 228 279 331
#     4   9  18  33  54  80 110 144 183 227 276 330
#     4   9  18  33  54  80 110 144 183 227 276 330
#     4  10  21  37  58  84 112 144 183 228 279 331
#     4  12  25  41  60  81 110 144 184 230 280 337
#
# _framework density 18.633208
#
# number of rings (size 3 to 8) (size 9 to 14) (size 15 to 20)
#    0.000    1.875    0.000    3.938    2.625    5.250 
#    0.000    0.000    0.000    0.375    0.000    2.625 
#    0.000    0.000    0.000    9.375    0.000    9.750 
#
# Total GULP energy -793801.628169 kJ/mol
# GULP energy per Si atom -12403.150440 kJ/mol
# Density = 1.859080 g / cm^3
# Si number density = 18.633208 Si / 1000 Ang^3
#
#
#
# Elastic Constant Matrix: (Units=GPa)
#
#
# Indices 1 2 3 4 5 6 
#
# 1 119.7054 70.9544 44.0944 0.0001 0.0000 0.0000
# 2 70.9544 119.7066 44.0947 0.0000 0.0000 0.0000
# 3 44.0944 44.0947 102.0353 -0.0001 0.0000 -0.0001
# 4 0.0001 0.0000 -0.0001 25.7424 0.0000 0.0000
# 5 0.0000 0.0000 0.0000 0.0000 25.7423 0.0000
# 6 0.0000 0.0000 -0.0001 0.0000 0.0000 24.3758
#
#
#
# Elastic Compliance Matrix: (Units=1/GPa)
#
#
# Indices 1 2 3 4 5 6 
#
# 1 0.013534 -0.006978 -0.002833 0.000000 0.000000 0.000000
# 2 -0.006978 0.013534 -0.002833 0.000000 0.000000 0.000000
# 3 -0.002833 -0.002833 0.012249 0.000000 0.000000 0.000000
# 4 0.000000 0.000000 0.000000 0.038846 0.000000 0.000000
# 5 0.000000 0.000000 0.000000 0.000000 0.038847 0.000000
# 6 0.000000 0.000000 0.000000 0.000000 0.000000 0.041024
#
#
# Mechanical properties :
#
#
# Convention : Reuss Voigt Hill
#
# Bulk Modulus (GPa) = 71.28569 73.30380 72.29475
# Shear Modulus (GPa) = 26.59601 27.32567 26.96084
#
# Velocity S-wave (km/s) = 3.78212 3.83365 3.80797
# Velocity P-wave (km/s) = 7.57713 7.68255 7.63003
#
# Compressibility (1/GPa) = 0.01402806
#
# Stress axis : x y z
#
# Youngs Moduli (GPa) = 73.88927 73.88995 81.63959
#
# Poissons Ratio (x) = 0.51564 0.23127
# Poissons Ratio (y) = 0.51563 0.23127
# Poissons Ratio (z) = 0.20932 0.20932
#
# Static dielectric constant tensor:
#      x y z
#    x 3.500360 0.000000 0.000000 
#    y 0.000000 3.500360 0.000000 
#    z 0.000000 0.000000 3.533350 
# 
# 
# High freq. dielectric constant tensor:
#      x y z
#    x 1.720460 0.000000 0.000000 
#    y 0.000000 1.720460 0.000000 
#    z 0.000000 0.000000 1.731160 
# 
# From -- ./inp_files/983.got.cif
#   From: 2010.03.12/outbox.cif.g09.slc.cpg/sg189_1_cif.got.tgz:983.got - 2010.04.01 12:03:36.
