data_PCOD8327888
_publ_section_title
;
Structure prediction by ZEFSAII (Michael W. Deem and Ramdas Pophale) SiO2 
 PCOD8327888
Probable space group: P -6 2 M
;
_chemical_formula_sum "Si O2"
_cell_formula_units_Z 60
_cell_length_a 21.089184
_cell_length_b 21.089184
_cell_length_c 9.035090
_cell_angle_alpha 90.000000
_cell_angle_beta 90.000000
_cell_angle_gamma 120.000000
_cell_volume 3480.027426
_symmetry_space_group_name_H-M "P -6 2 M"
_symmetry_group_IT_number 189
_symmetry_cell_setting 'hexagonal'
loop_
_space_group_symop_operation_xyz
x,y,z
-x+y,-x,-z
-y,x-y,z
x,y,-z
-x+y,-x,z
-y,x-y,-z
x-y,-y,-z
-x,-x+y,-z
y,x,-z
y,x,z
x-y,-y,z
-x,-x+y,z
loop_
_atom_site_type_symbol
_atom_site_label
_atom_site_fract_x
_atom_site_fract_y
_atom_site_fract_z
Si Si1 0.914807 0.556624 0.325388
Si Si2 0.293352 0.917348 0.173994
Si Si3 0.217342 0.217342 0.677198
Si Si4 0.921685 0.000000 0.673798
Si Si5 0.913350 0.415362 0.337327
Si Si6 0.213283 0.350569 0.175542
O O1 0.903379 0.561871 0.500000
O O2 0.889321 0.472847 0.279587
O O3 0.862348 0.576517 0.230571
O O4 0.000000 0.611611 0.284384
O O5 0.346009 0.887332 0.230895
O O6 0.211082 0.860211 0.224660
O O7 0.319494 0.000000 0.234112
O O8 0.299281 0.919352 0.000000
O O9 0.220804 0.220804 0.500000
O O10 0.146629 0.146629 0.748304
O O11 0.213372 0.285405 0.737616
O O12 0.910150 0.000000 0.500000
O O13 0.928002 0.928002 0.717553
O O14 0.879838 0.385991 0.500000
O O15 0.000000 0.459794 0.348856
O O16 0.216237 0.341675 0.000000
#
# Coordination Sequence:
#
# PCOD8327888 Si02
#       6
#    12  12   6   6  12  12
#     4   9  17  31  51  75 101 128 158 199 253 301
#     4   9  19  35  51  71 102 139 173 210 257 306
#     4  11  21  33  51  73  99 132 171 222 275 313
#     4   7  14  31  51  69  89 118 167 224 271 319
#     4   8  15  29  51  76  98 120 153 198 243 295
#     4  11  22  33  48  73 105 138 174 213 257 311
#
# _framework density 17.241243000000001
#
# number of rings (size 3 to 8) (size 9 to 14) (size 15 to 20)
#    0.200    2.600    1.000    2.100    0.000    3.200 
#    0.000    2.000    0.000    2.600    0.000    0.000 
#    0.000    0.000    0.000    0.000    0.000    0.000 
#
# Total GULP energy -743410.361092 kJ/mol
# GULP energy per Si atom -12390.172685 kJ/mol
# Density = 1.720200 g / cm^3
# Si number density = 17.241243 Si / 1000 Ang^3
#
#
#
# Elastic Constant Matrix: (Units=GPa)
#
#
# Indices 1 2 3 4 5 6 
#
# 1 112.6655 70.5306 41.4792 0.0000 0.0000 0.0000
# 2 70.5306 112.6655 41.4792 0.0000 0.0000 0.0000
# 3 41.4792 41.4792 43.9477 0.0000 0.0000 0.0000
# 4 0.0000 0.0000 0.0000 22.0021 0.0000 0.0000
# 5 0.0000 0.0000 0.0000 0.0000 22.0021 0.0000
# 6 0.0000 0.0000 0.0000 0.0000 0.0000 21.0674
#
#
#
# Elastic Compliance Matrix: (Units=1/GPa)
#
#
# Indices 1 2 3 4 5 6 
#
# 1 0.016633 -0.007100 -0.008998 0.000000 0.000000 0.000000
# 2 -0.007100 0.016633 -0.008998 0.000000 0.000000 0.000000
# 3 -0.008998 -0.008998 0.039739 0.000000 0.000000 0.000000
# 4 0.000000 0.000000 0.000000 0.045450 0.000000 0.000000
# 5 0.000000 0.000000 0.000000 0.000000 0.045450 0.000000
# 6 0.000000 0.000000 0.000000 0.000000 0.000000 0.047467
#
#
# Mechanical properties :
#
#
# Convention : Reuss Voigt Hill
#
# Bulk Modulus (GPa) = 43.83182 64.02852 53.93017
# Shear Modulus (GPa) = 18.57577 20.73364 19.65470
#
# Velocity S-wave (km/s) = 3.28594 3.47156 3.38002
# Velocity P-wave (km/s) = 6.31462 7.29975 6.82498
#
# Compressibility (1/GPa) = 0.02281447
#
# Stress axis : x y z
#
# Youngs Moduli (GPa) = 60.12070 60.12070 25.16431
#
# Poissons Ratio (x) = 0.42686 0.22642
# Poissons Ratio (y) = 0.42686 0.22642
# Poissons Ratio (z) = 0.54094 0.54094
#
# Static dielectric constant tensor:
#      x y z
#    x 3.417500 0.000000 0.000000 
#    y 0.000000 3.417500 0.000000 
#    z 0.000000 0.000000 3.135770 
# 
# 
# High freq. dielectric constant tensor:
#      x y z
#    x 1.654680 0.000000 0.000000 
#    y 0.000000 1.654680 0.000000 
#    z 0.000000 0.000000 1.655020 
# 
# From -- ./inp_files/988.got.cif
#   From: 2010.03.12/outbox.cif.g09.slc.cpg/sg189_1_cif.got.tgz:988.got - 2010.04.01 12:03:36.
