data_PCOD8327055
_publ_section_title
;
Structure prediction by ZEFSAII (Michael W. Deem and Ramdas Pophale) SiO2 
 PCOD8327055
Probable space group: P -6 M 2
;
_chemical_formula_sum "Si O2"
_cell_formula_units_Z 54
_cell_length_a 12.962917
_cell_length_b 12.962917
_cell_length_c 22.499506
_cell_angle_alpha 90.000000
_cell_angle_beta 90.000000
_cell_angle_gamma 120.000000
_cell_volume 3274.229335
_symmetry_space_group_name_H-M "P -6 M 2"
_symmetry_group_IT_number 187
_symmetry_cell_setting 'hexagonal'
loop_
_space_group_symop_operation_xyz
x,y,z
-x+y,-x,-z
-y,x-y,z
x,y,-z
-x+y,-x,z
-y,x-y,-z
-y,-x,-z
-x+y,y,-z
x,x-y,-z
-x+y,y,z
x,x-y,z
-y,-x,z
loop_
_atom_site_type_symbol
_atom_site_label
_atom_site_fract_x
_atom_site_fract_y
_atom_site_fract_z
Si Si1 0.908401 0.575057 0.166506
Si Si2 0.096415 0.429764 0.734966
Si Si3 0.909170 0.574633 0.500000
Si Si4 0.763021 0.763094 0.931978
Si Si5 0.333387 0.429289 0.598866
O O1 0.779921 0.559841 0.175685
O O2 0.892959 0.446480 0.157336
O O3 0.984637 0.641133 0.224655
O O4 0.974545 0.651234 0.108348
O O5 0.207858 0.415715 0.753614
O O6 0.133758 0.566879 0.744879
O O7 0.058977 0.391200 0.666956
O O8 0.791236 0.582472 0.500000
O O9 0.874243 0.437122 0.500000
O O10 0.984208 0.641651 0.441553
O O11 0.749331 0.874666 0.913120
O O12 0.900050 0.800099 0.922185
O O13 0.724115 0.726024 0.000000
O O14 0.208330 0.416660 0.580352
O O15 0.434075 0.565926 0.588133
#
# Coordination Sequence:
#
# PCOD8327055 Si02
#       5
#    12  12   6  12  12
#     4  10  20  32  46  66  94 128 162 192 222 262
#     4   9  17  30  49  72  95 118 147 187 236 284
#     4  10  20  32  46  66  94 128 162 192 222 262
#     4   9  17  30  49  71  92 115 147 190 237 279
#     4   9  17  30  50  74  95 115 144 188 239 283
#
# _framework density 16.492429000000001
#
# number of rings (size 3 to 8) (size 9 to 14) (size 15 to 20)
#    0.000    2.667    0.000    2.000    0.000    4.000 
#    0.000    1.111    0.000    6.667    0.000    0.000 
#    0.000    0.000    0.000    0.000    0.000    0.000 
#
# Total GULP energy -669682.161184 kJ/mol
# GULP energy per Si atom -12401.521503 kJ/mol
# Density = 1.645489 g / cm^3
# Si number density = 16.492429 Si / 1000 Ang^3
#
#
#
# Elastic Constant Matrix: (Units=GPa)
#
#
# Indices 1 2 3 4 5 6 
#
# 1 120.5407 73.2430 71.9343 0.0000 -0.0001 0.0000
# 2 73.2430 120.5407 71.9343 0.0000 0.0001 0.0000
# 3 71.9343 71.9343 106.9328 0.0000 0.0000 0.0000
# 4 0.0000 0.0000 0.0000 26.3306 0.0000 0.0001
# 5 -0.0001 0.0001 0.0000 0.0000 26.3306 0.0000
# 6 0.0000 0.0000 0.0000 0.0001 0.0000 23.6489
#
#
#
# Elastic Compliance Matrix: (Units=1/GPa)
#
#
# Indices 1 2 3 4 5 6 
#
# 1 0.015726 -0.005417 -0.006935 0.000000 0.000000 0.000000
# 2 -0.005417 0.015726 -0.006935 0.000000 0.000000 0.000000
# 3 -0.006935 -0.006935 0.018682 0.000000 0.000000 0.000000
# 4 0.000000 0.000000 0.000000 0.037979 0.000000 0.000000
# 5 0.000000 0.000000 0.000000 0.000000 0.037979 0.000000
# 6 0.000000 0.000000 0.000000 0.000000 0.000000 0.042285
#
#
# Mechanical properties :
#
#
# Convention : Reuss Voigt Hill
#
# Bulk Modulus (GPa) = 86.50292 86.91526 86.70909
# Shear Modulus (GPa) = 23.71882 23.98886 23.85384
#
# Velocity S-wave (km/s) = 3.79643 3.81798 3.80722
# Velocity P-wave (km/s) = 8.47237 8.50003 8.48621
#
# Compressibility (1/GPa) = 0.01156030
#
# Stress axis : x y z
#
# Youngs Moduli (GPa) = 63.58956 63.58956 53.52740
#
# Poissons Ratio (x) = 0.34445 0.37121
# Poissons Ratio (y) = 0.34445 0.37121
# Poissons Ratio (z) = 0.44099 0.44099
#
# Static dielectric constant tensor:
#      x y z
#    x 2.998370 0.000000 0.000000 
#    y 0.000000 2.998370 0.000000 
#    z 0.000000 0.000000 3.308170 
# 
# 
# High freq. dielectric constant tensor:
#      x y z
#    x 1.627830 0.000000 0.000000 
#    y 0.000000 1.627830 0.000000 
#    z 0.000000 0.000000 1.645410 
# 
# From -- ./inp_files/3846.got.cif
#   From: 2010.03.12/outbox.cif.g09.slc.cpg/sg187_2_cif.got.tgz:3846.got - 2010.04.01 11:58:23.
