data_PCOD8327179
_publ_section_title
;
Structure prediction by ZEFSAII (Michael W. Deem and Ramdas Pophale) SiO2 
 PCOD8327179
Probable space group: P -6 M 2
;
_chemical_formula_sum "Si O2"
_cell_formula_units_Z 54
_cell_length_a 12.508074
_cell_length_b 12.508074
_cell_length_c 22.938279
_cell_angle_alpha 90.000000
_cell_angle_beta 90.000000
_cell_angle_gamma 120.000000
_cell_volume 3107.937999
_symmetry_space_group_name_H-M "P -6 M 2"
_symmetry_group_IT_number 187
_symmetry_cell_setting 'hexagonal'
loop_
_space_group_symop_operation_xyz
x,y,z
-x+y,-x,-z
-y,x-y,z
x,y,-z
-x+y,-x,z
-y,x-y,-z
-y,-x,-z
-x+y,y,-z
x,x-y,-z
-x+y,y,z
x,x-y,z
-y,-x,z
loop_
_atom_site_type_symbol
_atom_site_label
_atom_site_fract_x
_atom_site_fract_y
_atom_site_fract_z
Si Si1 0.912357 0.578835 0.433882
Si Si2 0.665296 0.082441 0.000000
Si Si3 0.583973 0.917248 0.110359
Si Si4 0.581858 0.914783 0.670669
Si Si5 0.248452 0.998457 0.779520
O O1 0.955213 0.623491 0.500000
O O2 0.796894 0.593788 0.416214
O O3 0.871111 0.435556 0.426542
O O4 0.026436 0.663719 0.392123
O O5 0.656961 0.004400 0.943365
O O6 0.795335 0.204666 0.000000
O O7 0.559424 0.118847 0.000000
O O8 0.447370 0.894740 0.116080
O O9 0.572946 0.786473 0.099507
O O10 0.657022 0.981565 0.168888
O O11 0.460144 0.920287 0.685915
O O12 0.546070 0.773035 0.669907
O O13 0.684022 0.992054 0.718832
O O14 0.105001 0.895000 0.782581
O O15 0.261177 0.130589 0.785662
#
# Coordination Sequence:
#
# PCOD8327179 Si02
#       5
#    12   6  12  12  12
#     4   9  17  30  49  72  97 126 161 202 247 293
#     4  10  20  34  52  74 102 136 172 210 252 296
#     4  10  20  34  54  78 104 134 167 205 247 293
#     4  10  20  33  50  72  99 131 165 202 244 291
#     4  10  20  34  52  73  98 129 165 205 248 294
#
# _framework density 17.374863999999999
#
# number of rings (size 3 to 8) (size 9 to 14) (size 15 to 20)
#    0.000    2.222    0.000    3.333    0.000    1.333 
#    0.000    3.333    0.000   11.111    0.000    0.000 
#    0.000    0.000    0.000    0.000    0.000    0.000 
#
# Total GULP energy -669771.040386 kJ/mol
# GULP energy per Si atom -12403.167415 kJ/mol
# Density = 1.733532 g / cm^3
# Si number density = 17.374864 Si / 1000 Ang^3
#
#
#
# Elastic Constant Matrix: (Units=GPa)
#
#
# Indices 1 2 3 4 5 6 
#
# 1 98.7708 56.6477 49.9150 0.0000 0.0000 0.0000
# 2 56.6477 98.7708 49.9150 0.0000 0.0000 0.0000
# 3 49.9150 49.9150 111.3191 0.0000 0.0000 0.0000
# 4 0.0000 0.0000 0.0000 24.8804 0.0000 0.0000
# 5 0.0000 0.0000 0.0000 0.0000 24.8804 0.0000
# 6 0.0000 0.0000 0.0000 0.0000 0.0000 21.0616
#
#
#
# Elastic Compliance Matrix: (Units=1/GPa)
#
#
# Indices 1 2 3 4 5 6 
#
# 1 0.016389 -0.007351 -0.004052 0.000000 0.000000 0.000000
# 2 -0.007351 0.016389 -0.004052 0.000000 0.000000 0.000000
# 3 -0.004052 -0.004052 0.012617 0.000000 0.000000 0.000000
# 4 0.000000 0.000000 0.000000 0.040192 0.000000 0.000000
# 5 0.000000 0.000000 0.000000 0.000000 0.040192 0.000000
# 6 0.000000 0.000000 0.000000 0.000000 0.000000 0.047480
#
#
# Mechanical properties :
#
#
# Convention : Reuss Voigt Hill
#
# Bulk Modulus (GPa) = 69.04855 69.09068 69.06962
# Shear Modulus (GPa) = 23.92371 24.32334 24.12352
#
# Velocity S-wave (km/s) = 3.71471 3.74560 3.73019
# Velocity P-wave (km/s) = 7.63056 7.65226 7.64142
#
# Compressibility (1/GPa) = 0.01448256
#
# Stress axis : x y z
#
# Youngs Moduli (GPa) = 61.01836 61.01836 79.25719
#
# Poissons Ratio (x) = 0.44857 0.32117
# Poissons Ratio (y) = 0.44857 0.32117
# Poissons Ratio (z) = 0.24726 0.24726
#
# Static dielectric constant tensor:
#      x y z
#    x 3.159930 0.000000 0.000000 
#    y 0.000000 3.159930 0.000000 
#    z 0.000000 0.000000 3.445400 
# 
# 
# High freq. dielectric constant tensor:
#      x y z
#    x 1.671510 0.000000 0.000000 
#    y 0.000000 1.671510 0.000000 
#    z 0.000000 0.000000 1.687340 
# 
# From -- ./inp_files/3845.got.cif
#   From: 2010.03.12/outbox.cif.g09.slc.cpg/sg187_2_cif.got.tgz:3845.got - 2010.04.01 11:58:23.
