data_PCOD8327195
_publ_section_title
;
Structure prediction by ZEFSAII (Michael W. Deem and Ramdas Pophale) SiO2 
 PCOD8327195
Probable space group: P -6 M 2
;
_chemical_formula_sum "Si O2"
_cell_formula_units_Z 72
_cell_length_a 12.404861
_cell_length_b 12.404861
_cell_length_c 30.755538
_cell_angle_alpha 90.000000
_cell_angle_beta 90.000000
_cell_angle_gamma 120.000000
_cell_volume 4098.621035
_symmetry_space_group_name_H-M "P -6 M 2"
_symmetry_group_IT_number 187
_symmetry_cell_setting 'hexagonal'
loop_
_space_group_symop_operation_xyz
x,y,z
-x+y,-x,-z
-y,x-y,z
x,y,-z
-x+y,-x,z
-y,x-y,-z
-y,-x,-z
-x+y,y,-z
x,x-y,-z
-x+y,y,z
x,x-y,z
-y,-x,z
loop_
_atom_site_type_symbol
_atom_site_label
_atom_site_fract_x
_atom_site_fract_y
_atom_site_fract_z
Si Si1 0.919747 0.586520 0.082734
Si Si2 0.668688 0.585993 0.500000
Si Si3 0.079775 0.666350 0.000000
Si Si4 0.998662 0.250774 0.165542
Si Si5 0.081931 0.666759 0.668196
Si Si6 0.415635 0.333389 0.751430
Si Si7 0.747713 0.999771 0.584119
O O1 0.786620 0.573240 0.076910
O O2 0.899276 0.449638 0.084142
O O3 0.004222 0.664573 0.042437
O O4 0.985837 0.655719 0.126974
O O5 0.534781 0.465220 0.500000
O O6 0.772140 0.544280 0.500000
O O7 0.681503 0.667506 0.458153
O O8 0.209232 0.790769 0.000000
O O9 0.106057 0.553029 0.000000
O O10 0.130385 0.260769 0.161493
O O11 0.992059 0.309513 0.210989
O O12 0.892888 0.107113 0.162302
O O13 0.109805 0.554903 0.663177
O O14 0.209885 0.790116 0.679203
O O15 0.021036 0.678829 0.624166
O O16 0.985356 0.643233 0.706352
O O17 0.447053 0.223527 0.748209
O O18 0.541570 0.458431 0.762622
O O19 0.770761 0.885381 0.577048
O O20 0.879529 0.120471 0.593245
#
# Coordination Sequence:
#
# PCOD8327195 Si02
#       7
#    12   6   6  12  12  12  12
#     4  10  20  34  54  78 104 134 168 209 254 300
#     4  10  20  34  52  74 100 130 164 202 246 296
#     4  10  20  34  52  74 102 136 172 210 252 300
#     4  10  20  34  52  74 101 133 168 206 249 298
#     4  10  20  34  52  74 102 136 172 210 252 300
#     4  10  20  34  53  76 102 132 167 209 255 302
#     4  10  20  34  53  76 102 132 167 208 253 300
#
# _framework density 17.566884000000002
#
# number of rings (size 3 to 8) (size 9 to 14) (size 15 to 20)
#    0.000    2.000    0.000    4.000    0.000    0.000 
#    0.000    3.333    0.000   20.000    0.000    0.000 
#    0.000    0.000    0.000    0.000    0.000    0.000 
#
# Total GULP energy -893114.803273 kJ/mol
# GULP energy per Si atom -12404.372268 kJ/mol
# Density = 1.752690 g / cm^3
# Si number density = 17.566884 Si / 1000 Ang^3
#
#
#
# Elastic Constant Matrix: (Units=GPa)
#
#
# Indices 1 2 3 4 5 6 
#
# 1 68.8871 31.1532 28.3395 0.0000 -0.0004 0.0000
# 2 31.1532 68.8871 28.3395 0.0000 0.0004 0.0000
# 3 28.3395 28.3395 85.2025 0.0000 0.0000 0.0000
# 4 0.0000 0.0000 0.0000 25.7990 0.0000 0.0004
# 5 -0.0004 0.0004 0.0000 0.0000 25.7990 0.0000
# 6 0.0000 0.0000 0.0000 0.0004 0.0000 18.8669
#
#
#
# Elastic Compliance Matrix: (Units=1/GPa)
#
#
# Indices 1 2 3 4 5 6 
#
# 1 0.019409 -0.007092 -0.004097 0.000000 0.000000 0.000000
# 2 -0.007092 0.019409 -0.004097 0.000000 0.000000 0.000000
# 3 -0.004097 -0.004097 0.014462 0.000000 0.000000 0.000000
# 4 0.000000 0.000000 0.000000 0.038761 0.000000 -0.000001
# 5 0.000000 0.000000 0.000000 0.000000 0.038761 0.000000
# 6 0.000000 0.000000 0.000000 -0.000001 0.000000 0.053003
#
#
# Mechanical properties :
#
#
# Convention : Reuss Voigt Hill
#
# Bulk Modulus (GPa) = 44.03560 44.29349 44.16454
# Shear Modulus (GPa) = 22.52790 23.10262 22.81526
#
# Velocity S-wave (km/s) = 3.58496 3.63040 3.60775
# Velocity P-wave (km/s) = 6.50059 6.54538 6.52302
#
# Compressibility (1/GPa) = 0.02270890
#
# Stress axis : x y z
#
# Youngs Moduli (GPa) = 51.52183 51.52183 69.14640
#
# Poissons Ratio (x) = 0.36540 0.28328
# Poissons Ratio (y) = 0.36540 0.28328
# Poissons Ratio (z) = 0.21108 0.21108
#
# Static dielectric constant tensor:
#      x y z
#    x 3.265140 0.000000 0.000000 
#    y 0.000000 3.265140 0.000000 
#    z 0.000000 0.000000 3.529710 
# 
# 
# High freq. dielectric constant tensor:
#      x y z
#    x 1.686800 0.000000 0.000000 
#    y 0.000000 1.686800 0.000000 
#    z 0.000000 0.000000 1.697410 
# 
# From -- ./inp_files/4540.got.cif
#   From: 2010.03.12/outbox.cif.g09.slc.cpg/sg187_3_cif.got.tgz:4540.got - 2010.04.01 11:58:23.
