data_PCOD8327524
_publ_section_title
;
Structure prediction by ZEFSAII (Michael W. Deem and Ramdas Pophale) SiO2 
 PCOD8327524
Probable space group: P -6 2 M
;
_chemical_formula_sum "Si O2"
_cell_formula_units_Z 60
_cell_length_a 21.026795
_cell_length_b 21.026795
_cell_length_c 9.292849
_cell_angle_alpha 90.000000
_cell_angle_beta 90.000000
_cell_angle_gamma 120.000000
_cell_volume 3558.161639
_symmetry_space_group_name_H-M "P -6 2 M"
_symmetry_group_IT_number 189
_symmetry_cell_setting 'hexagonal'
loop_
_space_group_symop_operation_xyz
x,y,z
-x+y,-x,-z
-y,x-y,z
x,y,-z
-x+y,-x,z
-y,x-y,-z
x-y,-y,-z
-x,-x+y,-z
y,x,-z
y,x,z
x-y,-y,z
-x,-x+y,z
loop_
_atom_site_type_symbol
_atom_site_label
_atom_site_fract_x
_atom_site_fract_y
_atom_site_fract_z
Si Si1 0.914159 0.545933 0.333182
Si Si2 0.299965 0.915392 0.330678
Si Si3 0.204130 0.204130 0.670624
Si Si4 0.000000 0.919049 0.841478
Si Si5 0.912917 0.423249 0.161845
Si Si6 0.205916 0.346804 0.329754
O O1 0.901418 0.523232 0.500000
O O2 0.883643 0.471764 0.240688
O O3 0.867084 0.583575 0.283550
O O4 0.000000 0.603038 0.304787
O O5 0.307760 0.906416 0.500000
O O6 0.348692 0.887320 0.249448
O O7 0.216921 0.863096 0.275159
O O8 0.325396 0.000000 0.292586
O O9 0.209089 0.209089 0.500000
O O10 0.131109 0.131109 0.714590
O O11 0.200826 0.273510 0.736149
O O12 0.927771 0.927771 0.826125
O O13 0.000000 0.886534 0.000000
O O14 0.000000 0.469171 0.160248
O O15 0.881129 0.404619 0.000000
O O16 0.203231 0.340109 0.500000
#
# Coordination Sequence:
#
# PCOD8327524 Si02
#       6
#    12  12   6   6  12  12
#     4   9  15  27  48  70  93 124 154 184 233 292
#     4   9  17  30  47  68  95 131 168 198 237 291
#     4  10  18  30  50  76 102 125 160 213 262 295
#     4   8  18  36  50  60  86 129 176 217 256 305
#     4   9  17  29  46  68  93 116 147 195 237 276
#     4   9  17  29  47  73 104 130 158 202 249 294
#
# _framework density 16.862639999999999
#
# number of rings (size 3 to 8) (size 9 to 14) (size 15 to 20)
#    0.200    2.800    1.000    0.600    0.000    3.600 
#    0.000    5.000    0.000    3.200    0.000    2.800 
#    0.000    0.000    0.000    0.000    0.000    0.000 
#
# Total GULP energy -743710.062362 kJ/mol
# GULP energy per Si atom -12395.167706 kJ/mol
# Density = 1.682426 g / cm^3
# Si number density = 16.862640 Si / 1000 Ang^3
#
#
#
# Elastic Constant Matrix: (Units=GPa)
#
#
# Indices 1 2 3 4 5 6 
#
# 1 114.3863 65.8199 37.6695 0.0000 0.0000 0.0000
# 2 65.8199 114.3863 37.6695 0.0000 0.0000 0.0000
# 3 37.6695 37.6695 51.3241 0.0000 0.0000 0.0000
# 4 0.0000 0.0000 0.0000 10.8022 0.0000 0.0000
# 5 0.0000 0.0000 0.0000 0.0000 10.8022 0.0000
# 6 0.0000 0.0000 0.0000 0.0000 0.0000 24.2832
#
#
#
# Elastic Compliance Matrix: (Units=1/GPa)
#
#
# Indices 1 2 3 4 5 6 
#
# 1 0.014298 -0.006292 -0.005876 0.000000 0.000000 0.000000
# 2 -0.006292 0.014298 -0.005876 0.000000 0.000000 0.000000
# 3 -0.005876 -0.005876 0.028109 0.000000 0.000000 0.000000
# 4 0.000000 0.000000 0.000000 0.092574 0.000000 0.000000
# 5 0.000000 0.000000 0.000000 0.000000 0.092574 0.000000
# 6 0.000000 0.000000 0.000000 0.000000 0.000000 0.041181
#
#
# Mechanical properties :
#
#
# Convention : Reuss Voigt Hill
#
# Bulk Modulus (GPa) = 48.50289 62.49051 55.49670
# Shear Modulus (GPa) = 15.33769 18.44004 16.88887
#
# Velocity S-wave (km/s) = 3.01917 3.31047 3.16817
# Velocity P-wave (km/s) = 6.40155 7.19383 6.80923
#
# Compressibility (1/GPa) = 0.02061733
#
# Stress axis : x y z
#
# Youngs Moduli (GPa) = 69.93973 69.93973 35.57556
#
# Poissons Ratio (x) = 0.44008 0.20904
# Poissons Ratio (y) = 0.44008 0.20904
# Poissons Ratio (z) = 0.41095 0.41095
#
# Static dielectric constant tensor:
#      x y z
#    x 3.147210 0.000000 0.000000 
#    y 0.000000 3.147210 0.000000 
#    z 0.000000 0.000000 2.996050 
# 
# 
# High freq. dielectric constant tensor:
#      x y z
#    x 1.636520 0.000000 0.000000 
#    y 0.000000 1.636520 0.000000 
#    z 0.000000 0.000000 1.628780 
# 
# From -- ./inp_files/990.got.cif
#   From: 2010.03.12/outbox.cif.g09.slc.cpg/sg189_1_cif.got.tgz:990.got - 2010.04.01 12:03:36.
