data_PCOD8327123
_publ_section_title
;
Structure prediction by ZEFSAII (Michael W. Deem and Ramdas Pophale) SiO2 
 PCOD8327123
Probable space group: P -6 M 2
;
_chemical_formula_sum "Si O2"
_cell_formula_units_Z 66
_cell_length_a 12.601951
_cell_length_b 12.601951
_cell_length_c 28.391365
_cell_angle_alpha 90.000000
_cell_angle_beta 90.000000
_cell_angle_gamma 120.000000
_cell_volume 3904.743206
_symmetry_space_group_name_H-M "P -6 M 2"
_symmetry_group_IT_number 187
_symmetry_cell_setting 'hexagonal'
loop_
_space_group_symop_operation_xyz
x,y,z
-x+y,-x,-z
-y,x-y,z
x,y,-z
-x+y,-x,z
-y,x-y,-z
-y,-x,-z
-x+y,y,-z
x,x-y,-z
-x+y,y,z
x,x-y,z
-y,-x,z
loop_
_atom_site_type_symbol
_atom_site_label
_atom_site_fract_x
_atom_site_fract_y
_atom_site_fract_z
Si Si1 0.753172 0.000347 0.136795
Si Si2 0.333219 0.910373 0.053521
Si Si3 0.913436 0.581818 0.775877
Si Si4 0.667163 0.584134 0.398091
Si Si5 0.667159 0.579591 0.500000
Si Si6 0.999223 0.751039 0.312203
O O1 0.751444 0.875722 0.148512
O O2 0.690878 0.995629 0.086848
O O3 0.678092 0.022365 0.177095
O O4 0.892802 0.107199 0.134753
O O5 0.462544 0.925088 0.067966
O O6 0.231602 0.768399 0.059796
O O7 0.335155 0.953889 0.000000
O O8 0.771008 0.542015 0.774725
O O9 0.925325 0.462663 0.774356
O O10 0.983491 0.664120 0.731236
O O11 0.777334 0.554667 0.393118
O O12 0.541035 0.458966 0.389117
O O13 0.668597 0.643454 0.450013
O O14 0.682113 0.684088 0.360030
O O15 0.552241 0.447760 0.500000
O O16 0.777958 0.555916 0.500000
O O17 0.892480 0.784960 0.313263
O O18 0.126057 0.873944 0.306399
#
# Coordination Sequence:
#
# PCOD8327123 Si02
#       6
#    12  12  12  12   6  12
#     4  10  20  33  50  72  99 131 164 196 230 273
#     4   9  17  30  49  72  97 126 161 201 243 284
#     4  10  20  34  53  75  97 120 149 190 239 287
#     4   9  16  27  46  71  97 122 150 189 236 283
#     4   8  13  22  39  66  96 122 148 182 230 282
#     4  10  20  33  49  68  93 126 161 194 227 270
#
# _framework density 16.902519000000002
#
# number of rings (size 3 to 8) (size 9 to 14) (size 15 to 20)
#    0.000    2.545    0.000    2.636    0.000    2.545 
#    0.000    4.091    0.000    9.091    0.000    1.273 
#    0.000    0.000    0.000    0.000    0.000    0.000 
#
# Total GULP energy -818129.567453 kJ/mol
# GULP energy per Si atom -12395.902537 kJ/mol
# Density = 1.686405 g / cm^3
# Si number density = 16.902519 Si / 1000 Ang^3
#
#
#
# Elastic Constant Matrix: (Units=GPa)
#
#
# Indices 1 2 3 4 5 6 
#
# 1 96.4336 58.6878 59.5618 0.0000 0.0000 0.0000
# 2 58.6878 96.4336 59.5618 0.0000 0.0000 0.0000
# 3 59.5618 59.5618 136.5111 0.0000 0.0000 0.0000
# 4 0.0000 0.0000 0.0000 20.9754 0.0000 0.0000
# 5 0.0000 0.0000 0.0000 0.0000 20.9754 0.0000
# 6 0.0000 0.0000 0.0000 0.0000 0.0000 18.8729
#
#
#
# Elastic Compliance Matrix: (Units=1/GPa)
#
#
# Indices 1 2 3 4 5 6 
#
# 1 0.018094 -0.008399 -0.004230 0.000000 0.000000 0.000000
# 2 -0.008399 0.018094 -0.004230 0.000000 0.000000 0.000000
# 3 -0.004230 -0.004230 0.011017 0.000000 0.000000 0.000000
# 4 0.000000 0.000000 0.000000 0.047675 0.000000 0.000000
# 5 0.000000 0.000000 0.000000 0.000000 0.047675 0.000000
# 6 0.000000 0.000000 0.000000 0.000000 0.000000 0.052986
#
#
# Mechanical properties :
#
#
# Convention : Reuss Voigt Hill
#
# Bulk Modulus (GPa) = 74.14874 76.11124 75.12999
# Shear Modulus (GPa) = 21.38998 22.26920 21.82959
#
# Velocity S-wave (km/s) = 3.56123 3.63369 3.59764
# Velocity P-wave (km/s) = 7.80215 7.92037 7.86148
#
# Compressibility (1/GPa) = 0.01348641
#
# Stress axis : x y z
#
# Youngs Moduli (GPa) = 55.26692 55.26692 90.77140
#
# Poissons Ratio (x) = 0.46419 0.38397
# Poissons Ratio (y) = 0.46419 0.38397
# Poissons Ratio (z) = 0.23378 0.23378
#
# Static dielectric constant tensor:
#      x y z
#    x 2.967320 0.000000 0.000000 
#    y 0.000000 2.967320 0.000000 
#    z 0.000000 0.000000 3.658890 
# 
# 
# High freq. dielectric constant tensor:
#      x y z
#    x 1.636300 0.000000 0.000000 
#    y 0.000000 1.636300 0.000000 
#    z 0.000000 0.000000 1.676250 
# 
# From -- ./inp_files/4397.got.cif
#   From: 2010.03.12/outbox.cif.g09.slc.cpg/sg187_3_cif.got.tgz:4397.got - 2010.04.01 11:58:23.
