data_PCOD8327697
_publ_section_title
;
Structure prediction by ZEFSAII (Michael W. Deem and Ramdas Pophale) SiO2 
 PCOD8327697
Probable space group: P -6 2 M
;
_chemical_formula_sum "Si O2"
_cell_formula_units_Z 40
_cell_length_a 19.023966
_cell_length_b 19.023966
_cell_length_c 8.888952
_cell_angle_alpha 90.000000
_cell_angle_beta 90.000000
_cell_angle_gamma 120.000000
_cell_volume 2786.014131
_symmetry_space_group_name_H-M "P -6 2 M"
_symmetry_group_IT_number 189
_symmetry_cell_setting 'hexagonal'
loop_
_space_group_symop_operation_xyz
x,y,z
-x+y,-x,-z
-y,x-y,z
x,y,-z
-x+y,-x,z
-y,x-y,-z
x-y,-y,-z
-x,-x+y,-z
y,x,-z
y,x,z
x-y,-y,z
-x,-x+y,z
loop_
_atom_site_type_symbol
_atom_site_label
_atom_site_fract_x
_atom_site_fract_y
_atom_site_fract_z
Si Si1 0.755251 0.250254 0.324274
Si Si2 0.091411 0.453256 0.176116
Si Si3 0.333334 0.666668 0.178363
Si Si4 0.509840 0.909642 0.327206
O O1 0.759235 0.268256 0.500000
O O2 0.845600 0.278522 0.261840
O O3 0.728936 0.307193 0.238987
O O4 0.693736 0.155338 0.288120
O O5 0.106800 0.541457 0.223496
O O6 0.000000 0.384565 0.219969
O O7 0.106355 0.454437 0.000000
O O8 0.333334 0.666668 0.000000
O O9 0.480375 0.899493 0.500000
O O10 0.585676 0.000000 0.298277
#
# Coordination Sequence:
#
# PCOD8327697 Si02
#       4
#    12  12   4  12
#     4  11  20  30  45  62  82 109 142 177 214 255
#     4  10  20  31  43  60  82 109 141 176 213 249
#     4  12  22  29  40  60  85 110 142 183 214 245
#     4   9  18  31  45  60  80 106 137 174 213 252
#
# _framework density 14.357429
#
# number of rings (size 3 to 8) (size 9 to 14) (size 15 to 20)
#    0.000    1.800    3.000    2.700    0.000    3.000 
#    0.000    0.000    0.000    0.000    0.000    0.000 
#    0.000    0.000    0.000    0.900    0.000   13.800 
#
# Total GULP energy -495907.530850 kJ/mol
# GULP energy per Si atom -12397.688271 kJ/mol
# Density = 1.432475 g / cm^3
# Si number density = 14.357429 Si / 1000 Ang^3
#
#
#
# Elastic Constant Matrix: (Units=GPa)
#
#
# Indices 1 2 3 4 5 6 
#
# 1 76.4361 33.8386 29.2138 0.0002 -0.0001 0.0002
# 2 33.8386 76.4368 29.2140 0.0000 -0.0001 -0.0002
# 3 29.2138 29.2140 71.9984 0.0001 0.0001 0.0001
# 4 0.0002 0.0000 0.0001 18.2590 -0.0001 0.0000
# 5 -0.0001 -0.0001 0.0001 -0.0001 18.2592 -0.0001
# 6 0.0002 -0.0002 0.0001 0.0000 -0.0001 21.2984
#
#
#
# Elastic Compliance Matrix: (Units=1/GPa)
#
#
# Indices 1 2 3 4 5 6 
#
# 1 0.017514 -0.005962 -0.004687 0.000000 0.000000 0.000000
# 2 -0.005962 0.017513 -0.004687 0.000000 0.000000 0.000000
# 3 -0.004687 -0.004687 0.017693 0.000000 0.000000 0.000000
# 4 0.000000 0.000000 0.000000 0.054768 0.000000 0.000000
# 5 0.000000 0.000000 0.000000 0.000000 0.054767 0.000000
# 6 0.000000 0.000000 0.000000 0.000000 0.000000 0.046952
#
#
# Mechanical properties :
#
#
# Convention : Reuss Voigt Hill
#
# Bulk Modulus (GPa) = 45.35651 45.48933 45.42292
# Shear Modulus (GPa) = 20.22425 20.40365 20.31395
#
# Velocity S-wave (km/s) = 3.75724 3.77387 3.76556
# Velocity P-wave (km/s) = 7.10507 7.12332 7.11420
#
# Compressibility (1/GPa) = 0.02204755
#
# Stress axis : x y z
#
# Youngs Moduli (GPa) = 57.09856 57.09899 56.51979
#
# Poissons Ratio (x) = 0.34041 0.26492
# Poissons Ratio (y) = 0.34041 0.26492
# Poissons Ratio (z) = 0.26763 0.26763
#
# Static dielectric constant tensor:
#      x y z
#    x 2.853260 0.000000 0.000000 
#    y 0.000000 2.853270 -0.000010 
#    z 0.000000 -0.000010 2.908660 
# 
# 
# High freq. dielectric constant tensor:
#      x y z
#    x 1.522600 0.000000 0.000000 
#    y 0.000000 1.522600 0.000000 
#    z 0.000000 0.000000 1.564110 
# 
# From -- ./inp_files/471.got.cif
#   From: 2010.03.12/outbox.cif.g09.slc.cpg/sg189_1_cif.got.tgz:471.got - 2010.04.01 12:03:36.
