data_PCOD8327732
_publ_section_title
;
Structure prediction by ZEFSAII (Michael W. Deem and Ramdas Pophale) SiO2 
 PCOD8327732
Probable space group: P -6 2 M
;
_chemical_formula_sum "Si O2"
_cell_formula_units_Z 84
_cell_length_a 13.704710
_cell_length_b 13.704710
_cell_length_c 24.652357
_cell_angle_alpha 90.000000
_cell_angle_beta 90.000000
_cell_angle_gamma 120.000000
_cell_volume 4009.856031
_symmetry_space_group_name_H-M "P -6 2 M"
_symmetry_group_IT_number 189
_symmetry_cell_setting 'hexagonal'
loop_
_space_group_symop_operation_xyz
x,y,z
-x+y,-x,-z
-y,x-y,z
x,y,-z
-x+y,-x,z
-y,x-y,-z
x-y,-y,-z
-x,-x+y,-z
y,x,-z
y,x,z
x-y,-y,z
-x,-x+y,z
loop_
_atom_site_type_symbol
_atom_site_label
_atom_site_fract_x
_atom_site_fract_y
_atom_site_fract_z
Si Si1 0.873277 0.334295 0.736889
Si Si2 0.865657 0.529957 0.940673
Si Si3 0.411924 0.537269 0.830912
Si Si4 0.685064 0.878544 0.792794
Si Si5 0.127959 0.676079 0.564002
Si Si6 0.132496 0.471002 0.383560
Si Si7 0.125822 0.255608 0.088758
O O1 0.810715 0.360288 0.787147
O O2 0.872086 0.217593 0.748155
O O3 0.820684 0.328926 0.677976
O O4 0.000000 0.437873 0.734226
O O5 0.816821 0.438097 0.891346
O O6 0.821854 0.619490 0.936005
O O7 0.000000 0.601937 0.933140
O O8 0.831353 0.470387 0.000000
O O9 0.518596 0.518596 0.838546
O O10 0.307652 0.427026 0.807450
O O11 0.736902 0.856346 0.846308
O O12 0.775060 0.000000 0.767614
O O13 0.142214 0.684242 0.500000
O O14 0.215108 0.797010 0.589515
O O15 0.156741 0.582083 0.584384
O O16 0.000000 0.640752 0.580895
O O17 0.000000 0.376069 0.384747
O O18 0.174821 0.174821 0.072021
O O19 0.000000 0.203350 0.065123
#
# Coordination Sequence:
#
# PCOD8327732 Si02
#       7
#    12  12  12  12  12  12  12
#     4  10  20  33  51  78 110 140 179 228 279 332
#     4   8  14  26  45  67  92 129 176 222 275 334
#     4   8  16  31  48  68  97 133 173 221 274 327
#     4   9  18  32  50  70 100 143 181 220 274 330
#     4  10  21  38  61  88 120 162 204 241 290 350
#     4  10  22  37  57  88 123 157 196 249 301 351
#     4   9  16  26  42  67 100 141 185 227 271 324
#
# _framework density 20.948383
#
# number of rings (size 3 to 8) (size 9 to 14) (size 15 to 20)
#    0.000    2.857    0.000    3.000    2.000    1.714 
#    0.857    0.000    0.000    4.857    0.000    4.000 
#    0.000    0.000    0.000    0.000    0.000    0.000 
#
# Total GULP energy -1040798.776774 kJ/mol
# GULP energy per Si atom -12390.461628 kJ/mol
# Density = 2.090070 g / cm^3
# Si number density = 20.948383 Si / 1000 Ang^3
#
#
#
# Elastic Constant Matrix: (Units=GPa)
#
#
# Indices 1 2 3 4 5 6 
#
# 1 70.4569 26.3412 44.7034 0.0000 0.0000 0.0000
# 2 26.3412 70.4569 44.7034 0.0000 0.0000 0.0000
# 3 44.7034 44.7034 149.6334 0.0000 0.0000 0.0000
# 4 0.0000 0.0000 0.0000 16.4028 0.0000 0.0000
# 5 0.0000 0.0000 0.0000 0.0000 16.4028 0.0000
# 6 0.0000 0.0000 0.0000 0.0000 0.0000 22.0578
#
#
#
# Elastic Compliance Matrix: (Units=1/GPa)
#
#
# Indices 1 2 3 4 5 6 
#
# 1 0.018468 -0.004200 -0.004263 0.000000 0.000000 0.000000
# 2 -0.004200 0.018468 -0.004263 0.000000 0.000000 0.000000
# 3 -0.004263 -0.004263 0.009230 0.000000 0.000000 0.000000
# 4 0.000000 0.000000 0.000000 0.060965 0.000000 0.000000
# 5 0.000000 0.000000 0.000000 0.000000 0.060965 0.000000
# 6 0.000000 0.000000 0.000000 0.000000 0.000000 0.045335
#
#
# Mechanical properties :
#
#
# Convention : Reuss Voigt Hill
#
# Bulk Modulus (GPa) = 48.27330 58.00478 53.13904
# Shear Modulus (GPa) = 20.34287 22.62597 21.48442
#
# Velocity S-wave (km/s) = 3.11962 3.29003 3.20595
# Velocity P-wave (km/s) = 6.00583 6.49476 6.25507
#
# Compressibility (1/GPa) = 0.02071538
#
# Stress axis : x y z
#
# Youngs Moduli (GPa) = 54.14836 54.14836 108.34354
#
# Poissons Ratio (x) = 0.22742 0.46182
# Poissons Ratio (y) = 0.22742 0.46182
# Poissons Ratio (z) = 0.23081 0.23081
#
# Static dielectric constant tensor:
#      x y z
#    x 3.704260 0.000000 0.000000 
#    y 0.000000 3.704260 0.000000 
#    z 0.000000 0.000000 3.955010 
# 
# 
# High freq. dielectric constant tensor:
#      x y z
#    x 1.799530 0.000000 0.000000 
#    y 0.000000 1.799530 0.000000 
#    z 0.000000 0.000000 1.817970 
# 
# From -- ./inp_files/3595.got.cif
#   From: 2010.03.12/outbox.cif.g09.slc.cpg/sg189_2_cif.got.tgz:3595.got - 2010.04.01 12:03:36.
