data_PCOD8327470
_publ_section_title
;
Structure prediction by ZEFSAII (Michael W. Deem and Ramdas Pophale) SiO2 
 PCOD8327470
Probable space group: P -6 C 2
;
_chemical_formula_sum "Si O2"
_cell_formula_units_Z 70
_cell_length_a 13.896004
_cell_length_b 13.896004
_cell_length_c 21.583623
_cell_angle_alpha 90.000000
_cell_angle_beta 90.000000
_cell_angle_gamma 120.000000
_cell_volume 3609.398547
_symmetry_space_group_name_H-M "P -6 C 2"
_symmetry_group_IT_number 188
_symmetry_cell_setting 'hexagonal'
loop_
_space_group_symop_operation_xyz
x,y,z
-x+y,-x,1/2-z
-y,x-y,z
x,y,1/2-z
-x+y,-x,z
-y,x-y,1/2-z
-y,-x,-z
-x+y,y,-z
x,x-y,-z
-x+y,y,1/2+z
x,x-y,1/2+z
-y,-x,1/2+z
loop_
_atom_site_type_symbol
_atom_site_label
_atom_site_fract_x
_atom_site_fract_y
_atom_site_fract_z
Si Si1 0.683943 0.222051 0.750000
Si Si2 0.607665 0.586740 0.922579
Si Si3 0.390677 0.187047 0.141605
Si Si4 0.582750 0.802582 0.367165
Si Si5 0.858494 0.761689 0.750000
Si Si6 0.111190 0.846841 0.750000
Si Si7 0.618596 0.625950 0.067326
Si Si8 0.333333 0.666666 0.676629
O O1 0.564905 0.214113 0.750000
O O2 0.695794 0.170353 0.813679
O O3 0.700494 0.557269 0.898815
O O4 0.623880 0.698923 0.892284
O O5 0.488056 0.482568 0.905240
O O6 0.625023 0.610105 0.994986
O O7 0.302516 0.195372 0.186303
O O8 0.343335 0.081207 0.096358
O O9 0.657688 0.812228 0.309168
O O10 0.595865 0.726851 0.419349
O O11 0.455453 0.748627 0.348124
O O12 0.837000 0.863840 0.750000
O O13 0.980444 0.779818 0.750000
O O14 0.333334 0.666668 0.750000
#
# Coordination Sequence:
#
# PCOD8327470 Si02
#       8
#     6  12  12  12   6   6  12   4
#     4   9  20  36  55  86 117 154 194 251 312 364
#     4  11  24  41  63  90 126 172 214 260 313 379
#     4  11  21  39  62  89 122 160 209 261 313 373
#     4  12  23  41  65  91 132 164 211 263 319 383
#     4  11  23  38  64  88 118 160 199 259 324 366
#     4  12  23  42  65  92 123 166 203 262 324 382
#     4  11  24  41  63  90 126 172 214 260 313 379
#     4  12  24  39  61 101 130 165 204 268 323 388
#
# _framework density 19.393812
#
# number of rings (size 3 to 8) (size 9 to 14) (size 15 to 20)
#    0.171    0.686    6.000    2.229    0.000    0.000 
#    1.029    1.714    0.000    0.000    0.000    4.800 
#    0.000    0.000    0.000    0.000    0.000    0.000 
#
# Total GULP energy -867804.759776 kJ/mol
# GULP energy per Si atom -12397.210854 kJ/mol
# Density = 1.934967 g / cm^3
# Si number density = 19.393812 Si / 1000 Ang^3
#
#
#
# Elastic Constant Matrix: (Units=GPa)
#
#
# Indices 1 2 3 4 5 6 
#
# 1 79.8078 1.3958 20.3978 -0.0002 -0.0002 0.0001
# 2 1.3958 79.8078 20.3979 0.0001 0.0001 0.0002
# 3 20.3978 20.3979 87.5946 0.0000 -0.0001 0.0000
# 4 -0.0002 0.0001 0.0000 28.8275 -0.0002 -0.0002
# 5 -0.0002 0.0001 -0.0001 -0.0002 28.8271 0.0001
# 6 0.0001 0.0002 0.0000 -0.0002 0.0001 39.2063
#
#
#
# Elastic Compliance Matrix: (Units=1/GPa)
#
#
# Indices 1 2 3 4 5 6 
#
# 1 0.013350 0.000597 -0.003248 0.000000 0.000000 0.000000
# 2 0.000597 0.013350 -0.003248 0.000000 0.000000 0.000000
# 3 -0.003248 -0.003248 0.012929 0.000000 0.000000 0.000000
# 4 0.000000 0.000000 0.000000 0.034689 0.000000 0.000000
# 5 0.000000 0.000000 0.000000 0.000000 0.034690 0.000000
# 6 0.000000 0.000000 0.000000 0.000000 0.000000 0.025506
#
#
# Mechanical properties :
#
#
# Convention : Reuss Voigt Hill
#
# Bulk Modulus (GPa) = 35.93135 36.84368 36.38751
# Shear Modulus (GPa) = 32.13631 33.04010 32.58821
#
# Velocity S-wave (km/s) = 4.07509 4.13200 4.10364
# Velocity P-wave (km/s) = 6.38038 6.46556 6.42311
#
# Compressibility (1/GPa) = 0.02783085
#
# Stress axis : x y z
#
# Youngs Moduli (GPa) = 74.90792 74.90796 77.34692
#
# Poissons Ratio (x) = -0.04469 0.25119
# Poissons Ratio (y) = -0.04469 0.25119
# Poissons Ratio (z) = 0.24327 0.24327
#
# Static dielectric constant tensor:
#      x y z
#    x 3.470680 0.000000 0.000000 
#    y 0.000000 3.470680 0.000000 
#    z 0.000000 0.000000 3.507850 
# 
# 
# High freq. dielectric constant tensor:
#      x y z
#    x 1.756600 0.000000 0.000000 
#    y 0.000000 1.756600 0.000000 
#    z 0.000000 0.000000 1.765960 
# 
# From -- ./inp_files/3252.got.cif
#   From: 2010.03.12/outbox.cif.g09.slc.cpg/sg188_2_cif.got.tgz:3252.got - 2010.04.01 12:01:06.
