data_PCOD8327719
_publ_section_title
;
Structure prediction by ZEFSAII (Michael W. Deem and Ramdas Pophale) SiO2 
 PCOD8327719
Probable space group: P -6 2 M
;
_chemical_formula_sum "Si O2"
_cell_formula_units_Z 54
_cell_length_a 21.031252
_cell_length_b 21.031252
_cell_length_c 8.934832
_cell_angle_alpha 90.000000
_cell_angle_beta 90.000000
_cell_angle_gamma 120.000000
_cell_volume 3422.530106
_symmetry_space_group_name_H-M "P -6 2 M"
_symmetry_group_IT_number 189
_symmetry_cell_setting 'hexagonal'
loop_
_space_group_symop_operation_xyz
x,y,z
-x+y,-x,-z
-y,x-y,z
x,y,-z
-x+y,-x,z
-y,x-y,-z
x-y,-y,-z
-x,-x+y,-z
y,x,-z
y,x,z
x-y,-y,z
-x,-x+y,z
loop_
_atom_site_type_symbol
_atom_site_label
_atom_site_fract_x
_atom_site_fract_y
_atom_site_fract_z
Si Si1 0.716737 0.429272 0.000000
Si Si2 0.561101 0.085897 0.834829
Si Si3 0.649260 0.564500 0.674043
Si Si4 0.916185 0.602858 0.674662
Si Si5 0.794971 0.221758 0.835710
O O1 0.626774 0.376612 0.000000
O O2 0.745000 0.483939 0.853849
O O3 0.510329 0.115862 0.769073
O O4 0.624256 0.103513 0.715724
O O5 0.510302 0.000000 0.852906
O O6 0.593293 0.119958 0.000000
O O7 0.639585 0.544541 0.500000
O O8 0.623324 0.623324 0.709711
O O9 0.732510 0.595720 0.725203
O O10 0.902868 0.606316 0.500000
O O11 0.860309 0.617380 0.769350
O O12 0.000000 0.661838 0.719635
O O13 0.825947 0.219528 0.000000
#
# Coordination Sequence:
#
# PCOD8327719 Si02
#       5
#     6  12  12  12  12
#     4   8  20  36  46  66  95 120 158 202 249 288
#     4   9  17  28  45  65  86 113 149 192 232 272
#     4  10  20  33  48  68  94 121 155 199 242 290
#     4  10  20  33  48  68  94 121 155 199 242 290
#     4  10  21  31  52  70  89 126 158 198 246 291
#
# _framework density 15.777801999999999
#
# number of rings (size 3 to 8) (size 9 to 14) (size 15 to 20)
#    0.889    1.556    0.000    2.667    3.111    5.333 
#    0.000    0.000    0.000    0.000    0.000    0.000 
#    0.000    0.000    0.000    0.667    0.000   12.889 
#
# Total GULP energy -669043.438952 kJ/mol
# GULP energy per Si atom -12389.693314 kJ/mol
# Density = 1.574189 g / cm^3
# Si number density = 15.777802 Si / 1000 Ang^3
#
#
#
# Elastic Constant Matrix: (Units=GPa)
#
#
# Indices 1 2 3 4 5 6 
#
# 1 49.9855 12.4489 17.6417 0.0000 0.0000 0.0000
# 2 12.4489 49.9855 17.6417 0.0000 0.0000 0.0000
# 3 17.6417 17.6417 70.0303 0.0000 0.0000 0.0000
# 4 0.0000 0.0000 0.0000 25.0908 0.0000 0.0000
# 5 0.0000 0.0000 0.0000 0.0000 25.0908 0.0000
# 6 0.0000 0.0000 0.0000 0.0000 0.0000 18.7683
#
#
#
# Elastic Compliance Matrix: (Units=1/GPa)
#
#
# Indices 1 2 3 4 5 6 
#
# 1 0.022658 -0.003983 -0.004705 0.000000 0.000000 0.000000
# 2 -0.003983 0.022658 -0.004705 0.000000 0.000000 0.000000
# 3 -0.004705 -0.004705 0.016650 0.000000 0.000000 0.000000
# 4 0.000000 0.000000 0.000000 0.039855 0.000000 0.000000
# 5 0.000000 0.000000 0.000000 0.000000 0.039855 0.000000
# 6 0.000000 0.000000 0.000000 0.000000 0.000000 0.053281
#
#
# Mechanical properties :
#
#
# Convention : Reuss Voigt Hill
#
# Bulk Modulus (GPa) = 28.42334 29.49620 28.95977
# Shear Modulus (GPa) = 21.41609 21.94123 21.67866
#
# Velocity S-wave (km/s) = 3.68823 3.73317 3.71077
# Velocity P-wave (km/s) = 6.01592 6.10880 6.06254
#
# Compressibility (1/GPa) = 0.03518235
#
# Stress axis : x y z
#
# Youngs Moduli (GPa) = 44.13431 44.13431 60.06050
#
# Poissons Ratio (x) = 0.17577 0.28256
# Poissons Ratio (y) = 0.17577 0.28256
# Poissons Ratio (z) = 0.20764 0.20764
#
# Static dielectric constant tensor:
#      x y z
#    x 2.827480 0.000000 0.000000 
#    y 0.000000 2.827480 0.000000 
#    z 0.000000 0.000000 3.070420 
# 
# 
# High freq. dielectric constant tensor:
#      x y z
#    x 1.579430 0.000000 0.000000 
#    y 0.000000 1.579430 0.000000 
#    z 0.000000 0.000000 1.613080 
# 
# From -- ./inp_files/854.got.cif
#   From: 2010.03.12/outbox.cif.g09.slc.cpg/sg189_1_cif.got.tgz:854.got - 2010.04.01 12:03:36.
