data_PCOD8327713
_publ_section_title
;
Structure prediction by ZEFSAII (Michael W. Deem and Ramdas Pophale) SiO2 
 PCOD8327713
Probable space group: P -6 2 M
;
_chemical_formula_sum "Si O2"
_cell_formula_units_Z 84
_cell_length_a 13.684442
_cell_length_b 13.684442
_cell_length_c 27.101281
_cell_angle_alpha 90.000000
_cell_angle_beta 90.000000
_cell_angle_gamma 120.000000
_cell_volume 4395.159471
_symmetry_space_group_name_H-M "P -6 2 M"
_symmetry_group_IT_number 189
_symmetry_cell_setting 'hexagonal'
loop_
_space_group_symop_operation_xyz
x,y,z
-x+y,-x,-z
-y,x-y,z
x,y,-z
-x+y,-x,z
-y,x-y,-z
x-y,-y,-z
-x,-x+y,-z
y,x,-z
y,x,z
x-y,-y,z
-x,-x+y,z
loop_
_atom_site_type_symbol
_atom_site_label
_atom_site_fract_x
_atom_site_fract_y
_atom_site_fract_z
Si Si1 0.871856 0.450159 0.446885
Si Si2 0.125972 0.804336 0.556073
Si Si3 0.452643 0.132070 0.738636
Si Si4 0.453166 0.128594 0.942349
Si Si5 0.468678 0.341173 0.215399
Si Si6 0.430714 0.125289 0.629393
Si Si7 0.871890 0.531322 0.898264
O O1 0.812568 0.402459 0.500000
O O2 0.873756 0.563539 0.432996
O O3 0.810089 0.353062 0.405346
O O4 0.000000 0.475872 0.450684
O O5 0.168172 0.848558 0.500000
O O6 0.206889 0.884405 0.599349
O O7 0.000000 0.784332 0.562498
O O8 0.423313 0.210088 0.772727
O O9 0.576598 0.153426 0.751443
O O10 0.452476 0.179671 0.683469
O O11 0.358415 0.000000 0.746513
O O12 0.420958 0.210749 0.913091
O O13 0.580647 0.159804 0.930404
O O14 0.366842 0.000000 0.925501
O O15 0.442832 0.144207 0.000000
O O16 0.367930 0.367930 0.225321
O O17 0.506300 0.362585 0.158603
O O18 0.406721 0.000000 0.640514
O O19 0.000000 0.629593 0.908909
#
# Coordination Sequence:
#
# PCOD8327713 Si02
#       7
#    12  12  12  12  12  12  12
#     4   8  15  29  46  64  89 119 151 187 229 284
#     4   9  18  32  50  71  95 125 159 195 239 295
#     4  10  22  37  53  78 108 136 178 228 274 328
#     4  10  20  33  53  83 116 149 180 217 269 317
#     4  10  21  37  57  78 104 144 183 224 278 319
#     4  10  20  32  49  71  95 126 158 194 246 300
#     4  10  20  34  54  79 107 144 188 226 265 317
#
# _framework density 19.111934999999999
#
# number of rings (size 3 to 8) (size 9 to 14) (size 15 to 20)
#    0.000    2.429    0.000    3.143    2.000    4.000 
#    0.857    0.000    0.000    0.857    0.000    0.000 
#    0.000    0.000    0.000    0.000    0.000    0.000 
#
# Total GULP energy -1041005.981543 kJ/mol
# GULP energy per Si atom -12392.928352 kJ/mol
# Density = 1.906844 g / cm^3
# Si number density = 19.111935 Si / 1000 Ang^3
#
#
#
# Elastic Constant Matrix: (Units=GPa)
#
#
# Indices 1 2 3 4 5 6 
#
# 1 85.1398 32.3648 31.4547 0.0000 0.0000 0.0000
# 2 32.3648 85.1398 31.4547 0.0000 0.0000 0.0000
# 3 31.4547 31.4547 88.8814 0.0000 0.0000 0.0000
# 4 0.0000 0.0000 0.0000 25.7500 0.0000 0.0000
# 5 0.0000 0.0000 0.0000 0.0000 25.7500 0.0000
# 6 0.0000 0.0000 0.0000 0.0000 0.0000 26.3875
#
#
#
# Elastic Compliance Matrix: (Units=1/GPa)
#
#
# Indices 1 2 3 4 5 6 
#
# 1 0.014724 -0.004224 -0.003716 0.000000 0.000000 0.000000
# 2 -0.004224 0.014724 -0.003716 0.000000 0.000000 0.000000
# 3 -0.003716 -0.003716 0.013881 0.000000 0.000000 0.000000
# 4 0.000000 0.000000 0.000000 0.038835 0.000000 0.000000
# 5 0.000000 0.000000 0.000000 0.000000 0.038835 0.000000
# 6 0.000000 0.000000 0.000000 0.000000 0.000000 0.037897
#
#
# Mechanical properties :
#
#
# Convention : Reuss Voigt Hill
#
# Bulk Modulus (GPa) = 49.95721 49.96772 49.96246
# Shear Modulus (GPa) = 26.47185 26.50327 26.48756
#
# Velocity S-wave (km/s) = 3.72572 3.72794 3.72683
# Velocity P-wave (km/s) = 6.68611 6.68816 6.68714
#
# Compressibility (1/GPa) = 0.02001713
#
# Stress axis : x y z
#
# Youngs Moduli (GPa) = 67.91631 67.91631 72.04124
#
# Poissons Ratio (x) = 0.28690 0.26769
# Poissons Ratio (y) = 0.28690 0.26769
# Poissons Ratio (z) = 0.25236 0.25236
#
# Static dielectric constant tensor:
#      x y z
#    x 3.426010 0.000000 0.000000 
#    y 0.000000 3.426010 0.000000 
#    z 0.000000 0.000000 3.689030 
# 
# 
# High freq. dielectric constant tensor:
#      x y z
#    x 1.724040 0.000000 0.000000 
#    y 0.000000 1.724040 0.000000 
#    z 0.000000 0.000000 1.751190 
# 
# From -- ./inp_files/3596.got.cif
#   From: 2010.03.12/outbox.cif.g09.slc.cpg/sg189_2_cif.got.tgz:3596.got - 2010.04.01 12:03:36.
