data_PCOD8327430
_publ_section_title
;
Structure prediction by ZEFSAII (Michael W. Deem and Ramdas Pophale) SiO2 
 PCOD8327430
Probable space group: P -6 C 2
;
_chemical_formula_sum "Si O2"
_cell_formula_units_Z 66
_cell_length_a 19.836684
_cell_length_b 19.836684
_cell_length_c 9.173428
_cell_angle_alpha 90.000000
_cell_angle_beta 90.000000
_cell_angle_gamma 120.000000
_cell_volume 3126.082523
_symmetry_space_group_name_H-M "P -6 C 2"
_symmetry_group_IT_number 188
_symmetry_cell_setting 'hexagonal'
loop_
_space_group_symop_operation_xyz
x,y,z
-x+y,-x,1/2-z
-y,x-y,z
x,y,1/2-z
-x+y,-x,z
-y,x-y,1/2-z
-y,-x,-z
-x+y,y,-z
x,x-y,-z
-x+y,y,1/2+z
x,x-y,1/2+z
-y,-x,1/2+z
loop_
_atom_site_type_symbol
_atom_site_label
_atom_site_fract_x
_atom_site_fract_y
_atom_site_fract_z
Si Si1 0.265703 0.132852 0.000000
Si Si2 0.936321 0.632160 0.093952
Si Si3 0.039251 0.199062 0.410823
Si Si4 0.080929 0.368512 0.420798
Si Si5 0.471946 0.805215 0.072411
Si Si6 0.798148 0.467333 0.087253
O O1 0.322242 0.112522 0.908303
O O2 0.208428 0.153846 0.911147
O O3 0.981377 0.656341 0.250000
O O4 0.883284 0.540255 0.093658
O O5 0.993392 0.645850 0.959342
O O6 0.067160 0.198648 0.250000
O O7 0.078768 0.157535 0.500000
O O8 0.079099 0.288856 0.464104
O O9 0.098303 0.390331 0.250000
O O10 0.141414 0.438682 0.522093
O O11 0.466221 0.801759 0.250000
O O12 0.418835 0.837670 0.000000
O O13 0.441190 0.720595 0.000000
O O14 0.765163 0.438655 0.250000
O O15 0.747924 0.495847 0.000000
O O16 0.798118 0.399059 0.000000
#
# Coordination Sequence:
#
# PCOD8327430 Si02
#       6
#     6  12  12  12  12  12
#     4  10  20  40  64  90 120 160 216 262 312 380
#     4  10  21  38  63  91 120 160 210 263 320 376
#     4  10  22  38  61  91 123 161 203 254 310 370
#     4  10  22  40  63  92 125 162 206 256 311 370
#     4  12  25  43  66  93 127 166 210 256 310 371
#     4  11  23  39  59  85 118 160 205 255 313 374
#
# _framework density 21.112687999999999
#
# number of rings (size 3 to 8) (size 9 to 14) (size 15 to 20)
#    0.000    1.455    0.909    4.182    0.000    8.727 
#    0.545    1.818    0.000    0.000    0.000    0.000 
#    0.000    0.000    0.000    0.000    0.000    0.000 
#
# Total GULP energy -817672.501249 kJ/mol
# GULP energy per Si atom -12388.977292 kJ/mol
# Density = 2.106463 g / cm^3
# Si number density = 21.112688 Si / 1000 Ang^3
#
#
#
# Elastic Constant Matrix: (Units=GPa)
#
#
# Indices 1 2 3 4 5 6 
#
# 1 58.2722 6.0150 31.8571 -0.0006 0.0000 0.0000
# 2 6.0150 58.2722 31.8571 0.0006 0.0000 0.0000
# 3 31.8571 31.8571 137.8400 0.0000 0.0000 0.0000
# 4 -0.0006 0.0006 0.0000 23.9948 0.0000 0.0000
# 5 0.0000 0.0000 0.0000 0.0000 23.9948 -0.0006
# 6 0.0000 0.0000 0.0000 0.0000 -0.0006 26.1286
#
#
#
# Elastic Compliance Matrix: (Units=1/GPa)
#
#
# Indices 1 2 3 4 5 6 
#
# 1 0.019656 0.000520 -0.004663 0.000000 0.000000 0.000000
# 2 0.000520 0.019656 -0.004663 0.000000 0.000000 0.000000
# 3 -0.004663 -0.004663 0.009410 0.000000 0.000000 0.000000
# 4 0.000000 0.000000 0.000000 0.041676 0.000000 0.000000
# 5 0.000000 0.000000 0.000000 0.000000 0.041676 0.000001
# 6 0.000000 0.000000 0.000000 0.000000 0.000001 0.038272
#
#
# Mechanical properties :
#
#
# Convention : Reuss Voigt Hill
#
# Bulk Modulus (GPa) = 32.14283 43.76029 37.95156
# Shear Modulus (GPa) = 25.21060 27.13399 26.17229
#
# Velocity S-wave (km/s) = 3.45932 3.58886 3.52468
# Velocity P-wave (km/s) = 5.58689 6.15997 5.88041
#
# Compressibility (1/GPa) = 0.03111114
#
# Stress axis : x y z
#
# Youngs Moduli (GPa) = 50.87382 50.87382 106.26688
#
# Poissons Ratio (x) = -0.02647 0.49554
# Poissons Ratio (y) = -0.02647 0.49554
# Poissons Ratio (z) = 0.23723 0.23723
#
# Static dielectric constant tensor:
#      x y z
#    x 3.759180 0.000000 0.000000 
#    y 0.000000 3.759180 0.000000 
#    z 0.000000 0.000000 4.874080 
# 
# 
# High freq. dielectric constant tensor:
#      x y z
#    x 1.825360 0.000000 0.000000 
#    y 0.000000 1.825360 0.000000 
#    z 0.000000 0.000000 1.837680 
# 
# From -- ./inp_files/773.got.cif
#   From: 2010.03.12/outbox.cif.g09.slc.cpg/sg188_1_cif.got.tgz:773.got - 2010.04.01 12:01:06.
