data_PCOD8327673
_publ_section_title
;
Structure prediction by ZEFSAII (Michael W. Deem and Ramdas Pophale) SiO2 
 PCOD8327673
Probable space group: P -6 2 M
;
_chemical_formula_sum "Si O2"
_cell_formula_units_Z 60
_cell_length_a 18.474779
_cell_length_b 18.474779
_cell_length_c 10.443811
_cell_angle_alpha 90.000000
_cell_angle_beta 90.000000
_cell_angle_gamma 120.000000
_cell_volume 3087.081815
_symmetry_space_group_name_H-M "P -6 2 M"
_symmetry_group_IT_number 189
_symmetry_cell_setting 'hexagonal'
loop_
_space_group_symop_operation_xyz
x,y,z
-x+y,-x,-z
-y,x-y,z
x,y,-z
-x+y,-x,z
-y,x-y,-z
x-y,-y,-z
-x,-x+y,-z
y,x,-z
y,x,z
x-y,-y,z
-x,-x+y,z
loop_
_atom_site_type_symbol
_atom_site_label
_atom_site_fract_x
_atom_site_fract_y
_atom_site_fract_z
Si Si1 0.613624 0.463940 0.000000
Si Si2 0.622481 0.835589 0.255176
Si Si3 0.810267 0.532832 0.000000
Si Si4 0.535202 0.150275 0.500000
Si Si5 0.089445 0.447379 0.748672
Si Si6 0.527237 0.809295 0.500000
Si Si7 0.097322 0.902643 0.351178
O O1 0.711065 0.492712 0.000000
O O2 0.550741 0.365963 0.000000
O O3 0.594610 0.499715 0.873280
O O4 0.592993 0.857328 0.121998
O O5 0.581261 0.737389 0.255641
O O6 0.583412 0.858686 0.376283
O O7 0.722998 0.879150 0.266750
O O8 0.502901 0.094749 0.372989
O O9 0.634270 0.195329 0.500000
O O10 0.499651 0.212915 0.500000
O O11 0.000000 0.363533 0.747623
O O12 0.115280 0.893826 0.500000
O O13 0.000000 0.872521 0.329282
O O14 0.151893 0.000000 0.308509
#
# Coordination Sequence:
#
# PCOD8327673 Si02
#       7
#     6  12   6   6  12   6  12
#     4  10  20  36  56  77 108 144 190 233 266 318
#     4  10  20  36  57  82 113 146 186 234 283 341
#     4  10  21  36  58  83 113 154 197 237 282 326
#     4  10  20  32  52  75 104 138 180 227 270 324
#     4  10  20  34  52  77 105 141 182 224 272 323
#     4  10  19  34  52  77 109 144 187 233 282 326
#     4  10  20  37  62  90 116 146 186 236 292 356
#
# _framework density 19.435831
#
# number of rings (size 3 to 8) (size 9 to 14) (size 15 to 20)
#    0.000    2.000    1.000    3.000    0.000    0.800 
#    0.000   12.000    0.000    0.000    0.000    1.400 
#    0.000    0.000    0.000    0.000    0.000    0.000 
#
# Total GULP energy -743620.604714 kJ/mol
# GULP energy per Si atom -12393.676745 kJ/mol
# Density = 1.939159 g / cm^3
# Si number density = 19.435831 Si / 1000 Ang^3
#
#
#
# Elastic Constant Matrix: (Units=GPa)
#
#
# Indices 1 2 3 4 5 6 
#
# 1 62.5398 12.5450 31.3960 0.0000 0.0000 0.0000
# 2 12.5450 62.5398 31.3960 0.0000 0.0000 0.0000
# 3 31.3960 31.3960 154.3190 0.0000 0.0000 0.0000
# 4 0.0000 0.0000 0.0000 3.9248 0.0000 0.0000
# 5 0.0000 0.0000 0.0000 0.0000 3.9248 0.0000
# 6 0.0000 0.0000 0.0000 0.0000 0.0000 24.9974
#
#
#
# Elastic Compliance Matrix: (Units=1/GPa)
#
#
# Indices 1 2 3 4 5 6 
#
# 1 0.018025 -0.001977 -0.003265 0.000000 0.000000 0.000000
# 2 -0.001977 0.018025 -0.003265 0.000000 0.000000 0.000000
# 3 -0.003265 -0.003265 0.007809 0.000000 0.000000 0.000000
# 4 0.000000 0.000000 0.000000 0.254793 0.000000 0.000000
# 5 0.000000 0.000000 0.000000 0.000000 0.254793 0.000000
# 6 0.000000 0.000000 0.000000 0.000000 0.000000 0.040004
#
#
# Mechanical properties :
#
#
# Convention : Reuss Voigt Hill
#
# Bulk Modulus (GPa) = 37.24970 47.78583 42.51776
# Shear Modulus (GPa) = 8.07218 20.17348 14.12283
#
# Velocity S-wave (km/s) = 2.04016 3.22522 2.69855
# Velocity P-wave (km/s) = 4.97562 6.20558 5.62432
#
# Compressibility (1/GPa) = 0.02684586
#
# Stress axis : x y z
#
# Youngs Moduli (GPa) = 55.47707 55.47707 128.06312
#
# Poissons Ratio (x) = 0.10966 0.41814
# Poissons Ratio (y) = 0.10966 0.41814
# Poissons Ratio (z) = 0.18114 0.18114
#
# Static dielectric constant tensor:
#      x y z
#    x 3.386180 0.000000 0.000000 
#    y 0.000000 3.386180 0.000000 
#    z 0.000000 0.000000 4.259740 
# 
# 
# High freq. dielectric constant tensor:
#      x y z
#    x 1.748520 0.000000 0.000000 
#    y 0.000000 1.748520 0.000000 
#    z 0.000000 0.000000 1.762710 
# 
# From -- ./inp_files/2010.got.cif
#   From: 2010.03.12/outbox.cif.g09.slc.cpg/sg189_2_cif.got.tgz:2010.got - 2010.04.01 12:03:36.
