data_PCOD8327086
_publ_section_title
;
Structure prediction by ZEFSAII (Michael W. Deem and Ramdas Pophale) SiO2 
 PCOD8327086
Probable space group: P -6 M 2
;
_chemical_formula_sum "Si O2"
_cell_formula_units_Z 84
_cell_length_a 17.953489
_cell_length_b 17.953489
_cell_length_c 17.973555
_cell_angle_alpha 90.000000
_cell_angle_beta 90.000000
_cell_angle_gamma 120.000000
_cell_volume 5017.210662
_symmetry_space_group_name_H-M "P -6 M 2"
_symmetry_group_IT_number 187
_symmetry_cell_setting 'hexagonal'
loop_
_space_group_symop_operation_xyz
x,y,z
-x+y,-x,-z
-y,x-y,z
x,y,-z
-x+y,-x,z
-y,x-y,-z
-y,-x,-z
-x+y,y,-z
x,x-y,-z
-x+y,y,z
x,x-y,z
-y,-x,z
loop_
_atom_site_type_symbol
_atom_site_label
_atom_site_fract_x
_atom_site_fract_y
_atom_site_fract_z
Si Si1 0.504640 0.666253 0.915518
Si Si2 0.333327 0.340724 0.644637
Si Si3 0.666674 0.159200 0.413429
Si Si4 0.262206 0.349865 0.199258
Si Si5 0.837164 0.000485 0.185093
Si Si6 0.167568 0.167340 0.362339
Si Si7 0.497968 0.666668 0.413574
O O1 0.481290 0.740645 0.905366
O O2 0.421873 0.578127 0.892862
O O3 0.579796 0.679063 0.860534
O O4 0.533680 0.664280 0.000000
O O5 0.419547 0.335067 0.637299
O O6 0.319845 0.359646 0.729576
O O7 0.253586 0.253157 0.612883
O O8 0.341999 0.418555 0.595804
O O9 0.666815 0.136078 0.500000
O O10 0.584064 0.168127 0.394404
O O11 0.751147 0.248853 0.393136
O O12 0.177826 0.355652 0.223123
O O13 0.232043 0.258550 0.158684
O O14 0.863516 0.931758 0.156163
O O15 0.837536 0.000786 0.273918
O O16 0.905838 0.094163 0.153318
O O17 0.084670 0.169339 0.394535
O O18 0.169036 0.084518 0.395461
O O19 0.480644 0.667314 0.500000
O O20 0.509503 0.754752 0.377076
O O21 0.415270 0.584731 0.376417
#
# Coordination Sequence:
#
# PCOD8327086 Si02
#       7
#    12  12  12  12  12  12  12
#     4   9  17  30  48  68  90 120 160 201 237 276
#     4  11  19  30  47  71  97 119 148 188 234 282
#     4  10  21  37  55  73  93 119 153 195 243 292
#     4   9  18  30  44  66  97 127 152 186 235 282
#     4   8  13  22  38  60  85 114 147 179 210 249
#     4   9  16  26  41  62  89 120 152 185 221 262
#     4  10  20  33  47  62  83 114 150 184 218 262
#
# _framework density 16.742370999999999
#
# number of rings (size 3 to 8) (size 9 to 14) (size 15 to 20)
#    0.000    2.571    0.000    4.143    0.000    5.714 
#    0.000    0.000    0.000    2.143    0.000    0.000 
#    0.000    8.000    0.000    0.000    0.000    1.000 
#
# Total GULP energy -1041361.286928 kJ/mol
# GULP energy per Si atom -12397.158178 kJ/mol
# Density = 1.670426 g / cm^3
# Si number density = 16.742371 Si / 1000 Ang^3
#
#
#
# Elastic Constant Matrix: (Units=GPa)
#
#
# Indices 1 2 3 4 5 6 
#
# 1 141.3549 72.2694 37.2326 0.0000 0.0000 0.0000
# 2 72.2694 141.3549 37.2326 0.0000 0.0000 0.0000
# 3 37.2326 37.2326 45.2146 0.0000 0.0000 0.0000
# 4 0.0000 0.0000 0.0000 19.4221 0.0000 0.0000
# 5 0.0000 0.0000 0.0000 0.0000 19.4221 0.0000
# 6 0.0000 0.0000 0.0000 0.0000 0.0000 34.5427
#
#
#
# Elastic Compliance Matrix: (Units=1/GPa)
#
#
# Indices 1 2 3 4 5 6 
#
# 1 0.010520 -0.003955 -0.005407 0.000000 0.000000 0.000000
# 2 -0.003955 0.010520 -0.005407 0.000000 0.000000 0.000000
# 3 -0.005407 -0.005407 0.031021 0.000000 0.000000 0.000000
# 4 0.000000 0.000000 0.000000 0.051488 0.000000 0.000000
# 5 0.000000 0.000000 0.000000 0.000000 0.051488 0.000000
# 6 0.000000 0.000000 0.000000 0.000000 0.000000 0.028950
#
#
# Mechanical properties :
#
#
# Convention : Reuss Voigt Hill
#
# Bulk Modulus (GPa) = 44.39319 69.04373 56.71846
# Shear Modulus (GPa) = 22.62122 26.75669 24.68895
#
# Velocity S-wave (km/s) = 3.67977 4.00201 3.84427
# Velocity P-wave (km/s) = 6.68037 7.91728 7.32498
#
# Compressibility (1/GPa) = 0.02252598
#
# Stress axis : x y z
#
# Youngs Moduli (GPa) = 95.05435 95.05435 32.23613
#
# Poissons Ratio (x) = 0.37590 0.17429
# Poissons Ratio (y) = 0.37590 0.17429
# Poissons Ratio (z) = 0.51393 0.51393
#
# Static dielectric constant tensor:
#      x y z
#    x 3.343960 0.000000 0.000000 
#    y 0.000000 3.343960 0.000000 
#    z 0.000000 0.000000 2.719410 
# 
# 
# High freq. dielectric constant tensor:
#      x y z
#    x 1.652810 0.000000 0.000000 
#    y 0.000000 1.652810 0.000000 
#    z 0.000000 0.000000 1.594550 
# 
# From -- ./inp_files/3663.got.cif
#   From: 2010.03.12/outbox.cif.g09.slc.cpg/sg187_2_cif.got.tgz:3663.got - 2010.04.01 11:58:23.
