data_PCOD8327701
_publ_section_title
;
Structure prediction by ZEFSAII (Michael W. Deem and Ramdas Pophale) SiO2 
 PCOD8327701
Probable space group: P -6 2 M
;
_chemical_formula_sum "Si O2"
_cell_formula_units_Z 72
_cell_length_a 23.692966
_cell_length_b 23.692966
_cell_length_c 9.511835
_cell_angle_alpha 90.000000
_cell_angle_beta 90.000000
_cell_angle_gamma 120.000000
_cell_volume 4624.170110
_symmetry_space_group_name_H-M "P -6 2 M"
_symmetry_group_IT_number 189
_symmetry_cell_setting 'hexagonal'
loop_
_space_group_symop_operation_xyz
x,y,z
-x+y,-x,-z
-y,x-y,z
x,y,-z
-x+y,-x,z
-y,x-y,-z
x-y,-y,-z
-x,-x+y,-z
y,x,-z
y,x,z
x-y,-y,z
-x,-x+y,z
loop_
_atom_site_type_symbol
_atom_site_label
_atom_site_fract_x
_atom_site_fract_y
_atom_site_fract_z
Si Si1 0.707273 0.077316 0.157046
Si Si2 0.301399 0.922941 0.155203
Si Si3 0.750007 0.825057 0.164153
Si Si4 0.188201 0.264998 0.337329
Si Si5 0.417543 0.495004 0.842034
Si Si6 0.597615 0.519709 0.657954
O O1 0.766079 0.102053 0.267536
O O2 0.657521 0.102499 0.202217
O O3 0.667756 0.000000 0.155012
O O4 0.735147 0.102937 0.000000
O O5 0.229551 0.905734 0.204272
O O6 0.332769 0.894537 0.264538
O O7 0.346150 0.000000 0.145592
O O8 0.298504 0.893522 0.000000
O O9 0.799866 0.799866 0.201039
O O10 0.769583 0.888299 0.258926
O O11 0.754892 0.843063 0.000000
O O12 0.179238 0.275830 0.500000
O O13 0.218262 0.218262 0.317126
O O14 0.457716 0.457716 0.836927
O O15 0.450211 0.555978 0.736035
O O16 0.419887 0.520988 0.000000
O O17 0.611245 0.505991 0.500000
O O18 0.558686 0.558686 0.658554
#
# Coordination Sequence:
#
# PCOD8327701 Si02
#       6
#    12  12  12  12  12  12
#     4   8  14  25  40  56  75 103 138 170 198 233
#     4   8  14  25  39  54  74 100 130 163 197 235
#     4   9  18  32  49  66  81 102 136 176 217 263
#     4  10  20  31  44  64  87 109 133 166 215 273
#     4   8  13  21  33  49  71 102 137 166 189 213
#     4   9  15  20  29  49  76 105 134 160 186 217
#
# _framework density 15.570361999999999
#
# number of rings (size 3 to 8) (size 9 to 14) (size 15 to 20)
#    0.000    3.333    0.000    3.000    0.000    4.667 
#    0.000    5.000    0.000    0.333    0.000    0.000 
#    0.000    0.000    0.000    1.000    0.000   20.000 
#
# Total GULP energy -892284.527321 kJ/mol
# GULP energy per Si atom -12392.840657 kJ/mol
# Density = 1.553492 g / cm^3
# Si number density = 15.570362 Si / 1000 Ang^3
#
#
#
# Elastic Constant Matrix: (Units=GPa)
#
#
# Indices 1 2 3 4 5 6 
#
# 1 52.8790 25.3660 45.8239 0.0000 0.0000 0.0000
# 2 25.3660 52.8790 45.8239 0.0000 0.0000 0.0000
# 3 45.8239 45.8239 115.3776 0.0000 0.0000 0.0000
# 4 0.0000 0.0000 0.0000 19.0394 0.0000 0.0000
# 5 0.0000 0.0000 0.0000 0.0000 19.0394 0.0000
# 6 0.0000 0.0000 0.0000 0.0000 0.0000 13.7565
#
#
#
# Elastic Compliance Matrix: (Units=1/GPa)
#
#
# Indices 1 2 3 4 5 6 
#
# 1 0.030122 -0.006225 -0.009491 0.000000 0.000000 0.000000
# 2 -0.006225 0.030122 -0.009491 0.000000 0.000000 0.000000
# 3 -0.009491 -0.009491 0.016206 0.000000 0.000000 0.000000
# 4 0.000000 0.000000 0.000000 0.052523 0.000000 0.000000
# 5 0.000000 0.000000 0.000000 0.000000 0.052523 0.000000
# 6 0.000000 0.000000 0.000000 0.000000 0.000000 0.072693
#
#
# Mechanical properties :
#
#
# Convention : Reuss Voigt Hill
#
# Bulk Modulus (GPa) = 38.40802 50.57373 44.49087
# Shear Modulus (GPa) = 15.96011 17.30851 16.63431
#
# Velocity S-wave (km/s) = 3.20508 3.33773 3.27208
# Velocity P-wave (km/s) = 6.19820 6.88514 6.55068
#
# Compressibility (1/GPa) = 0.02603623
#
# Stress axis : x y z
#
# Youngs Moduli (GPa) = 33.19845 33.19845 61.70438
#
# Poissons Ratio (x) = 0.20665 0.58565
# Poissons Ratio (y) = 0.20665 0.58565
# Poissons Ratio (z) = 0.31509 0.31509
#
# Static dielectric constant tensor:
#      x y z
#    x 2.774280 0.000000 0.000000 
#    y 0.000000 2.774280 0.000000 
#    z 0.000000 0.000000 3.154450 
# 
# 
# High freq. dielectric constant tensor:
#      x y z
#    x 1.559660 0.000000 0.000000 
#    y 0.000000 1.559660 0.000000 
#    z 0.000000 0.000000 1.603330 
# 
# From -- ./inp_files/1253.got.cif
#   From: 2010.03.12/outbox.cif.g09.slc.cpg/sg189_1_cif.got.tgz:1253.got - 2010.04.01 12:03:36.
