data_PCOD8327027
_publ_section_title
;
Structure prediction by ZEFSAII (Michael W. Deem and Ramdas Pophale) SiO2 
 PCOD8327027
Probable space group: P -6 M 2
;
_chemical_formula_sum "Si O2"
_cell_formula_units_Z 60
_cell_length_a 13.074837
_cell_length_b 13.074837
_cell_length_c 25.089607
_cell_angle_alpha 90.000000
_cell_angle_beta 90.000000
_cell_angle_gamma 120.000000
_cell_volume 3714.471727
_symmetry_space_group_name_H-M "P -6 M 2"
_symmetry_group_IT_number 187
_symmetry_cell_setting 'hexagonal'
loop_
_space_group_symop_operation_xyz
x,y,z
-x+y,-x,-z
-y,x-y,z
x,y,-z
-x+y,-x,z
-y,x-y,-z
-y,-x,-z
-x+y,y,-z
x,x-y,-z
-x+y,y,z
x,x-y,z
-y,-x,z
loop_
_atom_site_type_symbol
_atom_site_label
_atom_site_fract_x
_atom_site_fract_y
_atom_site_fract_z
Si Si1 0.573227 0.665026 0.000000
Si Si2 0.235635 0.999622 0.709574
Si Si3 0.236883 0.236455 0.411999
Si Si4 0.903117 0.333068 0.911978
Si Si5 0.906882 0.331805 0.500000
Si Si6 0.430952 0.333437 0.209361
O O1 0.639677 0.654596 0.948097
O O2 0.436177 0.563824 0.000000
O O3 0.582655 0.791328 0.000000
O O4 0.209942 0.104971 0.720123
O O5 0.275785 0.000400 0.648843
O O6 0.333629 0.006815 0.749961
O O7 0.118435 0.881566 0.723761
O O8 0.200968 0.100484 0.421248
O O9 0.348290 0.322248 0.448095
O O10 0.124312 0.248623 0.427812
O O11 0.867246 0.433623 0.919429
O O12 0.790741 0.209260 0.929173
O O13 0.940649 0.329080 0.851255
O O14 0.770079 0.229922 0.500000
O O15 0.915031 0.457516 0.500000
O O16 0.459421 0.229711 0.220048
O O17 0.546706 0.453295 0.222809
#
# Coordination Sequence:
#
# PCOD8327027 Si02
#       6
#     6  12  12  12   6  12
#     4  10  20  32  46  64  88 118 150 184 222 266
#     4   9  17  29  46  68  93 120 150 185 224 265
#     4   9  17  30  49  71  91 113 146 190 233 265
#     4   9  17  30  49  71  92 115 147 189 231 266
#     4  10  20  32  46  66  94 124 150 178 218 272
#     4   9  17  29  46  69  95 121 149 183 224 267
#
# _framework density 16.153037000000001
#
# number of rings (size 3 to 8) (size 9 to 14) (size 15 to 20)
#    0.000    2.800    0.000    1.600    0.000    4.800 
#    0.000    2.000    0.000    6.000    0.000    0.000 
#    0.000    0.000    0.000    0.000    0.000    0.000 
#
# Total GULP energy -743989.591343 kJ/mol
# GULP energy per Si atom -12399.826522 kJ/mol
# Density = 1.611627 g / cm^3
# Si number density = 16.153037 Si / 1000 Ang^3
#
#
#
# Elastic Constant Matrix: (Units=GPa)
#
#
# Indices 1 2 3 4 5 6 
#
# 1 107.8175 60.5815 67.8162 0.0000 -0.0004 0.0000
# 2 60.5815 107.8175 67.8162 0.0000 0.0004 0.0000
# 3 67.8162 67.8162 111.5315 0.0000 0.0000 0.0000
# 4 0.0000 0.0000 0.0000 26.3662 0.0000 0.0004
# 5 -0.0004 0.0004 0.0000 0.0000 26.3662 0.0000
# 6 0.0000 0.0000 0.0000 0.0004 0.0000 23.6180
#
#
#
# Elastic Compliance Matrix: (Units=1/GPa)
#
#
# Indices 1 2 3 4 5 6 
#
# 1 0.016404 -0.004766 -0.007076 0.000000 0.000000 0.000000
# 2 -0.004766 0.016404 -0.007076 0.000000 0.000000 0.000000
# 3 -0.007076 -0.007076 0.017571 0.000000 0.000000 0.000000
# 4 0.000000 0.000000 0.000000 0.037927 0.000000 -0.000001
# 5 0.000000 0.000000 0.000000 0.000000 0.037927 0.000000
# 6 0.000000 0.000000 0.000000 -0.000001 0.000000 0.042341
#
#
# Mechanical properties :
#
#
# Convention : Reuss Voigt Hill
#
# Bulk Modulus (GPa) = 79.73332 79.95494 79.84413
# Shear Modulus (GPa) = 23.74251 24.00024 23.87137
#
# Velocity S-wave (km/s) = 3.83802 3.85879 3.84842
# Velocity P-wave (km/s) = 8.31317 8.33424 8.32371
#
# Compressibility (1/GPa) = 0.01254181
#
# Stress axis : x y z
#
# Youngs Moduli (GPa) = 60.96085 60.96085 56.91074
#
# Poissons Ratio (x) = 0.29056 0.40271
# Poissons Ratio (y) = 0.29056 0.40271
# Poissons Ratio (z) = 0.43137 0.43137
#
# Static dielectric constant tensor:
#      x y z
#    x 2.909440 0.000000 0.000000 
#    y 0.000000 2.909440 0.000000 
#    z 0.000000 0.000000 3.320280 
# 
# 
# High freq. dielectric constant tensor:
#      x y z
#    x 1.606550 0.000000 0.000000 
#    y 0.000000 1.606550 0.000000 
#    z 0.000000 0.000000 1.635740 
# 
# From -- ./inp_files/4192.got.cif
#   From: 2010.03.12/outbox.cif.g09.slc.cpg/sg187_3_cif.got.tgz:4192.got - 2010.04.01 11:58:23.
