data_PCOD8327010
_publ_section_title
;
Structure prediction by ZEFSAII (Michael W. Deem and Ramdas Pophale) SiO2 
 PCOD8327010
Probable space group: P -6 M 2
;
_chemical_formula_sum "Si O2"
_cell_formula_units_Z 66
_cell_length_a 12.861131
_cell_length_b 12.861131
_cell_length_c 28.485718
_cell_angle_alpha 90.000000
_cell_angle_beta 90.000000
_cell_angle_gamma 120.000000
_cell_volume 4080.525780
_symmetry_space_group_name_H-M "P -6 M 2"
_symmetry_group_IT_number 187
_symmetry_cell_setting 'hexagonal'
loop_
_space_group_symop_operation_xyz
x,y,z
-x+y,-x,-z
-y,x-y,z
x,y,-z
-x+y,-x,z
-y,x-y,-z
-y,-x,-z
-x+y,y,-z
x,x-y,-z
-x+y,y,z
x,x-y,z
-y,-x,z
loop_
_atom_site_type_symbol
_atom_site_label
_atom_site_fract_x
_atom_site_fract_y
_atom_site_fract_z
Si Si1 0.088618 0.422881 0.000000
Si Si2 0.668597 0.099544 0.183626
Si Si3 0.000587 0.755841 0.633386
Si Si4 0.669480 0.091177 0.714535
Si Si5 0.422034 0.331298 0.918136
Si Si6 0.094399 0.666708 0.446371
O O1 0.013700 0.354022 0.045955
O O2 0.209655 0.419309 0.000000
O O3 0.120123 0.560062 0.000000
O O4 0.534312 0.068623 0.186196
O O5 0.757088 0.242913 0.181708
O O6 0.690023 0.050171 0.233100
O O7 0.684823 0.046365 0.134108
O O8 0.884453 0.768905 0.630124
O O9 0.997109 0.676122 0.677516
O O10 0.007989 0.692634 0.585861
O O11 0.113638 0.886362 0.640030
O O12 0.541136 0.082271 0.709755
O O13 0.771689 0.228312 0.704391
O O14 0.424269 0.212135 0.933451
O O15 0.558690 0.441311 0.918468
O O16 0.054559 0.665406 0.500000
O O17 0.080404 0.540202 0.431821
O O18 0.232731 0.767270 0.438817
#
# Coordination Sequence:
#
# PCOD8327010 Si02
#       6
#     6  12  12  12  12  12
#     4  10  20  32  44  58  80 114 152 182 206 240
#     4   8  13  22  39  65  93 115 134 163 212 271
#     4  10  20  32  45  62  87 121 158 191 219 248
#     4   9  16  27  45  68  92 116 143 177 219 267
#     4   9  16  27  46  71  94 111 131 169 223 275
#     4   9  17  30  49  71  91 110 135 172 220 270
#
# _framework density 16.174386999999999
#
# number of rings (size 3 to 8) (size 9 to 14) (size 15 to 20)
#    0.000    2.909    0.000    1.818    0.000    4.000 
#    0.000    1.818    0.000    3.273    0.000    0.000 
#    0.000    0.000    0.000    0.000    0.000    0.000 
#
# Total GULP energy -817702.638920 kJ/mol
# GULP energy per Si atom -12389.433923 kJ/mol
# Density = 1.613757 g / cm^3
# Si number density = 16.174387 Si / 1000 Ang^3
#
#
#
# Elastic Constant Matrix: (Units=GPa)
#
#
# Indices 1 2 3 4 5 6 
#
# 1 79.0571 40.5058 60.1129 0.0000 -0.0001 0.0000
# 2 40.5058 79.0571 60.1129 0.0000 0.0001 0.0000
# 3 60.1129 60.1129 142.8309 0.0000 0.0000 0.0000
# 4 0.0000 0.0000 0.0000 20.4204 0.0000 0.0001
# 5 -0.0001 0.0001 0.0000 0.0000 20.4204 0.0000
# 6 0.0000 0.0000 0.0000 0.0001 0.0000 19.2757
#
#
#
# Elastic Compliance Matrix: (Units=1/GPa)
#
#
# Indices 1 2 3 4 5 6 
#
# 1 0.020220 -0.005720 -0.006103 0.000000 0.000000 0.000000
# 2 -0.005720 0.020220 -0.006103 0.000000 0.000000 0.000000
# 3 -0.006103 -0.006103 0.012138 0.000000 0.000000 0.000000
# 4 0.000000 0.000000 0.000000 0.048971 0.000000 0.000000
# 5 0.000000 0.000000 0.000000 0.000000 0.048971 0.000000
# 6 0.000000 0.000000 0.000000 0.000000 0.000000 0.051879
#
#
# Mechanical properties :
#
#
# Convention : Reuss Voigt Hill
#
# Bulk Modulus (GPa) = 59.78014 69.15649 64.46831
# Shear Modulus (GPa) = 20.50657 21.37085 20.93871
#
# Velocity S-wave (km/s) = 3.56454 3.63888 3.60190
# Velocity P-wave (km/s) = 7.34719 7.77849 7.56592
#
# Compressibility (1/GPa) = 0.01672796
#
# Stress axis : x y z
#
# Youngs Moduli (GPa) = 49.45622 49.45622 82.38468
#
# Poissons Ratio (x) = 0.28287 0.50277
# Poissons Ratio (y) = 0.28287 0.50277
# Poissons Ratio (z) = 0.30182 0.30182
#
# Static dielectric constant tensor:
#      x y z
#    x 2.800880 0.000000 0.000000 
#    y 0.000000 2.800880 0.000000 
#    z 0.000000 0.000000 3.623750 
# 
# 
# High freq. dielectric constant tensor:
#      x y z
#    x 1.595470 0.000000 0.000000 
#    y 0.000000 1.595470 0.000000 
#    z 0.000000 0.000000 1.647440 
# 
# From -- ./inp_files/4449.got.cif
#   From: 2010.03.12/outbox.cif.g09.slc.cpg/sg187_3_cif.got.tgz:4449.got - 2010.04.01 11:58:23.
