data_PCOD8327344
_publ_section_title
;
Structure prediction by ZEFSAII (Michael W. Deem and Ramdas Pophale) SiO2 
 PCOD8327344
Probable space group: P -6 C 2
;
_chemical_formula_sum "Si O2"
_cell_formula_units_Z 72
_cell_length_a 23.948117
_cell_length_b 23.948117
_cell_length_c 8.825343
_cell_angle_alpha 90.000000
_cell_angle_beta 90.000000
_cell_angle_gamma 120.000000
_cell_volume 4383.338072
_symmetry_space_group_name_H-M "P -6 C 2"
_symmetry_group_IT_number 188
_symmetry_cell_setting 'hexagonal'
loop_
_space_group_symop_operation_xyz
x,y,z
-x+y,-x,1/2-z
-y,x-y,z
x,y,1/2-z
-x+y,-x,z
-y,x-y,1/2-z
-y,-x,-z
-x+y,y,-z
x,x-y,-z
-x+y,y,1/2+z
x,x-y,1/2+z
-y,-x,1/2+z
loop_
_atom_site_type_symbol
_atom_site_label
_atom_site_fract_x
_atom_site_fract_y
_atom_site_fract_z
Si Si1 0.225417 0.884169 0.580966
Si Si2 0.334075 0.335148 0.926034
Si Si3 0.263980 0.074781 0.428903
Si Si4 0.667351 0.216042 0.068573
Si Si5 0.920879 0.517900 0.929052
Si Si6 0.038486 0.187769 0.921148
O O1 0.238729 0.870438 0.750000
O O2 0.185104 0.814897 0.500000
O O3 0.184887 0.920356 0.575860
O O4 0.294433 0.929140 0.503402
O O5 0.319007 0.331679 0.750000
O O6 0.311270 0.262668 0.983714
O O7 0.408657 0.381799 0.963785
O O8 0.262959 0.080244 0.250000
O O9 0.290859 0.145430 0.500000
O O10 0.191469 0.027491 0.487401
O O11 0.667721 0.219561 0.250000
O O12 0.737657 0.262344 0.000000
O O13 0.618785 0.237570 0.000000
O O14 0.646879 0.144629 0.013333
O O15 0.907636 0.504319 0.750000
O O16 0.947754 0.473877 0.000000
O O17 0.021916 0.161648 0.750000
O O18 0.079527 0.159053 0.000000
#
# Coordination Sequence:
#
# PCOD8327344 Si02
#       6
#    12  12  12  12  12  12
#     4   9  16  26  44  68  93 117 144 175 212 255
#     4   9  19  33  48  66  92 122 154 190 230 274
#     4  10  19  31  45  64  89 117 148 188 233 278
#     4  11  21  34  50  68  88 112 147 195 249 303
#     4  10  20  35  51  69  92 122 158 196 237 287
#     4   9  16  27  43  63  84 110 141 174 211 257
#
# _framework density 16.425837000000001
#
# number of rings (size 3 to 8) (size 9 to 14) (size 15 to 20)
#    0.000    2.333    0.000    4.667    0.000    6.667 
#    0.000    1.667    0.000    0.333    0.000    2.333 
#    0.000    0.000    0.000    0.500    0.000    8.000 
#
# Total GULP energy -892784.113996 kJ/mol
# GULP energy per Si atom -12399.779361 kJ/mol
# Density = 1.638845 g / cm^3
# Si number density = 16.425837 Si / 1000 Ang^3
#
#
#
# Elastic Constant Matrix: (Units=GPa)
#
#
# Indices 1 2 3 4 5 6 
#
# 1 82.2101 52.5116 48.3512 0.0001 0.0000 0.0000
# 2 52.5116 82.2101 48.3512 -0.0001 0.0000 0.0000
# 3 48.3512 48.3512 114.2181 0.0000 0.0000 0.0000
# 4 0.0001 -0.0001 0.0000 25.0620 0.0000 0.0000
# 5 0.0000 0.0000 0.0000 0.0000 25.0620 0.0001
# 6 0.0000 0.0000 0.0000 0.0000 0.0001 14.8492
#
#
#
# Elastic Compliance Matrix: (Units=1/GPa)
#
#
# Indices 1 2 3 4 5 6 
#
# 1 0.022167 -0.011505 -0.004514 0.000000 0.000000 0.000000
# 2 -0.011505 0.022167 -0.004514 0.000000 0.000000 0.000000
# 3 -0.004514 -0.004514 0.012577 0.000000 0.000000 0.000000
# 4 0.000000 0.000000 0.000000 0.039901 0.000000 0.000000
# 5 0.000000 0.000000 0.000000 0.000000 0.039901 0.000000
# 6 0.000000 0.000000 0.000000 0.000000 0.000000 0.067343
#
#
# Mechanical properties :
#
#
# Convention : Reuss Voigt Hill
#
# Bulk Modulus (GPa) = 63.10328 64.11847 63.61088
# Shear Modulus (GPa) = 19.96779 21.62292 20.79536
#
# Velocity S-wave (km/s) = 3.49038 3.63215 3.56197
# Velocity P-wave (km/s) = 7.39893 7.53060 7.46505
#
# Compressibility (1/GPa) = 0.01584704
#
# Stress axis : x y z
#
# Youngs Moduli (GPa) = 45.11170 45.11170 79.51190
#
# Poissons Ratio (x) = 0.51899 0.35890
# Poissons Ratio (y) = 0.51899 0.35890
# Poissons Ratio (z) = 0.20362 0.20362
#
# Static dielectric constant tensor:
#      x y z
#    x 2.936560 0.000000 0.000000 
#    y 0.000000 2.936560 0.000000 
#    z 0.000000 0.000000 3.259010 
# 
# 
# High freq. dielectric constant tensor:
#      x y z
#    x 1.603580 0.000000 0.000000 
#    y 0.000000 1.603580 0.000000 
#    z 0.000000 0.000000 1.651130 
# 
# From -- ./inp_files/1036.got.cif
#   From: 2010.03.12/outbox.cif.g09.slc.cpg/sg188_1_cif.got.tgz:1036.got - 2010.04.01 12:01:06.
