data_PCOD8327693
_publ_section_title
;
Structure prediction by ZEFSAII (Michael W. Deem and Ramdas Pophale) SiO2 
 PCOD8327693
Probable space group: P -6 2 M
;
_chemical_formula_sum "Si O2"
_cell_formula_units_Z 70
_cell_length_a 18.517140
_cell_length_b 18.517140
_cell_length_c 17.091249
_cell_angle_alpha 90.000000
_cell_angle_beta 90.000000
_cell_angle_gamma 120.000000
_cell_volume 5075.189389
_symmetry_space_group_name_H-M "P -6 2 M"
_symmetry_group_IT_number 189
_symmetry_cell_setting 'hexagonal'
loop_
_space_group_symop_operation_xyz
x,y,z
-x+y,-x,-z
-y,x-y,z
x,y,-z
-x+y,-x,z
-y,x-y,-z
x-y,-y,-z
-x,-x+y,-z
y,x,-z
y,x,z
x-y,-y,z
-x,-x+y,z
loop_
_atom_site_type_symbol
_atom_site_label
_atom_site_fract_x
_atom_site_fract_y
_atom_site_fract_z
Si Si1 0.436255 0.585442 0.406945
Si Si2 0.738063 0.902379 0.328245
Si Si3 0.805047 0.903848 0.831356
Si Si4 0.693994 0.098467 0.412469
Si Si5 0.094544 0.902794 0.000000
Si Si6 0.333334 0.666668 0.592924
Si Si7 0.226477 0.000000 0.407416
Si Si8 0.609501 0.609501 0.593298
O O1 0.438923 0.581218 0.500000
O O2 0.366543 0.494904 0.375880
O O3 0.407302 0.650388 0.377884
O O4 0.527551 0.610459 0.373906
O O5 0.736225 0.882099 0.235905
O O6 0.643468 0.869661 0.356063
O O7 0.776372 0.856330 0.377281
O O8 0.795867 0.000000 0.346166
O O9 0.847014 0.847014 0.820187
O O10 0.758621 0.887774 0.917023
O O11 0.877389 0.000000 0.823592
O O12 0.724997 0.135888 0.500000
O O13 0.643683 0.000000 0.417674
O O14 0.000000 0.882290 0.000000
O O15 0.151230 0.000000 0.000000
O O16 0.333334 0.666668 0.500000
O O17 0.226051 0.000000 0.500000
O O18 0.308812 0.000000 0.375033
O O19 0.608099 0.608099 0.500000
#
# Coordination Sequence:
#
# PCOD8327693 Si02
#       8
#    12  12  12  12   6   4   6   6
#     4   9  16  28  41  58  75  93 122 163 210 251
#     4  10  20  31  41  55  77 108 141 174 208 233
#     4   9  15  25  38  54  75 100 134 171 209 244
#     4   9  16  27  42  54  70  98 133 165 197 242
#     4   8  13  20  36  56  72  94 124 166 210 252
#     4   9  18  24  36  57  75  90 117 157 206 256
#     4  11  22  32  42  55  74 106 148 184 204 230
#     4   9  18  30  44  58  74  96 130 173 214 242
#
# _framework density 13.792589
#
# number of rings (size 3 to 8) (size 9 to 14) (size 15 to 20)
#    0.000    2.743    1.714    0.771    2.400    2.400 
#    0.514    0.000    0.000    0.000    0.000    0.000 
#    0.000    0.000    0.000    3.086    0.000    0.171 
#
# Total GULP energy -867302.115088 kJ/mol
# GULP energy per Si atom -12390.030216 kJ/mol
# Density = 1.376120 g / cm^3
# Si number density = 13.792589 Si / 1000 Ang^3
#
#
#
# Elastic Constant Matrix: (Units=GPa)
#
#
# Indices 1 2 3 4 5 6 
#
# 1 56.7641 19.4689 20.3636 0.0000 0.0000 -0.0002
# 2 19.4689 56.7635 20.3632 0.0000 0.0000 -0.0001
# 3 20.3636 20.3632 70.0790 0.0000 0.0000 -0.0001
# 4 0.0000 0.0000 0.0000 6.1463 0.0000 0.0000
# 5 0.0000 0.0000 0.0000 0.0000 6.1464 0.0000
# 6 -0.0002 -0.0001 -0.0001 0.0000 0.0000 18.6473
#
#
#
# Elastic Compliance Matrix: (Units=1/GPa)
#
#
# Indices 1 2 3 4 5 6 
#
# 1 0.021171 -0.005642 -0.004512 0.000000 0.000000 0.000000
# 2 -0.005642 0.021171 -0.004512 0.000000 0.000000 0.000000
# 3 -0.004512 -0.004512 0.016892 0.000000 0.000000 0.000000
# 4 0.000000 0.000000 0.000000 0.162700 0.000001 0.000000
# 5 0.000000 0.000000 0.000000 0.000001 0.162697 0.000000
# 6 0.000000 0.000000 0.000000 0.000000 0.000000 0.053627
#
#
# Mechanical properties :
#
#
# Convention : Reuss Voigt Hill
#
# Bulk Modulus (GPa) = 33.44501 33.77754 33.61127
# Shear Modulus (GPa) = 10.46995 14.41541 12.44268
#
# Velocity S-wave (km/s) = 2.75817 3.23639 3.00680
# Velocity P-wave (km/s) = 5.86894 6.20552 6.03958
#
# Compressibility (1/GPa) = 0.02989983
#
# Stress axis : x y z
#
# Youngs Moduli (GPa) = 47.23502 47.23465 59.20006
#
# Poissons Ratio (x) = 0.26652 0.26712
# Poissons Ratio (y) = 0.26652 0.26712
# Poissons Ratio (z) = 0.21314 0.21313
#
# Static dielectric constant tensor:
#      x y z
#    x 2.771450 0.000000 0.000000 
#    y 0.000000 2.771450 0.000000 
#    z 0.000000 0.000000 2.773360 
# 
# 
# High freq. dielectric constant tensor:
#      x y z
#    x 1.518410 0.000000 0.000000 
#    y 0.000000 1.518410 0.000000 
#    z 0.000000 0.000000 1.480930 
# 
# From -- ./inp_files/3206.got.cif
#   From: 2010.03.12/outbox.cif.g09.slc.cpg/sg189_2_cif.got.tgz:3206.got - 2010.04.01 12:03:36.
