data_PCOD8327837
_publ_section_title
;
Structure prediction by ZEFSAII (Michael W. Deem and Ramdas Pophale) SiO2 
 PCOD8327837
Probable space group: P -6 2 M
;
_chemical_formula_sum "Si O2"
_cell_formula_units_Z 36
_cell_length_a 15.152923
_cell_length_b 15.152923
_cell_length_c 10.343615
_cell_angle_alpha 90.000000
_cell_angle_beta 90.000000
_cell_angle_gamma 120.000000
_cell_volume 2056.817751
_symmetry_space_group_name_H-M "P -6 2 M"
_symmetry_group_IT_number 189
_symmetry_cell_setting 'hexagonal'
loop_
_space_group_symop_operation_xyz
x,y,z
-x+y,-x,-z
-y,x-y,z
x,y,-z
-x+y,-x,z
-y,x-y,-z
x-y,-y,-z
-x,-x+y,-z
y,x,-z
y,x,z
x-y,-y,z
-x,-x+y,z
loop_
_atom_site_type_symbol
_atom_site_label
_atom_site_fract_x
_atom_site_fract_y
_atom_site_fract_z
Si Si1 0.576581 0.696180 0.247256
Si Si2 0.453650 0.683351 0.500000
Si Si3 0.218287 0.555490 0.000000
Si Si4 0.768147 0.884657 0.150521
O O1 0.622137 0.622137 0.263249
O O2 0.517057 0.692291 0.374395
O O3 0.501366 0.657132 0.126269
O O4 0.665918 0.812433 0.228731
O O5 0.348169 0.574374 0.500000
O O6 0.329911 0.564393 0.000000
O O7 0.853850 0.853850 0.176415
O O8 0.812058 0.000000 0.198496
O O9 0.739303 0.872621 0.000000
#
# Coordination Sequence:
#
# PCOD8327837 Si02
#       4
#    12   6   6  12
#     4  11  20  37  60  87 113 146 190 236 280 332
#     4  10  23  42  62  74 109 156 186 232 282 336
#     4  10  21  36  58  78 115 154 182 228 288 324
#     4   9  17  31  54  84 120 153 184 226 280 340
#
# _framework density 17.502766000000001
#
# number of rings (size 3 to 8) (size 9 to 14) (size 15 to 20)
#    0.667    1.333    1.667    3.333    0.000    1.333 
#    0.000   10.833    0.000    0.000    0.000    2.333 
#    0.000    0.000    0.000    0.000    0.000    0.000 
#
# Total GULP energy -446351.439477 kJ/mol
# GULP energy per Si atom -12398.651097 kJ/mol
# Density = 1.746293 g / cm^3
# Si number density = 17.502766 Si / 1000 Ang^3
#
#
#
# Elastic Constant Matrix: (Units=GPa)
#
#
# Indices 1 2 3 4 5 6 
#
# 1 121.3818 65.2842 66.5196 0.0000 0.0000 0.0000
# 2 65.2842 121.3818 66.5196 0.0000 0.0000 0.0000
# 3 66.5196 66.5196 143.0673 0.0000 0.0000 0.0000
# 4 0.0000 0.0000 0.0000 33.0456 0.0000 0.0000
# 5 0.0000 0.0000 0.0000 0.0000 33.0456 0.0000
# 6 0.0000 0.0000 0.0000 0.0000 0.0000 28.0488
#
#
#
# Elastic Compliance Matrix: (Units=1/GPa)
#
#
# Indices 1 2 3 4 5 6 
#
# 1 0.012919 -0.004907 -0.003725 0.000000 0.000000 0.000000
# 2 -0.004907 0.012919 -0.003725 0.000000 0.000000 0.000000
# 3 -0.003725 -0.003725 0.010454 0.000000 0.000000 0.000000
# 4 0.000000 0.000000 0.000000 0.030261 0.000000 0.000000
# 5 0.000000 0.000000 0.000000 0.000000 0.030261 0.000000
# 6 0.000000 0.000000 0.000000 0.000000 0.000000 0.035652
#
#
# Mechanical properties :
#
#
# Convention : Reuss Voigt Hill
#
# Bulk Modulus (GPa) = 86.37719 86.94195 86.65957
# Shear Modulus (GPa) = 31.04798 31.32847 31.18822
#
# Velocity S-wave (km/s) = 4.21633 4.23533 4.22584
# Velocity P-wave (km/s) = 8.55342 8.58478 8.56911
#
# Compressibility (1/GPa) = 0.01157713
#
# Stress axis : x y z
#
# Youngs Moduli (GPa) = 77.40439 77.40439 95.65792
#
# Poissons Ratio (x) = 0.37982 0.35636
# Poissons Ratio (y) = 0.37982 0.35636
# Poissons Ratio (z) = 0.28836 0.28836
#
# Static dielectric constant tensor:
#      x y z
#    x 3.307330 0.000000 0.000000 
#    y 0.000000 3.307330 0.000000 
#    z 0.000000 0.000000 2.899690 
# 
# 
# High freq. dielectric constant tensor:
#      x y z
#    x 1.679080 0.000000 0.000000 
#    y 0.000000 1.679080 0.000000 
#    z 0.000000 0.000000 1.668870 
# 
# From -- ./inp_files/440.got.cif
#   From: 2010.03.12/outbox.cif.g09.slc.cpg/sg189_1_cif.got.tgz:440.got - 2010.04.01 12:03:36.
