data_PCOD8327776
_publ_section_title
;
Structure prediction by ZEFSAII (Michael W. Deem and Ramdas Pophale) SiO2 
 PCOD8327776
Probable space group: P -6 2 M
;
_chemical_formula_sum "Si O2"
_cell_formula_units_Z 44
_cell_length_a 16.990531
_cell_length_b 16.990531
_cell_length_c 9.306690
_cell_angle_alpha 90.000000
_cell_angle_beta 90.000000
_cell_angle_gamma 120.000000
_cell_volume 2326.696753
_symmetry_space_group_name_H-M "P -6 2 M"
_symmetry_group_IT_number 189
_symmetry_cell_setting 'hexagonal'
loop_
_space_group_symop_operation_xyz
x,y,z
-x+y,-x,-z
-y,x-y,z
x,y,-z
-x+y,-x,z
-y,x-y,-z
x-y,-y,-z
-x,-x+y,-z
y,x,-z
y,x,z
x-y,-y,z
-x,-x+y,z
loop_
_atom_site_type_symbol
_atom_site_label
_atom_site_fract_x
_atom_site_fract_y
_atom_site_fract_z
Si Si1 0.643972 0.537204 0.663400
Si Si2 0.000000 0.835464 0.667373
Si Si3 0.606910 0.105237 0.158223
Si Si4 0.782709 0.149191 0.332952
Si Si5 0.000000 0.000000 0.173149
O O1 0.637527 0.504676 0.500000
O O2 0.598562 0.598562 0.683607
O O3 0.594570 0.445126 0.757991
O O4 0.747730 0.599504 0.711700
O O5 0.000000 0.861375 0.500000
O O6 0.089406 0.829249 0.704367
O O7 0.000000 0.911073 0.768919
O O8 0.691982 0.115288 0.244026
O O9 0.535516 0.000000 0.142178
O O10 0.636553 0.150181 0.000000
O O11 0.755985 0.138058 0.500000
O O12 0.000000 0.000000 0.000000
#
# Coordination Sequence:
#
# PCOD8327776 Si02
#       5
#    12   6  12  12   2
#     4   9  19  35  57  82 110 142 186 238 285 339
#     4  10  22  40  66  91 118 157 204 255 306 357
#     4  10  20  35  55  80 113 148 183 225 281 345
#     4  10  20  36  62  90 113 148 196 245 295 349
#     4  12  28  44  58  87 130 167 202 249 304 353
#
# _framework density 18.910931999999999
#
# number of rings (size 3 to 8) (size 9 to 14) (size 15 to 20)
#    0.000    2.182    1.364    1.227    1.909    3.273 
#    1.636    0.000    0.000    0.000    0.000    0.000 
#    0.000    0.000    0.000    0.000    0.000    0.000 
#
# Total GULP energy -545554.168256 kJ/mol
# GULP energy per Si atom -12398.958369 kJ/mol
# Density = 1.886789 g / cm^3
# Si number density = 18.910932 Si / 1000 Ang^3
#
#
#
# Elastic Constant Matrix: (Units=GPa)
#
#
# Indices 1 2 3 4 5 6 
#
# 1 107.0822 45.8350 65.7584 0.0000 0.0000 0.0000
# 2 45.8350 107.0822 65.7584 0.0000 0.0000 0.0000
# 3 65.7584 65.7584 110.5023 0.0000 0.0000 0.0000
# 4 0.0000 0.0000 0.0000 19.5076 0.0000 0.0000
# 5 0.0000 0.0000 0.0000 0.0000 19.5076 0.0000
# 6 0.0000 0.0000 0.0000 0.0000 0.0000 30.6236
#
#
#
# Elastic Compliance Matrix: (Units=1/GPa)
#
#
# Indices 1 2 3 4 5 6 
#
# 1 0.014861 -0.001466 -0.007971 0.000000 0.000000 0.000000
# 2 -0.001466 0.014861 -0.007971 0.000000 0.000000 0.000000
# 3 -0.007971 -0.007971 0.018537 0.000000 0.000000 0.000000
# 4 0.000000 0.000000 0.000000 0.051262 0.000000 0.000000
# 5 0.000000 0.000000 0.000000 0.000000 0.051262 0.000000
# 6 0.000000 0.000000 0.000000 0.000000 0.000000 0.032655
#
#
# Mechanical properties :
#
#
# Convention : Reuss Voigt Hill
#
# Bulk Modulus (GPa) = 74.39356 75.48559 74.93958
# Shear Modulus (GPa) = 22.44811 23.74877 23.09844
#
# Velocity S-wave (km/s) = 3.44909 3.54760 3.49869
# Velocity P-wave (km/s) = 7.43545 7.53549 7.48564
#
# Compressibility (1/GPa) = 0.01344202
#
# Stress axis : x y z
#
# Youngs Moduli (GPa) = 67.28903 67.28903 53.94655
#
# Poissons Ratio (x) = 0.09865 0.43003
# Poissons Ratio (y) = 0.09865 0.43003
# Poissons Ratio (z) = 0.53638 0.53638
#
# Static dielectric constant tensor:
#      x y z
#    x 3.491140 0.000000 0.000000 
#    y 0.000000 3.491140 0.000000 
#    z 0.000000 0.000000 3.678820 
# 
# 
# High freq. dielectric constant tensor:
#      x y z
#    x 1.732080 0.000000 0.000000 
#    y 0.000000 1.732080 0.000000 
#    z 0.000000 0.000000 1.732830 
# 
# From -- ./inp_files/592.got.cif
#   From: 2010.03.12/outbox.cif.g09.slc.cpg/sg189_1_cif.got.tgz:592.got - 2010.04.01 12:03:36.
