data_PCOD8327226
_publ_section_title
;
Structure prediction by ZEFSAII (Michael W. Deem and Ramdas Pophale) SiO2 
 PCOD8327226
Probable space group: P -6 M 2
;
_chemical_formula_sum "Si O2"
_cell_formula_units_Z 66
_cell_length_a 22.294130
_cell_length_b 22.294130
_cell_length_c 7.771546
_cell_angle_alpha 90.000000
_cell_angle_beta 90.000000
_cell_angle_gamma 120.000000
_cell_volume 3345.177077
_symmetry_space_group_name_H-M "P -6 M 2"
_symmetry_group_IT_number 187
_symmetry_cell_setting 'hexagonal'
loop_
_space_group_symop_operation_xyz
x,y,z
-x+y,-x,-z
-y,x-y,z
x,y,-z
-x+y,-x,z
-y,x-y,-z
-y,-x,-z
-x+y,y,-z
x,x-y,-z
-x+y,y,z
x,x-y,z
-y,-x,z
loop_
_atom_site_type_symbol
_atom_site_label
_atom_site_fract_x
_atom_site_fract_y
_atom_site_fract_z
Si Si1 0.666373 0.190587 0.000000
Si Si2 0.207266 0.925960 0.298514
Si Si3 0.467298 0.666673 0.202901
Si Si4 0.473495 0.088311 0.303837
Si Si5 0.133734 0.133061 0.796892
Si Si6 0.347678 0.944549 0.298185
O O1 0.664879 0.148782 0.827687
O O2 0.736860 0.263141 0.000000
O O3 0.602340 0.204679 0.000000
O O4 0.209006 0.915489 0.500000
O O5 0.142806 0.857195 0.215534
O O6 0.277955 0.937195 0.213931
O O7 0.198746 0.992251 0.258153
O O8 0.482145 0.741073 0.278847
O O9 0.393795 0.606206 0.275352
O O10 0.524812 0.647467 0.254800
O O11 0.464117 0.669181 0.000000
O O12 0.459094 0.104664 0.500000
O O13 0.540416 0.080832 0.304213
O O14 0.412348 0.015397 0.229405
O O15 0.144251 0.072126 0.717849
O O16 0.063093 0.126185 0.720362
O O17 0.128612 0.126730 0.000000
O O18 0.346078 0.951769 0.500000
#
# Coordination Sequence:
#
# PCOD8327226 Si02
#       6
#     6  12  12  12  12  12
#     4  10  21  38  62  90 119 150 184 226 276 334
#     4   9  18  32  49  70  98 131 168 213 262 312
#     4  10  21  35  52  76 108 144 182 227 279 331
#     4   9  19  36  58  85 116 149 187 232 278 327
#     4   9  17  30  48  69  93 123 160 205 256 310
#     4  10  20  35  55  77 103 140 184 226 271 326
#
# _framework density 19.729897000000001
#
# number of rings (size 3 to 8) (size 9 to 14) (size 15 to 20)
#    0.000    2.545    0.000    1.545    1.273    5.091 
#    0.000    2.727    0.000    6.545    0.000    0.000 
#    0.000    0.000    0.000    0.000    0.000    0.000 
#
# Total GULP energy -818092.366798 kJ/mol
# GULP energy per Si atom -12395.338891 kJ/mol
# Density = 1.968499 g / cm^3
# Si number density = 19.729897 Si / 1000 Ang^3
#
#
#
# Elastic Constant Matrix: (Units=GPa)
#
#
# Indices 1 2 3 4 5 6 
#
# 1 114.5056 46.6499 26.3188 0.0000 -0.0006 0.0000
# 2 46.6499 114.5056 26.3188 0.0000 0.0006 0.0000
# 3 26.3188 26.3188 47.4394 0.0000 0.0000 0.0000
# 4 0.0000 0.0000 0.0000 15.7315 0.0000 0.0006
# 5 -0.0006 0.0006 0.0000 0.0000 15.7315 0.0000
# 6 0.0000 0.0000 0.0000 0.0006 0.0000 33.9278
#
#
#
# Elastic Compliance Matrix: (Units=1/GPa)
#
#
# Indices 1 2 3 4 5 6 
#
# 1 0.011158 -0.003579 -0.004204 0.000000 0.000001 0.000000
# 2 -0.003579 0.011158 -0.004204 0.000000 -0.000001 0.000000
# 3 -0.004204 -0.004204 0.025745 0.000000 0.000000 0.000000
# 4 0.000000 0.000000 0.000000 0.063567 0.000000 -0.000001
# 5 0.000001 -0.000001 0.000000 0.000000 0.063567 0.000000
# 6 0.000000 0.000000 0.000000 -0.000001 0.000000 0.029474
#
#
# Mechanical properties :
#
#
# Convention : Reuss Voigt Hill
#
# Bulk Modulus (GPa) = 41.52161 52.78060 47.15111
# Shear Modulus (GPa) = 21.12624 24.88904 23.00764
#
# Velocity S-wave (km/s) = 3.27582 3.55560 3.41857
# Velocity P-wave (km/s) = 5.94968 6.60803 6.28748
#
# Compressibility (1/GPa) = 0.02408384
#
# Stress axis : x y z
#
# Youngs Moduli (GPa) = 89.62328 89.62328 38.84300
#
# Poissons Ratio (x) = 0.32079 0.16331
# Poissons Ratio (y) = 0.32079 0.16331
# Poissons Ratio (z) = 0.37682 0.37682
#
# Static dielectric constant tensor:
#      x y z
#    x 3.766460 0.000000 0.000000 
#    y 0.000000 3.766460 0.000000 
#    z 0.000000 0.000000 3.539890 
# 
# 
# High freq. dielectric constant tensor:
#      x y z
#    x 1.764810 0.000000 0.000000 
#    y 0.000000 1.764810 0.000000 
#    z 0.000000 0.000000 1.757690 
# 
# From -- ./inp_files/772.got.cif
#   From: 2010.03.12/outbox.cif.g09.slc.cpg/sg187_1_cif.got.tgz:772.got - 2010.04.01 11:58:23.
