data_PCOD8327490
_publ_section_title
;
Structure prediction by ZEFSAII (Michael W. Deem and Ramdas Pophale) SiO2 
 PCOD8327490
Probable space group: P -6 2 M
;
_chemical_formula_sum "Si O2"
_cell_formula_units_Z 66
_cell_length_a 13.811053
_cell_length_b 13.811053
_cell_length_c 20.986533
_cell_angle_alpha 90.000000
_cell_angle_beta 90.000000
_cell_angle_gamma 120.000000
_cell_volume 3466.769076
_symmetry_space_group_name_H-M "P -6 2 M"
_symmetry_group_IT_number 189
_symmetry_cell_setting 'hexagonal'
loop_
_space_group_symop_operation_xyz
x,y,z
-x+y,-x,-z
-y,x-y,z
x,y,-z
-x+y,-x,z
-y,x-y,-z
x-y,-y,-z
-x,-x+y,-z
y,x,-z
y,x,z
x-y,-y,z
-x,-x+y,z
loop_
_atom_site_type_symbol
_atom_site_label
_atom_site_fract_x
_atom_site_fract_y
_atom_site_fract_z
Si Si1 0.695106 0.124614 0.166427
Si Si2 0.658658 0.533434 0.636007
Si Si3 0.446324 0.646792 0.500000
Si Si4 0.801050 0.675978 0.072564
Si Si5 0.321790 0.453263 0.307663
Si Si6 0.549863 0.127245 0.931298
O O1 0.794279 0.117694 0.127729
O O2 0.726581 0.177476 0.236484
O O3 0.646858 0.188092 0.121934
O O4 0.595660 0.000000 0.180041
O O5 0.632851 0.632851 0.652557
O O6 0.632991 0.505644 0.561721
O O7 0.788556 0.573566 0.648821
O O8 0.576972 0.423571 0.677328
O O9 0.315666 0.548718 0.500000
O O10 0.780395 0.780395 0.081120
O O11 0.688374 0.561665 0.087378
O O12 0.843941 0.677863 0.000000
O O13 0.360405 0.360405 0.318617
O O14 0.523168 0.000000 0.936570
O O15 0.596368 0.185887 0.000000
#
# Coordination Sequence:
#
# PCOD8327490 Si02
#       6
#    12  12   6  12  12  12
#     4  10  20  32  49  71  98 134 171 211 263 320
#     4  11  21  37  60  83 115 156 189 224 277 332
#     4  10  17  34  60  84 123 150 182 230 266 316
#     4   9  18  32  49  69  95 129 172 221 269 319
#     4  10  22  37  53  82 118 148 190 235 277 337
#     4   8  15  29  45  63  90 123 164 210 255 308
#
# _framework density 19.037898999999999
#
# number of rings (size 3 to 8) (size 9 to 14) (size 15 to 20)
#    0.182    2.182    1.818    2.273    2.545    1.818 
#    1.091    0.455    0.000    0.727    0.000    0.000 
#    0.000    0.000    0.000    0.000    0.000    0.000 
#
# Total GULP energy -817644.871386 kJ/mol
# GULP energy per Si atom -12388.558657 kJ/mol
# Density = 1.899457 g / cm^3
# Si number density = 19.037899 Si / 1000 Ang^3
#
#
#
# Elastic Constant Matrix: (Units=GPa)
#
#
# Indices 1 2 3 4 5 6 
#
# 1 69.6358 22.8260 23.4114 0.0000 0.0000 0.0000
# 2 22.8260 69.6358 23.4114 0.0000 0.0000 0.0000
# 3 23.4114 23.4114 114.7889 0.0000 0.0000 0.0000
# 4 0.0000 0.0000 0.0000 20.3618 0.0000 0.0000
# 5 0.0000 0.0000 0.0000 0.0000 20.3618 0.0000
# 6 0.0000 0.0000 0.0000 0.0000 0.0000 23.4049
#
#
#
# Elastic Compliance Matrix: (Units=1/GPa)
#
#
# Indices 1 2 3 4 5 6 
#
# 1 0.016712 -0.004651 -0.002460 0.000000 0.000000 0.000000
# 2 -0.004651 0.016712 -0.002460 0.000000 0.000000 0.000000
# 3 -0.002460 -0.002460 0.009715 0.000000 0.000000 0.000000
# 4 0.000000 0.000000 0.000000 0.049112 0.000000 0.000000
# 5 0.000000 0.000000 0.000000 0.000000 0.049112 0.000000
# 6 0.000000 0.000000 0.000000 0.000000 0.000000 0.042726
#
#
# Mechanical properties :
#
#
# Convention : Reuss Voigt Hill
#
# Bulk Modulus (GPa) = 41.67097 43.70645 42.68871
# Shear Modulus (GPa) = 23.67100 25.11981 24.39541
#
# Velocity S-wave (km/s) = 3.52996 3.63638 3.58357
# Velocity P-wave (km/s) = 6.20887 6.37483 6.29240
#
# Compressibility (1/GPa) = 0.02399752
#
# Stress axis : x y z
#
# Youngs Moduli (GPa) = 59.83720 59.83720 102.93328
#
# Poissons Ratio (x) = 0.27831 0.25320
# Poissons Ratio (y) = 0.27831 0.25320
# Poissons Ratio (z) = 0.14719 0.14719
#
# Static dielectric constant tensor:
#      x y z
#    x 3.332950 0.000000 0.000000 
#    y 0.000000 3.332950 0.000000 
#    z 0.000000 0.000000 3.657600 
# 
# 
# High freq. dielectric constant tensor:
#      x y z
#    x 1.715230 0.000000 0.000000 
#    y 0.000000 1.715230 0.000000 
#    z 0.000000 0.000000 1.744970 
# 
# From -- ./inp_files/3412.got.cif
#   From: 2010.03.12/outbox.cif.g09.slc.cpg/sg189_2_cif.got.tgz:3412.got - 2010.04.01 12:03:36.
