data_PCOD8327979
_publ_section_title
;
Structure prediction by ZEFSAII (Michael W. Deem and Ramdas Pophale) SiO2 
 PCOD8327979
Probable space group: P -6 2 C
;
_chemical_formula_sum "Si O2"
_cell_formula_units_Z 72
_cell_length_a 23.832395
_cell_length_b 23.832395
_cell_length_c 9.047746
_cell_angle_alpha 90.000000
_cell_angle_beta 90.000000
_cell_angle_gamma 120.000000
_cell_volume 4450.475436
_symmetry_space_group_name_H-M "P -6 2 C"
_symmetry_group_IT_number 190
_symmetry_cell_setting 'hexagonal'
loop_
_space_group_symop_operation_xyz
x,y,z
-x+y,-x,1/2-z
-y,x-y,z
x,y,1/2-z
-x+y,-x,z
-y,x-y,1/2-z
x-y,-y,-z
-x,-x+y,-z
y,x,-z
y,x,1/2+z
x-y,-y,1/2+z
-x,-x+y,1/2+z
loop_
_atom_site_type_symbol
_atom_site_label
_atom_site_fract_x
_atom_site_fract_y
_atom_site_fract_z
Si Si1 0.516164 0.366606 0.080745
Si Si2 0.810355 0.175344 0.912912
Si Si3 0.067104 0.368597 0.425322
Si Si4 0.638427 0.496528 0.079048
Si Si5 0.259022 0.518334 0.085500
Si Si6 0.630991 0.932021 0.922995
O O1 0.513598 0.345077 0.250000
O O2 0.562505 0.443575 0.060978
O O3 0.443847 0.347267 0.028795
O O4 0.545198 0.329493 0.986786
O O5 0.809838 0.147094 0.750000
O O6 0.883827 0.225773 0.963995
O O7 0.775156 0.216871 0.905624
O O8 0.773225 0.116282 0.026628
O O9 0.059612 0.372426 0.250000
O O10 0.091671 0.440005 0.490264
O O11 0.000000 0.318161 0.500000
O O12 0.657406 0.514871 0.250000
O O13 0.678349 0.463648 0.014788
O O14 0.266810 0.547938 0.250000
O O15 0.640855 0.942387 0.750000
O O16 0.674031 0.000000 0.000000
#
# Coordination Sequence:
#
# PCOD8327979 Si02
#       6
#    12  12  12  12  12  12
#     4   9  19  33  47  64  86 117 153 193 241 289
#     4   8  16  31  48  66  89 116 146 182 221 264
#     4  10  20  33  50  72  96 123 156 191 232 281
#     4  10  19  32  48  65  89 118 152 196 244 292
#     4   9  17  30  47  64  82 109 146 187 235 287
#     4  10  19  31  48  69  92 119 153 187 227 277
#
# _framework density 16.178045999999998
#
# number of rings (size 3 to 8) (size 9 to 14) (size 15 to 20)
#    0.000    2.667    0.000    3.000    0.000    7.333 
#    1.000    1.667    0.000    0.000    0.000    0.000 
#    0.000    0.000    0.000    0.500    0.000    8.000 
#
# Total GULP energy -892585.691974 kJ/mol
# GULP energy per Si atom -12397.023500 kJ/mol
# Density = 1.614122 g / cm^3
# Si number density = 16.178046 Si / 1000 Ang^3
#
#
#
# Elastic Constant Matrix: (Units=GPa)
#
#
# Indices 1 2 3 4 5 6 
#
# 1 78.5995 46.7439 45.9056 0.0000 0.0000 0.0000
# 2 46.7439 78.5995 45.9056 0.0000 0.0000 0.0000
# 3 45.9056 45.9056 100.9725 0.0000 0.0000 0.0000
# 4 0.0000 0.0000 0.0000 25.0960 0.0000 0.0000
# 5 0.0000 0.0000 0.0000 0.0000 25.0960 0.0000
# 6 0.0000 0.0000 0.0000 0.0000 0.0000 15.9278
#
#
#
# Elastic Compliance Matrix: (Units=1/GPa)
#
#
# Indices 1 2 3 4 5 6 
#
# 1 0.021676 -0.009715 -0.005438 0.000000 0.000000 0.000000
# 2 -0.009715 0.021676 -0.005438 0.000000 0.000000 0.000000
# 3 -0.005438 -0.005438 0.014848 0.000000 0.000000 0.000000
# 4 0.000000 0.000000 0.000000 0.039847 0.000000 0.000000
# 5 0.000000 0.000000 0.000000 0.000000 0.039847 0.000000
# 6 0.000000 0.000000 0.000000 0.000000 0.000000 0.062783
#
#
# Mechanical properties :
#
#
# Convention : Reuss Voigt Hill
#
# Bulk Modulus (GPa) = 58.75842 59.47573 59.11708
# Shear Modulus (GPa) = 20.19927 21.19840 20.69884
#
# Velocity S-wave (km/s) = 3.53733 3.62376 3.58081
# Velocity P-wave (km/s) = 7.28576 7.37237 7.32920
#
# Compressibility (1/GPa) = 0.01701884
#
# Stress axis : x y z
#
# Youngs Moduli (GPa) = 46.13300 46.13300 67.34767
#
# Poissons Ratio (x) = 0.44819 0.36624
# Poissons Ratio (y) = 0.44819 0.36624
# Poissons Ratio (z) = 0.25087 0.25087
#
# Static dielectric constant tensor:
#      x y z
#    x 2.962950 0.000000 0.000000 
#    y 0.000000 2.962950 0.000000 
#    z 0.000000 0.000000 3.288130 
# 
# 
# High freq. dielectric constant tensor:
#      x y z
#    x 1.593640 0.000000 0.000000 
#    y 0.000000 1.593640 0.000000 
#    z 0.000000 0.000000 1.638440 
# 
# From -- ./inp_files/1172.got.cif
#   From: 2010.06.25/outbox.cif.g09.slc.cpg/sg190_1_cif.got.tgz:1172.got - 2010.06.28 13:08:06.
