data_PCOD8327872
_publ_section_title
;
Structure prediction by ZEFSAII (Michael W. Deem and Ramdas Pophale) SiO2 
 PCOD8327872
Probable space group: P -6 2 M
;
_chemical_formula_sum "Si O2"
_cell_formula_units_Z 48
_cell_length_a 17.577271
_cell_length_b 17.577271
_cell_length_c 8.652400
_cell_angle_alpha 90.000000
_cell_angle_beta 90.000000
_cell_angle_gamma 120.000000
_cell_volume 2315.101932
_symmetry_space_group_name_H-M "P -6 2 M"
_symmetry_group_IT_number 189
_symmetry_cell_setting 'hexagonal'
loop_
_space_group_symop_operation_xyz
x,y,z
-x+y,-x,-z
-y,x-y,z
x,y,-z
-x+y,-x,z
-y,x-y,-z
x-y,-y,-z
-x,-x+y,-z
y,x,-z
y,x,z
x-y,-y,z
-x,-x+y,z
loop_
_atom_site_type_symbol
_atom_site_label
_atom_site_fract_x
_atom_site_fract_y
_atom_site_fract_z
Si Si1 0.367636 0.000000 0.673095
Si Si2 0.446686 0.614739 0.678467
Si Si3 0.000000 0.210088 0.179546
Si Si4 0.899607 0.715108 0.317511
Si Si5 0.478649 0.276653 0.817843
O O1 0.332264 0.000000 0.500000
O O2 0.377950 0.917162 0.700559
O O3 0.300683 0.000000 0.796934
O O4 0.420178 0.611621 0.500000
O O5 0.377307 0.524506 0.762439
O O6 0.453746 0.699854 0.760006
O O7 0.087314 0.217887 0.254726
O O8 0.000000 0.190744 0.000000
O O9 0.889996 0.710489 0.500000
O O10 0.837553 0.617743 0.253627
O O11 0.000000 0.750988 0.265689
O O12 0.468324 0.269091 0.000000
#
# Coordination Sequence:
#
# PCOD8327872 Si02
#       5
#     6  12   6  12  12
#     4  10  22  40  66  92 121 166 221 262 306 384
#     4  11  23  41  64  91 125 172 221 262 311 384
#     4  12  24  42  72 102 133 166 209 270 338 396
#     4  11  25  46  71  97 130 174 222 268 323 397
#     4  12  25  41  63  96 135 171 214 273 331 380
#
# _framework density 20.733429000000001
#
# number of rings (size 3 to 8) (size 9 to 14) (size 15 to 20)
#    0.000    0.750    2.500    5.375    1.750    3.000 
#    0.750    0.000    0.000    0.000    0.000    0.000 
#    0.000    0.000    0.000    0.000    0.000    0.000 
#
# Total GULP energy -595429.700723 kJ/mol
# GULP energy per Si atom -12404.785432 kJ/mol
# Density = 2.068624 g / cm^3
# Si number density = 20.733429 Si / 1000 Ang^3
#
#
#
# Elastic Constant Matrix: (Units=GPa)
#
#
# Indices 1 2 3 4 5 6 
#
# 1 -100.4483 224.8191 42.2937 0.0000 0.0000 0.0000
# 2 224.8191 -100.4483 42.2937 0.0000 0.0000 0.0000
# 3 42.2937 42.2937 129.8234 0.0000 0.0000 0.0000
# 4 0.0000 0.0000 0.0000 21.8977 0.0000 0.0000
# 5 0.0000 0.0000 0.0000 0.0000 21.8977 0.0000
# 6 0.0000 0.0000 0.0000 0.0000 0.0000 -162.6337
#
#
#
# Elastic Compliance Matrix: (Units=1/GPa)
#
#
# Indices 1 2 3 4 5 6 
#
# 1 0.003627 0.006702 -0.003365 0.000000 0.000000 0.000000
# 2 0.006702 0.003627 -0.003365 0.000000 0.000000 0.000000
# 3 -0.003365 -0.003365 0.009895 0.000000 0.000000 0.000000
# 4 0.000000 0.000000 0.000000 0.045667 0.000000 0.000000
# 5 0.000000 0.000000 0.000000 0.000000 0.045667 0.000000
# 6 0.000000 0.000000 0.000000 0.000000 0.000000 -0.006149
#
#
# Mechanical properties :
#
#
# Convention : Reuss Voigt Hill
#
# Bulk Modulus (GPa) = 58.50197 60.85998 59.68098
# Shear Modulus (GPa) = 46.25802 -49.13297 -1.43747
#
# Velocity S-wave (km/s) = 4.72856 -4.87329 -0.83356
# Velocity P-wave (km/s) = 7.62167 1.49931 5.28403
#
# Compressibility (1/GPa) = 0.01709344
#
# Stress axis : x y z
#
# Youngs Moduli (GPa) = 275.68388 275.68388 101.05849
#
# Poissons Ratio (x) = -1.84756 0.34006
# Poissons Ratio (y) = -1.84756 0.34006
# Poissons Ratio (z) = 0.92767 0.92767
#
# Static dielectric constant tensor:
#      x y z
#    x 4.757760 0.000000 0.000000 
#    y 0.000000 4.757760 0.000000 
#    z 0.000000 0.000000 3.826080 
# 
# 
# High freq. dielectric constant tensor:
#      x y z
#    x 1.818350 0.000000 0.000000 
#    y 0.000000 1.818350 0.000000 
#    z 0.000000 0.000000 1.819910 
# 
# From -- ./inp_files/652.got.cif
#   From: 2010.03.12/outbox.cif.g09.slc.cpg/sg189_1_cif.got.tgz:652.got - 2010.04.01 12:03:36.
