data_PCOD8327404
_publ_section_title
;
Structure prediction by ZEFSAII (Michael W. Deem and Ramdas Pophale) SiO2 
 PCOD8327404
Probable space group: P -6 C 2
;
_chemical_formula_sum "Si O2"
_cell_formula_units_Z 72
_cell_length_a 22.979368
_cell_length_b 22.979368
_cell_length_c 8.648600
_cell_angle_alpha 90.000000
_cell_angle_beta 90.000000
_cell_angle_gamma 120.000000
_cell_volume 3955.055692
_symmetry_space_group_name_H-M "P -6 C 2"
_symmetry_group_IT_number 188
_symmetry_cell_setting 'hexagonal'
loop_
_space_group_symop_operation_xyz
x,y,z
-x+y,-x,1/2-z
-y,x-y,z
x,y,1/2-z
-x+y,-x,z
-y,x-y,1/2-z
-y,-x,-z
-x+y,y,-z
x,x-y,-z
-x+y,y,1/2+z
x,x-y,1/2+z
-y,-x,1/2+z
loop_
_atom_site_type_symbol
_atom_site_label
_atom_site_fract_x
_atom_site_fract_y
_atom_site_fract_z
Si Si1 0.933228 0.743829 0.932212
Si Si2 0.201216 0.274575 0.066819
Si Si3 0.592506 0.669466 0.933299
Si Si4 0.459192 0.666155 0.933218
Si Si5 0.591420 0.054332 0.433650
Si Si6 0.410703 0.143559 0.432508
O O1 0.938364 0.753562 0.750000
O O2 0.907333 0.666630 0.979198
O O3 0.883589 0.767177 0.000000
O O4 0.004514 0.792810 0.009392
O O5 0.198295 0.275385 0.250000
O O6 0.265846 0.341473 0.000934
O O7 0.134382 0.268763 0.000000
O O8 0.595015 0.668328 0.750000
O O9 0.529974 0.676291 0.991379
O O10 0.586941 0.601016 0.997803
O O11 0.453959 0.665906 0.750000
O O12 0.404266 0.595735 0.000000
O O13 0.447681 0.723841 0.000000
O O14 0.589065 0.054981 0.250000
O O15 0.530094 0.060188 0.500000
O O16 0.660358 0.117537 0.492075
O O17 0.420725 0.148944 0.250000
O O18 0.434316 0.217158 0.500000
#
# Coordination Sequence:
#
# PCOD8327404 Si02
#       6
#    12  12  12  12  12  12
#     4  10  20  35  57  85 114 147 186 230 279 331
#     4  11  21  36  56  83 117 153 190 234 283 336
#     4   9  20  36  55  78 109 144 184 231 284 335
#     4  11  22  38  55  74  97 132 179 231 284 339
#     4  11  21  36  56  83 117 153 190 234 283 336
#     4  10  20  35  57  85 114 147 186 230 279 331
#
# _framework density 18.204547999999999
#
# number of rings (size 3 to 8) (size 9 to 14) (size 15 to 20)
#    0.000    1.667    1.667    3.667    0.000    1.333 
#    0.000    5.000    0.000    0.667    0.000    4.667 
#    0.000    0.000    0.000    0.000    0.000    0.000 
#
# Total GULP energy -893128.088389 kJ/mol
# GULP energy per Si atom -12404.556783 kJ/mol
# Density = 1.816311 g / cm^3
# Si number density = 18.204548 Si / 1000 Ang^3
#
#
#
# Elastic Constant Matrix: (Units=GPa)
#
#
# Indices 1 2 3 4 5 6 
#
# 1 144.3451 61.9495 42.8927 -0.0005 0.0000 0.0000
# 2 61.9495 144.3451 42.8927 0.0005 0.0000 0.0000
# 3 42.8927 42.8927 79.2988 0.0000 0.0000 0.0000
# 4 -0.0005 0.0005 0.0000 26.1744 0.0000 0.0000
# 5 0.0000 0.0000 0.0000 0.0000 26.1744 -0.0005
# 6 0.0000 0.0000 0.0000 0.0000 -0.0005 41.1978
#
#
#
# Elastic Compliance Matrix: (Units=1/GPa)
#
#
# Indices 1 2 3 4 5 6 
#
# 1 0.009195 -0.002941 -0.003383 0.000000 0.000000 0.000000
# 2 -0.002941 0.009195 -0.003383 0.000000 0.000000 0.000000
# 3 -0.003383 -0.003383 0.016270 0.000000 0.000000 0.000000
# 4 0.000000 0.000000 0.000000 0.038205 0.000000 0.000000
# 5 0.000000 0.000000 0.000000 0.000000 0.038205 0.000000
# 6 0.000000 0.000000 0.000000 0.000000 0.000000 0.024273
#
#
# Mechanical properties :
#
#
# Convention : Reuss Voigt Hill
#
# Bulk Modulus (GPa) = 65.58686 73.71763 69.65224
# Shear Modulus (GPa) = 31.28110 33.39290 32.33700
#
# Velocity S-wave (km/s) = 4.14975 4.28754 4.21921
# Velocity P-wave (km/s) = 7.68547 8.06800 7.87906
#
# Compressibility (1/GPa) = 0.01524696
#
# Stress axis : x y z
#
# Youngs Moduli (GPa) = 108.75035 108.75036 61.46231
#
# Poissons Ratio (x) = 0.31986 0.20792
# Poissons Ratio (y) = 0.31986 0.20792
# Poissons Ratio (z) = 0.36789 0.36789
#
# Static dielectric constant tensor:
#      x y z
#    x 3.412410 0.000000 0.000000 
#    y 0.000000 3.412410 0.000000 
#    z 0.000000 0.000000 3.292990 
# 
# 
# High freq. dielectric constant tensor:
#      x y z
#    x 1.703840 0.000000 0.000000 
#    y 0.000000 1.703840 0.000000 
#    z 0.000000 0.000000 1.708020 
# 
# From -- ./inp_files/1054.got.cif
#   From: 2010.03.12/outbox.cif.g09.slc.cpg/sg188_1_cif.got.tgz:1054.got - 2010.04.01 12:01:06.
