data_PCOD8327406
_publ_section_title
;
Structure prediction by ZEFSAII (Michael W. Deem and Ramdas Pophale) SiO2 
 PCOD8327406
Probable space group: P -6 C 2
;
_chemical_formula_sum "Si O2"
_cell_formula_units_Z 84
_cell_length_a 17.896048
_cell_length_b 17.896048
_cell_length_c 14.926431
_cell_angle_alpha 90.000000
_cell_angle_beta 90.000000
_cell_angle_gamma 120.000000
_cell_volume 4140.005149
_symmetry_space_group_name_H-M "P -6 C 2"
_symmetry_group_IT_number 188
_symmetry_cell_setting 'hexagonal'
loop_
_space_group_symop_operation_xyz
x,y,z
-x+y,-x,1/2-z
-y,x-y,z
x,y,1/2-z
-x+y,-x,z
-y,x-y,1/2-z
-y,-x,-z
-x+y,y,-z
x,x-y,-z
-x+y,y,1/2+z
x,x-y,1/2+z
-y,-x,1/2+z
loop_
_atom_site_type_symbol
_atom_site_label
_atom_site_fract_x
_atom_site_fract_y
_atom_site_fract_z
Si Si1 0.301046 0.063439 0.847973
Si Si2 0.999947 0.174049 0.000689
Si Si3 0.591314 0.017105 0.576072
Si Si4 0.302905 0.232355 0.849565
Si Si5 0.328564 0.569056 0.750000
Si Si6 0.475421 0.084556 0.612131
Si Si7 0.332020 0.819851 0.049752
Si Si8 0.645864 0.417143 0.750000
O O1 0.258184 0.043167 0.750000
O O2 0.229050 0.999721 0.916105
O O3 0.332757 0.163054 0.875753
O O4 0.381250 0.046952 0.845037
O O5 0.923431 0.076570 0.000000
O O6 0.996596 0.222433 0.088839
O O7 0.086689 0.173377 0.000000
O O8 0.670833 0.052010 0.643241
O O9 0.513322 0.019847 0.628802
O O10 0.624050 0.087490 0.495077
O O11 0.558487 0.921000 0.537536
O O12 0.266203 0.215606 0.750000
O O13 0.245966 0.583554 0.750000
O O14 0.325809 0.520407 0.842269
O O15 0.539226 0.175893 0.659045
O O16 0.239812 0.760189 0.000000
O O17 0.398773 0.797545 0.000000
O O18 0.741149 0.426303 0.750000
#
# Coordination Sequence:
#
# PCOD8327406 Si02
#       8
#    12  12  12  12   6  12  12   6
#     4  10  21  40  67  93 124 178 213 256 330 399
#     4  10  21  40  66  95 127 163 213 269 327 400
#     4  11  26  41  61  98 129 178 222 273 341 391
#     4  10  23  40  64  93 127 171 215 263 329 399
#     4  10  20  35  66  96 110 170 222 279 360 395
#     4  11  22  42  62  93 136 168 219 269 328 400
#     4  12  22  43  65  91 135 170 230 293 338 413
#     4  10  26  43  66 110 138 176 228 283 342 395
#
# _framework density 20.289831
#
# number of rings (size 3 to 8) (size 9 to 14) (size 15 to 20)
#    0.286    1.143    5.000    0.286    4.000    1.143 
#    2.571    0.714    0.000    1.714    0.000    0.000 
#    0.000    0.000    0.000    0.000    0.000    0.000 
#
# Total GULP energy -1040998.769416 kJ/mol
# GULP energy per Si atom -12392.842493 kJ/mol
# Density = 2.024365 g / cm^3
# Si number density = 20.289831 Si / 1000 Ang^3
#
#
#
# Elastic Constant Matrix: (Units=GPa)
#
#
# Indices 1 2 3 4 5 6 
#
# 1 110.0071 40.7247 50.3105 -0.0001 0.0000 0.0000
# 2 40.7247 110.0071 50.3105 0.0001 0.0000 0.0000
# 3 50.3105 50.3105 147.4080 0.0000 0.0000 0.0000
# 4 -0.0001 0.0001 0.0000 -49.9939 0.0000 0.0000
# 5 0.0000 0.0000 0.0000 0.0000 -49.9939 -0.0001
# 6 0.0000 0.0000 0.0000 0.0000 -0.0001 34.6412
#
#
#
# Elastic Compliance Matrix: (Units=1/GPa)
#
#
# Indices 1 2 3 4 5 6 
#
# 1 0.011513 -0.002921 -0.002932 0.000000 0.000000 0.000000
# 2 -0.002921 0.011513 -0.002932 0.000000 0.000000 0.000000
# 3 -0.002932 -0.002932 0.008786 0.000000 0.000000 0.000000
# 4 0.000000 0.000000 0.000000 -0.020002 0.000000 0.000000
# 5 0.000000 0.000000 0.000000 0.000000 -0.020002 0.000000
# 6 0.000000 0.000000 0.000000 0.000000 0.000000 0.028867
#
#
# Mechanical properties :
#
#
# Convention : Reuss Voigt Hill
#
# Bulk Modulus (GPa) = 70.22664 72.23484 71.23074
# Shear Modulus (GPa) = 116.30200 2.00245 59.15223
#
# Velocity S-wave (km/s) = 7.57923 0.99452 5.40527
# Velocity P-wave (km/s) = 10.54893 6.08256 8.61039
#
# Compressibility (1/GPa) = 0.01423961
#
# Stress axis : x y z
#
# Youngs Moduli (GPa) = 86.86017 86.86017 113.82322
#
# Poissons Ratio (x) = 0.25371 0.33378
# Poissons Ratio (y) = 0.25371 0.33378
# Poissons Ratio (z) = 0.25471 0.25471
#
# Static dielectric constant tensor:
#      x y z
#    x 3.597310 0.000000 0.000000 
#    y 0.000000 3.597310 0.000000 
#    z 0.000000 0.000000 3.937750 
# 
# 
# High freq. dielectric constant tensor:
#      x y z
#    x 1.780390 0.000000 0.000000 
#    y 0.000000 1.780390 0.000000 
#    z 0.000000 0.000000 1.803750 
# 
# From -- ./inp_files/2624.got.cif
#   From: 2010.03.12/outbox.cif.g09.slc.cpg/sg188_2_cif.got.tgz:2624.got - 2010.04.01 12:01:06.
