data_PCOD8327132
_publ_section_title
;
Structure prediction by ZEFSAII (Michael W. Deem and Ramdas Pophale) SiO2 
 PCOD8327132
Probable space group: P -6 M 2
;
_chemical_formula_sum "Si O2"
_cell_formula_units_Z 60
_cell_length_a 12.441384
_cell_length_b 12.441384
_cell_length_c 26.004181
_cell_angle_alpha 90.000000
_cell_angle_beta 90.000000
_cell_angle_gamma 120.000000
_cell_volume 3485.870117
_symmetry_space_group_name_H-M "P -6 M 2"
_symmetry_group_IT_number 187
_symmetry_cell_setting 'hexagonal'
loop_
_space_group_symop_operation_xyz
x,y,z
-x+y,-x,-z
-y,x-y,z
x,y,-z
-x+y,-x,z
-y,x-y,-z
-y,-x,-z
-x+y,y,-z
x,x-y,-z
-x+y,y,z
x,x-y,z
-y,-x,z
loop_
_atom_site_type_symbol
_atom_site_label
_atom_site_fract_x
_atom_site_fract_y
_atom_site_fract_z
Si Si1 0.001375 0.749396 0.000000
Si Si2 0.585402 0.667886 0.901734
Si Si3 0.002312 0.757666 0.500000
Si Si4 0.746403 0.997306 0.611518
Si Si5 0.583811 0.667209 0.706096
Si Si6 0.748559 0.998282 0.195728
O O1 0.009686 0.679983 0.949856
O O2 0.871257 0.742513 0.000000
O O3 0.107376 0.892625 0.000000
O O4 0.548715 0.774358 0.902285
O O5 0.461846 0.538155 0.905259
O O6 0.656234 0.671907 0.849837
O O7 0.094526 0.905474 0.500000
O O8 0.020770 0.703983 0.554264
O O9 0.864509 0.729018 0.500000
O O10 0.781921 0.890961 0.622315
O O11 0.644727 0.985028 0.652457
O O12 0.870686 0.129315 0.616896
O O13 0.545402 0.772701 0.704561
O O14 0.462442 0.537559 0.716854
O O15 0.682375 0.693415 0.750538
O O16 0.788512 0.894256 0.191108
O O17 0.869326 0.130675 0.191533
#
# Coordination Sequence:
#
# PCOD8327132 Si02
#       6
#     6  12   6  12  12  12
#     4  10  20  34  54  78 104 134 168 210 256 298
#     4  10  20  34  54  78 104 134 167 204 242 284
#     4   8  13  22  39  66  96 122 148 182 232 288
#     4   9  16  27  46  71  97 122 150 190 239 289
#     4  10  20  33  49  68  93 126 162 199 236 279
#     4  10  20  34  54  78 102 126 154 195 245 294
#
# _framework density 17.212347000000001
#
# number of rings (size 3 to 8) (size 9 to 14) (size 15 to 20)
#    0.000    2.400    0.000    3.100    0.000    1.600 
#    0.000    7.500    0.000   13.600    0.000    1.400 
#    0.000    0.000    0.000    0.000    0.000    0.000 
#
# Total GULP energy -743787.377991 kJ/mol
# GULP energy per Si atom -12396.456300 kJ/mol
# Density = 1.717317 g / cm^3
# Si number density = 17.212347 Si / 1000 Ang^3
#
#
#
# Elastic Constant Matrix: (Units=GPa)
#
#
# Indices 1 2 3 4 5 6 
#
# 1 93.0066 58.5866 44.5695 0.0000 0.0004 0.0000
# 2 58.5866 93.0066 44.5695 0.0000 -0.0004 0.0000
# 3 44.5695 44.5695 137.5364 0.0000 0.0000 0.0000
# 4 0.0000 0.0000 0.0000 12.1871 0.0000 -0.0004
# 5 0.0004 -0.0004 0.0000 0.0000 12.1871 0.0000
# 6 0.0000 0.0000 0.0000 -0.0004 0.0000 17.2100
#
#
#
# Elastic Compliance Matrix: (Units=1/GPa)
#
#
# Indices 1 2 3 4 5 6 
#
# 1 0.018601 -0.010452 -0.002641 0.000000 -0.000001 0.000000
# 2 -0.010452 0.018601 -0.002641 0.000000 0.000001 0.000000
# 3 -0.002641 -0.002641 0.008982 0.000000 0.000000 0.000000
# 4 0.000000 0.000000 0.000000 0.082054 0.000000 0.000002
# 5 -0.000001 0.000001 0.000000 0.000000 0.082054 0.000000
# 6 0.000000 0.000000 0.000000 0.000002 0.000000 0.058106
#
#
# Mechanical properties :
#
#
# Convention : Reuss Voigt Hill
#
# Bulk Modulus (GPa) = 67.94491 68.77786 68.36139
# Shear Modulus (GPa) = 16.40572 20.03844 18.22208
#
# Velocity S-wave (km/s) = 3.09064 3.41572 3.25724
# Velocity P-wave (km/s) = 7.23162 7.45664 7.34499
#
# Compressibility (1/GPa) = 0.01471781
#
# Stress axis : x y z
#
# Youngs Moduli (GPa) = 53.76007 53.76007 111.32897
#
# Poissons Ratio (x) = 0.56188 0.29401
# Poissons Ratio (y) = 0.56188 0.29401
# Poissons Ratio (z) = 0.14197 0.14197
#
# Static dielectric constant tensor:
#      x y z
#    x 2.959930 0.000000 0.000000 
#    y 0.000000 2.959930 0.000000 
#    z 0.000000 0.000000 3.749660 
# 
# 
# High freq. dielectric constant tensor:
#      x y z
#    x 1.644010 0.000000 0.000000 
#    y 0.000000 1.644010 0.000000 
#    z 0.000000 0.000000 1.694710 
# 
# From -- ./inp_files/4163.got.cif
#   From: 2010.03.12/outbox.cif.g09.slc.cpg/sg187_3_cif.got.tgz:4163.got - 2010.04.01 11:58:23.
