data_PCOD8327108
_publ_section_title
;
Structure prediction by ZEFSAII (Michael W. Deem and Ramdas Pophale) SiO2 
 PCOD8327108
Probable space group: P -6 M 2
;
_chemical_formula_sum "Si O2"
_cell_formula_units_Z 96
_cell_length_a 17.307159
_cell_length_b 17.307159
_cell_length_c 22.225348
_cell_angle_alpha 90.000000
_cell_angle_beta 90.000000
_cell_angle_gamma 120.000000
_cell_volume 5765.417587
_symmetry_space_group_name_H-M "P -6 M 2"
_symmetry_group_IT_number 187
_symmetry_cell_setting 'hexagonal'
loop_
_space_group_symop_operation_xyz
x,y,z
-x+y,-x,-z
-y,x-y,z
x,y,-z
-x+y,-x,z
-y,x-y,-z
-y,-x,-z
-x+y,y,-z
x,x-y,-z
-x+y,y,z
x,x-y,z
-y,-x,z
loop_
_atom_site_type_symbol
_atom_site_label
_atom_site_fract_x
_atom_site_fract_y
_atom_site_fract_z
Si Si1 0.823581 0.999406 0.360005
Si Si2 0.485541 0.151301 0.209227
Si Si3 0.823885 0.824039 0.070707
Si Si4 0.155240 0.488605 0.069696
Si Si5 0.962357 0.569753 0.674292
Si Si6 0.350661 0.264161 0.432128
Si Si7 0.251387 0.921666 0.270312
Si Si8 0.006368 0.331714 0.856772
O O1 0.922552 0.077449 0.345721
O O2 0.777303 0.025438 0.412536
O O3 0.826474 0.913237 0.383125
O O4 0.769055 0.980949 0.298024
O O5 0.581494 0.162988 0.194721
O O6 0.491501 0.245751 0.202880
O O7 0.454472 0.114988 0.276691
O O8 0.415254 0.083010 0.161309
O O9 0.812095 0.906048 0.093434
O O10 0.752544 0.732419 0.101185
O O11 0.922734 0.845467 0.087988
O O12 0.807712 0.811039 0.000000
O O13 0.239917 0.479834 0.089355
O O14 0.178746 0.589373 0.082025
O O15 0.070004 0.422902 0.108653
O O16 0.132369 0.462977 0.000000
O O17 0.987395 0.493698 0.667236
O O18 0.928820 0.583553 0.610251
O O19 0.053179 0.656805 0.695804
O O20 0.360477 0.300170 0.500000
O O21 0.379861 0.189931 0.427718
O O22 0.183161 0.816840 0.280580
O O23 0.265573 0.941909 0.200218
#
# Coordination Sequence:
#
# PCOD8327108 Si02
#       8
#    12  12  12  12  12  12  12  12
#     4   9  17  29  45  66  93 126 162 196 229 267
#     4  10  20  34  52  73  97 124 155 193 236 281
#     4  10  20  33  48  67  93 125 160 198 240 285
#     4  10  20  34  52  74 100 128 158 195 241 292
#     4   9  18  31  49  71  92 119 157 196 230 272
#     4   9  17  29  45  66  94 125 153 185 230 280
#     4   9  18  31  46  65  93 125 153 188 235 280
#     4  11  20  32  50  73  96 123 160 199 237 284
#
# _framework density 16.651007
#
# number of rings (size 3 to 8) (size 9 to 14) (size 15 to 20)
#    0.000    2.375    0.000    3.125    0.000    6.500 
#    0.000    0.000    0.000    2.750    0.000    0.000 
#    0.000    6.000    0.000    0.375    0.000    0.000 
#
# Total GULP energy -1190560.528839 kJ/mol
# GULP energy per Si atom -12401.672175 kJ/mol
# Density = 1.661311 g / cm^3
# Si number density = 16.651007 Si / 1000 Ang^3
#
#
#
# Elastic Constant Matrix: (Units=GPa)
#
#
# Indices 1 2 3 4 5 6 
#
# 1 119.0911 64.9790 45.3541 0.0000 0.0003 0.0000
# 2 64.9790 119.0911 45.3541 0.0000 -0.0003 0.0000
# 3 45.3541 45.3541 67.9709 0.0000 0.0000 0.0000
# 4 0.0000 0.0000 0.0000 20.3166 0.0000 -0.0003
# 5 0.0003 -0.0003 0.0000 0.0000 20.3166 0.0000
# 6 0.0000 0.0000 0.0000 -0.0003 0.0000 27.0561
#
#
#
# Elastic Compliance Matrix: (Units=1/GPa)
#
#
# Indices 1 2 3 4 5 6 
#
# 1 0.013287 -0.005193 -0.005401 0.000000 0.000000 0.000000
# 2 -0.005193 0.013287 -0.005401 0.000000 0.000000 0.000000
# 3 -0.005401 -0.005401 0.021920 0.000000 0.000000 0.000000
# 4 0.000000 0.000000 0.000000 0.049221 0.000000 0.000001
# 5 0.000000 0.000000 0.000000 0.000000 0.049221 0.000000
# 6 0.000000 0.000000 0.000000 0.000001 0.000000 0.036960
#
#
# Mechanical properties :
#
#
# Convention : Reuss Voigt Hill
#
# Bulk Modulus (GPa) = 60.58942 68.61417 64.60180
# Shear Modulus (GPa) = 22.58484 23.56891 23.07687
#
# Velocity S-wave (km/s) = 3.68688 3.76635 3.72683
# Velocity P-wave (km/s) = 7.38857 7.75954 7.57633
#
# Compressibility (1/GPa) = 0.01650453
#
# Stress axis : x y z
#
# Youngs Moduli (GPa) = 75.26039 75.26039 45.62084
#
# Poissons Ratio (x) = 0.39082 0.24640
# Poissons Ratio (y) = 0.39082 0.24640
# Poissons Ratio (z) = 0.40648 0.40648
#
# Static dielectric constant tensor:
#      x y z
#    x 3.150960 0.000000 0.000000 
#    y 0.000000 3.150960 0.000000 
#    z 0.000000 0.000000 3.115640 
# 
# 
# High freq. dielectric constant tensor:
#      x y z
#    x 1.641660 0.000000 0.000000 
#    y 0.000000 1.641660 0.000000 
#    z 0.000000 0.000000 1.637370 
# 
# From -- ./inp_files/3748.got.cif
#   From: 2010.03.12/outbox.cif.g09.slc.cpg/sg187_2_cif.got.tgz:3748.got - 2010.04.01 11:58:23.
