data_PCOD8327438
_publ_section_title
;
Structure prediction by ZEFSAII (Michael W. Deem and Ramdas Pophale) SiO2 
 PCOD8327438
Probable space group: P -6 C 2
;
_chemical_formula_sum "Si O2"
_cell_formula_units_Z 76
_cell_length_a 17.008979
_cell_length_b 17.008979
_cell_length_c 15.754664
_cell_angle_alpha 90.000000
_cell_angle_beta 90.000000
_cell_angle_gamma 120.000000
_cell_volume 3947.264847
_symmetry_space_group_name_H-M "P -6 C 2"
_symmetry_group_IT_number 188
_symmetry_cell_setting 'hexagonal'
loop_
_space_group_symop_operation_xyz
x,y,z
-x+y,-x,1/2-z
-y,x-y,z
x,y,1/2-z
-x+y,-x,z
-y,x-y,1/2-z
-y,-x,-z
-x+y,y,-z
x,x-y,-z
-x+y,y,1/2+z
x,x-y,1/2+z
-y,-x,1/2+z
loop_
_atom_site_type_symbol
_atom_site_label
_atom_site_fract_x
_atom_site_fract_y
_atom_site_fract_z
Si Si1 0.722807 0.622531 0.348147
Si Si2 0.646942 0.911348 0.595262
Si Si3 0.564219 0.435782 0.902134
Si Si4 0.377468 0.100276 0.651853
Si Si5 0.646942 0.911348 0.404738
Si Si6 0.514538 0.668143 0.250000
Si Si7 0.514538 0.846395 0.250000
Si Si8 0.666666 0.333334 0.851605
O O1 0.739921 0.645359 0.250000
O O2 0.725356 0.708831 0.394306
O O3 0.623545 0.534482 0.360524
O O4 0.803860 0.607720 0.385182
O O5 0.605754 0.896301 0.500000
O O6 0.687331 0.843665 0.610533
O O7 0.570696 0.891770 0.664822
O O8 0.623546 0.534482 0.860524
O O9 0.617253 0.382746 0.888706
O O10 0.550894 0.449107 0.000000
O O11 0.354641 0.094563 0.750000
O O12 0.291168 0.016525 0.605695
O O13 0.570696 0.891771 0.335178
O O14 0.479126 0.739563 0.250000
O O15 0.431909 0.568091 0.250000
O O16 0.666667 0.333334 0.750000
#
# Coordination Sequence:
#
# PCOD8327438 Si02
#       8
#    12  12  12  12  12   6   6   4
#     4  11  23  38  59  85 115 154 195 237 286 343
#     4  10  22  40  61  85 114 149 190 239 290 341
#     4  12  24  36  54  82 118 160 202 241 285 337
#     4  11  23  38  59  85 115 154 195 237 286 343
#     4  10  22  40  61  85 114 149 190 239 290 341
#     4  10  21  38  59  84 114 150 190 236 285 338
#     4  10  21  38  59  84 114 150 190 236 285 338
#     4  12  22  38  52  72 118 170 202 246 286 332
#
# _framework density 19.253837999999998
#
# number of rings (size 3 to 8) (size 9 to 14) (size 15 to 20)
#    0.000    1.263    3.158    3.000    2.211    2.526 
#    0.000    0.000    0.000    2.526    0.000    0.000 
#    0.000    0.000    0.000    0.000    0.000    0.000 
#
# Total GULP energy -942125.956669 kJ/mol
# GULP energy per Si atom -12396.394167 kJ/mol
# Density = 1.921002 g / cm^3
# Si number density = 19.253838 Si / 1000 Ang^3
#
#
#
# Elastic Constant Matrix: (Units=GPa)
#
#
# Indices 1 2 3 4 5 6 
#
# 1 112.7095 64.8940 34.8146 0.0000 0.0000 0.0000
# 2 64.8940 112.7094 34.8146 0.0000 0.0000 0.0000
# 3 34.8146 34.8146 122.7837 0.0000 0.0000 0.0000
# 4 0.0000 0.0000 0.0000 22.9081 0.0000 0.0000
# 5 0.0000 0.0000 0.0000 0.0000 22.9081 0.0000
# 6 0.0000 0.0000 0.0000 0.0000 0.0000 23.9078
#
#
#
# Elastic Compliance Matrix: (Units=1/GPa)
#
#
# Indices 1 2 3 4 5 6 
#
# 1 0.013624 -0.007290 -0.001796 0.000000 0.000000 0.000000
# 2 -0.007290 0.013624 -0.001796 0.000000 0.000000 0.000000
# 3 -0.001796 -0.001796 0.009163 0.000000 0.000000 0.000000
# 4 0.000000 0.000000 0.000000 0.043653 0.000000 0.000000
# 5 0.000000 0.000000 0.000000 0.000000 0.043653 0.000000
# 6 0.000000 0.000000 0.000000 0.000000 0.000000 0.041827
#
#
# Mechanical properties :
#
#
# Convention : Reuss Voigt Hill
#
# Bulk Modulus (GPa) = 68.26998 68.58322 68.42660
# Shear Modulus (GPa) = 26.01586 28.19010 27.10298
#
# Velocity S-wave (km/s) = 3.67986 3.83054 3.75596
# Velocity P-wave (km/s) = 7.32052 7.43384 7.37740
#
# Compressibility (1/GPa) = 0.01464773
#
# Stress axis : x y z
#
# Youngs Moduli (GPa) = 73.39872 73.39865 109.13476
#
# Poissons Ratio (x) = 0.53504 0.19602
# Poissons Ratio (y) = 0.53504 0.19602
# Poissons Ratio (z) = 0.13184 0.13184
#
# Static dielectric constant tensor:
#      x y z
#    x 3.666930 0.000000 0.000000 
#    y 0.000000 3.666930 0.000000 
#    z 0.000000 0.000000 3.739000 
# 
# 
# High freq. dielectric constant tensor:
#      x y z
#    x 1.736990 0.000000 0.000000 
#    y 0.000000 1.736990 0.000000 
#    z 0.000000 0.000000 1.767590 
# 
# From -- ./inp_files/2588.got.cif
#   From: 2010.03.12/outbox.cif.g09.slc.cpg/sg188_2_cif.got.tgz:2588.got - 2010.04.01 12:01:06.
