data_PCOD8327079
_publ_section_title
;
Structure prediction by ZEFSAII (Michael W. Deem and Ramdas Pophale) SiO2 
 PCOD8327079
Probable space group: P -6 M 2
;
_chemical_formula_sum "Si O2"
_cell_formula_units_Z 84
_cell_length_a 17.375713
_cell_length_b 17.375713
_cell_length_c 17.239456
_cell_angle_alpha 90.000000
_cell_angle_beta 90.000000
_cell_angle_gamma 120.000000
_cell_volume 4507.538639
_symmetry_space_group_name_H-M "P -6 M 2"
_symmetry_group_IT_number 187
_symmetry_cell_setting 'hexagonal'
loop_
_space_group_symop_operation_xyz
x,y,z
-x+y,-x,-z
-y,x-y,z
x,y,-z
-x+y,-x,z
-y,x-y,-z
-y,-x,-z
-x+y,y,-z
x,x-y,-z
-x+y,y,z
x,x-y,z
-y,-x,z
loop_
_atom_site_type_symbol
_atom_site_label
_atom_site_fract_x
_atom_site_fract_y
_atom_site_fract_z
Si Si1 0.997596 0.672719 0.323325
Si Si2 0.000408 0.827485 0.591656
Si Si3 0.312547 0.242740 0.163243
Si Si4 0.333711 0.849328 0.234678
Si Si5 0.488458 0.155007 0.589761
Si Si6 0.495231 0.162051 0.087355
Si Si7 0.097345 0.723312 0.913764
O O1 0.018523 0.747934 0.386754
O O2 0.086454 0.670981 0.299664
O O3 0.958589 0.702185 0.252122
O O4 0.927213 0.577069 0.356956
O O5 0.999896 0.832088 0.500000
O O6 0.079992 0.920009 0.625499
O O7 0.906141 0.812282 0.624203
O O8 0.278601 0.139301 0.145787
O O9 0.417024 0.303768 0.147998
O O10 0.263003 0.277278 0.106503
O O11 0.420812 0.841623 0.247638
O O12 0.247903 0.752098 0.242706
O O13 0.338959 0.890967 0.149186
O O14 0.461819 0.130410 0.500000
O O15 0.588384 0.176767 0.605050
O O16 0.481977 0.240989 0.613545
O O17 0.570036 0.140072 0.113664
O O18 0.535297 0.267649 0.090431
O O19 0.461455 0.127059 0.000000
O O20 0.179559 0.820442 0.910076
O O21 0.086858 0.681836 0.000000
#
# Coordination Sequence:
#
# PCOD8327079 Si02
#       7
#    12  12  12  12  12  12  12
#     4  11  21  35  52  76 107 139 172 210 255 309
#     4  10  20  35  57  84 111 137 167 207 255 305
#     4  10  20  32  48  71  99 133 170 205 243 294
#     4  10  21  37  57  79 104 134 169 211 260 315
#     4  10  20  34  52  74 102 138 180 223 263 303
#     4   9  17  29  45  66  93 126 164 205 248 291
#     4   9  19  35  53  74 100 130 166 212 264 310
#
# _framework density 18.635449000000001
#
# number of rings (size 3 to 8) (size 9 to 14) (size 15 to 20)
#    0.000    2.143    0.000    3.571    0.000    7.429 
#    0.000    0.000    0.000    2.857    0.000    0.000 
#    0.000    6.857    0.000    0.000    0.000    0.000 
#
# Total GULP energy -1041476.186623 kJ/mol
# GULP energy per Si atom -12398.526031 kJ/mol
# Density = 1.859303 g / cm^3
# Si number density = 18.635449 Si / 1000 Ang^3
#
#
#
# Elastic Constant Matrix: (Units=GPa)
#
#
# Indices 1 2 3 4 5 6 
#
# 1 97.6032 42.0639 30.9187 0.0000 -0.0001 0.0000
# 2 42.0639 97.6032 30.9187 0.0000 0.0001 0.0000
# 3 30.9187 30.9187 43.4721 0.0000 0.0000 0.0000
# 4 0.0000 0.0000 0.0000 22.8332 0.0000 0.0001
# 5 -0.0001 0.0001 0.0000 0.0000 22.8332 0.0000
# 6 0.0000 0.0000 0.0000 0.0001 0.0000 27.7696
#
#
#
# Elastic Compliance Matrix: (Units=1/GPa)
#
#
# Indices 1 2 3 4 5 6 
#
# 1 0.014228 -0.003777 -0.007433 0.000000 0.000000 0.000000
# 2 -0.003777 0.014228 -0.007433 0.000000 0.000000 0.000000
# 3 -0.007433 -0.007433 0.033576 0.000000 0.000000 0.000000
# 4 0.000000 0.000000 0.000000 0.043796 0.000000 0.000000
# 5 0.000000 0.000000 0.000000 0.000000 0.043796 0.000000
# 6 0.000000 0.000000 0.000000 0.000000 0.000000 0.036011
#
#
# Mechanical properties :
#
#
# Convention : Reuss Voigt Hill
#
# Bulk Modulus (GPa) = 40.41023 49.60900 45.00961
# Shear Modulus (GPa) = 21.62913 23.67234 22.65073
#
# Velocity S-wave (km/s) = 3.41052 3.56797 3.49013
# Velocity P-wave (km/s) = 6.10250 6.60700 6.35976
#
# Compressibility (1/GPa) = 0.02474621
#
# Stress axis : x y z
#
# Youngs Moduli (GPa) = 70.28372 70.28372 29.78288
#
# Poissons Ratio (x) = 0.26548 0.22137
# Poissons Ratio (y) = 0.26548 0.22137
# Poissons Ratio (z) = 0.52241 0.52241
#
# Static dielectric constant tensor:
#      x y z
#    x 3.438120 0.000000 0.000000 
#    y 0.000000 3.438120 0.000000 
#    z 0.000000 0.000000 3.474900 
# 
# 
# High freq. dielectric constant tensor:
#      x y z
#    x 1.722580 0.000000 0.000000 
#    y 0.000000 1.722580 0.000000 
#    z 0.000000 0.000000 1.718270 
# 
# From -- ./inp_files/2647.got.cif
#   From: 2010.03.12/outbox.cif.g09.slc.cpg/sg187_2_cif.got.tgz:2647.got - 2010.04.01 11:58:23.
