data_PCOD8327052
_publ_section_title
;
Structure prediction by ZEFSAII (Michael W. Deem and Ramdas Pophale) SiO2 
 PCOD8327052
Probable space group: P -6 M 2
;
_chemical_formula_sum "Si O2"
_cell_formula_units_Z 66
_cell_length_a 13.096177
_cell_length_b 13.096177
_cell_length_c 27.830432
_cell_angle_alpha 90.000000
_cell_angle_beta 90.000000
_cell_angle_gamma 120.000000
_cell_volume 4133.706632
_symmetry_space_group_name_H-M "P -6 M 2"
_symmetry_group_IT_number 187
_symmetry_cell_setting 'hexagonal'
loop_
_space_group_symop_operation_xyz
x,y,z
-x+y,-x,-z
-y,x-y,z
x,y,-z
-x+y,-x,z
-y,x-y,-z
-y,-x,-z
-x+y,y,-z
x,x-y,-z
-x+y,y,z
x,x-y,z
-y,-x,z
loop_
_atom_site_type_symbol
_atom_site_label
_atom_site_fract_x
_atom_site_fract_y
_atom_site_fract_z
Si Si1 0.333330 0.426747 0.132686
Si Si2 0.901768 0.333525 0.789057
Si Si3 0.234137 0.233951 0.944728
Si Si4 0.430624 0.097773 0.679108
Si Si5 0.574162 0.666811 0.603802
Si Si6 0.333620 0.903890 0.500000
O O1 0.220766 0.441531 0.141353
O O2 0.445665 0.554336 0.124279
O O3 0.347232 0.361582 0.178973
O O4 0.319661 0.348718 0.086025
O O5 0.863722 0.431861 0.796621
O O6 0.791478 0.208523 0.804230
O O7 0.939149 0.332030 0.734153
O O8 0.098214 0.196427 0.936478
O O9 0.249683 0.124842 0.928363
O O10 0.270817 0.266882 0.000000
O O11 0.561407 0.122814 0.669177
O O12 0.429250 0.214625 0.665319
O O13 0.337279 0.995054 0.644833
O O14 0.568940 0.784470 0.611769
O O15 0.442599 0.557402 0.608958
O O16 0.630956 0.665742 0.550992
O O17 0.223885 0.776116 0.500000
O O18 0.441502 0.883003 0.500000
#
# Coordination Sequence:
#
# PCOD8327052 Si02
#       6
#    12  12  12  12  12   6
#     4  10  20  32  46  66  94 126 154 179 212 259
#     4   9  17  30  48  67  85 109 145 187 226 261
#     4   9  17  30  49  71  92 115 147 189 231 263
#     4   9  17  29  45  64  86 113 144 178 216 260
#     4   9  16  26  42  64  88 113 142 178 219 260
#     4   8  13  22  37  58  84 112 142 176 214 254
#
# _framework density 15.9663
#
# number of rings (size 3 to 8) (size 9 to 14) (size 15 to 20)
#    0.000    2.909    0.000    1.545    0.000    4.727 
#    0.000    0.455    0.000    4.364    0.000    1.273 
#    0.000    0.000    0.000    0.000    0.000    0.000 
#
# Total GULP energy -818028.673019 kJ/mol
# GULP energy per Si atom -12394.373834 kJ/mol
# Density = 1.592996 g / cm^3
# Si number density = 15.966300 Si / 1000 Ang^3
#
#
#
# Elastic Constant Matrix: (Units=GPa)
#
#
# Indices 1 2 3 4 5 6 
#
# 1 95.9713 50.6494 64.4741 0.0000 0.0002 0.0000
# 2 50.6494 95.9713 64.4741 0.0000 -0.0002 0.0000
# 3 64.4741 64.4741 110.2953 0.0000 0.0000 0.0000
# 4 0.0000 0.0000 0.0000 25.3914 0.0000 -0.0002
# 5 0.0002 -0.0002 0.0000 0.0000 25.3914 0.0000
# 6 0.0000 0.0000 0.0000 -0.0002 0.0000 22.6609
#
#
#
# Elastic Compliance Matrix: (Units=1/GPa)
#
#
# Indices 1 2 3 4 5 6 
#
# 1 0.018050 -0.004014 -0.008205 0.000000 0.000000 0.000000
# 2 -0.004014 0.018050 -0.008205 0.000000 0.000000 0.000000
# 3 -0.008205 -0.008205 0.018659 0.000000 0.000000 0.000000
# 4 0.000000 0.000000 0.000000 0.039383 0.000000 0.000000
# 5 0.000000 0.000000 0.000000 0.000000 0.039383 0.000000
# 6 0.000000 0.000000 0.000000 0.000000 0.000000 0.044129
#
#
# Mechanical properties :
#
#
# Convention : Reuss Voigt Hill
#
# Bulk Modulus (GPa) = 71.88182 73.49256 72.68719
# Shear Modulus (GPa) = 22.40729 22.86476 22.63603
#
# Velocity S-wave (km/s) = 3.75028 3.78837 3.76937
# Velocity P-wave (km/s) = 7.99196 8.07870 8.03545
#
# Compressibility (1/GPa) = 0.01391172
#
# Stress axis : x y z
#
# Youngs Moduli (GPa) = 55.40031 55.40031 53.59237
#
# Poissons Ratio (x) = 0.22237 0.43973
# Poissons Ratio (y) = 0.22237 0.43973
# Poissons Ratio (z) = 0.45457 0.45457
#
# Static dielectric constant tensor:
#      x y z
#    x 2.893960 0.000000 0.000000 
#    y 0.000000 2.893960 0.000000 
#    z 0.000000 0.000000 3.377300 
# 
# 
# High freq. dielectric constant tensor:
#      x y z
#    x 1.599370 0.000000 0.000000 
#    y 0.000000 1.599370 0.000000 
#    z 0.000000 0.000000 1.627050 
# 
# From -- ./inp_files/4432.got.cif
#   From: 2010.03.12/outbox.cif.g09.slc.cpg/sg187_3_cif.got.tgz:4432.got - 2010.04.01 11:58:23.
