data_PCOD8327763
_publ_section_title
;
Structure prediction by ZEFSAII (Michael W. Deem and Ramdas Pophale) SiO2 
 PCOD8327763
Probable space group: P -6 2 M
;
_chemical_formula_sum "Si O2"
_cell_formula_units_Z 60
_cell_length_a 22.013469
_cell_length_b 22.013469
_cell_length_c 7.748783
_cell_angle_alpha 90.000000
_cell_angle_beta 90.000000
_cell_angle_gamma 120.000000
_cell_volume 3251.929362
_symmetry_space_group_name_H-M "P -6 2 M"
_symmetry_group_IT_number 189
_symmetry_cell_setting 'hexagonal'
loop_
_space_group_symop_operation_xyz
x,y,z
-x+y,-x,-z
-y,x-y,z
x,y,-z
-x+y,-x,z
-y,x-y,-z
x-y,-y,-z
-x,-x+y,-z
y,x,-z
y,x,z
x-y,-y,z
-x,-x+y,z
loop_
_atom_site_type_symbol
_atom_site_label
_atom_site_fract_x
_atom_site_fract_y
_atom_site_fract_z
Si Si1 0.080855 0.298205 0.000000
Si Si2 0.657171 0.464985 0.194044
Si Si3 0.708680 0.920944 0.000000
Si Si4 0.307843 0.920555 0.306913
Si Si5 0.677599 0.207843 0.694929
Si Si6 0.079104 0.694153 0.697657
O O1 0.128944 0.262136 0.000000
O O2 0.100595 0.346802 0.830807
O O3 0.000000 0.237085 0.000000
O O4 0.659172 0.529793 0.292018
O O5 0.602301 0.394491 0.288710
O O6 0.732850 0.470496 0.187486
O O7 0.631846 0.463718 0.000000
O O8 0.663165 0.906827 0.172696
O O9 0.774331 0.000000 0.000000
O O10 0.276753 0.913053 0.500000
O O11 0.369471 0.000000 0.271691
O O12 0.704821 0.226956 0.500000
O O13 0.665838 0.131666 0.745642
O O14 0.090592 0.722371 0.500000
O O15 0.000000 0.629684 0.722925
#
# Coordination Sequence:
#
# PCOD8327763 Si02
#       6
#     6  12   6  12  12  12
#     4  10  20  36  57  84 115 145 181 225 266 314
#     4  12  24  37  54  77 107 142 185 230 278 329
#     4  10  20  34  57  84 113 145 177 215 264 320
#     4  10  21  38  59  83 110 142 181 226 279 331
#     4  11  23  38  55  74 103 143 186 228 276 327
#     4   9  20  37  57  82 108 136 174 223 275 324
#
# _framework density 18.450586000000001
#
# number of rings (size 3 to 8) (size 9 to 14) (size 15 to 20)
#    0.000    1.600    1.000    4.000    2.800    3.200 
#    0.000    2.000    0.000    0.200    0.000    0.000 
#    0.000    0.000    0.000   10.000    0.000    0.000 
#
# Total GULP energy -744119.027885 kJ/mol
# GULP energy per Si atom -12401.983798 kJ/mol
# Density = 1.840859 g / cm^3
# Si number density = 18.450586 Si / 1000 Ang^3
#
#
#
# Elastic Constant Matrix: (Units=GPa)
#
#
# Indices 1 2 3 4 5 6 
#
# 1 107.3484 65.4724 26.5178 0.0000 0.0000 0.0000
# 2 65.4724 107.3484 26.5178 0.0000 0.0000 0.0000
# 3 26.5178 26.5178 94.8370 0.0000 0.0000 0.0000
# 4 0.0000 0.0000 0.0000 20.1851 0.0000 0.0000
# 5 0.0000 0.0000 0.0000 0.0000 20.1851 0.0000
# 6 0.0000 0.0000 0.0000 0.0000 0.0000 20.9380
#
#
#
# Elastic Compliance Matrix: (Units=1/GPa)
#
#
# Indices 1 2 3 4 5 6 
#
# 1 0.015105 -0.008775 -0.001770 0.000000 0.000000 0.000000
# 2 -0.008775 0.015105 -0.001770 0.000000 0.000000 0.000000
# 3 -0.001770 -0.001770 0.011534 0.000000 0.000000 0.000000
# 4 0.000000 0.000000 0.000000 0.049542 0.000000 0.000000
# 5 0.000000 0.000000 0.000000 0.000000 0.049542 0.000000
# 6 0.000000 0.000000 0.000000 0.000000 0.000000 0.047760
#
#
# Mechanical properties :
#
#
# Convention : Reuss Voigt Hill
#
# Bulk Modulus (GPa) = 58.43228 60.72775 59.58002
# Shear Modulus (GPa) = 22.83925 24.99667 23.91796
#
# Velocity S-wave (km/s) = 3.52214 3.68474 3.60436
# Velocity P-wave (km/s) = 6.94831 7.14761 7.04866
#
# Compressibility (1/GPa) = 0.01711383
#
# Stress axis : x y z
#
# Youngs Moduli (GPa) = 66.20433 66.20433 86.69913
#
# Poissons Ratio (x) = 0.58096 0.15344
# Poissons Ratio (y) = 0.58096 0.15344
# Poissons Ratio (z) = 0.11717 0.11717
#
# Static dielectric constant tensor:
#      x y z
#    x 3.295330 0.000000 0.000000 
#    y 0.000000 3.295330 0.000000 
#    z 0.000000 0.000000 3.637820 
# 
# 
# High freq. dielectric constant tensor:
#      x y z
#    x 1.701160 0.000000 0.000000 
#    y 0.000000 1.701160 0.000000 
#    z 0.000000 0.000000 1.738650 
# 
# From -- ./inp_files/932.got.cif
#   From: 2010.03.12/outbox.cif.g09.slc.cpg/sg189_1_cif.got.tgz:932.got - 2010.04.01 12:03:36.
