data_PCOD8327790
_publ_section_title
;
Structure prediction by ZEFSAII (Michael W. Deem and Ramdas Pophale) SiO2 
 PCOD8327790
Probable space group: P -6 2 M
;
_chemical_formula_sum "Si O2"
_cell_formula_units_Z 48
_cell_length_a 19.324939
_cell_length_b 19.324939
_cell_length_c 7.514873
_cell_angle_alpha 90.000000
_cell_angle_beta 90.000000
_cell_angle_gamma 120.000000
_cell_volume 2430.460351
_symmetry_space_group_name_H-M "P -6 2 M"
_symmetry_group_IT_number 189
_symmetry_cell_setting 'hexagonal'
loop_
_space_group_symop_operation_xyz
x,y,z
-x+y,-x,-z
-y,x-y,z
x,y,-z
-x+y,-x,z
-y,x-y,-z
x-y,-y,-z
-x,-x+y,-z
y,x,-z
y,x,z
x-y,-y,z
-x,-x+y,z
loop_
_atom_site_type_symbol
_atom_site_label
_atom_site_fract_x
_atom_site_fract_y
_atom_site_fract_z
Si Si1 0.328162 0.415090 0.000000
Si Si2 0.906377 0.216649 0.706172
Si Si3 0.836057 0.465292 0.290492
Si Si4 0.731426 0.903553 0.000000
Si Si5 0.196090 0.492448 0.708617
O O1 0.368935 0.463834 0.178870
O O2 0.340789 0.340789 0.000000
O O3 0.232437 0.365032 0.000000
O O4 0.885024 0.190542 0.500000
O O5 0.880706 0.136476 0.821889
O O6 0.860153 0.262305 0.776964
O O7 0.000000 0.277650 0.731091
O O8 0.854766 0.479930 0.500000
O O9 0.757014 0.468553 0.236081
O O10 0.831164 0.384565 0.218418
O O11 0.792090 0.000000 0.000000
O O12 0.188884 0.492064 0.500000
#
# Coordination Sequence:
#
# PCOD8327790 Si02
#       5
#     6  12  12   6  12
#     4  11  24  36  52  80 109 148 195 233 288 353
#     4  10  21  39  64  93 123 157 200 251 309 369
#     4  10  20  36  56  79 116 156 199 250 289 334
#     4  11  23  40  62  88 118 154 196 241 298 371
#     4   9  18  34  57  84 114 159 208 247 294 346
#
# _framework density 19.749345000000002
#
# number of rings (size 3 to 8) (size 9 to 14) (size 15 to 20)
#    0.000    2.000    2.500    0.875    0.000    6.000 
#    0.000    5.000    0.000    2.000    0.000    0.000 
#    0.000    0.000    0.000    0.000    0.000    0.000 
#
# Total GULP energy -594668.347506 kJ/mol
# GULP energy per Si atom -12388.923906 kJ/mol
# Density = 1.970439 g / cm^3
# Si number density = 19.749345 Si / 1000 Ang^3
#
#
#
# Elastic Constant Matrix: (Units=GPa)
#
#
# Indices 1 2 3 4 5 6 
#
# 1 92.1083 48.1611 38.0751 0.0000 0.0000 0.0000
# 2 48.1611 92.1083 38.0751 0.0000 0.0000 0.0000
# 3 38.0751 38.0751 92.7047 0.0000 0.0000 0.0000
# 4 0.0000 0.0000 0.0000 90.3687 0.0000 0.0000
# 5 0.0000 0.0000 0.0000 0.0000 90.3687 0.0000
# 6 0.0000 0.0000 0.0000 0.0000 0.0000 21.9736
#
#
#
# Elastic Compliance Matrix: (Units=1/GPa)
#
#
# Indices 1 2 3 4 5 6 
#
# 1 0.015965 -0.006790 -0.003768 0.000000 0.000000 0.000000
# 2 -0.006790 0.015965 -0.003768 0.000000 0.000000 0.000000
# 3 -0.003768 -0.003768 0.013882 0.000000 0.000000 0.000000
# 4 0.000000 0.000000 0.000000 0.011066 0.000000 0.000000
# 5 0.000000 0.000000 0.000000 0.000000 0.011066 0.000000
# 6 0.000000 0.000000 0.000000 0.000000 0.000000 0.045509
#
#
# Mechanical properties :
#
#
# Convention : Reuss Voigt Hill
#
# Bulk Modulus (GPa) = 58.27834 58.39376 58.33605
# Shear Modulus (GPa) = 33.82386 50.71623 42.27005
#
# Velocity S-wave (km/s) = 4.14292 5.07304 4.63139
# Velocity P-wave (km/s) = 7.24279 7.99662 7.62902
#
# Compressibility (1/GPa) = 0.01715903
#
# Stress axis : x y z
#
# Youngs Moduli (GPa) = 62.63818 62.63818 72.03436
#
# Poissons Ratio (x) = 0.42530 0.27144
# Poissons Ratio (y) = 0.42530 0.27144
# Poissons Ratio (z) = 0.23604 0.23604
#
# Static dielectric constant tensor:
#      x y z
#    x 3.632960 0.000000 0.000000 
#    y 0.000000 3.632960 0.000000 
#    z 0.000000 0.000000 3.575660 
# 
# 
# High freq. dielectric constant tensor:
#      x y z
#    x 1.759680 0.000000 0.000000 
#    y 0.000000 1.759680 0.000000 
#    z 0.000000 0.000000 1.771780 
# 
# From -- ./inp_files/659.got.cif
#   From: 2010.03.12/outbox.cif.g09.slc.cpg/sg189_1_cif.got.tgz:659.got - 2010.04.01 12:03:36.
