data_PCOD8327976
_publ_section_title
;
Structure prediction by ZEFSAII (Michael W. Deem and Ramdas Pophale) SiO2 
 PCOD8327976
Probable space group: P -6 2 C
;
_chemical_formula_sum "Si O2"
_cell_formula_units_Z 72
_cell_length_a 23.679059
_cell_length_b 23.679059
_cell_length_c 8.830004
_cell_angle_alpha 90.000000
_cell_angle_beta 90.000000
_cell_angle_gamma 120.000000
_cell_volume 4287.660707
_symmetry_space_group_name_H-M "P -6 2 C"
_symmetry_group_IT_number 190
_symmetry_cell_setting 'hexagonal'
loop_
_space_group_symop_operation_xyz
x,y,z
-x+y,-x,1/2-z
-y,x-y,z
x,y,1/2-z
-x+y,-x,z
-y,x-y,1/2-z
x-y,-y,-z
-x,-x+y,-z
y,x,-z
y,x,1/2+z
x-y,-y,1/2+z
-x,-x+y,1/2+z
loop_
_atom_site_type_symbol
_atom_site_label
_atom_site_fract_x
_atom_site_fract_y
_atom_site_fract_z
Si Si1 0.601010 0.404168 0.427856
Si Si2 0.263139 0.735816 0.429062
Si Si3 0.932996 0.068889 0.429135
Si Si4 0.932319 0.526759 0.075337
Si Si5 0.149535 0.741025 0.928790
Si Si6 0.804566 0.067145 0.073417
O O1 0.615837 0.405883 0.250000
O O2 0.575388 0.331385 0.487163
O O3 0.664794 0.454207 0.519481
O O4 0.547822 0.426204 0.460397
O O5 0.260153 0.725298 0.250000
O O6 0.215644 0.762901 0.479211
O O7 0.939574 0.065764 0.250000
O O8 0.877514 0.086305 0.476361
O O9 0.000000 0.125140 0.500000
O O10 0.916648 0.000000 0.500000
O O11 0.947683 0.538428 0.250000
O O12 0.905156 0.573693 0.018900
O O13 0.000000 0.543718 0.000000
O O14 0.163844 0.741590 0.750000
O O15 0.125013 0.791168 0.973695
O O16 0.795272 0.054564 0.250000
O O17 0.750870 0.000000 0.000000
#
# Coordination Sequence:
#
# PCOD8327976 Si02
#       6
#    12  12  12  12  12  12
#     4  10  20  35  51  69  97 133 161 189 237 293
#     4  11  21  32  49  75  99 123 159 203 238 272
#     4  10  19  31  47  69  95 125 158 197 240 285
#     4   9  18  30  48  71  95 123 154 187 229 277
#     4   9  18  33  49  69  97 129 158 187 233 292
#     4   9  18  31  49  71  96 125 159 195 236 283
#
# _framework density 16.792373000000001
#
# number of rings (size 3 to 8) (size 9 to 14) (size 15 to 20)
#    0.000    2.333    0.000    4.500    0.000    4.667 
#    0.000    0.000    0.000    1.000    0.000    2.333 
#    0.000    0.000    0.000    0.000    0.000    0.000 
#
# Total GULP energy -892863.536052 kJ/mol
# GULP energy per Si atom -12400.882445 kJ/mol
# Density = 1.675415 g / cm^3
# Si number density = 16.792373 Si / 1000 Ang^3
#
#
#
# Elastic Constant Matrix: (Units=GPa)
#
#
# Indices 1 2 3 4 5 6 
#
# 1 100.0010 53.6173 32.5875 0.0000 0.0000 0.0000
# 2 53.6173 100.0010 32.5875 0.0000 0.0000 0.0000
# 3 32.5875 32.5875 55.1612 0.0000 0.0000 0.0000
# 4 0.0000 0.0000 0.0000 25.8579 0.0000 0.0000
# 5 0.0000 0.0000 0.0000 0.0000 25.8579 0.0000
# 6 0.0000 0.0000 0.0000 0.0000 0.0000 23.1918
#
#
#
# Elastic Compliance Matrix: (Units=1/GPa)
#
#
# Indices 1 2 3 4 5 6 
#
# 1 0.015123 -0.006436 -0.005132 0.000000 0.000000 0.000000
# 2 -0.006436 0.015123 -0.005132 0.000000 0.000000 0.000000
# 3 -0.005132 -0.005132 0.024192 0.000000 0.000000 0.000000
# 4 0.000000 0.000000 0.000000 0.038673 0.000000 0.000000
# 5 0.000000 0.000000 0.000000 0.000000 0.038673 0.000000
# 6 0.000000 0.000000 0.000000 0.000000 0.000000 0.043119
#
#
# Mechanical properties :
#
#
# Convention : Reuss Voigt Hill
#
# Bulk Modulus (GPa) = 47.53235 54.74976 51.14106
# Shear Modulus (GPa) = 23.22166 24.07290 23.64728
#
# Velocity S-wave (km/s) = 3.72273 3.79035 3.75669
# Velocity P-wave (km/s) = 6.84439 7.19933 7.02410
#
# Compressibility (1/GPa) = 0.02103830
#
# Stress axis : x y z
#
# Youngs Moduli (GPa) = 66.12377 66.12377 41.33543
#
# Poissons Ratio (x) = 0.42558 0.21213
# Poissons Ratio (y) = 0.42558 0.21213
# Poissons Ratio (z) = 0.33935 0.33935
#
# Static dielectric constant tensor:
#      x y z
#    x 3.176940 0.000000 0.000000 
#    y 0.000000 3.176940 0.000000 
#    z 0.000000 0.000000 3.147940 
# 
# 
# High freq. dielectric constant tensor:
#      x y z
#    x 1.637340 0.000000 0.000000 
#    y 0.000000 1.637340 0.000000 
#    z 0.000000 0.000000 1.653500 
# 
# From -- ./inp_files/1196.got.cif
#   From: 2010.06.25/outbox.cif.g09.slc.cpg/sg190_1_cif.got.tgz:1196.got - 2010.06.28 13:08:06.
