data_PCOD8327817
_publ_section_title
;
Structure prediction by ZEFSAII (Michael W. Deem and Ramdas Pophale) SiO2 
 PCOD8327817
Probable space group: P -6 2 M
;
_chemical_formula_sum "Si O2"
_cell_formula_units_Z 44
_cell_length_a 16.863044
_cell_length_b 16.863044
_cell_length_c 9.288897
_cell_angle_alpha 90.000000
_cell_angle_beta 90.000000
_cell_angle_gamma 120.000000
_cell_volume 2287.529615
_symmetry_space_group_name_H-M "P -6 2 M"
_symmetry_group_IT_number 189
_symmetry_cell_setting 'hexagonal'
loop_
_space_group_symop_operation_xyz
x,y,z
-x+y,-x,-z
-y,x-y,z
x,y,-z
-x+y,-x,z
-y,x-y,-z
x-y,-y,-z
-x,-x+y,-z
y,x,-z
y,x,z
x-y,-y,z
-x,-x+y,z
loop_
_atom_site_type_symbol
_atom_site_label
_atom_site_fract_x
_atom_site_fract_y
_atom_site_fract_z
Si Si1 0.601646 0.108650 0.838647
Si Si2 0.000000 0.833787 0.168420
Si Si3 0.454415 0.107466 0.659646
Si Si4 0.196072 0.363858 0.168941
Si Si5 0.000000 0.000000 0.326578
O O1 0.552485 0.150203 0.739978
O O2 0.702396 0.140301 0.778530
O O3 0.545751 0.000000 0.839105
O O4 0.606872 0.145984 0.000000
O O5 0.911381 0.737760 0.207451
O O6 0.000000 0.910651 0.268188
O O7 0.000000 0.858132 0.000000
O O8 0.470482 0.150555 0.500000
O O9 0.383172 0.125285 0.746825
O O10 0.412327 0.000000 0.649071
O O11 0.184713 0.372677 0.000000
O O12 0.000000 0.000000 0.500000
#
# Coordination Sequence:
#
# PCOD8327817 Si02
#       5
#    12   6  12  12   2
#     4   9  17  35  60  84 108 138 184 236 284 335
#     4  10  22  42  66  91 118 155 206 259 306 355
#     4  10  22  37  54  81 118 153 187 229 282 349
#     4  10  20  37  63  90 113 147 196 248 296 348
#     4  12  28  44  58  87 130 167 202 249 304 359
#
# _framework density 19.234724
#
# number of rings (size 3 to 8) (size 9 to 14) (size 15 to 20)
#    0.000    2.182    1.364    1.227    1.909    3.818 
#    1.636    0.000    0.000    0.000    0.000    0.000 
#    0.000    0.000    0.000    0.000    0.000    0.000 
#
# Total GULP energy -545609.535388 kJ/mol
# GULP energy per Si atom -12400.216713 kJ/mol
# Density = 1.919095 g / cm^3
# Si number density = 19.234724 Si / 1000 Ang^3
#
#
#
# Elastic Constant Matrix: (Units=GPa)
#
#
# Indices 1 2 3 4 5 6 
#
# 1 98.5192 39.0025 59.1839 0.0000 0.0000 0.0000
# 2 39.0025 98.5192 59.1839 0.0000 0.0000 0.0000
# 3 59.1839 59.1839 99.5534 0.0000 0.0000 0.0000
# 4 0.0000 0.0000 0.0000 19.9575 0.0000 0.0000
# 5 0.0000 0.0000 0.0000 0.0000 19.9575 0.0000
# 6 0.0000 0.0000 0.0000 0.0000 0.0000 29.7584
#
#
#
# Elastic Compliance Matrix: (Units=1/GPa)
#
#
# Indices 1 2 3 4 5 6 
#
# 1 0.015847 -0.000955 -0.008853 0.000000 0.000000 0.000000
# 2 -0.000955 0.015847 -0.008853 0.000000 0.000000 0.000000
# 3 -0.008853 -0.008853 0.020571 0.000000 0.000000 0.000000
# 4 0.000000 0.000000 0.000000 0.050106 0.000000 0.000000
# 5 0.000000 0.000000 0.000000 0.000000 0.050106 0.000000
# 6 0.000000 0.000000 0.000000 0.000000 0.000000 0.033604
#
#
# Mechanical properties :
#
#
# Convention : Reuss Voigt Hill
#
# Bulk Modulus (GPa) = 66.92452 67.92581 67.42517
# Shear Modulus (GPa) = 21.89297 23.21611 22.55454
#
# Velocity S-wave (km/s) = 3.37738 3.47794 3.42803
# Velocity P-wave (km/s) = 7.07659 7.17767 7.12731
#
# Compressibility (1/GPa) = 0.01494221
#
# Stress axis : x y z
#
# Youngs Moduli (GPa) = 63.10459 63.10459 48.61260
#
# Poissons Ratio (x) = 0.06028 0.43036
# Poissons Ratio (y) = 0.06028 0.43036
# Poissons Ratio (z) = 0.55866 0.55866
#
# Static dielectric constant tensor:
#      x y z
#    x 3.467750 0.000000 0.000000 
#    y 0.000000 3.467750 0.000000 
#    z 0.000000 0.000000 3.693470 
# 
# 
# High freq. dielectric constant tensor:
#      x y z
#    x 1.745450 0.000000 0.000000 
#    y 0.000000 1.745450 0.000000 
#    z 0.000000 0.000000 1.743010 
# 
# From -- ./inp_files/586.got.cif
#   From: 2010.03.12/outbox.cif.g09.slc.cpg/sg189_1_cif.got.tgz:586.got - 2010.04.01 12:03:36.
