data_PCOD8327501
_publ_section_title
;
Structure prediction by ZEFSAII (Michael W. Deem and Ramdas Pophale) SiO2 
 PCOD8327501
Probable space group: P -6 2 M
;
_chemical_formula_sum "Si O2"
_cell_formula_units_Z 84
_cell_length_a 21.325534
_cell_length_b 21.325534
_cell_length_c 13.895229
_cell_angle_alpha 90.000000
_cell_angle_beta 90.000000
_cell_angle_gamma 120.000000
_cell_volume 5472.631048
_symmetry_space_group_name_H-M "P -6 2 M"
_symmetry_group_IT_number 189
_symmetry_cell_setting 'hexagonal'
loop_
_space_group_symop_operation_xyz
x,y,z
-x+y,-x,-z
-y,x-y,z
x,y,-z
-x+y,-x,z
-y,x-y,-z
x-y,-y,-z
-x,-x+y,-z
y,x,-z
y,x,z
x-y,-y,z
-x,-x+y,z
loop_
_atom_site_type_symbol
_atom_site_label
_atom_site_fract_x
_atom_site_fract_y
_atom_site_fract_z
Si Si1 0.573993 0.915537 0.731903
Si Si2 0.084463 0.426007 0.268097
Si Si3 0.521548 0.188566 0.111529
Si Si4 0.332981 0.521547 0.888471
Si Si5 0.778750 0.697811 0.390091
Si Si6 0.919061 0.697811 0.609909
Si Si7 0.457059 0.914118 0.606686
O O1 0.548159 0.870752 0.830462
O O2 0.631324 0.899498 0.680077
O O3 0.505190 0.887161 0.661862
O O4 0.608053 0.000000 0.756679
O O5 0.129248 0.451841 0.169538
O O6 0.100502 0.368676 0.319923
O O7 0.112839 0.494810 0.338138
O O8 0.000000 0.391947 0.243321
O O9 0.592078 0.184155 0.140388
O O10 0.537350 0.268675 0.136315
O O11 0.502470 0.170284 0.000000
O O12 0.332185 0.502470 0.000000
O O13 0.757287 0.670490 0.500000
O O14 0.763634 0.763634 0.369301
O O15 0.863403 0.726805 0.370868
O O16 0.913203 0.670490 0.500000
O O17 0.000000 0.763634 0.630699
O O18 0.439926 0.879853 0.500000
O O19 0.500000 0.000000 0.599303
#
# Coordination Sequence:
#
# PCOD8327501 Si02
#       7
#    12  12  12  12  12  12  12
#     4  10  18  29  45  67  90 113 141 178 225 268
#     4  10  18  29  45  67  90 113 141 178 225 268
#     4  10  20  33  47  62  81 110 150 190 226 266
#     4  10  20  33  47  62  81 110 150 190 226 266
#     4   9  17  29  46  68  93 120 150 182 217 262
#     4   9  17  29  46  68  93 120 150 182 217 262
#     4   9  16  26  41  63  89 113 138 170 211 261
#
# _framework density 15.349107
#
# number of rings (size 3 to 8) (size 9 to 14) (size 15 to 20)
#    0.000    2.429    1.429    2.000    0.000    5.143 
#    0.000    1.429    0.000    0.286    0.000    2.000 
#    0.000    0.000    0.000    0.000    0.000    0.000 
#
# Total GULP energy -1041583.743714 kJ/mol
# GULP energy per Si atom -12399.806473 kJ/mol
# Density = 1.531417 g / cm^3
# Si number density = 15.349107 Si / 1000 Ang^3
#
#
#
# Elastic Constant Matrix: (Units=GPa)
#
#
# Indices 1 2 3 4 5 6 
#
# 1 91.1584 52.3345 47.2013 0.0000 0.0000 0.0000
# 2 52.3345 91.1584 47.2013 0.0000 0.0000 0.0000
# 3 47.2013 47.2013 78.9627 0.0000 0.0000 0.0000
# 4 0.0000 0.0000 0.0000 22.3327 0.0000 0.0000
# 5 0.0000 0.0000 0.0000 0.0000 22.3327 0.0000
# 6 0.0000 0.0000 0.0000 0.0000 0.0000 19.4119
#
#
#
# Elastic Compliance Matrix: (Units=1/GPa)
#
#
# Indices 1 2 3 4 5 6 
#
# 1 0.018622 -0.007136 -0.006866 0.000000 0.000000 0.000000
# 2 -0.007136 0.018622 -0.006866 0.000000 0.000000 0.000000
# 3 -0.006866 -0.006866 0.020873 0.000000 0.000000 0.000000
# 4 0.000000 0.000000 0.000000 0.044777 0.000000 0.000000
# 5 0.000000 0.000000 0.000000 0.000000 0.044777 0.000000
# 6 0.000000 0.000000 0.000000 0.000000 0.000000 0.051515
#
#
# Mechanical properties :
#
#
# Convention : Reuss Voigt Hill
#
# Bulk Modulus (GPa) = 61.04675 61.63932 61.34304
# Shear Modulus (GPa) = 20.29377 20.45163 20.37270
#
# Velocity S-wave (km/s) = 3.64008 3.65421 3.64715
# Velocity P-wave (km/s) = 7.58455 7.61904 7.60181
#
# Compressibility (1/GPa) = 0.01638089
#
# Stress axis : x y z
#
# Youngs Moduli (GPa) = 53.70083 53.70083 47.90946
#
# Poissons Ratio (x) = 0.38319 0.32895
# Poissons Ratio (y) = 0.38319 0.32895
# Poissons Ratio (z) = 0.36871 0.36871
#
# Static dielectric constant tensor:
#      x y z
#    x 2.857630 0.000000 0.000000 
#    y 0.000000 2.857630 0.000000 
#    z 0.000000 0.000000 2.948910 
# 
# 
# High freq. dielectric constant tensor:
#      x y z
#    x 1.576190 0.000000 0.000000 
#    y 0.000000 1.576190 0.000000 
#    z 0.000000 0.000000 1.587260 
# 
# From -- ./inp_files/2123.got.cif
#   From: 2010.03.12/outbox.cif.g09.slc.cpg/sg189_2_cif.got.tgz:2123.got - 2010.04.01 12:03:36.
