data_PCOD8327887
_publ_section_title
;
Structure prediction by ZEFSAII (Michael W. Deem and Ramdas Pophale) SiO2 
 PCOD8327887
Probable space group: P -6 2 M
;
_chemical_formula_sum "Si O2"
_cell_formula_units_Z 72
_cell_length_a 23.329251
_cell_length_b 23.329251
_cell_length_c 8.890833
_cell_angle_alpha 90.000000
_cell_angle_beta 90.000000
_cell_angle_gamma 120.000000
_cell_volume 4190.585211
_symmetry_space_group_name_H-M "P -6 2 M"
_symmetry_group_IT_number 189
_symmetry_cell_setting 'hexagonal'
loop_
_space_group_symop_operation_xyz
x,y,z
-x+y,-x,-z
-y,x-y,z
x,y,-z
-x+y,-x,z
-y,x-y,-z
x-y,-y,-z
-x,-x+y,-z
y,x,-z
y,x,z
x-y,-y,z
-x,-x+y,z
loop_
_atom_site_type_symbol
_atom_site_label
_atom_site_fract_x
_atom_site_fract_y
_atom_site_fract_z
Si Si1 0.075254 0.342166 0.824907
Si Si2 0.588041 0.121532 0.174364
Si Si3 0.518809 0.667554 0.323187
Si Si4 0.410354 0.410354 0.321910
Si Si5 0.672181 0.868411 0.827287
Si Si6 0.000000 0.719440 0.323303
Si Si7 0.785351 0.521200 0.828275
O O1 0.095570 0.407302 0.727681
O O2 0.122195 0.311792 0.783541
O O3 0.000000 0.287396 0.787192
O O4 0.084619 0.362841 0.000000
O O5 0.531250 0.132976 0.237579
O O6 0.588815 0.063789 0.265270
O O7 0.658557 0.188219 0.196677
O O8 0.574747 0.101586 0.000000
O O9 0.511764 0.654815 0.500000
O O10 0.500581 0.723693 0.281466
O O11 0.410382 0.410382 0.500000
O O12 0.345435 0.345435 0.259420
O O13 0.718897 0.934046 0.732581
O O14 0.595451 0.843331 0.790226
O O15 0.688291 0.888323 0.000000
O O16 0.000000 0.720795 0.500000
O O17 0.761667 0.519183 0.000000
#
# Coordination Sequence:
#
# PCOD8327887 Si02
#       7
#    12  12  12   6  12   6  12
#     4   9  19  37  58  78 103 139 179 215 254 304
#     4  11  22  38  58  76 100 137 180 223 266 320
#     4  11  23  36  53  77 106 135 170 220 273 321
#     4  11  23  35  51  79 111 137 169 216 271 322
#     4   9  17  32  54  78 103 133 172 210 248 299
#     4  11  21  31  49  79 113 143 165 200 255 312
#     4   9  19  37  57  74  94 130 177 218 262 316
#
# _framework density 17.181372
#
# number of rings (size 3 to 8) (size 9 to 14) (size 15 to 20)
#    0.000    2.000    1.667    3.500    1.167    5.000 
#    1.000    0.000    0.000    0.000    0.000    0.000 
#    0.833    0.000    1.500    0.000    0.500    0.000 
#
# Total GULP energy -892906.123774 kJ/mol
# GULP energy per Si atom -12401.473941 kJ/mol
# Density = 1.714227 g / cm^3
# Si number density = 17.181372 Si / 1000 Ang^3
#
#
#
# Elastic Constant Matrix: (Units=GPa)
#
#
# Indices 1 2 3 4 5 6 
#
# 1 87.3670 58.6684 30.2820 0.0000 0.0000 0.0000
# 2 58.6684 87.3670 30.2820 0.0000 0.0000 0.0000
# 3 30.2820 30.2820 55.0260 0.0000 0.0000 0.0000
# 4 0.0000 0.0000 0.0000 19.8529 0.0000 0.0000
# 5 0.0000 0.0000 0.0000 0.0000 19.8529 0.0000
# 6 0.0000 0.0000 0.0000 0.0000 0.0000 14.3493
#
#
#
# Elastic Compliance Matrix: (Units=1/GPa)
#
#
# Indices 1 2 3 4 5 6 
#
# 1 0.021859 -0.012986 -0.004883 0.000000 0.000000 0.000000
# 2 -0.012986 0.021859 -0.004883 0.000000 0.000000 0.000000
# 3 -0.004883 -0.004883 0.023547 0.000000 0.000000 0.000000
# 4 0.000000 0.000000 0.000000 0.050370 0.000000 0.000000
# 5 0.000000 0.000000 0.000000 0.000000 0.050370 0.000000
# 6 0.000000 0.000000 0.000000 0.000000 0.000000 0.069690
#
#
# Mechanical properties :
#
#
# Convention : Reuss Voigt Hill
#
# Bulk Modulus (GPa) = 45.95265 52.02497 48.98881
# Shear Modulus (GPa) = 17.21448 18.17953 17.69701
#
# Velocity S-wave (km/s) = 3.16876 3.25637 3.21286
# Velocity P-wave (km/s) = 6.33969 6.66965 6.50676
#
# Compressibility (1/GPa) = 0.02176153
#
# Stress axis : x y z
#
# Youngs Moduli (GPa) = 45.74814 45.74814 42.46736
#
# Poissons Ratio (x) = 0.59409 0.20736
# Poissons Ratio (y) = 0.59409 0.20736
# Poissons Ratio (z) = 0.22338 0.22338
#
# Static dielectric constant tensor:
#      x y z
#    x 3.257770 0.000000 0.000000 
#    y 0.000000 3.257770 0.000000 
#    z 0.000000 0.000000 3.185130 
# 
# 
# High freq. dielectric constant tensor:
#      x y z
#    x 1.651610 0.000000 0.000000 
#    y 0.000000 1.651610 0.000000 
#    z 0.000000 0.000000 1.666520 
# 
# From -- ./inp_files/1335.got.cif
#   From: 2010.03.12/outbox.cif.g09.slc.cpg/sg189_1_cif.got.tgz:1335.got - 2010.04.01 12:03:36.
