data_PCOD8327895
_publ_section_title
;
Structure prediction by ZEFSAII (Michael W. Deem and Ramdas Pophale) SiO2 
 PCOD8327895
Probable space group: P -6 2 M
;
_chemical_formula_sum "Si O2"
_cell_formula_units_Z 48
_cell_length_a 17.856655
_cell_length_b 17.856655
_cell_length_c 8.445881
_cell_angle_alpha 90.000000
_cell_angle_beta 90.000000
_cell_angle_gamma 120.000000
_cell_volume 2332.253780
_symmetry_space_group_name_H-M "P -6 2 M"
_symmetry_group_IT_number 189
_symmetry_cell_setting 'hexagonal'
loop_
_space_group_symop_operation_xyz
x,y,z
-x+y,-x,-z
-y,x-y,z
x,y,-z
-x+y,-x,z
-y,x-y,-z
x-y,-y,-z
-x,-x+y,-z
y,x,-z
y,x,z
x-y,-y,z
-x,-x+y,z
loop_
_atom_site_type_symbol
_atom_site_label
_atom_site_fract_x
_atom_site_fract_y
_atom_site_fract_z
Si Si1 0.000000 0.785950 0.324023
Si Si2 0.811480 0.713287 0.310526
Si Si3 0.614144 0.162251 0.182830
Si Si4 0.390828 0.390828 0.677725
Si Si5 0.278597 0.794691 0.684371
O O1 0.000000 0.820244 0.500000
O O2 0.089931 0.857460 0.241249
O O3 0.000000 0.697426 0.332417
O O4 0.813701 0.712760 0.500000
O O5 0.758218 0.758218 0.247431
O O6 0.764537 0.614156 0.249636
O O7 0.533918 0.152846 0.285740
O O8 0.704973 0.246456 0.223818
O O9 0.626105 0.082326 0.224049
O O10 0.592109 0.163047 0.000000
O O11 0.424669 0.424669 0.500000
O O12 0.256897 0.774752 0.500000
#
# Coordination Sequence:
#
# PCOD8327895 Si02
#       5
#     6  12  12   6  12
#     4   9  16  33  59  87 118 151 198 252 300 360
#     4   9  18  33  56  88 120 153 198 253 304 355
#     4  12  25  40  58  88 125 158 200 259 316 363
#     4  11  21  39  63  87 114 159 212 250 296 370
#     4  11  22  39  62  86 118 164 211 251 299 369
#
# _framework density 20.580950999999999
#
# number of rings (size 3 to 8) (size 9 to 14) (size 15 to 20)
#    0.000    1.500    2.500    3.875    1.750    0.000 
#    0.750    0.000    0.000    0.000    0.000    0.000 
#    0.000    0.000    0.000    0.000    0.000    0.000 
#
# Total GULP energy -595160.737512 kJ/mol
# GULP energy per Si atom -12399.182031 kJ/mol
# Density = 2.053411 g / cm^3
# Si number density = 20.580951 Si / 1000 Ang^3
#
#
#
# Elastic Constant Matrix: (Units=GPa)
#
#
# Indices 1 2 3 4 5 6 
#
# 1 120.4927 57.9503 16.8470 0.0000 0.0000 0.0000
# 2 57.9503 120.4927 16.8470 0.0000 0.0000 0.0000
# 3 16.8470 16.8470 50.3667 0.0000 0.0000 0.0000
# 4 0.0000 0.0000 0.0000 19.4810 0.0000 0.0000
# 5 0.0000 0.0000 0.0000 0.0000 19.4810 0.0000
# 6 0.0000 0.0000 0.0000 0.0000 0.0000 31.2712
#
#
#
# Elastic Compliance Matrix: (Units=1/GPa)
#
#
# Indices 1 2 3 4 5 6 
#
# 1 0.010985 -0.005004 -0.002001 0.000000 0.000000 0.000000
# 2 -0.005004 0.010985 -0.002001 0.000000 0.000000 0.000000
# 3 -0.002001 -0.002001 0.021193 0.000000 0.000000 0.000000
# 4 0.000000 0.000000 0.000000 0.051332 0.000000 0.000000
# 5 0.000000 0.000000 0.000000 0.000000 0.051332 0.000000
# 6 0.000000 0.000000 0.000000 0.000000 0.000000 0.031978
#
#
# Mechanical properties :
#
#
# Convention : Reuss Voigt Hill
#
# Bulk Modulus (GPa) = 39.75637 52.73785 46.24711
# Shear Modulus (GPa) = 24.48561 27.36048 25.92304
#
# Velocity S-wave (km/s) = 3.45298 3.65006 3.55289
# Velocity P-wave (km/s) = 5.93771 6.59122 6.27298
#
# Compressibility (1/GPa) = 0.02515320
#
# Stress axis : x y z
#
# Youngs Moduli (GPa) = 91.02909 91.02909 47.18558
#
# Poissons Ratio (x) = 0.45548 0.09441
# Poissons Ratio (y) = 0.45548 0.09441
# Poissons Ratio (z) = 0.18214 0.18214
#
# Static dielectric constant tensor:
#      x y z
#    x 3.809090 0.000000 0.000000 
#    y 0.000000 3.809090 0.000000 
#    z 0.000000 0.000000 3.317470 
# 
# 
# High freq. dielectric constant tensor:
#      x y z
#    x 1.812450 0.000000 0.000000 
#    y 0.000000 1.812450 0.000000 
#    z 0.000000 0.000000 1.764300 
# 
# From -- ./inp_files/639.got.cif
#   From: 2010.03.12/outbox.cif.g09.slc.cpg/sg189_1_cif.got.tgz:639.got - 2010.04.01 12:03:36.
