data_PCOD8327323
_publ_section_title
;
Structure prediction by ZEFSAII (Michael W. Deem and Ramdas Pophale) SiO2 
 PCOD8327323
Probable space group: P -6 C 2
;
_chemical_formula_sum "Si O2"
_cell_formula_units_Z 96
_cell_length_a 18.363280
_cell_length_b 18.363280
_cell_length_c 17.946261
_cell_angle_alpha 90.000000
_cell_angle_beta 90.000000
_cell_angle_gamma 120.000000
_cell_volume 5240.890959
_symmetry_space_group_name_H-M "P -6 C 2"
_symmetry_group_IT_number 188
_symmetry_cell_setting 'hexagonal'
loop_
_space_group_symop_operation_xyz
x,y,z
-x+y,-x,1/2-z
-y,x-y,z
x,y,1/2-z
-x+y,-x,z
-y,x-y,1/2-z
-y,-x,-z
-x+y,y,-z
x,x-y,-z
-x+y,y,1/2+z
x,x-y,1/2+z
-y,-x,1/2+z
loop_
_atom_site_type_symbol
_atom_site_label
_atom_site_fract_x
_atom_site_fract_y
_atom_site_fract_z
Si Si1 0.570209 0.429839 0.588366
Si Si2 0.041945 0.241637 0.338348
Si Si3 0.567267 0.701089 0.336206
Si Si4 0.758884 0.958231 0.161795
Si Si5 0.292024 0.146075 0.339206
Si Si6 0.474739 0.525539 0.912191
Si Si7 0.474043 0.236998 0.411342
Si Si8 0.133970 0.432767 0.836080
O O1 0.569317 0.430684 0.500000
O O2 0.522432 0.477652 0.620475
O O3 0.666477 0.476260 0.616606
O O4 0.523789 0.333572 0.616603
O O5 0.039566 0.236857 0.250000
O O6 0.079644 0.337231 0.363596
O O7 0.103844 0.207876 0.367703
O O8 0.948625 0.188148 0.370601
O O9 0.557868 0.674146 0.250000
O O10 0.516161 0.620473 0.386361
O O11 0.534250 0.767068 0.348430
O O12 0.765757 0.962346 0.250000
O O13 0.663016 0.920116 0.137560
O O14 0.811720 0.051397 0.128894
O O15 0.299826 0.150091 0.250000
O O16 0.383787 0.191803 0.373540
O O17 0.517051 0.620977 0.886881
O O18 0.477437 0.522564 0.000000
O O19 0.463429 0.231714 0.500000
O O20 0.116764 0.443188 0.750000
#
# Coordination Sequence:
#
# PCOD8327323 Si02
#       8
#    12  12  12  12  12  12  12  12
#     4   9  19  33  51  75 101 135 173 208 242 291
#     4   8  15  29  48  71  99 129 161 199 240 285
#     4   9  18  34  53  69  91 129 170 198 231 291
#     4   8  15  29  48  71  99 129 161 199 240 285
#     4  10  18  29  49  77 103 127 162 208 251 289
#     4  11  21  32  49  77 105 123 154 208 259 293
#     4  10  19  34  53  71  99 137 175 206 242 293
#     4   9  18  34  53  69  91 129 170 198 231 291
#
# _framework density 18.317498000000001
#
# number of rings (size 3 to 8) (size 9 to 14) (size 15 to 20)
#    0.000    2.750    0.000    3.625    0.000    1.500 
#    1.500    1.875    0.000    2.250    0.000    0.000 
#    0.000    0.000    0.000    0.000    0.000    0.000 
#
# Total GULP energy -1189965.665205 kJ/mol
# GULP energy per Si atom -12395.475679 kJ/mol
# Density = 1.827581 g / cm^3
# Si number density = 18.317498 Si / 1000 Ang^3
#
#
#
# Elastic Constant Matrix: (Units=GPa)
#
#
# Indices 1 2 3 4 5 6 
#
# 1 150.8289 100.5084 29.7594 0.0000 0.0000 0.0000
# 2 100.5084 150.8289 29.7594 0.0000 0.0000 0.0000
# 3 29.7594 29.7594 30.5629 0.0000 0.0000 0.0000
# 4 0.0000 0.0000 0.0000 17.7304 0.0000 0.0000
# 5 0.0000 0.0000 0.0000 0.0000 17.7304 0.0000
# 6 0.0000 0.0000 0.0000 0.0000 0.0000 25.1603
#
#
#
# Elastic Compliance Matrix: (Units=1/GPa)
#
#
# Indices 1 2 3 4 5 6 
#
# 1 0.012522 -0.007351 -0.005035 0.000000 0.000000 0.000000
# 2 -0.007351 0.012522 -0.005035 0.000000 0.000000 0.000000
# 3 -0.005035 -0.005035 0.042525 0.000000 0.000000 0.000000
# 4 0.000000 0.000000 0.000000 0.056400 0.000000 0.000000
# 5 0.000000 0.000000 0.000000 0.000000 0.056400 0.000000
# 6 0.000000 0.000000 0.000000 0.000000 0.000000 0.039745
#
#
# Mechanical properties :
#
#
# Convention : Reuss Voigt Hill
#
# Bulk Modulus (GPa) = 30.55620 72.47501 51.51560
# Shear Modulus (GPa) = 18.80652 23.60379 21.20516
#
# Velocity S-wave (km/s) = 3.20769 3.59359 3.40611
# Velocity P-wave (km/s) = 5.51694 7.54125 6.60708
#
# Compressibility (1/GPa) = 0.03272659
#
# Stress axis : x y z
#
# Youngs Moduli (GPa) = 79.86050 79.86050 23.51559
#
# Poissons Ratio (x) = 0.58703 0.11840
# Poissons Ratio (y) = 0.58703 0.11840
# Poissons Ratio (z) = 0.40211 0.40211
#
# Static dielectric constant tensor:
#      x y z
#    x 3.864280 0.000000 0.000000 
#    y 0.000000 3.864280 0.000000 
#    z 0.000000 0.000000 2.921500 
# 
# 
# High freq. dielectric constant tensor:
#      x y z
#    x 1.720810 0.000000 0.000000 
#    y 0.000000 1.720810 0.000000 
#    z 0.000000 0.000000 1.664900 
# 
# From -- ./inp_files/3874.got.cif
#   From: 2010.03.12/outbox.cif.g09.slc.cpg/sg188_2_cif.got.tgz:3874.got - 2010.04.01 12:01:06.
