data_PCOD8327206
_publ_section_title
;
Structure prediction by ZEFSAII (Michael W. Deem and Ramdas Pophale) SiO2 
 PCOD8327206
Probable space group: P -6 M 2
;
_chemical_formula_sum "Si O2"
_cell_formula_units_Z 72
_cell_length_a 12.386309
_cell_length_b 12.386309
_cell_length_c 30.907472
_cell_angle_alpha 90.000000
_cell_angle_beta 90.000000
_cell_angle_gamma 120.000000
_cell_volume 4106.557767
_symmetry_space_group_name_H-M "P -6 M 2"
_symmetry_group_IT_number 187
_symmetry_cell_setting 'hexagonal'
loop_
_space_group_symop_operation_xyz
x,y,z
-x+y,-x,-z
-y,x-y,z
x,y,-z
-x+y,-x,z
-y,x-y,-z
-y,-x,-z
-x+y,y,-z
x,x-y,-z
-x+y,y,z
x,x-y,z
-y,-x,z
loop_
_atom_site_type_symbol
_atom_site_label
_atom_site_fract_x
_atom_site_fract_y
_atom_site_fract_z
Si Si1 0.746991 0.748049 0.583015
Si Si2 0.332254 0.918633 0.500000
Si Si3 0.746483 0.746490 0.915905
Si Si4 0.332005 0.917966 0.334221
Si Si5 0.000107 0.747807 0.748924
Si Si6 0.586975 0.668502 0.000000
Si Si7 0.668248 0.081967 0.832319
O O1 0.871731 0.743461 0.580455
O O2 0.663277 0.674206 0.542307
O O3 0.676004 0.681098 0.626674
O O4 0.782523 0.891262 0.582239
O O5 0.224331 0.775670 0.500000
O O6 0.461219 0.922438 0.500000
O O7 0.884445 0.768890 0.920979
O O8 0.668667 0.680000 0.958469
O O9 0.673793 0.657089 0.876170
O O10 0.758361 0.879181 0.907835
O O11 0.463517 0.927034 0.337996
O O12 0.226058 0.773943 0.336777
O O13 0.326039 0.979523 0.289548
O O14 0.111745 0.888256 0.752579
O O15 0.876264 0.752527 0.739226
O O16 0.992073 0.677327 0.793065
O O17 0.464583 0.535418 0.000000
O O18 0.547398 0.773699 0.000000
O O19 0.535386 0.070771 0.828292
O O20 0.773294 0.226707 0.831559
#
# Coordination Sequence:
#
# PCOD8327206 Si02
#       7
#    12   6  12  12  12   6  12
#     4  10  20  34  54  78 104 134 168 210 256 302
#     4  10  20  34  54  78 104 134 168 208 252 300
#     4  10  20  34  54  78 104 134 168 210 256 302
#     4  10  20  34  53  76 103 135 170 210 254 301
#     4  10  20  34  54  78 104 134 168 210 256 302
#     4  10  20  34  52  74 102 136 172 210 252 300
#     4  10  20  34  52  74 102 136 172 209 250 299
#
# _framework density 17.532931999999999
#
# number of rings (size 3 to 8) (size 9 to 14) (size 15 to 20)
#    0.000    2.000    0.000    4.000    0.000    0.000 
#    0.000    6.667    0.000   16.000    0.000    0.000 
#    0.000    0.000    0.000    0.000    0.000    0.000 
#
# Total GULP energy -893106.721051 kJ/mol
# GULP energy per Si atom -12404.260015 kJ/mol
# Density = 1.749303 g / cm^3
# Si number density = 17.532932 Si / 1000 Ang^3
#
#
#
# Elastic Constant Matrix: (Units=GPa)
#
#
# Indices 1 2 3 4 5 6 
#
# 1 89.9544 53.5378 30.3440 0.0000 0.0005 0.0000
# 2 53.5378 89.9544 30.3440 0.0000 -0.0005 0.0000
# 3 30.3440 30.3440 97.9208 0.0000 0.0000 0.0000
# 4 0.0000 0.0000 0.0000 21.2662 0.0000 -0.0005
# 5 0.0005 -0.0005 0.0000 0.0000 21.2662 0.0000
# 6 0.0000 0.0000 0.0000 -0.0005 0.0000 18.2083
#
#
#
# Elastic Compliance Matrix: (Units=1/GPa)
#
#
# Indices 1 2 3 4 5 6 
#
# 1 0.017740 -0.009720 -0.002485 0.000000 -0.000001 0.000000
# 2 -0.009720 0.017740 -0.002485 0.000000 0.000001 0.000000
# 3 -0.002485 -0.002485 0.011753 0.000000 0.000000 0.000000
# 4 0.000000 0.000000 0.000000 0.047023 0.000000 0.000001
# 5 -0.000001 0.000001 0.000000 0.000000 0.047023 0.000000
# 6 0.000000 0.000000 0.000000 0.000001 0.000000 0.054920
#
#
# Mechanical properties :
#
#
# Convention : Reuss Voigt Hill
#
# Bulk Modulus (GPa) = 56.01705 56.25346 56.13525
# Shear Modulus (GPa) = 21.59544 23.05507 22.32525
#
# Velocity S-wave (km/s) = 3.51338 3.63017 3.57225
# Velocity P-wave (km/s) = 6.96257 7.05159 7.00722
#
# Compressibility (1/GPa) = 0.01785171
#
# Stress axis : x y z
#
# Youngs Moduli (GPa) = 56.36947 56.36947 85.08727
#
# Poissons Ratio (x) = 0.54791 0.21147
# Poissons Ratio (y) = 0.54791 0.21147
# Poissons Ratio (z) = 0.14010 0.14010
#
# Static dielectric constant tensor:
#      x y z
#    x 3.193590 0.000000 0.000000 
#    y 0.000000 3.193590 0.000000 
#    z 0.000000 0.000000 3.490150 
# 
# 
# High freq. dielectric constant tensor:
#      x y z
#    x 1.680110 0.000000 0.000000 
#    y 0.000000 1.680110 0.000000 
#    z 0.000000 0.000000 1.700340 
# 
# From -- ./inp_files/4525.got.cif
#   From: 2010.03.12/outbox.cif.g09.slc.cpg/sg187_3_cif.got.tgz:4525.got - 2010.04.01 11:58:23.
