data_PCOD8327766
_publ_section_title
;
Structure prediction by ZEFSAII (Michael W. Deem and Ramdas Pophale) SiO2 
 PCOD8327766
Probable space group: P -6 2 M
;
_chemical_formula_sum "Si O2"
_cell_formula_units_Z 72
_cell_length_a 23.326592
_cell_length_b 23.326592
_cell_length_c 9.066449
_cell_angle_alpha 90.000000
_cell_angle_beta 90.000000
_cell_angle_gamma 120.000000
_cell_volume 4272.385586
_symmetry_space_group_name_H-M "P -6 2 M"
_symmetry_group_IT_number 189
_symmetry_cell_setting 'hexagonal'
loop_
_space_group_symop_operation_xyz
x,y,z
-x+y,-x,-z
-y,x-y,z
x,y,-z
-x+y,-x,z
-y,x-y,-z
x-y,-y,-z
-x,-x+y,-z
y,x,-z
y,x,z
x-y,-y,z
-x,-x+y,z
loop_
_atom_site_type_symbol
_atom_site_label
_atom_site_fract_x
_atom_site_fract_y
_atom_site_fract_z
Si Si1 0.924790 0.266024 0.829031
Si Si2 0.598094 0.131668 0.327683
Si Si3 0.524627 0.674530 0.327609
Si Si4 0.408124 0.408124 0.674872
Si Si5 0.670579 0.868734 0.829558
Si Si6 0.000000 0.721810 0.674458
Si Si7 0.788573 0.518092 0.827129
O O1 0.907944 0.313694 0.734166
O O2 0.875993 0.189168 0.787199
O O3 0.000000 0.284488 0.796587
O O4 0.913765 0.276726 0.000000
O O5 0.615891 0.141624 0.500000
O O6 0.529922 0.129357 0.294403
O O7 0.658209 0.190830 0.239887
O O8 0.590557 0.063800 0.265171
O O9 0.532347 0.690914 0.500000
O O10 0.500844 0.719745 0.246795
O O11 0.408398 0.408398 0.500000
O O12 0.343313 0.343313 0.734038
O O13 0.593975 0.843407 0.790695
O O14 0.718841 0.933633 0.735162
O O15 0.685241 0.888007 0.000000
O O16 0.000000 0.726483 0.500000
O O17 0.776987 0.506244 0.000000
#
# Coordination Sequence:
#
# PCOD8327766 Si02
#       7
#    12  12  12   6  12   6  12
#     4   9  19  36  55  75 103 137 171 208 250 293
#     4  10  20  35  53  73  99 129 166 211 258 308
#     4  10  21  34  53  75  98 130 170 213 258 310
#     4   9  18  31  49  73 101 129 159 202 253 300
#     4   9  18  32  50  73 102 132 162 199 244 295
#     4  11  19  29  51  77 103 135 163 198 243 294
#     4  10  20  35  53  70  95 128 166 211 259 306
#
# _framework density 16.852412000000001
#
# number of rings (size 3 to 8) (size 9 to 14) (size 15 to 20)
#    0.000    2.333    1.667    2.250    1.167    4.333 
#    1.000    0.417    0.000    0.000    0.000    0.000 
#    0.833    0.000    1.500    0.000    0.500    0.000 
#
# Total GULP energy -892905.854504 kJ/mol
# GULP energy per Si atom -12401.470201 kJ/mol
# Density = 1.681405 g / cm^3
# Si number density = 16.852412 Si / 1000 Ang^3
#
#
#
# Elastic Constant Matrix: (Units=GPa)
#
#
# Indices 1 2 3 4 5 6 
#
# 1 101.9492 57.8248 47.5656 0.0000 0.0000 0.0000
# 2 57.8248 101.9492 47.5656 0.0000 0.0000 0.0000
# 3 47.5656 47.5656 73.0104 0.0000 0.0000 0.0000
# 4 0.0000 0.0000 0.0000 25.7087 0.0000 0.0000
# 5 0.0000 0.0000 0.0000 0.0000 25.7087 0.0000
# 6 0.0000 0.0000 0.0000 0.0000 0.0000 22.0622
#
#
#
# Elastic Compliance Matrix: (Units=1/GPa)
#
#
# Indices 1 2 3 4 5 6 
#
# 1 0.016444 -0.006219 -0.006662 0.000000 0.000000 0.000000
# 2 -0.006219 0.016444 -0.006662 0.000000 0.000000 0.000000
# 3 -0.006662 -0.006662 0.022377 0.000000 0.000000 0.000000
# 4 0.000000 0.000000 0.000000 0.038897 0.000000 0.000000
# 5 0.000000 0.000000 0.000000 0.000000 0.038897 0.000000
# 6 0.000000 0.000000 0.000000 0.000000 0.000000 0.045326
#
#
# Mechanical properties :
#
#
# Convention : Reuss Voigt Hill
#
# Bulk Modulus (GPa) = 61.80248 64.75785 63.28017
# Shear Modulus (GPa) = 22.43517 22.95944 22.69730
#
# Velocity S-wave (km/s) = 3.65262 3.69505 3.67390
# Velocity P-wave (km/s) = 7.38520 7.53090 7.45841
#
# Compressibility (1/GPa) = 0.01618058
#
# Stress axis : x y z
#
# Youngs Moduli (GPa) = 60.81164 60.81164 44.68938
#
# Poissons Ratio (x) = 0.37819 0.29771
# Poissons Ratio (y) = 0.37819 0.29771
# Poissons Ratio (z) = 0.40511 0.40511
#
# Static dielectric constant tensor:
#      x y z
#    x 3.111050 0.000000 0.000000 
#    y 0.000000 3.111050 0.000000 
#    z 0.000000 0.000000 3.094900 
# 
# 
# High freq. dielectric constant tensor:
#      x y z
#    x 1.637160 0.000000 0.000000 
#    y 0.000000 1.637160 0.000000 
#    z 0.000000 0.000000 1.650190 
# 
# From -- ./inp_files/1339.got.cif
#   From: 2010.03.12/outbox.cif.g09.slc.cpg/sg189_1_cif.got.tgz:1339.got - 2010.04.01 12:03:36.
