data_PCOD8327352
_publ_section_title
;
Structure prediction by ZEFSAII (Michael W. Deem and Ramdas Pophale) SiO2 
 PCOD8327352
Probable space group: P -6 C 2
;
_chemical_formula_sum "Si O2"
_cell_formula_units_Z 96
_cell_length_a 18.348001
_cell_length_b 18.348001
_cell_length_c 18.939142
_cell_angle_alpha 90.000000
_cell_angle_beta 90.000000
_cell_angle_gamma 120.000000
_cell_volume 5521.644503
_symmetry_space_group_name_H-M "P -6 C 2"
_symmetry_group_IT_number 188
_symmetry_cell_setting 'hexagonal'
loop_
_space_group_symop_operation_xyz
x,y,z
-x+y,-x,1/2-z
-y,x-y,z
x,y,1/2-z
-x+y,-x,z
-y,x-y,1/2-z
-y,-x,-z
-x+y,y,-z
x,x-y,-z
-x+y,y,1/2+z
x,x-y,1/2+z
-y,-x,1/2+z
loop_
_atom_site_type_symbol
_atom_site_label
_atom_site_fract_x
_atom_site_fract_y
_atom_site_fract_z
Si Si1 0.539456 0.622691 0.332282
Si Si2 0.190315 0.380630 0.166043
Si Si3 0.095126 0.190253 0.666339
Si Si4 0.371121 0.185561 0.917984
Si Si5 0.901671 0.098328 0.834229
Si Si6 0.460311 0.377559 0.419358
Si Si7 0.377309 0.916764 0.667718
Si Si8 0.460311 0.377559 0.919358
O O1 0.559994 0.626507 0.250000
O O2 0.567129 0.714612 0.362287
O O3 0.440289 0.559712 0.347220
O O4 0.595881 0.592018 0.370207
O O5 0.188644 0.377288 0.250000
O O6 0.142703 0.285404 0.135834
O O7 0.285389 0.432873 0.137714
O O8 0.095761 0.191523 0.750000
O O9 0.144003 0.142591 0.640114
O O10 0.998587 0.142591 0.640114
O O11 0.287455 0.143728 0.870909
O O12 0.431793 0.149014 0.898857
O O13 0.431795 0.282780 0.898857
O O14 0.343863 0.171932 0.000000
O O15 0.894975 0.105024 0.750000
O O16 0.407982 0.404120 0.370207
O O17 0.437171 0.384101 0.500000
O O18 0.560717 0.439282 0.406703
O O19 0.373495 0.933488 0.750000
#
# Coordination Sequence:
#
# PCOD8327352 Si02
#       8
#    12  12  12  12  12  12  12  12
#     4   9  17  30  48  69  92 121 156 192 232 280
#     4   9  16  27  43  67  95 119 146 188 232 271
#     4   9  17  28  45  69  95 121 157 196 228 270
#     4  10  20  33  49  73  99 123 158 202 244 292
#     4  10  19  32  51  73  97 131 167 200 238 281
#     4   9  18  33  50  68  93 124 155 193 240 286
#     4   9  17  30  48  69  92 121 156 192 232 280
#     4   9  18  33  50  68  93 124 155 193 240 286
#
# _framework density 17.386123999999999
#
# number of rings (size 3 to 8) (size 9 to 14) (size 15 to 20)
#    0.000    2.750    0.000    1.750    0.000    4.000 
#    1.500    1.250    0.000    4.500    0.000    0.000 
#    0.000    0.000    0.000    0.000    0.000    0.000 
#
# Total GULP energy -1190023.100729 kJ/mol
# GULP energy per Si atom -12396.073966 kJ/mol
# Density = 1.734655 g / cm^3
# Si number density = 17.386124 Si / 1000 Ang^3
#
#
#
# Elastic Constant Matrix: (Units=GPa)
#
#
# Indices 1 2 3 4 5 6 
#
# 1 158.8333 109.4557 38.0586 0.0000 0.0000 0.0000
# 2 109.4557 158.8333 38.0586 0.0000 0.0000 0.0000
# 3 38.0586 38.0586 29.9083 0.0000 0.0000 0.0000
# 4 0.0000 0.0000 0.0000 19.5266 0.0000 0.0000
# 5 0.0000 0.0000 0.0000 0.0000 19.5266 0.0000
# 6 0.0000 0.0000 0.0000 0.0000 0.0000 24.6888
#
#
#
# Elastic Compliance Matrix: (Units=1/GPa)
#
#
# Indices 1 2 3 4 5 6 
#
# 1 0.013043 -0.007209 -0.007423 0.000000 0.000000 0.000000
# 2 -0.007209 0.013043 -0.007423 0.000000 0.000000 0.000000
# 3 -0.007423 -0.007423 0.052327 0.000000 0.000000 0.000000
# 4 0.000000 0.000000 0.000000 0.051212 0.000000 0.000000
# 5 0.000000 0.000000 0.000000 0.000000 0.051212 0.000000
# 6 0.000000 0.000000 0.000000 0.000000 0.000000 0.040504
#
#
# Mechanical properties :
#
#
# Convention : Reuss Voigt Hill
#
# Bulk Modulus (GPa) = 29.15293 79.85784 54.50538
# Shear Modulus (GPa) = 18.05803 23.54856 20.80329
#
# Velocity S-wave (km/s) = 3.22630 3.68427 3.46286
# Velocity P-wave (km/s) = 5.53922 8.00813 6.88524
#
# Compressibility (1/GPa) = 0.03430187
#
# Stress axis : x y z
#
# Youngs Moduli (GPa) = 76.67128 76.67128 19.11061
#
# Poissons Ratio (x) = 0.55275 0.14186
# Poissons Ratio (y) = 0.55275 0.14186
# Poissons Ratio (z) = 0.56913 0.56913
#
# Static dielectric constant tensor:
#      x y z
#    x 3.482080 0.000000 0.000000 
#    y 0.000000 3.482080 0.000000 
#    z 0.000000 0.000000 2.991370 
# 
# 
# High freq. dielectric constant tensor:
#      x y z
#    x 1.679130 0.000000 0.000000 
#    y 0.000000 1.679130 0.000000 
#    z 0.000000 0.000000 1.641400 
# 
# From -- ./inp_files/3876.got.cif
#   From: 2010.03.12/outbox.cif.g09.slc.cpg/sg188_2_cif.got.tgz:3876.got - 2010.04.01 12:01:06.
