data_PCOD8327236
_publ_section_title
;
Structure prediction by ZEFSAII (Michael W. Deem and Ramdas Pophale) SiO2 
 PCOD8327236
Probable space group: P -6 M 2
;
_chemical_formula_sum "Si O2"
_cell_formula_units_Z 84
_cell_length_a 17.314170
_cell_length_b 17.314170
_cell_length_c 14.801964
_cell_angle_alpha 90.000000
_cell_angle_beta 90.000000
_cell_angle_gamma 120.000000
_cell_volume 3842.849091
_symmetry_space_group_name_H-M "P -6 M 2"
_symmetry_group_IT_number 187
_symmetry_cell_setting 'hexagonal'
loop_
_space_group_symop_operation_xyz
x,y,z
-x+y,-x,-z
-y,x-y,z
x,y,-z
-x+y,-x,z
-y,x-y,-z
-y,-x,-z
-x+y,y,-z
x,x-y,-z
-x+y,y,z
x,x-y,z
-y,-x,z
loop_
_atom_site_type_symbol
_atom_site_label
_atom_site_fract_x
_atom_site_fract_y
_atom_site_fract_z
Si Si1 0.490950 0.154807 0.766777
Si Si2 0.508337 0.666947 0.860839
Si Si3 0.958011 0.358645 0.401340
Si Si4 0.979923 0.658801 0.101653
Si Si5 0.158229 0.491355 0.352547
Si Si6 0.218710 0.021224 0.403081
Si Si7 0.821904 0.826340 0.208577
O O1 0.589483 0.178965 0.799257
O O2 0.488881 0.244441 0.745208
O O3 0.470833 0.094576 0.677012
O O4 0.421541 0.100542 0.845357
O O5 0.520477 0.760239 0.897142
O O6 0.411481 0.588520 0.891069
O O7 0.581347 0.647290 0.903866
O O8 0.518831 0.669617 0.754158
O O9 0.930747 0.378563 0.500000
O O10 0.930506 0.255700 0.394561
O O11 0.064856 0.417783 0.393476
O O12 0.007903 0.751611 0.149681
O O13 0.946700 0.659211 0.000000
O O14 0.238495 0.476990 0.388706
O O15 0.178858 0.589429 0.382036
O O16 0.187816 0.967587 0.500000
O O17 0.189144 0.094572 0.406007
O O18 0.177194 0.964857 0.311961
O O19 0.906470 0.812940 0.203084
O O20 0.845384 0.922692 0.169618
#
# Coordination Sequence:
#
# PCOD8327236 Si02
#       7
#    12  12  12  12  12  12  12
#     4  12  26  47  72 100 131 165 207 263 330 397
#     4  10  20  37  63  97 135 173 215 265 321 379
#     4  11  22  38  65  97 131 171 217 264 314 377
#     4  12  26  45  70  96 126 169 221 272 323 387
#     4  10  20  36  58  88 128 176 225 271 316 367
#     4   9  18  35  61  93 128 166 209 259 316 378
#     4  11  23  41  65  96 132 172 219 274 334 393
#
# _framework density 21.858782000000001
#
# number of rings (size 3 to 8) (size 9 to 14) (size 15 to 20)
#    0.000    1.286    2.857    2.714    0.000    8.857 
#    0.000    1.429    0.000    5.143    0.000    0.000 
#    0.000    0.000    0.000    0.000    0.000    0.000 
#
# Total GULP energy -1041271.917647 kJ/mol
# GULP energy per Si atom -12396.094258 kJ/mol
# Density = 2.180903 g / cm^3
# Si number density = 21.858782 Si / 1000 Ang^3
#
#
#
# Elastic Constant Matrix: (Units=GPa)
#
#
# Indices 1 2 3 4 5 6 
#
# 1 99.1096 30.3762 36.7394 0.0000 0.0069 0.0000
# 2 30.3762 99.1096 36.7394 0.0000 -0.0069 0.0000
# 3 36.7394 36.7394 133.4334 0.0000 0.0000 0.0000
# 4 0.0000 0.0000 0.0000 126.1292 0.0000 -0.0069
# 5 0.0069 -0.0069 0.0000 0.0000 126.1292 0.0000
# 6 0.0000 0.0000 0.0000 -0.0069 0.0000 34.3667
#
#
#
# Elastic Compliance Matrix: (Units=1/GPa)
#
#
# Indices 1 2 3 4 5 6 
#
# 1 0.011851 -0.002698 -0.002520 0.000000 -0.000001 0.000000
# 2 -0.002698 0.011851 -0.002520 0.000000 0.000001 0.000000
# 3 -0.002520 -0.002520 0.008882 0.000000 0.000000 0.000000
# 4 0.000000 0.000000 0.000000 0.007928 0.000000 0.000002
# 5 -0.000001 0.000001 0.000000 0.000000 0.007928 0.000000
# 6 0.000000 0.000000 0.000000 0.000002 0.000000 0.029098
#
#
# Mechanical properties :
#
#
# Convention : Reuss Voigt Hill
#
# Bulk Modulus (GPa) = 58.45414 59.92920 59.19167
# Shear Modulus (GPa) = 50.64934 72.51152 61.58043
#
# Velocity S-wave (km/s) = 4.81887 5.76582 5.31348
# Velocity P-wave (km/s) = 7.60011 8.47363 8.04873
#
# Compressibility (1/GPa) = 0.01710743
#
# Stress axis : x y z
#
# Youngs Moduli (GPa) = 84.38131 84.38131 112.58504
#
# Poissons Ratio (x) = 0.22766 0.28373
# Poissons Ratio (y) = 0.22766 0.28373
# Poissons Ratio (z) = 0.21265 0.21265
#
# Static dielectric constant tensor:
#      x y z
#    x 3.860660 0.000000 0.000000 
#    y 0.000000 3.860660 0.000000 
#    z 0.000000 0.000000 4.106620 
# 
# 
# High freq. dielectric constant tensor:
#      x y z
#    x 1.857020 0.000000 0.000000 
#    y 0.000000 1.857020 0.000000 
#    z 0.000000 0.000000 1.860450 
# 
# From -- ./inp_files/2621.got.cif
#   From: 2010.03.12/outbox.cif.g09.slc.cpg/sg187_2_cif.got.tgz:2621.got - 2010.04.01 11:58:23.
