data_PCOD8327480
_publ_section_title
;
Structure prediction by ZEFSAII (Michael W. Deem and Ramdas Pophale) SiO2 
 PCOD8327480
Probable space group: P -6 2 M
;
_chemical_formula_sum "Si O2"
_cell_formula_units_Z 40
_cell_length_a 19.012664
_cell_length_b 19.012664
_cell_length_c 9.209099
_cell_angle_alpha 90.000000
_cell_angle_beta 90.000000
_cell_angle_gamma 120.000000
_cell_volume 2882.927494
_symmetry_space_group_name_H-M "P -6 2 M"
_symmetry_group_IT_number 189
_symmetry_cell_setting 'hexagonal'
loop_
_space_group_symop_operation_xyz
x,y,z
-x+y,-x,-z
-y,x-y,z
x,y,-z
-x+y,-x,z
-y,x-y,-z
x-y,-y,-z
-x,-x+y,-z
y,x,-z
y,x,z
x-y,-y,z
-x,-x+y,z
loop_
_atom_site_type_symbol
_atom_site_label
_atom_site_fract_x
_atom_site_fract_y
_atom_site_fract_z
Si Si1 0.233793 0.750722 0.330500
Si Si2 0.666668 0.333335 0.328516
Si Si3 0.092807 0.622966 0.169225
Si Si4 0.908846 0.386975 0.667724
O O1 0.212244 0.736071 0.500000
O O2 0.281523 0.706330 0.272306
O O3 0.149706 0.711652 0.240856
O O4 0.292214 0.846733 0.295914
O O5 0.666667 0.333334 0.500000
O O6 0.112152 0.557068 0.238992
O O7 0.000000 0.598578 0.199523
O O8 0.111489 0.627001 0.000000
O O9 0.897769 0.404024 0.500000
O O10 0.000000 0.405308 0.699789
#
# Coordination Sequence:
#
# PCOD8327480 Si02
#       4
#    12   4  12  12
#     4  10  17  28  43  57  77 104 135 169 200 235
#     4   9  15  24  37  59  79  96 130 170 196 225
#     4  10  20  30  39  56  81 105 132 167 203 237
#     4   9  17  29  44  60  78 102 132 166 203 240
#
# _framework density 13.874786
#
# number of rings (size 3 to 8) (size 9 to 14) (size 15 to 20)
#    0.000    2.400    3.000    0.900    0.000    3.000 
#    0.000    0.000    0.000    0.000    0.000    0.000 
#    0.000    0.000    0.000    0.900    0.000   13.800 
#
# Total GULP energy -495836.699082 kJ/mol
# GULP energy per Si atom -12395.917477 kJ/mol
# Density = 1.384321 g / cm^3
# Si number density = 13.874786 Si / 1000 Ang^3
#
#
#
# Elastic Constant Matrix: (Units=GPa)
#
#
# Indices 1 2 3 4 5 6 
#
# 1 86.5415 42.1974 41.8752 0.0000 0.0000 0.0000
# 2 42.1974 86.5422 41.8749 0.0000 0.0000 0.0000
# 3 41.8752 41.8749 64.0115 0.0000 0.0000 -0.0001
# 4 0.0000 0.0000 0.0000 16.5986 -0.0001 0.0000
# 5 0.0000 0.0000 0.0000 -0.0001 16.5986 0.0000
# 6 0.0000 0.0000 -0.0001 0.0000 0.0000 22.1720
#
#
#
# Elastic Compliance Matrix: (Units=1/GPa)
#
#
# Indices 1 2 3 4 5 6 
#
# 1 0.018037 -0.004514 -0.008846 0.000000 0.000000 0.000000
# 2 -0.004514 0.018036 -0.008846 0.000000 0.000000 0.000000
# 3 -0.008846 -0.008846 0.027196 0.000000 0.000000 0.000000
# 4 0.000000 0.000000 0.000000 0.060246 0.000000 0.000000
# 5 0.000000 0.000000 0.000000 0.000000 0.060246 0.000000
# 6 0.000000 0.000000 0.000000 0.000000 0.000000 0.045102
#
#
# Mechanical properties :
#
#
# Convention : Reuss Voigt Hill
#
# Bulk Modulus (GPa) = 53.03209 54.33224 53.68216
# Shear Modulus (GPa) = 17.88516 18.48368 18.18442
#
# Velocity S-wave (km/s) = 3.59422 3.65386 3.62416
# Velocity P-wave (km/s) = 7.45181 7.55281 7.50248
#
# Compressibility (1/GPa) = 0.01885651
#
# Stress axis : x y z
#
# Youngs Moduli (GPa) = 55.44246 55.44344 36.77014
#
# Poissons Ratio (x) = 0.25028 0.32528
# Poissons Ratio (y) = 0.25028 0.32526
# Poissons Ratio (z) = 0.49045 0.49045
#
# Static dielectric constant tensor:
#      x y z
#    x 2.744050 0.000000 0.000000 
#    y 0.000000 2.744040 0.000000 
#    z 0.000000 0.000000 2.709830 
# 
# 
# High freq. dielectric constant tensor:
#      x y z
#    x 1.505230 0.000000 0.000000 
#    y 0.000000 1.505230 0.000000 
#    z 0.000000 0.000000 1.526730 
# 
# From -- ./inp_files/455.got.cif
#   From: 2010.03.12/outbox.cif.g09.slc.cpg/sg189_1_cif.got.tgz:455.got - 2010.04.01 12:03:36.
