data_PCOD8327686
_publ_section_title
;
Structure prediction by ZEFSAII (Michael W. Deem and Ramdas Pophale) SiO2 
 PCOD8327686
Probable space group: P -6 2 M
;
_chemical_formula_sum "Si O2"
_cell_formula_units_Z 48
_cell_length_a 17.996091
_cell_length_b 17.996091
_cell_length_c 8.619881
_cell_angle_alpha 90.000000
_cell_angle_beta 90.000000
_cell_angle_gamma 120.000000
_cell_volume 2417.621244
_symmetry_space_group_name_H-M "P -6 2 M"
_symmetry_group_IT_number 189
_symmetry_cell_setting 'hexagonal'
loop_
_space_group_symop_operation_xyz
x,y,z
-x+y,-x,-z
-y,x-y,z
x,y,-z
-x+y,-x,z
-y,x-y,-z
x-y,-y,-z
-x,-x+y,-z
y,x,-z
y,x,z
x-y,-y,z
-x,-x+y,z
loop_
_atom_site_type_symbol
_atom_site_label
_atom_site_fract_x
_atom_site_fract_y
_atom_site_fract_z
Si Si1 0.000000 0.789885 0.815942
Si Si2 0.803726 0.275218 0.183251
Si Si3 0.158333 0.612951 0.182892
Si Si4 0.622572 0.000000 0.814613
Si Si5 0.181886 0.901391 0.682759
O O1 0.000000 0.705906 0.752224
O O2 0.087611 0.870650 0.753626
O O3 0.000000 0.795336 0.000000
O O4 0.703998 0.240291 0.224230
O O5 0.844384 0.371980 0.249335
O O6 0.844459 0.223132 0.261487
O O7 0.815994 0.269621 0.000000
O O8 0.080220 0.619387 0.255169
O O9 0.149477 0.600159 0.000000
O O10 0.624108 0.000000 0.000000
O O11 0.171847 0.893164 0.500000
O O12 0.243873 0.000000 0.734390
#
# Coordination Sequence:
#
# PCOD8327686 Si02
#       5
#     6  12  12   6  12
#     4  11  21  41  71  93 112 145 202 259 305 366
#     4  10  19  34  59  87 119 161 207 252 296 346
#     4   9  17  29  50  84 118 148 191 248 298 333
#     4   9  16  29  51  85 116 139 180 245 299 336
#     4  11  25  43  61  86 124 162 195 242 309 376
#
# _framework density 19.854227000000002
#
# number of rings (size 3 to 8) (size 9 to 14) (size 15 to 20)
#    0.000    2.000    2.500    1.625    1.750    4.000 
#    0.750    1.250    0.000    0.000    0.000    0.000 
#    0.000    0.000    0.000    0.000    0.000    0.000 
#
# Total GULP energy -594803.258651 kJ/mol
# GULP energy per Si atom -12391.734555 kJ/mol
# Density = 1.980904 g / cm^3
# Si number density = 19.854227 Si / 1000 Ang^3
#
#
#
# Elastic Constant Matrix: (Units=GPa)
#
#
# Indices 1 2 3 4 5 6 
#
# 1 111.3253 38.8734 30.8268 0.0000 0.0000 0.0000
# 2 38.8734 111.3253 30.8268 0.0000 0.0000 0.0000
# 3 30.8268 30.8268 49.9637 0.0000 0.0000 0.0000
# 4 0.0000 0.0000 0.0000 20.0307 0.0000 0.0000
# 5 0.0000 0.0000 0.0000 0.0000 20.0307 0.0000
# 6 0.0000 0.0000 0.0000 0.0000 0.0000 36.2259
#
#
#
# Elastic Compliance Matrix: (Units=1/GPa)
#
#
# Indices 1 2 3 4 5 6 
#
# 1 0.011359 -0.002443 -0.005501 0.000000 0.000000 0.000000
# 2 -0.002443 0.011359 -0.005501 0.000000 0.000000 0.000000
# 3 -0.005501 -0.005501 0.026803 0.000000 0.000000 0.000000
# 4 0.000000 0.000000 0.000000 0.049923 0.000000 0.000000
# 5 0.000000 0.000000 0.000000 0.000000 0.049923 0.000000
# 6 0.000000 0.000000 0.000000 0.000000 0.000000 0.027605
#
#
# Mechanical properties :
#
#
# Convention : Reuss Voigt Hill
#
# Bulk Modulus (GPa) = 44.18821 52.62982 48.40902
# Shear Modulus (GPa) = 23.65123 26.72996 25.19059
#
# Velocity S-wave (km/s) = 3.45518 3.67319 3.56585
# Velocity P-wave (km/s) = 6.18242 6.67499 6.43342
#
# Compressibility (1/GPa) = 0.02263047
#
# Stress axis : x y z
#
# Youngs Moduli (GPa) = 88.03534 88.03534 37.30992
#
# Poissons Ratio (x) = 0.21509 0.20524
# Poissons Ratio (y) = 0.21509 0.20524
# Poissons Ratio (z) = 0.48428 0.48428
#
# Static dielectric constant tensor:
#      x y z
#    x 3.877380 0.000000 0.000000 
#    y 0.000000 3.877380 0.000000 
#    z 0.000000 0.000000 3.171920 
# 
# 
# High freq. dielectric constant tensor:
#      x y z
#    x 1.785690 0.000000 0.000000 
#    y 0.000000 1.785690 0.000000 
#    z 0.000000 0.000000 1.729450 
# 
# From -- ./inp_files/650.got.cif
#   From: 2010.03.12/outbox.cif.g09.slc.cpg/sg189_1_cif.got.tgz:650.got - 2010.04.01 12:03:36.
