data_PCOD8327410
_publ_section_title
;
Structure prediction by ZEFSAII (Michael W. Deem and Ramdas Pophale) SiO2 
 PCOD8327410
Probable space group: P -6 C 2
;
_chemical_formula_sum "Si O2"
_cell_formula_units_Z 70
_cell_length_a 15.885329
_cell_length_b 15.885329
_cell_length_c 15.662493
_cell_angle_alpha 90.000000
_cell_angle_beta 90.000000
_cell_angle_gamma 120.000000
_cell_volume 3422.819121
_symmetry_space_group_name_H-M "P -6 C 2"
_symmetry_group_IT_number 188
_symmetry_cell_setting 'hexagonal'
loop_
_space_group_symop_operation_xyz
x,y,z
-x+y,-x,1/2-z
-y,x-y,z
x,y,1/2-z
-x+y,-x,z
-y,x-y,1/2-z
-y,-x,-z
-x+y,y,-z
x,x-y,-z
-x+y,y,1/2+z
x,x-y,1/2+z
-y,-x,1/2+z
loop_
_atom_site_type_symbol
_atom_site_label
_atom_site_fract_x
_atom_site_fract_y
_atom_site_fract_z
Si Si1 0.759504 0.579215 0.098147
Si Si2 0.451874 0.551673 0.750000
Si Si3 0.205360 0.146174 0.912409
Si Si4 0.220655 0.439895 0.750000
Si Si5 0.746729 0.290980 0.750000
Si Si6 0.554374 0.005852 0.586992
Si Si7 0.000000 0.000000 0.152203
Si Si8 0.653721 0.776170 0.418003
O O1 0.812845 0.690569 0.135187
O O2 0.789456 0.520216 0.163797
O O3 0.643540 0.530799 0.104779
O O4 0.785024 0.570048 0.000000
O O5 0.336407 0.505253 0.750000
O O6 0.494144 0.665885 0.750000
O O7 0.489547 0.520086 0.833332
O O8 0.112335 0.051983 0.874935
O O9 0.178896 0.230657 0.920051
O O10 0.228725 0.114363 0.000000
O O11 0.184552 0.371062 0.667239
O O12 0.628070 0.224085 0.750000
O O13 0.502368 0.004735 0.500000
O O14 0.595911 0.934202 0.576214
O O15 0.000000 0.000000 0.250000
O O16 0.619136 0.809568 0.500000
#
# Coordination Sequence:
#
# PCOD8327410 Si02
#       8
#    12   6  12   6   6  12   4  12
#     4  10  23  42  66  90 124 163 203 254 314 365
#     4  10  20  38  54  88 118 162 207 255 310 360
#     4  10  22  42  64  87 123 165 201 252 308 367
#     4  10  21  34  60  82 120 162 208 257 304 374
#     4  10  25  40  64  94 118 162 201 254 304 366
#     4  10  21  35  60  85 120 159 201 255 310 367
#     4  12  25  35  64  96 121 164 205 252 301 377
#     4  10  20  36  59  85 120 162 201 253 310 360
#
# _framework density 20.450979
#
# number of rings (size 3 to 8) (size 9 to 14) (size 15 to 20)
#    0.171    1.714    0.000    3.257    4.800    1.371 
#    0.000    0.000    0.000    5.486    0.000    0.000 
#    0.000    0.000    0.000    0.000    0.000    0.000 
#
# Total GULP energy -867630.050113 kJ/mol
# GULP energy per Si atom -12394.715002 kJ/mol
# Density = 2.040443 g / cm^3
# Si number density = 20.450979 Si / 1000 Ang^3
#
#
#
# Elastic Constant Matrix: (Units=GPa)
#
#
# Indices 1 2 3 4 5 6 
#
# 1 79.6277 13.7536 35.3501 0.0003 0.0000 0.0000
# 2 13.7536 79.6277 35.3501 -0.0003 0.0000 0.0000
# 3 35.3501 35.3501 129.7762 0.0000 0.0000 0.0000
# 4 0.0003 -0.0003 0.0000 23.9601 0.0000 0.0000
# 5 0.0000 0.0000 0.0000 0.0000 23.9601 0.0003
# 6 0.0000 0.0000 0.0000 0.0000 0.0003 32.9371
#
#
#
# Elastic Compliance Matrix: (Units=1/GPa)
#
#
# Indices 1 2 3 4 5 6 
#
# 1 0.014336 -0.000845 -0.003675 0.000000 0.000000 0.000000
# 2 -0.000845 0.014336 -0.003675 0.000000 0.000000 0.000000
# 3 -0.003675 -0.003675 0.009708 0.000000 0.000000 0.000000
# 4 0.000000 0.000000 0.000000 0.041736 0.000000 0.000000
# 5 0.000000 0.000000 0.000000 0.000000 0.041736 0.000000
# 6 0.000000 0.000000 0.000000 0.000000 0.000000 0.030361
#
#
# Mechanical properties :
#
#
# Convention : Reuss Voigt Hill
#
# Bulk Modulus (GPa) = 45.47467 50.88212 48.17840
# Shear Modulus (GPa) = 28.42021 29.80998 29.11509
#
# Velocity S-wave (km/s) = 3.73188 3.82203 3.77723
# Velocity P-wave (km/s) = 6.39167 6.66418 6.52935
#
# Compressibility (1/GPa) = 0.02199026
#
# Stress axis : x y z
#
# Youngs Moduli (GPa) = 69.75557 69.75557 103.01223
#
# Poissons Ratio (x) = 0.05892 0.37856
# Poissons Ratio (y) = 0.05892 0.37856
# Poissons Ratio (z) = 0.25634 0.25634
#
# Static dielectric constant tensor:
#      x y z
#    x 3.614190 0.000000 0.000000 
#    y 0.000000 3.614190 0.000000 
#    z 0.000000 0.000000 3.911480 
# 
# 
# High freq. dielectric constant tensor:
#      x y z
#    x 1.801360 0.000000 0.000000 
#    y 0.000000 1.801360 0.000000 
#    z 0.000000 0.000000 1.804450 
# 
# From -- ./inp_files/3262.got.cif
#   From: 2010.03.12/outbox.cif.g09.slc.cpg/sg188_2_cif.got.tgz:3262.got - 2010.04.01 12:01:06.
