data_PCOD8327694
_publ_section_title
;
Structure prediction by ZEFSAII (Michael W. Deem and Ramdas Pophale) SiO2 
 PCOD8327694
Probable space group: P -6 2 M
;
_chemical_formula_sum "Si O2"
_cell_formula_units_Z 72
_cell_length_a 24.118032
_cell_length_b 24.118032
_cell_length_c 8.819830
_cell_angle_alpha 90.000000
_cell_angle_beta 90.000000
_cell_angle_gamma 120.000000
_cell_volume 4442.982269
_symmetry_space_group_name_H-M "P -6 2 M"
_symmetry_group_IT_number 189
_symmetry_cell_setting 'hexagonal'
loop_
_space_group_symop_operation_xyz
x,y,z
-x+y,-x,-z
-y,x-y,z
x,y,-z
-x+y,-x,z
-y,x-y,-z
x-y,-y,-z
-x,-x+y,-z
y,x,-z
y,x,z
x-y,-y,z
-x,-x+y,z
loop_
_atom_site_type_symbol
_atom_site_label
_atom_site_fract_x
_atom_site_fract_y
_atom_site_fract_z
Si Si1 0.073479 0.479149 0.177671
Si Si2 0.813300 0.408800 0.680546
Si Si3 0.526579 0.262539 0.678322
Si Si4 0.072313 0.142985 0.680484
Si Si5 0.593677 0.730898 0.320298
Si Si6 0.928211 0.192620 0.319845
O O1 0.117068 0.549774 0.247949
O O2 0.090845 0.428397 0.247453
O O3 0.000000 0.456388 0.216356
O O4 0.085780 0.482436 0.000000
O O5 0.821170 0.412457 0.500000
O O6 0.764061 0.336480 0.735260
O O7 0.785098 0.452638 0.745813
O O8 0.534173 0.270963 0.500000
O O9 0.453730 0.211330 0.725340
O O10 0.073541 0.141419 0.500000
O O11 0.119110 0.119110 0.748664
O O12 0.095427 0.215508 0.736773
O O13 0.000000 0.095661 0.737140
O O14 0.593081 0.721340 0.500000
O O15 0.664037 0.782271 0.258237
O O16 0.928529 0.193402 0.500000
O O17 0.000000 0.239700 0.259741
#
# Coordination Sequence:
#
# PCOD8327694 Si02
#       6
#    12  12  12  12  12  12
#     4  10  20  31  42  60  86 111 138 175 211 240
#     4   9  16  28  46  65  86 111 137 164 201 251
#     4   8  14  24  41  63  81 100 128 162 196 235
#     4   8  12  17  26  43  70 104 137 166 198 237
#     4   9  16  27  44  63  83 108 136 166 204 251
#     4   8  13  20  32  52  76 103 136 168 196 234
#
# _framework density 16.205331000000001
#
# number of rings (size 3 to 8) (size 9 to 14) (size 15 to 20)
#    0.000    3.333    0.000    3.500    0.000    4.000 
#    0.000    3.333    0.000    1.000    0.000    4.667 
#    0.000    0.667    0.000    0.500    0.000    5.333 
#
# Total GULP energy -892169.526052 kJ/mol
# GULP energy per Si atom -12391.243417 kJ/mol
# Density = 1.616845 g / cm^3
# Si number density = 16.205331 Si / 1000 Ang^3
#
#
#
# Elastic Constant Matrix: (Units=GPa)
#
#
# Indices 1 2 3 4 5 6 
#
# 1 146.9327 88.5232 22.5116 0.0000 0.0000 0.0000
# 2 88.5232 146.9327 22.5116 0.0000 0.0000 0.0000
# 3 22.5116 22.5116 22.8582 0.0000 0.0000 0.0000
# 4 0.0000 0.0000 0.0000 8.1034 0.0000 0.0000
# 5 0.0000 0.0000 0.0000 0.0000 8.1034 0.0000
# 6 0.0000 0.0000 0.0000 0.0000 0.0000 29.2047
#
#
#
# Elastic Compliance Matrix: (Units=1/GPa)
#
#
# Indices 1 2 3 4 5 6 
#
# 1 0.011176 -0.005944 -0.005153 0.000000 0.000000 0.000000
# 2 -0.005944 0.011176 -0.005153 0.000000 0.000000 0.000000
# 3 -0.005153 -0.005153 0.053898 0.000000 0.000000 0.000000
# 4 0.000000 0.000000 0.000000 0.123405 0.000000 0.000000
# 5 0.000000 0.000000 0.000000 0.000000 0.123405 0.000000
# 6 0.000000 0.000000 0.000000 0.000000 0.000000 0.034241
#
#
# Mechanical properties :
#
#
# Convention : Reuss Voigt Hill
#
# Bulk Modulus (GPa) = 22.85697 64.86846 43.86272
# Shear Modulus (GPa) = 12.36441 21.29411 16.82926
#
# Velocity S-wave (km/s) = 2.76521 3.62887 3.22608
# Velocity P-wave (km/s) = 4.93259 7.59436 6.40331
#
# Compressibility (1/GPa) = 0.04375033
#
# Stress axis : x y z
#
# Youngs Moduli (GPa) = 89.47365 89.47365 18.55364
#
# Poissons Ratio (x) = 0.53183 0.09561
# Poissons Ratio (y) = 0.53183 0.09561
# Poissons Ratio (z) = 0.46106 0.46106
#
# Static dielectric constant tensor:
#      x y z
#    x 3.324820 0.000000 0.000000 
#    y 0.000000 3.324820 0.000000 
#    z 0.000000 0.000000 2.601560 
# 
# 
# High freq. dielectric constant tensor:
#      x y z
#    x 1.618360 0.000000 0.000000 
#    y 0.000000 1.618360 0.000000 
#    z 0.000000 0.000000 1.575370 
# 
# From -- ./inp_files/1239.got.cif
#   From: 2010.03.12/outbox.cif.g09.slc.cpg/sg189_1_cif.got.tgz:1239.got - 2010.04.01 12:03:36.
