data_PCOD8327985
_publ_section_title
;
Structure prediction by ZEFSAII (Michael W. Deem and Ramdas Pophale) SiO2 
 PCOD8327985
Probable space group: P -6 2 C
;
_chemical_formula_sum "Si O2"
_cell_formula_units_Z 78
_cell_length_a 24.314723
_cell_length_b 24.314723
_cell_length_c 8.259851
_cell_angle_alpha 90.000000
_cell_angle_beta 90.000000
_cell_angle_gamma 120.000000
_cell_volume 4229.037123
_symmetry_space_group_name_H-M "P -6 2 C"
_symmetry_group_IT_number 190
_symmetry_cell_setting 'hexagonal'
loop_
_space_group_symop_operation_xyz
x,y,z
-x+y,-x,1/2-z
-y,x-y,z
x,y,1/2-z
-x+y,-x,z
-y,x-y,1/2-z
x-y,-y,-z
-x,-x+y,-z
y,x,-z
y,x,1/2+z
x-y,-y,1/2+z
-x,-x+y,1/2+z
loop_
_atom_site_type_symbol
_atom_site_label
_atom_site_fract_x
_atom_site_fract_y
_atom_site_fract_z
Si Si1 0.068466 0.711094 0.059413
Si Si2 0.379942 0.069048 0.936587
Si Si3 0.807487 0.624815 0.066500
Si Si4 0.068169 0.588059 0.441021
Si Si5 0.262599 0.524047 0.566361
Si Si6 0.477649 0.622524 0.443940
Si Si7 0.728015 0.409483 0.750000
O O1 0.069155 0.709473 0.250000
O O2 0.082550 0.656446 0.988769
O O3 0.120726 0.780822 0.999494
O O4 0.000000 0.697697 0.000000
O O5 0.384759 0.061696 0.750000
O O6 0.450841 0.096369 0.008836
O O7 0.353979 0.117513 0.971481
O O8 0.330106 0.000000 0.000000
O O9 0.807940 0.644668 0.250000
O O10 0.781179 0.550542 0.044831
O O11 0.068051 0.589788 0.250000
O O12 0.119923 0.569616 0.500749
O O13 0.000000 0.533100 0.500000
O O14 0.291000 0.545438 0.750000
O O15 0.211241 0.546295 0.536037
O O16 0.313611 0.552934 0.417161
O O17 0.478400 0.631267 0.250000
O O18 0.735425 0.347065 0.750000
#
# Coordination Sequence:
#
# PCOD8327985 Si02
#       7
#    12  12  12  12  12  12   6
#     4  10  20  34  52  75 103 135 173 217 264 320
#     4  10  19  31  51  77 107 140 174 213 258 317
#     4  10  21  36  55  78 103 136 175 219 261 319
#     4   9  18  30  45  69  97 127 162 205 256 312
#     4  10  21  37  56  76  98 127 175 215 264 329
#     4   9  17  31  50  72 102 135 168 208 265 320
#     4  10  24  40  54  70  94 132 162 226 268 320
#
# _framework density 18.443915000000001
#
# number of rings (size 3 to 8) (size 9 to 14) (size 15 to 20)
#    0.154    2.154    0.769    1.846    2.154    3.692 
#    0.000    1.538    0.000    0.000    0.000    0.000 
#    0.000    0.000    0.000    0.462    0.000    6.462 
#
# Total GULP energy -966766.920028 kJ/mol
# GULP energy per Si atom -12394.447693 kJ/mol
# Density = 1.840194 g / cm^3
# Si number density = 18.443915 Si / 1000 Ang^3
#
#
#
# Elastic Constant Matrix: (Units=GPa)
#
#
# Indices 1 2 3 4 5 6 
#
# 1 72.7609 11.4000 10.3427 0.0000 0.0000 0.0000
# 2 11.4000 72.7609 10.3427 0.0000 0.0000 0.0000
# 3 10.3427 10.3427 66.3566 0.0000 0.0000 0.0000
# 4 0.0000 0.0000 0.0000 24.6713 0.0000 0.0000
# 5 0.0000 0.0000 0.0000 0.0000 24.6713 0.0000
# 6 0.0000 0.0000 0.0000 0.0000 0.0000 30.6804
#
#
#
# Elastic Compliance Matrix: (Units=1/GPa)
#
#
# Indices 1 2 3 4 5 6 
#
# 1 0.014326 -0.001971 -0.001926 0.000000 0.000000 0.000000
# 2 -0.001971 0.014326 -0.001926 0.000000 0.000000 0.000000
# 3 -0.001926 -0.001926 0.015670 0.000000 0.000000 0.000000
# 4 0.000000 0.000000 0.000000 0.040533 0.000000 0.000000
# 5 0.000000 0.000000 0.000000 0.000000 0.040533 0.000000
# 6 0.000000 0.000000 0.000000 0.000000 0.000000 0.032594
#
#
# Mechanical properties :
#
#
# Convention : Reuss Voigt Hill
#
# Bulk Modulus (GPa) = 30.60165 30.67215 30.63690
# Shear Modulus (GPa) = 27.69775 27.99081 27.84428
#
# Velocity S-wave (km/s) = 3.87942 3.89989 3.88967
# Velocity P-wave (km/s) = 6.05758 6.07823 6.06791
#
# Compressibility (1/GPa) = 0.03267798
#
# Stress axis : x y z
#
# Youngs Moduli (GPa) = 69.80228 69.80228 63.81455
#
# Poissons Ratio (x) = 0.13757 0.12289
# Poissons Ratio (y) = 0.13757 0.12289
# Poissons Ratio (z) = 0.13442 0.13442
#
# Static dielectric constant tensor:
#      x y z
#    x 3.116260 0.000000 0.000000 
#    y 0.000000 3.116260 0.000000 
#    z 0.000000 0.000000 3.421030 
# 
# 
# High freq. dielectric constant tensor:
#      x y z
#    x 1.687520 0.000000 0.000000 
#    y 0.000000 1.687520 0.000000 
#    z 0.000000 0.000000 1.720870 
# 
# From -- ./inp_files/1332.got.cif
#   From: 2010.06.25/outbox.cif.g09.slc.cpg/sg190_1_cif.got.tgz:1332.got - 2010.06.28 13:08:06.
