data_PCOD8327016
_publ_section_title
;
Structure prediction by ZEFSAII (Michael W. Deem and Ramdas Pophale) SiO2 
 PCOD8327016
Probable space group: P -6 M 2
;
_chemical_formula_sum "Si O2"
_cell_formula_units_Z 66
_cell_length_a 12.883603
_cell_length_b 12.883603
_cell_length_c 28.432347
_cell_angle_alpha 90.000000
_cell_angle_beta 90.000000
_cell_angle_gamma 120.000000
_cell_volume 4087.125846
_symmetry_space_group_name_H-M "P -6 M 2"
_symmetry_group_IT_number 187
_symmetry_cell_setting 'hexagonal'
loop_
_space_group_symop_operation_xyz
x,y,z
-x+y,-x,-z
-y,x-y,z
x,y,-z
-x+y,-x,z
-y,x-y,-z
-y,-x,-z
-x+y,y,-z
x,x-y,-z
-x+y,y,z
x,x-y,z
-y,-x,z
loop_
_atom_site_type_symbol
_atom_site_label
_atom_site_fract_x
_atom_site_fract_y
_atom_site_fract_z
Si Si1 0.421338 0.089807 0.848220
Si Si2 0.094980 0.428421 0.686707
Si Si3 0.243591 0.244375 0.766681
Si Si4 0.094704 0.666534 0.579540
Si Si5 0.668922 0.095229 0.950311
Si Si6 0.424785 0.334533 0.500000
O O1 0.542530 0.085060 0.841840
O O2 0.452601 0.226301 0.840468
O O3 0.324212 0.003563 0.810613
O O4 0.360827 0.040265 0.900330
O O5 0.234180 0.468360 0.693008
O O6 0.079129 0.539565 0.701679
O O7 0.053935 0.388864 0.633147
O O8 0.010815 0.315831 0.719112
O O9 0.232006 0.116003 0.762817
O O10 0.112846 0.225692 0.774157
O O11 0.133357 0.566679 0.571932
O O12 0.206710 0.793291 0.565447
O O13 0.984494 0.641607 0.546412
O O14 0.539856 0.079712 0.952075
O O15 0.764403 0.235598 0.949272
O O16 0.686798 0.038989 0.000000
O O17 0.563273 0.436728 0.500000
O O18 0.415199 0.207600 0.500000
#
# Coordination Sequence:
#
# PCOD8327016 Si02
#       6
#    12  12  12  12  12   6
#     4   9  16  26  42  64  88 111 135 169 215 264
#     4   9  17  30  49  72  94 113 136 173 224 275
#     4  10  20  32  45  60  82 116 155 189 216 248
#     4   9  17  30  50  74  95 114 139 177 225 271
#     4   8  12  18  31  54  83 110 132 157 198 256
#     4  10  20  32  46  64  90 124 156 182 206 240
#
# _framework density 16.148266
#
# number of rings (size 3 to 8) (size 9 to 14) (size 15 to 20)
#    0.000    2.909    0.000    1.818    0.000    4.364 
#    0.000    0.909    0.000    2.727    0.000    0.000 
#    0.000    1.455    0.000    0.000    0.000    0.000 
#
# Total GULP energy -817748.083919 kJ/mol
# GULP energy per Si atom -12390.122484 kJ/mol
# Density = 1.611151 g / cm^3
# Si number density = 16.148266 Si / 1000 Ang^3
#
#
#
# Elastic Constant Matrix: (Units=GPa)
#
#
# Indices 1 2 3 4 5 6 
#
# 1 81.8180 45.2545 61.7068 0.0000 0.0001 0.0000
# 2 45.2545 81.8180 61.7068 0.0000 -0.0001 0.0000
# 3 61.7068 61.7068 142.4733 0.0000 0.0000 0.0000
# 4 0.0000 0.0000 0.0000 19.0038 0.0000 -0.0001
# 5 0.0001 -0.0001 0.0000 0.0000 19.0038 0.0000
# 6 0.0000 0.0000 0.0000 -0.0001 0.0000 18.2817
#
#
#
# Elastic Compliance Matrix: (Units=1/GPa)
#
#
# Indices 1 2 3 4 5 6 
#
# 1 0.020466 -0.006883 -0.005883 0.000000 0.000000 0.000000
# 2 -0.006883 0.020466 -0.005883 0.000000 0.000000 0.000000
# 3 -0.005883 -0.005883 0.012115 0.000000 0.000000 0.000000
# 4 0.000000 0.000000 0.000000 0.052621 0.000000 0.000000
# 5 0.000000 0.000000 0.000000 0.000000 0.052621 0.000000
# 6 0.000000 0.000000 0.000000 0.000000 0.000000 0.054699
#
#
# Mechanical properties :
#
#
# Convention : Reuss Voigt Hill
#
# Bulk Modulus (GPa) = 63.49572 71.49394 67.49483
# Shear Modulus (GPa) = 19.56657 20.42059 19.99358
#
# Velocity S-wave (km/s) = 3.48470 3.55993 3.52252
# Velocity P-wave (km/s) = 7.45632 7.82733 7.64407
#
# Compressibility (1/GPa) = 0.01574909
#
# Stress axis : x y z
#
# Youngs Moduli (GPa) = 48.86049 48.86049 82.54328
#
# Poissons Ratio (x) = 0.33632 0.48560
# Poissons Ratio (y) = 0.33632 0.48560
# Poissons Ratio (z) = 0.28745 0.28745
#
# Static dielectric constant tensor:
#      x y z
#    x 2.809600 0.000000 0.000000 
#    y 0.000000 2.809600 0.000000 
#    z 0.000000 0.000000 3.689320 
# 
# 
# High freq. dielectric constant tensor:
#      x y z
#    x 1.595180 0.000000 0.000000 
#    y 0.000000 1.595180 0.000000 
#    z 0.000000 0.000000 1.647060 
# 
# From -- ./inp_files/4427.got.cif
#   From: 2010.03.12/outbox.cif.g09.slc.cpg/sg187_3_cif.got.tgz:4427.got - 2010.04.01 11:58:23.
