data_PCOD8327330
_publ_section_title
;
Structure prediction by ZEFSAII (Michael W. Deem and Ramdas Pophale) SiO2 
 PCOD8327330
Probable space group: P -6 C 2
;
_chemical_formula_sum "Si O2"
_cell_formula_units_Z 66
_cell_length_a 14.664945
_cell_length_b 14.664945
_cell_length_c 20.691723
_cell_angle_alpha 90.000000
_cell_angle_beta 90.000000
_cell_angle_gamma 120.000000
_cell_volume 3853.791057
_symmetry_space_group_name_H-M "P -6 C 2"
_symmetry_group_IT_number 188
_symmetry_cell_setting 'hexagonal'
loop_
_space_group_symop_operation_xyz
x,y,z
-x+y,-x,1/2-z
-y,x-y,z
x,y,1/2-z
-x+y,-x,z
-y,x-y,1/2-z
-y,-x,-z
-x+y,y,-z
x,x-y,-z
-x+y,y,1/2+z
x,x-y,1/2+z
-y,-x,1/2+z
loop_
_atom_site_type_symbol
_atom_site_label
_atom_site_fract_x
_atom_site_fract_y
_atom_site_fract_z
Si Si1 0.602728 0.991708 0.371433
Si Si2 0.388980 0.397272 0.628567
Si Si3 0.068619 0.137237 0.250000
Si Si4 0.668200 0.545004 0.750000
Si Si5 0.668200 0.545003 0.250000
Si Si6 0.656766 0.828383 0.677492
Si Si7 0.664862 0.545546 0.500000
O O1 0.612340 0.888558 0.365396
O O2 0.481258 0.962516 0.365482
O O3 0.674843 0.065278 0.313536
O O4 0.653024 0.049451 0.438078
O O5 0.390436 0.325157 0.686464
O O6 0.276217 0.387660 0.634604
O O7 0.396428 0.346976 0.561922
O O8 0.107266 0.214533 0.313403
O O9 0.119560 0.059780 0.250000
O O10 0.563329 0.436671 0.750000
O O11 0.759064 0.518127 0.750000
O O12 0.605881 0.802941 0.750000
O O13 0.577612 0.422389 0.500000
O O14 0.777889 0.555778 0.500000
#
# Coordination Sequence:
#
# PCOD8327330 Si02
#       7
#    12  12   6   6   6  12  12
#     4  10  21  36  54  81 114 144 192 233 277 339
#     4  10  21  36  54  81 114 144 192 233 277 339
#     4   8  18  34  50  78 110 142 186 232 286 348
#     4  10  18  30  51  79 111 141 178 227 277 338
#     4  10  18  30  51  79 111 141 178 227 277 338
#     4  10  20  35  59  80 110 149 187 248 294 326
#     4  10  21  37  58  86 118 154 180 223 273 348
#
# _framework density 17.125993999999999
#
# number of rings (size 3 to 8) (size 9 to 14) (size 15 to 20)
#    0.727    1.455    1.818    1.455    0.000    5.091 
#    1.091    3.636    0.000    0.000    0.000    0.000 
#    0.000    0.000    0.000    0.000    0.000    0.000 
#
# Total GULP energy -818073.363001 kJ/mol
# GULP energy per Si atom -12395.050955 kJ/mol
# Density = 1.708701 g / cm^3
# Si number density = 17.125994 Si / 1000 Ang^3
#
#
#
# Elastic Constant Matrix: (Units=GPa)
#
#
# Indices 1 2 3 4 5 6 
#
# 1 52.6014 34.8315 46.3315 0.0000 0.0000 0.0000
# 2 34.8315 52.6014 46.3315 0.0000 0.0000 0.0000
# 3 46.3315 46.3315 143.0206 0.0000 0.0000 0.0000
# 4 0.0000 0.0000 0.0000 25.1721 0.0000 0.0000
# 5 0.0000 0.0000 0.0000 0.0000 25.1721 0.0000
# 6 0.0000 0.0000 0.0000 0.0000 0.0000 8.8850
#
#
#
# Elastic Compliance Matrix: (Units=1/GPa)
#
#
# Indices 1 2 3 4 5 6 
#
# 1 0.036846 -0.019429 -0.005642 0.000000 0.000000 0.000000
# 2 -0.019429 0.036846 -0.005642 0.000000 0.000000 0.000000
# 3 -0.005642 -0.005642 0.010648 0.000000 0.000000 0.000000
# 4 0.000000 0.000000 0.000000 0.039726 0.000000 0.000000
# 5 0.000000 0.000000 0.000000 0.000000 0.039726 0.000000
# 6 0.000000 0.000000 0.000000 0.000000 0.000000 0.112550
#
#
# Mechanical properties :
#
#
# Convention : Reuss Voigt Hill
#
# Bulk Modulus (GPa) = 43.64374 55.91250 49.77812
# Shear Modulus (GPa) = 14.47570 19.89444 17.18507
#
# Velocity S-wave (km/s) = 2.91047 3.41200 3.17116
# Velocity P-wave (km/s) = 6.06907 6.94557 6.52206
#
# Compressibility (1/GPa) = 0.02291279
#
# Stress axis : x y z
#
# Youngs Moduli (GPa) = 27.14001 27.14001 93.91756
#
# Poissons Ratio (x) = 0.52730 0.52991
# Poissons Ratio (y) = 0.52730 0.52991
# Poissons Ratio (z) = 0.15313 0.15313
#
# Static dielectric constant tensor:
#      x y z
#    x 3.077860 0.000000 0.000000 
#    y 0.000000 3.077860 0.000000 
#    z 0.000000 0.000000 3.237820 
# 
# 
# High freq. dielectric constant tensor:
#      x y z
#    x 1.656280 0.000000 0.000000 
#    y 0.000000 1.656280 0.000000 
#    z 0.000000 0.000000 1.659860 
# 
# From -- ./inp_files/3775.got.cif
#   From: 2010.03.12/outbox.cif.g09.slc.cpg/sg188_2_cif.got.tgz:3775.got - 2010.04.01 12:01:06.
